REMARK  Name = 
REMARK  4 active torsions:
REMARK  status: ('A' for Active; 'I' for Inactive)
REMARK    1  A    between atoms: C_1  and  S_20
REMARK    2  A    between atoms: C_3  and  C_7
REMARK    3  A    between atoms: C_5  and  C_16
REMARK    4  A    between atoms: S_20  and  C_25
REMARK                            x       y       z     vdW  Elec       q    Type
REMARK                         _______ _______ _______ _____ _____    ______ ____
ROOT
ATOM      1  C   UNL     1      45.146  34.039  41.115  0.00  0.00    +0.000 A 
ATOM      2  C   UNL     1      44.735  33.934  42.455  0.00  0.00    +0.000 A 
ATOM      3  C   UNL     1      45.693  34.313  43.410  0.00  0.00    +0.000 A 
ATOM      4  N   UNL     1      46.913  34.741  42.971  0.00  0.00    +0.000 NA
ATOM      5  C   UNL     1      47.257  34.824  41.684  0.00  0.00    +0.000 A 
ATOM      6  N   UNL     1      46.365  34.469  40.745  0.00  0.00    +0.000 NA
ENDROOT
BRANCH   3   7
ATOM      7  C   UNL     1      45.378  34.244  44.815  0.00  0.00    +0.000 A 
ATOM      8  C   UNL     1      44.645  35.150  45.540  0.00  0.00    +0.000 A 
ATOM      9  N   UNL     1      44.544  34.777  46.819  0.00  0.00    +0.000 N 
ATOM     10  C   UNL     1      45.231  33.606  46.908  0.00  0.00    +0.000 A 
ATOM     11  C   UNL     1      45.428  32.817  48.009  0.00  0.00    +0.000 A 
ATOM     12  C   UNL     1      46.150  31.650  47.945  0.00  0.00    +0.000 A 
ATOM     13  C   UNL     1      46.682  31.292  46.711  0.00  0.00    +0.000 A 
ATOM     14  C   UNL     1      46.481  32.090  45.599  0.00  0.00    +0.000 A 
ATOM     15  C   UNL     1      45.754  33.258  45.681  0.00  0.00    +0.000 A 
ATOM     16  H   UNL     1      44.051  35.271  47.577  0.00  0.00    +0.000 HD
ENDBRANCH   3   7
BRANCH   5  17
ATOM     17  C   UNL     1      48.592  35.294  41.285  0.00  0.00    +0.000 C 
ATOM     18  F   UNL     1      48.632  35.456  39.901  0.00  0.00    +0.000 F 
ATOM     19  F   UNL     1      49.546  34.330  41.572  0.00  0.00    +0.000 F 
ATOM     20  F   UNL     1      48.996  36.454  41.932  0.00  0.00    +0.000 F 
ENDBRANCH   5  17
BRANCH   1  21
ATOM     21  S   UNL     1      43.965  33.568  39.809  0.00  0.00    +0.000 S 
BRANCH  21  26
ATOM     22  N   UNL     1      39.680  32.895  42.164  0.00  0.00    +0.000 N 
ATOM     23  C   UNL     1      40.474  31.815  42.251  0.00  0.00    +0.000 A 
ATOM     24  N   UNL     1      41.617  32.121  41.568  0.00  0.00    +0.000 NA
ATOM     25  C   UNL     1      41.478  33.351  41.100  0.00  0.00    +0.000 A 
ATOM     26  C   UNL     1      42.358  34.096  40.352  0.00  0.00    +0.000 A 
ATOM     27  N   UNL     1      42.038  35.358  39.957  0.00  0.00    +0.000 NA
ATOM     28  C   UNL     1      40.826  35.835  40.332  0.00  0.00    +0.000 A 
ATOM     29  N   UNL     1      39.960  35.112  41.063  0.00  0.00    +0.000 NA
ATOM     30  C   UNL     1      40.274  33.866  41.455  0.00  0.00    +0.000 A 
ATOM     31  H   UNL     1      38.743  32.968  42.585  0.00  0.00    +0.000 HD
ENDBRANCH  21  26
ENDBRANCH   1  21
TORSDOF 4
