REMARK  Name = 
REMARK  4 active torsions:
REMARK  status: ('A' for Active; 'I' for Inactive)
REMARK    1  A    between atoms: C_1  and  C_11
REMARK    2  A    between atoms: C_5  and  C_19
REMARK    3  A    between atoms: C_7  and  C_15
REMARK    4  A    between atoms: C_19  and  C_20
REMARK                            x       y       z     vdW  Elec       q    Type
REMARK                         _______ _______ _______ _____ _____    ______ ____
ROOT
ATOM      1  C   UNL     1      46.258  33.220  38.817  0.00  0.00    +0.000 A 
ATOM      2  C   UNL     1      47.009  32.788  37.757  0.00  0.00    +0.000 A 
ATOM      3  C   UNL     1      46.424  32.103  36.712  0.00  0.00    +0.000 A 
ATOM      4  C   UNL     1      45.045  31.909  36.849  0.00  0.00    +0.000 A 
ATOM      5  C   UNL     1      44.265  32.333  37.907  0.00  0.00    +0.000 A 
ATOM      6  N   UNL     1      44.918  33.003  38.898  0.00  0.00    +0.000 NA
ENDROOT
BRANCH   1  11
ATOM      7  C   UNL     1      46.840  34.767  42.105  0.00  0.00    +0.000 A 
ATOM      8  C   UNL     1      48.092  35.343  42.030  0.00  0.00    +0.000 A 
ATOM      9  C   UNL     1      48.718  35.179  40.816  0.00  0.00    +0.000 A 
ATOM     10  C   UNL     1      48.138  34.487  39.748  0.00  0.00    +0.000 A 
ATOM     11  C   UNL     1      46.884  33.938  39.899  0.00  0.00    +0.000 A 
ATOM     12  N   UNL     1      46.276  34.103  41.092  0.00  0.00    +0.000 NA
BRANCH   7  15
ATOM     13  C   UNL     1      44.502  35.931  44.748  0.00  0.00    +0.000 A 
ATOM     14  C   UNL     1      45.197  35.895  43.527  0.00  0.00    +0.000 A 
ATOM     15  C   UNL     1      46.080  34.875  43.346  0.00  0.00    +0.000 A 
ATOM     16  N   UNL     1      46.232  33.956  44.359  0.00  0.00    +0.000 NA
ATOM     17  C   UNL     1      45.553  34.015  45.517  0.00  0.00    +0.000 A 
ATOM     18  N   UNL     1      44.677  35.013  45.715  0.00  0.00    +0.000 NA
ENDBRANCH   7  15
ENDBRANCH   1  11
BRANCH   5  19
ATOM     19  C   UNL     1      42.839  32.041  37.922  0.00  0.00    +0.000 C 
BRANCH  19  20
ATOM     20  C   UNL     1      42.007  33.178  38.391  0.00  0.00    +0.000 A 
ATOM     21  C   UNL     1      42.384  34.524  38.414  0.00  0.00    +0.000 A 
ATOM     22  N   UNL     1      41.385  35.287  38.898  0.00  0.00    +0.000 N 
ATOM     23  C   UNL     1      40.339  34.498  39.207  0.00  0.00    +0.000 A 
ATOM     24  C   UNL     1      39.066  34.723  39.731  0.00  0.00    +0.000 A 
ATOM     25  C   UNL     1      38.217  33.650  39.927  0.00  0.00    +0.000 A 
ATOM     26  C   UNL     1      38.565  32.336  39.626  0.00  0.00    +0.000 A 
ATOM     27  C   UNL     1      39.849  32.158  39.103  0.00  0.00    +0.000 A 
ATOM     28  C   UNL     1      40.710  33.193  38.898  0.00  0.00    +0.000 A 
ATOM     29  H   UNL     1      41.416  36.310  39.013  0.00  0.00    +0.000 HD
ENDBRANCH  19  20
ENDBRANCH   5  19
TORSDOF 4
