REMARK  Name = 
REMARK  4 active torsions:
REMARK  status: ('A' for Active; 'I' for Inactive)
REMARK    1  A    between atoms: C_1  and  C_11
REMARK    2  A    between atoms: C_5  and  C_19
REMARK    3  A    between atoms: C_7  and  C_15
REMARK    4  A    between atoms: C_19  and  N_20
REMARK                            x       y       z     vdW  Elec       q    Type
REMARK                         _______ _______ _______ _____ _____    ______ ____
ROOT
ATOM      1  C   UNL     1      46.128  33.179  38.747  0.00  0.00    +0.000 A 
ATOM      2  C   UNL     1      46.849  32.679  37.712  0.00  0.00    +0.000 A 
ATOM      3  C   UNL     1      46.253  31.952  36.685  0.00  0.00    +0.000 A 
ATOM      4  C   UNL     1      44.869  31.799  36.837  0.00  0.00    +0.000 A 
ATOM      5  C   UNL     1      44.110  32.294  37.876  0.00  0.00    +0.000 A 
ATOM      6  N   UNL     1      44.777  32.997  38.838  0.00  0.00    +0.000 NA
ENDROOT
BRANCH   1  11
ATOM      7  C   UNL     1      46.778  34.754  42.004  0.00  0.00    +0.000 A 
ATOM      8  C   UNL     1      48.035  35.309  41.903  0.00  0.00    +0.000 A 
ATOM      9  C   UNL     1      48.641  35.126  40.682  0.00  0.00    +0.000 A 
ATOM     10  C   UNL     1      48.030  34.434  39.634  0.00  0.00    +0.000 A 
ATOM     11  C   UNL     1      46.764  33.905  39.813  0.00  0.00    +0.000 A 
ATOM     12  N   UNL     1      46.185  34.094  41.016  0.00  0.00    +0.000 NA
BRANCH   7  15
ATOM     13  C   UNL     1      44.497  36.027  44.648  0.00  0.00    +0.000 A 
ATOM     14  C   UNL     1      45.192  35.935  43.431  0.00  0.00    +0.000 A 
ATOM     15  C   UNL     1      46.039  34.886  43.256  0.00  0.00    +0.000 A 
ATOM     16  N   UNL     1      46.165  33.978  44.283  0.00  0.00    +0.000 NA
ATOM     17  C   UNL     1      45.483  34.098  45.440  0.00  0.00    +0.000 A 
ATOM     18  N   UNL     1      44.646  35.130  45.619  0.00  0.00    +0.000 NA
ENDBRANCH   7  15
ENDBRANCH   1  11
BRANCH   5  19
ATOM     19  C   UNL     1      42.671  32.046  37.921  0.00  0.00    +0.000 C 
BRANCH  19  20
ATOM     20  N   UNL     1      42.403  31.540  39.277  0.00  0.00    +0.000 N 
ATOM     21  C   UNL     1      43.072  30.692  40.049  0.00  0.00    +0.000 A 
ATOM     22  N   UNL     1      42.431  30.535  41.221  0.00  0.00    +0.000 NA
ATOM     23  C   UNL     1      41.308  31.309  41.212  0.00  0.00    +0.000 A 
ATOM     24  C   UNL     1      40.279  31.558  42.108  0.00  0.00    +0.000 A 
ATOM     25  O   UNL     1      40.335  30.954  43.221  0.00  0.00    +0.000 OA
ATOM     26  N   UNL     1      39.272  32.398  41.810  0.00  0.00    +0.000 N 
ATOM     27  C   UNL     1      39.331  32.974  40.597  0.00  0.00    +0.000 A 
ATOM     28  N   UNL     1      38.305  33.883  40.188  0.00  0.00    +0.000 N 
ATOM     29  N   UNL     1      40.305  32.767  39.692  0.00  0.00    +0.000 NA
ATOM     30  C   UNL     1      41.319  31.936  39.963  0.00  0.00    +0.000 A 
ATOM     31  H   UNL     1      38.504  32.588  42.470  0.00  0.00    +0.000 HD
ATOM     32  H   UNL     1      38.349  34.325  39.259  0.00  0.00    +0.000 HD
ATOM     33  H   UNL     1      37.522  34.096  40.823  0.00  0.00    +0.000 HD
ENDBRANCH  19  20
ENDBRANCH   5  19
TORSDOF 4
