REMARK  Name = 
REMARK  3 active torsions:
REMARK  status: ('A' for Active; 'I' for Inactive)
REMARK    1  A    between atoms: C_1  and  S_20
REMARK    2  A    between atoms: C_5  and  C_16
REMARK    3  A    between atoms: S_20  and  C_25
REMARK                            x       y       z     vdW  Elec       q    Type
REMARK                         _______ _______ _______ _____ _____    ______ ____
ROOT
ATOM      1  C   UNL     1      45.206  33.907  41.110  0.00  0.00    +0.000 A 
ATOM      2  C   UNL     1      44.840  33.728  42.451  0.00  0.00    +0.000 A 
ATOM      3  C   UNL     1      45.796  34.104  43.406  0.00  0.00    +0.000 A 
ATOM      4  N   UNL     1      46.986  34.606  42.966  0.00  0.00    +0.000 NA
ATOM      5  C   UNL     1      47.293  34.760  41.660  0.00  0.00    +0.000 A 
ATOM      6  N   UNL     1      46.395  34.406  40.749  0.00  0.00    +0.000 NA
ATOM      7  N   UNL     1      45.516  33.961  44.795  0.00  0.00    +0.000 N 
ATOM      8  C   UNL     1      44.841  34.933  45.476  0.00  0.00    +0.000 A 
ATOM      9  N   UNL     1      44.669  34.628  46.769  0.00  0.00    +0.000 NA
ATOM     10  C   UNL     1      45.254  33.409  46.945  0.00  0.00    +0.000 A 
ATOM     11  C   UNL     1      45.457  32.503  47.982  0.00  0.00    +0.000 A 
ATOM     12  N   UNL     1      46.109  31.346  47.761  0.00  0.00    +0.000 NA
ATOM     13  C   UNL     1      46.592  31.004  46.557  0.00  0.00    +0.000 A 
ATOM     14  N   UNL     1      46.424  31.849  45.506  0.00  0.00    +0.000 NA
ATOM     15  C   UNL     1      45.766  33.019  45.724  0.00  0.00    +0.000 A 
ENDROOT
BRANCH   5  16
ATOM     16  C   UNL     1      48.595  35.307  41.251  0.00  0.00    +0.000 C 
ATOM     17  F   UNL     1      48.614  35.450  39.861  0.00  0.00    +0.000 F 
ATOM     18  F   UNL     1      49.611  34.408  41.564  0.00  0.00    +0.000 F 
ATOM     19  F   UNL     1      48.928  36.494  41.896  0.00  0.00    +0.000 F 
ENDBRANCH   5  16
BRANCH   1  20
ATOM     20  S   UNL     1      44.014  33.440  39.811  0.00  0.00    +0.000 S 
BRANCH  20  25
ATOM     21  N   UNL     1      39.705  32.946  42.149  0.00  0.00    +0.000 N 
ATOM     22  C   UNL     1      40.445  31.834  42.245  0.00  0.00    +0.000 A 
ATOM     23  N   UNL     1      41.600  32.095  41.565  0.00  0.00    +0.000 NA
ATOM     24  C   UNL     1      41.507  33.326  41.099  0.00  0.00    +0.000 A 
ATOM     25  C   UNL     1      42.419  34.042  40.350  0.00  0.00    +0.000 A 
ATOM     26  N   UNL     1      42.147  35.315  39.955  0.00  0.00    +0.000 NA
ATOM     27  C   UNL     1      40.952  35.842  40.328  0.00  0.00    +0.000 A 
ATOM     28  N   UNL     1      40.054  35.150  41.060  0.00  0.00    +0.000 NA
ATOM     29  C   UNL     1      40.322  33.897  41.449  0.00  0.00    +0.000 A 
ATOM     30  H   UNL     1      38.770  33.053  42.567  0.00  0.00    +0.000 HD
ENDBRANCH  20  25
ENDBRANCH   1  20
TORSDOF 3
