REMARK  Name = 
REMARK  3 active torsions:
REMARK  status: ('A' for Active; 'I' for Inactive)
REMARK    1  A    between atoms: C_1  and  C_21
REMARK    2  A    between atoms: C_5  and  C_7
REMARK    3  A    between atoms: C_17  and  C_25
REMARK                            x       y       z     vdW  Elec       q    Type
REMARK                         _______ _______ _______ _____ _____    ______ ____
ROOT
ATOM      1  C   UNL     1      46.152  33.297  38.694  0.00  0.00    +0.000 A 
ATOM      2  C   UNL     1      46.866  32.927  37.588  0.00  0.00    +0.000 A 
ATOM      3  C   UNL     1      46.213  32.278  36.541  0.00  0.00    +0.000 A 
ATOM      4  C   UNL     1      44.867  32.064  36.729  0.00  0.00    +0.000 A 
ATOM      5  C   UNL     1      44.128  32.415  37.816  0.00  0.00    +0.000 A 
ATOM      6  N   UNL     1      44.846  33.049  38.798  0.00  0.00    +0.000 NA
ENDROOT
BRANCH   5   7
ATOM      7  C   UNL     1      42.725  32.306  38.092  0.00  0.00    +0.000 A 
ATOM      8  C   UNL     1      42.124  31.052  37.913  0.00  0.00    +0.000 A 
ATOM      9  C   UNL     1      40.807  30.748  38.110  0.00  0.00    +0.000 A 
ATOM     10  C   UNL     1      39.973  31.756  38.525  0.00  0.00    +0.000 A 
ATOM     11  C   UNL     1      40.474  33.023  38.725  0.00  0.00    +0.000 A 
ATOM     12  C   UNL     1      39.631  34.044  39.107  0.00  0.00    +0.000 A 
ATOM     13  C   UNL     1      40.087  35.354  39.284  0.00  0.00    +0.000 A 
ATOM     14  C   UNL     1      41.441  35.551  39.048  0.00  0.00    +0.000 A 
ATOM     15  C   UNL     1      42.235  34.515  38.674  0.00  0.00    +0.000 A 
ATOM     16  C   UNL     1      41.809  33.230  38.500  0.00  0.00    +0.000 A 
ENDBRANCH   5   7
BRANCH   1  21
ATOM     17  C   UNL     1      46.822  34.743  42.020  0.00  0.00    +0.000 A 
ATOM     18  C   UNL     1      48.090  35.277  41.944  0.00  0.00    +0.000 A 
ATOM     19  C   UNL     1      48.708  35.128  40.719  0.00  0.00    +0.000 A 
ATOM     20  C   UNL     1      48.095  34.483  39.641  0.00  0.00    +0.000 A 
ATOM     21  C   UNL     1      46.828  33.976  39.793  0.00  0.00    +0.000 A 
ATOM     22  N   UNL     1      46.232  34.128  40.997  0.00  0.00    +0.000 NA
BRANCH  17  25
ATOM     23  C   UNL     1      44.499  35.938  44.683  0.00  0.00    +0.000 A 
ATOM     24  C   UNL     1      45.199  35.871  43.468  0.00  0.00    +0.000 A 
ATOM     25  C   UNL     1      46.082  34.844  43.264  0.00  0.00    +0.000 A 
ATOM     26  N   UNL     1      46.223  33.943  44.273  0.00  0.00    +0.000 NA
ATOM     27  C   UNL     1      45.547  34.015  45.438  0.00  0.00    +0.000 A 
ATOM     28  N   UNL     1      44.687  35.014  45.635  0.00  0.00    +0.000 NA
ENDBRANCH  17  25
ENDBRANCH   1  21
TORSDOF 3
