REMARK  Name = 
REMARK  5 active torsions:
REMARK  status: ('A' for Active; 'I' for Inactive)
REMARK    1  A    between atoms: C_3  and  C_7
REMARK    2  A    between atoms: C_5  and  C_21
REMARK    3  A    between atoms: C_11  and  N_12
REMARK    4  A    between atoms: C_14  and  C_15
REMARK    5  A    between atoms: C_24  and  C_26
REMARK                            x       y       z     vdW  Elec       q    Type
REMARK                         _______ _______ _______ _____ _____    ______ ____
ROOT
ATOM      1  C   UNL     1      40.764  35.977  41.051  0.00  0.00    +0.000 A 
ATOM      2  C   UNL     1      40.209  35.369  39.894  0.00  0.00    +0.000 A 
ATOM      3  C   UNL     1      40.835  34.237  39.367  0.00  0.00    +0.000 A 
ATOM      4  N   UNL     1      41.935  33.754  39.962  0.00  0.00    +0.000 NA
ATOM      5  C   UNL     1      42.441  34.358  41.069  0.00  0.00    +0.000 A 
ATOM      6  N   UNL     1      41.865  35.458  41.611  0.00  0.00    +0.000 NA
ENDROOT
BRANCH   3   7
ATOM      7  C   UNL     1      40.290  33.571  38.178  0.00  0.00    +0.000 C 
ATOM      8  C   UNL     1      39.036  34.133  37.650  0.00  0.00    +0.000 C 
ATOM      9  C   UNL     1      37.924  33.347  38.331  0.00  0.00    +0.000 C 
ATOM     10  C   UNL     1      38.520  31.978  38.525  0.00  0.00    +0.000 C 
ATOM     11  C   UNL     1      39.986  32.116  38.390  0.00  0.00    +0.000 C 
BRANCH  11  12
ATOM     12  N   UNL     1      40.644  31.232  37.498  0.00  0.00    +0.000 N 
ATOM     13  C   UNL     1      41.945  31.236  37.150  0.00  0.00    +0.000 A 
ATOM     14  C   UNL     1      42.525  30.344  36.273  0.00  0.00    +0.000 A 
ATOM     15  C   UNL     1      43.983  30.476  35.987  0.00  0.00    +0.000 C 
ATOM     16  C   UNL     1      41.747  29.366  35.692  0.00  0.00    +0.000 A 
ATOM     17  O   UNL     1      42.277  28.563  34.898  0.00  0.00    +0.000 OA
ATOM     18  N   UNL     1      40.445  29.349  36.026  0.00  0.00    +0.000 N 
ATOM     19  C   UNL     1      39.938  30.234  36.880  0.00  0.00    +0.000 A 
ATOM     20  O   UNL     1      38.689  30.116  37.119  0.00  0.00    +0.000 OA
ATOM     21  H   UNL     1      39.827  28.636  35.612  0.00  0.00    +0.000 HD
ENDBRANCH  11  12
ENDBRANCH   3   7
BRANCH   5  22
ATOM     22  C   UNL     1      43.635  33.855  41.762  0.00  0.00    +0.000 A 
ATOM     23  N   UNL     1      43.877  32.693  42.400  0.00  0.00    +0.000 NA
ATOM     24  O   UNL     1      45.095  32.682  42.875  0.00  0.00    +0.000 OA
ATOM     25  C   UNL     1      45.688  33.821  42.570  0.00  0.00    +0.000 A 
ATOM     26  N   UNL     1      44.774  34.551  41.875  0.00  0.00    +0.000 NA
BRANCH  25  27
ATOM     27  C   UNL     1      47.040  34.158  42.933  0.00  0.00    +0.000 C 
ATOM     28  O   UNL     1      47.653  33.618  43.820  0.00  0.00    +0.000 OA
ATOM     29  N   UNL     1      47.544  35.180  42.133  0.00  0.00    +0.000 N 
ATOM     30  C   UNL     1      48.940  35.399  42.317  0.00  0.00    +0.000 C 
ATOM     31  N   UNL     1      49.856  34.923  43.045  0.00  0.00    +0.000 NA
ATOM     32  N   UNL     1      49.712  36.360  41.592  0.00  0.00    +0.000 N 
ATOM     33  H   UNL     1      49.834  33.956  43.380  0.00  0.00    +0.000 HD
ATOM     34  H   UNL     1      46.967  35.723  41.475  0.00  0.00    +0.000 HD
ATOM     35  H   UNL     1      50.719  36.460  41.782  0.00  0.00    +0.000 HD
ATOM     36  H   UNL     1      49.261  36.952  40.880  0.00  0.00    +0.000 HD
ENDBRANCH  25  27
ENDBRANCH   5  22
TORSDOF 4
