REMARK  Name = 
REMARK  1 active torsions:
REMARK  status: ('A' for Active; 'I' for Inactive)
REMARK    1  A    between atoms: C_1  and  C_13
REMARK                            x       y       z     vdW  Elec       q    Type
REMARK                         _______ _______ _______ _____ _____    ______ ____
ROOT
ATOM      1  C   UNL     1      44.525  35.643  45.079  0.00  0.00    +0.000 A 
ATOM      2  C   UNL     1      45.148  35.755  43.839  0.00  0.00    +0.000 A 
ATOM      3  C   UNL     1      46.072  34.824  43.382  0.00  0.00    +0.000 A 
ATOM      4  N   UNL     1      46.295  33.808  44.268  0.00  0.00    +0.000 NA
ATOM      5  C   UNL     1      45.708  33.687  45.453  0.00  0.00    +0.000 A 
ATOM      6  N   UNL     1      44.834  34.595  45.852  0.00  0.00    +0.000 NA
ATOM      7  N   UNL     1      46.024  32.579  46.291  0.00  0.00    +0.000 N 
ATOM      8  C   UNL     1      46.417  31.291  45.748  0.00  0.00    +0.000 C 
ATOM      9  C   UNL     1      46.065  30.280  46.823  0.00  0.00    +0.000 C 
ATOM     10  N   UNL     1      44.767  30.625  47.391  0.00  0.00    +0.000 NA
ATOM     11  C   UNL     1      44.874  31.781  48.249  0.00  0.00    +0.000 C 
ATOM     12  C   UNL     1      45.956  32.711  47.736  0.00  0.00    +0.000 C 
ATOM     13  H   UNL     1      44.108  30.831  46.627  0.00  0.00    +0.000 HD
ENDROOT
BRANCH   3  14
ATOM     14  C   UNL     1      46.803  34.761  42.145  0.00  0.00    +0.000 A 
ATOM     15  C   UNL     1      48.020  35.421  42.082  0.00  0.00    +0.000 A 
ATOM     16  C   UNL     1      48.832  35.445  40.969  0.00  0.00    +0.000 A 
ATOM     17  C   UNL     1      48.431  34.780  39.840  0.00  0.00    +0.000 A 
ATOM     18  C   UNL     1      47.236  34.104  39.833  0.00  0.00    +0.000 A 
ATOM     19  C   UNL     1      46.818  33.435  38.699  0.00  0.00    +0.000 A 
ATOM     20  C   UNL     1      45.621  32.750  38.646  0.00  0.00    +0.000 A 
ATOM     21  C   UNL     1      44.868  32.779  39.807  0.00  0.00    +0.000 A 
ATOM     22  C   UNL     1      45.298  33.443  40.912  0.00  0.00    +0.000 A 
ATOM     23  C   UNL     1      46.476  34.122  40.973  0.00  0.00    +0.000 A 
ENDBRANCH   3  14
TORSDOF 1
