REMARK  Name = 
REMARK  3 active torsions:
REMARK  status: ('A' for Active; 'I' for Inactive)
REMARK    1  A    between atoms: C_1  and  S_16
REMARK    2  A    between atoms: C_5  and  C_12
REMARK    3  A    between atoms: S_16  and  C_21
REMARK                            x       y       z     vdW  Elec       q    Type
REMARK                         _______ _______ _______ _____ _____    ______ ____
ROOT
ATOM      1  C   UNL     1      45.206  33.927  41.159  0.00  0.00    +0.000 A 
ATOM      2  C   UNL     1      44.842  33.811  42.524  0.00  0.00    +0.000 A 
ATOM      3  C   UNL     1      45.803  34.223  43.447  0.00  0.00    +0.000 A 
ATOM      4  N   UNL     1      46.993  34.697  43.000  0.00  0.00    +0.000 NA
ATOM      5  C   UNL     1      47.305  34.793  41.696  0.00  0.00    +0.000 A 
ATOM      6  N   UNL     1      46.406  34.406  40.798  0.00  0.00    +0.000 NA
ATOM      7  N   UNL     1      45.479  34.124  44.828  0.00  0.00    +0.000 N 
ATOM      8  C   UNL     1      45.927  33.044  45.487  0.00  0.00    +0.000 A 
ATOM      9  N   UNL     1      45.527  33.119  46.777  0.00  0.00    +0.000 NA
ATOM     10  C   UNL     1      44.816  34.271  46.909  0.00  0.00    +0.000 A 
ATOM     11  N   UNL     1      44.800  34.866  45.711  0.00  0.00    +0.000 NA
ENDROOT
BRANCH   5  12
ATOM     12  C   UNL     1      48.615  35.316  41.263  0.00  0.00    +0.000 C 
ATOM     13  F   UNL     1      48.612  35.441  39.872  0.00  0.00    +0.000 F 
ATOM     14  F   UNL     1      49.612  34.398  41.555  0.00  0.00    +0.000 F 
ATOM     15  F   UNL     1      48.974  36.492  41.888  0.00  0.00    +0.000 F 
ENDBRANCH   5  12
BRANCH   1  16
ATOM     16  S   UNL     1      44.014  33.412  39.902  0.00  0.00    +0.000 S 
BRANCH  16  21
ATOM     17  N   UNL     1      39.646  32.984  42.150  0.00  0.00    +0.000 N 
ATOM     18  C   UNL     1      40.366  31.860  42.247  0.00  0.00    +0.000 A 
ATOM     19  N   UNL     1      41.534  32.114  41.592  0.00  0.00    +0.000 NA
ATOM     20  C   UNL     1      41.485  33.346  41.131  0.00  0.00    +0.000 A 
ATOM     21  C   UNL     1      42.417  34.049  40.411  0.00  0.00    +0.000 A 
ATOM     22  N   UNL     1      42.183  35.323  40.023  0.00  0.00    +0.000 NA
ATOM     23  C   UNL     1      40.990  35.866  40.377  0.00  0.00    +0.000 A 
ATOM     24  N   UNL     1      40.068  35.192  41.081  0.00  0.00    +0.000 NA
ATOM     25  C   UNL     1      40.297  33.929  41.468  0.00  0.00    +0.000 A 
ATOM     26  H   UNL     1      38.706  33.105  42.552  0.00  0.00    +0.000 HD
ENDBRANCH  16  21
ENDBRANCH   1  16
TORSDOF 3
