REMARK  Name = 
REMARK  1 active torsions:
REMARK  status: ('A' for Active; 'I' for Inactive)
REMARK    1  A    between atoms: C_12  and  C_13
REMARK                            x       y       z     vdW  Elec       q    Type
REMARK                         _______ _______ _______ _____ _____    ______ ____
ROOT
ATOM      1  C   UNL     1      46.010  30.682  45.246  0.00  0.00    +0.000 A 
ATOM      2  N   UNL     1      45.873  30.526  43.925  0.00  0.00    +0.000 NA
ATOM      3  O   UNL     1      45.179  29.458  43.645  0.00  0.00    +0.000 OA
ATOM      4  C   UNL     1      44.854  28.904  44.787  0.00  0.00    +0.000 A 
ATOM      5  N   UNL     1      45.347  29.626  45.821  0.00  0.00    +0.000 NA
ATOM      6  N   UNL     1      44.091  27.707  44.961  0.00  0.00    +0.000 N 
ATOM      7  C   UNL     1      44.575  26.432  44.885  0.00  0.00    +0.000 A 
ATOM      8  N   UNL     1      43.633  25.516  45.089  0.00  0.00    +0.000 NA
ATOM      9  C   UNL     1      42.498  26.181  45.307  0.00  0.00    +0.000 A 
ATOM     10  C   UNL     1      41.202  25.762  45.574  0.00  0.00    +0.000 A 
ATOM     11  O   UNL     1      40.984  24.529  45.638  0.00  0.00    +0.000 OA
ATOM     12  N   UNL     1      40.255  26.722  45.747  0.00  0.00    +0.000 N 
ATOM     13  C   UNL     1      40.538  28.037  45.668  0.00  0.00    +0.000 A 
ATOM     14  N   UNL     1      39.388  28.831  45.886  0.00  0.00    +0.000 N 
ATOM     15  N   UNL     1      41.805  28.448  45.407  0.00  0.00    +0.000 NA
ATOM     16  C   UNL     1      42.784  27.544  45.226  0.00  0.00    +0.000 A 
ATOM     17  H   UNL     1      39.286  26.434  45.946  0.00  0.00    +0.000 HD
ATOM     18  H   UNL     1      39.458  29.858  45.855  0.00  0.00    +0.000 HD
ATOM     19  H   UNL     1      38.481  28.382  46.076  0.00  0.00    +0.000 HD
ENDROOT
BRANCH   1  31
ATOM     20  C   UNL     1      44.515  35.895  44.881  0.00  0.00    +0.000 A 
ATOM     21  C   UNL     1      45.092  35.900  43.585  0.00  0.00    +0.000 A 
ATOM     22  C   UNL     1      45.925  34.846  43.258  0.00  0.00    +0.000 A 
ATOM     23  N   UNL     1      46.155  33.863  44.177  0.00  0.00    +0.000 NA
ATOM     24  C   UNL     1      45.581  33.904  45.399  0.00  0.00    +0.000 A 
ATOM     25  N   UNL     1      44.774  34.907  45.741  0.00  0.00    +0.000 NA
ATOM     26  N   UNL     1      45.848  32.842  46.365  0.00  0.00    +0.000 N 
ATOM     27  C   UNL     1      45.234  32.877  47.669  0.00  0.00    +0.000 C 
ATOM     28  C   UNL     1      46.130  32.326  48.748  0.00  0.00    +0.000 C 
ATOM     29  C   UNL     1      47.546  32.276  48.246  0.00  0.00    +0.000 C 
ATOM     30  C   UNL     1      47.563  31.255  47.110  0.00  0.00    +0.000 C 
ATOM     31  C   UNL     1      46.738  31.760  45.982  0.00  0.00    +0.000 C 
ENDBRANCH   1  31
TORSDOF 1
