REMARK  Name = 
REMARK  6 active torsions:
REMARK  status: ('A' for Active; 'I' for Inactive)
REMARK    1  A    between atoms: C_3  and  C_21
REMARK    2  A    between atoms: C_5  and  C_7
REMARK    3  A    between atoms: C_10  and  C_12
REMARK    4  A    between atoms: C_21  and  C_22
REMARK    5  A    between atoms: C_22  and  C_23
REMARK    6  A    between atoms: C_27  and  C_29
REMARK                            x       y       z     vdW  Elec       q    Type
REMARK                         _______ _______ _______ _____ _____    ______ ____
ROOT
ATOM      1  C   UNL     1      44.599  35.455  45.281  0.00  0.00    +0.000 A 
ATOM      2  C   UNL     1      45.323  35.178  44.108  0.00  0.00    +0.000 A 
ATOM      3  C   UNL     1      46.134  34.097  44.004  0.00  0.00    +0.000 A 
ATOM      4  N   UNL     1      46.229  33.279  45.074  0.00  0.00    +0.000 NA
ATOM      5  C   UNL     1      45.523  33.556  46.208  0.00  0.00    +0.000 A 
ATOM      6  N   UNL     1      44.736  34.602  46.312  0.00  0.00    +0.000 NA
ENDROOT
BRANCH   5   7
ATOM      7  C   UNL     1      45.776  32.525  47.261  0.00  0.00    +0.000 A 
ATOM      8  C   UNL     1      44.898  32.081  48.350  0.00  0.00    +0.000 A 
ATOM      9  S   UNL     1      45.985  30.854  49.102  0.00  0.00    +0.000 S 
ATOM     10  C   UNL     1      47.392  31.130  47.872  0.00  0.00    +0.000 A 
ATOM     11  N   UNL     1      46.983  32.067  47.026  0.00  0.00    +0.000 NA
BRANCH  10  12
ATOM     12  C   UNL     1      48.645  30.309  48.038  0.00  0.00    +0.000 A 
ATOM     13  C   UNL     1      48.895  29.153  47.392  0.00  0.00    +0.000 A 
ATOM     14  N   UNL     1      50.127  28.812  47.875  0.00  0.00    +0.000 N 
ATOM     15  C   UNL     1      50.564  29.746  48.767  0.00  0.00    +0.000 A 
ATOM     16  C   UNL     1      51.751  29.798  49.493  0.00  0.00    +0.000 A 
ATOM     17  C   UNL     1      51.936  30.890  50.347  0.00  0.00    +0.000 A 
ATOM     18  C   UNL     1      50.955  31.860  50.441  0.00  0.00    +0.000 A 
ATOM     19  C   UNL     1      49.768  31.812  49.719  0.00  0.00    +0.000 A 
ATOM     20  C   UNL     1      49.594  30.748  48.890  0.00  0.00    +0.000 A 
ATOM     21  H   UNL     1      50.652  27.968  47.603  0.00  0.00    +0.000 HD
ENDBRANCH  10  12
ENDBRANCH   5   7
BRANCH   3  22
ATOM     22  C   UNL     1      46.875  33.833  42.774  0.00  0.00    +0.000 C 
BRANCH  22  23
ATOM     23  C   UNL     1      46.695  34.806  41.668  0.00  0.00    +0.000 C 
BRANCH  23  24
ATOM     24  C   UNL     1      45.679  34.245  40.725  0.00  0.00    +0.000 A 
ATOM     25  C   UNL     1      46.002  33.320  39.756  0.00  0.00    +0.000 A 
ATOM     26  C   UNL     1      45.157  32.751  38.857  0.00  0.00    +0.000 A 
ATOM     27  N   UNL     1      43.859  33.168  38.955  0.00  0.00    +0.000 NA
ATOM     28  C   UNL     1      43.506  34.074  39.893  0.00  0.00    +0.000 A 
ATOM     29  N   UNL     1      44.371  34.626  40.779  0.00  0.00    +0.000 NA
BRANCH  28  30
ATOM     30  C   UNL     1      42.108  34.469  39.937  0.00  0.00    +0.000 A 
ATOM     31  C   UNL     1      41.696  35.512  40.771  0.00  0.00    +0.000 A 
ATOM     32  C   UNL     1      40.374  35.875  40.805  0.00  0.00    +0.000 A 
ATOM     33  N   UNL     1      39.470  35.248  40.055  0.00  0.00    +0.000 NA
ATOM     34  C   UNL     1      39.891  34.235  39.251  0.00  0.00    +0.000 A 
ATOM     35  N   UNL     1      41.194  33.835  39.180  0.00  0.00    +0.000 NA
ENDBRANCH  28  30
ENDBRANCH  23  24
ENDBRANCH  22  23
ENDBRANCH   3  22
TORSDOF 6
