REMARK  Name = 
REMARK  1 active torsions:
REMARK  status: ('A' for Active; 'I' for Inactive)
REMARK    1  A    between atoms: C_1  and  C_13
REMARK                            x       y       z     vdW  Elec       q    Type
REMARK                         _______ _______ _______ _____ _____    ______ ____
ROOT
ATOM      1  C   UNL     1      44.401  35.909  44.910  0.00  0.00    +0.000 A 
ATOM      2  C   UNL     1      45.046  35.921  43.679  0.00  0.00    +0.000 A 
ATOM      3  C   UNL     1      45.996  34.982  43.315  0.00  0.00    +0.000 A 
ATOM      4  N   UNL     1      46.231  34.051  44.287  0.00  0.00    +0.000 NA
ATOM      5  C   UNL     1      45.620  34.024  45.476  0.00  0.00    +0.000 A 
ATOM      6  N   UNL     1      44.718  34.941  45.780  0.00  0.00    +0.000 NA
ATOM      7  N   UNL     1      45.953  32.998  46.407  0.00  0.00    +0.000 N 
ATOM      8  C   UNL     1      45.328  32.912  47.713  0.00  0.00    +0.000 C 
ATOM      9  C   UNL     1      45.346  31.505  48.247  0.00  0.00    +0.000 C 
ATOM     10  C   UNL     1      45.196  30.520  47.108  0.00  0.00    +0.000 C 
ATOM     11  C   UNL     1      46.350  30.592  46.142  0.00  0.00    +0.000 C 
ATOM     12  C   UNL     1      46.939  31.992  46.077  0.00  0.00    +0.000 C 
ENDROOT
BRANCH   3  13
ATOM     13  C   UNL     1      46.753  34.837  42.102  0.00  0.00    +0.000 A 
ATOM     14  C   UNL     1      47.998  35.444  42.038  0.00  0.00    +0.000 A 
ATOM     15  C   UNL     1      48.838  35.384  40.949  0.00  0.00    +0.000 A 
ATOM     16  C   UNL     1      48.436  34.686  39.847  0.00  0.00    +0.000 A 
ATOM     17  C   UNL     1      47.214  34.057  39.833  0.00  0.00    +0.000 A 
ATOM     18  C   UNL     1      46.798  33.351  38.723  0.00  0.00    +0.000 A 
ATOM     19  C   UNL     1      45.576  32.709  38.669  0.00  0.00    +0.000 A 
ATOM     20  C   UNL     1      44.798  32.824  39.809  0.00  0.00    +0.000 A 
ATOM     21  C   UNL     1      45.228  33.520  40.886  0.00  0.00    +0.000 A 
ATOM     22  C   UNL     1      46.440  34.162  40.951  0.00  0.00    +0.000 A 
ENDBRANCH   3  13
TORSDOF 1
