REMARK  Name = 
REMARK  2 active torsions:
REMARK  status: ('A' for Active; 'I' for Inactive)
REMARK    1  A    between atoms: C_1  and  C_20
REMARK    2  A    between atoms: C_16  and  C_24
REMARK                            x       y       z     vdW  Elec       q    Type
REMARK                         _______ _______ _______ _____ _____    ______ ____
ROOT
ATOM      1  C   UNL     1      46.053  33.124  38.864  0.00  0.00    +0.000 A 
ATOM      2  C   UNL     1      46.788  32.510  37.882  0.00  0.00    +0.000 A 
ATOM      3  C   UNL     1      46.144  31.804  36.869  0.00  0.00    +0.000 A 
ATOM      4  C   UNL     1      44.763  31.791  36.955  0.00  0.00    +0.000 A 
ATOM      5  C   UNL     1      44.002  32.395  37.921  0.00  0.00    +0.000 A 
ATOM      6  N   UNL     1      44.698  33.070  38.884  0.00  0.00    +0.000 NA
ATOM      7  N   UNL     1      42.582  32.322  37.921  0.00  0.00    +0.000 N 
ATOM      8  C   UNL     1      41.805  31.346  37.407  0.00  0.00    +0.000 A 
ATOM      9  N   UNL     1      40.489  31.620  37.594  0.00  0.00    +0.000 NA
ATOM     10  C   UNL     1      40.404  32.791  38.238  0.00  0.00    +0.000 A 
ATOM     11  C   UNL     1      39.377  33.607  38.715  0.00  0.00    +0.000 A 
ATOM     12  N   UNL     1      39.653  34.765  39.342  0.00  0.00    +0.000 NA
ATOM     13  C   UNL     1      40.928  35.178  39.533  0.00  0.00    +0.000 A 
ATOM     14  N   UNL     1      41.949  34.412  39.084  0.00  0.00    +0.000 NA
ATOM     15  C   UNL     1      41.712  33.235  38.445  0.00  0.00    +0.000 A 
ENDROOT
BRANCH   1  20
ATOM     16  C   UNL     1      46.763  34.713  42.117  0.00  0.00    +0.000 A 
ATOM     17  C   UNL     1      48.006  35.275  41.991  0.00  0.00    +0.000 A 
ATOM     18  C   UNL     1      48.593  35.093  40.762  0.00  0.00    +0.000 A 
ATOM     19  C   UNL     1      47.977  34.391  39.712  0.00  0.00    +0.000 A 
ATOM     20  C   UNL     1      46.726  33.857  39.916  0.00  0.00    +0.000 A 
ATOM     21  N   UNL     1      46.156  34.041  41.131  0.00  0.00    +0.000 NA
BRANCH  16  24
ATOM     22  C   UNL     1      44.497  35.974  44.797  0.00  0.00    +0.000 A 
ATOM     23  C   UNL     1      45.176  35.885  43.567  0.00  0.00    +0.000 A 
ATOM     24  C   UNL     1      46.042  34.839  43.373  0.00  0.00    +0.000 A 
ATOM     25  N   UNL     1      46.186  33.952  44.392  0.00  0.00    +0.000 NA
ATOM     26  C   UNL     1      45.532  34.045  45.563  0.00  0.00    +0.000 A 
ATOM     27  N   UNL     1      44.679  35.070  45.763  0.00  0.00    +0.000 NA
ENDBRANCH  16  24
ENDBRANCH   1  20
TORSDOF 2
