REMARK  Name = 
REMARK  3 active torsions:
REMARK  status: ('A' for Active; 'I' for Inactive)
REMARK    1  A    between atoms: C_1  and  C_7
REMARK    2  A    between atoms: C_5  and  C_17
REMARK    3  A    between atoms: C_17  and  C_19
REMARK                            x       y       z     vdW  Elec       q    Type
REMARK                         _______ _______ _______ _____ _____    ______ ____
ROOT
ATOM      1  C   UNL     1      37.571  29.857  40.433  0.00  0.00    +0.000 A 
ATOM      2  C   UNL     1      36.627  30.395  39.565  0.00  0.00    +0.000 A 
ATOM      3  C   UNL     1      36.905  31.394  38.635  0.00  0.00    +0.000 A 
ATOM      4  N   UNL     1      38.194  31.827  38.623  0.00  0.00    +0.000 NA
ATOM      5  C   UNL     1      39.131  31.342  39.434  0.00  0.00    +0.000 A 
ATOM      6  N   UNL     1      38.762  30.398  40.279  0.00  0.00    +0.000 NA
ENDROOT
BRANCH   1   7
ATOM      7  C   UNL     1      37.460  28.861  41.433  0.00  0.00    +0.000 A 
ATOM      8  C   UNL     1      37.575  29.319  42.754  0.00  0.00    +0.000 A 
ATOM      9  C   UNL     1      37.488  28.501  43.873  0.00  0.00    +0.000 A 
ATOM     10  C   UNL     1      37.278  27.153  43.687  0.00  0.00    +0.000 A 
ATOM     11  C   UNL     1      37.156  26.636  42.407  0.00  0.00    +0.000 A 
ATOM     12  C   UNL     1      36.948  25.288  42.209  0.00  0.00    +0.000 A 
ATOM     13  C   UNL     1      36.826  24.745  40.952  0.00  0.00    +0.000 A 
ATOM     14  C   UNL     1      36.928  25.641  39.916  0.00  0.00    +0.000 A 
ATOM     15  C   UNL     1      37.134  26.973  40.128  0.00  0.00    +0.000 A 
ATOM     16  C   UNL     1      37.255  27.521  41.365  0.00  0.00    +0.000 A 
ENDBRANCH   1   7
BRANCH   5  17
ATOM     17  C   UNL     1      40.489  31.888  39.343  0.00  0.00    +0.000 C 
ATOM     18  O   UNL     1      41.238  31.519  38.402  0.00  0.00    +0.000 OA
BRANCH  17  19
ATOM     19  C   UNL     1      41.270  32.828  40.111  0.00  0.00    +0.000 A 
ATOM     20  N   UNL     1      42.397  32.358  40.705  0.00  0.00    +0.000 NA
ATOM     21  C   UNL     1      43.196  33.171  41.452  0.00  0.00    +0.000 A 
ATOM     22  N   UNL     1      42.908  34.463  41.635  0.00  0.00    +0.000 NA
ATOM     23  C   UNL     1      41.813  35.020  41.089  0.00  0.00    +0.000 A 
ATOM     24  C   UNL     1      41.475  36.341  41.290  0.00  0.00    +0.000 A 
ATOM     25  C   UNL     1      40.327  36.885  40.754  0.00  0.00    +0.000 A 
ATOM     26  C   UNL     1      39.533  36.011  40.000  0.00  0.00    +0.000 A 
ATOM     27  C   UNL     1      39.905  34.717  39.827  0.00  0.00    +0.000 A 
ATOM     28  C   UNL     1      41.039  34.161  40.346  0.00  0.00    +0.000 A 
ENDBRANCH  17  19
ENDBRANCH   5  17
TORSDOF 3
