REMARK  Name = 
REMARK  3 active torsions:
REMARK  status: ('A' for Active; 'I' for Inactive)
REMARK    1  A    between atoms: C_1  and  C_16
REMARK    2  A    between atoms: C_5  and  N_17
REMARK    3  A    between atoms: C_21  and  N_22
REMARK                            x       y       z     vdW  Elec       q    Type
REMARK                         _______ _______ _______ _____ _____    ______ ____
ROOT
ATOM      1  N   UNL     1      37.591  29.215  40.707  0.00  0.00    +0.000 N 
ATOM      2  N   UNL     1      37.666  29.991  41.760  0.00  0.00    +0.000 NA
ATOM      3  C   UNL     1      37.339  29.336  42.891  0.00  0.00    +0.000 A 
ATOM      4  C   UNL     1      37.036  28.042  42.493  0.00  0.00    +0.000 A 
ATOM      5  C   UNL     1      37.199  27.989  41.134  0.00  0.00    +0.000 A 
ENDROOT
BRANCH   5   6
ATOM      6  N   UNL     1      36.961  26.778  40.420  0.00  0.00    +0.000 N 
ATOM      7  C   UNL     1      36.258  26.400  39.318  0.00  0.00    +0.000 A 
ATOM      8  N   UNL     1      36.415  25.088  39.122  0.00  0.00    +0.000 NA
ATOM      9  C   UNL     1      37.216  24.602  40.086  0.00  0.00    +0.000 A 
ATOM     10  C   UNL     1      37.636  23.298  40.261  0.00  0.00    +0.000 A 
ATOM     11  O   UNL     1      37.281  22.385  39.474  0.00  0.00    +0.000 OA
ATOM     12  N   UNL     1      38.444  23.021  41.300  0.00  0.00    +0.000 N 
ATOM     13  C   UNL     1      38.788  24.047  42.103  0.00  0.00    +0.000 A 
ATOM     14  N   UNL     1      39.649  23.849  43.243  0.00  0.00    +0.000 N 
ATOM     15  N   UNL     1      38.372  25.315  41.925  0.00  0.00    +0.000 NA
ATOM     16  C   UNL     1      37.558  25.662  40.898  0.00  0.00    +0.000 A 
ATOM     17  H   UNL     1      38.785  22.065  41.474  0.00  0.00    +0.000 HD
ATOM     18  H   UNL     1      39.900  24.647  43.844  0.00  0.00    +0.000 HD
ATOM     19  H   UNL     1      40.013  22.910  43.456  0.00  0.00    +0.000 HD
ENDBRANCH   5   6
BRANCH   1  24
ATOM     20  C   UNL     1      38.512  30.841  39.099  0.00  0.00    +0.000 C 
ATOM     21  C   UNL     1      38.322  30.990  37.567  0.00  0.00    +0.000 C 
ATOM     22  C   UNL     1      36.859  30.586  37.432  0.00  0.00    +0.000 C 
ATOM     23  C   UNL     1      36.524  29.752  38.645  0.00  0.00    +0.000 C 
ATOM     24  C   UNL     1      37.858  29.531  39.326  0.00  0.00    +0.000 C 
BRANCH  20  35
ATOM     25  C   UNL     1      41.200  35.394  40.398  0.00  0.00    +0.000 A 
ATOM     26  C   UNL     1      39.906  35.933  40.471  0.00  0.00    +0.000 A 
ATOM     27  C   UNL     1      38.847  35.053  40.335  0.00  0.00    +0.000 A 
ATOM     28  N   UNL     1      39.128  33.738  40.140  0.00  0.00    +0.000 NA
ATOM     29  C   UNL     1      40.344  33.234  40.072  0.00  0.00    +0.000 A 
ATOM     30  N   UNL     1      41.408  34.074  40.203  0.00  0.00    +0.000 NA
ATOM     31  N   UNL     1      40.682  31.873  39.863  0.00  0.00    +0.000 N 
ATOM     32  N   UNL     1      41.938  31.522  40.104  0.00  0.00    +0.000 NA
ATOM     33  C   UNL     1      42.063  30.177  39.831  0.00  0.00    +0.000 A 
ATOM     34  C   UNL     1      40.796  29.753  39.410  0.00  0.00    +0.000 A 
ATOM     35  C   UNL     1      39.935  30.859  39.443  0.00  0.00    +0.000 A 
ENDBRANCH  20  35
ENDBRANCH   1  24
TORSDOF 3
