REMARK  Name = 
REMARK  3 active torsions:
REMARK  status: ('A' for Active; 'I' for Inactive)
REMARK    1  A    between atoms: C_9  and  C_24
REMARK    2  A    between atoms: N_12  and  C_15
REMARK    3  A    between atoms: C_24  and  C_25
REMARK                            x       y       z     vdW  Elec       q    Type
REMARK                         _______ _______ _______ _____ _____    ______ ____
ROOT
ATOM      1  C   UNL     1      37.294  28.445  43.864  0.00  0.00    +0.000 A 
ATOM      2  C   UNL     1      37.362  27.036  43.841  0.00  0.00    +0.000 A 
ATOM      3  C   UNL     1      37.778  26.435  42.662  0.00  0.00    +0.000 A 
ATOM      4  N   UNL     1      38.094  27.232  41.605  0.00  0.00    +0.000 NA
ATOM      5  C   UNL     1      38.019  28.568  41.658  0.00  0.00    +0.000 A 
ATOM      6  N   UNL     1      37.623  29.179  42.776  0.00  0.00    +0.000 NA
ATOM      7  N   UNL     1      38.376  29.293  40.478  0.00  0.00    +0.000 N 
ATOM      8  C   UNL     1      38.802  28.678  39.363  0.00  0.00    +0.000 A 
ATOM      9  C   UNL     1      39.098  29.532  38.333  0.00  0.00    +0.000 A 
ATOM     10  C   UNL     1      38.992  30.894  38.368  0.00  0.00    +0.000 A 
ATOM     11  O   UNL     1      39.272  31.650  37.405  0.00  0.00    +0.000 OA
ATOM     12  N   UNL     1      38.559  31.461  39.516  0.00  0.00    +0.000 N 
ATOM     13  C   UNL     1      38.250  30.648  40.576  0.00  0.00    +0.000 A 
ATOM     14  O   UNL     1      37.848  31.222  41.629  0.00  0.00    +0.000 OA
ENDROOT
BRANCH  12  15
ATOM     15  C   UNL     1      38.406  32.880  39.669  0.00  0.00    +0.000 A 
ATOM     16  C   UNL     1      37.371  33.770  39.520  0.00  0.00    +0.000 A 
ATOM     17  N   UNL     1      37.831  35.013  39.807  0.00  0.00    +0.000 N 
ATOM     18  C   UNL     1      39.137  34.926  40.133  0.00  0.00    +0.000 A 
ATOM     19  C   UNL     1      40.024  35.912  40.495  0.00  0.00    +0.000 A 
ATOM     20  C   UNL     1      41.360  35.622  40.802  0.00  0.00    +0.000 A 
ATOM     21  C   UNL     1      41.740  34.316  40.725  0.00  0.00    +0.000 A 
ATOM     22  C   UNL     1      40.843  33.345  40.362  0.00  0.00    +0.000 A 
ATOM     23  C   UNL     1      39.520  33.611  40.055  0.00  0.00    +0.000 A 
ATOM     24  H   UNL     1      37.275  35.880  39.781  0.00  0.00    +0.000 HD
ENDBRANCH  12  15
BRANCH   9  25
ATOM     25  C   UNL     1      39.560  28.983  37.029  0.00  0.00    +0.000 C 
BRANCH  25  26
ATOM     26  C   UNL     1      38.587  28.087  36.402  0.00  0.00    +0.000 A 
ATOM     27  C   UNL     1      38.748  26.706  36.257  0.00  0.00    +0.000 A 
ATOM     28  N   UNL     1      37.680  26.120  35.635  0.00  0.00    +0.000 N 
ATOM     29  C   UNL     1      36.823  27.124  35.373  0.00  0.00    +0.000 A 
ATOM     30  C   UNL     1      35.595  27.026  34.751  0.00  0.00    +0.000 A 
ATOM     31  C   UNL     1      34.901  28.223  34.603  0.00  0.00    +0.000 A 
ATOM     32  C   UNL     1      35.403  29.421  35.045  0.00  0.00    +0.000 A 
ATOM     33  C   UNL     1      36.649  29.492  35.672  0.00  0.00    +0.000 A 
ATOM     34  C   UNL     1      37.355  28.311  35.830  0.00  0.00    +0.000 A 
ATOM     35  H   UNL     1      37.558  25.122  35.414  0.00  0.00    +0.000 HD
ENDBRANCH  25  26
ENDBRANCH   9  25
TORSDOF 3
