REMARK  Name = 
REMARK  3 active torsions:
REMARK  status: ('A' for Active; 'I' for Inactive)
REMARK    1  A    between atoms: C_3  and  S_16
REMARK    2  A    between atoms: C_5  and  C_6
REMARK    3  A    between atoms: S_16  and  C_21
REMARK                            x       y       z     vdW  Elec       q    Type
REMARK                         _______ _______ _______ _____ _____    ______ ____
ROOT
ATOM      1  N   UNL     1      37.351  33.723  40.007  0.00  0.00    +0.000 N 
ATOM      2  N   UNL     1      37.754  34.948  39.738  0.00  0.00    +0.000 NA
ATOM      3  C   UNL     1      38.999  35.113  40.229  0.00  0.00    +0.000 A 
ATOM      4  C   UNL     1      39.297  33.900  40.801  0.00  0.00    +0.000 A 
ATOM      5  C   UNL     1      38.233  33.001  40.658  0.00  0.00    +0.000 A 
ATOM      6  H   UNL     1      36.426  33.364  39.731  0.00  0.00    +0.000 HD
ENDROOT
BRANCH   5   7
ATOM      7  C   UNL     1      38.321  31.683  41.200  0.00  0.00    +0.000 A 
ATOM      8  N   UNL     1      39.382  31.350  41.968  0.00  0.00    +0.000 NA
ATOM      9  C   UNL     1      39.592  30.178  42.544  0.00  0.00    +0.000 A 
ATOM     10  N   UNL     1      38.727  29.168  42.410  0.00  0.00    +0.000 NA
ATOM     11  C   UNL     1      37.622  29.384  41.662  0.00  0.00    +0.000 A 
ATOM     12  C   UNL     1      36.703  28.374  41.503  0.00  0.00    +0.000 A 
ATOM     13  C   UNL     1      35.553  28.560  40.746  0.00  0.00    +0.000 A 
ATOM     14  C   UNL     1      35.397  29.818  40.165  0.00  0.00    +0.000 A 
ATOM     15  C   UNL     1      36.351  30.767  40.369  0.00  0.00    +0.000 A 
ATOM     16  C   UNL     1      37.484  30.621  41.102  0.00  0.00    +0.000 A 
ENDBRANCH   5   7
BRANCH   3  17
ATOM     17  S   UNL     1      40.139  36.493  40.259  0.00  0.00    +0.000 S 
BRANCH  17  22
ATOM     18  C   UNL     1      43.432  34.639  41.485  0.00  0.00    +0.000 A 
ATOM     19  C   UNL     1      43.831  35.356  42.621  0.00  0.00    +0.000 A 
ATOM     20  C   UNL     1      43.067  36.442  43.026  0.00  0.00    +0.000 A 
ATOM     21  N   UNL     1      41.969  36.751  42.295  0.00  0.00    +0.000 NA
ATOM     22  C   UNL     1      41.613  36.026  41.192  0.00  0.00    +0.000 A 
ATOM     23  N   UNL     1      42.343  34.989  40.806  0.00  0.00    +0.000 NA
ATOM     24  N   UNL     1      43.364  37.246  44.156  0.00  0.00    +0.000 N 
ATOM     25  H   UNL     1      42.752  38.038  44.399  0.00  0.00    +0.000 HD
ATOM     26  H   UNL     1      44.191  37.038  44.733  0.00  0.00    +0.000 HD
ENDBRANCH  17  22
ENDBRANCH   3  17
TORSDOF 3
