REMARK  Name = 
REMARK  1 active torsions:
REMARK  status: ('A' for Active; 'I' for Inactive)
REMARK    1  A    between atoms: C_13  and  C_16
REMARK                            x       y       z     vdW  Elec       q    Type
REMARK                         _______ _______ _______ _____ _____    ______ ____
ROOT
ATOM      1  C   UNL     1      40.631  29.377  41.560  0.00  0.00    +0.000 A 
ATOM      2  C   UNL     1      39.553  28.537  41.891  0.00  0.00    +0.000 A 
ATOM      3  C   UNL     1      38.253  29.061  41.793  0.00  0.00    +0.000 A 
ATOM      4  N   UNL     1      38.146  30.357  41.378  0.00  0.00    +0.000 NA
ATOM      5  C   UNL     1      39.194  31.135  41.070  0.00  0.00    +0.000 A 
ATOM      6  N   UNL     1      40.436  30.651  41.158  0.00  0.00    +0.000 NA
ATOM      7  N   UNL     1      38.837  32.462  40.658  0.00  0.00    +0.000 N 
ATOM      8  C   UNL     1      37.581  32.730  40.287  0.00  0.00    +0.000 A 
ATOM      9  N   UNL     1      37.529  34.047  39.951  0.00  0.00    +0.000 NA
ATOM     10  C   UNL     1      38.735  34.619  40.104  0.00  0.00    +0.000 A 
ATOM     11  C   UNL     1      39.348  35.834  39.954  0.00  0.00    +0.000 A 
ATOM     12  N   UNL     1      40.646  36.027  40.222  0.00  0.00    +0.000 NA
ATOM     13  C   UNL     1      41.400  35.002  40.657  0.00  0.00    +0.000 A 
ATOM     14  N   UNL     1      40.829  33.804  40.812  0.00  0.00    +0.000 NA
ATOM     15  C   UNL     1      39.540  33.604  40.548  0.00  0.00    +0.000 A 
ENDROOT
BRANCH  13  16
ATOM     16  C   UNL     1      42.830  34.948  41.017  0.00  0.00    +0.000 A 
ATOM     17  N   UNL     1      43.745  34.171  40.369  0.00  0.00    +0.000 NA
ATOM     18  C   UNL     1      45.036  34.121  40.694  0.00  0.00    +0.000 A 
ATOM     19  N   UNL     1      45.568  34.834  41.697  0.00  0.00    +0.000 NA
ATOM     20  C   UNL     1      44.736  35.626  42.388  0.00  0.00    +0.000 A 
ATOM     21  C   UNL     1      45.265  36.365  43.422  0.00  0.00    +0.000 A 
ATOM     22  C   UNL     1      44.469  37.200  44.175  0.00  0.00    +0.000 A 
ATOM     23  C   UNL     1      43.111  37.263  43.845  0.00  0.00    +0.000 A 
ATOM     24  C   UNL     1      42.643  36.499  42.801  0.00  0.00    +0.000 A 
ATOM     25  C   UNL     1      43.407  35.664  42.037  0.00  0.00    +0.000 A 
ENDBRANCH  13  16
TORSDOF 1
