REMARK  Name = 
REMARK  4 active torsions:
REMARK  status: ('A' for Active; 'I' for Inactive)
REMARK    1  A    between atoms: C_1  and  C_7
REMARK    2  A    between atoms: C_5  and  C_17
REMARK    3  A    between atoms: C_17  and  C_19
REMARK    4  A    between atoms: C_24  and  C_25
REMARK                            x       y       z     vdW  Elec       q    Type
REMARK                         _______ _______ _______ _____ _____    ______ ____
ROOT
ATOM      1  C   UNL     1      37.180  29.282  39.893  0.00  0.00    +0.000 A 
ATOM      2  C   UNL     1      36.234  29.365  38.856  0.00  0.00    +0.000 A 
ATOM      3  C   UNL     1      36.377  30.232  37.765  0.00  0.00    +0.000 A 
ATOM      4  N   UNL     1      37.495  30.997  37.767  0.00  0.00    +0.000 NA
ATOM      5  C   UNL     1      38.407  30.942  38.730  0.00  0.00    +0.000 A 
ATOM      6  N   UNL     1      38.228  30.110  39.738  0.00  0.00    +0.000 NA
ENDROOT
BRANCH   1   7
ATOM      7  C   UNL     1      37.200  28.490  41.055  0.00  0.00    +0.000 A 
ATOM      8  C   UNL     1      37.383  29.193  42.264  0.00  0.00    +0.000 A 
ATOM      9  C   UNL     1      37.432  28.598  43.514  0.00  0.00    +0.000 A 
ATOM     10  C   UNL     1      37.291  27.211  43.583  0.00  0.00    +0.000 A 
ATOM     11  C   UNL     1      37.109  26.467  42.432  0.00  0.00    +0.000 A 
ATOM     12  C   UNL     1      36.970  25.109  42.480  0.00  0.00    +0.000 A 
ATOM     13  C   UNL     1      36.789  24.333  41.375  0.00  0.00    +0.000 A 
ATOM     14  C   UNL     1      36.759  25.028  40.198  0.00  0.00    +0.000 A 
ATOM     15  C   UNL     1      36.895  26.383  40.127  0.00  0.00    +0.000 A 
ATOM     16  C   UNL     1      37.076  27.147  41.253  0.00  0.00    +0.000 A 
ENDBRANCH   1   7
BRANCH   5  17
ATOM     17  C   UNL     1      39.581  31.819  38.624  0.00  0.00    +0.000 C 
ATOM     18  O   UNL     1      40.590  31.449  37.946  0.00  0.00    +0.000 OA
BRANCH  17  19
ATOM     19  C   UNL     1      39.718  33.127  39.237  0.00  0.00    +0.000 A 
ATOM     20  C   UNL     1      38.558  33.709  39.759  0.00  0.00    +0.000 A 
ATOM     21  C   UNL     1      38.628  34.971  40.374  0.00  0.00    +0.000 A 
ATOM     22  C   UNL     1      39.838  35.663  40.476  0.00  0.00    +0.000 A 
ATOM     23  C   UNL     1      40.952  35.076  39.962  0.00  0.00    +0.000 A 
ATOM     24  C   UNL     1      40.884  33.837  39.357  0.00  0.00    +0.000 A 
BRANCH  24  25
ATOM     25  C   UNL     1      42.144  33.277  38.802  0.00  0.00    +0.000 C 
ATOM     26  C   UNL     1      42.834  34.304  37.897  0.00  0.00    +0.000 C 
ATOM     27  C   UNL     1      44.324  34.046  38.165  0.00  0.00    +0.000 C 
ATOM     28  C   UNL     1      44.266  33.901  39.683  0.00  0.00    +0.000 C 
ATOM     29  C   UNL     1      43.147  32.918  39.843  0.00  0.00    +0.000 C 
ENDBRANCH  24  25
ENDBRANCH  17  19
ENDBRANCH   5  17
TORSDOF 4
