REMARK  Name = 
REMARK  2 active torsions:
REMARK  status: ('A' for Active; 'I' for Inactive)
REMARK    1  A    between atoms: C_1  and  C_18
REMARK    2  A    between atoms: N_15  and  C_20
REMARK                            x       y       z     vdW  Elec       q    Type
REMARK                         _______ _______ _______ _____ _____    ______ ____
ROOT
ATOM      1  C   UNL     1      40.831  33.497  39.848  0.00  0.00    +0.000 A 
ATOM      2  C   UNL     1      41.789  32.966  39.029  0.00  0.00    +0.000 A 
ATOM      3  C   UNL     1      43.106  33.271  39.248  0.00  0.00    +0.000 A 
ATOM      4  N   UNL     1      43.472  34.089  40.263  0.00  0.00    +0.000 NA
ATOM      5  C   UNL     1      42.532  34.608  41.066  0.00  0.00    +0.000 A 
ATOM      6  N   UNL     1      41.217  34.325  40.873  0.00  0.00    +0.000 NA
ATOM      7  N   UNL     1      42.990  35.459  42.111  0.00  0.00    +0.000 N 
ATOM      8  C   UNL     1      44.108  35.070  42.777  0.00  0.00    +0.000 A 
ATOM      9  C   UNL     1      44.670  35.789  43.811  0.00  0.00    +0.000 A 
ATOM     10  C   UNL     1      44.049  36.966  44.175  0.00  0.00    +0.000 A 
ATOM     11  N   UNL     1      44.608  37.728  45.239  0.00  0.00    +0.000 N 
ATOM     12  N   UNL     1      42.944  37.344  43.511  0.00  0.00    +0.000 NA
ATOM     13  C   UNL     1      42.427  36.613  42.506  0.00  0.00    +0.000 A 
ATOM     14  O   UNL     1      41.386  36.966  41.878  0.00  0.00    +0.000 OA
ATOM     15  H   UNL     1      44.163  38.610  45.530  0.00  0.00    +0.000 HD
ATOM     16  H   UNL     1      45.458  37.397  45.718  0.00  0.00    +0.000 HD
ENDROOT
BRANCH   1  20
ATOM     17  N   UNL     1      37.442  32.274  39.593  0.00  0.00    +0.000 N 
ATOM     18  C   UNL     1      37.222  33.599  39.671  0.00  0.00    +0.000 A 
ATOM     19  N   UNL     1      38.409  34.225  39.773  0.00  0.00    +0.000 NA
ATOM     20  C   UNL     1      39.369  33.279  39.758  0.00  0.00    +0.000 A 
ATOM     21  N   UNL     1      38.748  32.063  39.646  0.00  0.00    +0.000 NA
BRANCH  17  22
ATOM     22  C   UNL     1      36.688  31.074  39.475  0.00  0.00    +0.000 A 
ATOM     23  C   UNL     1      36.035  30.450  40.554  0.00  0.00    +0.000 A 
ATOM     24  C   UNL     1      35.334  29.280  40.286  0.00  0.00    +0.000 A 
ATOM     25  N   UNL     1      35.317  28.802  38.998  0.00  0.00    +0.000 NA
ATOM     26  C   UNL     1      35.952  29.428  38.003  0.00  0.00    +0.000 A 
ATOM     27  N   UNL     1      36.641  30.564  38.225  0.00  0.00    +0.000 NA
ENDBRANCH  17  22
ENDBRANCH   1  20
TORSDOF 2
