REMARK  Name = 
REMARK  3 active torsions:
REMARK  status: ('A' for Active; 'I' for Inactive)
REMARK    1  A    between atoms: C_9  and  C_24
REMARK    2  A    between atoms: N_12  and  C_15
REMARK    3  A    between atoms: C_24  and  C_25
REMARK                            x       y       z     vdW  Elec       q    Type
REMARK                         _______ _______ _______ _____ _____    ______ ____
ROOT
ATOM      1  C   UNL     1      37.219  28.509  43.868  0.00  0.00    +0.000 A 
ATOM      2  C   UNL     1      37.046  27.124  43.781  0.00  0.00    +0.000 A 
ATOM      3  C   UNL     1      37.212  26.519  42.540  0.00  0.00    +0.000 A 
ATOM      4  N   UNL     1      37.534  27.311  41.473  0.00  0.00    +0.000 NA
ATOM      5  C   UNL     1      37.693  28.640  41.584  0.00  0.00    +0.000 A 
ATOM      6  N   UNL     1      37.537  29.250  42.780  0.00  0.00    +0.000 NA
ATOM      7  N   UNL     1      38.027  29.356  40.410  0.00  0.00    +0.000 N 
ATOM      8  C   UNL     1      38.202  28.751  39.229  0.00  0.00    +0.000 A 
ATOM      9  C   UNL     1      38.523  29.584  38.186  0.00  0.00    +0.000 A 
ATOM     10  C   UNL     1      38.668  30.951  38.296  0.00  0.00    +0.000 A 
ATOM     11  O   UNL     1      38.964  31.709  37.327  0.00  0.00    +0.000 OA
ATOM     12  N   UNL     1      38.480  31.510  39.509  0.00  0.00    +0.000 N 
ATOM     13  C   UNL     1      38.159  30.713  40.569  0.00  0.00    +0.000 A 
ATOM     14  O   UNL     1      37.994  31.281  41.681  0.00  0.00    +0.000 OA
ENDROOT
BRANCH  12  15
ATOM     15  C   UNL     1      38.608  32.931  39.732  0.00  0.00    +0.000 A 
ATOM     16  C   UNL     1      37.757  34.004  39.666  0.00  0.00    +0.000 A 
ATOM     17  N   UNL     1      38.459  35.121  39.992  0.00  0.00    +0.000 N 
ATOM     18  C   UNL     1      39.736  34.774  40.263  0.00  0.00    +0.000 A 
ATOM     19  C   UNL     1      40.812  35.554  40.636  0.00  0.00    +0.000 A 
ATOM     20  C   UNL     1      42.067  35.000  40.874  0.00  0.00    +0.000 A 
ATOM     21  C   UNL     1      42.191  33.654  40.723  0.00  0.00    +0.000 A 
ATOM     22  C   UNL     1      41.121  32.884  40.352  0.00  0.00    +0.000 A 
ATOM     23  C   UNL     1      39.861  33.409  40.109  0.00  0.00    +0.000 A 
ATOM     24  H   UNL     1      38.079  36.078  40.027  0.00  0.00    +0.000 HD
ENDBRANCH  12  15
BRANCH   9  25
ATOM     25  C   UNL     1      38.752  29.062  36.828  0.00  0.00    +0.000 C 
BRANCH  25  26
ATOM     26  C   UNL     1      37.473  28.734  36.133  0.00  0.00    +0.000 A 
ATOM     27  C   UNL     1      36.497  29.673  35.811  0.00  0.00    +0.000 A 
ATOM     28  C   UNL     1      35.346  29.285  35.171  0.00  0.00    +0.000 A 
ATOM     29  C   UNL     1      35.098  27.971  34.818  0.00  0.00    +0.000 A 
ATOM     30  C   UNL     1      36.072  27.032  35.139  0.00  0.00    +0.000 A 
ATOM     31  C   UNL     1      35.911  25.680  34.823  0.00  0.00    +0.000 A 
ATOM     32  C   UNL     1      36.852  24.717  35.123  0.00  0.00    +0.000 A 
ATOM     33  C   UNL     1      38.010  25.121  35.769  0.00  0.00    +0.000 A 
ATOM     34  C   UNL     1      38.206  26.457  36.100  0.00  0.00    +0.000 A 
ATOM     35  C   UNL     1      37.233  27.407  35.782  0.00  0.00    +0.000 A 
ENDBRANCH  25  26
ENDBRANCH   9  25
TORSDOF 3
