REMARK  Name = 
REMARK  4 active torsions:
REMARK  status: ('A' for Active; 'I' for Inactive)
REMARK    1  A    between atoms: C_3  and  C_8
REMARK    2  A    between atoms: C_5  and  O_18
REMARK    3  A    between atoms: O_18  and  C_19
REMARK    4  A    between atoms: C_22  and  C_24
REMARK                            x       y       z     vdW  Elec       q    Type
REMARK                         _______ _______ _______ _____ _____    ______ ____
ROOT
ATOM      1  C   UNL     1      38.580  24.709  42.286  0.00  0.00    +0.000 A 
ATOM      2  C   UNL     1      39.828  25.207  42.682  0.00  0.00    +0.000 A 
ATOM      3  C   UNL     1      39.916  26.563  43.101  0.00  0.00    +0.000 A 
ATOM      4  N   UNL     1      38.744  27.283  43.085  0.00  0.00    +0.000 NA
ATOM      5  C   UNL     1      37.564  26.757  42.695  0.00  0.00    +0.000 A 
ATOM      6  N   UNL     1      37.495  25.482  42.302  0.00  0.00    +0.000 NA
ATOM      7  N   UNL     1      38.494  23.375  41.863  0.00  0.00    +0.000 N 
ATOM      8  H   UNL     1      39.337  22.783  41.853  0.00  0.00    +0.000 HD
ATOM      9  H   UNL     1      37.588  22.987  41.562  0.00  0.00    +0.000 HD
ENDROOT
BRANCH   3  10
ATOM     10  C   UNL     1      41.065  27.230  43.606  0.00  0.00    +0.000 A 
ATOM     11  C   UNL     1      41.656  26.645  44.716  0.00  0.00    +0.000 A 
ATOM     12  C   UNL     1      42.769  27.127  45.376  0.00  0.00    +0.000 A 
ATOM     13  C   UNL     1      43.374  28.280  44.927  0.00  0.00    +0.000 A 
ATOM     14  C   UNL     1      42.836  28.913  43.828  0.00  0.00    +0.000 A 
ATOM     15  C   UNL     1      43.383  30.089  43.365  0.00  0.00    +0.000 A 
ATOM     16  C   UNL     1      42.847  30.788  42.278  0.00  0.00    +0.000 A 
ATOM     17  C   UNL     1      41.712  30.225  41.679  0.00  0.00    +0.000 A 
ATOM     18  C   UNL     1      41.203  29.051  42.178  0.00  0.00    +0.000 A 
ATOM     19  C   UNL     1      41.732  28.364  43.241  0.00  0.00    +0.000 A 
ENDBRANCH   3  10
BRANCH   5  20
ATOM     20  O   UNL     1      36.470  27.606  42.733  0.00  0.00    +0.000 OA
BRANCH  20  21
ATOM     21  C   UNL     1      36.235  28.583  41.792  0.00  0.00    +0.000 A 
ATOM     22  N   UNL     1      35.384  28.855  40.777  0.00  0.00    +0.000 NA
ATOM     23  O   UNL     1      35.707  30.003  40.246  0.00  0.00    +0.000 OA
ATOM     24  C   UNL     1      36.749  30.514  40.870  0.00  0.00    +0.000 A 
ATOM     25  N   UNL     1      37.101  29.642  41.845  0.00  0.00    +0.000 NA
BRANCH  24  26
ATOM     26  C   UNL     1      37.425  31.785  40.585  0.00  0.00    +0.000 A 
ATOM     27  C   UNL     1      36.883  32.774  39.793  0.00  0.00    +0.000 A 
ATOM     28  C   UNL     1      37.587  33.959  39.563  0.00  0.00    +0.000 A 
ATOM     29  C   UNL     1      38.833  34.155  40.124  0.00  0.00    +0.000 A 
ATOM     30  C   UNL     1      39.358  33.158  40.910  0.00  0.00    +0.000 A 
ATOM     31  C   UNL     1      38.672  32.006  41.132  0.00  0.00    +0.000 A 
ENDBRANCH  24  26
ENDBRANCH  20  21
ENDBRANCH   5  20
TORSDOF 4
