REMARK  Name = 
REMARK  1 active torsions:
REMARK  status: ('A' for Active; 'I' for Inactive)
REMARK    1  A    between atoms: C_19  and  C_21
REMARK                            x       y       z     vdW  Elec       q    Type
REMARK                         _______ _______ _______ _____ _____    ______ ____
ROOT
ATOM      1  C   UNL     1      40.342  27.962  43.120  0.00  0.00    +0.000 A 
ATOM      2  C   UNL     1      39.470  27.084  43.809  0.00  0.00    +0.000 A 
ATOM      3  C   UNL     1      38.082  27.320  43.727  0.00  0.00    +0.000 A 
ATOM      4  N   UNL     1      37.666  28.390  42.981  0.00  0.00    +0.000 NA
ATOM      5  C   UNL     1      38.519  29.199  42.343  0.00  0.00    +0.000 A 
ATOM      6  N   UNL     1      39.869  29.008  42.394  0.00  0.00    +0.000 NA
ATOM      7  N   UNL     1      37.932  30.268  41.607  0.00  0.00    +0.000 N 
ATOM      8  C   UNL     1      36.618  30.186  41.287  0.00  0.00    +0.000 A 
ATOM      9  N   UNL     1      36.306  31.303  40.601  0.00  0.00    +0.000 NA
ATOM     10  C   UNL     1      37.364  32.099  40.468  0.00  0.00    +0.000 A 
ATOM     11  C   UNL     1      37.692  33.309  39.911  0.00  0.00    +0.000 A 
ATOM     12  N   UNL     1      38.942  33.825  39.982  0.00  0.00    +0.000 NA
ATOM     13  C   UNL     1      39.903  33.121  40.625  0.00  0.00    +0.000 A 
ATOM     14  N   UNL     1      39.618  31.930  41.184  0.00  0.00    +0.000 NA
ATOM     15  C   UNL     1      38.388  31.432  41.110  0.00  0.00    +0.000 A 
ATOM     16  N   UNL     1      41.241  33.591  40.746  0.00  0.00    +0.000 N 
ATOM     17  C   UNL     1      41.919  34.695  40.393  0.00  0.00    +0.000 A 
ATOM     18  N   UNL     1      43.203  34.582  40.777  0.00  0.00    +0.000 NA
ATOM     19  C   UNL     1      43.321  33.401  41.372  0.00  0.00    +0.000 A 
ATOM     20  N   UNL     1      42.120  32.779  41.359  0.00  0.00    +0.000 NA
ENDROOT
BRANCH  19  21
ATOM     21  C   UNL     1      44.513  32.771  41.979  0.00  0.00    +0.000 A 
ATOM     22  C   UNL     1      45.235  31.657  41.539  0.00  0.00    +0.000 A 
ATOM     23  N   UNL     1      46.223  31.456  42.398  0.00  0.00    +0.000 N 
ATOM     24  C   UNL     1      46.164  32.384  43.354  0.00  0.00    +0.000 A 
ATOM     25  C   UNL     1      46.978  32.576  44.452  0.00  0.00    +0.000 A 
ATOM     26  C   UNL     1      46.692  33.628  45.296  0.00  0.00    +0.000 A 
ATOM     27  C   UNL     1      45.645  34.521  45.136  0.00  0.00    +0.000 A 
ATOM     28  C   UNL     1      44.867  34.266  44.008  0.00  0.00    +0.000 A 
ATOM     29  C   UNL     1      45.103  33.240  43.137  0.00  0.00    +0.000 A 
ATOM     30  H   UNL     1      46.924  30.704  42.337  0.00  0.00    +0.000 HD
ENDBRANCH  19  21
TORSDOF 1
