REMARK  Name = 
REMARK  1 active torsions:
REMARK  status: ('A' for Active; 'I' for Inactive)
REMARK    1  A    between atoms: C_1  and  C_15
REMARK                            x       y       z     vdW  Elec       q    Type
REMARK                         _______ _______ _______ _____ _____    ______ ____
ROOT
ATOM      1  C   UNL     1      37.185  29.486  40.043  0.00  0.00    +0.000 A 
ATOM      2  C   UNL     1      36.444  29.427  38.856  0.00  0.00    +0.000 A 
ATOM      3  C   UNL     1      36.533  30.399  37.861  0.00  0.00    +0.000 A 
ATOM      4  N   UNL     1      37.390  31.420  38.114  0.00  0.00    +0.000 NA
ATOM      5  C   UNL     1      38.106  31.502  39.229  0.00  0.00    +0.000 A 
ATOM      6  N   UNL     1      37.994  30.552  40.158  0.00  0.00    +0.000 NA
ATOM      7  N   UNL     1      38.967  32.626  39.363  0.00  0.00    +0.000 N 
ATOM      8  C   UNL     1      38.829  33.723  40.096  0.00  0.00    +0.000 A 
ATOM      9  C   UNL     1      39.824  34.684  40.051  0.00  0.00    +0.000 A 
ATOM     10  C   UNL     1      40.939  34.507  39.260  0.00  0.00    +0.000 A 
ATOM     11  N   UNL     1      41.954  35.505  39.225  0.00  0.00    +0.000 N 
ATOM     12  N   UNL     1      41.066  33.376  38.514  0.00  0.00    +0.000 NA
ATOM     13  C   UNL     1      40.073  32.459  38.583  0.00  0.00    +0.000 A 
ATOM     14  O   UNL     1      40.335  31.461  37.832  0.00  0.00    +0.000 OA
ATOM     15  H   UNL     1      42.787  35.372  38.634  0.00  0.00    +0.000 HD
ATOM     16  H   UNL     1      41.855  36.360  39.791  0.00  0.00    +0.000 HD
ENDROOT
BRANCH   1  17
ATOM     17  C   UNL     1      37.191  28.614  41.169  0.00  0.00    +0.000 A 
ATOM     18  C   UNL     1      37.364  29.230  42.427  0.00  0.00    +0.000 A 
ATOM     19  C   UNL     1      37.398  28.558  43.633  0.00  0.00    +0.000 A 
ATOM     20  C   UNL     1      37.256  27.191  43.623  0.00  0.00    +0.000 A 
ATOM     21  C   UNL     1      37.084  26.520  42.429  0.00  0.00    +0.000 A 
ATOM     22  C   UNL     1      36.948  25.157  42.411  0.00  0.00    +0.000 A 
ATOM     23  C   UNL     1      36.779  24.436  41.235  0.00  0.00    +0.000 A 
ATOM     24  C   UNL     1      36.759  25.206  40.076  0.00  0.00    +0.000 A 
ATOM     25  C   UNL     1      36.897  26.565  40.125  0.00  0.00    +0.000 A 
ATOM     26  C   UNL     1      37.062  27.267  41.278  0.00  0.00    +0.000 A 
ENDBRANCH   1  17
TORSDOF 1
