REMARK  Name = 
REMARK  1 active torsions:
REMARK  status: ('A' for Active; 'I' for Inactive)
REMARK    1  A    between atoms: C_13  and  C_16
REMARK                            x       y       z     vdW  Elec       q    Type
REMARK                         _______ _______ _______ _____ _____    ______ ____
ROOT
ATOM      1  C   UNL     1      40.656  29.438  41.972  0.00  0.00    +0.000 A 
ATOM      2  C   UNL     1      39.570  28.611  42.310  0.00  0.00    +0.000 A 
ATOM      3  C   UNL     1      38.274  29.122  42.124  0.00  0.00    +0.000 A 
ATOM      4  N   UNL     1      38.157  30.393  41.624  0.00  0.00    +0.000 NA
ATOM      5  C   UNL     1      39.218  31.151  41.313  0.00  0.00    +0.000 A 
ATOM      6  N   UNL     1      40.460  30.677  41.485  0.00  0.00    +0.000 NA
ATOM      7  N   UNL     1      38.878  32.446  40.807  0.00  0.00    +0.000 N 
ATOM      8  C   UNL     1      37.627  32.687  40.390  0.00  0.00    +0.000 A 
ATOM      9  N   UNL     1      37.576  33.986  39.963  0.00  0.00    +0.000 NA
ATOM     10  C   UNL     1      38.785  34.563  40.110  0.00  0.00    +0.000 A 
ATOM     11  C   UNL     1      39.401  35.768  39.895  0.00  0.00    +0.000 A 
ATOM     12  N   UNL     1      40.692  35.980  40.179  0.00  0.00    +0.000 NA
ATOM     13  C   UNL     1      41.445  34.986  40.699  0.00  0.00    +0.000 A 
ATOM     14  N   UNL     1      40.864  33.795  40.919  0.00  0.00    +0.000 NA
ATOM     15  C   UNL     1      39.582  33.582  40.637  0.00  0.00    +0.000 A 
ENDROOT
BRANCH  13  16
ATOM     16  C   UNL     1      42.861  34.968  41.089  0.00  0.00    +0.000 A 
ATOM     17  C   UNL     1      43.823  34.177  40.456  0.00  0.00    +0.000 A 
ATOM     18  C   UNL     1      45.143  34.149  40.806  0.00  0.00    +0.000 A 
ATOM     19  C   UNL     1      45.608  34.927  41.837  0.00  0.00    +0.000 A 
ATOM     20  C   UNL     1      44.711  35.729  42.502  0.00  0.00    +0.000 A 
ATOM     21  C   UNL     1      45.195  36.503  43.533  0.00  0.00    +0.000 A 
ATOM     22  C   UNL     1      44.353  37.329  44.241  0.00  0.00    +0.000 A 
ATOM     23  C   UNL     1      43.010  37.352  43.878  0.00  0.00    +0.000 A 
ATOM     24  C   UNL     1      42.598  36.554  42.840  0.00  0.00    +0.000 A 
ATOM     25  C   UNL     1      43.397  35.716  42.106  0.00  0.00    +0.000 A 
ENDBRANCH  13  16
TORSDOF 1
