REMARK  Name = 
REMARK  0 active torsions:
REMARK  status: ('A' for Active; 'I' for Inactive)
REMARK                            x       y       z     vdW  Elec       q    Type
REMARK                         _______ _______ _______ _____ _____    ______ ____
ROOT
ATOM      1  C   UNL     1      40.463  28.062  43.131  0.00  0.00    +0.000 A 
ATOM      2  C   UNL     1      39.660  27.103  43.799  0.00  0.00    +0.000 A 
ATOM      3  C   UNL     1      38.258  27.206  43.679  0.00  0.00    +0.000 A 
ATOM      4  N   UNL     1      37.764  28.232  42.918  0.00  0.00    +0.000 NA
ATOM      5  C   UNL     1      38.559  29.118  42.302  0.00  0.00    +0.000 A 
ATOM      6  N   UNL     1      39.911  29.054  42.393  0.00  0.00    +0.000 NA
ATOM      7  N   UNL     1      37.874  30.131  41.545  0.00  0.00    +0.000 N 
ATOM      8  C   UNL     1      36.586  29.915  41.216  0.00  0.00    +0.000 A 
ATOM      9  N   UNL     1      36.166  30.988  40.520  0.00  0.00    +0.000 NA
ATOM     10  C   UNL     1      37.150  31.883  40.394  0.00  0.00    +0.000 A 
ATOM     11  C   UNL     1      37.385  33.123  39.835  0.00  0.00    +0.000 A 
ATOM     12  N   UNL     1      38.577  33.744  39.922  0.00  0.00    +0.000 NA
ATOM     13  C   UNL     1      39.594  33.140  40.581  0.00  0.00    +0.000 A 
ATOM     14  N   UNL     1      39.408  31.932  41.140  0.00  0.00    +0.000 NA
ATOM     15  C   UNL     1      38.228  31.324  41.051  0.00  0.00    +0.000 A 
ATOM     16  N   UNL     1      40.875  33.734  40.713  0.00  0.00    +0.000 N 
ATOM     17  C   UNL     1      41.459  34.886  40.346  0.00  0.00    +0.000 A 
ATOM     18  N   UNL     1      42.738  34.903  40.757  0.00  0.00    +0.000 NA
ATOM     19  C   UNL     1      42.954  33.747  41.387  0.00  0.00    +0.000 A 
ATOM     20  N   UNL     1      41.812  33.017  41.366  0.00  0.00    +0.000 NA
ATOM     21  N   UNL     1      44.181  33.388  41.962  0.00  0.00    +0.000 N 
ATOM     22  C   UNL     1      44.246  32.286  42.890  0.00  0.00    +0.000 C 
ATOM     23  C   UNL     1      45.550  32.400  43.649  0.00  0.00    +0.000 C 
ATOM     24  C   UNL     1      45.803  33.837  44.090  0.00  0.00    +0.000 C 
ATOM     25  C   UNL     1      45.807  34.807  42.944  0.00  0.00    +0.000 C 
ATOM     26  C   UNL     1      45.429  34.097  41.655  0.00  0.00    +0.000 C 
ENDROOT
TORSDOF 0
