REMARK  Name = 
REMARK  1 active torsions:
REMARK  status: ('A' for Active; 'I' for Inactive)
REMARK    1  A    between atoms: C_1  and  C_16
REMARK                            x       y       z     vdW  Elec       q    Type
REMARK                         _______ _______ _______ _____ _____    ______ ____
ROOT
ATOM      1  C   UNL     1      37.243  29.422  40.011  0.00  0.00    +0.000 A 
ATOM      2  C   UNL     1      36.344  29.536  38.945  0.00  0.00    +0.000 A 
ATOM      3  C   UNL     1      36.489  30.455  37.914  0.00  0.00    +0.000 A 
ATOM      4  N   UNL     1      37.568  31.249  37.998  0.00  0.00    +0.000 NA
ATOM      5  C   UNL     1      38.456  31.179  38.993  0.00  0.00    +0.000 A 
ATOM      6  N   UNL     1      38.278  30.278  39.966  0.00  0.00    +0.000 NA
ATOM      7  N   UNL     1      39.560  32.078  38.967  0.00  0.00    +0.000 N 
ATOM      8  C   UNL     1      40.773  31.785  38.464  0.00  0.00    +0.000 A 
ATOM      9  N   UNL     1      41.543  32.858  38.611  0.00  0.00    +0.000 NA
ATOM     10  C   UNL     1      40.833  33.825  39.202  0.00  0.00    +0.000 A 
ATOM     11  C   UNL     1      41.130  35.115  39.585  0.00  0.00    +0.000 A 
ATOM     12  N   UNL     1      40.218  35.910  40.177  0.00  0.00    +0.000 NA
ATOM     13  C   UNL     1      38.983  35.412  40.394  0.00  0.00    +0.000 A 
ATOM     14  N   UNL     1      38.673  34.141  40.022  0.00  0.00    +0.000 NA
ATOM     15  C   UNL     1      39.586  33.337  39.427  0.00  0.00    +0.000 A 
ENDROOT
BRANCH   1  16
ATOM     16  C   UNL     1      37.228  28.572  41.153  0.00  0.00    +0.000 A 
ATOM     17  C   UNL     1      37.387  29.206  42.402  0.00  0.00    +0.000 A 
ATOM     18  C   UNL     1      37.402  28.560  43.622  0.00  0.00    +0.000 A 
ATOM     19  C   UNL     1      37.252  27.183  43.627  0.00  0.00    +0.000 A 
ATOM     20  C   UNL     1      37.094  26.507  42.441  0.00  0.00    +0.000 A 
ATOM     21  C   UNL     1      36.950  25.137  42.452  0.00  0.00    +0.000 A 
ATOM     22  C   UNL     1      36.791  24.399  41.290  0.00  0.00    +0.000 A 
ATOM     23  C   UNL     1      36.790  25.149  40.115  0.00  0.00    +0.000 A 
ATOM     24  C   UNL     1      36.936  26.503  40.145  0.00  0.00    +0.000 A 
ATOM     25  C   UNL     1      37.091  27.226  41.287  0.00  0.00    +0.000 A 
ENDBRANCH   1  16
TORSDOF 1
