REMARK  Name = 
REMARK  3 active torsions:
REMARK  status: ('A' for Active; 'I' for Inactive)
REMARK    1  A    between atoms: C_1  and  C_19
REMARK    2  A    between atoms: C_11  and  N_27
REMARK    3  A    between atoms: N_16  and  C_21
REMARK                            x       y       z     vdW  Elec       q    Type
REMARK                         _______ _______ _______ _____ _____    ______ ____
ROOT
ATOM      1  C   UNL     1      40.805  33.314  39.442  0.00  0.00    +0.000 A 
ATOM      2  C   UNL     1      41.832  32.882  38.637  0.00  0.00    +0.000 A 
ATOM      3  C   UNL     1      43.105  33.331  38.915  0.00  0.00    +0.000 A 
ATOM      4  N   UNL     1      43.355  34.173  39.948  0.00  0.00    +0.000 NA
ATOM      5  C   UNL     1      42.345  34.592  40.732  0.00  0.00    +0.000 A 
ATOM      6  N   UNL     1      41.075  34.163  40.479  0.00  0.00    +0.000 NA
ATOM      7  N   UNL     1      42.611  35.465  41.801  0.00  0.00    +0.000 N 
ATOM      8  C   UNL     1      41.934  36.590  42.096  0.00  0.00    +0.000 A 
ATOM      9  N   UNL     1      42.466  37.175  43.188  0.00  0.00    +0.000 NA
ATOM     10  C   UNL     1      43.511  36.412  43.608  0.00  0.00    +0.000 A 
ATOM     11  C   UNL     1      44.339  36.638  44.688  0.00  0.00    +0.000 A 
ATOM     12  N   UNL     1      45.306  35.691  44.861  0.00  0.00    +0.000 NA
ATOM     13  C   UNL     1      45.391  34.639  44.002  0.00  0.00    +0.000 A 
ATOM     14  N   UNL     1      44.567  34.444  42.952  0.00  0.00    +0.000 NA
ATOM     15  C   UNL     1      43.595  35.344  42.734  0.00  0.00    +0.000 A 
ENDROOT
BRANCH   1  19
ATOM     16  N   UNL     1      37.559  31.885  38.726  0.00  0.00    +0.000 N 
ATOM     17  C   UNL     1      37.213  32.955  39.460  0.00  0.00    +0.000 A 
ATOM     18  N   UNL     1      38.326  33.613  39.818  0.00  0.00    +0.000 NA
ATOM     19  C   UNL     1      39.385  32.938  39.294  0.00  0.00    +0.000 A 
ATOM     20  N   UNL     1      38.885  31.876  38.625  0.00  0.00    +0.000 NA
BRANCH  16  21
ATOM     21  C   UNL     1      36.938  30.802  38.052  0.00  0.00    +0.000 A 
ATOM     22  C   UNL     1      36.044  29.909  38.666  0.00  0.00    +0.000 A 
ATOM     23  C   UNL     1      35.499  28.885  37.897  0.00  0.00    +0.000 A 
ATOM     24  N   UNL     1      35.871  28.817  36.595  0.00  0.00    +0.000 NA
ATOM     25  C   UNL     1      36.723  29.678  36.033  0.00  0.00    +0.000 A 
ATOM     26  N   UNL     1      37.274  30.684  36.741  0.00  0.00    +0.000 NA
ENDBRANCH  16  21
ENDBRANCH   1  19
BRANCH  11  27
ATOM     27  N   UNL     1      44.174  37.769  45.532  0.00  0.00    +0.000 N 
ATOM     28  H   UNL     1      44.808  37.912  46.331  0.00  0.00    +0.000 HD
ATOM     29  H   UNL     1      43.421  38.446  45.344  0.00  0.00    +0.000 HD
ENDBRANCH  11  27
TORSDOF 3
