REMARK  Name = 
REMARK  0 active torsions:
REMARK  status: ('A' for Active; 'I' for Inactive)
REMARK                            x       y       z     vdW  Elec       q    Type
REMARK                         _______ _______ _______ _____ _____    ______ ____
ROOT
ATOM      1  C   UNL     1      41.173  28.586  42.898  0.00  0.00    +0.000 A 
ATOM      2  C   UNL     1      40.656  27.476  43.605  0.00  0.00    +0.000 A 
ATOM      3  C   UNL     1      39.285  27.229  43.520  0.00  0.00    +0.000 A 
ATOM      4  N   UNL     1      38.506  28.071  42.758  0.00  0.00    +0.000 NA
ATOM      5  C   UNL     1      39.046  29.121  42.101  0.00  0.00    +0.000 A 
ATOM      6  N   UNL     1      40.380  29.400  42.154  0.00  0.00    +0.000 NA
ATOM      7  N   UNL     1      38.124  29.909  41.351  0.00  0.00    +0.000 N 
ATOM      8  C   UNL     1      36.932  29.372  41.023  0.00  0.00    +0.000 A 
ATOM      9  N   UNL     1      36.253  30.305  40.326  0.00  0.00    +0.000 NA
ATOM     10  C   UNL     1      36.972  31.418  40.197  0.00  0.00    +0.000 A 
ATOM     11  C   UNL     1      36.865  32.659  39.638  0.00  0.00    +0.000 A 
ATOM     12  N   UNL     1      37.855  33.584  39.711  0.00  0.00    +0.000 NA
ATOM     13  C   UNL     1      38.999  33.263  40.371  0.00  0.00    +0.000 A 
ATOM     14  N   UNL     1      39.134  32.052  40.933  0.00  0.00    +0.000 NA
ATOM     15  C   UNL     1      38.152  31.150  40.852  0.00  0.00    +0.000 A 
ATOM     16  N   UNL     1      40.078  34.177  40.491  0.00  0.00    +0.000 N 
ATOM     17  C   UNL     1      40.353  35.431  40.107  0.00  0.00    +0.000 A 
ATOM     18  N   UNL     1      41.577  35.789  40.519  0.00  0.00    +0.000 NA
ATOM     19  C   UNL     1      42.073  34.734  41.175  0.00  0.00    +0.000 A 
ATOM     20  N   UNL     1      41.155  33.749  41.158  0.00  0.00    +0.000 NA
ATOM     21  N   UNL     1      43.377  34.711  41.781  0.00  0.00    +0.000 N 
ATOM     22  C   UNL     1      44.194  33.700  41.415  0.00  0.00    +0.000 A 
ATOM     23  C   UNL     1      45.459  33.677  42.003  0.00  0.00    +0.000 A 
ATOM     24  C   UNL     1      45.802  34.658  42.901  0.00  0.00    +0.000 A 
ATOM     25  O   UNL     1      46.942  34.651  43.440  0.00  0.00    +0.000 OA
ATOM     26  N   UNL     1      44.952  35.667  43.249  0.00  0.00    +0.000 N 
ATOM     27  C   UNL     1      43.738  35.658  42.662  0.00  0.00    +0.000 A 
ATOM     28  O   UNL     1      42.947  36.588  42.980  0.00  0.00    +0.000 OA
ATOM     29  H   UNL     1      45.223  36.396  43.924  0.00  0.00    +0.000 HD
ENDROOT
TORSDOF 0
