REMARK  Name = 
REMARK  4 active torsions:
REMARK  status: ('A' for Active; 'I' for Inactive)
REMARK    1  A    between atoms: C_3  and  S_16
REMARK    2  A    between atoms: C_5  and  C_6
REMARK    3  A    between atoms: S_16  and  C_21
REMARK    4  A    between atoms: C_19  and  C_23
REMARK                            x       y       z     vdW  Elec       q    Type
REMARK                         _______ _______ _______ _____ _____    ______ ____
ROOT
ATOM      1  N   UNL     1      38.575  33.602  40.835  0.00  0.00    +0.000 N 
ATOM      2  N   UNL     1      39.371  34.364  40.110  0.00  0.00    +0.000 NA
ATOM      3  C   UNL     1      40.323  33.594  39.548  0.00  0.00    +0.000 A 
ATOM      4  C   UNL     1      40.032  32.325  39.989  0.00  0.00    +0.000 A 
ATOM      5  C   UNL     1      38.906  32.330  40.819  0.00  0.00    +0.000 A 
ATOM      6  H   UNL     1      37.771  33.969  41.363  0.00  0.00    +0.000 HD
ENDROOT
BRANCH   5   7
ATOM      7  C   UNL     1      38.440  31.111  41.404  0.00  0.00    +0.000 A 
ATOM      8  N   UNL     1      39.109  30.577  42.451  0.00  0.00    +0.000 NA
ATOM      9  C   UNL     1      38.790  29.471  43.098  0.00  0.00    +0.000 A 
ATOM     10  N   UNL     1      37.723  28.743  42.759  0.00  0.00    +0.000 NA
ATOM     11  C   UNL     1      36.970  29.175  41.723  0.00  0.00    +0.000 A 
ATOM     12  C   UNL     1      35.858  28.461  41.334  0.00  0.00    +0.000 A 
ATOM     13  C   UNL     1      35.065  28.882  40.271  0.00  0.00    +0.000 A 
ATOM     14  C   UNL     1      35.459  30.055  39.630  0.00  0.00    +0.000 A 
ATOM     15  C   UNL     1      36.575  30.707  40.076  0.00  0.00    +0.000 A 
ATOM     16  C   UNL     1      37.372  30.328  41.109  0.00  0.00    +0.000 A 
ENDBRANCH   5   7
BRANCH   3  17
ATOM     17  S   UNL     1      41.715  33.948  38.484  0.00  0.00    +0.000 S 
BRANCH  17  22
ATOM     18  C   UNL     1      45.484  34.245  39.727  0.00  0.00    +0.000 A 
ATOM     19  C   UNL     1      45.372  34.695  41.049  0.00  0.00    +0.000 A 
ATOM     20  C   UNL     1      44.109  34.913  41.578  0.00  0.00    +0.000 A 
ATOM     21  N   UNL     1      43.034  34.678  40.782  0.00  0.00    +0.000 NA
ATOM     22  C   UNL     1      43.176  34.240  39.494  0.00  0.00    +0.000 A 
ATOM     23  N   UNL     1      44.394  34.032  38.992  0.00  0.00    +0.000 NA
BRANCH  20  24
ATOM     24  C   UNL     1      43.958  35.383  42.959  0.00  0.00    +0.000 C 
ATOM     25  C   UNL     1      43.036  36.540  43.137  0.00  0.00    +0.000 C 
ATOM     26  C   UNL     1      43.392  37.070  44.515  0.00  0.00    +0.000 C 
ATOM     27  C   UNL     1      44.772  36.512  44.843  0.00  0.00    +0.000 C 
ATOM     28  C   UNL     1      45.270  35.926  43.517  0.00  0.00    +0.000 C 
ENDBRANCH  20  24
ENDBRANCH  17  22
ENDBRANCH   3  17
TORSDOF 4
