REMARK  Name = 
REMARK  4 active torsions:
REMARK  status: ('A' for Active; 'I' for Inactive)
REMARK    1  A    between atoms: C_9  and  C_24
REMARK    2  A    between atoms: N_12  and  C_15
REMARK    3  A    between atoms: C_24  and  N_37
REMARK    4  A    between atoms: C_41  and  N_42
REMARK                            x       y       z     vdW  Elec       q    Type
REMARK                         _______ _______ _______ _____ _____    ______ ____
ROOT
ATOM      1  C   UNL     1      37.618  28.603  43.789  0.00  0.00    +0.000 A 
ATOM      2  C   UNL     1      37.136  27.288  43.734  0.00  0.00    +0.000 A 
ATOM      3  C   UNL     1      36.736  26.796  42.493  0.00  0.00    +0.000 A 
ATOM      4  N   UNL     1      36.836  27.615  41.409  0.00  0.00    +0.000 NA
ATOM      5  C   UNL     1      37.303  28.872  41.495  0.00  0.00    +0.000 A 
ATOM      6  N   UNL     1      37.696  29.373  42.680  0.00  0.00    +0.000 NA
ATOM      7  N   UNL     1      37.360  29.632  40.292  0.00  0.00    +0.000 N 
ATOM      8  C   UNL     1      37.001  29.129  39.104  0.00  0.00    +0.000 A 
ATOM      9  C   UNL     1      37.113  29.985  38.044  0.00  0.00    +0.000 A 
ATOM     10  C   UNL     1      37.559  31.290  38.128  0.00  0.00    +0.000 A 
ATOM     11  O   UNL     1      37.661  32.074  37.149  0.00  0.00    +0.000 OA
ATOM     12  N   UNL     1      37.909  31.747  39.351  0.00  0.00    +0.000 N 
ATOM     13  C   UNL     1      37.807  30.912  40.428  0.00  0.00    +0.000 A 
ATOM     14  O   UNL     1      38.149  31.396  41.551  0.00  0.00    +0.000 OA
ENDROOT
BRANCH  12  15
ATOM     15  C   UNL     1      38.387  33.087  39.558  0.00  0.00    +0.000 A 
ATOM     16  C   UNL     1      37.797  34.309  39.781  0.00  0.00    +0.000 A 
ATOM     17  N   UNL     1      38.771  35.242  39.903  0.00  0.00    +0.000 N 
ATOM     18  C   UNL     1      39.984  34.633  39.760  0.00  0.00    +0.000 A 
ATOM     19  C   UNL     1      41.245  35.167  39.806  0.00  0.00    +0.000 A 
ATOM     20  C   UNL     1      42.367  34.381  39.636  0.00  0.00    +0.000 A 
ATOM     21  C   UNL     1      42.170  33.044  39.421  0.00  0.00    +0.000 A 
ATOM     22  C   UNL     1      40.899  32.525  39.378  0.00  0.00    +0.000 A 
ATOM     23  C   UNL     1      39.764  33.292  39.544  0.00  0.00    +0.000 A 
ATOM     24  H   UNL     1      38.545  36.260  40.080  0.00  0.00    +0.000 HD
ENDBRANCH  12  15
BRANCH   9  25
ATOM     25  C   UNL     1      36.751  29.562  36.677  0.00  0.00    +0.000 C 
BRANCH  25  26
ATOM     26  N   UNL     1      36.287  28.181  36.638  0.00  0.00    +0.000 N 
ATOM     27  C   UNL     1      35.903  27.410  37.699  0.00  0.00    +0.000 A 
ATOM     28  N   UNL     1      35.536  26.174  37.247  0.00  0.00    +0.000 NA
ATOM     29  C   UNL     1      35.701  26.212  35.934  0.00  0.00    +0.000 A 
ATOM     30  C   UNL     1      35.515  25.315  34.906  0.00  0.00    +0.000 A 
ATOM     31  N   UNL     1      35.756  25.579  33.601  0.00  0.00    +0.000 NA
ATOM     32  C   UNL     1      36.214  26.803  33.233  0.00  0.00    +0.000 A 
ATOM     33  N   UNL     1      36.396  27.678  34.224  0.00  0.00    +0.000 NA
ATOM     34  C   UNL     1      36.158  27.418  35.513  0.00  0.00    +0.000 A 
BRANCH  30  35
ATOM     35  N   UNL     1      35.043  24.001  35.137  0.00  0.00    +0.000 N 
ATOM     36  H   UNL     1      34.676  23.054  35.323  0.00  0.00    +0.000 HD
ATOM     37  H   UNL     1      34.293  23.490  35.653  0.00  0.00    +0.000 HD
ENDBRANCH  30  35
ENDBRANCH  25  26
ENDBRANCH   9  25
TORSDOF 4
