REMARK  Name = 
REMARK  9 active torsions:
REMARK  status: ('A' for Active; 'I' for Inactive)
REMARK    1  A    between atoms: C_1  and  N_8
REMARK    2  A    between atoms: C_2  and  C_27
REMARK    3  A    between atoms: C_5  and  O_9
REMARK    4  A    between atoms: O_9  and  C_10
REMARK    5  A    between atoms: C_13  and  C_15
REMARK    6  A    between atoms: C_20  and  N_21
REMARK    7  A    between atoms: C_27  and  C_28
REMARK    8  A    between atoms: C_27  and  C_29
REMARK    9  A    between atoms: C_27  and  C_30
REMARK                            x       y       z     vdW  Elec       q    Type
REMARK                         _______ _______ _______ _____ _____    ______ ____
ROOT
ATOM      1  C   UNL     1      37.021  31.041  40.812  0.00  0.00    +0.000 A 
ATOM      2  N   UNL     1      36.626  31.328  39.567  0.00  0.00    +0.000 NA
ATOM      3  O   UNL     1      37.276  32.360  39.118  0.00  0.00    +0.000 OA
ATOM      4  C   UNL     1      38.107  32.784  40.032  0.00  0.00    +0.000 A 
ATOM      5  N   UNL     1      37.968  31.973  41.108  0.00  0.00    +0.000 NA
ENDROOT
BRANCH   4   6
ATOM      6  C   UNL     1      39.033  33.931  39.928  0.00  0.00    +0.000 A 
ATOM      7  C   UNL     1      38.723  35.207  40.313  0.00  0.00    +0.000 A 
ATOM      8  C   UNL     1      39.661  36.225  40.179  0.00  0.00    +0.000 A 
ATOM      9  C   UNL     1      40.917  35.979  39.660  0.00  0.00    +0.000 A 
ATOM     10  C   UNL     1      41.222  34.697  39.276  0.00  0.00    +0.000 A 
ATOM     11  C   UNL     1      40.299  33.691  39.407  0.00  0.00    +0.000 A 
BRANCH  11  12
ATOM     12  N   UNL     1      40.758  32.416  38.968  0.00  0.00    +0.000 N 
ATOM     13  C   UNL     1      41.353  31.342  39.767  0.00  0.00    +0.000 C 
ATOM     14  C   UNL     1      42.649  30.843  39.182  0.00  0.00    +0.000 C 
ATOM     15  N   UNL     1      43.067  31.633  38.050  0.00  0.00    +0.000 NA
ATOM     16  C   UNL     1      42.056  31.687  37.006  0.00  0.00    +0.000 C 
ATOM     17  C   UNL     1      40.691  31.988  37.586  0.00  0.00    +0.000 C 
ATOM     18  H   UNL     1      43.263  32.592  38.370  0.00  0.00    +0.000 HD
ENDBRANCH  11  12
ENDBRANCH   4   6
BRANCH   1  19
ATOM     19  O   UNL     1      36.764  30.135  41.819  0.00  0.00    +0.000 OA
BRANCH  19  24
ATOM     20  C   UNL     1      37.328  26.614  41.078  0.00  0.00    +0.000 A 
ATOM     21  C   UNL     1      38.361  26.326  41.968  0.00  0.00    +0.000 A 
ATOM     22  C   UNL     1      38.843  27.340  42.801  0.00  0.00    +0.000 A 
ATOM     23  N   UNL     1      38.256  28.576  42.687  0.00  0.00    +0.000 NA
ATOM     24  C   UNL     1      37.256  28.842  41.821  0.00  0.00    +0.000 A 
ATOM     25  N   UNL     1      36.784  27.860  41.009  0.00  0.00    +0.000 NA
ATOM     26  N   UNL     1      39.872  27.106  43.699  0.00  0.00    +0.000 N 
ATOM     27  H   UNL     1      40.212  27.868  44.303  0.00  0.00    +0.000 HD
ATOM     28  H   UNL     1      40.297  26.170  43.762  0.00  0.00    +0.000 HD
BRANCH  21  29
ATOM     29  C   UNL     1      38.853  24.951  41.945  0.00  0.00    +0.000 C 
ATOM     30  C   UNL     1      37.720  23.942  41.713  0.00  0.00    +0.000 C 
ATOM     31  C   UNL     1      39.616  24.489  43.134  0.00  0.00    +0.000 C 
ATOM     32  C   UNL     1      39.796  24.845  40.756  0.00  0.00    +0.000 C 
ENDBRANCH  21  29
BRANCH  20  33
ATOM     33  N   UNL     1      36.806  25.657  40.212  0.00  0.00    +0.000 N 
ATOM     34  H   UNL     1      36.042  25.907  39.568  0.00  0.00    +0.000 HD
ATOM     35  H   UNL     1      37.184  24.699  40.215  0.00  0.00    +0.000 HD
ENDBRANCH  20  33
ENDBRANCH  19  24
ENDBRANCH   1  19
TORSDOF 6
