REMARK  Name = 
REMARK  5 active torsions:
REMARK  status: ('A' for Active; 'I' for Inactive)
REMARK    1  A    between atoms: C_3  and  S_16
REMARK    2  A    between atoms: C_5  and  C_6
REMARK    3  A    between atoms: S_16  and  C_21
REMARK    4  A    between atoms: C_19  and  C_23
REMARK    5  A    between atoms: C_23  and  C_24
REMARK                            x       y       z     vdW  Elec       q    Type
REMARK                         _______ _______ _______ _____ _____    ______ ____
ROOT
ATOM      1  N   UNL     1      37.357  33.728  40.007  0.00  0.00    +0.000 N 
ATOM      2  N   UNL     1      37.773  34.953  39.748  0.00  0.00    +0.000 NA
ATOM      3  C   UNL     1      39.014  35.116  40.243  0.00  0.00    +0.000 A 
ATOM      4  C   UNL     1      39.305  33.900  40.813  0.00  0.00    +0.000 A 
ATOM      5  C   UNL     1      38.241  33.007  40.663  0.00  0.00    +0.000 A 
ATOM      6  H   UNL     1      36.433  33.372  39.724  0.00  0.00    +0.000 HD
ENDROOT
BRANCH   5   7
ATOM      7  C   UNL     1      38.330  31.686  41.204  0.00  0.00    +0.000 A 
ATOM      8  N   UNL     1      39.396  31.353  41.968  0.00  0.00    +0.000 NA
ATOM      9  C   UNL     1      39.605  30.178  42.540  0.00  0.00    +0.000 A 
ATOM     10  N   UNL     1      38.736  29.169  42.406  0.00  0.00    +0.000 NA
ATOM     11  C   UNL     1      37.628  29.385  41.663  0.00  0.00    +0.000 A 
ATOM     12  C   UNL     1      36.714  28.383  41.500  0.00  0.00    +0.000 A 
ATOM     13  C   UNL     1      35.564  28.562  40.745  0.00  0.00    +0.000 A 
ATOM     14  C   UNL     1      35.398  29.819  40.164  0.00  0.00    +0.000 A 
ATOM     15  C   UNL     1      36.359  30.777  40.371  0.00  0.00    +0.000 A 
ATOM     16  C   UNL     1      37.491  30.626  41.107  0.00  0.00    +0.000 A 
ENDBRANCH   5   7
BRANCH   3  17
ATOM     17  S   UNL     1      40.152  36.494  40.271  0.00  0.00    +0.000 S 
BRANCH  17  22
ATOM     18  C   UNL     1      43.441  34.662  41.560  0.00  0.00    +0.000 A 
ATOM     19  C   UNL     1      43.821  35.405  42.686  0.00  0.00    +0.000 A 
ATOM     20  C   UNL     1      43.053  36.493  43.057  0.00  0.00    +0.000 A 
ATOM     21  N   UNL     1      41.956  36.785  42.301  0.00  0.00    +0.000 NA
ATOM     22  C   UNL     1      41.621  36.040  41.218  0.00  0.00    +0.000 A 
ATOM     23  N   UNL     1      42.362  35.000  40.867  0.00  0.00    +0.000 NA
BRANCH  20  24
ATOM     24  C   UNL     1      43.461  37.276  44.250  0.00  0.00    +0.000 C 
ATOM     25  C   UNL     1      44.387  36.525  45.148  0.00  0.00    +0.000 C 
ENDBRANCH  20  24
ENDBRANCH  17  22
ENDBRANCH   3  17
TORSDOF 4
