REMARK  Name = 
REMARK  1 active torsions:
REMARK  status: ('A' for Active; 'I' for Inactive)
REMARK    1  A    between atoms: C_12  and  C_13
REMARK                            x       y       z     vdW  Elec       q    Type
REMARK                         _______ _______ _______ _____ _____    ______ ____
ROOT
ATOM      1  C   UNL     1      38.010  30.906  38.927  0.00  0.00    +0.000 A 
ATOM      2  C   UNL     1      37.072  31.945  39.043  0.00  0.00    +0.000 A 
ATOM      3  C   UNL     1      37.429  33.164  39.588  0.00  0.00    +0.000 A 
ATOM      4  N   UNL     1      38.695  33.370  40.017  0.00  0.00    +0.000 NA
ATOM      5  C   UNL     1      39.592  32.392  39.912  0.00  0.00    +0.000 A 
ATOM      6  N   UNL     1      39.236  31.240  39.392  0.00  0.00    +0.000 NA
ATOM      7  N   UNL     1      40.895  32.688  40.385  0.00  0.00    +0.000 N 
ATOM      8  C   UNL     1      41.853  31.747  40.531  0.00  0.00    +0.000 A 
ATOM      9  N   UNL     1      43.014  32.287  41.000  0.00  0.00    +0.000 NA
ATOM     10  C   UNL     1      42.793  33.606  41.159  0.00  0.00    +0.000 A 
ATOM     11  C   UNL     1      43.590  34.637  41.597  0.00  0.00    +0.000 A 
ATOM     12  O   UNL     1      44.787  34.445  41.950  0.00  0.00    +0.000 OA
ATOM     13  N   UNL     1      43.028  35.859  41.629  0.00  0.00    +0.000 N 
ATOM     14  C   UNL     1      41.758  36.065  41.254  0.00  0.00    +0.000 A 
ATOM     15  N   UNL     1      41.224  37.384  41.312  0.00  0.00    +0.000 N 
ATOM     16  N   UNL     1      40.950  35.063  40.817  0.00  0.00    +0.000 NA
ATOM     17  C   UNL     1      41.484  33.837  40.776  0.00  0.00    +0.000 A 
ATOM     18  H   UNL     1      43.590  36.660  41.951  0.00  0.00    +0.000 HD
ATOM     19  H   UNL     1      40.250  37.558  41.027  0.00  0.00    +0.000 HD
ATOM     20  H   UNL     1      41.812  38.164  41.639  0.00  0.00    +0.000 HD
ENDROOT
BRANCH   1  32
ATOM     21  C   UNL     1      38.117  29.716  42.504  0.00  0.00    +0.000 A 
ATOM     22  C   UNL     1      37.545  28.748  43.339  0.00  0.00    +0.000 A 
ATOM     23  C   UNL     1      36.729  27.797  42.742  0.00  0.00    +0.000 A 
ATOM     24  N   UNL     1      36.544  27.874  41.396  0.00  0.00    +0.000 NA
ATOM     25  C   UNL     1      37.108  28.819  40.609  0.00  0.00    +0.000 A 
ATOM     26  N   UNL     1      37.898  29.737  41.193  0.00  0.00    +0.000 NA
ATOM     27  N   UNL     1      36.844  28.800  39.220  0.00  0.00    +0.000 N 
ATOM     28  C   UNL     1      35.700  27.992  38.784  0.00  0.00    +0.000 C 
ATOM     29  C   UNL     1      35.555  28.027  37.289  0.00  0.00    +0.000 C 
ATOM     30  N   UNL     1      35.774  29.387  36.888  0.00  0.00    +0.000 NA
ATOM     31  C   UNL     1      37.209  29.640  36.947  0.00  0.00    +0.000 C 
ATOM     32  C   UNL     1      37.717  29.570  38.356  0.00  0.00    +0.000 C 
ATOM     33  H   UNL     1      35.279  30.025  37.527  0.00  0.00    +0.000 HD
ENDBRANCH   1  32
TORSDOF 1
