REMARK  Name = 
REMARK  3 active torsions:
REMARK  status: ('A' for Active; 'I' for Inactive)
REMARK    1  A    between atoms: C_1  and  C_7
REMARK    2  A    between atoms: C_5  and  C_17
REMARK    3  A    between atoms: C_17  and  C_19
REMARK                            x       y       z     vdW  Elec       q    Type
REMARK                         _______ _______ _______ _____ _____    ______ ____
ROOT
ATOM      1  C   UNL     1      37.731  30.065  40.299  0.00  0.00    +0.000 A 
ATOM      2  C   UNL     1      36.759  30.618  39.468  0.00  0.00    +0.000 A 
ATOM      3  C   UNL     1      37.013  31.625  38.552  0.00  0.00    +0.000 A 
ATOM      4  N   UNL     1      38.308  32.056  38.510  0.00  0.00    +0.000 NA
ATOM      5  C   UNL     1      39.260  31.557  39.280  0.00  0.00    +0.000 A 
ATOM      6  N   UNL     1      38.933  30.597  40.127  0.00  0.00    +0.000 NA
ENDROOT
BRANCH   1   7
ATOM      7  C   UNL     1      37.639  29.068  41.298  0.00  0.00    +0.000 A 
ATOM      8  C   UNL     1      37.824  29.527  42.626  0.00  0.00    +0.000 A 
ATOM      9  C   UNL     1      37.763  28.716  43.744  0.00  0.00    +0.000 A 
ATOM     10  C   UNL     1      37.504  27.355  43.567  0.00  0.00    +0.000 A 
ATOM     11  C   UNL     1      37.316  26.862  42.293  0.00  0.00    +0.000 A 
ATOM     12  C   UNL     1      37.064  25.521  42.105  0.00  0.00    +0.000 A 
ATOM     13  C   UNL     1      36.876  24.971  40.855  0.00  0.00    +0.000 A 
ATOM     14  C   UNL     1      36.958  25.874  39.794  0.00  0.00    +0.000 A 
ATOM     15  C   UNL     1      37.209  27.195  40.016  0.00  0.00    +0.000 A 
ATOM     16  C   UNL     1      37.394  27.739  41.239  0.00  0.00    +0.000 A 
ENDBRANCH   1   7
BRANCH   5  17
ATOM     17  C   UNL     1      40.610  32.095  39.147  0.00  0.00    +0.000 C 
ATOM     18  O   UNL     1      41.317  31.836  38.130  0.00  0.00    +0.000 OA
BRANCH  17  19
ATOM     19  C   UNL     1      41.432  32.939  39.980  0.00  0.00    +0.000 A 
ATOM     20  C   UNL     1      42.568  32.410  40.615  0.00  0.00    +0.000 A 
ATOM     21  C   UNL     1      43.417  33.063  41.487  0.00  0.00    +0.000 A 
ATOM     22  C   UNL     1      43.102  34.372  41.751  0.00  0.00    +0.000 A 
ATOM     23  C   UNL     1      42.017  34.997  41.188  0.00  0.00    +0.000 A 
ATOM     24  C   UNL     1      41.708  36.317  41.437  0.00  0.00    +0.000 A 
ATOM     25  C   UNL     1      40.614  36.963  40.849  0.00  0.00    +0.000 A 
ATOM     26  C   UNL     1      39.829  36.206  39.980  0.00  0.00    +0.000 A 
ATOM     27  C   UNL     1      40.166  34.894  39.756  0.00  0.00    +0.000 A 
ATOM     28  C   UNL     1      41.239  34.255  40.334  0.00  0.00    +0.000 A 
ENDBRANCH  17  19
ENDBRANCH   5  17
TORSDOF 3
