REMARK  Name = 
REMARK  9 active torsions:
REMARK  status: ('A' for Active; 'I' for Inactive)
REMARK    1  A    between atoms: C_1  and  N_8
REMARK    2  A    between atoms: C_2  and  C_27
REMARK    3  A    between atoms: C_5  and  O_9
REMARK    4  A    between atoms: O_9  and  C_10
REMARK    5  A    between atoms: C_13  and  C_15
REMARK    6  A    between atoms: C_20  and  C_21
REMARK    7  A    between atoms: C_27  and  C_28
REMARK    8  A    between atoms: C_27  and  C_29
REMARK    9  A    between atoms: C_27  and  C_30
REMARK                            x       y       z     vdW  Elec       q    Type
REMARK                         _______ _______ _______ _____ _____    ______ ____
ROOT
ATOM      1  O   UNL     1      36.744  30.120  41.842  0.00  0.00    +0.000 OA
ENDROOT
BRANCH   1   6
ATOM      2  C   UNL     1      37.322  26.614  41.065  0.00  0.00    +0.000 A 
ATOM      3  C   UNL     1      38.347  26.315  41.986  0.00  0.00    +0.000 A 
ATOM      4  C   UNL     1      38.807  27.320  42.842  0.00  0.00    +0.000 A 
ATOM      5  N   UNL     1      38.223  28.554  42.730  0.00  0.00    +0.000 NA
ATOM      6  C   UNL     1      37.241  28.828  41.842  0.00  0.00    +0.000 A 
ATOM      7  N   UNL     1      36.785  27.863  41.006  0.00  0.00    +0.000 NA
ATOM      8  N   UNL     1      39.814  27.065  43.754  0.00  0.00    +0.000 N 
ATOM      9  H   UNL     1      40.144  27.814  44.379  0.00  0.00    +0.000 HD
ATOM     10  H   UNL     1      40.234  26.126  43.808  0.00  0.00    +0.000 HD
BRANCH   3  11
ATOM     11  C   UNL     1      38.834  24.937  41.951  0.00  0.00    +0.000 C 
ATOM     12  C   UNL     1      37.704  23.932  41.717  0.00  0.00    +0.000 C 
ATOM     13  C   UNL     1      39.598  24.466  43.140  0.00  0.00    +0.000 C 
ATOM     14  C   UNL     1      39.780  24.841  40.760  0.00  0.00    +0.000 C 
ENDBRANCH   3  11
BRANCH   2  15
ATOM     15  N   UNL     1      36.837  25.655  40.189  0.00  0.00    +0.000 N 
ATOM     16  H   UNL     1      36.088  25.896  39.525  0.00  0.00    +0.000 HD
ATOM     17  H   UNL     1      37.226  24.701  40.203  0.00  0.00    +0.000 HD
ENDBRANCH   2  15
ENDBRANCH   1   6
BRANCH   1  18
ATOM     18  C   UNL     1      36.990  31.026  40.840  0.00  0.00    +0.000 A 
ATOM     19  N   UNL     1      36.574  31.320  39.602  0.00  0.00    +0.000 NA
ATOM     20  O   UNL     1      37.227  32.348  39.156  0.00  0.00    +0.000 OA
ATOM     21  C   UNL     1      38.081  32.766  40.056  0.00  0.00    +0.000 A 
ATOM     22  N   UNL     1      37.942  31.945  41.117  0.00  0.00    +0.000 NA
BRANCH  21  23
ATOM     23  C   UNL     1      39.013  33.900  39.946  0.00  0.00    +0.000 A 
ATOM     24  C   UNL     1      38.699  35.189  40.297  0.00  0.00    +0.000 A 
ATOM     25  C   UNL     1      39.642  36.198  40.160  0.00  0.00    +0.000 A 
ATOM     26  C   UNL     1      40.910  35.918  39.667  0.00  0.00    +0.000 A 
ATOM     27  C   UNL     1      41.223  34.640  39.317  0.00  0.00    +0.000 A 
ATOM     28  C   UNL     1      40.285  33.634  39.453  0.00  0.00    +0.000 A 
BRANCH  28  29
ATOM     29  C   UNL     1      40.693  32.258  39.053  0.00  0.00    +0.000 C 
ATOM     30  C   UNL     1      40.737  32.159  37.537  0.00  0.00    +0.000 C 
ATOM     31  C   UNL     1      42.145  32.281  37.005  0.00  0.00    +0.000 C 
ATOM     32  C   UNL     1      43.085  31.294  37.653  0.00  0.00    +0.000 C 
ATOM     33  C   UNL     1      42.442  30.597  38.834  0.00  0.00    +0.000 C 
ATOM     34  C   UNL     1      41.897  31.722  39.720  0.00  0.00    +0.000 C 
ENDBRANCH  28  29
ENDBRANCH  21  23
ENDBRANCH   1  18
TORSDOF 6
