REMARK  Name = 
REMARK  1 active torsions:
REMARK  status: ('A' for Active; 'I' for Inactive)
REMARK    1  A    between atoms: C_19  and  C_21
REMARK                            x       y       z     vdW  Elec       q    Type
REMARK                         _______ _______ _______ _____ _____    ______ ____
ROOT
ATOM      1  C   UNL     1      42.373  28.852  42.922  0.00  0.00    +0.000 A 
ATOM      2  C   UNL     1      42.313  27.700  43.745  0.00  0.00    +0.000 A 
ATOM      3  C   UNL     1      41.053  27.124  43.989  0.00  0.00    +0.000 A 
ATOM      4  N   UNL     1      39.968  27.720  43.410  0.00  0.00    +0.000 NA
ATOM      5  C   UNL     1      40.058  28.808  42.637  0.00  0.00    +0.000 A 
ATOM      6  N   UNL     1      41.254  29.388  42.382  0.00  0.00    +0.000 NA
ATOM      7  N   UNL     1      38.833  29.306  42.108  0.00  0.00    +0.000 N 
ATOM      8  C   UNL     1      37.744  28.494  42.142  0.00  0.00    +0.000 A 
ATOM      9  N   UNL     1      36.725  29.178  41.592  0.00  0.00    +0.000 NA
ATOM     10  C   UNL     1      37.121  30.391  41.210  0.00  0.00    +0.000 A 
ATOM     11  C   UNL     1      36.599  31.512  40.618  0.00  0.00    +0.000 A 
ATOM     12  N   UNL     1      37.340  32.623  40.370  0.00  0.00    +0.000 NA
ATOM     13  C   UNL     1      38.637  32.623  40.719  0.00  0.00    +0.000 A 
ATOM     14  N   UNL     1      39.203  31.540  41.307  0.00  0.00    +0.000 NA
ATOM     15  C   UNL     1      38.458  30.460  41.542  0.00  0.00    +0.000 A 
ATOM     16  N   UNL     1      39.495  33.743  40.501  0.00  0.00    +0.000 N 
ATOM     17  C   UNL     1      39.380  34.971  39.989  0.00  0.00    +0.000 A 
ATOM     18  N   UNL     1      40.546  35.607  40.042  0.00  0.00    +0.000 NA
ATOM     19  C   UNL     1      41.434  34.776  40.598  0.00  0.00    +0.000 A 
ATOM     20  N   UNL     1      40.763  33.628  40.875  0.00  0.00    +0.000 NA
ENDROOT
BRANCH  19  21
ATOM     21  C   UNL     1      42.869  34.791  40.965  0.00  0.00    +0.000 A 
ATOM     22  C   UNL     1      43.851  34.019  40.333  0.00  0.00    +0.000 A 
ATOM     23  C   UNL     1      45.158  34.067  40.706  0.00  0.00    +0.000 A 
ATOM     24  C   UNL     1      45.597  34.876  41.728  0.00  0.00    +0.000 A 
ATOM     25  C   UNL     1      44.663  35.649  42.371  0.00  0.00    +0.000 A 
ATOM     26  C   UNL     1      45.123  36.450  43.389  0.00  0.00    +0.000 A 
ATOM     27  C   UNL     1      44.261  37.252  44.084  0.00  0.00    +0.000 A 
ATOM     28  C   UNL     1      42.922  37.226  43.728  0.00  0.00    +0.000 A 
ATOM     29  C   UNL     1      42.519  36.404  42.701  0.00  0.00    +0.000 A 
ATOM     30  C   UNL     1      43.347  35.583  41.976  0.00  0.00    +0.000 A 
ENDBRANCH  19  21
TORSDOF 1
