REMARK  Name = 
REMARK  4 active torsions:
REMARK  status: ('A' for Active; 'I' for Inactive)
REMARK    1  A    between atoms: C_3  and  S_16
REMARK    2  A    between atoms: C_5  and  C_6
REMARK    3  A    between atoms: S_16  and  C_21
REMARK    4  A    between atoms: C_19  and  C_23
REMARK                            x       y       z     vdW  Elec       q    Type
REMARK                         _______ _______ _______ _____ _____    ______ ____
ROOT
ATOM      1  N   UNL     1      37.363  33.714  40.013  0.00  0.00    +0.000 N 
ATOM      2  N   UNL     1      37.773  34.941  39.761  0.00  0.00    +0.000 NA
ATOM      3  C   UNL     1      39.014  35.099  40.259  0.00  0.00    +0.000 A 
ATOM      4  C   UNL     1      39.308  33.879  40.819  0.00  0.00    +0.000 A 
ATOM      5  C   UNL     1      38.245  32.986  40.663  0.00  0.00    +0.000 A 
ATOM      6  H   UNL     1      36.439  33.359  39.728  0.00  0.00    +0.000 HD
ENDROOT
BRANCH   5   7
ATOM      7  C   UNL     1      38.322  31.662  41.196  0.00  0.00    +0.000 A 
ATOM      8  N   UNL     1      39.382  31.323  41.966  0.00  0.00    +0.000 NA
ATOM      9  C   UNL     1      39.576  30.149  42.546  0.00  0.00    +0.000 A 
ATOM     10  N   UNL     1      38.700  29.148  42.417  0.00  0.00    +0.000 NA
ATOM     11  C   UNL     1      37.598  29.369  41.667  0.00  0.00    +0.000 A 
ATOM     12  C   UNL     1      36.669  28.376  41.504  0.00  0.00    +0.000 A 
ATOM     13  C   UNL     1      35.529  28.573  40.741  0.00  0.00    +0.000 A 
ATOM     14  C   UNL     1      35.378  29.824  40.152  0.00  0.00    +0.000 A 
ATOM     15  C   UNL     1      36.349  30.767  40.359  0.00  0.00    +0.000 A 
ATOM     16  C   UNL     1      37.475  30.608  41.102  0.00  0.00    +0.000 A 
ENDBRANCH   5   7
BRANCH   3  17
ATOM     17  S   UNL     1      40.146  36.478  40.302  0.00  0.00    +0.000 S 
BRANCH  17  22
ATOM     18  C   UNL     1      43.463  34.609  41.470  0.00  0.00    +0.000 A 
ATOM     19  C   UNL     1      43.877  35.322  42.593  0.00  0.00    +0.000 A 
ATOM     20  C   UNL     1      43.123  36.412  43.015  0.00  0.00    +0.000 A 
ATOM     21  N   UNL     1      42.008  36.728  42.301  0.00  0.00    +0.000 NA
ATOM     22  C   UNL     1      41.635  36.002  41.204  0.00  0.00    +0.000 A 
ATOM     23  N   UNL     1      42.361  34.971  40.817  0.00  0.00    +0.000 NA
ATOM     24  C   UNL     1      43.413  37.283  44.183  0.00  0.00    +0.000 C 
ENDBRANCH  17  22
ENDBRANCH   3  17
TORSDOF 3
