REMARK  Name = 
REMARK  3 active torsions:
REMARK  status: ('A' for Active; 'I' for Inactive)
REMARK    1  A    between atoms: C_12  and  C_13
REMARK    2  A    between atoms: C_17  and  C_19
REMARK    3  A    between atoms: C_19  and  C_20
REMARK                            x       y       z     vdW  Elec       q    Type
REMARK                         _______ _______ _______ _____ _____    ______ ____
ROOT
ATOM      1  C   UNL     1      38.065  31.199  38.888  0.00  0.00    +0.000 A 
ATOM      2  C   UNL     1      37.062  32.023  39.398  0.00  0.00    +0.000 A 
ATOM      3  C   UNL     1      37.325  33.282  39.887  0.00  0.00    +0.000 A 
ATOM      4  N   UNL     1      38.596  33.736  39.870  0.00  0.00    +0.000 NA
ATOM      5  C   UNL     1      39.578  32.971  39.388  0.00  0.00    +0.000 A 
ATOM      6  N   UNL     1      39.281  31.777  38.934  0.00  0.00    +0.000 NA
ENDROOT
BRANCH   1  18
ATOM      7  C   UNL     1      38.714  30.056  42.419  0.00  0.00    +0.000 A 
ATOM      8  C   UNL     1      38.336  29.021  43.302  0.00  0.00    +0.000 A 
ATOM      9  C   UNL     1      37.566  27.996  42.802  0.00  0.00    +0.000 A 
ATOM     10  N   UNL     1      37.220  28.042  41.502  0.00  0.00    +0.000 NA
ATOM     11  C   UNL     1      37.582  29.037  40.646  0.00  0.00    +0.000 A 
ATOM     12  N   UNL     1      38.341  30.044  41.146  0.00  0.00    +0.000 NA
ATOM     13  N   UNL     1      37.159  28.979  39.303  0.00  0.00    +0.000 N 
ATOM     14  C   UNL     1      36.067  28.048  38.994  0.00  0.00    +0.000 C 
ATOM     15  C   UNL     1      35.746  28.078  37.512  0.00  0.00    +0.000 C 
ATOM     16  N   UNL     1      35.749  29.460  37.130  0.00  0.00    +0.000 NA
ATOM     17  C   UNL     1      37.158  29.843  37.013  0.00  0.00    +0.000 C 
ATOM     18  C   UNL     1      37.839  29.840  38.346  0.00  0.00    +0.000 C 
ATOM     19  H   UNL     1      35.269  29.583  36.227  0.00  0.00    +0.000 HD
ENDBRANCH   1  18
BRANCH   5  20
ATOM     20  C   UNL     1      41.012  33.386  39.313  0.00  0.00    +0.000 C 
BRANCH  20  21
ATOM     21  C   UNL     1      41.188  34.616  40.063  0.00  0.00    +0.000 A 
ATOM     22  C   UNL     1      40.348  35.683  39.734  0.00  0.00    +0.000 A 
ATOM     23  C   UNL     1      40.394  36.910  40.361  0.00  0.00    +0.000 A 
ATOM     24  C   UNL     1      41.308  37.125  41.371  0.00  0.00    +0.000 A 
ATOM     25  C   UNL     1      42.124  36.068  41.681  0.00  0.00    +0.000 A 
ATOM     26  C   UNL     1      43.055  36.233  42.675  0.00  0.00    +0.000 A 
ATOM     27  C   UNL     1      43.940  35.270  43.090  0.00  0.00    +0.000 A 
ATOM     28  C   UNL     1      43.871  34.032  42.439  0.00  0.00    +0.000 A 
ATOM     29  C   UNL     1      42.961  33.777  41.425  0.00  0.00    +0.000 A 
ATOM     30  C   UNL     1      42.109  34.824  41.080  0.00  0.00    +0.000 A 
ENDBRANCH  20  21
ENDBRANCH   5  20
TORSDOF 3
