REMARK  Name = 
REMARK  2 active torsions:
REMARK  status: ('A' for Active; 'I' for Inactive)
REMARK    1  A    between atoms: C_1  and  C_16
REMARK    2  A    between atoms: C_11  and  N_26
REMARK                            x       y       z     vdW  Elec       q    Type
REMARK                         _______ _______ _______ _____ _____    ______ ____
ROOT
ATOM      1  C   UNL     1      37.349  29.411  39.810  0.00  0.00    +0.000 A 
ATOM      2  C   UNL     1      36.363  29.489  38.830  0.00  0.00    +0.000 A 
ATOM      3  C   UNL     1      36.424  30.304  37.720  0.00  0.00    +0.000 A 
ATOM      4  N   UNL     1      37.554  31.061  37.635  0.00  0.00    +0.000 NA
ATOM      5  C   UNL     1      38.535  31.025  38.551  0.00  0.00    +0.000 A 
ATOM      6  N   UNL     1      38.411  30.210  39.603  0.00  0.00    +0.000 NA
ATOM      7  N   UNL     1      39.649  31.880  38.314  0.00  0.00    +0.000 N 
ATOM      8  C   UNL     1      40.601  31.502  37.410  0.00  0.00    +0.000 A 
ATOM      9  N   UNL     1      41.578  32.428  37.315  0.00  0.00    +0.000 NA
ATOM     10  C   UNL     1      41.259  33.416  38.162  0.00  0.00    +0.000 A 
ATOM     11  C   UNL     1      41.802  34.632  38.553  0.00  0.00    +0.000 A 
ATOM     12  N   UNL     1      41.199  35.421  39.473  0.00  0.00    +0.000 NA
ATOM     13  C   UNL     1      40.028  34.998  40.023  0.00  0.00    +0.000 A 
ATOM     14  N   UNL     1      39.443  33.815  39.683  0.00  0.00    +0.000 NA
ATOM     15  C   UNL     1      40.070  33.055  38.764  0.00  0.00    +0.000 A 
ENDROOT
BRANCH   1  16
ATOM     16  C   UNL     1      37.410  28.654  41.014  0.00  0.00    +0.000 A 
ATOM     17  C   UNL     1      37.702  29.378  42.189  0.00  0.00    +0.000 A 
ATOM     18  C   UNL     1      37.809  28.835  43.442  0.00  0.00    +0.000 A 
ATOM     19  C   UNL     1      37.620  27.473  43.589  0.00  0.00    +0.000 A 
ATOM     20  C   UNL     1      37.331  26.697  42.482  0.00  0.00    +0.000 A 
ATOM     21  C   UNL     1      37.151  25.343  42.620  0.00  0.00    +0.000 A 
ATOM     22  C   UNL     1      36.869  24.522  41.535  0.00  0.00    +0.000 A 
ATOM     23  C   UNL     1      36.785  25.174  40.308  0.00  0.00    +0.000 A 
ATOM     24  C   UNL     1      36.969  26.524  40.211  0.00  0.00    +0.000 A 
ATOM     25  C   UNL     1      37.245  27.328  41.272  0.00  0.00    +0.000 A 
ENDBRANCH   1  16
BRANCH  11  26
ATOM     26  N   UNL     1      43.039  34.954  37.893  0.00  0.00    +0.000 N 
ATOM     27  H   UNL     1      43.525  35.835  38.112  0.00  0.00    +0.000 HD
ATOM     28  H   UNL     1      43.438  34.303  37.202  0.00  0.00    +0.000 HD
ENDBRANCH  11  26
TORSDOF 2
