REMARK  Name = 
REMARK  0 active torsions:
REMARK  status: ('A' for Active; 'I' for Inactive)
REMARK                            x       y       z     vdW  Elec       q    Type
REMARK                         _______ _______ _______ _____ _____    ______ ____
ROOT
ATOM      1  C   UNL     1      40.464  28.028  43.141  0.00  0.00    +0.000 A 
ATOM      2  C   UNL     1      39.650  27.098  43.816  0.00  0.00    +0.000 A 
ATOM      3  C   UNL     1      38.256  27.228  43.717  0.00  0.00    +0.000 A 
ATOM      4  N   UNL     1      37.748  28.263  42.962  0.00  0.00    +0.000 NA
ATOM      5  C   UNL     1      38.569  29.128  42.334  0.00  0.00    +0.000 A 
ATOM      6  N   UNL     1      39.929  29.035  42.405  0.00  0.00    +0.000 NA
ATOM      7  N   UNL     1      37.919  30.158  41.582  0.00  0.00    +0.000 N 
ATOM      8  C   UNL     1      36.623  29.979  41.247  0.00  0.00    +0.000 A 
ATOM      9  N   UNL     1      36.241  31.068  40.553  0.00  0.00    +0.000 NA
ATOM     10  C   UNL     1      37.244  31.932  40.434  0.00  0.00    +0.000 A 
ATOM     11  C   UNL     1      37.504  33.162  39.881  0.00  0.00    +0.000 A 
ATOM     12  N   UNL     1      38.710  33.762  39.967  0.00  0.00    +0.000 NA
ATOM     13  C   UNL     1      39.705  33.133  40.624  0.00  0.00    +0.000 A 
ATOM     14  N   UNL     1      39.494  31.926  41.183  0.00  0.00    +0.000 NA
ATOM     15  C   UNL     1      38.305  31.342  41.094  0.00  0.00    +0.000 A 
ATOM     16  N   UNL     1      41.009  33.689  40.767  0.00  0.00    +0.000 N 
ATOM     17  C   UNL     1      41.598  34.859  40.451  0.00  0.00    +0.000 A 
ATOM     18  N   UNL     1      42.888  34.830  40.832  0.00  0.00    +0.000 NA
ATOM     19  C   UNL     1      43.094  33.640  41.381  0.00  0.00    +0.000 A 
ATOM     20  N   UNL     1      41.939  32.933  41.344  0.00  0.00    +0.000 NA
ATOM     21  N   UNL     1      44.309  33.135  41.936  0.00  0.00    +0.000 N 
ATOM     22  C   UNL     1      45.028  32.157  41.319  0.00  0.00    +0.000 A 
ATOM     23  N   UNL     1      46.113  31.851  42.016  0.00  0.00    +0.000 NA
ATOM     24  C   UNL     1      46.134  32.627  43.116  0.00  0.00    +0.000 A 
ATOM     25  C   UNL     1      46.956  32.795  44.201  0.00  0.00    +0.000 A 
ATOM     26  N   UNL     1      46.652  33.705  45.151  0.00  0.00    +0.000 NA
ATOM     27  C   UNL     1      45.539  34.465  45.058  0.00  0.00    +0.000 A 
ATOM     28  N   UNL     1      44.702  34.323  43.996  0.00  0.00    +0.000 NA
ATOM     29  C   UNL     1      45.004  33.419  43.050  0.00  0.00    +0.000 A 
ENDROOT
TORSDOF 0
