REMARK  Name = 
REMARK  0 active torsions:
REMARK  status: ('A' for Active; 'I' for Inactive)
REMARK                            x       y       z     vdW  Elec       q    Type
REMARK                         _______ _______ _______ _____ _____    ______ ____
ROOT
ATOM      1  C   UNL     1      40.057  27.868  43.164  0.00  0.00    +0.000 A 
ATOM      2  C   UNL     1      39.102  27.063  43.809  0.00  0.00    +0.000 A 
ATOM      3  C   UNL     1      37.768  27.414  43.674  0.00  0.00    +0.000 A 
ATOM      4  N   UNL     1      37.458  28.521  42.924  0.00  0.00    +0.000 NA
ATOM      5  C   UNL     1      38.409  29.274  42.316  0.00  0.00    +0.000 A 
ATOM      6  N   UNL     1      39.725  28.960  42.426  0.00  0.00    +0.000 NA
ATOM      7  N   UNL     1      37.918  30.384  41.576  0.00  0.00    +0.000 N 
ATOM      8  C   UNL     1      36.618  30.417  41.244  0.00  0.00    +0.000 A 
ATOM      9  N   UNL     1      36.408  31.559  40.550  0.00  0.00    +0.000 NA
ATOM     10  C   UNL     1      37.549  32.251  40.435  0.00  0.00    +0.000 A 
ATOM     11  C   UNL     1      38.013  33.423  39.887  0.00  0.00    +0.000 A 
ATOM     12  N   UNL     1      39.297  33.814  39.976  0.00  0.00    +0.000 NA
ATOM     13  C   UNL     1      40.183  33.031  40.631  0.00  0.00    +0.000 A 
ATOM     14  N   UNL     1      39.773  31.876  41.183  0.00  0.00    +0.000 NA
ATOM     15  C   UNL     1      38.500  31.503  41.086  0.00  0.00    +0.000 A 
ATOM     16  N   UNL     1      41.568  33.347  40.787  0.00  0.00    +0.000 N 
ATOM     17  C   UNL     1      42.304  33.273  41.912  0.00  0.00    +0.000 A 
ATOM     18  N   UNL     1      43.571  33.652  41.669  0.00  0.00    +0.000 NA
ATOM     19  C   UNL     1      43.669  33.981  40.366  0.00  0.00    +0.000 A 
ATOM     20  C   UNL     1      44.743  34.426  39.629  0.00  0.00    +0.000 A 
ATOM     21  O   UNL     1      45.878  34.591  40.163  0.00  0.00    +0.000 OA
ATOM     22  N   UNL     1      44.611  34.698  38.320  0.00  0.00    +0.000 N 
ATOM     23  C   UNL     1      43.367  34.490  37.852  0.00  0.00    +0.000 A 
ATOM     24  N   UNL     1      43.100  34.743  36.484  0.00  0.00    +0.000 N 
ATOM     25  N   UNL     1      42.287  34.057  38.527  0.00  0.00    +0.000 NA
ATOM     26  C   UNL     1      42.415  33.783  39.845  0.00  0.00    +0.000 A 
ATOM     27  H   UNL     1      45.366  35.038  37.690  0.00  0.00    +0.000 HD
ATOM     28  H   UNL     1      43.383  34.549  35.478  0.00  0.00    +0.000 HD
ATOM     29  H   UNL     1      42.813  34.998  35.530  0.00  0.00    +0.000 HD
ENDROOT
TORSDOF 0
