REMARK  Name = 
REMARK  2 active torsions:
REMARK  status: ('A' for Active; 'I' for Inactive)
REMARK    1  A    between atoms: C_1  and  C_11
REMARK    2  A    between atoms: C_15  and  C_17
REMARK                            x       y       z     vdW  Elec       q    Type
REMARK                         _______ _______ _______ _____ _____    ______ ____
ROOT
ATOM      1  C   UNL     1      37.148  29.258  39.812  0.00  0.00    +0.000 A 
ATOM      2  C   UNL     1      36.228  29.237  38.738  0.00  0.00    +0.000 A 
ATOM      3  C   UNL     1      36.308  30.105  37.648  0.00  0.00    +0.000 A 
ATOM      4  N   UNL     1      37.349  30.983  37.696  0.00  0.00    +0.000 NA
ATOM      5  C   UNL     1      38.235  31.030  38.692  0.00  0.00    +0.000 A 
ATOM      6  N   UNL     1      38.110  30.182  39.703  0.00  0.00    +0.000 NA
ENDROOT
BRANCH   1   7
ATOM      7  C   UNL     1      37.186  28.470  40.983  0.00  0.00    +0.000 A 
ATOM      8  C   UNL     1      37.376  29.194  42.187  0.00  0.00    +0.000 A 
ATOM      9  C   UNL     1      37.431  28.611  43.443  0.00  0.00    +0.000 A 
ATOM     10  C   UNL     1      37.294  27.242  43.541  0.00  0.00    +0.000 A 
ATOM     11  C   UNL     1      37.106  26.479  42.395  0.00  0.00    +0.000 A 
ATOM     12  C   UNL     1      36.968  25.112  42.480  0.00  0.00    +0.000 A 
ATOM     13  C   UNL     1      36.783  24.324  41.372  0.00  0.00    +0.000 A 
ATOM     14  C   UNL     1      36.742  24.998  40.163  0.00  0.00    +0.000 A 
ATOM     15  C   UNL     1      36.880  26.356  40.108  0.00  0.00    +0.000 A 
ATOM     16  C   UNL     1      37.063  27.138  41.196  0.00  0.00    +0.000 A 
ENDBRANCH   1   7
BRANCH   5  17
ATOM     17  C   UNL     1      39.310  32.022  38.637  0.00  0.00    +0.000 C 
ATOM     18  O   UNL     1      40.130  32.009  37.669  0.00  0.00    +0.000 OA
ATOM     19  N   UNL     1      39.435  33.012  39.682  0.00  0.00    +0.000 N 
ATOM     20  C   UNL     1      38.590  33.920  40.442  0.00  0.00    +0.000 C 
ATOM     21  C   UNL     1      39.040  35.352  40.376  0.00  0.00    +0.000 C 
ATOM     22  N   UNL     1      40.196  35.540  39.521  0.00  0.00    +0.000 NA
ATOM     23  C   UNL     1      41.247  34.653  39.973  0.00  0.00    +0.000 C 
ATOM     24  C   UNL     1      40.774  33.258  40.215  0.00  0.00    +0.000 C 
ATOM     25  H   UNL     1      40.517  36.517  39.579  0.00  0.00    +0.000 HD
ENDBRANCH   5  17
TORSDOF 2
