REMARK  Name = 
REMARK  0 active torsions:
REMARK  status: ('A' for Active; 'I' for Inactive)
REMARK                            x       y       z     vdW  Elec       q    Type
REMARK                         _______ _______ _______ _____ _____    ______ ____
ROOT
ATOM      1  C   UNL     1      40.266  27.893  43.152  0.00  0.00    +0.000 A 
ATOM      2  C   UNL     1      39.383  26.972  43.766  0.00  0.00    +0.000 A 
ATOM      3  C   UNL     1      37.995  27.161  43.597  0.00  0.00    +0.000 A 
ATOM      4  N   UNL     1      37.590  28.233  42.843  0.00  0.00    +0.000 NA
ATOM      5  C   UNL     1      38.469  29.081  42.280  0.00  0.00    +0.000 A 
ATOM      6  N   UNL     1      39.803  28.930  42.420  0.00  0.00    +0.000 NA
ATOM      7  N   UNL     1      37.868  30.143  41.528  0.00  0.00    +0.000 N 
ATOM      8  C   UNL     1      36.586  30.020  41.135  0.00  0.00    +0.000 A 
ATOM      9  N   UNL     1      36.265  31.137  40.455  0.00  0.00    +0.000 NA
ATOM     10  C   UNL     1      37.304  31.972  40.399  0.00  0.00    +0.000 A 
ATOM     11  C   UNL     1      37.625  33.206  39.887  0.00  0.00    +0.000 A 
ATOM     12  N   UNL     1      38.851  33.766  40.037  0.00  0.00    +0.000 NA
ATOM     13  C   UNL     1      39.802  33.081  40.722  0.00  0.00    +0.000 A 
ATOM     14  N   UNL     1      39.526  31.869  41.240  0.00  0.00    +0.000 NA
ATOM     15  C   UNL     1      38.316  31.335  41.082  0.00  0.00    +0.000 A 
ATOM     16  N   UNL     1      41.113  33.590  40.928  0.00  0.00    +0.000 N 
ATOM     17  C   UNL     1      41.770  34.723  40.621  0.00  0.00    +0.000 A 
ATOM     18  N   UNL     1      43.031  34.655  41.080  0.00  0.00    +0.000 NA
ATOM     19  C   UNL     1      43.157  33.458  41.684  0.00  0.00    +0.000 A 
ATOM     20  N   UNL     1      41.973  32.814  41.584  0.00  0.00    +0.000 NA
ATOM     21  N   UNL     1      44.347  32.989  42.307  0.00  0.00    +0.000 N 
ATOM     22  C   UNL     1      45.081  31.984  41.744  0.00  0.00    +0.000 A 
ATOM     23  N   UNL     1      46.149  31.722  42.516  0.00  0.00    +0.000 NA
ATOM     24  C   UNL     1      46.127  32.556  43.596  0.00  0.00    +0.000 A 
ATOM     25  C   UNL     1      46.903  32.774  44.697  0.00  0.00    +0.000 A 
ATOM     26  O   UNL     1      47.926  32.092  44.864  0.00  0.00    +0.000 OA
ATOM     27  N   UNL     1      46.524  33.733  45.570  0.00  0.00    +0.000 N 
ATOM     28  C   UNL     1      45.409  34.509  45.431  0.00  0.00    +0.000 A 
ATOM     29  N   UNL     1      45.099  35.491  46.409  0.00  0.00    +0.000 N 
ATOM     30  N   UNL     1      44.645  34.279  44.329  0.00  0.00    +0.000 NA
ATOM     31  C   UNL     1      44.997  33.327  43.435  0.00  0.00    +0.000 A 
ATOM     32  H   UNL     1      47.117  33.890  46.398  0.00  0.00    +0.000 HD
ATOM     33  H   UNL     1      44.258  36.076  46.303  0.00  0.00    +0.000 HD
ATOM     34  H   UNL     1      45.715  35.618  47.224  0.00  0.00    +0.000 HD
ENDROOT
TORSDOF 0
