REMARK  Name = 
REMARK  6 active torsions:
REMARK  status: ('A' for Active; 'I' for Inactive)
REMARK    1  A    between atoms: C_3  and  S_16
REMARK    2  A    between atoms: C_5  and  C_6
REMARK    3  A    between atoms: S_16  and  C_21
REMARK    4  A    between atoms: C_19  and  C_23
REMARK    5  A    between atoms: C_23  and  C_24
REMARK    6  A    between atoms: C_24  and  N_25
REMARK                            x       y       z     vdW  Elec       q    Type
REMARK                         _______ _______ _______ _____ _____    ______ ____
ROOT
ATOM      1  N   UNL     1      37.087  33.376  39.906  0.00  0.00    +0.000 N 
ATOM      2  N   UNL     1      37.406  34.608  39.597  0.00  0.00    +0.000 NA
ATOM      3  C   UNL     1      38.648  34.869  40.089  0.00  0.00    +0.000 A 
ATOM      4  C   UNL     1      39.026  33.683  40.707  0.00  0.00    +0.000 A 
ATOM      5  C   UNL     1      37.991  32.733  40.573  0.00  0.00    +0.000 A 
ATOM      6  H   UNL     1      36.187  32.952  39.639  0.00  0.00    +0.000 HD
ENDROOT
BRANCH   5   7
ATOM      7  C   UNL     1      38.138  31.464  41.175  0.00  0.00    +0.000 A 
ATOM      8  N   UNL     1      39.234  31.205  41.947  0.00  0.00    +0.000 NA
ATOM      9  C   UNL     1      39.474  30.091  42.601  0.00  0.00    +0.000 A 
ATOM     10  N   UNL     1      38.643  29.049  42.583  0.00  0.00    +0.000 NA
ATOM     11  C   UNL     1      37.513  29.180  41.849  0.00  0.00    +0.000 A 
ATOM     12  C   UNL     1      36.618  28.152  41.783  0.00  0.00    +0.000 A 
ATOM     13  C   UNL     1      35.449  28.256  41.026  0.00  0.00    +0.000 A 
ATOM     14  C   UNL     1      35.250  29.451  40.351  0.00  0.00    +0.000 A 
ATOM     15  C   UNL     1      36.203  30.428  40.476  0.00  0.00    +0.000 A 
ATOM     16  C   UNL     1      37.339  30.372  41.196  0.00  0.00    +0.000 A 
ENDBRANCH   5   7
BRANCH   3  17
ATOM     17  S   UNL     1      39.696  36.331  40.114  0.00  0.00    +0.000 S 
BRANCH  17  22
ATOM     18  C   UNL     1      43.206  34.661  40.864  0.00  0.00    +0.000 A 
ATOM     19  C   UNL     1      43.663  35.326  42.021  0.00  0.00    +0.000 A 
ATOM     20  C   UNL     1      42.877  36.295  42.588  0.00  0.00    +0.000 A 
ATOM     21  N   UNL     1      41.685  36.569  41.997  0.00  0.00    +0.000 NA
ATOM     22  C   UNL     1      41.263  35.928  40.893  0.00  0.00    +0.000 A 
ATOM     23  N   UNL     1      42.017  34.989  40.341  0.00  0.00    +0.000 NA
BRANCH  20  24
ATOM     24  C   UNL     1      43.396  36.959  43.791  0.00  0.00    +0.000 C 
BRANCH  24  25
ATOM     25  C   UNL     1      44.810  36.712  44.100  0.00  0.00    +0.000 C 
BRANCH  25  26
ATOM     26  N   UNL     1      45.067  35.655  45.054  0.00  0.00    +0.000 N 
ATOM     27  N   UNL     1      44.883  35.382  46.330  0.00  0.00    +0.000 NA
ATOM     28  C   UNL     1      45.362  34.187  46.657  0.00  0.00    +0.000 A 
ATOM     29  C   UNL     1      45.905  33.608  45.532  0.00  0.00    +0.000 A 
ATOM     30  C   UNL     1      45.704  34.554  44.549  0.00  0.00    +0.000 A 
ENDBRANCH  25  26
ENDBRANCH  24  25
ENDBRANCH  20  24
ENDBRANCH  17  22
ENDBRANCH   3  17
TORSDOF 6
