REMARK  Name = 
REMARK  1 active torsions:
REMARK  status: ('A' for Active; 'I' for Inactive)
REMARK    1  A    between atoms: C_25  and  N_30
REMARK                            x       y       z     vdW  Elec       q    Type
REMARK                         _______ _______ _______ _____ _____    ______ ____
ROOT
ATOM      1  C   UNL     1      40.397  27.889  43.000  0.00  0.00    +0.000 A 
ATOM      2  C   UNL     1      39.668  26.969  43.792  0.00  0.00    +0.000 A 
ATOM      3  C   UNL     1      38.259  27.056  43.788  0.00  0.00    +0.000 A 
ATOM      4  N   UNL     1      37.667  28.026  43.020  0.00  0.00    +0.000 NA
ATOM      5  C   UNL     1      38.408  28.878  42.283  0.00  0.00    +0.000 A 
ATOM      6  N   UNL     1      39.771  28.832  42.255  0.00  0.00    +0.000 NA
ATOM      7  N   UNL     1      37.670  29.837  41.529  0.00  0.00    +0.000 N 
ATOM      8  C   UNL     1      36.340  29.617  41.336  0.00  0.00    +0.000 A 
ATOM      9  N   UNL     1      35.863  30.644  40.603  0.00  0.00    +0.000 NA
ATOM     10  C   UNL     1      36.836  31.511  40.322  0.00  0.00    +0.000 A 
ATOM     11  C   UNL     1      37.007  32.695  39.656  0.00  0.00    +0.000 A 
ATOM     12  N   UNL     1      38.203  33.319  39.576  0.00  0.00    +0.000 NA
ATOM     13  C   UNL     1      39.279  32.751  40.180  0.00  0.00    +0.000 A 
ATOM     14  N   UNL     1      39.149  31.593  40.841  0.00  0.00    +0.000 NA
ATOM     15  C   UNL     1      37.962  30.986  40.914  0.00  0.00    +0.000 A 
ATOM     16  N   UNL     1      40.564  33.350  40.138  0.00  0.00    +0.000 N 
ATOM     17  C   UNL     1      41.133  34.404  39.517  0.00  0.00    +0.000 A 
ATOM     18  N   UNL     1      42.426  34.488  39.872  0.00  0.00    +0.000 NA
ATOM     19  C   UNL     1      42.666  33.474  40.725  0.00  0.00    +0.000 A 
ATOM     20  N   UNL     1      41.520  32.768  40.893  0.00  0.00    +0.000 NA
ATOM     21  N   UNL     1      43.955  33.282  41.289  0.00  0.00    +0.000 N 
ATOM     22  C   UNL     1      44.790  32.235  41.294  0.00  0.00    +0.000 A 
ATOM     23  N   UNL     1      45.916  32.533  41.970  0.00  0.00    +0.000 NA
ATOM     24  C   UNL     1      45.793  33.802  42.404  0.00  0.00    +0.000 A 
ATOM     25  C   UNL     1      46.655  34.592  43.141  0.00  0.00    +0.000 A 
ATOM     26  N   UNL     1      46.284  35.859  43.452  0.00  0.00    +0.000 NA
ATOM     27  C   UNL     1      45.076  36.296  43.022  0.00  0.00    +0.000 A 
ATOM     28  N   UNL     1      44.217  35.548  42.305  0.00  0.00    +0.000 NA
ATOM     29  C   UNL     1      44.553  34.292  41.980  0.00  0.00    +0.000 A 
ENDROOT
BRANCH  25  30
ATOM     30  N   UNL     1      47.912  34.141  43.588  0.00  0.00    +0.000 N 
ATOM     31  H   UNL     1      48.519  34.768  44.135  0.00  0.00    +0.000 HD
ATOM     32  H   UNL     1      48.224  33.184  43.368  0.00  0.00    +0.000 HD
ENDBRANCH  25  30
TORSDOF 1
