REMARK  Name = 
REMARK  2 active torsions:
REMARK  status: ('A' for Active; 'I' for Inactive)
REMARK    1  A    between atoms: C_19  and  C_21
REMARK    2  A    between atoms: C_23  and  C_24
REMARK                            x       y       z     vdW  Elec       q    Type
REMARK                         _______ _______ _______ _____ _____    ______ ____
ROOT
ATOM      1  C   UNL     1      40.423  28.005  43.166  0.00  0.00    +0.000 A 
ATOM      2  C   UNL     1      39.607  27.067  43.811  0.00  0.00    +0.000 A 
ATOM      3  C   UNL     1      38.242  27.221  43.676  0.00  0.00    +0.000 A 
ATOM      4  N   UNL     1      37.768  28.257  42.937  0.00  0.00    +0.000 NA
ATOM      5  C   UNL     1      38.575  29.139  42.331  0.00  0.00    +0.000 A 
ATOM      6  N   UNL     1      39.920  29.032  42.433  0.00  0.00    +0.000 NA
ATOM      7  N   UNL     1      37.952  30.181  41.585  0.00  0.00    +0.000 N 
ATOM      8  C   UNL     1      36.653  30.027  41.235  0.00  0.00    +0.000 A 
ATOM      9  N   UNL     1      36.300  31.123  40.550  0.00  0.00    +0.000 NA
ATOM     10  C   UNL     1      37.315  31.968  40.447  0.00  0.00    +0.000 A 
ATOM     11  C   UNL     1      37.588  33.208  39.893  0.00  0.00    +0.000 A 
ATOM     12  N   UNL     1      38.807  33.784  39.995  0.00  0.00    +0.000 NA
ATOM     13  C   UNL     1      39.793  33.135  40.658  0.00  0.00    +0.000 A 
ATOM     14  N   UNL     1      39.555  31.924  41.210  0.00  0.00    +0.000 NA
ATOM     15  C   UNL     1      38.354  31.366  41.103  0.00  0.00    +0.000 A 
ATOM     16  N   UNL     1      41.099  33.655  40.798  0.00  0.00    +0.000 N 
ATOM     17  C   UNL     1      41.760  34.747  40.363  0.00  0.00    +0.000 A 
ATOM     18  N   UNL     1      43.023  34.727  40.790  0.00  0.00    +0.000 NA
ATOM     19  C   UNL     1      43.163  33.619  41.499  0.00  0.00    +0.000 A 
ATOM     20  N   UNL     1      41.978  32.949  41.511  0.00  0.00    +0.000 NA
ENDROOT
BRANCH  19  21
ATOM     21  C   UNL     1      44.403  33.134  42.161  0.00  0.00    +0.000 C 
ATOM     22  C   UNL     1      45.664  33.040  41.336  0.00  0.00    +0.000 C 
ATOM     23  C   UNL     1      45.500  34.120  42.462  0.00  0.00    +0.000 C 
BRANCH  23  24
ATOM     24  C   UNL     1      46.245  33.846  43.732  0.00  0.00    +0.000 A 
ATOM     25  C   UNL     1      47.610  33.677  43.844  0.00  0.00    +0.000 A 
ATOM     26  C   UNL     1      48.175  33.427  45.085  0.00  0.00    +0.000 A 
ATOM     27  C   UNL     1      47.381  33.345  46.226  0.00  0.00    +0.000 A 
ATOM     28  C   UNL     1      46.037  33.519  46.077  0.00  0.00    +0.000 A 
ATOM     29  N   UNL     1      45.507  33.760  44.863  0.00  0.00    +0.000 NA
ENDBRANCH  23  24
ENDBRANCH  19  21
TORSDOF 2
