REMARK  Name = 
REMARK  5 active torsions:
REMARK  status: ('A' for Active; 'I' for Inactive)
REMARK    1  A    between atoms: C_3  and  S_16
REMARK    2  A    between atoms: C_5  and  C_6
REMARK    3  A    between atoms: S_16  and  C_21
REMARK    4  A    between atoms: CA_19  and  C_23
REMARK    5  A    between atoms: C_23  and  O_25
REMARK                            x       y       z     vdW  Elec       q    Type
REMARK                         _______ _______ _______ _____ _____    ______ ____
ROOT
ATOM      1  N   UNL     1      37.430  33.784  40.016  0.00  0.00    +0.000 N 
ATOM      2  N   UNL     1      37.842  35.015  39.780  0.00  0.00    +0.000 NA
ATOM      3  C   UNL     1      39.069  35.177  40.310  0.00  0.00    +0.000 A 
ATOM      4  C   UNL     1      39.354  33.956  40.875  0.00  0.00    +0.000 A 
ATOM      5  C   UNL     1      38.298  33.058  40.686  0.00  0.00    +0.000 A 
ATOM      6  H   UNL     1      36.516  33.426  39.705  0.00  0.00    +0.000 HD
ENDROOT
BRANCH   5   7
ATOM      7  C   UNL     1      38.380  31.735  41.218  0.00  0.00    +0.000 A 
ATOM      8  N   UNL     1      39.445  31.387  41.976  0.00  0.00    +0.000 NA
ATOM      9  C   UNL     1      39.647  30.210  42.543  0.00  0.00    +0.000 A 
ATOM     10  N   UNL     1      38.775  29.207  42.414  0.00  0.00    +0.000 NA
ATOM     11  C   UNL     1      37.663  29.433  41.674  0.00  0.00    +0.000 A 
ATOM     12  C   UNL     1      36.737  28.438  41.509  0.00  0.00    +0.000 A 
ATOM     13  C   UNL     1      35.585  28.636  40.756  0.00  0.00    +0.000 A 
ATOM     14  C   UNL     1      35.431  29.900  40.181  0.00  0.00    +0.000 A 
ATOM     15  C   UNL     1      36.399  30.838  40.391  0.00  0.00    +0.000 A 
ATOM     16  C   UNL     1      37.531  30.674  41.122  0.00  0.00    +0.000 A 
ENDBRANCH   5   7
BRANCH   3  17
ATOM     17  S   UNL     1      40.197  36.561  40.389  0.00  0.00    +0.000 S 
BRANCH  17  22
ATOM     18  C   UNL     1      43.521  34.689  41.553  0.00  0.00    +0.000 A 
ATOM     19  C   UNL     1      43.897  35.364  42.706  0.00  0.00    +0.000 A 
ATOM     20  CA  UNL     1      43.119  36.425  43.153  0.00  0.00    +0.000 A 
ATOM     21  N   UNL     1      42.015  36.753  42.427  0.00  0.00    +0.000 NA
ATOM     22  C   UNL     1      41.675  36.072  41.302  0.00  0.00    +0.000 A 
ATOM     23  N   UNL     1      42.426  35.058  40.886  0.00  0.00    +0.000 NA
BRANCH  20  24
ATOM     24  C   UNL     1      43.512  37.136  44.363  0.00  0.00    +0.000 C 
ATOM     25  OXT UNL     1      44.187  38.183  44.195  0.00  0.00    +0.000 OA
BRANCH  24  26
ATOM     26  O   UNL     1      43.141  36.653  45.611  0.00  0.00    +0.000 OA
ATOM     27  H   UNL     1      43.410  37.139  46.430  0.00  0.00    +0.000 HD
ENDBRANCH  24  26
ENDBRANCH  20  24
ENDBRANCH  17  22
ENDBRANCH   3  17
TORSDOF 5
