REMARK  Name = 
REMARK  3 active torsions:
REMARK  status: ('A' for Active; 'I' for Inactive)
REMARK    1  A    between atoms: C_1  and  C_16
REMARK    2  A    between atoms: C_5  and  N_17
REMARK    3  A    between atoms: C_21  and  C_22
REMARK                            x       y       z     vdW  Elec       q    Type
REMARK                         _______ _______ _______ _____ _____    ______ ____
ROOT
ATOM      1  C   UNL     1      38.241  30.607  39.515  0.00  0.00    +0.000 C 
ATOM      2  C   UNL     1      37.656  30.672  38.082  0.00  0.00    +0.000 C 
ATOM      3  C   UNL     1      36.245  30.154  38.331  0.00  0.00    +0.000 C 
ATOM      4  C   UNL     1      36.297  29.342  39.602  0.00  0.00    +0.000 C 
ATOM      5  C   UNL     1      37.794  29.225  39.914  0.00  0.00    +0.000 C 
ENDROOT
BRANCH   1  16
ATOM      6  C   UNL     1      40.814  35.386  39.700  0.00  0.00    +0.000 A 
ATOM      7  C   UNL     1      39.536  35.854  40.059  0.00  0.00    +0.000 A 
ATOM      8  C   UNL     1      38.546  34.909  40.270  0.00  0.00    +0.000 A 
ATOM      9  N   UNL     1      38.870  33.600  40.120  0.00  0.00    +0.000 NA
ATOM     10  C   UNL     1      40.073  33.163  39.782  0.00  0.00    +0.000 A 
ATOM     11  N   UNL     1      41.057  34.070  39.570  0.00  0.00    +0.000 NA
ATOM     12  N   UNL     1      40.448  31.803  39.604  0.00  0.00    +0.000 N 
ATOM     13  N   UNL     1      41.746  31.543  39.539  0.00  0.00    +0.000 NA
ATOM     14  C   UNL     1      41.908  30.196  39.352  0.00  0.00    +0.000 A 
ATOM     15  C   UNL     1      40.615  29.678  39.311  0.00  0.00    +0.000 A 
ATOM     16  C   UNL     1      39.705  30.715  39.473  0.00  0.00    +0.000 A 
ENDBRANCH   1  16
BRANCH   5  17
ATOM     17  N   UNL     1      37.919  28.924  41.310  0.00  0.00    +0.000 N 
ATOM     18  N   UNL     1      37.610  29.715  42.343  0.00  0.00    +0.000 NA
ATOM     19  C   UNL     1      37.857  29.094  43.517  0.00  0.00    +0.000 A 
ATOM     20  C   UNL     1      38.347  27.845  43.159  0.00  0.00    +0.000 A 
ATOM     21  C   UNL     1      38.379  27.755  41.792  0.00  0.00    +0.000 A 
BRANCH  21  22
ATOM     22  C   UNL     1      38.854  26.507  41.251  0.00  0.00    +0.000 A 
ATOM     23  C   UNL     1      40.149  26.164  40.949  0.00  0.00    +0.000 A 
ATOM     24  N   UNL     1      40.307  24.918  40.472  0.00  0.00    +0.000 N 
ATOM     25  C   UNL     1      39.071  24.369  40.440  0.00  0.00    +0.000 A 
ATOM     26  C   UNL     1      38.640  23.117  40.044  0.00  0.00    +0.000 A 
ATOM     27  C   UNL     1      37.308  22.823  40.121  0.00  0.00    +0.000 A 
ATOM     28  C   UNL     1      36.399  23.734  40.579  0.00  0.00    +0.000 A 
ATOM     29  C   UNL     1      36.915  24.948  40.950  0.00  0.00    +0.000 A 
ATOM     30  C   UNL     1      38.234  25.335  40.907  0.00  0.00    +0.000 A 
ATOM     31  H   UNL     1      41.191  24.471  40.188  0.00  0.00    +0.000 HD
ENDBRANCH  21  22
ENDBRANCH   5  17
TORSDOF 3
