REMARK  Name = 
REMARK  2 active torsions:
REMARK  status: ('A' for Active; 'I' for Inactive)
REMARK    1  A    between atoms: C_1  and  C_16
REMARK    2  A    between atoms: C_9  and  C_10
REMARK                            x       y       z     vdW  Elec       q    Type
REMARK                         _______ _______ _______ _____ _____    ______ ____
ROOT
ATOM      1  C   UNL     1      37.302  29.344  39.883  0.00  0.00    +0.000 A 
ATOM      2  C   UNL     1      36.404  29.443  38.821  0.00  0.00    +0.000 A 
ATOM      3  C   UNL     1      36.552  30.326  37.767  0.00  0.00    +0.000 A 
ATOM      4  N   UNL     1      37.660  31.118  37.828  0.00  0.00    +0.000 NA
ATOM      5  C   UNL     1      38.538  31.052  38.821  0.00  0.00    +0.000 A 
ATOM      6  N   UNL     1      38.352  30.181  39.820  0.00  0.00    +0.000 NA
ATOM      7  N   UNL     1      39.630  31.957  38.710  0.00  0.00    +0.000 N 
ATOM      8  C   UNL     1      39.517  33.120  39.358  0.00  0.00    +0.000 A 
ATOM      9  C   UNL     1      40.564  34.030  39.272  0.00  0.00    +0.000 A 
ATOM     10  C   UNL     1      40.477  35.321  39.971  0.00  0.00    +0.000 C 
ATOM     11  C   UNL     1      41.685  33.726  38.535  0.00  0.00    +0.000 A 
ATOM     12  O   UNL     1      42.635  34.533  38.447  0.00  0.00    +0.000 OA
ATOM     13  N   UNL     1      41.736  32.531  37.903  0.00  0.00    +0.000 N 
ATOM     14  C   UNL     1      40.729  31.642  37.978  0.00  0.00    +0.000 A 
ATOM     15  O   UNL     1      40.773  30.528  37.392  0.00  0.00    +0.000 OA
ATOM     16  H   UNL     1      42.571  32.295  37.348  0.00  0.00    +0.000 HD
ENDROOT
BRANCH   1  17
ATOM     17  C   UNL     1      37.272  28.526  41.047  0.00  0.00    +0.000 A 
ATOM     18  C   UNL     1      37.434  29.191  42.281  0.00  0.00    +0.000 A 
ATOM     19  C   UNL     1      37.434  28.577  43.515  0.00  0.00    +0.000 A 
ATOM     20  C   UNL     1      37.264  27.207  43.565  0.00  0.00    +0.000 A 
ATOM     21  C   UNL     1      37.099  26.494  42.393  0.00  0.00    +0.000 A 
ATOM     22  C   UNL     1      36.941  25.126  42.441  0.00  0.00    +0.000 A 
ATOM     23  C   UNL     1      36.785  24.365  41.297  0.00  0.00    +0.000 A 
ATOM     24  C   UNL     1      36.799  25.078  40.104  0.00  0.00    +0.000 A 
ATOM     25  C   UNL     1      36.959  26.434  40.098  0.00  0.00    +0.000 A 
ATOM     26  C   UNL     1      37.114  27.186  41.220  0.00  0.00    +0.000 A 
ENDBRANCH   1  17
TORSDOF 1
