REMARK  Name = 
REMARK  4 active torsions:
REMARK  status: ('A' for Active; 'I' for Inactive)
REMARK    1  A    between atoms: C_1  and  C_7
REMARK    2  A    between atoms: C_5  and  C_17
REMARK    3  A    between atoms: C_17  and  C_19
REMARK    4  A    between atoms: C_24  and  N_25
REMARK                            x       y       z     vdW  Elec       q    Type
REMARK                         _______ _______ _______ _____ _____    ______ ____
ROOT
ATOM      1  C   UNL     1      40.323  31.411  38.260  0.00  0.00    +0.000 C 
ATOM      2  O   UNL     1      40.590  31.981  37.167  0.00  0.00    +0.000 OA
ENDROOT
BRANCH   1   7
ATOM      3  C   UNL     1      37.513  29.538  39.811  0.00  0.00    +0.000 A 
ATOM      4  C   UNL     1      36.527  29.861  38.868  0.00  0.00    +0.000 A 
ATOM      5  C   UNL     1      36.766  30.666  37.754  0.00  0.00    +0.000 A 
ATOM      6  N   UNL     1      38.042  31.133  37.631  0.00  0.00    +0.000 NA
ATOM      7  C   UNL     1      38.998  30.847  38.505  0.00  0.00    +0.000 A 
ATOM      8  N   UNL     1      38.727  30.075  39.552  0.00  0.00    +0.000 NA
BRANCH   3   9
ATOM      9  C   UNL     1      37.455  28.764  40.986  0.00  0.00    +0.000 A 
ATOM     10  C   UNL     1      37.625  29.469  42.190  0.00  0.00    +0.000 A 
ATOM     11  C   UNL     1      37.600  28.887  43.447  0.00  0.00    +0.000 A 
ATOM     12  C   UNL     1      37.391  27.514  43.529  0.00  0.00    +0.000 A 
ATOM     13  C   UNL     1      37.217  26.768  42.378  0.00  0.00    +0.000 A 
ATOM     14  C   UNL     1      37.010  25.421  42.441  0.00  0.00    +0.000 A 
ATOM     15  C   UNL     1      36.832  24.638  41.341  0.00  0.00    +0.000 A 
ATOM     16  C   UNL     1      36.877  25.316  40.147  0.00  0.00    +0.000 A 
ATOM     17  C   UNL     1      37.082  26.664  40.075  0.00  0.00    +0.000 A 
ATOM     18  C   UNL     1      37.259  27.434  41.182  0.00  0.00    +0.000 A 
ENDBRANCH   3   9
ENDBRANCH   1   7
BRANCH   1  19
ATOM     19  C   UNL     1      41.433  31.382  39.204  0.00  0.00    +0.000 A 
ATOM     20  C   UNL     1      42.210  30.232  39.273  0.00  0.00    +0.000 A 
ATOM     21  C   UNL     1      43.292  30.137  40.156  0.00  0.00    +0.000 A 
ATOM     22  C   UNL     1      43.616  31.200  40.991  0.00  0.00    +0.000 A 
ATOM     23  C   UNL     1      42.855  32.326  40.924  0.00  0.00    +0.000 A 
ATOM     24  C   UNL     1      41.805  32.391  40.052  0.00  0.00    +0.000 A 
BRANCH  24  25
ATOM     25  N   UNL     1      41.031  33.592  40.013  0.00  0.00    +0.000 N 
ATOM     26  C   UNL     1      39.877  33.713  40.707  0.00  0.00    +0.000 A 
ATOM     27  C   UNL     1      39.073  34.834  40.724  0.00  0.00    +0.000 A 
ATOM     28  C   UNL     1      39.522  35.890  39.957  0.00  0.00    +0.000 A 
ATOM     29  O   UNL     1      38.830  36.940  39.934  0.00  0.00    +0.000 OA
ATOM     30  N   UNL     1      40.672  35.815  39.246  0.00  0.00    +0.000 N 
ATOM     31  C   UNL     1      41.387  34.675  39.296  0.00  0.00    +0.000 A 
ATOM     32  O   UNL     1      42.447  34.650  38.620  0.00  0.00    +0.000 OA
ATOM     33  H   UNL     1      40.993  36.613  38.679  0.00  0.00    +0.000 HD
ENDBRANCH  24  25
ENDBRANCH   1  19
TORSDOF 4
