REMARK  Name = 
REMARK  3 active torsions:
REMARK  status: ('A' for Active; 'I' for Inactive)
REMARK    1  A    between atoms: C_1  and  C_19
REMARK    2  A    between atoms: C_5  and  C_7
REMARK    3  A    between atoms: N_16  and  C_21
REMARK                            x       y       z     vdW  Elec       q    Type
REMARK                         _______ _______ _______ _____ _____    ______ ____
ROOT
ATOM      1  C   UNL     1      39.922  32.993  39.304  0.00  0.00    +0.000 A 
ATOM      2  C   UNL     1      40.741  32.843  38.196  0.00  0.00    +0.000 A 
ATOM      3  C   UNL     1      41.880  33.606  38.110  0.00  0.00    +0.000 A 
ATOM      4  N   UNL     1      42.207  34.482  39.071  0.00  0.00    +0.000 NA
ATOM      5  C   UNL     1      41.414  34.625  40.143  0.00  0.00    +0.000 A 
ATOM      6  N   UNL     1      40.279  33.898  40.276  0.00  0.00    +0.000 NA
ENDROOT
BRANCH   5   7
ATOM      7  C   UNL     1      41.779  35.583  41.185  0.00  0.00    +0.000 A 
ATOM      8  C   UNL     1      41.087  36.747  41.452  0.00  0.00    +0.000 A 
ATOM      9  N   UNL     1      41.732  37.356  42.480  0.00  0.00    +0.000 N 
ATOM     10  C   UNL     1      42.794  36.611  42.853  0.00  0.00    +0.000 A 
ATOM     11  C   UNL     1      43.776  36.767  43.836  0.00  0.00    +0.000 A 
ATOM     12  C   UNL     1      44.767  35.814  43.991  0.00  0.00    +0.000 A 
ATOM     13  C   UNL     1      44.803  34.695  43.179  0.00  0.00    +0.000 A 
ATOM     14  C   UNL     1      43.837  34.540  42.212  0.00  0.00    +0.000 A 
ATOM     15  C   UNL     1      42.848  35.488  42.054  0.00  0.00    +0.000 A 
ATOM     16  H   UNL     1      41.453  38.250  42.910  0.00  0.00    +0.000 HD
ENDBRANCH   5   7
BRANCH   1  20
ATOM     17  N   UNL     1      36.952  30.944  39.305  0.00  0.00    +0.000 N 
ATOM     18  C   UNL     1      36.885  31.485  40.533  0.00  0.00    +0.000 A 
ATOM     19  N   UNL     1      37.948  32.299  40.700  0.00  0.00    +0.000 NA
ATOM     20  C   UNL     1      38.671  32.256  39.563  0.00  0.00    +0.000 A 
ATOM     21  N   UNL     1      38.037  31.412  38.715  0.00  0.00    +0.000 NA
BRANCH  17  22
ATOM     22  C   UNL     1      36.208  30.041  38.492  0.00  0.00    +0.000 A 
ATOM     23  C   UNL     1      35.162  29.227  38.992  0.00  0.00    +0.000 A 
ATOM     24  C   UNL     1      34.515  28.385  38.084  0.00  0.00    +0.000 A 
ATOM     25  N   UNL     1      34.936  28.405  36.780  0.00  0.00    +0.000 NA
ATOM     26  C   UNL     1      35.933  29.193  36.350  0.00  0.00    +0.000 A 
ATOM     27  N   UNL     1      36.581  30.019  37.195  0.00  0.00    +0.000 NA
ENDBRANCH  17  22
ENDBRANCH   1  20
TORSDOF 3
