REMARK  Name = 
REMARK  2 active torsions:
REMARK  status: ('A' for Active; 'I' for Inactive)
REMARK    1  A    between atoms: C_19  and  C_21
REMARK    2  A    between atoms: C_23  and  N_24
REMARK                            x       y       z     vdW  Elec       q    Type
REMARK                         _______ _______ _______ _____ _____    ______ ____
ROOT
ATOM      1  C   UNL     1      40.265  27.933  43.188  0.00  0.00    +0.000 A 
ATOM      2  C   UNL     1      39.431  26.990  43.782  0.00  0.00    +0.000 A 
ATOM      3  C   UNL     1      38.072  27.148  43.593  0.00  0.00    +0.000 A 
ATOM      4  N   UNL     1      37.636  28.197  42.849  0.00  0.00    +0.000 NA
ATOM      5  C   UNL     1      38.467  29.091  42.288  0.00  0.00    +0.000 A 
ATOM      6  N   UNL     1      39.798  28.973  42.449  0.00  0.00    +0.000 NA
ATOM      7  N   UNL     1      37.863  30.134  41.542  0.00  0.00    +0.000 N 
ATOM      8  C   UNL     1      36.576  30.005  41.155  0.00  0.00    +0.000 A 
ATOM      9  N   UNL     1      36.242  31.116  40.472  0.00  0.00    +0.000 NA
ATOM     10  C   UNL     1      37.276  31.950  40.409  0.00  0.00    +0.000 A 
ATOM     11  C   UNL     1      37.577  33.192  39.879  0.00  0.00    +0.000 A 
ATOM     12  N   UNL     1      38.801  33.747  40.022  0.00  0.00    +0.000 NA
ATOM     13  C   UNL     1      39.756  33.091  40.691  0.00  0.00    +0.000 A 
ATOM     14  N   UNL     1      39.501  31.873  41.226  0.00  0.00    +0.000 NA
ATOM     15  C   UNL     1      38.290  31.327  41.084  0.00  0.00    +0.000 A 
ATOM     16  N   UNL     1      41.067  33.588  40.866  0.00  0.00    +0.000 N 
ATOM     17  C   UNL     1      41.756  34.678  40.457  0.00  0.00    +0.000 A 
ATOM     18  N   UNL     1      43.006  34.634  40.906  0.00  0.00    +0.000 NA
ATOM     19  C   UNL     1      43.119  33.516  41.604  0.00  0.00    +0.000 A 
ATOM     20  N   UNL     1      41.928  32.855  41.592  0.00  0.00    +0.000 NA
ENDROOT
BRANCH  19  21
ATOM     21  C   UNL     1      44.339  33.002  42.283  0.00  0.00    +0.000 C 
ATOM     22  C   UNL     1      45.664  33.653  41.969  0.00  0.00    +0.000 C 
ATOM     23  C   UNL     1      44.977  33.844  43.356  0.00  0.00    +0.000 C 
BRANCH  23  24
ATOM     24  N   UNL     1      45.573  33.207  44.501  0.00  0.00    +0.000 NA
ATOM     25  C   UNL     1      45.590  33.977  45.699  0.00  0.00    +0.000 C 
ATOM     26  C   UNL     1      46.667  33.391  46.602  0.00  0.00    +0.000 C 
ATOM     27  O   UNL     1      47.912  33.589  46.050  0.00  0.00    +0.000 OA
ATOM     28  C   UNL     1      48.025  33.220  44.731  0.00  0.00    +0.000 C 
ATOM     29  C   UNL     1      46.797  32.546  44.168  0.00  0.00    +0.000 C 
ENDBRANCH  23  24
ENDBRANCH  19  21
TORSDOF 2
