REMARK  Name = 
REMARK  1 active torsions:
REMARK  status: ('A' for Active; 'I' for Inactive)
REMARK    1  A    between atoms: C_23  and  C_24
REMARK                            x       y       z     vdW  Elec       q    Type
REMARK                         _______ _______ _______ _____ _____    ______ ____
ROOT
ATOM      1  C   UNL     1      41.103  28.483  42.992  0.00  0.00    +0.000 A 
ATOM      2  C   UNL     1      40.579  27.355  43.673  0.00  0.00    +0.000 A 
ATOM      3  C   UNL     1      39.195  27.097  43.590  0.00  0.00    +0.000 A 
ATOM      4  N   UNL     1      38.454  27.967  42.848  0.00  0.00    +0.000 NA
ATOM      5  C   UNL     1      38.978  29.024  42.216  0.00  0.00    +0.000 A 
ATOM      6  N   UNL     1      40.295  29.302  42.274  0.00  0.00    +0.000 NA
ATOM      7  N   UNL     1      38.050  29.829  41.484  0.00  0.00    +0.000 N 
ATOM      8  C   UNL     1      36.825  29.318  41.215  0.00  0.00    +0.000 A 
ATOM      9  N   UNL     1      36.155  30.258  40.527  0.00  0.00    +0.000 NA
ATOM     10  C   UNL     1      36.901  31.346  40.346  0.00  0.00    +0.000 A 
ATOM     11  C   UNL     1      36.817  32.587  39.759  0.00  0.00    +0.000 A 
ATOM     12  N   UNL     1      37.833  33.476  39.776  0.00  0.00    +0.000 NA
ATOM     13  C   UNL     1      38.982  33.133  40.392  0.00  0.00    +0.000 A 
ATOM     14  N   UNL     1      39.110  31.933  40.978  0.00  0.00    +0.000 NA
ATOM     15  C   UNL     1      38.095  31.064  40.953  0.00  0.00    +0.000 A 
ATOM     16  N   UNL     1      40.104  34.005  40.460  0.00  0.00    +0.000 N 
ATOM     17  C   UNL     1      40.375  35.269  40.087  0.00  0.00    +0.000 A 
ATOM     18  N   UNL     1      41.639  35.584  40.407  0.00  0.00    +0.000 NA
ATOM     19  C   UNL     1      42.160  34.502  40.986  0.00  0.00    +0.000 A 
ATOM     20  N   UNL     1      41.219  33.526  41.021  0.00  0.00    +0.000 NA
ATOM     21  N   UNL     1      43.492  34.343  41.506  0.00  0.00    +0.000 N 
ATOM     22  C   UNL     1      44.210  33.337  40.947  0.00  0.00    +0.000 A 
ATOM     23  C   UNL     1      45.503  33.125  41.399  0.00  0.00    +0.000 A 
ATOM     24  C   UNL     1      46.274  32.017  40.773  0.00  0.00    +0.000 C 
ATOM     25  C   UNL     1      46.003  33.934  42.386  0.00  0.00    +0.000 A 
ATOM     26  O   UNL     1      47.171  33.712  42.767  0.00  0.00    +0.000 OA
ATOM     27  N   UNL     1      45.215  34.905  42.880  0.00  0.00    +0.000 N 
ATOM     28  C   UNL     1      43.953  35.148  42.472  0.00  0.00    +0.000 A 
ATOM     29  O   UNL     1      43.252  36.069  42.962  0.00  0.00    +0.000 OA
ATOM     30  H   UNL     1      45.602  35.505  43.622  0.00  0.00    +0.000 HD
ENDROOT
TORSDOF 0
