REMARK  Name = 
REMARK  9 active torsions:
REMARK  status: ('A' for Active; 'I' for Inactive)
REMARK    1  A    between atoms: C_1  and  N_8
REMARK    2  A    between atoms: C_2  and  C_26
REMARK    3  A    between atoms: C_5  and  O_9
REMARK    4  A    between atoms: O_9  and  C_10
REMARK    5  A    between atoms: C_13  and  C_15
REMARK    6  A    between atoms: C_20  and  N_21
REMARK    7  A    between atoms: C_26  and  C_27
REMARK    8  A    between atoms: C_26  and  C_28
REMARK    9  A    between atoms: C_26  and  C_29
REMARK                            x       y       z     vdW  Elec       q    Type
REMARK                         _______ _______ _______ _____ _____    ______ ____
ROOT
ATOM      1  C   UNL     1      37.026  31.014  40.809  0.00  0.00    +0.000 A 
ATOM      2  N   UNL     1      36.617  31.318  39.580  0.00  0.00    +0.000 NA
ATOM      3  O   UNL     1      37.283  32.333  39.129  0.00  0.00    +0.000 OA
ATOM      4  C   UNL     1      38.139  32.731  40.026  0.00  0.00    +0.000 A 
ATOM      5  N   UNL     1      37.993  31.919  41.082  0.00  0.00    +0.000 NA
ENDROOT
BRANCH   4   6
ATOM      6  C   UNL     1      39.096  33.862  39.911  0.00  0.00    +0.000 A 
ATOM      7  C   UNL     1      38.846  35.117  40.379  0.00  0.00    +0.000 A 
ATOM      8  C   UNL     1      39.770  36.137  40.247  0.00  0.00    +0.000 A 
ATOM      9  C   UNL     1      40.983  35.885  39.625  0.00  0.00    +0.000 A 
ATOM     10  C   UNL     1      41.226  34.628  39.162  0.00  0.00    +0.000 A 
ATOM     11  C   UNL     1      40.322  33.603  39.282  0.00  0.00    +0.000 A 
BRANCH  11  12
ATOM     12  N   UNL     1      40.586  32.300  38.805  0.00  0.00    +0.000 N 
ATOM     13  C   UNL     1      40.539  31.924  37.421  0.00  0.00    +0.000 C 
ATOM     14  N   UNL     1      39.504  32.373  36.776  0.00  0.00    +0.000 NA
ATOM     15  N   UNL     1      41.594  31.114  36.887  0.00  0.00    +0.000 N 
ATOM     16  H   UNL     1      39.374  32.163  35.784  0.00  0.00    +0.000 HD
ATOM     17  H   UNL     1      40.828  31.574  39.494  0.00  0.00    +0.000 HD
ATOM     18  H   UNL     1      41.577  30.834  35.896  0.00  0.00    +0.000 HD
ATOM     19  H   UNL     1      42.369  30.812  37.494  0.00  0.00    +0.000 HD
ENDBRANCH  11  12
ENDBRANCH   4   6
BRANCH   1  20
ATOM     20  O   UNL     1      36.768  30.112  41.808  0.00  0.00    +0.000 OA
BRANCH  20  25
ATOM     21  C   UNL     1      37.309  26.589  41.096  0.00  0.00    +0.000 A 
ATOM     22  C   UNL     1      38.368  26.301  41.979  0.00  0.00    +0.000 A 
ATOM     23  C   UNL     1      38.864  27.325  42.792  0.00  0.00    +0.000 A 
ATOM     24  N   UNL     1      38.279  28.563  42.677  0.00  0.00    +0.000 NA
ATOM     25  C   UNL     1      37.261  28.818  41.820  0.00  0.00    +0.000 A 
ATOM     26  N   UNL     1      36.772  27.832  41.025  0.00  0.00    +0.000 NA
ATOM     27  N   UNL     1      39.906  27.097  43.671  0.00  0.00    +0.000 N 
ATOM     28  H   UNL     1      40.258  27.863  44.262  0.00  0.00    +0.000 HD
ATOM     29  H   UNL     1      40.330  26.161  43.735  0.00  0.00    +0.000 HD
BRANCH  22  30
ATOM     30  C   UNL     1      38.851  24.928  41.966  0.00  0.00    +0.000 C 
ATOM     31  C   UNL     1      37.720  23.920  41.715  0.00  0.00    +0.000 C 
ATOM     32  C   UNL     1      39.608  24.451  43.150  0.00  0.00    +0.000 C 
ATOM     33  C   UNL     1      39.809  24.825  40.783  0.00  0.00    +0.000 C 
ENDBRANCH  22  30
BRANCH  21  34
ATOM     34  N   UNL     1      36.788  25.610  40.259  0.00  0.00    +0.000 N 
ATOM     35  H   UNL     1      36.014  25.838  39.620  0.00  0.00    +0.000 HD
ATOM     36  H   UNL     1      37.176  24.656  40.278  0.00  0.00    +0.000 HD
ENDBRANCH  21  34
ENDBRANCH  20  25
ENDBRANCH   1  20
TORSDOF 6
