REMARK  Name = 
REMARK  2 active torsions:
REMARK  status: ('A' for Active; 'I' for Inactive)
REMARK    1  A    between atoms: C_1  and  C_7
REMARK    2  A    between atoms: C_5  and  C_17
REMARK                            x       y       z     vdW  Elec       q    Type
REMARK                         _______ _______ _______ _____ _____    ______ ____
ROOT
ATOM      1  C   UNL     1      37.218  29.281  39.831  0.00  0.00    +0.000 A 
ATOM      2  C   UNL     1      36.311  29.325  38.763  0.00  0.00    +0.000 A 
ATOM      3  C   UNL     1      36.442  30.205  37.693  0.00  0.00    +0.000 A 
ATOM      4  N   UNL     1      37.515  31.028  37.745  0.00  0.00    +0.000 NA
ATOM      5  C   UNL     1      38.398  31.015  38.740  0.00  0.00    +0.000 A 
ATOM      6  N   UNL     1      38.237  30.154  39.752  0.00  0.00    +0.000 NA
ENDROOT
BRANCH   1   7
ATOM      7  C   UNL     1      37.218  28.485  41.011  0.00  0.00    +0.000 A 
ATOM      8  C   UNL     1      37.398  29.184  42.223  0.00  0.00    +0.000 A 
ATOM      9  C   UNL     1      37.428  28.587  43.477  0.00  0.00    +0.000 A 
ATOM     10  C   UNL     1      37.271  27.213  43.548  0.00  0.00    +0.000 A 
ATOM     11  C   UNL     1      37.093  26.486  42.399  0.00  0.00    +0.000 A 
ATOM     12  C   UNL     1      36.944  25.114  42.469  0.00  0.00    +0.000 A 
ATOM     13  C   UNL     1      36.770  24.323  41.347  0.00  0.00    +0.000 A 
ATOM     14  C   UNL     1      36.754  25.017  40.137  0.00  0.00    +0.000 A 
ATOM     15  C   UNL     1      36.904  26.372  40.104  0.00  0.00    +0.000 A 
ATOM     16  C   UNL     1      37.075  27.146  41.211  0.00  0.00    +0.000 A 
ENDBRANCH   1   7
BRANCH   5  17
ATOM     17  C   UNL     1      39.515  31.955  38.678  0.00  0.00    +0.000 A 
ATOM     18  C   UNL     1      40.683  31.717  37.983  0.00  0.00    +0.000 A 
ATOM     19  N   UNL     1      41.481  32.808  38.157  0.00  0.00    +0.000 N 
ATOM     20  C   UNL     1      40.837  33.700  38.933  0.00  0.00    +0.000 A 
ATOM     21  C   UNL     1      41.228  34.962  39.393  0.00  0.00    +0.000 A 
ATOM     22  C   UNL     1      40.327  35.626  40.177  0.00  0.00    +0.000 A 
ATOM     23  C   UNL     1      39.080  35.178  40.555  0.00  0.00    +0.000 A 
ATOM     24  C   UNL     1      38.713  33.919  40.084  0.00  0.00    +0.000 A 
ATOM     25  C   UNL     1      39.596  33.209  39.286  0.00  0.00    +0.000 A 
ATOM     26  H   UNL     1      42.423  32.930  37.760  0.00  0.00    +0.000 HD
ENDBRANCH   5  17
TORSDOF 2
