REMARK  Name = 
REMARK  1 active torsions:
REMARK  status: ('A' for Active; 'I' for Inactive)
REMARK    1  A    between atoms: C_1  and  C_18
REMARK                            x       y       z     vdW  Elec       q    Type
REMARK                         _______ _______ _______ _____ _____    ______ ____
ROOT
ATOM      1  C   UNL     1      37.960  29.901  40.012  0.00  0.00    +0.000 A 
ATOM      2  C   UNL     1      37.158  30.926  39.487  0.00  0.00    +0.000 A 
ATOM      3  C   UNL     1      37.552  31.731  38.427  0.00  0.00    +0.000 A 
ATOM      4  N   UNL     1      38.779  31.468  37.914  0.00  0.00    +0.000 NA
ATOM      5  C   UNL     1      39.566  30.506  38.384  0.00  0.00    +0.000 A 
ATOM      6  N   UNL     1      39.149  29.753  39.407  0.00  0.00    +0.000 NA
ATOM      7  N   UNL     1      40.831  30.341  37.747  0.00  0.00    +0.000 N 
ATOM      8  C   UNL     1      41.417  29.201  37.278  0.00  0.00    +0.000 A 
ATOM      9  N   UNL     1      42.629  29.533  36.748  0.00  0.00    +0.000 NA
ATOM     10  C   UNL     1      42.750  30.863  36.907  0.00  0.00    +0.000 A 
ATOM     11  C   UNL     1      43.810  31.696  36.533  0.00  0.00    +0.000 A 
ATOM     12  O   UNL     1      44.866  31.318  35.962  0.00  0.00    +0.000 OA
ATOM     13  N   UNL     1      43.626  32.994  36.835  0.00  0.00    +0.000 N 
ATOM     14  C   UNL     1      42.564  33.558  37.440  0.00  0.00    +0.000 A 
ATOM     15  N   UNL     1      42.534  34.960  37.684  0.00  0.00    +0.000 N 
ATOM     16  N   UNL     1      41.555  32.717  37.789  0.00  0.00    +0.000 NA
ATOM     17  C   UNL     1      41.636  31.400  37.534  0.00  0.00    +0.000 A 
ATOM     18  H   UNL     1      44.390  33.633  36.572  0.00  0.00    +0.000 HD
ATOM     19  H   UNL     1      41.718  35.385  38.147  0.00  0.00    +0.000 HD
ATOM     20  H   UNL     1      43.328  35.550  37.397  0.00  0.00    +0.000 HD
ENDROOT
BRANCH   1  21
ATOM     21  C   UNL     1      37.734  29.018  41.102  0.00  0.00    +0.000 A 
ATOM     22  C   UNL     1      37.835  29.593  42.389  0.00  0.00    +0.000 A 
ATOM     23  C   UNL     1      37.650  28.902  43.576  0.00  0.00    +0.000 A 
ATOM     24  C   UNL     1      37.343  27.552  43.507  0.00  0.00    +0.000 A 
ATOM     25  C   UNL     1      37.232  26.935  42.282  0.00  0.00    +0.000 A 
ATOM     26  C   UNL     1      36.934  25.598  42.205  0.00  0.00    +0.000 A 
ATOM     27  C   UNL     1      36.812  24.921  41.009  0.00  0.00    +0.000 A 
ATOM     28  C   UNL     1      37.018  25.707  39.871  0.00  0.00    +0.000 A 
ATOM     29  C   UNL     1      37.314  27.035  39.971  0.00  0.00    +0.000 A 
ATOM     30  C   UNL     1      37.430  27.691  41.158  0.00  0.00    +0.000 A 
ENDBRANCH   1  21
TORSDOF 1
