REMARK  Name = 
REMARK  0 active torsions:
REMARK  status: ('A' for Active; 'I' for Inactive)
REMARK                            x       y       z     vdW  Elec       q    Type
REMARK                         _______ _______ _______ _____ _____    ______ ____
ROOT
ATOM      1  C   UNL     1      41.318  28.096  43.258  0.00  0.00    +0.000 A 
ATOM      2  C   UNL     1      40.888  26.959  43.993  0.00  0.00    +0.000 A 
ATOM      3  C   UNL     1      39.527  26.667  43.998  0.00  0.00    +0.000 A 
ATOM      4  N   UNL     1      38.681  27.485  43.297  0.00  0.00    +0.000 NA
ATOM      5  C   UNL     1      39.126  28.548  42.616  0.00  0.00    +0.000 A 
ATOM      6  N   UNL     1      40.443  28.868  42.585  0.00  0.00    +0.000 NA
ATOM      7  N   UNL     1      38.113  29.298  41.939  0.00  0.00    +0.000 N 
ATOM      8  C   UNL     1      36.892  28.756  41.796  0.00  0.00    +0.000 A 
ATOM      9  N   UNL     1      36.128  29.647  41.135  0.00  0.00    +0.000 NA
ATOM     10  C   UNL     1      36.830  30.747  40.851  0.00  0.00    +0.000 A 
ATOM     11  C   UNL     1      36.663  31.959  40.235  0.00  0.00    +0.000 A 
ATOM     12  N   UNL     1      37.647  32.874  40.128  0.00  0.00    +0.000 NA
ATOM     13  C   UNL     1      38.865  32.580  40.658  0.00  0.00    +0.000 A 
ATOM     14  N   UNL     1      39.065  31.402  41.270  0.00  0.00    +0.000 NA
ATOM     15  C   UNL     1      38.087  30.514  41.366  0.00  0.00    +0.000 A 
ATOM     16  N   UNL     1      39.962  33.480  40.594  0.00  0.00    +0.000 N 
ATOM     17  C   UNL     1      40.170  34.727  40.129  0.00  0.00    +0.000 A 
ATOM     18  N   UNL     1      41.446  35.084  40.344  0.00  0.00    +0.000 NA
ATOM     19  C   UNL     1      42.033  34.055  40.945  0.00  0.00    +0.000 A 
ATOM     20  N   UNL     1      41.123  33.064  41.102  0.00  0.00    +0.000 NA
ATOM     21  N   UNL     1      43.408  33.982  41.370  0.00  0.00    +0.000 N 
ATOM     22  C   UNL     1      44.195  32.994  40.879  0.00  0.00    +0.000 A 
ATOM     23  C   UNL     1      45.506  32.961  41.311  0.00  0.00    +0.000 A 
ATOM     24  C   UNL     1      45.958  33.904  42.200  0.00  0.00    +0.000 A 
ATOM     25  N   UNL     1      47.323  33.772  42.575  0.00  0.00    +0.000 N 
ATOM     26  N   UNL     1      45.148  34.866  42.663  0.00  0.00    +0.000 NA
ATOM     27  C   UNL     1      43.869  34.908  42.248  0.00  0.00    +0.000 A 
ATOM     28  O   UNL     1      43.054  35.785  42.642  0.00  0.00    +0.000 OA
ATOM     29  H   UNL     1      47.742  34.439  43.239  0.00  0.00    +0.000 HD
ATOM     30  H   UNL     1      47.893  33.009  42.183  0.00  0.00    +0.000 HD
ENDROOT
TORSDOF 0
