REMARK  Name = 
REMARK  3 active torsions:
REMARK  status: ('A' for Active; 'I' for Inactive)
REMARK    1  A    between atoms: C_3  and  S_16
REMARK    2  A    between atoms: C_5  and  C_6
REMARK    3  A    between atoms: S_16  and  C_21
REMARK                            x       y       z     vdW  Elec       q    Type
REMARK                         _______ _______ _______ _____ _____    ______ ____
ROOT
ATOM      1  N   UNL     1      38.496  33.715  40.891  0.00  0.00    +0.000 N 
ATOM      2  N   UNL     1      39.273  34.535  40.207  0.00  0.00    +0.000 NA
ATOM      3  C   UNL     1      40.299  33.837  39.685  0.00  0.00    +0.000 A 
ATOM      4  C   UNL     1      40.074  32.547  40.106  0.00  0.00    +0.000 A 
ATOM      5  C   UNL     1      38.914  32.469  40.882  0.00  0.00    +0.000 A 
ATOM      6  H   UNL     1      37.645  34.022  41.384  0.00  0.00    +0.000 HD
ENDROOT
BRANCH   5   7
ATOM      7  C   UNL     1      38.505  31.218  41.441  0.00  0.00    +0.000 A 
ATOM      8  N   UNL     1      39.236  30.671  42.441  0.00  0.00    +0.000 NA
ATOM      9  C   UNL     1      38.975  29.538  43.063  0.00  0.00    +0.000 A 
ATOM     10  N   UNL     1      37.912  28.788  42.746  0.00  0.00    +0.000 NA
ATOM     11  C   UNL     1      37.104  29.232  41.758  0.00  0.00    +0.000 A 
ATOM     12  C   UNL     1      36.002  28.500  41.399  0.00  0.00    +0.000 A 
ATOM     13  C   UNL     1      35.147  28.925  40.386  0.00  0.00    +0.000 A 
ATOM     14  C   UNL     1      35.480  30.135  39.762  0.00  0.00    +0.000 A 
ATOM     15  C   UNL     1      36.600  30.810  40.179  0.00  0.00    +0.000 A 
ATOM     16  C   UNL     1      37.446  30.415  41.165  0.00  0.00    +0.000 A 
ENDBRANCH   5   7
BRANCH   3  17
ATOM     17  S   UNL     1      41.709  34.299  38.689  0.00  0.00    +0.000 S 
BRANCH  17  22
ATOM     18  C   UNL     1      45.434  34.212  40.103  0.00  0.00    +0.000 A 
ATOM     19  C   UNL     1      45.315  34.728  41.392  0.00  0.00    +0.000 A 
ATOM     20  C   UNL     1      44.068  35.113  41.846  0.00  0.00    +0.000 A 
ATOM     21  N   UNL     1      43.017  34.964  40.995  0.00  0.00    +0.000 NA
ATOM     22  C   UNL     1      43.158  34.460  39.744  0.00  0.00    +0.000 A 
ATOM     23  N   UNL     1      44.358  34.099  39.335  0.00  0.00    +0.000 NA
ATOM     24  N   UNL     1      43.852  35.643  43.127  0.00  0.00    +0.000 N 
ATOM     25  C   UNL     1      44.675  35.288  44.264  0.00  0.00    +0.000 C 
ATOM     26  C   UNL     1      44.629  36.504  45.197  0.00  0.00    +0.000 C 
ATOM     27  C   UNL     1      44.767  37.761  44.340  0.00  0.00    +0.000 C 
ATOM     28  C   UNL     1      43.416  37.939  43.640  0.00  0.00    +0.000 C 
ATOM     29  C   UNL     1      42.775  36.584  43.366  0.00  0.00    +0.000 C 
ENDBRANCH  17  22
ENDBRANCH   3  17
TORSDOF 3
