REMARK  Name = 
REMARK  0 active torsions:
REMARK  status: ('A' for Active; 'I' for Inactive)
REMARK                            x       y       z     vdW  Elec       q    Type
REMARK                         _______ _______ _______ _____ _____    ______ ____
ROOT
ATOM      1  C   UNL     1      40.496  29.353  42.450  0.00  0.00    +0.000 A 
ATOM      2  C   UNL     1      39.328  28.604  42.774  0.00  0.00    +0.000 A 
ATOM      3  C   UNL     1      38.073  29.155  42.463  0.00  0.00    +0.000 A 
ATOM      4  N   UNL     1      38.061  30.388  41.864  0.00  0.00    +0.000 NA
ATOM      5  C   UNL     1      39.177  31.074  41.570  0.00  0.00    +0.000 A 
ATOM      6  N   UNL     1      40.396  30.557  41.862  0.00  0.00    +0.000 NA
ATOM      7  N   UNL     1      38.955  32.342  40.947  0.00  0.00    +0.000 N 
ATOM      8  C   UNL     1      37.748  32.594  40.421  0.00  0.00    +0.000 A 
ATOM      9  N   UNL     1      37.788  33.842  39.898  0.00  0.00    +0.000 NA
ATOM     10  C   UNL     1      39.013  34.386  40.087  0.00  0.00    +0.000 A 
ATOM     11  C   UNL     1      39.682  35.560  39.812  0.00  0.00    +0.000 A 
ATOM     12  N   UNL     1      40.978  35.739  40.183  0.00  0.00    +0.000 NA
ATOM     13  C   UNL     1      41.631  34.744  40.836  0.00  0.00    +0.000 A 
ATOM     14  N   UNL     1      40.998  33.591  41.115  0.00  0.00    +0.000 NA
ATOM     15  C   UNL     1      39.732  33.420  40.751  0.00  0.00    +0.000 A 
ATOM     16  N   UNL     1      43.001  34.921  41.234  0.00  0.00    +0.000 N 
ATOM     17  C   UNL     1      44.045  34.330  40.637  0.00  0.00    +0.000 A 
ATOM     18  N   UNL     1      45.172  34.727  41.278  0.00  0.00    +0.000 NA
ATOM     19  C   UNL     1      44.802  35.571  42.275  0.00  0.00    +0.000 A 
ATOM     20  C   UNL     1      45.602  36.225  43.192  0.00  0.00    +0.000 A 
ATOM     21  N   UNL     1      44.939  37.008  44.077  0.00  0.00    +0.000 NA
ATOM     22  C   UNL     1      43.601  37.133  44.057  0.00  0.00    +0.000 A 
ATOM     23  N   UNL     1      42.814  36.486  43.152  0.00  0.00    +0.000 NA
ATOM     24  C   UNL     1      43.424  35.683  42.235  0.00  0.00    +0.000 A 
ENDROOT
TORSDOF 0
