
 OpenBabel03242509203D

 36 42  0  0  0  0  0  0  0  0999 V2000
   65.8640   57.8340   32.2630 C   0  0  0  0  0  0  0  0  0  0  0  0
   64.6360   58.4990   32.1520 C   0  0  0  0  0  3  0  0  0  0  0  0
   64.0350   58.3970   30.9090 C   0  0  0  0  0  3  0  0  0  0  0  0
   64.6490   57.6920   29.9280 C   0  0  0  0  0  0  0  0  0  0  0  0
   66.1430   57.0820   30.6180 S   0  0  0  0  0  0  0  0  0  0  0  0
   68.4350   57.0150   34.8190 C   0  0  0  0  0  3  0  0  0  0  0  0
   68.1060   57.8710   35.8780 C   0  0  0  0  0  3  0  0  0  0  0  0
   67.0330   58.6960   35.6990 C   0  0  0  0  0  0  0  0  0  0  0  0
   66.3520   58.6350   34.5080 N   0  0  0  0  0  0  0  0  0  0  0  0
   66.6910   57.8080   33.5200 C   0  0  0  0  0  0  0  0  0  0  0  0
   67.7330   56.9980   33.6740 N   0  0  0  0  0  0  0  0  0  0  0  0
   66.6620   59.5880   36.7590 N   0  0  0  0  0  0  0  0  0  0  0  0
   67.5920   60.3220   37.4400 C   0  0  0  0  0  3  0  0  0  0  0  0
   66.9440   61.0620   38.3690 N   0  0  0  0  0  0  0  0  0  0  0  0
   65.6500   60.8100   38.2870 C   0  0  0  0  0  0  0  0  0  0  0  0
   64.4710   61.2070   38.9260 C   0  0  0  0  0  3  0  0  0  0  0  0
   63.2500   60.7570   38.5710 N   0  0  0  0  0  0  0  0  0  0  0  0
   63.1390   59.8570   37.5750 C   0  0  0  0  0  2  0  0  0  0  0  0
   64.2330   59.4220   36.9320 N   0  0  0  0  0  0  0  0  0  0  0  0
   65.4570   59.8850   37.2760 C   0  0  0  0  0  0  0  0  0  0  0  0
   64.1400   58.7320   36.1730 H   0  0  0  0  0  0  0  0  0  0  0  0
   64.2150   57.4550   28.5790 C   0  0  0  0  0  0  0  0  0  0  0  0
   64.9990   57.2630   27.4850 C   0  0  0  0  0  3  0  0  0  0  0  0
   64.1530   57.0710   26.3930 C   0  0  0  0  0  3  0  0  0  0  0  0
   62.8940   57.1540   26.8800 N   0  0  0  0  0  0  0  0  0  0  0  0
   62.9290   57.3860   28.1920 N   0  0  0  0  0  0  0  0  0  0  0  0
   61.7560   57.0050   26.0380 C   0  0  0  0  0  0  0  0  0  0  0  0
   61.0830   55.7840   26.0270 C   0  0  0  0  0  3  0  0  0  0  0  0
   60.0460   55.8770   25.1610 N   0  0  0  0  0  0  0  0  0  0  0  0
   60.0270   57.1170   24.6150 C   0  0  0  0  0  0  0  0  0  0  0  0
   59.2180   57.7440   23.7010 C   0  0  0  0  0  3  0  0  0  0  0  0
   59.4970   59.0560   23.3600 C   0  0  0  0  0  3  0  0  0  0  0  0
   60.5620   59.7440   23.9120 C   0  0  0  0  0  3  0  0  0  0  0  0
   61.3900   59.1090   24.8440 C   0  0  0  0  0  3  0  0  0  0  0  0
   61.0830   57.8090   25.1580 C   0  0  0  0  0  0  0  0  0  0  0  0
   59.3760   55.1240   24.9500 H   0  0  0  0  0  0  0  0  0  0  0  0
  1 10  1  0  0  0  0
  2  1  2  0  0  0  0
  3  2  1  0  0  0  0
  4  5  1  0  0  0  0
  4  3  2  0  0  0  0
  5  1  1  0  0  0  0
  6  7  1  0  0  0  0
  8  7  2  0  0  0  0
  8 12  1  0  0  0  0
  9  8  1  0  0  0  0
 10 11  1  0  0  0  0
 10  9  2  0  0  0  0
 11  6  2  0  0  0  0
 12 20  1  0  0  0  0
 12 13  1  0  0  0  0
 13 14  2  0  0  0  0
 15 14  1  0  0  0  0
 15 16  1  0  0  0  0
 17 16  2  0  0  0  0
 18 17  1  0  0  0  0
 19 20  1  0  0  0  0
 19 18  1  0  0  0  0
 20 15  2  0  0  0  0
 21 19  1  0  0  0  0
 22  4  1  0  0  0  0
 23 22  1  0  0  0  0
 24 25  1  0  0  0  0
 24 23  2  0  0  0  0
 25 26  1  0  0  0  0
 26 22  2  0  0  0  0
 27 25  1  0  0  0  0
 28 27  2  0  0  0  0
 29 28  1  0  0  0  0
 30 35  1  0  0  0  0
 30 29  1  0  0  0  0
 31 30  2  0  0  0  0
 32 31  1  0  0  0  0
 32 33  2  0  0  0  0
 33 34  1  0  0  0  0
 34 35  2  0  0  0  0
 35 27  1  0  0  0  0
 36 29  1  0  0  0  0
M  END
>  <minimizedAffinity>
-8.26088047

$$$$

 OpenBabel03242509203D

 36 42  0  0  0  0  0  0  0  0999 V2000
   66.0260   57.6540   32.2400 C   0  0  0  0  0  0  0  0  0  0  0  0
   64.7590   58.2500   32.1960 C   0  0  0  0  0  3  0  0  0  0  0  0
   64.1300   58.1820   30.9650 C   0  0  0  0  0  3  0  0  0  0  0  0
   64.7560   57.5670   29.9310 C   0  0  0  0  0  0  0  0  0  0  0  0
   66.3010   57.0090   30.5490 S   0  0  0  0  0  0  0  0  0  0  0  0
   67.2280   57.8100   35.7540 C   0  0  0  0  0  3  0  0  0  0  0  0
   68.5860   57.4900   35.6330 C   0  0  0  0  0  3  0  0  0  0  0  0
   69.0540   57.2320   34.3770 C   0  0  0  0  0  0  0  0  0  0  0  0
   68.1750   57.3010   33.3240 N   0  0  0  0  0  0  0  0  0  0  0  0
   66.8870   57.6080   33.4730 C   0  0  0  0  0  0  0  0  0  0  0  0
   66.4120   57.8620   34.6880 N   0  0  0  0  0  0  0  0  0  0  0  0
   70.4400   56.9020   34.2090 N   0  0  0  0  0  0  0  0  0  0  0  0
   70.9430   55.6930   34.5980 C   0  0  0  0  0  3  0  0  0  0  0  0
   72.2650   55.6770   34.3120 N   0  0  0  0  0  0  0  0  0  0  0  0
   72.5960   56.8310   33.7620 C   0  0  0  0  0  0  0  0  0  0  0  0
   73.7430   57.4540   33.2610 C   0  0  0  0  0  3  0  0  0  0  0  0
   73.7390   58.6900   32.7230 N   0  0  0  0  0  0  0  0  0  0  0  0
   72.5900   59.3920   32.6840 C   0  0  0  0  0  2  0  0  0  0  0  0
   71.4560   58.8600   33.1650 N   0  0  0  0  0  0  0  0  0  0  0  0
   71.4550   57.6120   33.6890 C   0  0  0  0  0  0  0  0  0  0  0  0
   70.5810   59.4030   33.1330 H   0  0  0  0  0  0  0  0  0  0  0  0
   64.3000   57.3790   28.5810 C   0  0  0  0  0  0  0  0  0  0  0  0
   65.0650   57.2360   27.4670 C   0  0  0  0  0  3  0  0  0  0  0  0
   64.2010   57.0790   26.3840 C   0  0  0  0  0  3  0  0  0  0  0  0
   62.9500   57.1330   26.8970 N   0  0  0  0  0  0  0  0  0  0  0  0
   63.0070   57.3150   28.2160 N   0  0  0  0  0  0  0  0  0  0  0  0
   61.7980   57.0070   26.0700 C   0  0  0  0  0  0  0  0  0  0  0  0
   61.1080   55.7950   26.0570 C   0  0  0  0  0  3  0  0  0  0  0  0
   60.0610   55.9110   25.2070 N   0  0  0  0  0  0  0  0  0  0  0  0
   60.0500   57.1560   24.6730 C   0  0  0  0  0  0  0  0  0  0  0  0
   59.2360   57.8030   23.7780 C   0  0  0  0  0  3  0  0  0  0  0  0
   59.5280   59.1140   23.4450 C   0  0  0  0  0  3  0  0  0  0  0  0
   60.6100   59.7830   23.9880 C   0  0  0  0  0  3  0  0  0  0  0  0
   61.4430   59.1280   24.9020 C   0  0  0  0  0  3  0  0  0  0  0  0
   61.1230   57.8280   25.2070 C   0  0  0  0  0  0  0  0  0  0  0  0
   59.3780   55.1680   24.9990 H   0  0  0  0  0  0  0  0  0  0  0  0
  1 10  1  0  0  0  0
  2  1  2  0  0  0  0
  3  2  1  0  0  0  0
  4  5  1  0  0  0  0
  4  3  2  0  0  0  0
  5  1  1  0  0  0  0
  7  6  1  0  0  0  0
  8  7  2  0  0  0  0
  9 10  2  0  0  0  0
  9  8  1  0  0  0  0
 10 11  1  0  0  0  0
 11  6  2  0  0  0  0
 12  8  1  0  0  0  0
 12 13  1  0  0  0  0
 14 13  2  0  0  0  0
 15 14  1  0  0  0  0
 16 15  1  0  0  0  0
 17 16  2  0  0  0  0
 18 17  1  0  0  0  0
 18 19  1  0  0  0  0
 19 20  1  0  0  0  0
 20 15  2  0  0  0  0
 20 12  1  0  0  0  0
 21 19  1  0  0  0  0
 22  4  1  0  0  0  0
 23 22  1  0  0  0  0
 24 25  1  0  0  0  0
 24 23  2  0  0  0  0
 25 26  1  0  0  0  0
 26 22  2  0  0  0  0
 27 25  1  0  0  0  0
 28 27  2  0  0  0  0
 29 28  1  0  0  0  0
 30 35  1  0  0  0  0
 30 29  1  0  0  0  0
 31 30  2  0  0  0  0
 32 31  1  0  0  0  0
 32 33  2  0  0  0  0
 33 34  1  0  0  0  0
 34 35  2  0  0  0  0
 35 27  1  0  0  0  0
 36 29  1  0  0  0  0
M  END
>  <minimizedAffinity>
-8.13025093

$$$$

 OpenBabel03242509203D

 36 42  0  0  0  0  0  0  0  0999 V2000
   62.8070   57.2570   27.2520 C   0  0  0  0  0  0  0  0  0  0  0  0
   64.1670   57.1360   26.9430 C   0  0  0  0  0  3  0  0  0  0  0  0
   65.0190   57.2480   28.0290 C   0  0  0  0  0  3  0  0  0  0  0  0
   64.5000   57.4570   29.2640 C   0  0  0  0  0  0  0  0  0  0  0  0
   62.7570   57.5240   29.0630 S   0  0  0  0  0  0  0  0  0  0  0  0
   60.4000   56.0080   24.7110 C   0  0  0  0  0  3  0  0  0  0  0  0
   59.6670   57.1570   24.3840 C   0  0  0  0  0  3  0  0  0  0  0  0
   60.0040   58.3120   25.0280 C   0  0  0  0  0  0  0  0  0  0  0  0
   61.0270   58.2760   25.9440 N   0  0  0  0  0  0  0  0  0  0  0  0
   61.7050   57.1660   26.2320 C   0  0  0  0  0  0  0  0  0  0  0  0
   61.3920   56.0310   25.6160 N   0  0  0  0  0  0  0  0  0  0  0  0
   59.2790   59.5120   24.7230 N   0  0  0  0  0  0  0  0  0  0  0  0
   58.6880   59.7040   23.5060 C   0  0  0  0  0  3  0  0  0  0  0  0
   58.0850   60.9160   23.5200 N   0  0  0  0  0  0  0  0  0  0  0  0
   58.2840   61.4770   24.6990 C   0  0  0  0  0  0  0  0  0  0  0  0
   57.9610   62.6710   25.3500 C   0  0  0  0  0  3  0  0  0  0  0  0
   58.3150   62.9390   26.6230 N   0  0  0  0  0  0  0  0  0  0  0  0
   59.0440   62.0410   27.3110 C   0  0  0  0  0  2  0  0  0  0  0  0
   59.4030   60.8810   26.7390 N   0  0  0  0  0  0  0  0  0  0  0  0
   59.0340   60.6030   25.4680 C   0  0  0  0  0  0  0  0  0  0  0  0
   59.9630   60.1990   27.2720 H   0  0  0  0  0  0  0  0  0  0  0  0
   65.1840   57.6030   30.5190 C   0  0  0  0  0  0  0  0  0  0  0  0
   64.6520   58.0060   31.7030 C   0  0  0  0  0  3  0  0  0  0  0  0
   65.6800   57.9980   32.6460 C   0  0  0  0  0  3  0  0  0  0  0  0
   66.7860   57.5870   31.9860 N   0  0  0  0  0  0  0  0  0  0  0  0
   66.4910   57.3500   30.7080 N   0  0  0  0  0  0  0  0  0  0  0  0
   68.0430   57.4580   32.6430 C   0  0  0  0  0  0  0  0  0  0  0  0
   69.0330   58.4080   32.3940 C   0  0  0  0  0  3  0  0  0  0  0  0
   70.1270   58.0820   33.1220 N   0  0  0  0  0  0  0  0  0  0  0  0
   69.8760   56.9580   33.8330 C   0  0  0  0  0  0  0  0  0  0  0  0
   70.6090   56.2030   34.7140 C   0  0  0  0  0  3  0  0  0  0  0  0
   70.0220   55.0800   35.2720 C   0  0  0  0  0  3  0  0  0  0  0  0
   68.7270   54.7040   34.9660 C   0  0  0  0  0  3  0  0  0  0  0  0
   67.9750   55.4700   34.0680 C   0  0  0  0  0  3  0  0  0  0  0  0
   68.5900   56.5750   33.5350 C   0  0  0  0  0  0  0  0  0  0  0  0
   71.0130   58.6090   33.1330 H   0  0  0  0  0  0  0  0  0  0  0  0
  1  5  1  0  0  0  0
  2  1  2  0  0  0  0
  2  3  1  0  0  0  0
  3  4  2  0  0  0  0
  4 22  1  0  0  0  0
  5  4  1  0  0  0  0
  6 11  2  0  0  0  0
  7  6  1  0  0  0  0
  7  8  2  0  0  0  0
  8  9  1  0  0  0  0
  9 10  2  0  0  0  0
 10  1  1  0  0  0  0
 11 10  1  0  0  0  0
 12  8  1  0  0  0  0
 12 20  1  0  0  0  0
 13 14  2  0  0  0  0
 13 12  1  0  0  0  0
 14 15  1  0  0  0  0
 15 16  1  0  0  0  0
 15 20  2  0  0  0  0
 16 17  2  0  0  0  0
 17 18  1  0  0  0  0
 19 21  1  0  0  0  0
 19 18  1  0  0  0  0
 20 19  1  0  0  0  0
 22 26  2  0  0  0  0
 22 23  1  0  0  0  0
 23 24  2  0  0  0  0
 25 27  1  0  0  0  0
 25 24  1  0  0  0  0
 26 25  1  0  0  0  0
 27 35  1  0  0  0  0
 28 27  2  0  0  0  0
 28 29  1  0  0  0  0
 29 36  1  0  0  0  0
 29 30  1  0  0  0  0
 30 31  1  0  0  0  0
 31 32  2  0  0  0  0
 33 32  1  0  0  0  0
 34 33  2  0  0  0  0
 35 30  2  0  0  0  0
 35 34  1  0  0  0  0
M  END
>  <minimizedAffinity>
-7.89495325

$$$$

 OpenBabel03242509203D

 36 42  0  0  0  0  0  0  0  0999 V2000
   64.7880   57.5520   29.7250 C   0  0  0  0  0  0  0  0  0  0  0  0
   63.9210   58.2660   30.5600 C   0  0  0  0  0  3  0  0  0  0  0  0
   64.3550   58.3970   31.8690 C   0  0  0  0  0  3  0  0  0  0  0  0
   65.5400   57.8480   32.2350 C   0  0  0  0  0  0  0  0  0  0  0  0
   66.1940   57.0810   30.7980 S   0  0  0  0  0  0  0  0  0  0  0  0
   65.1920   56.7920   26.1090 C   0  0  0  0  0  3  0  0  0  0  0  0
   63.8760   56.8370   25.6320 C   0  0  0  0  0  3  0  0  0  0  0  0
   62.8960   57.1210   26.5390 C   0  0  0  0  0  0  0  0  0  0  0  0
   63.2570   57.3410   27.8460 N   0  0  0  0  0  0  0  0  0  0  0  0
   64.5200   57.2900   28.2680 C   0  0  0  0  0  0  0  0  0  0  0  0
   65.4890   57.0150   27.4010 N   0  0  0  0  0  0  0  0  0  0  0  0
   61.5340   57.1780   26.0920 N   0  0  0  0  0  0  0  0  0  0  0  0
   60.9370   56.1180   25.4700 C   0  0  0  0  0  3  0  0  0  0  0  0
   59.6650   56.4700   25.1710 N   0  0  0  0  0  0  0  0  0  0  0  0
   59.4570   57.7070   25.5850 C   0  0  0  0  0  0  0  0  0  0  0  0
   58.4180   58.6430   25.5840 C   0  0  0  0  0  3  0  0  0  0  0  0
   58.5280   59.8700   26.1320 N   0  0  0  0  0  0  0  0  0  0  0  0
   59.6960   60.2480   26.6840 C   0  0  0  0  0  2  0  0  0  0  0  0
   60.7400   59.4040   26.7020 N   0  0  0  0  0  0  0  0  0  0  0  0
   60.6260   58.1650   26.1680 C   0  0  0  0  0  0  0  0  0  0  0  0
   61.6310   59.7000   27.1240 H   0  0  0  0  0  0  0  0  0  0  0  0
   66.1810   57.8580   33.5200 C   0  0  0  0  0  0  0  0  0  0  0  0
   65.6770   58.3390   34.6870 C   0  0  0  0  0  3  0  0  0  0  0  0
   66.6430   58.1390   35.6740 C   0  0  0  0  0  3  0  0  0  0  0  0
   67.6870   57.5430   35.0540 N   0  0  0  0  0  0  0  0  0  0  0  0
   67.4130   57.3750   33.7610 N   0  0  0  0  0  0  0  0  0  0  0  0
   68.8700   57.1860   35.7630 C   0  0  0  0  0  0  0  0  0  0  0  0
   69.8870   58.1310   35.8940 C   0  0  0  0  0  3  0  0  0  0  0  0
   70.8990   57.5710   36.5970 N   0  0  0  0  0  0  0  0  0  0  0  0
   70.5690   56.3000   36.9270 C   0  0  0  0  0  0  0  0  0  0  0  0
   71.2030   55.2980   37.6170 C   0  0  0  0  0  3  0  0  0  0  0  0
   70.5550   54.0840   37.7680 C   0  0  0  0  0  3  0  0  0  0  0  0
   69.2950   53.8580   37.2450 C   0  0  0  0  0  3  0  0  0  0  0  0
   68.6440   54.8770   36.5400 C   0  0  0  0  0  3  0  0  0  0  0  0
   69.3170   56.0660   36.4100 C   0  0  0  0  0  0  0  0  0  0  0  0
   71.7830   58.0400   36.8450 H   0  0  0  0  0  0  0  0  0  0  0  0
  1  2  2  0  0  0  0
  1  5  1  0  0  0  0
  2  3  1  0  0  0  0
  3  4  2  0  0  0  0
  4 22  1  0  0  0  0
  5  4  1  0  0  0  0
  6 11  2  0  0  0  0
  7  6  1  0  0  0  0
  7  8  2  0  0  0  0
  8  9  1  0  0  0  0
  9 10  2  0  0  0  0
 10  1  1  0  0  0  0
 11 10  1  0  0  0  0
 12 20  1  0  0  0  0
 12  8  1  0  0  0  0
 13 12  1  0  0  0  0
 14 13  2  0  0  0  0
 14 15  1  0  0  0  0
 15 20  2  0  0  0  0
 16 15  1  0  0  0  0
 16 17  2  0  0  0  0
 17 18  1  0  0  0  0
 18 19  1  0  0  0  0
 19 21  1  0  0  0  0
 20 19  1  0  0  0  0
 22 26  2  0  0  0  0
 22 23  1  0  0  0  0
 23 24  2  0  0  0  0
 25 24  1  0  0  0  0
 25 27  1  0  0  0  0
 26 25  1  0  0  0  0
 27 28  2  0  0  0  0
 27 35  1  0  0  0  0
 28 29  1  0  0  0  0
 29 36  1  0  0  0  0
 29 30  1  0  0  0  0
 30 31  1  0  0  0  0
 31 32  2  0  0  0  0
 33 32  1  0  0  0  0
 34 33  2  0  0  0  0
 35 34  1  0  0  0  0
 35 30  2  0  0  0  0
M  END
>  <minimizedAffinity>
-7.83839464

$$$$

 OpenBabel03242509203D

 36 42  0  0  0  0  0  0  0  0999 V2000
   65.8480   58.4460   30.8830 C   0  0  0  0  0  0  0  0  0  0  0  0
   64.5790   58.9490   31.1970 C   0  0  0  0  0  3  0  0  0  0  0  0
   63.5540   58.4740   30.3960 C   0  0  0  0  0  3  0  0  0  0  0  0
   63.8380   57.5930   29.4050 C   0  0  0  0  0  0  0  0  0  0  0  0
   65.5700   57.3170   29.4690 S   0  0  0  0  0  0  0  0  0  0  0  0
   68.7270   60.3330   32.2830 C   0  0  0  0  0  3  0  0  0  0  0  0
   69.4120   59.3570   33.0180 C   0  0  0  0  0  3  0  0  0  0  0  0
   68.8840   58.0980   33.0210 C   0  0  0  0  0  0  0  0  0  0  0  0
   67.7310   57.8710   32.3120 N   0  0  0  0  0  0  0  0  0  0  0  0
   67.1030   58.8220   31.6210 C   0  0  0  0  0  0  0  0  0  0  0  0
   67.6000   60.0540   31.6060 N   0  0  0  0  0  0  0  0  0  0  0  0
   69.5540   57.0680   33.7610 N   0  0  0  0  0  0  0  0  0  0  0  0
   70.8810   56.7980   33.5770 C   0  0  0  0  0  3  0  0  0  0  0  0
   71.2220   55.7870   34.4090 N   0  0  0  0  0  0  0  0  0  0  0  0
   70.1560   55.4240   35.0980 C   0  0  0  0  0  0  0  0  0  0  0  0
   69.8200   54.4830   36.0760 C   0  0  0  0  0  3  0  0  0  0  0  0
   68.5870   54.3810   36.6130 N   0  0  0  0  0  0  0  0  0  0  0  0
   67.6060   55.1940   36.1780 C   0  0  0  0  0  2  0  0  0  0  0  0
   67.8570   56.1090   35.2290 N   0  0  0  0  0  0  0  0  0  0  0  0
   69.0980   56.2240   34.7020 C   0  0  0  0  0  0  0  0  0  0  0  0
   67.1000   56.7260   34.9000 H   0  0  0  0  0  0  0  0  0  0  0  0
   62.9460   56.9750   28.4630 C   0  0  0  0  0  0  0  0  0  0  0  0
   62.5520   55.6750   28.4340 C   0  0  0  0  0  3  0  0  0  0  0  0
   61.6850   55.5250   27.3520 C   0  0  0  0  0  3  0  0  0  0  0  0
   61.5950   56.7450   26.7770 N   0  0  0  0  0  0  0  0  0  0  0  0
   62.3520   57.6180   27.4410 N   0  0  0  0  0  0  0  0  0  0  0  0
   60.7850   56.9710   25.6280 C   0  0  0  0  0  0  0  0  0  0  0  0
   60.2890   55.8720   24.9270 C   0  0  0  0  0  3  0  0  0  0  0  0
   59.5550   56.3280   23.8850 N   0  0  0  0  0  0  0  0  0  0  0  0
   59.5580   57.6820   23.8910 C   0  0  0  0  0  0  0  0  0  0  0  0
   58.9920   58.6400   23.0880 C   0  0  0  0  0  3  0  0  0  0  0  0
   59.2090   59.9730   23.3940 C   0  0  0  0  0  3  0  0  0  0  0  0
   59.9750   60.3590   24.4780 C   0  0  0  0  0  3  0  0  0  0  0  0
   60.5540   59.3850   25.3000 C   0  0  0  0  0  3  0  0  0  0  0  0
   60.3180   58.0750   24.9660 C   0  0  0  0  0  0  0  0  0  0  0  0
   59.0690   55.7360   23.1960 H   0  0  0  0  0  0  0  0  0  0  0  0
  1  2  2  0  0  0  0
  1 10  1  0  0  0  0
  3  2  1  0  0  0  0
  4  5  1  0  0  0  0
  4  3  2  0  0  0  0
  5  1  1  0  0  0  0
  6  7  1  0  0  0  0
  7  8  2  0  0  0  0
  8 12  1  0  0  0  0
  9  8  1  0  0  0  0
 10  9  2  0  0  0  0
 11 10  1  0  0  0  0
 11  6  2  0  0  0  0
 12 20  1  0  0  0  0
 13 12  1  0  0  0  0
 13 14  2  0  0  0  0
 14 15  1  0  0  0  0
 15 16  1  0  0  0  0
 16 17  2  0  0  0  0
 18 17  1  0  0  0  0
 19 18  1  0  0  0  0
 20 15  2  0  0  0  0
 20 19  1  0  0  0  0
 21 19  1  0  0  0  0
 22  4  1  0  0  0  0
 23 22  1  0  0  0  0
 24 23  2  0  0  0  0
 25 24  1  0  0  0  0
 25 26  1  0  0  0  0
 26 22  2  0  0  0  0
 27 25  1  0  0  0  0
 28 27  2  0  0  0  0
 29 30  1  0  0  0  0
 29 28  1  0  0  0  0
 30 35  1  0  0  0  0
 31 32  1  0  0  0  0
 31 30  2  0  0  0  0
 32 33  2  0  0  0  0
 33 34  1  0  0  0  0
 35 34  2  0  0  0  0
 35 27  1  0  0  0  0
 36 29  1  0  0  0  0
M  END
>  <minimizedAffinity>
-7.75274658

$$$$

 OpenBabel03242509203D

 36 42  0  0  0  0  0  0  0  0999 V2000
   66.2290   58.4980   31.6970 C   0  0  0  0  0  0  0  0  0  0  0  0
   66.6390   57.2170   31.3060 C   0  0  0  0  0  3  0  0  0  0  0  0
   66.1170   56.7870   30.0970 C   0  0  0  0  0  3  0  0  0  0  0  0
   65.2820   57.6010   29.4060 C   0  0  0  0  0  0  0  0  0  0  0  0
   65.1200   59.0680   30.3560 S   0  0  0  0  0  0  0  0  0  0  0  0
   66.7560   60.9600   34.4310 C   0  0  0  0  0  3  0  0  0  0  0  0
   67.5640   60.2560   35.3330 C   0  0  0  0  0  3  0  0  0  0  0  0
   67.9050   58.9790   34.9950 C   0  0  0  0  0  0  0  0  0  0  0  0
   67.4410   58.4700   33.8060 N   0  0  0  0  0  0  0  0  0  0  0  0
   66.6720   59.1660   32.9700 C   0  0  0  0  0  0  0  0  0  0  0  0
   66.3290   60.4120   33.2810 N   0  0  0  0  0  0  0  0  0  0  0  0
   68.7330   58.2230   35.8900 N   0  0  0  0  0  0  0  0  0  0  0  0
   69.4030   58.8150   36.9230 C   0  0  0  0  0  3  0  0  0  0  0  0
   70.0900   57.8550   37.5830 N   0  0  0  0  0  0  0  0  0  0  0  0
   69.8690   56.6930   36.9950 C   0  0  0  0  0  0  0  0  0  0  0  0
   70.2560   55.3590   37.1500 C   0  0  0  0  0  3  0  0  0  0  0  0
   69.8140   54.3620   36.3560 N   0  0  0  0  0  0  0  0  0  0  0  0
   68.9830   54.6470   35.3360 C   0  0  0  0  0  2  0  0  0  0  0  0
   68.5850   55.9110   35.1210 N   0  0  0  0  0  0  0  0  0  0  0  0
   69.0140   56.9090   35.9270 C   0  0  0  0  0  0  0  0  0  0  0  0
   67.9500   56.1220   34.3370 H   0  0  0  0  0  0  0  0  0  0  0  0
   64.6300   57.3670   28.1470 C   0  0  0  0  0  0  0  0  0  0  0  0
   65.2200   57.1070   26.9500 C   0  0  0  0  0  3  0  0  0  0  0  0
   64.2040   56.9470   26.0090 C   0  0  0  0  0  3  0  0  0  0  0  0
   63.0440   57.1160   26.6830 N   0  0  0  0  0  0  0  0  0  0  0  0
   63.2960   57.3690   27.9670 N   0  0  0  0  0  0  0  0  0  0  0  0
   61.7810   57.0210   26.0320 C   0  0  0  0  0  0  0  0  0  0  0  0
   61.0450   55.8430   26.1590 C   0  0  0  0  0  3  0  0  0  0  0  0
   59.8930   55.9840   25.4620 N   0  0  0  0  0  0  0  0  0  0  0  0
   59.8600   57.2120   24.8910 C   0  0  0  0  0  0  0  0  0  0  0  0
   58.9550   57.8710   24.0970 C   0  0  0  0  0  3  0  0  0  0  0  0
   59.2530   59.1570   23.6800 C   0  0  0  0  0  3  0  0  0  0  0  0
   60.4290   59.7880   24.0410 C   0  0  0  0  0  3  0  0  0  0  0  0
   61.3540   59.1210   24.8510 C   0  0  0  0  0  3  0  0  0  0  0  0
   61.0260   57.8480   25.2440 C   0  0  0  0  0  0  0  0  0  0  0  0
   59.1560   55.2690   25.3790 H   0  0  0  0  0  0  0  0  0  0  0  0
  1 10  1  0  0  0  0
  2  1  2  0  0  0  0
  3  2  1  0  0  0  0
  4  3  2  0  0  0  0
  4  5  1  0  0  0  0
  5  1  1  0  0  0  0
  6  7  1  0  0  0  0
  8  7  2  0  0  0  0
  8 12  1  0  0  0  0
  9  8  1  0  0  0  0
 10 11  1  0  0  0  0
 10  9  2  0  0  0  0
 11  6  2  0  0  0  0
 12 20  1  0  0  0  0
 12 13  1  0  0  0  0
 13 14  2  0  0  0  0
 15 16  1  0  0  0  0
 15 14  1  0  0  0  0
 17 16  2  0  0  0  0
 18 17  1  0  0  0  0
 19 18  1  0  0  0  0
 19 20  1  0  0  0  0
 20 15  2  0  0  0  0
 21 19  1  0  0  0  0
 22  4  1  0  0  0  0
 23 22  1  0  0  0  0
 24 25  1  0  0  0  0
 24 23  2  0  0  0  0
 25 26  1  0  0  0  0
 26 22  2  0  0  0  0
 27 28  2  0  0  0  0
 27 25  1  0  0  0  0
 29 28  1  0  0  0  0
 30 35  1  0  0  0  0
 30 29  1  0  0  0  0
 31 30  2  0  0  0  0
 32 33  2  0  0  0  0
 32 31  1  0  0  0  0
 33 34  1  0  0  0  0
 34 35  2  0  0  0  0
 35 27  1  0  0  0  0
 36 29  1  0  0  0  0
M  END
>  <minimizedAffinity>
-7.48085308

$$$$

 OpenBabel03242509203D

 36 42  0  0  0  0  0  0  0  0999 V2000
   65.7850   57.7420   32.1640 C   0  0  0  0  0  0  0  0  0  0  0  0
   64.5160   58.3300   32.1030 C   0  0  0  0  0  3  0  0  0  0  0  0
   63.9140   58.2780   30.8570 C   0  0  0  0  0  3  0  0  0  0  0  0
   64.5670   57.6860   29.8260 C   0  0  0  0  0  0  0  0  0  0  0  0
   66.1030   57.1290   30.4680 S   0  0  0  0  0  0  0  0  0  0  0  0
   66.9000   57.7960   35.7090 C   0  0  0  0  0  3  0  0  0  0  0  0
   68.2750   57.5470   35.6070 C   0  0  0  0  0  3  0  0  0  0  0  0
   68.7830   57.3690   34.3530 C   0  0  0  0  0  0  0  0  0  0  0  0
   67.9250   57.4440   33.2830 N   0  0  0  0  0  0  0  0  0  0  0  0
   66.6200   57.6820   33.4140 C   0  0  0  0  0  0  0  0  0  0  0  0
   66.1060   57.8580   34.6270 N   0  0  0  0  0  0  0  0  0  0  0  0
   70.1860   57.1130   34.2040 N   0  0  0  0  0  0  0  0  0  0  0  0
   70.8650   57.4640   33.0710 C   0  0  0  0  0  3  0  0  0  0  0  0
   72.1580   57.0980   33.2270 N   0  0  0  0  0  0  0  0  0  0  0  0
   72.3010   56.5340   34.4120 C   0  0  0  0  0  0  0  0  0  0  0  0
   73.3220   55.9510   35.1700 C   0  0  0  0  0  3  0  0  0  0  0  0
   73.1340   55.4650   36.4140 N   0  0  0  0  0  0  0  0  0  0  0  0
   71.9050   55.5030   36.9620 C   0  0  0  0  0  2  0  0  0  0  0  0
   70.8770   56.0340   36.2810 N   0  0  0  0  0  0  0  0  0  0  0  0
   71.0670   56.5370   35.0400 C   0  0  0  0  0  0  0  0  0  0  0  0
   69.9390   56.0570   36.7060 H   0  0  0  0  0  0  0  0  0  0  0  0
   64.1410   57.5180   28.4640 C   0  0  0  0  0  0  0  0  0  0  0  0
   64.8940   57.0960   27.4140 C   0  0  0  0  0  3  0  0  0  0  0  0
   64.0700   57.0840   26.2880 C   0  0  0  0  0  3  0  0  0  0  0  0
   62.8540   57.4980   26.7140 N   0  0  0  0  0  0  0  0  0  0  0  0
   62.8950   57.7610   28.0200 N   0  0  0  0  0  0  0  0  0  0  0  0
   61.7500   57.6090   25.8220 C   0  0  0  0  0  0  0  0  0  0  0  0
   61.5720   58.7980   25.1160 C   0  0  0  0  0  3  0  0  0  0  0  0
   60.4700   58.6720   24.3410 N   0  0  0  0  0  0  0  0  0  0  0  0
   59.9320   57.4420   24.5200 C   0  0  0  0  0  0  0  0  0  0  0  0
   58.8400   56.7930   24.0020 C   0  0  0  0  0  3  0  0  0  0  0  0
   58.5750   55.5010   24.4210 C   0  0  0  0  0  3  0  0  0  0  0  0
   59.3780   54.8530   25.3420 C   0  0  0  0  0  3  0  0  0  0  0  0
   60.4940   55.5100   25.8740 C   0  0  0  0  0  3  0  0  0  0  0  0
   60.7240   56.7900   25.4350 C   0  0  0  0  0  0  0  0  0  0  0  0
   60.0980   59.3980   23.7110 H   0  0  0  0  0  0  0  0  0  0  0  0
  1 10  1  0  0  0  0
  2  1  2  0  0  0  0
  3  2  1  0  0  0  0
  4  5  1  0  0  0  0
  4  3  2  0  0  0  0
  5  1  1  0  0  0  0
  7  6  1  0  0  0  0
  8  7  2  0  0  0  0
  9 10  2  0  0  0  0
  9  8  1  0  0  0  0
 10 11  1  0  0  0  0
 11  6  2  0  0  0  0
 12  8  1  0  0  0  0
 12 20  1  0  0  0  0
 13 14  2  0  0  0  0
 13 12  1  0  0  0  0
 14 15  1  0  0  0  0
 15 20  2  0  0  0  0
 15 16  1  0  0  0  0
 16 17  2  0  0  0  0
 17 18  1  0  0  0  0
 19 21  1  0  0  0  0
 19 18  1  0  0  0  0
 20 19  1  0  0  0  0
 22  4  1  0  0  0  0
 23 22  1  0  0  0  0
 24 25  1  0  0  0  0
 24 23  2  0  0  0  0
 25 26  1  0  0  0  0
 26 22  2  0  0  0  0
 27 25  1  0  0  0  0
 28 27  2  0  0  0  0
 29 30  1  0  0  0  0
 29 28  1  0  0  0  0
 30 35  1  0  0  0  0
 31 32  1  0  0  0  0
 31 30  2  0  0  0  0
 32 33  2  0  0  0  0
 33 34  1  0  0  0  0
 35 27  1  0  0  0  0
 35 34  2  0  0  0  0
 36 29  1  0  0  0  0
M  END
>  <minimizedAffinity>
-7.46668768

$$$$

 OpenBabel03242509203D

 36 42  0  0  0  0  0  0  0  0999 V2000
   66.0130   57.6780   32.3130 C   0  0  0  0  0  0  0  0  0  0  0  0
   64.7330   58.2440   32.2720 C   0  0  0  0  0  3  0  0  0  0  0  0
   64.1060   58.1680   31.0400 C   0  0  0  0  0  3  0  0  0  0  0  0
   64.7470   57.5760   30.0020 C   0  0  0  0  0  0  0  0  0  0  0  0
   66.3040   57.0510   30.6180 S   0  0  0  0  0  0  0  0  0  0  0  0
   68.4040   56.6360   34.9600 C   0  0  0  0  0  3  0  0  0  0  0  0
   68.3910   57.7270   35.8390 C   0  0  0  0  0  3  0  0  0  0  0  0
   67.5820   58.7770   35.5140 C   0  0  0  0  0  0  0  0  0  0  0  0
   66.8400   58.6980   34.3610 N   0  0  0  0  0  0  0  0  0  0  0  0
   66.8740   57.6450   33.5460 C   0  0  0  0  0  0  0  0  0  0  0  0
   67.6570   56.6130   33.8440 N   0  0  0  0  0  0  0  0  0  0  0  0
   67.5380   59.9140   36.3870 N   0  0  0  0  0  0  0  0  0  0  0  0
   68.0700   59.8750   37.6450 C   0  0  0  0  0  3  0  0  0  0  0  0
   67.8780   61.0860   38.2180 N   0  0  0  0  0  0  0  0  0  0  0  0
   67.2480   61.8680   37.3610 C   0  0  0  0  0  0  0  0  0  0  0  0
   66.7560   63.1760   37.3150 C   0  0  0  0  0  3  0  0  0  0  0  0
   66.1530   63.7020   36.2300 N   0  0  0  0  0  0  0  0  0  0  0  0
   65.9740   62.9370   35.1360 C   0  0  0  0  0  2  0  0  0  0  0  0
   66.4070   61.6670   35.1200 N   0  0  0  0  0  0  0  0  0  0  0  0
   67.0280   61.1440   36.2020 C   0  0  0  0  0  0  0  0  0  0  0  0
   66.2650   61.0870   34.2800 H   0  0  0  0  0  0  0  0  0  0  0  0
   64.2960   57.3860   28.6510 C   0  0  0  0  0  0  0  0  0  0  0  0
   65.0650   57.2520   27.5390 C   0  0  0  0  0  3  0  0  0  0  0  0
   64.2040   57.0880   26.4530 C   0  0  0  0  0  3  0  0  0  0  0  0
   62.9520   57.1290   26.9630 N   0  0  0  0  0  0  0  0  0  0  0  0
   63.0040   57.3090   28.2820 N   0  0  0  0  0  0  0  0  0  0  0  0
   61.8040   56.9940   26.1330 C   0  0  0  0  0  0  0  0  0  0  0  0
   61.0940   55.7940   26.1570 C   0  0  0  0  0  3  0  0  0  0  0  0
   60.0540   55.8970   25.2960 N   0  0  0  0  0  0  0  0  0  0  0  0
   60.0670   57.1230   24.7200 C   0  0  0  0  0  0  0  0  0  0  0  0
   59.2690   57.7520   23.7980 C   0  0  0  0  0  3  0  0  0  0  0  0
   59.5840   59.0460   23.4220 C   0  0  0  0  0  3  0  0  0  0  0  0
   60.6740   59.7150   23.9490 C   0  0  0  0  0  3  0  0  0  0  0  0
   61.4900   59.0790   24.8910 C   0  0  0  0  0  3  0  0  0  0  0  0
   61.1480   57.7960   25.2380 C   0  0  0  0  0  0  0  0  0  0  0  0
   59.3610   55.1590   25.1090 H   0  0  0  0  0  0  0  0  0  0  0  0
  1 10  1  0  0  0  0
  2  1  2  0  0  0  0
  3  2  1  0  0  0  0
  4  5  1  0  0  0  0
  4  3  2  0  0  0  0
  5  1  1  0  0  0  0
  6  7  1  0  0  0  0
  8  7  2  0  0  0  0
  8 12  1  0  0  0  0
  9  8  1  0  0  0  0
 10 11  1  0  0  0  0
 10  9  2  0  0  0  0
 11  6  2  0  0  0  0
 12 13  1  0  0  0  0
 13 14  2  0  0  0  0
 15 14  1  0  0  0  0
 16 15  1  0  0  0  0
 17 16  2  0  0  0  0
 18 17  1  0  0  0  0
 19 18  1  0  0  0  0
 19 20  1  0  0  0  0
 20 12  1  0  0  0  0
 20 15  2  0  0  0  0
 21 19  1  0  0  0  0
 22  4  1  0  0  0  0
 23 22  1  0  0  0  0
 24 25  1  0  0  0  0
 24 23  2  0  0  0  0
 25 26  1  0  0  0  0
 26 22  2  0  0  0  0
 27 28  2  0  0  0  0
 27 25  1  0  0  0  0
 29 28  1  0  0  0  0
 30 35  1  0  0  0  0
 30 29  1  0  0  0  0
 31 30  2  0  0  0  0
 32 31  1  0  0  0  0
 32 33  2  0  0  0  0
 33 34  1  0  0  0  0
 34 35  2  0  0  0  0
 35 27  1  0  0  0  0
 36 29  1  0  0  0  0
M  END
>  <minimizedAffinity>
-7.46028709

$$$$

 OpenBabel03242509203D

 36 42  0  0  0  0  0  0  0  0999 V2000
   64.6660   58.2650   29.9480 C   0  0  0  0  0  0  0  0  0  0  0  0
   65.2890   57.4430   29.0000 C   0  0  0  0  0  3  0  0  0  0  0  0
   64.4660   57.0240   27.9680 C   0  0  0  0  0  3  0  0  0  0  0  0
   63.1700   57.4210   27.9470 C   0  0  0  0  0  0  0  0  0  0  0  0
   62.9380   58.4290   29.3660 S   0  0  0  0  0  0  0  0  0  0  0  0
   66.2040   60.5980   32.3980 C   0  0  0  0  0  3  0  0  0  0  0  0
   66.6700   59.7360   33.3990 C   0  0  0  0  0  3  0  0  0  0  0  0
   66.4520   58.4000   33.2200 C   0  0  0  0  0  0  0  0  0  0  0  0
   65.7990   57.9910   32.0830 N   0  0  0  0  0  0  0  0  0  0  0  0
   65.3670   58.8370   31.1490 C   0  0  0  0  0  0  0  0  0  0  0  0
   65.5690   60.1420   31.3050 N   0  0  0  0  0  0  0  0  0  0  0  0
   66.9140   57.4830   34.2210 N   0  0  0  0  0  0  0  0  0  0  0  0
   66.4430   57.5200   35.5030 C   0  0  0  0  0  3  0  0  0  0  0  0
   67.0590   56.5410   36.2050 N   0  0  0  0  0  0  0  0  0  0  0  0
   67.8930   55.9030   35.4040 C   0  0  0  0  0  0  0  0  0  0  0  0
   68.8050   54.8460   35.4810 C   0  0  0  0  0  3  0  0  0  0  0  0
   69.5180   54.4060   34.4240 N   0  0  0  0  0  0  0  0  0  0  0  0
   69.3860   55.0200   33.2330 C   0  0  0  0  0  2  0  0  0  0  0  0
   68.5410   56.0530   33.0950 N   0  0  0  0  0  0  0  0  0  0  0  0
   67.8120   56.4850   34.1500 C   0  0  0  0  0  0  0  0  0  0  0  0
   68.4470   56.5190   32.1810 H   0  0  0  0  0  0  0  0  0  0  0  0
   62.1460   57.1120   26.9880 C   0  0  0  0  0  0  0  0  0  0  0  0
   61.7260   55.8790   26.6010 C   0  0  0  0  0  3  0  0  0  0  0  0
   60.7170   56.0590   25.6550 C   0  0  0  0  0  3  0  0  0  0  0  0
   60.5740   57.3960   25.5150 N   0  0  0  0  0  0  0  0  0  0  0  0
   61.4310   58.0310   26.3140 N   0  0  0  0  0  0  0  0  0  0  0  0
   59.6190   57.9550   24.6190 C   0  0  0  0  0  0  0  0  0  0  0  0
   59.0700   57.1420   23.6280 C   0  0  0  0  0  3  0  0  0  0  0  0
   58.1980   57.8820   22.9050 N   0  0  0  0  0  0  0  0  0  0  0  0
   58.1630   59.1440   23.3960 C   0  0  0  0  0  0  0  0  0  0  0  0
   57.4740   60.2810   23.0570 C   0  0  0  0  0  3  0  0  0  0  0  0
   57.6910   61.4320   23.7960 C   0  0  0  0  0  3  0  0  0  0  0  0
   58.5770   61.4630   24.8570 C   0  0  0  0  0  3  0  0  0  0  0  0
   59.2820   60.3060   25.2070 C   0  0  0  0  0  3  0  0  0  0  0  0
   59.0420   59.1850   24.4520 C   0  0  0  0  0  0  0  0  0  0  0  0
   57.6450   57.5400   22.1060 H   0  0  0  0  0  0  0  0  0  0  0  0
  1 10  1  0  0  0  0
  2  1  2  0  0  0  0
  3  2  1  0  0  0  0
  4  3  2  0  0  0  0
  4  5  1  0  0  0  0
  5  1  1  0  0  0  0
  6  7  1  0  0  0  0
  8  7  2  0  0  0  0
  8 12  1  0  0  0  0
  9  8  1  0  0  0  0
 10 11  1  0  0  0  0
 10  9  2  0  0  0  0
 11  6  2  0  0  0  0
 12 13  1  0  0  0  0
 13 14  2  0  0  0  0
 15 16  1  0  0  0  0
 15 14  1  0  0  0  0
 17 16  2  0  0  0  0
 18 17  1  0  0  0  0
 19 18  1  0  0  0  0
 19 20  1  0  0  0  0
 20 12  1  0  0  0  0
 20 15  2  0  0  0  0
 21 19  1  0  0  0  0
 22  4  1  0  0  0  0
 23 22  1  0  0  0  0
 24 23  2  0  0  0  0
 25 24  1  0  0  0  0
 25 26  1  0  0  0  0
 26 22  2  0  0  0  0
 27 25  1  0  0  0  0
 28 27  2  0  0  0  0
 29 30  1  0  0  0  0
 29 28  1  0  0  0  0
 30 35  1  0  0  0  0
 31 30  2  0  0  0  0
 31 32  1  0  0  0  0
 32 33  2  0  0  0  0
 33 34  1  0  0  0  0
 35 27  1  0  0  0  0
 35 34  2  0  0  0  0
 36 29  1  0  0  0  0
M  END
>  <minimizedAffinity>
-7.32500839

$$$$
