
 OpenBabel03242509203D

 35 40  0  0  1  0  0  0  0  0999 V2000
   64.5570   56.6440   27.3850 C   0  0  2  0  0  3  0  0  0  0  0  0
   64.8890   57.1650   26.0680 C   0  0  0  0  0  2  0  0  0  0  0  0
   63.7570   56.2610   26.1190 C   0  0  2  0  0  3  0  0  0  0  0  0
   62.3550   56.6790   25.9940 C   0  0  0  0  0  0  0  0  0  0  0  0
   61.2030   55.9810   25.9640 N   0  0  0  0  0  0  0  0  0  0  0  0
   60.2150   56.7840   25.8280 O   0  0  0  0  0  0  0  0  0  0  0  0
   60.6180   58.0160   25.7610 C   0  0  0  0  0  0  0  0  0  0  0  0
   61.9600   57.9580   25.8640 N   0  0  0  0  0  0  0  0  0  0  0  0
   60.0170   59.3580   25.6120 C   0  0  0  0  0  0  0  0  0  0  0  0
   59.3570   59.7940   24.4690 C   0  0  0  0  0  3  0  0  0  0  0  0
   58.8130   61.0460   24.3730 C   0  0  0  0  0  3  0  0  0  0  0  0
   58.8910   61.9480   25.4080 C   0  0  0  0  0  3  0  0  0  0  0  0
   59.5370   61.5600   26.5590 C   0  0  0  0  0  0  0  0  0  0  0  0
   59.5940   62.4820   27.5660 C   0  0  0  0  0  3  0  0  0  0  0  0
   60.2200   62.1710   28.7450 C   0  0  0  0  0  3  0  0  0  0  0  0
   60.7770   60.9140   28.8690 C   0  0  0  0  0  3  0  0  0  0  0  0
   60.6860   60.0250   27.8180 C   0  0  0  0  0  3  0  0  0  0  0  0
   60.0730   60.2910   26.6240 C   0  0  0  0  0  0  0  0  0  0  0  0
   63.8860   57.4540   28.4280 C   0  0  0  0  0  2  0  0  0  0  0  0
   64.1490   58.0140   30.9030 C   0  0  0  0  0  3  0  0  0  0  0  0
   64.6020   57.5250   29.6730 C   0  0  0  0  0  0  0  0  0  0  0  0
   65.9040   57.0390   29.6080 C   0  0  0  0  0  3  0  0  0  0  0  0
   66.6640   57.0710   30.7510 N   0  0  0  0  0  0  0  0  0  0  0  0
   66.2040   57.5480   31.9280 C   0  0  0  0  0  0  0  0  0  0  0  0
   64.9310   58.0210   31.9880 N   0  0  0  0  0  0  0  0  0  0  0  0
   67.0660   57.5410   33.0590 N   0  0  0  0  0  0  0  0  0  0  0  0
   67.4130   56.3680   33.6160 C   0  0  0  0  0  3  0  0  0  0  0  0
   68.2410   56.2230   34.7140 C   0  0  0  0  0  0  0  0  0  0  0  0
   68.7390   57.3750   35.2700 C   0  0  0  0  0  0  0  0  0  0  0  0
   69.4910   57.3170   36.2600 O   0  0  0  0  0  0  0  0  0  0  0  0
   68.3830   58.5590   34.6990 N   0  0  0  0  0  0  0  0  0  0  0  0
   67.5650   58.6510   33.6170 C   0  0  0  0  0  0  0  0  0  0  0  0
   67.2650   59.7690   33.1280 O   0  0  0  0  0  0  0  0  0  0  0  0
   68.5520   54.8710   35.2380 C   0  0  0  0  0  1  0  0  0  0  0  0
   68.7520   59.4300   35.1080 H   0  0  0  0  0  0  0  0  0  0  0  0
  1 19  1  1  0  0  0
  2  3  1  0  0  0  0
  2  1  1  0  0  0  0
  3  4  1  1  0  0  0
  3  1  1  0  0  0  0
  5  4  2  0  0  0  0
  6  5  1  0  0  0  0
  7  6  1  0  0  0  0
  7  8  2  0  0  0  0
  8  4  1  0  0  0  0
  9  7  1  0  0  0  0
  9 18  1  0  0  0  0
 10  9  2  0  0  0  0
 11 10  1  0  0  0  0
 11 12  2  0  0  0  0
 12 13  1  0  0  0  0
 13 18  2  0  0  0  0
 13 14  1  0  0  0  0
 14 15  2  0  0  0  0
 15 16  1  0  0  0  0
 17 16  2  0  0  0  0
 18 17  1  0  0  0  0
 19 21  1  0  0  0  0
 20 25  2  0  0  0  0
 21 20  1  0  0  0  0
 22 21  2  0  0  0  0
 22 23  1  0  0  0  0
 23 24  2  0  0  0  0
 24 25  1  0  0  0  0
 24 26  1  0  0  0  0
 26 27  1  0  0  0  0
 26 32  1  0  0  0  0
 27 28  2  0  0  0  0
 28 34  1  0  0  0  0
 28 29  1  0  0  0  0
 29 30  2  0  0  0  0
 31 35  1  0  0  0  0
 31 29  1  0  0  0  0
 32 31  1  0  0  0  0
 33 32  2  0  0  0  0
M  END
>  <minimizedAffinity>
-8.28909111

$$$$

 OpenBabel03242509203D

 35 40  0  0  1  0  0  0  0  0999 V2000
   62.3940   64.6900   30.2770 C   0  0  2  0  0  3  0  0  0  0  0  0
   61.3290   64.8480   31.2560 C   0  0  0  0  0  2  0  0  0  0  0  0
   60.9010   64.5400   29.9060 C   0  0  2  0  0  3  0  0  0  0  0  0
   60.3890   63.2320   29.4760 C   0  0  0  0  0  0  0  0  0  0  0  0
   59.5900   62.3320   30.0810 N   0  0  0  0  0  0  0  0  0  0  0  0
   59.4250   61.3180   29.3160 O   0  0  0  0  0  0  0  0  0  0  0  0
   60.0720   61.4630   28.1990 C   0  0  0  0  0  0  0  0  0  0  0  0
   60.6800   62.6620   28.2940 N   0  0  0  0  0  0  0  0  0  0  0  0
   60.2890   60.7010   26.9530 C   0  0  0  0  0  0  0  0  0  0  0  0
   59.8560   61.1160   25.6990 C   0  0  0  0  0  3  0  0  0  0  0  0
   60.0790   60.3780   24.5690 C   0  0  0  0  0  3  0  0  0  0  0  0
   60.7480   59.1770   24.6100 C   0  0  0  0  0  3  0  0  0  0  0  0
   61.1950   58.7260   25.8320 C   0  0  0  0  0  0  0  0  0  0  0  0
   61.8560   57.5310   25.8340 C   0  0  0  0  0  3  0  0  0  0  0  0
   62.3320   57.0140   27.0110 C   0  0  0  0  0  3  0  0  0  0  0  0
   62.1210   57.7380   28.1660 C   0  0  0  0  0  3  0  0  0  0  0  0
   61.4480   58.9400   28.1010 C   0  0  0  0  0  3  0  0  0  0  0  0
   60.9540   59.4940   26.9510 C   0  0  0  0  0  0  0  0  0  0  0  0
   63.2620   63.4920   30.2160 C   0  0  0  0  0  2  0  0  0  0  0  0
   65.5060   64.5590   30.7990 C   0  0  0  0  0  3  0  0  0  0  0  0
   64.6550   63.7820   30.0040 C   0  0  0  0  0  0  0  0  0  0  0  0
   65.1880   63.2050   28.8570 C   0  0  0  0  0  3  0  0  0  0  0  0
   66.5120   63.4320   28.5730 N   0  0  0  0  0  0  0  0  0  0  0  0
   67.3140   64.1850   29.3560 C   0  0  0  0  0  0  0  0  0  0  0  0
   66.7900   64.7480   30.4780 N   0  0  0  0  0  0  0  0  0  0  0  0
   68.6740   64.3650   28.9800 N   0  0  0  0  0  0  0  0  0  0  0  0
   69.5170   63.3200   29.0390 C   0  0  0  0  0  3  0  0  0  0  0  0
   70.8590   63.3610   28.7040 C   0  0  0  0  0  0  0  0  0  0  0  0
   71.3530   64.5690   28.2780 C   0  0  0  0  0  0  0  0  0  0  0  0
   72.5520   64.6760   27.9600 O   0  0  0  0  0  0  0  0  0  0  0  0
   70.4920   65.6220   28.2210 N   0  0  0  0  0  0  0  0  0  0  0  0
   69.1790   65.5320   28.5620 C   0  0  0  0  0  0  0  0  0  0  0  0
   68.4240   66.5350   28.4920 O   0  0  0  0  0  0  0  0  0  0  0  0
   71.6900   62.1370   28.8100 C   0  0  0  0  0  1  0  0  0  0  0  0
   70.8530   66.5320   27.9030 H   0  0  0  0  0  0  0  0  0  0  0  0
  1 19  1  1  0  0  0
  1  2  1  0  0  0  0
  3  4  1  1  0  0  0
  3  1  1  0  0  0  0
  3  2  1  0  0  0  0
  4  5  2  0  0  0  0
  6  5  1  0  0  0  0
  7  8  2  0  0  0  0
  7  6  1  0  0  0  0
  8  4  1  0  0  0  0
  9  7  1  0  0  0  0
 10  9  2  0  0  0  0
 11 12  2  0  0  0  0
 11 10  1  0  0  0  0
 12 13  1  0  0  0  0
 13 14  2  0  0  0  0
 13 18  1  0  0  0  0
 14 15  1  0  0  0  0
 15 16  2  0  0  0  0
 17 16  1  0  0  0  0
 18  9  1  0  0  0  0
 18 17  2  0  0  0  0
 21 19  1  0  0  0  0
 21 20  1  0  0  0  0
 22 21  2  0  0  0  0
 23 22  1  0  0  0  0
 23 24  2  0  0  0  0
 24 25  1  0  0  0  0
 25 20  2  0  0  0  0
 26 27  1  0  0  0  0
 26 24  1  0  0  0  0
 28 34  1  0  0  0  0
 28 27  2  0  0  0  0
 29 28  1  0  0  0  0
 30 29  2  0  0  0  0
 31 29  1  0  0  0  0
 31 32  1  0  0  0  0
 32 26  1  0  0  0  0
 33 32  2  0  0  0  0
 35 31  1  0  0  0  0
M  END
>  <minimizedAffinity>
-7.86568165

$$$$

 OpenBabel03242509203D

 35 40  0  0  1  0  0  0  0  0999 V2000
   64.0820   63.5970   30.7080 C   0  0  2  0  0  3  0  0  0  0  0  0
   63.3470   64.0950   31.8610 C   0  0  0  0  0  2  0  0  0  0  0  0
   62.7680   64.3990   30.5680 C   0  0  2  0  0  3  0  0  0  0  0  0
   61.5740   63.7430   30.0190 C   0  0  0  0  0  0  0  0  0  0  0  0
   60.2980   63.6840   30.4470 N   0  0  0  0  0  0  0  0  0  0  0  0
   59.6030   62.9760   29.6370 O   0  0  0  0  0  0  0  0  0  0  0  0
   60.3320   62.5330   28.6580 C   0  0  0  0  0  0  0  0  0  0  0  0
   61.5700   63.0100   28.8920 N   0  0  0  0  0  0  0  0  0  0  0  0
   60.1530   61.7020   27.4500 C   0  0  0  0  0  0  0  0  0  0  0  0
   59.5070   62.1310   26.2970 C   0  0  0  0  0  3  0  0  0  0  0  0
   59.3640   61.3280   25.1980 C   0  0  0  0  0  3  0  0  0  0  0  0
   59.8550   60.0440   25.1740 C   0  0  0  0  0  3  0  0  0  0  0  0
   60.5020   59.5760   26.2950 C   0  0  0  0  0  0  0  0  0  0  0  0
   60.9770   58.2970   26.2330 C   0  0  0  0  0  3  0  0  0  0  0  0
   61.6330   57.7570   27.3090 C   0  0  0  0  0  3  0  0  0  0  0  0
   61.7910   58.5460   28.4310 C   0  0  0  0  0  3  0  0  0  0  0  0
   61.2920   59.8310   28.4320 C   0  0  0  0  0  3  0  0  0  0  0  0
   60.6290   60.4110   27.3840 C   0  0  0  0  0  0  0  0  0  0  0  0
   64.0870   62.1710   30.3080 C   0  0  0  0  0  2  0  0  0  0  0  0
   66.1920   61.8420   31.7120 C   0  0  0  0  0  3  0  0  0  0  0  0
   65.1430   61.3960   30.9000 C   0  0  0  0  0  0  0  0  0  0  0  0
   65.0840   60.0370   30.6070 C   0  0  0  0  0  3  0  0  0  0  0  0
   66.0560   59.2200   31.1280 N   0  0  0  0  0  0  0  0  0  0  0  0
   67.0600   59.6740   31.9100 C   0  0  0  0  0  0  0  0  0  0  0  0
   67.1130   61.0030   32.1960 N   0  0  0  0  0  0  0  0  0  0  0  0
   68.0210   58.7510   32.4030 N   0  0  0  0  0  0  0  0  0  0  0  0
   67.6530   57.8430   33.3230 C   0  0  0  0  0  3  0  0  0  0  0  0
   68.4880   56.8930   33.8820 C   0  0  0  0  0  0  0  0  0  0  0  0
   69.7930   56.8880   33.4560 C   0  0  0  0  0  0  0  0  0  0  0  0
   70.5980   56.0600   33.9180 O   0  0  0  0  0  0  0  0  0  0  0  0
   70.1580   57.8120   32.5240 N   0  0  0  0  0  0  0  0  0  0  0  0
   69.2990   58.7270   32.0030 C   0  0  0  0  0  0  0  0  0  0  0  0
   69.6860   59.5600   31.1440 O   0  0  0  0  0  0  0  0  0  0  0  0
   67.9620   55.9410   34.8910 C   0  0  0  0  0  1  0  0  0  0  0  0
   71.1350   57.8160   32.1970 H   0  0  0  0  0  0  0  0  0  0  0  0
  1 19  1  1  0  0  0
  1  2  1  0  0  0  0
  3  4  1  1  0  0  0
  3  1  1  0  0  0  0
  3  2  1  0  0  0  0
  4  5  2  0  0  0  0
  6  5  1  0  0  0  0
  7  8  2  0  0  0  0
  7  6  1  0  0  0  0
  8  4  1  0  0  0  0
  9  7  1  0  0  0  0
 10  9  2  0  0  0  0
 11 10  1  0  0  0  0
 12 11  2  0  0  0  0
 12 13  1  0  0  0  0
 13 18  1  0  0  0  0
 14 13  2  0  0  0  0
 14 15  1  0  0  0  0
 15 16  2  0  0  0  0
 16 17  1  0  0  0  0
 18  9  1  0  0  0  0
 18 17  2  0  0  0  0
 19 21  1  0  0  0  0
 20 25  2  0  0  0  0
 21 20  1  0  0  0  0
 22 21  2  0  0  0  0
 22 23  1  0  0  0  0
 23 24  2  0  0  0  0
 24 25  1  0  0  0  0
 24 26  1  0  0  0  0
 26 27  1  0  0  0  0
 27 28  2  0  0  0  0
 28 34  1  0  0  0  0
 29 28  1  0  0  0  0
 29 30  2  0  0  0  0
 31 29  1  0  0  0  0
 32 26  1  0  0  0  0
 32 31  1  0  0  0  0
 33 32  2  0  0  0  0
 35 31  1  0  0  0  0
M  END
>  <minimizedAffinity>
-7.72700882

$$$$

 OpenBabel03242509203D

 35 40  0  0  1  0  0  0  0  0999 V2000
   64.6650   58.8940   31.4430 C   0  0  2  0  0  3  0  0  0  0  0  0
   65.7700   57.9520   31.3470 C   0  0  0  0  0  2  0  0  0  0  0  0
   64.5140   57.5080   30.7750 C   0  0  2  0  0  3  0  0  0  0  0  0
   64.2420   57.4250   29.3340 C   0  0  0  0  0  0  0  0  0  0  0  0
   65.0440   57.5290   28.2560 N   0  0  0  0  0  0  0  0  0  0  0  0
   64.3490   57.3990   27.1880 O   0  0  0  0  0  0  0  0  0  0  0  0
   63.0950   57.2070   27.4650 C   0  0  0  0  0  0  0  0  0  0  0  0
   63.0210   57.2230   28.8100 N   0  0  0  0  0  0  0  0  0  0  0  0
   61.8320   56.9940   26.7280 C   0  0  0  0  0  0  0  0  0  0  0  0
   61.4120   55.7630   26.2390 C   0  0  0  0  0  3  0  0  0  0  0  0
   60.2330   55.6100   25.5620 C   0  0  0  0  0  3  0  0  0  0  0  0
   59.3920   56.6730   25.3270 C   0  0  0  0  0  3  0  0  0  0  0  0
   59.7680   57.9120   25.7930 C   0  0  0  0  0  0  0  0  0  0  0  0
   58.9070   58.9430   25.5420 C   0  0  0  0  0  3  0  0  0  0  0  0
   59.2100   60.2080   25.9740 C   0  0  0  0  0  3  0  0  0  0  0  0
   60.3930   60.3910   26.6600 C   0  0  0  0  0  3  0  0  0  0  0  0
   61.2210   59.3110   26.8850 C   0  0  0  0  0  3  0  0  0  0  0  0
   60.9620   58.0320   26.4720 C   0  0  0  0  0  0  0  0  0  0  0  0
   64.5600   60.1040   30.5950 C   0  0  0  0  0  2  0  0  0  0  0  0
   66.6480   61.1910   31.5810 C   0  0  0  0  0  3  0  0  0  0  0  0
   65.7620   60.8920   30.5400 C   0  0  0  0  0  0  0  0  0  0  0  0
   66.0450   61.4090   29.2790 C   0  0  0  0  0  3  0  0  0  0  0  0
   67.1730   62.1780   29.1340 N   0  0  0  0  0  0  0  0  0  0  0  0
   68.0140   62.4520   30.1550 C   0  0  0  0  0  0  0  0  0  0  0  0
   67.7340   61.9450   31.3850 N   0  0  0  0  0  0  0  0  0  0  0  0
   69.1580   63.2600   29.9080 N   0  0  0  0  0  0  0  0  0  0  0  0
   70.1570   62.7740   29.1520 C   0  0  0  0  0  3  0  0  0  0  0  0
   71.3200   63.4540   28.8380 C   0  0  0  0  0  0  0  0  0  0  0  0
   71.4500   64.7230   29.3430 C   0  0  0  0  0  0  0  0  0  0  0  0
   72.4710   65.3920   29.0990 O   0  0  0  0  0  0  0  0  0  0  0  0
   70.4320   65.2080   30.1080 N   0  0  0  0  0  0  0  0  0  0  0  0
   69.3070   64.5000   30.3900 C   0  0  0  0  0  0  0  0  0  0  0  0
   68.3950   64.9930   31.1020 O   0  0  0  0  0  0  0  0  0  0  0  0
   72.3530   62.8100   27.9900 C   0  0  0  0  0  1  0  0  0  0  0  0
   70.5200   66.1600   30.4920 H   0  0  0  0  0  0  0  0  0  0  0  0
  1 19  1  6  0  0  0
  2  1  1  0  0  0  0
  3  4  1  6  0  0  0
  3  2  1  0  0  0  0
  3  1  1  0  0  0  0
  5  4  2  0  0  0  0
  6  7  1  0  0  0  0
  6  5  1  0  0  0  0
  7  8  2  0  0  0  0
  8  4  1  0  0  0  0
  9  7  1  0  0  0  0
 10  9  2  0  0  0  0
 11 10  1  0  0  0  0
 12 11  2  0  0  0  0
 12 13  1  0  0  0  0
 13 18  1  0  0  0  0
 14 13  2  0  0  0  0
 14 15  1  0  0  0  0
 15 16  2  0  0  0  0
 16 17  1  0  0  0  0
 18  9  1  0  0  0  0
 18 17  2  0  0  0  0
 21 19  1  0  0  0  0
 21 20  1  0  0  0  0
 22 21  2  0  0  0  0
 23 22  1  0  0  0  0
 23 24  2  0  0  0  0
 24 25  1  0  0  0  0
 25 20  2  0  0  0  0
 26 24  1  0  0  0  0
 26 32  1  0  0  0  0
 27 26  1  0  0  0  0
 28 27  2  0  0  0  0
 28 29  1  0  0  0  0
 29 31  1  0  0  0  0
 30 29  2  0  0  0  0
 31 32  1  0  0  0  0
 31 35  1  0  0  0  0
 32 33  2  0  0  0  0
 34 28  1  0  0  0  0
M  END
>  <minimizedAffinity>
-7.65618658

$$$$

 OpenBabel03242509203D

 35 40  0  0  1  0  0  0  0  0999 V2000
   68.9870   60.8010   34.5210 C   0  0  2  0  0  3  0  0  0  0  0  0
   70.3220   61.3610   34.6710 C   0  0  0  0  0  2  0  0  0  0  0  0
   70.1950   60.2890   33.7040 C   0  0  2  0  0  3  0  0  0  0  0  0
   70.2160   60.4800   32.2470 C   0  0  0  0  0  0  0  0  0  0  0  0
   70.1490   59.6090   31.2220 N   0  0  0  0  0  0  0  0  0  0  0  0
   70.2170   60.2440   30.1110 O   0  0  0  0  0  0  0  0  0  0  0  0
   70.3300   61.5220   30.3090 C   0  0  0  0  0  0  0  0  0  0  0  0
   70.3300   61.6770   31.6470 N   0  0  0  0  0  0  0  0  0  0  0  0
   70.4480   62.7490   29.4940 C   0  0  0  0  0  0  0  0  0  0  0  0
   71.6280   63.4650   29.3300 C   0  0  0  0  0  3  0  0  0  0  0  0
   71.6940   64.5980   28.5650 C   0  0  0  0  0  3  0  0  0  0  0  0
   70.5900   65.0930   27.9110 C   0  0  0  0  0  3  0  0  0  0  0  0
   69.4000   64.4160   28.0450 C   0  0  0  0  0  0  0  0  0  0  0  0
   68.3260   64.9360   27.3810 C   0  0  0  0  0  3  0  0  0  0  0  0
   67.1040   64.3200   27.4640 C   0  0  0  0  0  3  0  0  0  0  0  0
   67.0090   63.1750   28.2300 C   0  0  0  0  0  3  0  0  0  0  0  0
   68.1290   62.6960   28.8760 C   0  0  0  0  0  3  0  0  0  0  0  0
   69.3670   63.2780   28.8230 C   0  0  0  0  0  0  0  0  0  0  0  0
   67.8940   61.5010   33.8080 C   0  0  0  0  0  2  0  0  0  0  0  0
   66.4950   59.4120   33.3730 C   0  0  0  0  0  3  0  0  0  0  0  0
   67.0620   60.6400   33.0120 C   0  0  0  0  0  0  0  0  0  0  0  0
   66.8110   61.1180   31.7300 C   0  0  0  0  0  3  0  0  0  0  0  0
   66.0260   60.3580   30.8980 N   0  0  0  0  0  0  0  0  0  0  0  0
   65.4900   59.1750   31.2690 C   0  0  0  0  0  0  0  0  0  0  0  0
   65.7370   58.7110   32.5240 N   0  0  0  0  0  0  0  0  0  0  0  0
   64.6910   58.4580   30.3380 N   0  0  0  0  0  0  0  0  0  0  0  0
   63.4890   58.9470   29.9860 C   0  0  0  0  0  3  0  0  0  0  0  0
   62.6170   58.3490   29.0940 C   0  0  0  0  0  0  0  0  0  0  0  0
   63.0230   57.1650   28.5310 C   0  0  0  0  0  0  0  0  0  0  0  0
   62.2880   56.5740   27.7200 O   0  0  0  0  0  0  0  0  0  0  0  0
   64.2430   56.6770   28.8920 N   0  0  0  0  0  0  0  0  0  0  0  0
   65.0660   57.3020   29.7750 C   0  0  0  0  0  0  0  0  0  0  0  0
   66.1830   56.8100   30.0760 O   0  0  0  0  0  0  0  0  0  0  0  0
   61.3150   58.9880   28.7850 C   0  0  0  0  0  1  0  0  0  0  0  0
   64.5570   55.7890   28.4750 H   0  0  0  0  0  0  0  0  0  0  0  0
  1 19  1  6  0  0  0
  1  2  1  0  0  0  0
  3  4  1  6  0  0  0
  3  1  1  0  0  0  0
  3  2  1  0  0  0  0
  5  4  2  0  0  0  0
  6  7  1  0  0  0  0
  6  5  1  0  0  0  0
  7  8  2  0  0  0  0
  8  4  1  0  0  0  0
  9  7  1  0  0  0  0
 10  9  1  0  0  0  0
 11 10  2  0  0  0  0
 12 13  2  0  0  0  0
 12 11  1  0  0  0  0
 13 18  1  0  0  0  0
 14 15  2  0  0  0  0
 14 13  1  0  0  0  0
 15 16  1  0  0  0  0
 16 17  2  0  0  0  0
 18 17  1  0  0  0  0
 18  9  2  0  0  0  0
 21 20  1  0  0  0  0
 21 19  1  0  0  0  0
 22 21  2  0  0  0  0
 23 24  2  0  0  0  0
 23 22  1  0  0  0  0
 24 25  1  0  0  0  0
 25 20  2  0  0  0  0
 26 24  1  0  0  0  0
 27 26  1  0  0  0  0
 28 27  2  0  0  0  0
 29 31  1  0  0  0  0
 29 28  1  0  0  0  0
 30 29  2  0  0  0  0
 31 32  1  0  0  0  0
 32 33  2  0  0  0  0
 32 26  1  0  0  0  0
 34 28  1  0  0  0  0
 35 31  1  0  0  0  0
M  END
>  <minimizedAffinity>
-7.50162506

$$$$

 OpenBabel03242509203D

 35 40  0  0  1  0  0  0  0  0999 V2000
   63.9940   63.7780   30.5820 C   0  0  2  0  0  3  0  0  0  0  0  0
   63.3130   63.9320   31.8590 C   0  0  0  0  0  2  0  0  0  0  0  0
   62.5910   64.4150   30.6990 C   0  0  2  0  0  3  0  0  0  0  0  0
   61.4350   63.7340   30.0980 C   0  0  0  0  0  0  0  0  0  0  0  0
   60.1460   63.6390   30.4770 N   0  0  0  0  0  0  0  0  0  0  0  0
   59.5010   62.9220   29.6340 O   0  0  0  0  0  0  0  0  0  0  0  0
   60.2770   62.5080   28.6800 C   0  0  0  0  0  0  0  0  0  0  0  0
   61.4930   63.0130   28.9650 N   0  0  0  0  0  0  0  0  0  0  0  0
   60.1650   61.6850   27.4580 C   0  0  0  0  0  0  0  0  0  0  0  0
   59.5630   62.1130   26.2810 C   0  0  0  0  0  3  0  0  0  0  0  0
   59.4810   61.3180   25.1700 C   0  0  0  0  0  3  0  0  0  0  0  0
   59.9950   60.0420   25.1570 C   0  0  0  0  0  3  0  0  0  0  0  0
   60.6010   59.5760   26.3010 C   0  0  0  0  0  0  0  0  0  0  0  0
   61.1000   58.3050   26.2490 C   0  0  0  0  0  3  0  0  0  0  0  0
   61.7190   57.7670   27.3490 C   0  0  0  0  0  3  0  0  0  0  0  0
   61.8140   58.5480   28.4820 C   0  0  0  0  0  3  0  0  0  0  0  0
   61.2930   59.8250   28.4730 C   0  0  0  0  0  3  0  0  0  0  0  0
   60.6670   60.4020   27.4020 C   0  0  0  0  0  0  0  0  0  0  0  0
   64.1270   62.4760   29.8900 C   0  0  0  0  0  2  0  0  0  0  0  0
   64.5290   60.0940   30.7120 C   0  0  0  0  0  3  0  0  0  0  0  0
   64.8040   61.4650   30.6560 C   0  0  0  0  0  0  0  0  0  0  0  0
   65.8560   61.9460   31.4290 C   0  0  0  0  0  3  0  0  0  0  0  0
   66.5580   61.0510   32.1970 N   0  0  0  0  0  0  0  0  0  0  0  0
   66.2730   59.7310   32.2340 C   0  0  0  0  0  0  0  0  0  0  0  0
   65.2440   59.2630   31.4770 N   0  0  0  0  0  0  0  0  0  0  0  0
   67.0560   58.8800   33.0610 N   0  0  0  0  0  0  0  0  0  0  0  0
   68.3380   58.6430   32.7370 C   0  0  0  0  0  3  0  0  0  0  0  0
   69.2040   57.8370   33.4540 C   0  0  0  0  0  0  0  0  0  0  0  0
   68.7020   57.2390   34.5830 C   0  0  0  0  0  0  0  0  0  0  0  0
   69.4270   56.5020   35.2750 O   0  0  0  0  0  0  0  0  0  0  0  0
   67.4010   57.4850   34.9040 N   0  0  0  0  0  0  0  0  0  0  0  0
   66.5880   58.2860   34.1660 C   0  0  0  0  0  0  0  0  0  0  0  0
   65.3930   58.4810   34.5050 O   0  0  0  0  0  0  0  0  0  0  0  0
   70.6030   57.6530   32.9950 C   0  0  0  0  0  1  0  0  0  0  0  0
   67.0140   57.0410   35.7500 H   0  0  0  0  0  0  0  0  0  0  0  0
  1 19  1  6  0  0  0
  1  3  1  0  0  0  0
  1  2  1  0  0  0  0
  3  4  1  6  0  0  0
  3  2  1  0  0  0  0
  4  5  2  0  0  0  0
  6  5  1  0  0  0  0
  7  8  2  0  0  0  0
  7  6  1  0  0  0  0
  8  4  1  0  0  0  0
  9  7  1  0  0  0  0
 10  9  2  0  0  0  0
 11 10  1  0  0  0  0
 12 11  2  0  0  0  0
 12 13  1  0  0  0  0
 13 18  1  0  0  0  0
 14 13  2  0  0  0  0
 14 15  1  0  0  0  0
 15 16  2  0  0  0  0
 17 16  1  0  0  0  0
 18  9  1  0  0  0  0
 18 17  2  0  0  0  0
 19 21  1  0  0  0  0
 20 25  2  0  0  0  0
 21 20  1  0  0  0  0
 21 22  2  0  0  0  0
 22 23  1  0  0  0  0
 23 24  2  0  0  0  0
 24 26  1  0  0  0  0
 25 24  1  0  0  0  0
 26 32  1  0  0  0  0
 27 26  1  0  0  0  0
 27 28  2  0  0  0  0
 28 29  1  0  0  0  0
 29 31  1  0  0  0  0
 29 30  2  0  0  0  0
 31 35  1  0  0  0  0
 32 33  2  0  0  0  0
 32 31  1  0  0  0  0
 34 28  1  0  0  0  0
M  END
>  <minimizedAffinity>
-7.33496857

$$$$

 OpenBabel03242509203D

 35 40  0  0  1  0  0  0  0  0999 V2000
   64.5700   62.4460   31.1080 C   0  0  2  0  0  3  0  0  0  0  0  0
   63.7530   63.4900   30.5090 C   0  0  0  0  0  2  0  0  0  0  0  0
   65.1700   63.7790   30.6060 C   0  0  2  0  0  3  0  0  0  0  0  0
   66.0970   63.7710   29.4660 C   0  0  0  0  0  0  0  0  0  0  0  0
   65.8980   63.6350   28.1410 N   0  0  0  0  0  0  0  0  0  0  0  0
   67.0220   63.6800   27.5280 O   0  0  0  0  0  0  0  0  0  0  0  0
   68.0040   63.8420   28.3620 C   0  0  0  0  0  0  0  0  0  0  0  0
   67.4300   63.8990   29.5800 N   0  0  0  0  0  0  0  0  0  0  0  0
   69.4750   63.9670   28.3100 C   0  0  0  0  0  0  0  0  0  0  0  0
   70.1460   65.0500   27.7550 C   0  0  0  0  0  3  0  0  0  0  0  0
   71.5120   65.1270   27.7280 C   0  0  0  0  0  3  0  0  0  0  0  0
   72.3020   64.1300   28.2520 C   0  0  0  0  0  3  0  0  0  0  0  0
   71.6790   63.0380   28.8120 C   0  0  0  0  0  0  0  0  0  0  0  0
   72.4960   62.0690   29.3230 C   0  0  0  0  0  3  0  0  0  0  0  0
   71.9530   60.9490   29.8980 C   0  0  0  0  0  3  0  0  0  0  0  0
   70.5770   60.8470   29.9390 C   0  0  0  0  0  3  0  0  0  0  0  0
   69.8050   61.8580   29.4080 C   0  0  0  0  0  3  0  0  0  0  0  0
   70.3020   62.9920   28.8240 C   0  0  0  0  0  0  0  0  0  0  0  0
   64.9290   61.1960   30.4000 C   0  0  0  0  0  2  0  0  0  0  0  0
   64.7130   59.0260   31.7260 C   0  0  0  0  0  3  0  0  0  0  0  0
   65.4090   60.1470   31.2580 C   0  0  0  0  0  0  0  0  0  0  0  0
   66.7340   60.2980   31.6550 C   0  0  0  0  0  3  0  0  0  0  0  0
   67.2760   59.3440   32.4790 N   0  0  0  0  0  0  0  0  0  0  0  0
   66.5840   58.2700   32.9180 C   0  0  0  0  0  0  0  0  0  0  0  0
   65.2890   58.1250   32.5280 N   0  0  0  0  0  0  0  0  0  0  0  0
   67.2300   57.3340   33.7710 N   0  0  0  0  0  0  0  0  0  0  0  0
   68.2100   56.5600   33.2760 C   0  0  0  0  0  3  0  0  0  0  0  0
   68.9160   55.6130   33.9970 C   0  0  0  0  0  0  0  0  0  0  0  0
   68.5790   55.4640   35.3190 C   0  0  0  0  0  0  0  0  0  0  0  0
   69.1740   54.6300   36.0260 O   0  0  0  0  0  0  0  0  0  0  0  0
   67.5850   56.2530   35.8120 N   0  0  0  0  0  0  0  0  0  0  0  0
   66.9190   57.1710   35.0630 C   0  0  0  0  0  0  0  0  0  0  0  0
   66.0070   57.8760   35.5650 O   0  0  0  0  0  0  0  0  0  0  0  0
   69.9810   54.8170   33.3380 C   0  0  0  0  0  1  0  0  0  0  0  0
   67.3240   56.1490   36.8030 H   0  0  0  0  0  0  0  0  0  0  0  0
  1 19  1  6  0  0  0
  2  3  1  0  0  0  0
  2  1  1  0  0  0  0
  3  4  1  6  0  0  0
  3  1  1  0  0  0  0
  4  8  1  0  0  0  0
  5  4  2  0  0  0  0
  6  5  1  0  0  0  0
  6  7  1  0  0  0  0
  7  8  2  0  0  0  0
  9  7  1  0  0  0  0
  9 18  1  0  0  0  0
 10  9  2  0  0  0  0
 11 10  1  0  0  0  0
 11 12  2  0  0  0  0
 12 13  1  0  0  0  0
 13 18  2  0  0  0  0
 13 14  1  0  0  0  0
 14 15  2  0  0  0  0
 15 16  1  0  0  0  0
 17 16  2  0  0  0  0
 18 17  1  0  0  0  0
 19 21  1  0  0  0  0
 20 25  2  0  0  0  0
 21 22  2  0  0  0  0
 21 20  1  0  0  0  0
 22 23  1  0  0  0  0
 23 24  2  0  0  0  0
 24 26  1  0  0  0  0
 25 24  1  0  0  0  0
 26 32  1  0  0  0  0
 27 26  1  0  0  0  0
 27 28  2  0  0  0  0
 28 29  1  0  0  0  0
 29 31  1  0  0  0  0
 29 30  2  0  0  0  0
 31 35  1  0  0  0  0
 32 33  2  0  0  0  0
 32 31  1  0  0  0  0
 34 28  1  0  0  0  0
M  END
>  <minimizedAffinity>
-7.26046801

$$$$

 OpenBabel03242509203D

 35 40  0  0  1  0  0  0  0  0999 V2000
   65.0790   58.6730   30.9030 C   0  0  2  0  0  3  0  0  0  0  0  0
   66.0020   57.5550   30.7840 C   0  0  0  0  0  2  0  0  0  0  0  0
   64.6610   57.3180   30.2870 C   0  0  2  0  0  3  0  0  0  0  0  0
   64.3050   57.2500   28.8630 C   0  0  0  0  0  0  0  0  0  0  0  0
   65.0510   57.2990   27.7420 N   0  0  0  0  0  0  0  0  0  0  0  0
   64.2910   57.2120   26.7150 O   0  0  0  0  0  0  0  0  0  0  0  0
   63.0440   57.1040   27.0610 C   0  0  0  0  0  0  0  0  0  0  0  0
   63.0460   57.1280   28.4080 N   0  0  0  0  0  0  0  0  0  0  0  0
   61.7310   56.9730   26.3970 C   0  0  0  0  0  0  0  0  0  0  0  0
   61.2370   55.7840   25.8740 C   0  0  0  0  0  3  0  0  0  0  0  0
   60.0130   55.7070   25.2660 C   0  0  0  0  0  3  0  0  0  0  0  0
   59.1990   56.8080   25.1390 C   0  0  0  0  0  3  0  0  0  0  0  0
   59.6480   58.0070   25.6430 C   0  0  0  0  0  0  0  0  0  0  0  0
   58.8120   59.0780   25.5000 C   0  0  0  0  0  3  0  0  0  0  0  0
   59.1870   60.3080   25.9750 C   0  0  0  0  0  3  0  0  0  0  0  0
   60.4170   60.4140   26.5930 C   0  0  0  0  0  3  0  0  0  0  0  0
   61.2170   59.2970   26.7100 C   0  0  0  0  0  3  0  0  0  0  0  0
   60.8850   58.0510   26.2490 C   0  0  0  0  0  0  0  0  0  0  0  0
   65.1360   59.8630   30.0240 C   0  0  0  0  0  2  0  0  0  0  0  0
   64.2300   62.2290   30.3280 C   0  0  0  0  0  3  0  0  0  0  0  0
   64.9840   61.1160   30.7140 C   0  0  0  0  0  0  0  0  0  0  0  0
   65.6910   61.1950   31.9100 C   0  0  0  0  0  3  0  0  0  0  0  0
   65.6080   62.3580   32.6350 N   0  0  0  0  0  0  0  0  0  0  0  0
   64.8720   63.4200   32.2410 C   0  0  0  0  0  0  0  0  0  0  0  0
   64.1810   63.3380   31.0730 N   0  0  0  0  0  0  0  0  0  0  0  0
   64.8470   64.5830   33.0590 N   0  0  0  0  0  0  0  0  0  0  0  0
   64.2290   64.5370   34.2520 C   0  0  0  0  0  3  0  0  0  0  0  0
   64.1330   65.5930   35.1390 C   0  0  0  0  0  0  0  0  0  0  0  0
   64.7190   66.7750   34.7600 C   0  0  0  0  0  0  0  0  0  0  0  0
   64.6710   67.7660   35.5110 O   0  0  0  0  0  0  0  0  0  0  0  0
   65.3430   66.8130   33.5500 N   0  0  0  0  0  0  0  0  0  0  0  0
   65.4110   65.7460   32.7100 C   0  0  0  0  0  0  0  0  0  0  0  0
   65.9990   65.8320   31.6030 O   0  0  0  0  0  0  0  0  0  0  0  0
   63.4240   65.4190   36.4300 C   0  0  0  0  0  1  0  0  0  0  0  0
   65.7870   67.6950   33.2560 H   0  0  0  0  0  0  0  0  0  0  0  0
  1 19  1  6  0  0  0
  2  1  1  0  0  0  0
  3  4  1  6  0  0  0
  3  2  1  0  0  0  0
  3  1  1  0  0  0  0
  5  4  2  0  0  0  0
  6  7  1  0  0  0  0
  6  5  1  0  0  0  0
  7  8  2  0  0  0  0
  8  4  1  0  0  0  0
  9  7  1  0  0  0  0
 10  9  2  0  0  0  0
 11 10  1  0  0  0  0
 12 11  2  0  0  0  0
 12 13  1  0  0  0  0
 13 18  1  0  0  0  0
 14 13  2  0  0  0  0
 14 15  1  0  0  0  0
 15 16  2  0  0  0  0
 16 17  1  0  0  0  0
 18  9  1  0  0  0  0
 18 17  2  0  0  0  0
 19 21  1  0  0  0  0
 20 21  1  0  0  0  0
 20 25  2  0  0  0  0
 21 22  2  0  0  0  0
 22 23  1  0  0  0  0
 24 23  2  0  0  0  0
 24 26  1  0  0  0  0
 25 24  1  0  0  0  0
 26 27  1  0  0  0  0
 27 28  2  0  0  0  0
 28 34  1  0  0  0  0
 29 28  1  0  0  0  0
 29 30  2  0  0  0  0
 31 29  1  0  0  0  0
 32 26  1  0  0  0  0
 32 31  1  0  0  0  0
 33 32  2  0  0  0  0
 35 31  1  0  0  0  0
M  END
>  <minimizedAffinity>
-7.22401571

$$$$

 OpenBabel03242509203D

 35 40  0  0  1  0  0  0  0  0999 V2000
   64.6150   58.7650   31.2210 C   0  0  2  0  0  3  0  0  0  0  0  0
   65.7110   57.8120   31.1320 C   0  0  0  0  0  2  0  0  0  0  0  0
   64.4450   57.3660   30.5850 C   0  0  2  0  0  3  0  0  0  0  0  0
   64.1550   57.2530   29.1500 C   0  0  0  0  0  0  0  0  0  0  0  0
   64.9400   57.3530   28.0590 N   0  0  0  0  0  0  0  0  0  0  0  0
   64.2330   57.1920   27.0030 O   0  0  0  0  0  0  0  0  0  0  0  0
   62.9860   56.9840   27.3000 C   0  0  0  0  0  0  0  0  0  0  0  0
   62.9300   57.0220   28.6460 N   0  0  0  0  0  0  0  0  0  0  0  0
   61.7180   56.7380   26.5850 C   0  0  0  0  0  0  0  0  0  0  0  0
   61.2410   55.4750   26.2550 C   0  0  0  0  0  3  0  0  0  0  0  0
   60.0580   55.2910   25.5920 C   0  0  0  0  0  3  0  0  0  0  0  0
   59.2700   56.3530   25.2120 C   0  0  0  0  0  3  0  0  0  0  0  0
   59.7040   57.6230   25.5180 C   0  0  0  0  0  0  0  0  0  0  0  0
   58.8950   58.6520   25.1270 C   0  0  0  0  0  3  0  0  0  0  0  0
   59.2570   59.9470   25.3940 C   0  0  0  0  0  3  0  0  0  0  0  0
   60.4450   60.1610   26.0620 C   0  0  0  0  0  3  0  0  0  0  0  0
   61.2180   59.0810   26.4330 C   0  0  0  0  0  3  0  0  0  0  0  0
   60.8990   57.7730   26.1870 C   0  0  0  0  0  0  0  0  0  0  0  0
   64.5090   59.9560   30.3480 C   0  0  0  0  0  2  0  0  0  0  0  0
   66.3340   61.5400   29.5260 C   0  0  0  0  0  3  0  0  0  0  0  0
   65.5730   60.9090   30.5170 C   0  0  0  0  0  0  0  0  0  0  0  0
   65.8560   61.2160   31.8440 C   0  0  0  0  0  3  0  0  0  0  0  0
   66.8610   62.1150   32.1010 N   0  0  0  0  0  0  0  0  0  0  0  0
   67.5820   62.7120   31.1270 C   0  0  0  0  0  0  0  0  0  0  0  0
   67.3030   62.4100   29.8300 N   0  0  0  0  0  0  0  0  0  0  0  0
   68.6040   63.6300   31.4900 N   0  0  0  0  0  0  0  0  0  0  0  0
   68.2670   64.8130   32.0300 C   0  0  0  0  0  3  0  0  0  0  0  0
   69.1610   65.7910   32.4250 C   0  0  0  0  0  0  0  0  0  0  0  0
   70.4950   65.5200   32.2450 C   0  0  0  0  0  0  0  0  0  0  0  0
   71.3540   66.3560   32.5800 O   0  0  0  0  0  0  0  0  0  0  0  0
   70.8280   64.3180   31.6980 N   0  0  0  0  0  0  0  0  0  0  0  0
   69.9110   63.3870   31.3240 C   0  0  0  0  0  0  0  0  0  0  0  0
   70.2700   62.2920   30.8220 O   0  0  0  0  0  0  0  0  0  0  0  0
   68.6650   67.0600   33.0110 C   0  0  0  0  0  1  0  0  0  0  0  0
   71.8260   64.1040   31.5590 H   0  0  0  0  0  0  0  0  0  0  0  0
  1 19  1  6  0  0  0
  2  1  1  0  0  0  0
  3  4  1  6  0  0  0
  3  2  1  0  0  0  0
  3  1  1  0  0  0  0
  5  4  2  0  0  0  0
  6  7  1  0  0  0  0
  6  5  1  0  0  0  0
  7  8  2  0  0  0  0
  8  4  1  0  0  0  0
  9  7  1  0  0  0  0
 10  9  1  0  0  0  0
 11 10  2  0  0  0  0
 12 13  2  0  0  0  0
 12 11  1  0  0  0  0
 13 18  1  0  0  0  0
 14 15  2  0  0  0  0
 14 13  1  0  0  0  0
 15 16  1  0  0  0  0
 16 17  2  0  0  0  0
 18 17  1  0  0  0  0
 18  9  2  0  0  0  0
 19 21  1  0  0  0  0
 20 25  2  0  0  0  0
 20 21  1  0  0  0  0
 21 22  2  0  0  0  0
 22 23  1  0  0  0  0
 24 26  1  0  0  0  0
 24 23  2  0  0  0  0
 25 24  1  0  0  0  0
 26 27  1  0  0  0  0
 27 28  2  0  0  0  0
 28 34  1  0  0  0  0
 29 28  1  0  0  0  0
 29 30  2  0  0  0  0
 31 29  1  0  0  0  0
 32 26  1  0  0  0  0
 32 31  1  0  0  0  0
 33 32  2  0  0  0  0
 35 31  1  0  0  0  0
M  END
>  <minimizedAffinity>
-6.91956711

$$$$
