
 OpenBabel03242509253D

 37 41  0  0  0  0  0  0  0  0999 V2000
   59.9240   60.7750   28.6510 O   0  0  0  0  0  0  0  0  0  0  0  0
   60.8700   58.8350   24.5680 N   0  0  0  0  0  0  0  0  0  0  0  0
   60.0090   59.8590   24.4170 C   0  0  0  0  0  3  0  0  0  0  0  0
   59.7920   60.3600   25.6460 N   0  0  0  0  0  0  0  0  0  0  0  0
   60.5000   59.6620   26.5270 C   0  0  0  0  0  0  0  0  0  0  0  0
   60.5920   59.8150   27.8970 C   0  0  0  0  0  0  0  0  0  0  0  0
   61.3980   58.9560   28.5520 N   0  0  0  0  0  0  0  0  0  0  0  0
   62.0860   57.9910   27.9110 C   0  0  0  0  0  0  0  0  0  0  0  0
   61.9870   57.8570   26.5820 N   0  0  0  0  0  0  0  0  0  0  0  0
   61.1960   58.6840   25.8560 C   0  0  0  0  0  0  0  0  0  0  0  0
   61.2270   58.2500   23.8000 H   0  0  0  0  0  0  0  0  0  0  0  0
   62.9390   57.1150   28.7800 C   0  0  0  0  0  2  0  0  0  0  0  0
   64.3970   57.5770   28.6690 C   0  0  0  0  0  2  0  0  0  0  0  0
   64.9600   57.5800   30.0340 C   0  0  0  0  0  0  0  0  0  0  0  0
   64.2530   58.1890   31.0590 C   0  0  0  0  0  3  0  0  0  0  0  0
   64.8810   58.1280   32.3010 C   0  0  0  0  0  3  0  0  0  0  0  0
   66.0990   57.5090   32.4750 C   0  0  0  0  0  3  0  0  0  0  0  0
   66.7530   56.9190   31.4090 C   0  0  0  0  0  3  0  0  0  0  0  0
   66.1340   56.9840   30.2070 N   0  0  0  0  0  0  0  0  0  0  0  0
   60.1640   62.1260   28.4990 C   0  0  0  0  0  0  0  0  0  0  0  0
   59.4560   62.7210   27.6350 O   0  0  0  0  0  0  0  0  0  0  0  0
   61.6500   64.3850   30.9360 C   0  0  0  0  0  3  0  0  0  0  0  0
   63.0100   64.2210   30.7730 C   0  0  0  0  0  3  0  0  0  0  0  0
   63.4330   63.3090   29.7990 C   0  0  0  0  0  0  0  0  0  0  0  0
   62.4970   62.6400   29.0720 N   0  0  0  0  0  0  0  0  0  0  0  0
   61.1610   62.8370   29.2700 C   0  0  0  0  0  0  0  0  0  0  0  0
   60.7710   63.7010   30.1940 N   0  0  0  0  0  0  0  0  0  0  0  0
   64.8030   63.0700   29.5550 N   0  0  0  0  0  0  0  0  0  0  0  0
   65.4900   63.6660   28.5770 C   0  0  0  0  0  3  0  0  0  0  0  0
   66.8300   63.3900   28.3870 C   0  0  0  0  0  0  0  0  0  0  0  0
   67.5400   64.1010   27.2650 C   0  0  0  0  0  1  0  0  0  0  0  0
   67.5150   62.4940   29.1900 C   0  0  0  0  0  0  0  0  0  0  0  0
   68.7390   62.2540   29.0020 O   0  0  0  0  0  0  0  0  0  0  0  0
   66.7790   61.9130   30.1680 N   0  0  0  0  0  0  0  0  0  0  0  0
   65.4720   62.2000   30.3330 C   0  0  0  0  0  0  0  0  0  0  0  0
   64.8320   61.6310   31.2590 O   0  0  0  0  0  0  0  0  0  0  0  0
   67.2280   61.2360   30.8010 H   0  0  0  0  0  0  0  0  0  0  0  0
  2 10  1  0  0  0  0
  3  2  1  0  0  0  0
  3  4  2  0  0  0  0
  4  5  1  0  0  0  0
  5  6  1  0  0  0  0
  6  7  2  0  0  0  0
  6  1  1  0  0  0  0
  8  7  1  0  0  0  0
  8 12  1  0  0  0  0
  9  8  2  0  0  0  0
 10  5  2  0  0  0  0
 10  9  1  0  0  0  0
 11  2  1  0  0  0  0
 13 12  1  0  0  0  0
 13 14  1  0  0  0  0
 14 19  2  0  0  0  0
 14 15  1  0  0  0  0
 15 16  2  0  0  0  0
 16 17  1  0  0  0  0
 18 17  2  0  0  0  0
 19 18  1  0  0  0  0
 20  1  1  0  0  0  0
 20 26  1  0  0  0  0
 21 20  2  0  0  0  0
 23 22  1  0  0  0  0
 24 23  2  0  0  0  0
 25 26  2  0  0  0  0
 25 24  1  0  0  0  0
 26 27  1  0  0  0  0
 27 22  2  0  0  0  0
 28 24  1  0  0  0  0
 28 35  1  0  0  0  0
 29 28  1  0  0  0  0
 30 29  2  0  0  0  0
 30 32  1  0  0  0  0
 31 30  1  0  0  0  0
 32 34  1  0  0  0  0
 33 32  2  0  0  0  0
 34 35  1  0  0  0  0
 34 37  1  0  0  0  0
 35 36  2  0  0  0  0
M  END
>  <minimizedAffinity>
-7.64666557

$$$$

 OpenBabel03242509253D

 37 41  0  0  0  0  0  0  0  0999 V2000
   63.2460   57.1370   29.0440 O   0  0  0  0  0  0  0  0  0  0  0  0
   60.5820   57.4990   25.2900 N   0  0  0  0  0  0  0  0  0  0  0  0
   61.3570   56.4000   25.2160 C   0  0  0  0  0  3  0  0  0  0  0  0
   62.0930   56.3760   26.3410 N   0  0  0  0  0  0  0  0  0  0  0  0
   61.7780   57.4300   27.0850 C   0  0  0  0  0  0  0  0  0  0  0  0
   62.2740   57.8150   28.3160 C   0  0  0  0  0  0  0  0  0  0  0  0
   61.7670   58.9440   28.8500 N   0  0  0  0  0  0  0  0  0  0  0  0
   60.8230   59.6710   28.2210 C   0  0  0  0  0  0  0  0  0  0  0  0
   60.3530   59.2840   27.0280 N   0  0  0  0  0  0  0  0  0  0  0  0
   60.8140   58.1590   26.4290 C   0  0  0  0  0  0  0  0  0  0  0  0
   59.9060   57.7910   24.5700 H   0  0  0  0  0  0  0  0  0  0  0  0
   60.3620   60.9020   28.9440 C   0  0  0  0  0  2  0  0  0  0  0  0
   60.8200   62.1370   28.1600 C   0  0  0  0  0  2  0  0  0  0  0  0
   61.4500   63.0590   29.1260 C   0  0  0  0  0  0  0  0  0  0  0  0
   60.6830   64.0490   29.7200 C   0  0  0  0  0  3  0  0  0  0  0  0
   61.3840   64.8560   30.6140 C   0  0  0  0  0  3  0  0  0  0  0  0
   62.7250   64.6690   30.8710 C   0  0  0  0  0  3  0  0  0  0  0  0
   63.4330   63.6610   30.2420 C   0  0  0  0  0  3  0  0  0  0  0  0
   62.7420   62.8830   29.3780 N   0  0  0  0  0  0  0  0  0  0  0  0
   64.5710   57.5270   29.0430 C   0  0  0  0  0  0  0  0  0  0  0  0
   65.2120   57.3080   27.9730 O   0  0  0  0  0  0  0  0  0  0  0  0
   65.3040   59.9320   31.6750 C   0  0  0  0  0  3  0  0  0  0  0  0
   66.3740   59.3840   32.3530 C   0  0  0  0  0  3  0  0  0  0  0  0
   66.8600   58.1540   31.8960 C   0  0  0  0  0  0  0  0  0  0  0  0
   66.2640   57.5670   30.8220 N   0  0  0  0  0  0  0  0  0  0  0  0
   65.2060   58.1490   30.1840 C   0  0  0  0  0  0  0  0  0  0  0  0
   64.7540   59.3120   30.6240 N   0  0  0  0  0  0  0  0  0  0  0  0
   67.9510   57.5120   32.5200 N   0  0  0  0  0  0  0  0  0  0  0  0
   67.8190   56.4540   33.3260 C   0  0  0  0  0  3  0  0  0  0  0  0
   68.9260   55.8680   33.9080 C   0  0  0  0  0  0  0  0  0  0  0  0
   68.6990   54.6790   34.8040 C   0  0  0  0  0  1  0  0  0  0  0  0
   70.2070   56.3430   33.6900 C   0  0  0  0  0  0  0  0  0  0  0  0
   71.2070   55.7970   34.2310 O   0  0  0  0  0  0  0  0  0  0  0  0
   70.2940   57.4180   32.8670 N   0  0  0  0  0  0  0  0  0  0  0  0
   69.1980   57.9710   32.3100 C   0  0  0  0  0  0  0  0  0  0  0  0
   69.3340   58.9700   31.5520 O   0  0  0  0  0  0  0  0  0  0  0  0
   71.2200   57.8210   32.6630 H   0  0  0  0  0  0  0  0  0  0  0  0
  2 10  1  0  0  0  0
  3  2  1  0  0  0  0
  3  4  2  0  0  0  0
  4  5  1  0  0  0  0
  5  6  1  0  0  0  0
  6  7  2  0  0  0  0
  6  1  1  0  0  0  0
  8  7  1  0  0  0  0
  8 12  1  0  0  0  0
  9  8  2  0  0  0  0
 10  9  1  0  0  0  0
 10  5  2  0  0  0  0
 11  2  1  0  0  0  0
 13 12  1  0  0  0  0
 13 14  1  0  0  0  0
 14 19  2  0  0  0  0
 14 15  1  0  0  0  0
 15 16  2  0  0  0  0
 16 17  1  0  0  0  0
 18 17  2  0  0  0  0
 19 18  1  0  0  0  0
 20  1  1  0  0  0  0
 20 26  1  0  0  0  0
 21 20  2  0  0  0  0
 22 23  1  0  0  0  0
 24 23  2  0  0  0  0
 24 28  1  0  0  0  0
 25 24  1  0  0  0  0
 26 27  1  0  0  0  0
 26 25  2  0  0  0  0
 27 22  2  0  0  0  0
 28 29  1  0  0  0  0
 29 30  2  0  0  0  0
 30 31  1  0  0  0  0
 32 30  1  0  0  0  0
 32 33  2  0  0  0  0
 34 32  1  0  0  0  0
 35 28  1  0  0  0  0
 35 34  1  0  0  0  0
 36 35  2  0  0  0  0
 37 34  1  0  0  0  0
M  END
>  <minimizedAffinity>
-7.5408864

$$$$

 OpenBabel03242509253D

 37 41  0  0  0  0  0  0  0  0999 V2000
   66.0380   60.2650   32.5190 O   0  0  0  0  0  0  0  0  0  0  0  0
   67.7950   55.9980   32.3540 N   0  0  0  0  0  0  0  0  0  0  0  0
   68.2500   56.6550   33.4380 C   0  0  0  0  0  3  0  0  0  0  0  0
   67.6910   57.8780   33.4040 N   0  0  0  0  0  0  0  0  0  0  0  0
   66.9160   57.9690   32.3300 C   0  0  0  0  0  0  0  0  0  0  0  0
   66.1480   59.0300   31.8890 C   0  0  0  0  0  0  0  0  0  0  0  0
   65.4500   58.8430   30.7520 N   0  0  0  0  0  0  0  0  0  0  0  0
   65.4910   57.6820   30.0690 C   0  0  0  0  0  0  0  0  0  0  0  0
   66.2400   56.6630   30.5110 N   0  0  0  0  0  0  0  0  0  0  0  0
   66.9690   56.7760   31.6470 C   0  0  0  0  0  0  0  0  0  0  0  0
   68.0480   55.0320   32.1040 H   0  0  0  0  0  0  0  0  0  0  0  0
   64.6590   57.6310   28.8220 C   0  0  0  0  0  2  0  0  0  0  0  0
   63.3110   56.9800   29.1530 C   0  0  0  0  0  2  0  0  0  0  0  0
   62.4960   57.0120   27.9220 C   0  0  0  0  0  0  0  0  0  0  0  0
   62.3850   55.8660   27.1500 C   0  0  0  0  0  3  0  0  0  0  0  0
   61.5910   56.0160   26.0150 C   0  0  0  0  0  3  0  0  0  0  0  0
   60.9760   57.2090   25.7050 C   0  0  0  0  0  3  0  0  0  0  0  0
   61.1270   58.3170   26.5200 C   0  0  0  0  0  3  0  0  0  0  0  0
   61.9000   58.1600   27.6190 N   0  0  0  0  0  0  0  0  0  0  0  0
   66.7560   61.3690   32.1020 C   0  0  0  0  0  0  0  0  0  0  0  0
   67.9820   61.3840   32.4170 O   0  0  0  0  0  0  0  0  0  0  0  0
   66.4400   64.4410   30.1760 C   0  0  0  0  0  3  0  0  0  0  0  0
   65.0900   64.5420   29.9070 C   0  0  0  0  0  3  0  0  0  0  0  0
   64.2620   63.5270   30.4000 C   0  0  0  0  0  0  0  0  0  0  0  0
   64.8190   62.5070   31.1090 N   0  0  0  0  0  0  0  0  0  0  0  0
   66.1620   62.4520   31.3490 C   0  0  0  0  0  0  0  0  0  0  0  0
   66.9370   63.4160   30.8790 N   0  0  0  0  0  0  0  0  0  0  0  0
   62.8670   63.5390   30.1800 N   0  0  0  0  0  0  0  0  0  0  0  0
   62.2790   62.9100   29.1590 C   0  0  0  0  0  3  0  0  0  0  0  0
   60.9090   62.9580   28.9960 C   0  0  0  0  0  0  0  0  0  0  0  0
   60.3160   62.2240   27.8220 C   0  0  0  0  0  1  0  0  0  0  0  0
   60.0900   63.6520   29.8710 C   0  0  0  0  0  0  0  0  0  0  0  0
   58.8400   63.6850   29.7070 O   0  0  0  0  0  0  0  0  0  0  0  0
   60.7290   64.2750   30.8910 N   0  0  0  0  0  0  0  0  0  0  0  0
   62.0690   64.2120   31.0280 C   0  0  0  0  0  0  0  0  0  0  0  0
   62.6150   64.8100   31.9960 O   0  0  0  0  0  0  0  0  0  0  0  0
   60.1790   64.8080   31.5780 H   0  0  0  0  0  0  0  0  0  0  0  0
  2  3  1  0  0  0  0
  4  3  2  0  0  0  0
  5  4  1  0  0  0  0
  6  5  1  0  0  0  0
  6  1  1  0  0  0  0
  7  6  2  0  0  0  0
  8  9  2  0  0  0  0
  8  7  1  0  0  0  0
  9 10  1  0  0  0  0
 10  5  2  0  0  0  0
 10  2  1  0  0  0  0
 11  2  1  0  0  0  0
 12 13  1  0  0  0  0
 12  8  1  0  0  0  0
 14 13  1  0  0  0  0
 15 14  2  0  0  0  0
 16 15  1  0  0  0  0
 17 16  2  0  0  0  0
 17 18  1  0  0  0  0
 18 19  2  0  0  0  0
 19 14  1  0  0  0  0
 20 21  2  0  0  0  0
 20  1  1  0  0  0  0
 22 27  2  0  0  0  0
 23 22  1  0  0  0  0
 23 24  2  0  0  0  0
 24 25  1  0  0  0  0
 25 26  2  0  0  0  0
 26 20  1  0  0  0  0
 27 26  1  0  0  0  0
 28 24  1  0  0  0  0
 28 35  1  0  0  0  0
 29 28  1  0  0  0  0
 30 29  2  0  0  0  0
 30 32  1  0  0  0  0
 31 30  1  0  0  0  0
 32 34  1  0  0  0  0
 33 32  2  0  0  0  0
 34 35  1  0  0  0  0
 34 37  1  0  0  0  0
 35 36  2  0  0  0  0
M  END
>  <minimizedAffinity>
-7.36681986

$$$$

 OpenBabel03242509253D

 37 41  0  0  0  0  0  0  0  0999 V2000
   68.0420   60.3180   32.1500 O   0  0  0  0  0  0  0  0  0  0  0  0
   68.4980   55.8090   33.0350 N   0  0  0  0  0  0  0  0  0  0  0  0
   69.5420   56.4970   33.5360 C   0  0  0  0  0  3  0  0  0  0  0  0
   69.3260   57.7900   33.2330 N   0  0  0  0  0  0  0  0  0  0  0  0
   68.1830   57.8920   32.5660 C   0  0  0  0  0  0  0  0  0  0  0  0
   67.5620   59.0160   32.0560 C   0  0  0  0  0  0  0  0  0  0  0  0
   66.3920   58.8260   31.4150 N   0  0  0  0  0  0  0  0  0  0  0  0
   65.8450   57.6030   31.2720 C   0  0  0  0  0  0  0  0  0  0  0  0
   66.4600   56.5230   31.7720 N   0  0  0  0  0  0  0  0  0  0  0  0
   67.6390   56.6360   32.4300 C   0  0  0  0  0  0  0  0  0  0  0  0
   68.3780   54.7890   33.1070 H   0  0  0  0  0  0  0  0  0  0  0  0
   64.5400   57.5570   30.5330 C   0  0  0  0  0  2  0  0  0  0  0  0
   64.7520   58.1080   29.1180 C   0  0  0  0  0  2  0  0  0  0  0  0
   63.9790   57.2520   28.1960 C   0  0  0  0  0  0  0  0  0  0  0  0
   62.8690   56.5700   28.6700 C   0  0  0  0  0  3  0  0  0  0  0  0
   62.2200   55.7970   27.7100 C   0  0  0  0  0  3  0  0  0  0  0  0
   62.6590   55.7300   26.4060 C   0  0  0  0  0  3  0  0  0  0  0  0
   63.7760   56.4360   25.9970 C   0  0  0  0  0  3  0  0  0  0  0  0
   64.3990   57.1840   26.9370 N   0  0  0  0  0  0  0  0  0  0  0  0
   68.6870   60.9410   31.1000 C   0  0  0  0  0  0  0  0  0  0  0  0
   69.8980   60.6190   30.9240 O   0  0  0  0  0  0  0  0  0  0  0  0
   68.1250   63.2670   28.3570 C   0  0  0  0  0  3  0  0  0  0  0  0
   66.8470   63.7430   28.5660 C   0  0  0  0  0  3  0  0  0  0  0  0
   66.1560   63.2540   29.6800 C   0  0  0  0  0  0  0  0  0  0  0  0
   66.7670   62.3470   30.4890 N   0  0  0  0  0  0  0  0  0  0  0  0
   68.0350   61.9060   30.2410 C   0  0  0  0  0  0  0  0  0  0  0  0
   68.6800   62.3740   29.1850 N   0  0  0  0  0  0  0  0  0  0  0  0
   64.8430   63.6800   29.9810 N   0  0  0  0  0  0  0  0  0  0  0  0
   63.7490   63.0970   29.4850 C   0  0  0  0  0  3  0  0  0  0  0  0
   62.4910   63.5590   29.8170 C   0  0  0  0  0  0  0  0  0  0  0  0
   61.3030   62.8520   29.2200 C   0  0  0  0  0  1  0  0  0  0  0  0
   62.3060   64.6350   30.6680 C   0  0  0  0  0  0  0  0  0  0  0  0
   61.1500   65.0450   30.9610 O   0  0  0  0  0  0  0  0  0  0  0  0
   63.4440   65.1960   31.1470 N   0  0  0  0  0  0  0  0  0  0  0  0
   64.6600   64.7250   30.8080 C   0  0  0  0  0  0  0  0  0  0  0  0
   65.6880   65.2840   31.2820 O   0  0  0  0  0  0  0  0  0  0  0  0
   63.3770   66.0010   31.7860 H   0  0  0  0  0  0  0  0  0  0  0  0
  2 11  1  0  0  0  0
  2  3  1  0  0  0  0
  4  3  2  0  0  0  0
  5  4  1  0  0  0  0
  6  1  1  0  0  0  0
  6  5  1  0  0  0  0
  7  6  2  0  0  0  0
  8  7  1  0  0  0  0
  8  9  2  0  0  0  0
  9 10  1  0  0  0  0
 10  5  2  0  0  0  0
 10  2  1  0  0  0  0
 12  8  1  0  0  0  0
 13 12  1  0  0  0  0
 14 15  1  0  0  0  0
 14 13  1  0  0  0  0
 16 15  2  0  0  0  0
 17 16  1  0  0  0  0
 18 17  2  0  0  0  0
 18 19  1  0  0  0  0
 19 14  2  0  0  0  0
 20  1  1  0  0  0  0
 21 20  2  0  0  0  0
 22 23  1  0  0  0  0
 22 27  2  0  0  0  0
 23 24  2  0  0  0  0
 24 28  1  0  0  0  0
 24 25  1  0  0  0  0
 26 25  2  0  0  0  0
 26 20  1  0  0  0  0
 27 26  1  0  0  0  0
 28 35  1  0  0  0  0
 29 30  2  0  0  0  0
 29 28  1  0  0  0  0
 30 32  1  0  0  0  0
 31 30  1  0  0  0  0
 32 33  2  0  0  0  0
 32 34  1  0  0  0  0
 34 37  1  0  0  0  0
 35 34  1  0  0  0  0
 35 36  2  0  0  0  0
M  END
>  <minimizedAffinity>
-7.3273468

$$$$

 OpenBabel03242509253D

 37 41  0  0  0  0  0  0  0  0999 V2000
   67.9710   60.4100   32.1780 O   0  0  0  0  0  0  0  0  0  0  0  0
   68.5620   55.9090   33.0240 N   0  0  0  0  0  0  0  0  0  0  0  0
   69.5820   56.6240   33.5360 C   0  0  0  0  0  3  0  0  0  0  0  0
   69.3280   57.9120   33.2440 N   0  0  0  0  0  0  0  0  0  0  0  0
   68.1850   57.9850   32.5730 C   0  0  0  0  0  0  0  0  0  0  0  0
   67.5320   59.0950   32.0700 C   0  0  0  0  0  0  0  0  0  0  0  0
   66.3710   58.8750   31.4220 N   0  0  0  0  0  0  0  0  0  0  0  0
   65.8620   57.6370   31.2660 C   0  0  0  0  0  0  0  0  0  0  0  0
   66.5080   56.5720   31.7590 N   0  0  0  0  0  0  0  0  0  0  0  0
   67.6810   56.7150   32.4230 C   0  0  0  0  0  0  0  0  0  0  0  0
   68.4730   54.8850   33.0860 H   0  0  0  0  0  0  0  0  0  0  0  0
   64.5630   57.5570   30.5210 C   0  0  0  0  0  2  0  0  0  0  0  0
   64.7770   58.0770   29.0940 C   0  0  0  0  0  2  0  0  0  0  0  0
   63.9660   57.2310   28.1950 C   0  0  0  0  0  0  0  0  0  0  0  0
   62.8710   56.5510   28.7050 C   0  0  0  0  0  3  0  0  0  0  0  0
   62.1830   55.7880   27.7640 C   0  0  0  0  0  3  0  0  0  0  0  0
   62.5730   55.7290   26.4440 C   0  0  0  0  0  3  0  0  0  0  0  0
   63.6780   56.4330   25.9990 C   0  0  0  0  0  3  0  0  0  0  0  0
   64.3380   57.1710   26.9210 N   0  0  0  0  0  0  0  0  0  0  0  0
   68.5780   61.0700   31.1280 C   0  0  0  0  0  0  0  0  0  0  0  0
   69.8000   60.8020   30.9350 O   0  0  0  0  0  0  0  0  0  0  0  0
   67.7410   63.1510   28.2610 C   0  0  0  0  0  3  0  0  0  0  0  0
   66.5850   63.8060   28.6360 C   0  0  0  0  0  3  0  0  0  0  0  0
   66.0770   63.5270   29.9090 C   0  0  0  0  0  0  0  0  0  0  0  0
   66.7350   62.6380   30.7030 N   0  0  0  0  0  0  0  0  0  0  0  0
   67.8760   62.0150   30.2860 C   0  0  0  0  0  0  0  0  0  0  0  0
   68.3490   62.2860   29.0800 N   0  0  0  0  0  0  0  0  0  0  0  0
   64.9010   64.1450   30.3880 N   0  0  0  0  0  0  0  0  0  0  0  0
   64.8660   65.3940   30.8590 C   0  0  0  0  0  3  0  0  0  0  0  0
   63.6840   65.9450   31.3140 C   0  0  0  0  0  0  0  0  0  0  0  0
   63.7210   67.3590   31.8300 C   0  0  0  0  0  1  0  0  0  0  0  0
   62.4940   65.2370   31.3040 C   0  0  0  0  0  0  0  0  0  0  0  0
   61.4240   65.7550   31.7230 O   0  0  0  0  0  0  0  0  0  0  0  0
   62.5760   63.9740   30.8180 N   0  0  0  0  0  0  0  0  0  0  0  0
   63.7430   63.4600   30.3790 C   0  0  0  0  0  0  0  0  0  0  0  0
   63.7640   62.2790   29.9370 O   0  0  0  0  0  0  0  0  0  0  0  0
   61.7270   63.3930   30.7830 H   0  0  0  0  0  0  0  0  0  0  0  0
  2 11  1  0  0  0  0
  2  3  1  0  0  0  0
  4  3  2  0  0  0  0
  5  4  1  0  0  0  0
  6  1  1  0  0  0  0
  6  5  1  0  0  0  0
  7  6  2  0  0  0  0
  8  7  1  0  0  0  0
  8  9  2  0  0  0  0
  9 10  1  0  0  0  0
 10  5  2  0  0  0  0
 10  2  1  0  0  0  0
 12  8  1  0  0  0  0
 13 12  1  0  0  0  0
 14 15  1  0  0  0  0
 14 13  1  0  0  0  0
 16 15  2  0  0  0  0
 17 16  1  0  0  0  0
 18 17  2  0  0  0  0
 18 19  1  0  0  0  0
 19 14  2  0  0  0  0
 20  1  1  0  0  0  0
 21 20  2  0  0  0  0
 22 23  1  0  0  0  0
 22 27  2  0  0  0  0
 23 24  2  0  0  0  0
 24 28  1  0  0  0  0
 24 25  1  0  0  0  0
 26 25  2  0  0  0  0
 26 20  1  0  0  0  0
 27 26  1  0  0  0  0
 28 29  1  0  0  0  0
 29 30  2  0  0  0  0
 30 31  1  0  0  0  0
 32 30  1  0  0  0  0
 32 33  2  0  0  0  0
 34 32  1  0  0  0  0
 35 28  1  0  0  0  0
 35 34  1  0  0  0  0
 36 35  2  0  0  0  0
 37 34  1  0  0  0  0
M  END
>  <minimizedAffinity>
-7.11731005

$$$$

 OpenBabel03242509253D

 37 41  0  0  0  0  0  0  0  0999 V2000
   69.0720   57.3150   32.9470 O   0  0  0  0  0  0  0  0  0  0  0  0
   64.9310   58.3150   34.7310 N   0  0  0  0  0  0  0  0  0  0  0  0
   65.8790   58.3540   35.6860 C   0  0  0  0  0  3  0  0  0  0  0  0
   67.0420   58.0520   35.0810 N   0  0  0  0  0  0  0  0  0  0  0  0
   66.8140   57.8350   33.7920 C   0  0  0  0  0  0  0  0  0  0  0  0
   67.7020   57.4990   32.7870 C   0  0  0  0  0  0  0  0  0  0  0  0
   67.1900   57.3380   31.5510 N   0  0  0  0  0  0  0  0  0  0  0  0
   65.8760   57.4940   31.2960 C   0  0  0  0  0  0  0  0  0  0  0  0
   65.0280   57.8200   32.2800 N   0  0  0  0  0  0  0  0  0  0  0  0
   65.4700   57.9990   33.5490 C   0  0  0  0  0  0  0  0  0  0  0  0
   63.9310   58.5020   34.8880 H   0  0  0  0  0  0  0  0  0  0  0  0
   65.4620   57.2800   29.8700 C   0  0  0  0  0  2  0  0  0  0  0  0
   63.9510   57.5180   29.7530 C   0  0  0  0  0  2  0  0  0  0  0  0
   63.5210   56.9620   28.4540 C   0  0  0  0  0  0  0  0  0  0  0  0
   62.3960   56.1540   28.4000 C   0  0  0  0  0  3  0  0  0  0  0  0
   62.0860   55.6900   27.1230 C   0  0  0  0  0  3  0  0  0  0  0  0
   62.8460   56.0180   26.0220 C   0  0  0  0  0  3  0  0  0  0  0  0
   63.9590   56.8300   26.1450 C   0  0  0  0  0  3  0  0  0  0  0  0
   64.2500   57.2760   27.3890 N   0  0  0  0  0  0  0  0  0  0  0  0
   69.9720   58.3550   32.8280 C   0  0  0  0  0  0  0  0  0  0  0  0
   71.1900   58.0250   32.7260 O   0  0  0  0  0  0  0  0  0  0  0  0
   69.1570   61.7010   34.0060 C   0  0  0  0  0  3  0  0  0  0  0  0
   68.8090   62.3930   32.8640 C   0  0  0  0  0  3  0  0  0  0  0  0
   68.8540   61.6930   31.6530 C   0  0  0  0  0  0  0  0  0  0  0  0
   69.2330   60.3860   31.6610 N   0  0  0  0  0  0  0  0  0  0  0  0
   69.5690   59.7440   32.8180 C   0  0  0  0  0  0  0  0  0  0  0  0
   69.5230   60.4150   33.9580 N   0  0  0  0  0  0  0  0  0  0  0  0
   68.5160   62.3110   30.4290 N   0  0  0  0  0  0  0  0  0  0  0  0
   69.2930   63.2100   29.8200 C   0  0  0  0  0  3  0  0  0  0  0  0
   68.9080   63.7800   28.6220 C   0  0  0  0  0  0  0  0  0  0  0  0
   69.8360   64.7850   27.9930 C   0  0  0  0  0  1  0  0  0  0  0  0
   67.7130   63.4520   28.0060 C   0  0  0  0  0  0  0  0  0  0  0  0
   67.3760   63.9830   26.9120 O   0  0  0  0  0  0  0  0  0  0  0  0
   66.9560   62.5370   28.6590 N   0  0  0  0  0  0  0  0  0  0  0  0
   67.3560   61.9940   29.8270 C   0  0  0  0  0  0  0  0  0  0  0  0
   66.6130   61.1470   30.3950 O   0  0  0  0  0  0  0  0  0  0  0  0
   66.0540   62.2480   28.2540 H   0  0  0  0  0  0  0  0  0  0  0  0
  2 11  1  0  0  0  0
  2  3  1  0  0  0  0
  4  3  2  0  0  0  0
  5  4  1  0  0  0  0
  6  1  1  0  0  0  0
  6  5  1  0  0  0  0
  7  6  2  0  0  0  0
  8  7  1  0  0  0  0
  8  9  2  0  0  0  0
  9 10  1  0  0  0  0
 10  5  2  0  0  0  0
 10  2  1  0  0  0  0
 12  8  1  0  0  0  0
 13 12  1  0  0  0  0
 14 13  1  0  0  0  0
 15 14  1  0  0  0  0
 16 15  2  0  0  0  0
 17 18  2  0  0  0  0
 17 16  1  0  0  0  0
 18 19  1  0  0  0  0
 19 14  2  0  0  0  0
 20  1  1  0  0  0  0
 21 20  2  0  0  0  0
 23 22  1  0  0  0  0
 24 25  1  0  0  0  0
 24 23  2  0  0  0  0
 25 26  2  0  0  0  0
 26 20  1  0  0  0  0
 26 27  1  0  0  0  0
 27 22  2  0  0  0  0
 28 24  1  0  0  0  0
 29 28  1  0  0  0  0
 30 29  2  0  0  0  0
 31 30  1  0  0  0  0
 32 30  1  0  0  0  0
 32 34  1  0  0  0  0
 33 32  2  0  0  0  0
 34 35  1  0  0  0  0
 35 36  2  0  0  0  0
 35 28  1  0  0  0  0
 37 34  1  0  0  0  0
M  END
>  <minimizedAffinity>
-7.00875425

$$$$

 OpenBabel03242509253D

 37 41  0  0  0  0  0  0  0  0999 V2000
   66.4150   59.5510   34.5470 O   0  0  0  0  0  0  0  0  0  0  0  0
   68.3890   55.7800   32.7570 N   0  0  0  0  0  0  0  0  0  0  0  0
   69.0410   56.1730   33.8680 C   0  0  0  0  0  3  0  0  0  0  0  0
   68.4030   57.2680   34.3170 N   0  0  0  0  0  0  0  0  0  0  0  0
   67.3880   57.5390   33.5050 C   0  0  0  0  0  0  0  0  0  0  0  0
   66.4610   58.5620   33.5700 C   0  0  0  0  0  0  0  0  0  0  0  0
   65.5250   58.5980   32.6000 N   0  0  0  0  0  0  0  0  0  0  0  0
   65.4870   57.6850   31.6100 C   0  0  0  0  0  0  0  0  0  0  0  0
   66.3920   56.6990   31.5620 N   0  0  0  0  0  0  0  0  0  0  0  0
   67.3630   56.5980   32.5020 C   0  0  0  0  0  0  0  0  0  0  0  0
   68.6440   54.9630   32.1840 H   0  0  0  0  0  0  0  0  0  0  0  0
   64.3850   57.8600   30.6070 C   0  0  0  0  0  2  0  0  0  0  0  0
   65.0000   57.9350   29.2050 C   0  0  0  0  0  2  0  0  0  0  0  0
   64.1050   57.1920   28.2950 C   0  0  0  0  0  0  0  0  0  0  0  0
   62.9640   56.5920   28.8040 C   0  0  0  0  0  3  0  0  0  0  0  0
   62.1970   55.9230   27.8530 C   0  0  0  0  0  3  0  0  0  0  0  0
   62.5580   55.8740   26.5250 C   0  0  0  0  0  3  0  0  0  0  0  0
   63.7120   56.4950   26.0810 C   0  0  0  0  0  3  0  0  0  0  0  0
   64.4490   57.1430   27.0130 N   0  0  0  0  0  0  0  0  0  0  0  0
   67.1730   60.7030   34.4630 C   0  0  0  0  0  0  0  0  0  0  0  0
   68.3350   60.6390   34.9620 O   0  0  0  0  0  0  0  0  0  0  0  0
   65.5200   63.9200   34.0520 C   0  0  0  0  0  3  0  0  0  0  0  0
   65.7360   64.2510   32.7300 C   0  0  0  0  0  3  0  0  0  0  0  0
   66.4690   63.3460   31.9540 C   0  0  0  0  0  0  0  0  0  0  0  0
   66.9270   62.2020   32.5330 N   0  0  0  0  0  0  0  0  0  0  0  0
   66.6870   61.9180   33.8470 C   0  0  0  0  0  0  0  0  0  0  0  0
   65.9920   62.7800   34.5710 N   0  0  0  0  0  0  0  0  0  0  0  0
   66.7430   63.5920   30.5910 N   0  0  0  0  0  0  0  0  0  0  0  0
   67.8530   64.1990   30.1630 C   0  0  0  0  0  3  0  0  0  0  0  0
   68.0650   64.4120   28.8150 C   0  0  0  0  0  0  0  0  0  0  0  0
   69.3400   65.1020   28.4060 C   0  0  0  0  0  1  0  0  0  0  0  0
   67.1490   64.0140   27.8570 C   0  0  0  0  0  0  0  0  0  0  0  0
   67.3590   64.2170   26.6300 O   0  0  0  0  0  0  0  0  0  0  0  0
   66.0380   63.4030   28.3360 N   0  0  0  0  0  0  0  0  0  0  0  0
   65.8560   63.2060   29.6580 C   0  0  0  0  0  0  0  0  0  0  0  0
   64.8030   62.6320   30.0520 O   0  0  0  0  0  0  0  0  0  0  0  0
   65.3170   63.0810   27.6760 H   0  0  0  0  0  0  0  0  0  0  0  0
  2  3  1  0  0  0  0
  3  4  2  0  0  0  0
  5  6  1  0  0  0  0
  5  4  1  0  0  0  0
  6  1  1  0  0  0  0
  7  6  2  0  0  0  0
  8  7  1  0  0  0  0
  9  8  2  0  0  0  0
  9 10  1  0  0  0  0
 10  2  1  0  0  0  0
 10  5  2  0  0  0  0
 11  2  1  0  0  0  0
 12  8  1  0  0  0  0
 13 12  1  0  0  0  0
 14 15  1  0  0  0  0
 14 13  1  0  0  0  0
 16 15  2  0  0  0  0
 17 16  1  0  0  0  0
 18 17  2  0  0  0  0
 18 19  1  0  0  0  0
 19 14  2  0  0  0  0
 20  1  1  0  0  0  0
 20 21  2  0  0  0  0
 22 27  2  0  0  0  0
 23 22  1  0  0  0  0
 24 25  1  0  0  0  0
 24 23  2  0  0  0  0
 25 26  2  0  0  0  0
 26 20  1  0  0  0  0
 26 27  1  0  0  0  0
 28 24  1  0  0  0  0
 29 28  1  0  0  0  0
 30 29  2  0  0  0  0
 31 30  1  0  0  0  0
 32 34  1  0  0  0  0
 32 30  1  0  0  0  0
 33 32  2  0  0  0  0
 34 35  1  0  0  0  0
 35 36  2  0  0  0  0
 35 28  1  0  0  0  0
 37 34  1  0  0  0  0
M  END
>  <minimizedAffinity>
-6.93677521

$$$$

 OpenBabel03242509253D

 37 41  0  0  0  0  0  0  0  0999 V2000
   69.3670   61.3280   30.2120 O   0  0  0  0  0  0  0  0  0  0  0  0
   70.3170   65.0690   27.6780 N   0  0  0  0  0  0  0  0  0  0  0  0
   71.4530   64.4930   28.1130 C   0  0  0  0  0  3  0  0  0  0  0  0
   71.0830   63.4200   28.8370 N   0  0  0  0  0  0  0  0  0  0  0  0
   69.7580   63.3420   28.8440 C   0  0  0  0  0  0  0  0  0  0  0  0
   68.9370   62.4110   29.4530 C   0  0  0  0  0  0  0  0  0  0  0  0
   67.6090   62.5750   29.2920 N   0  0  0  0  0  0  0  0  0  0  0  0
   67.0950   63.5930   28.5750 C   0  0  0  0  0  0  0  0  0  0  0  0
   67.9040   64.4870   27.9910 N   0  0  0  0  0  0  0  0  0  0  0  0
   69.2510   64.3870   28.1080 C   0  0  0  0  0  0  0  0  0  0  0  0
   70.2750   65.9180   27.0950 H   0  0  0  0  0  0  0  0  0  0  0  0
   65.5980   63.6380   28.4910 C   0  0  0  0  0  2  0  0  0  0  0  0
   65.0110   62.9970   29.7550 C   0  0  0  0  0  2  0  0  0  0  0  0
   63.6520   63.5460   29.9320 C   0  0  0  0  0  0  0  0  0  0  0  0
   62.5780   62.9100   29.3280 C   0  0  0  0  0  3  0  0  0  0  0  0
   61.3470   63.5170   29.5670 C   0  0  0  0  0  3  0  0  0  0  0  0
   61.2280   64.6500   30.3420 C   0  0  0  0  0  3  0  0  0  0  0  0
   62.3410   65.2360   30.9170 C   0  0  0  0  0  3  0  0  0  0  0  0
   63.5320   64.6380   30.6790 N   0  0  0  0  0  0  0  0  0  0  0  0
   69.0670   61.2060   31.5540 C   0  0  0  0  0  0  0  0  0  0  0  0
   69.8110   61.8530   32.3490 O   0  0  0  0  0  0  0  0  0  0  0  0
   66.8650   59.4380   33.8500 C   0  0  0  0  0  3  0  0  0  0  0  0
   65.9130   58.8580   33.0370 C   0  0  0  0  0  3  0  0  0  0  0  0
   66.0280   59.0780   31.6600 C   0  0  0  0  0  0  0  0  0  0  0  0
   67.0560   59.8420   31.1970 N   0  0  0  0  0  0  0  0  0  0  0  0
   67.9740   60.3940   32.0430 C   0  0  0  0  0  0  0  0  0  0  0  0
   67.8570   60.1800   33.3440 N   0  0  0  0  0  0  0  0  0  0  0  0
   65.1050   58.5290   30.7430 N   0  0  0  0  0  0  0  0  0  0  0  0
   63.9380   59.1030   30.4400 C   0  0  0  0  0  3  0  0  0  0  0  0
   63.0760   58.5170   29.5340 C   0  0  0  0  0  0  0  0  0  0  0  0
   61.7790   59.2230   29.2420 C   0  0  0  0  0  1  0  0  0  0  0  0
   63.3760   57.3200   28.9070 C   0  0  0  0  0  0  0  0  0  0  0  0
   62.5780   56.7970   28.0830 O   0  0  0  0  0  0  0  0  0  0  0  0
   64.5700   56.7720   29.2440 N   0  0  0  0  0  0  0  0  0  0  0  0
   65.3940   57.3660   30.1310 C   0  0  0  0  0  0  0  0  0  0  0  0
   66.4930   56.8140   30.4110 O   0  0  0  0  0  0  0  0  0  0  0  0
   64.8540   55.8810   28.8130 H   0  0  0  0  0  0  0  0  0  0  0  0
  1 20  1  0  0  0  0
  2 10  1  0  0  0  0
  2  3  1  0  0  0  0
  3  4  2  0  0  0  0
  4  5  1  0  0  0  0
  5  6  1  0  0  0  0
  6  1  1  0  0  0  0
  7  6  2  0  0  0  0
  8  7  1  0  0  0  0
  9 10  1  0  0  0  0
  9  8  2  0  0  0  0
 10  5  2  0  0  0  0
 11  2  1  0  0  0  0
 12  8  1  0  0  0  0
 12 13  1  0  0  0  0
 13 14  1  0  0  0  0
 14 19  1  0  0  0  0
 15 16  1  0  0  0  0
 15 14  2  0  0  0  0
 16 17  2  0  0  0  0
 17 18  1  0  0  0  0
 19 18  2  0  0  0  0
 20 26  1  0  0  0  0
 20 21  2  0  0  0  0
 23 22  1  0  0  0  0
 24 23  2  0  0  0  0
 25 24  1  0  0  0  0
 25 26  2  0  0  0  0
 26 27  1  0  0  0  0
 27 22  2  0  0  0  0
 28 24  1  0  0  0  0
 29 28  1  0  0  0  0
 30 29  2  0  0  0  0
 31 30  1  0  0  0  0
 32 34  1  0  0  0  0
 32 30  1  0  0  0  0
 33 32  2  0  0  0  0
 34 35  1  0  0  0  0
 35 36  2  0  0  0  0
 35 28  1  0  0  0  0
 37 34  1  0  0  0  0
M  END
>  <minimizedAffinity>
-6.82756281

$$$$

 OpenBabel03242509253D

 37 41  0  0  0  0  0  0  0  0999 V2000
   65.1080   60.7690   31.5150 O   0  0  0  0  0  0  0  0  0  0  0  0
   66.6750   56.4390   31.1690 N   0  0  0  0  0  0  0  0  0  0  0  0
   67.4590   57.1610   31.9920 C   0  0  0  0  0  3  0  0  0  0  0  0
   66.9320   58.3970   32.0320 N   0  0  0  0  0  0  0  0  0  0  0  0
   65.8550   58.4330   31.2560 C   0  0  0  0  0  0  0  0  0  0  0  0
   64.9980   59.4840   30.9930 C   0  0  0  0  0  0  0  0  0  0  0  0
   63.9700   59.2360   30.1560 N   0  0  0  0  0  0  0  0  0  0  0  0
   63.7790   58.0240   29.5990 C   0  0  0  0  0  0  0  0  0  0  0  0
   64.6190   57.0150   29.8650 N   0  0  0  0  0  0  0  0  0  0  0  0
   65.6750   57.1900   30.6970 C   0  0  0  0  0  0  0  0  0  0  0  0
   66.8240   55.4470   30.9350 H   0  0  0  0  0  0  0  0  0  0  0  0
   62.5910   57.9070   28.6900 C   0  0  0  0  0  2  0  0  0  0  0  0
   62.9360   56.9460   27.5460 C   0  0  0  0  0  2  0  0  0  0  0  0
   61.8070   56.9770   26.5940 C   0  0  0  0  0  0  0  0  0  0  0  0
   61.2200   55.7860   26.1980 C   0  0  0  0  0  3  0  0  0  0  0  0
   60.1650   55.9390   25.3000 C   0  0  0  0  0  3  0  0  0  0  0  0
   59.7550   57.1780   24.8580 C   0  0  0  0  0  3  0  0  0  0  0  0
   60.3850   58.3300   25.2940 C   0  0  0  0  0  3  0  0  0  0  0  0
   61.4070   58.1690   26.1660 N   0  0  0  0  0  0  0  0  0  0  0  0
   65.5560   61.8340   30.7600 C   0  0  0  0  0  0  0  0  0  0  0  0
   66.3980   61.5570   29.8570 O   0  0  0  0  0  0  0  0  0  0  0  0
   65.0420   65.4010   30.2470 C   0  0  0  0  0  3  0  0  0  0  0  0
   64.2650   65.7940   31.3170 C   0  0  0  0  0  3  0  0  0  0  0  0
   63.9060   64.8090   32.2430 C   0  0  0  0  0  0  0  0  0  0  0  0
   64.3330   63.5320   32.0470 N   0  0  0  0  0  0  0  0  0  0  0  0
   65.1010   63.1910   30.9710 C   0  0  0  0  0  0  0  0  0  0  0  0
   65.4360   64.1300   30.1010 N   0  0  0  0  0  0  0  0  0  0  0  0
   63.1140   65.1100   33.3730 N   0  0  0  0  0  0  0  0  0  0  0  0
   63.6230   65.4880   34.5480 C   0  0  0  0  0  3  0  0  0  0  0  0
   62.7960   65.7690   35.6180 C   0  0  0  0  0  0  0  0  0  0  0  0
   63.4410   66.1910   36.9120 C   0  0  0  0  0  1  0  0  0  0  0  0
   61.4180   65.6710   35.5250 C   0  0  0  0  0  0  0  0  0  0  0  0
   60.6780   65.9310   36.5120 O   0  0  0  0  0  0  0  0  0  0  0  0
   60.9460   65.2830   34.3150 N   0  0  0  0  0  0  0  0  0  0  0  0
   61.7750   65.0160   33.2860 C   0  0  0  0  0  0  0  0  0  0  0  0
   61.2830   64.6580   32.1810 O   0  0  0  0  0  0  0  0  0  0  0  0
   59.9290   65.1910   34.1790 H   0  0  0  0  0  0  0  0  0  0  0  0
  2  3  1  0  0  0  0
  3  4  2  0  0  0  0
  5  4  1  0  0  0  0
  6  5  1  0  0  0  0
  6  1  1  0  0  0  0
  7  6  2  0  0  0  0
  8  9  2  0  0  0  0
  8  7  1  0  0  0  0
  9 10  1  0  0  0  0
 10  2  1  0  0  0  0
 10  5  2  0  0  0  0
 11  2  1  0  0  0  0
 12  8  1  0  0  0  0
 13 12  1  0  0  0  0
 14 13  1  0  0  0  0
 15 14  1  0  0  0  0
 16 15  2  0  0  0  0
 17 18  2  0  0  0  0
 17 16  1  0  0  0  0
 18 19  1  0  0  0  0
 19 14  2  0  0  0  0
 20 26  1  0  0  0  0
 20  1  1  0  0  0  0
 21 20  2  0  0  0  0
 22 23  1  0  0  0  0
 23 24  2  0  0  0  0
 24 28  1  0  0  0  0
 25 24  1  0  0  0  0
 26 25  2  0  0  0  0
 27 22  2  0  0  0  0
 27 26  1  0  0  0  0
 28 29  1  0  0  0  0
 29 30  2  0  0  0  0
 30 31  1  0  0  0  0
 32 30  1  0  0  0  0
 32 33  2  0  0  0  0
 34 32  1  0  0  0  0
 35 28  1  0  0  0  0
 35 34  1  0  0  0  0
 36 35  2  0  0  0  0
 37 34  1  0  0  0  0
M  END
>  <minimizedAffinity>
-6.70649147

$$$$
