
 OpenBabel03242509373D

 35 40  0  0  1  0  0  0  0  0999 V2000
   66.5050   57.7390   31.5790 N   0  0  0  0  0  0  0  0  0  0  0  0
   66.6680   56.5400   32.1160 C   0  0  0  0  0  3  0  0  0  0  0  0
   67.7700   56.3380   32.9090 C   0  0  0  0  0  3  0  0  0  0  0  0
   68.6180   57.4230   33.0720 C   0  0  0  0  0  0  0  0  0  0  0  0
   69.7740   57.2380   33.8970 N   0  0  0  0  0  0  0  0  0  0  0  0
   68.4090   58.6390   32.5000 N   0  0  0  0  0  0  0  0  0  0  0  0
   67.3230   58.8050   31.7300 C   0  0  0  0  0  0  0  0  0  0  0  0
   67.0920   59.9210   31.1790 O   0  0  0  0  0  0  0  0  0  0  0  0
   63.2360   59.0090   30.2860 C   0  0  0  0  0  3  0  0  0  0  0  0
   64.3050   58.8270   31.1500 C   0  0  0  0  0  3  0  0  0  0  0  0
   65.3660   57.9790   30.7460 C   0  0  0  0  0  0  0  0  0  0  0  0
   65.2650   57.3890   29.5230 N   0  0  0  0  0  0  0  0  0  0  0  0
   64.2010   57.6050   28.7250 C   0  0  0  0  0  0  0  0  0  0  0  0
   63.2020   58.3980   29.0930 N   0  0  0  0  0  0  0  0  0  0  0  0
   64.2940   56.9020   27.4850 N   0  0  0  0  0  0  0  0  0  0  0  0
   65.4880   57.0860   26.8890 N   0  0  0  0  0  0  0  0  0  0  0  0
   65.4650   56.4050   25.7080 C   0  0  0  0  0  3  0  0  0  0  0  0
   64.2430   55.8080   25.5970 C   0  0  0  0  0  3  0  0  0  0  0  0
   63.5130   56.1270   26.7270 C   0  0  0  0  0  0  0  0  0  0  0  0
   70.4310   58.0180   34.0450 H   0  0  0  0  0  0  0  0  0  0  0  0
   69.9490   56.3260   34.3410 H   0  0  0  0  0  0  0  0  0  0  0  0
   62.3150   55.8730   27.1920 O   0  0  0  0  0  0  0  0  0  0  0  0
   61.1750   56.6060   26.7030 C   0  0  2  0  0  3  0  0  0  0  0  0
   60.3990   56.1060   25.5570 C   0  0  0  0  0  2  0  0  0  0  0  0
   61.2770   57.3630   25.4660 C   0  0  1  0  0  3  0  0  0  0  0  0
   60.6230   58.6500   25.1950 C   0  0  0  0  0  0  0  0  0  0  0  0
   60.1640   58.8510   23.8900 C   0  0  0  0  0  3  0  0  0  0  0  0
   59.5860   60.0760   23.8470 N   0  0  0  0  0  0  0  0  0  0  0  0
   59.6540   60.6700   25.0670 C   0  0  0  0  0  0  0  0  0  0  0  0
   59.2650   61.8650   25.6350 C   0  0  0  0  0  3  0  0  0  0  0  0
   59.5040   62.1590   26.9600 C   0  0  0  0  0  3  0  0  0  0  0  0
   60.1620   61.2230   27.7630 C   0  0  0  0  0  3  0  0  0  0  0  0
   60.5530   60.0270   27.1990 C   0  0  0  0  0  3  0  0  0  0  0  0
   60.2910   59.7810   25.8750 C   0  0  0  0  0  0  0  0  0  0  0  0
   59.1560   60.4960   23.0100 H   0  0  0  0  0  0  0  0  0  0  0  0
  1  7  1  0  0  0  0
  1  2  1  0  0  0  0
  2  3  2  0  0  0  0
  3  4  1  0  0  0  0
  4  5  1  0  0  0  0
  5 20  1  0  0  0  0
  5 21  1  0  0  0  0
  6  4  2  0  0  0  0
  7  6  1  0  0  0  0
  8  7  2  0  0  0  0
  9 10  1  0  0  0  0
 11 10  2  0  0  0  0
 11  1  1  0  0  0  0
 12 11  1  0  0  0  0
 13 14  1  0  0  0  0
 13 12  2  0  0  0  0
 14  9  2  0  0  0  0
 15 13  1  0  0  0  0
 16 15  1  0  0  0  0
 17 16  2  0  0  0  0
 18 17  1  0  0  0  0
 18 19  2  0  0  0  0
 19 22  1  0  0  0  0
 19 15  1  0  0  0  0
 23 22  1  6  0  0  0
 24 23  1  0  0  0  0
 25 26  1  1  0  0  0
 25 24  1  0  0  0  0
 25 23  1  0  0  0  0
 26 34  1  0  0  0  0
 27 26  2  0  0  0  0
 28 27  1  0  0  0  0
 28 29  1  0  0  0  0
 29 30  2  0  0  0  0
 29 34  1  0  0  0  0
 30 31  1  0  0  0  0
 31 32  2  0  0  0  0
 33 32  1  0  0  0  0
 34 33  2  0  0  0  0
 35 28  1  0  0  0  0
M  END
>  <minimizedAffinity>
-8.30679131

$$$$

 OpenBabel03242509373D

 35 40  0  0  1  0  0  0  0  0999 V2000
   66.5520   57.7420   31.5830 N   0  0  0  0  0  0  0  0  0  0  0  0
   66.7800   56.5450   32.1020 C   0  0  0  0  0  3  0  0  0  0  0  0
   67.9050   56.3860   32.8720 C   0  0  0  0  0  3  0  0  0  0  0  0
   68.7050   57.5070   33.0340 C   0  0  0  0  0  0  0  0  0  0  0  0
   69.8830   57.3670   33.8350 N   0  0  0  0  0  0  0  0  0  0  0  0
   68.4290   58.7180   32.4810 N   0  0  0  0  0  0  0  0  0  0  0  0
   67.3220   58.8430   31.7330 C   0  0  0  0  0  0  0  0  0  0  0  0
   67.0300   59.9540   31.2000 O   0  0  0  0  0  0  0  0  0  0  0  0
   63.2040   58.8740   30.3650 C   0  0  0  0  0  3  0  0  0  0  0  0
   64.2960   58.7310   31.2080 C   0  0  0  0  0  3  0  0  0  0  0  0
   65.3870   57.9390   30.7740 C   0  0  0  0  0  0  0  0  0  0  0  0
   65.2920   57.3590   29.5450 N   0  0  0  0  0  0  0  0  0  0  0  0
   64.2030   57.5350   28.7700 C   0  0  0  0  0  0  0  0  0  0  0  0
   63.1760   58.2760   29.1660 N   0  0  0  0  0  0  0  0  0  0  0  0
   64.3060   56.8520   27.5190 N   0  0  0  0  0  0  0  0  0  0  0  0
   65.4780   57.0980   26.9040 N   0  0  0  0  0  0  0  0  0  0  0  0
   65.4650   56.4310   25.7150 C   0  0  0  0  0  3  0  0  0  0  0  0
   64.2710   55.7780   25.6190 C   0  0  0  0  0  3  0  0  0  0  0  0
   63.5480   56.0500   26.7660 C   0  0  0  0  0  0  0  0  0  0  0  0
   70.5060   58.1740   33.9810 H   0  0  0  0  0  0  0  0  0  0  0  0
   70.1090   56.4580   34.2640 H   0  0  0  0  0  0  0  0  0  0  0  0
   62.3710   55.7350   27.2490 O   0  0  0  0  0  0  0  0  0  0  0  0
   61.1870   56.4020   26.7720 C   0  0  2  0  0  3  0  0  0  0  0  0
   60.6220   56.0750   25.4540 C   0  0  0  0  0  2  0  0  0  0  0  0
   61.2960   57.4240   25.7430 C   0  0  1  0  0  3  0  0  0  0  0  0
   60.4790   58.6420   25.6580 C   0  0  0  0  0  0  0  0  0  0  0  0
   60.5200   59.4950   26.7640 C   0  0  0  0  0  3  0  0  0  0  0  0
   59.7210   60.5550   26.4890 N   0  0  0  0  0  0  0  0  0  0  0  0
   59.1690   60.4180   25.2550 C   0  0  0  0  0  0  0  0  0  0  0  0
   58.3080   61.1290   24.4460 C   0  0  0  0  0  3  0  0  0  0  0  0
   57.9380   60.6810   23.1960 C   0  0  0  0  0  3  0  0  0  0  0  0
   58.4460   59.4690   22.7240 C   0  0  0  0  0  3  0  0  0  0  0  0
   59.3080   58.7550   23.5290 C   0  0  0  0  0  3  0  0  0  0  0  0
   59.6470   59.2430   24.7650 C   0  0  0  0  0  0  0  0  0  0  0  0
   59.5560   61.3500   27.1230 H   0  0  0  0  0  0  0  0  0  0  0  0
  1  7  1  0  0  0  0
  1  2  1  0  0  0  0
  2  3  2  0  0  0  0
  3  4  1  0  0  0  0
  4  5  1  0  0  0  0
  5 20  1  0  0  0  0
  5 21  1  0  0  0  0
  6  4  2  0  0  0  0
  7  6  1  0  0  0  0
  8  7  2  0  0  0  0
  9 10  1  0  0  0  0
 11 10  2  0  0  0  0
 11  1  1  0  0  0  0
 12 11  1  0  0  0  0
 13 14  1  0  0  0  0
 13 12  2  0  0  0  0
 14  9  2  0  0  0  0
 15 13  1  0  0  0  0
 16 15  1  0  0  0  0
 17 16  2  0  0  0  0
 18 17  1  0  0  0  0
 18 19  2  0  0  0  0
 19 22  1  0  0  0  0
 19 15  1  0  0  0  0
 23 22  1  6  0  0  0
 24 25  1  0  0  0  0
 24 23  1  0  0  0  0
 25 26  1  1  0  0  0
 25 23  1  0  0  0  0
 26 27  2  0  0  0  0
 28 27  1  0  0  0  0
 28 35  1  0  0  0  0
 29 28  1  0  0  0  0
 30 29  2  0  0  0  0
 31 30  1  0  0  0  0
 32 31  2  0  0  0  0
 32 33  1  0  0  0  0
 33 34  2  0  0  0  0
 34 29  1  0  0  0  0
 34 26  1  0  0  0  0
M  END
>  <minimizedAffinity>
-7.82976294

$$$$

 OpenBabel03242509373D

 35 40  0  0  1  0  0  0  0  0999 V2000
   64.0160   64.3610   31.3380 N   0  0  0  0  0  0  0  0  0  0  0  0
   62.6930   64.3540   31.2990 C   0  0  0  0  0  3  0  0  0  0  0  0
   62.0270   65.3370   31.9890 C   0  0  0  0  0  3  0  0  0  0  0  0
   62.8160   66.2520   32.6700 C   0  0  0  0  0  0  0  0  0  0  0  0
   62.1450   67.2880   33.3960 N   0  0  0  0  0  0  0  0  0  0  0  0
   64.1750   66.2200   32.6810 N   0  0  0  0  0  0  0  0  0  0  0  0
   64.7970   65.2470   31.9970 C   0  0  0  0  0  0  0  0  0  0  0  0
   66.0610   65.1810   31.9820 O   0  0  0  0  0  0  0  0  0  0  0  0
   66.1770   62.6040   28.8440 C   0  0  0  0  0  3  0  0  0  0  0  0
   65.5060   63.6400   29.4750 C   0  0  0  0  0  3  0  0  0  0  0  0
   64.7380   63.3480   30.6290 C   0  0  0  0  0  0  0  0  0  0  0  0
   64.7070   62.0530   31.0490 N   0  0  0  0  0  0  0  0  0  0  0  0
   65.3810   61.0870   30.3950 C   0  0  0  0  0  0  0  0  0  0  0  0
   66.1040   61.3500   29.3130 N   0  0  0  0  0  0  0  0  0  0  0  0
   65.2240   59.8030   31.0010 N   0  0  0  0  0  0  0  0  0  0  0  0
   65.4460   59.8400   32.3290 N   0  0  0  0  0  0  0  0  0  0  0  0
   65.3040   58.5710   32.8050 C   0  0  0  0  0  3  0  0  0  0  0  0
   64.9930   57.7650   31.7490 C   0  0  0  0  0  3  0  0  0  0  0  0
   64.9440   58.5550   30.6150 C   0  0  0  0  0  0  0  0  0  0  0  0
   62.6910   67.9890   33.9160 H   0  0  0  0  0  0  0  0  0  0  0  0
   61.1160   67.3320   33.3990 H   0  0  0  0  0  0  0  0  0  0  0  0
   64.7110   58.3770   29.3380 O   0  0  0  0  0  0  0  0  0  0  0  0
   63.4320   57.8840   28.8940 C   0  0  2  0  0  3  0  0  0  0  0  0
   63.1170   56.4490   28.9620 C   0  0  0  0  0  2  0  0  0  0  0  0
   63.3300   57.1780   27.6270 C   0  0  1  0  0  3  0  0  0  0  0  0
   62.1990   57.2590   26.6920 C   0  0  0  0  0  0  0  0  0  0  0  0
   62.0560   56.1940   25.7980 C   0  0  0  0  0  3  0  0  0  0  0  0
   60.9610   56.4460   25.0390 N   0  0  0  0  0  0  0  0  0  0  0  0
   60.3960   57.6250   25.4080 C   0  0  0  0  0  0  0  0  0  0  0  0
   59.3140   58.3920   25.0300 C   0  0  0  0  0  3  0  0  0  0  0  0
   59.0170   59.5920   25.6400 C   0  0  0  0  0  3  0  0  0  0  0  0
   59.8310   60.0550   26.6760 C   0  0  0  0  0  3  0  0  0  0  0  0
   60.9140   59.2920   27.0570 C   0  0  0  0  0  3  0  0  0  0  0  0
   61.1680   58.1040   26.4200 C   0  0  0  0  0  0  0  0  0  0  0  0
   60.6080   55.8320   24.2910 H   0  0  0  0  0  0  0  0  0  0  0  0
  1  7  1  0  0  0  0
  2  1  1  0  0  0  0
  2  3  2  0  0  0  0
  3  4  1  0  0  0  0
  4  6  2  0  0  0  0
  4  5  1  0  0  0  0
  5 21  1  0  0  0  0
  5 20  1  0  0  0  0
  7  6  1  0  0  0  0
  8  7  2  0  0  0  0
  9 14  2  0  0  0  0
  9 10  1  0  0  0  0
 10 11  2  0  0  0  0
 11 12  1  0  0  0  0
 11  1  1  0  0  0  0
 13 15  1  0  0  0  0
 13 12  2  0  0  0  0
 14 13  1  0  0  0  0
 15 16  1  0  0  0  0
 16 17  2  0  0  0  0
 18 17  1  0  0  0  0
 19 15  1  0  0  0  0
 19 18  2  0  0  0  0
 22 19  1  0  0  0  0
 23 24  1  0  0  0  0
 23 22  1  1  0  0  0
 25 26  1  6  0  0  0
 25 23  1  0  0  0  0
 25 24  1  0  0  0  0
 27 26  2  0  0  0  0
 28 29  1  0  0  0  0
 28 27  1  0  0  0  0
 29 34  1  0  0  0  0
 30 29  2  0  0  0  0
 30 31  1  0  0  0  0
 31 32  2  0  0  0  0
 32 33  1  0  0  0  0
 34 26  1  0  0  0  0
 34 33  2  0  0  0  0
 35 28  1  0  0  0  0
M  END
>  <minimizedAffinity>
-7.31081295

$$$$

 OpenBabel03242509373D

 35 40  0  0  1  0  0  0  0  0999 V2000
   59.4950   61.9680   28.6660 N   0  0  0  0  0  0  0  0  0  0  0  0
   60.8030   61.8060   28.7950 C   0  0  0  0  0  3  0  0  0  0  0  0
   61.5280   62.8450   29.3240 C   0  0  0  0  0  3  0  0  0  0  0  0
   60.8110   63.9790   29.6760 C   0  0  0  0  0  0  0  0  0  0  0  0
   61.5450   65.0760   30.2320 N   0  0  0  0  0  0  0  0  0  0  0  0
   59.4660   64.1000   29.5260 N   0  0  0  0  0  0  0  0  0  0  0  0
   58.7850   63.0670   29.0060 C   0  0  0  0  0  0  0  0  0  0  0  0
   57.5300   63.1390   28.8490 O   0  0  0  0  0  0  0  0  0  0  0  0
   57.0780   59.1410   28.2970 C   0  0  0  0  0  3  0  0  0  0  0  0
   57.7990   60.1570   28.9030 C   0  0  0  0  0  3  0  0  0  0  0  0
   58.7130   60.9020   28.1170 C   0  0  0  0  0  0  0  0  0  0  0  0
   58.8270   60.5670   26.8020 N   0  0  0  0  0  0  0  0  0  0  0  0
   58.0970   59.5670   26.2680 C   0  0  0  0  0  0  0  0  0  0  0  0
   57.2380   58.8640   26.9950 N   0  0  0  0  0  0  0  0  0  0  0  0
   58.3580   59.3830   24.8750 N   0  0  0  0  0  0  0  0  0  0  0  0
   58.3050   60.5430   24.1930 N   0  0  0  0  0  0  0  0  0  0  0  0
   58.5350   60.2570   22.8800 C   0  0  0  0  0  3  0  0  0  0  0  0
   58.7290   58.9100   22.7770 C   0  0  0  0  0  3  0  0  0  0  0  0
   58.6160   58.3690   24.0440 C   0  0  0  0  0  0  0  0  0  0  0  0
   61.0520   65.9380   30.5060 H   0  0  0  0  0  0  0  0  0  0  0  0
   62.5650   65.0030   30.3560 H   0  0  0  0  0  0  0  0  0  0  0  0
   58.6900   57.1770   24.5820 O   0  0  0  0  0  0  0  0  0  0  0  0
   59.9720   56.5710   24.8350 C   0  0  2  0  0  3  0  0  0  0  0  0
   60.0970   55.4450   25.7730 C   0  0  0  0  0  2  0  0  0  0  0  0
   60.6640   56.8370   26.0860 C   0  0  1  0  0  3  0  0  0  0  0  0
   62.1180   56.9750   26.2460 C   0  0  0  0  0  0  0  0  0  0  0  0
   62.8680   57.0390   25.0680 C   0  0  0  0  0  3  0  0  0  0  0  0
   64.1700   57.1780   25.4230 N   0  0  0  0  0  0  0  0  0  0  0  0
   64.2860   57.2050   26.7760 C   0  0  0  0  0  0  0  0  0  0  0  0
   65.3010   57.3180   27.7030 C   0  0  0  0  0  3  0  0  0  0  0  0
   65.0590   57.3060   29.0600 C   0  0  0  0  0  3  0  0  0  0  0  0
   63.7470   57.1750   29.5220 C   0  0  0  0  0  3  0  0  0  0  0  0
   62.7290   57.0620   28.5990 C   0  0  0  0  0  3  0  0  0  0  0  0
   63.0210   57.0800   27.2580 C   0  0  0  0  0  0  0  0  0  0  0  0
   64.9560   57.2530   24.7620 H   0  0  0  0  0  0  0  0  0  0  0  0
  1  2  1  0  0  0  0
  1  7  1  0  0  0  0
  2  3  2  0  0  0  0
  3  4  1  0  0  0  0
  4  5  1  0  0  0  0
  5 21  1  0  0  0  0
  5 20  1  0  0  0  0
  6  4  2  0  0  0  0
  7  6  1  0  0  0  0
  8  7  2  0  0  0  0
  9 10  1  0  0  0  0
 11  1  1  0  0  0  0
 11 10  2  0  0  0  0
 12 11  1  0  0  0  0
 13 12  2  0  0  0  0
 13 14  1  0  0  0  0
 14  9  2  0  0  0  0
 15 13  1  0  0  0  0
 16 15  1  0  0  0  0
 17 16  2  0  0  0  0
 18 17  1  0  0  0  0
 18 19  2  0  0  0  0
 19 22  1  0  0  0  0
 19 15  1  0  0  0  0
 23 22  1  1  0  0  0
 23 24  1  0  0  0  0
 23 25  1  0  0  0  0
 24 25  1  0  0  0  0
 25 26  1  6  0  0  0
 26 34  1  0  0  0  0
 27 28  1  0  0  0  0
 27 26  2  0  0  0  0
 28 29  1  0  0  0  0
 29 34  2  0  0  0  0
 29 30  1  0  0  0  0
 30 31  2  0  0  0  0
 31 32  1  0  0  0  0
 33 32  2  0  0  0  0
 34 33  1  0  0  0  0
 35 28  1  0  0  0  0
M  END
>  <minimizedAffinity>
-7.24821758

$$$$

 OpenBabel03242509373D

 35 40  0  0  1  0  0  0  0  0999 V2000
   68.2420   62.3350   29.9920 N   0  0  0  0  0  0  0  0  0  0  0  0
   66.9960   62.2150   29.5610 C   0  0  0  0  0  3  0  0  0  0  0  0
   66.6360   62.9190   28.4380 C   0  0  0  0  0  3  0  0  0  0  0  0
   67.6260   63.6980   27.8570 C   0  0  0  0  0  0  0  0  0  0  0  0
   67.2760   64.4410   26.6840 N   0  0  0  0  0  0  0  0  0  0  0  0
   68.8940   63.7900   28.3370 N   0  0  0  0  0  0  0  0  0  0  0  0
   69.2160   63.0900   29.4360 C   0  0  0  0  0  0  0  0  0  0  0  0
   70.3870   63.1490   29.9140 O   0  0  0  0  0  0  0  0  0  0  0  0
   69.8960   59.8810   32.2760 C   0  0  0  0  0  3  0  0  0  0  0  0
   69.5530   60.5270   31.0980 C   0  0  0  0  0  3  0  0  0  0  0  0
   68.6460   61.6140   31.1610 C   0  0  0  0  0  0  0  0  0  0  0  0
   68.1610   61.9560   32.3870 N   0  0  0  0  0  0  0  0  0  0  0  0
   68.5320   61.2890   33.4980 C   0  0  0  0  0  0  0  0  0  0  0  0
   69.3810   60.2710   33.4500 N   0  0  0  0  0  0  0  0  0  0  0  0
   67.9190   61.8100   34.6790 N   0  0  0  0  0  0  0  0  0  0  0  0
   68.0380   63.1480   34.7620 N   0  0  0  0  0  0  0  0  0  0  0  0
   67.4530   63.5400   35.9290 C   0  0  0  0  0  3  0  0  0  0  0  0
   66.9780   62.4220   36.5510 C   0  0  0  0  0  3  0  0  0  0  0  0
   67.2770   61.3350   35.7500 C   0  0  0  0  0  0  0  0  0  0  0  0
   67.9800   65.0330   26.2210 H   0  0  0  0  0  0  0  0  0  0  0  0
   66.3200   64.3830   26.3040 H   0  0  0  0  0  0  0  0  0  0  0  0
   67.0970   60.0380   35.7970 O   0  0  0  0  0  0  0  0  0  0  0  0
   66.2900   59.3790   34.8020 C   0  0  2  0  0  3  0  0  0  0  0  0
   65.4210   58.2510   35.1700 C   0  0  0  0  0  2  0  0  0  0  0  0
   66.6790   58.0680   34.3080 C   0  0  1  0  0  3  0  0  0  0  0  0
   66.5120   57.5910   32.9290 C   0  0  0  0  0  0  0  0  0  0  0  0
   67.3630   56.5590   32.5230 C   0  0  0  0  0  3  0  0  0  0  0  0
   67.0470   56.2540   31.2400 N   0  0  0  0  0  0  0  0  0  0  0  0
   66.0320   57.0460   30.8060 C   0  0  0  0  0  0  0  0  0  0  0  0
   65.3010   57.2130   29.6480 C   0  0  0  0  0  3  0  0  0  0  0  0
   64.2990   58.1530   29.5430 C   0  0  0  0  0  3  0  0  0  0  0  0
   64.0060   58.9680   30.6390 C   0  0  0  0  0  3  0  0  0  0  0  0
   64.7330   58.8050   31.7990 C   0  0  0  0  0  3  0  0  0  0  0  0
   65.7200   57.8540   31.8540 C   0  0  0  0  0  0  0  0  0  0  0  0
   67.5090   55.5260   30.6760 H   0  0  0  0  0  0  0  0  0  0  0  0
  1 11  1  0  0  0  0
  2  1  1  0  0  0  0
  3  2  2  0  0  0  0
  4  6  2  0  0  0  0
  4  3  1  0  0  0  0
  5  4  1  0  0  0  0
  6  7  1  0  0  0  0
  7  8  2  0  0  0  0
  7  1  1  0  0  0  0
  9 14  2  0  0  0  0
 10 11  2  0  0  0  0
 10  9  1  0  0  0  0
 11 12  1  0  0  0  0
 12 13  2  0  0  0  0
 13 15  1  0  0  0  0
 14 13  1  0  0  0  0
 15 16  1  0  0  0  0
 15 19  1  0  0  0  0
 16 17  2  0  0  0  0
 17 18  1  0  0  0  0
 19 22  1  0  0  0  0
 19 18  2  0  0  0  0
 20  5  1  0  0  0  0
 21  5  1  0  0  0  0
 23 24  1  0  0  0  0
 23 22  1  1  0  0  0
 25 26  1  6  0  0  0
 25 23  1  0  0  0  0
 25 24  1  0  0  0  0
 27 26  2  0  0  0  0
 28 27  1  0  0  0  0
 29 28  1  0  0  0  0
 29 34  1  0  0  0  0
 30 29  2  0  0  0  0
 31 30  1  0  0  0  0
 31 32  2  0  0  0  0
 32 33  1  0  0  0  0
 33 34  2  0  0  0  0
 34 26  1  0  0  0  0
 35 28  1  0  0  0  0
M  END
>  <minimizedAffinity>
-7.12135744

$$$$

 OpenBabel03242509373D

 35 40  0  0  1  0  0  0  0  0999 V2000
   65.1540   59.1690   30.6300 N   0  0  0  0  0  0  0  0  0  0  0  0
   63.9560   59.5070   30.1800 C   0  0  0  0  0  3  0  0  0  0  0  0
   63.1970   58.5310   29.5840 C   0  0  0  0  0  3  0  0  0  0  0  0
   63.7650   57.2680   29.5110 C   0  0  0  0  0  0  0  0  0  0  0  0
   62.9920   56.2310   28.8970 N   0  0  0  0  0  0  0  0  0  0  0  0
   65.0010   56.9660   29.9900 N   0  0  0  0  0  0  0  0  0  0  0  0
   65.7200   57.9420   30.5660 C   0  0  0  0  0  0  0  0  0  0  0  0
   66.8760   57.7030   31.0250 O   0  0  0  0  0  0  0  0  0  0  0  0
   67.0520   61.1470   33.1720 C   0  0  0  0  0  3  0  0  0  0  0  0
   66.2530   60.1450   32.6430 C   0  0  0  0  0  3  0  0  0  0  0  0
   65.9690   60.1660   31.2550 C   0  0  0  0  0  0  0  0  0  0  0  0
   66.5040   61.1810   30.5210 N   0  0  0  0  0  0  0  0  0  0  0  0
   67.2750   62.1280   31.0920 C   0  0  0  0  0  0  0  0  0  0  0  0
   67.5480   62.1170   32.3910 N   0  0  0  0  0  0  0  0  0  0  0  0
   67.7430   63.0950   30.1500 N   0  0  0  0  0  0  0  0  0  0  0  0
   68.2800   62.5180   29.0580 N   0  0  0  0  0  0  0  0  0  0  0  0
   68.7200   63.5170   28.2410 C   0  0  0  0  0  3  0  0  0  0  0  0
   68.4430   64.7040   28.8530 C   0  0  0  0  0  3  0  0  0  0  0  0
   67.8240   64.4250   30.0570 C   0  0  0  0  0  0  0  0  0  0  0  0
   63.3760   55.2780   28.8210 H   0  0  0  0  0  0  0  0  0  0  0  0
   62.0520   56.4380   28.5300 H   0  0  0  0  0  0  0  0  0  0  0  0
   67.3400   65.1120   31.0620 O   0  0  0  0  0  0  0  0  0  0  0  0
   66.0100   65.6600   30.9950 C   0  0  2  0  0  3  0  0  0  0  0  0
   65.5930   66.7310   31.9130 C   0  0  0  0  0  2  0  0  0  0  0  0
   65.0290   65.3060   32.0080 C   0  0  1  0  0  3  0  0  0  0  0  0
   63.5910   65.1110   31.7750 C   0  0  0  0  0  0  0  0  0  0  0  0
   62.7260   65.8470   32.5890 C   0  0  0  0  0  3  0  0  0  0  0  0
   61.4590   65.5420   32.2140 N   0  0  0  0  0  0  0  0  0  0  0  0
   61.4750   64.6430   31.1960 C   0  0  0  0  0  0  0  0  0  0  0  0
   60.5510   63.9740   30.4200 C   0  0  0  0  0  3  0  0  0  0  0  0
   60.9260   63.0910   29.4320 C   0  0  0  0  0  3  0  0  0  0  0  0
   62.2840   62.8570   29.1990 C   0  0  0  0  0  3  0  0  0  0  0  0
   63.2110   63.5240   29.9720 C   0  0  0  0  0  3  0  0  0  0  0  0
   62.7880   64.3940   30.9440 C   0  0  0  0  0  0  0  0  0  0  0  0
   60.6070   65.9360   32.6390 H   0  0  0  0  0  0  0  0  0  0  0  0
  1 11  1  0  0  0  0
  2  1  1  0  0  0  0
  3  2  2  0  0  0  0
  4  3  1  0  0  0  0
  4  6  2  0  0  0  0
  5  4  1  0  0  0  0
  6  7  1  0  0  0  0
  7  1  1  0  0  0  0
  7  8  2  0  0  0  0
 10  9  1  0  0  0  0
 11 10  2  0  0  0  0
 12 13  2  0  0  0  0
 12 11  1  0  0  0  0
 13 14  1  0  0  0  0
 14  9  2  0  0  0  0
 15 13  1  0  0  0  0
 16 15  1  0  0  0  0
 17 18  1  0  0  0  0
 17 16  2  0  0  0  0
 18 19  2  0  0  0  0
 19 15  1  0  0  0  0
 19 22  1  0  0  0  0
 20  5  1  0  0  0  0
 21  5  1  0  0  0  0
 23 22  1  1  0  0  0
 23 24  1  0  0  0  0
 23 25  1  0  0  0  0
 24 25  1  0  0  0  0
 25 26  1  6  0  0  0
 26 27  2  0  0  0  0
 28 27  1  0  0  0  0
 28 35  1  0  0  0  0
 29 28  1  0  0  0  0
 30 29  2  0  0  0  0
 31 30  1  0  0  0  0
 32 31  2  0  0  0  0
 32 33  1  0  0  0  0
 33 34  2  0  0  0  0
 34 29  1  0  0  0  0
 34 26  1  0  0  0  0
M  END
>  <minimizedAffinity>
-6.81846857

$$$$

 OpenBabel03242509373D

 35 40  0  0  1  0  0  0  0  0999 V2000
   67.0940   62.0030   30.4900 N   0  0  0  0  0  0  0  0  0  0  0  0
   68.1910   61.4600   30.9950 C   0  0  0  0  0  3  0  0  0  0  0  0
   68.0430   60.4070   31.8640 C   0  0  0  0  0  3  0  0  0  0  0  0
   66.7420   60.0100   32.1330 C   0  0  0  0  0  0  0  0  0  0  0  0
   66.5610   58.9130   33.0350 N   0  0  0  0  0  0  0  0  0  0  0  0
   65.6440   60.5990   31.5890 N   0  0  0  0  0  0  0  0  0  0  0  0
   65.8210   61.6260   30.7440 C   0  0  0  0  0  0  0  0  0  0  0  0
   64.8240   62.2020   30.2160 O   0  0  0  0  0  0  0  0  0  0  0  0
   67.0470   64.0940   27.3920 C   0  0  0  0  0  3  0  0  0  0  0  0
   66.9030   62.9810   28.2060 C   0  0  0  0  0  3  0  0  0  0  0  0
   67.2170   63.1030   29.5830 C   0  0  0  0  0  0  0  0  0  0  0  0
   67.6480   64.3180   30.0220 N   0  0  0  0  0  0  0  0  0  0  0  0
   67.7680   65.3650   29.1810 C   0  0  0  0  0  0  0  0  0  0  0  0
   67.4750   65.2620   27.8910 N   0  0  0  0  0  0  0  0  0  0  0  0
   68.2250   66.5470   29.8410 N   0  0  0  0  0  0  0  0  0  0  0  0
   67.5220   66.8050   30.9610 N   0  0  0  0  0  0  0  0  0  0  0  0
   68.0110   67.9600   31.4950 C   0  0  0  0  0  3  0  0  0  0  0  0
   69.0180   68.3970   30.6850 C   0  0  0  0  0  3  0  0  0  0  0  0
   69.1450   67.4960   29.6440 C   0  0  0  0  0  0  0  0  0  0  0  0
   65.6110   58.5850   33.2630 H   0  0  0  0  0  0  0  0  0  0  0  0
   67.3800   58.4510   33.4550 H   0  0  0  0  0  0  0  0  0  0  0  0
   69.8980   67.3670   28.5800 O   0  0  0  0  0  0  0  0  0  0  0  0
   71.0270   66.4730   28.5920 C   0  0  2  0  0  3  0  0  0  0  0  0
   72.1060   66.6150   27.6020 C   0  0  0  0  0  2  0  0  0  0  0  0
   71.1330   65.4270   27.5870 C   0  0  1  0  0  3  0  0  0  0  0  0
   71.6760   64.0800   27.8080 C   0  0  0  0  0  0  0  0  0  0  0  0
   71.2810   63.4380   28.9840 C   0  0  0  0  0  3  0  0  0  0  0  0
   71.8700   62.2170   28.9980 N   0  0  0  0  0  0  0  0  0  0  0  0
   72.6270   62.0490   27.8820 C   0  0  0  0  0  0  0  0  0  0  0  0
   73.4350   61.0710   27.3430 C   0  0  0  0  0  3  0  0  0  0  0  0
   74.0850   61.2360   26.1390 C   0  0  0  0  0  3  0  0  0  0  0  0
   73.9270   62.4310   25.4330 C   0  0  0  0  0  3  0  0  0  0  0  0
   73.1200   63.4130   25.9670 C   0  0  0  0  0  3  0  0  0  0  0  0
   72.4930   63.2000   27.1690 C   0  0  0  0  0  0  0  0  0  0  0  0
   71.7600   61.5170   29.7450 H   0  0  0  0  0  0  0  0  0  0  0  0
  1  7  1  0  0  0  0
  1  2  1  0  0  0  0
  2  3  2  0  0  0  0
  3  4  1  0  0  0  0
  4  5  1  0  0  0  0
  5 20  1  0  0  0  0
  5 21  1  0  0  0  0
  6  4  2  0  0  0  0
  7  6  1  0  0  0  0
  8  7  2  0  0  0  0
  9 14  2  0  0  0  0
  9 10  1  0  0  0  0
 10 11  2  0  0  0  0
 11 12  1  0  0  0  0
 11  1  1  0  0  0  0
 13 15  1  0  0  0  0
 13 12  2  0  0  0  0
 14 13  1  0  0  0  0
 15 16  1  0  0  0  0
 16 17  2  0  0  0  0
 18 17  1  0  0  0  0
 19 15  1  0  0  0  0
 19 18  2  0  0  0  0
 22 19  1  0  0  0  0
 23 22  1  6  0  0  0
 24 23  1  0  0  0  0
 25 24  1  0  0  0  0
 25 26  1  1  0  0  0
 25 23  1  0  0  0  0
 26 27  2  0  0  0  0
 27 28  1  0  0  0  0
 28 35  1  0  0  0  0
 29 28  1  0  0  0  0
 30 29  1  0  0  0  0
 31 30  2  0  0  0  0
 32 33  2  0  0  0  0
 32 31  1  0  0  0  0
 33 34  1  0  0  0  0
 34 26  1  0  0  0  0
 34 29  2  0  0  0  0
M  END
>  <minimizedAffinity>
-6.77300596

$$$$

 OpenBabel03242509373D

 35 40  0  0  1  0  0  0  0  0999 V2000
   70.3460   59.6040   31.8790 N   0  0  0  0  0  0  0  0  0  0  0  0
   69.1050   59.8280   31.4760 C   0  0  0  0  0  3  0  0  0  0  0  0
   68.1370   58.9290   31.8520 C   0  0  0  0  0  3  0  0  0  0  0  0
   68.5590   57.8600   32.6270 C   0  0  0  0  0  0  0  0  0  0  0  0
   67.5680   56.9090   33.0340 N   0  0  0  0  0  0  0  0  0  0  0  0
   69.8470   57.6710   33.0190 N   0  0  0  0  0  0  0  0  0  0  0  0
   70.7700   58.5670   32.6350 C   0  0  0  0  0  0  0  0  0  0  0  0
   71.9810   58.4270   32.9790 O   0  0  0  0  0  0  0  0  0  0  0  0
   72.9980   62.2360   32.0000 C   0  0  0  0  0  3  0  0  0  0  0  0
   72.0070   61.3740   32.4440 C   0  0  0  0  0  3  0  0  0  0  0  0
   71.3760   60.5240   31.5020 C   0  0  0  0  0  0  0  0  0  0  0  0
   71.7860   60.6110   30.2060 N   0  0  0  0  0  0  0  0  0  0  0  0
   72.7550   61.4690   29.8340 C   0  0  0  0  0  0  0  0  0  0  0  0
   73.3540   62.2690   30.7080 N   0  0  0  0  0  0  0  0  0  0  0  0
   73.0420   61.3980   28.4360 N   0  0  0  0  0  0  0  0  0  0  0  0
   73.2270   60.1300   28.0220 N   0  0  0  0  0  0  0  0  0  0  0  0
   73.5230   60.1720   26.6920 C   0  0  0  0  0  3  0  0  0  0  0  0
   73.5150   61.4810   26.3070 C   0  0  0  0  0  3  0  0  0  0  0  0
   73.2080   62.2460   27.4170 C   0  0  0  0  0  0  0  0  0  0  0  0
   67.8380   56.0990   33.6100 H   0  0  0  0  0  0  0  0  0  0  0  0
   66.5870   57.0350   32.7500 H   0  0  0  0  0  0  0  0  0  0  0  0
   73.0610   63.5200   27.6860 O   0  0  0  0  0  0  0  0  0  0  0  0
   71.8410   64.2010   27.3370 C   0  0  2  0  0  3  0  0  0  0  0  0
   71.8660   65.6040   26.8960 C   0  0  0  0  0  2  0  0  0  0  0  0
   71.2730   65.1810   28.2480 C   0  0  1  0  0  3  0  0  0  0  0  0
   69.8390   65.4040   28.4780 C   0  0  0  0  0  0  0  0  0  0  0  0
   69.4420   66.7280   28.6820 C   0  0  0  0  0  3  0  0  0  0  0  0
   68.0970   66.7260   28.8600 N   0  0  0  0  0  0  0  0  0  0  0  0
   67.6160   65.4580   28.7790 C   0  0  0  0  0  0  0  0  0  0  0  0
   66.3910   64.8320   28.8720 C   0  0  0  0  0  3  0  0  0  0  0  0
   66.2520   63.4680   28.7370 C   0  0  0  0  0  3  0  0  0  0  0  0
   67.3830   62.6840   28.4980 C   0  0  0  0  0  3  0  0  0  0  0  0
   68.6110   63.3050   28.4040 C   0  0  0  0  0  3  0  0  0  0  0  0
   68.6970   64.6670   28.5450 C   0  0  0  0  0  0  0  0  0  0  0  0
   67.5240   67.5640   29.0310 H   0  0  0  0  0  0  0  0  0  0  0  0
  1  7  1  0  0  0  0
  2  3  2  0  0  0  0
  2  1  1  0  0  0  0
  3  4  1  0  0  0  0
  4  6  2  0  0  0  0
  4  5  1  0  0  0  0
  5 20  1  0  0  0  0
  7  8  2  0  0  0  0
  7  6  1  0  0  0  0
  9 10  1  0  0  0  0
 11  1  1  0  0  0  0
 11 10  2  0  0  0  0
 12 11  1  0  0  0  0
 13 12  2  0  0  0  0
 13 14  1  0  0  0  0
 14  9  2  0  0  0  0
 15 13  1  0  0  0  0
 16 15  1  0  0  0  0
 17 16  2  0  0  0  0
 18 17  1  0  0  0  0
 18 19  2  0  0  0  0
 19 22  1  0  0  0  0
 19 15  1  0  0  0  0
 21  5  1  0  0  0  0
 23 22  1  1  0  0  0
 23 25  1  0  0  0  0
 24 23  1  0  0  0  0
 24 25  1  0  0  0  0
 25 26  1  6  0  0  0
 26 34  1  0  0  0  0
 26 27  2  0  0  0  0
 27 28  1  0  0  0  0
 28 35  1  0  0  0  0
 29 28  1  0  0  0  0
 29 30  1  0  0  0  0
 31 30  2  0  0  0  0
 32 31  1  0  0  0  0
 33 32  2  0  0  0  0
 33 34  1  0  0  0  0
 34 29  2  0  0  0  0
M  END
>  <minimizedAffinity>
-6.62284279

$$$$

 OpenBabel03242509373D

 35 40  0  0  1  0  0  0  0  0999 V2000
   66.3470   64.7470   30.8600 N   0  0  0  0  0  0  0  0  0  0  0  0
   65.1080   64.7770   30.3930 C   0  0  0  0  0  3  0  0  0  0  0  0
   64.4430   65.9780   30.4180 C   0  0  0  0  0  3  0  0  0  0  0  0
   65.1420   67.0570   30.9380 C   0  0  0  0  0  0  0  0  0  0  0  0
   64.4700   68.3210   30.9730 N   0  0  0  0  0  0  0  0  0  0  0  0
   66.4150   66.9790   31.4060 N   0  0  0  0  0  0  0  0  0  0  0  0
   67.0390   65.7910   31.3680 C   0  0  0  0  0  0  0  0  0  0  0  0
   68.2260   65.6760   31.7950 O   0  0  0  0  0  0  0  0  0  0  0  0
   68.8140   62.0620   30.0370 C   0  0  0  0  0  3  0  0  0  0  0  0
   68.1690   63.2890   29.9880 C   0  0  0  0  0  3  0  0  0  0  0  0
   67.0650   63.5090   30.8480 C   0  0  0  0  0  0  0  0  0  0  0  0
   66.7020   62.4900   31.6750 N   0  0  0  0  0  0  0  0  0  0  0  0
   67.3670   61.3180   31.6780 C   0  0  0  0  0  0  0  0  0  0  0  0
   68.4030   61.1010   30.8770 N   0  0  0  0  0  0  0  0  0  0  0  0
   66.8340   60.3880   32.6220 N   0  0  0  0  0  0  0  0  0  0  0  0
   66.6680   60.9410   33.8380 N   0  0  0  0  0  0  0  0  0  0  0  0
   66.1880   59.9720   34.6680 C   0  0  0  0  0  3  0  0  0  0  0  0
   66.0660   58.8250   33.9380 C   0  0  0  0  0  3  0  0  0  0  0  0
   66.4750   59.1010   32.6470 C   0  0  0  0  0  0  0  0  0  0  0  0
   64.9520   69.1500   31.3510 H   0  0  0  0  0  0  0  0  0  0  0  0
   63.5060   68.4020   30.6210 H   0  0  0  0  0  0  0  0  0  0  0  0
   66.5930   58.4400   31.5220 O   0  0  0  0  0  0  0  0  0  0  0  0
   65.5840   58.5550   30.5010 C   0  0  2  0  0  3  0  0  0  0  0  0
   64.1700   58.2930   30.8120 C   0  0  0  0  0  2  0  0  0  0  0  0
   65.0000   57.3560   29.9220 C   0  0  1  0  0  3  0  0  0  0  0  0
   64.5970   57.1930   28.5190 C   0  0  0  0  0  0  0  0  0  0  0  0
   65.4890   57.6770   27.5580 C   0  0  0  0  0  3  0  0  0  0  0  0
   64.9500   57.4240   26.3390 N   0  0  0  0  0  0  0  0  0  0  0  0
   63.7510   56.7990   26.4780 C   0  0  0  0  0  0  0  0  0  0  0  0
   62.7630   56.3080   25.6510 C   0  0  0  0  0  3  0  0  0  0  0  0
   61.6240   55.7090   26.1450 C   0  0  0  0  0  3  0  0  0  0  0  0
   61.4550   55.5910   27.5260 C   0  0  0  0  0  3  0  0  0  0  0  0
   62.4400   56.0810   28.3570 C   0  0  0  0  0  3  0  0  0  0  0  0
   63.5560   56.6680   27.8180 C   0  0  0  0  0  0  0  0  0  0  0  0
   65.3860   57.6690   25.4390 H   0  0  0  0  0  0  0  0  0  0  0  0
  1  7  1  0  0  0  0
  2  3  2  0  0  0  0
  2  1  1  0  0  0  0
  3  4  1  0  0  0  0
  4  5  1  0  0  0  0
  4  6  2  0  0  0  0
  5 20  1  0  0  0  0
  7  6  1  0  0  0  0
  7  8  2  0  0  0  0
  9 14  2  0  0  0  0
 10  9  1  0  0  0  0
 10 11  2  0  0  0  0
 11  1  1  0  0  0  0
 11 12  1  0  0  0  0
 12 13  2  0  0  0  0
 13 15  1  0  0  0  0
 14 13  1  0  0  0  0
 15 19  1  0  0  0  0
 15 16  1  0  0  0  0
 16 17  2  0  0  0  0
 18 17  1  0  0  0  0
 19 18  2  0  0  0  0
 21  5  1  0  0  0  0
 22 19  1  0  0  0  0
 23 24  1  0  0  0  0
 23 22  1  1  0  0  0
 25 26  1  6  0  0  0
 25 23  1  0  0  0  0
 25 24  1  0  0  0  0
 27 26  2  0  0  0  0
 28 29  1  0  0  0  0
 28 27  1  0  0  0  0
 29 34  1  0  0  0  0
 30 31  1  0  0  0  0
 30 29  2  0  0  0  0
 31 32  2  0  0  0  0
 32 33  1  0  0  0  0
 34 33  2  0  0  0  0
 34 26  1  0  0  0  0
 35 28  1  0  0  0  0
M  END
>  <minimizedAffinity>
-6.59764671

$$$$
