
 OpenBabel03242509293D

 32 37  0  0  0  0  0  0  0  0999 V2000
   66.5430   57.1280   31.0330 C   0  0  0  0  0  3  0  0  0  0  0  0
   65.7960   57.7140   32.0780 C   0  0  0  0  0  0  0  0  0  0  0  0
   64.4820   58.1300   31.8160 C   0  0  0  0  0  3  0  0  0  0  0  0
   63.9890   57.9470   30.5630 N   0  0  0  0  0  0  0  0  0  0  0  0
   64.7490   57.3810   29.6030 C   0  0  0  0  0  0  0  0  0  0  0  0
   66.0080   56.9780   29.8380 N   0  0  0  0  0  0  0  0  0  0  0  0
   66.4400   57.8630   33.3940 C   0  0  0  0  0  0  0  0  0  0  0  0
   65.7570   58.4980   34.4410 C   0  0  0  0  0  3  0  0  0  0  0  0
   66.9650   58.4280   35.8450 S   0  0  0  0  0  0  0  0  0  0  0  0
   68.2000   57.5280   34.7120 C   0  0  0  0  0  0  0  0  0  0  0  0
   67.6290   57.4670   33.7650 N   0  0  0  0  0  0  0  0  0  0  0  0
   69.5070   57.0930   35.1220 N   0  0  0  0  0  0  0  0  0  0  0  0
   69.9620   57.0650   36.4790 C   0  0  0  0  0  2  0  0  0  0  0  0
   71.4840   57.0020   36.4080 C   0  0  0  0  0  2  0  0  0  0  0  0
   71.9380   55.8790   35.7420 O   0  0  0  0  0  0  0  0  0  0  0  0
   71.2130   55.5150   34.6440 C   0  0  0  0  0  2  0  0  0  0  0  0
   70.4030   56.6600   34.0740 C   0  0  0  0  0  2  0  0  0  0  0  0
   64.1480   57.2280   28.2820 C   0  0  0  0  0  0  0  0  0  0  0  0
   64.6780   57.2090   27.0590 N   0  0  0  0  0  0  0  0  0  0  0  0
   63.7570   57.0500   26.1560 O   0  0  0  0  0  0  0  0  0  0  0  0
   62.5790   56.9560   26.7570 C   0  0  0  0  0  0  0  0  0  0  0  0
   62.8460   57.0680   28.0530 N   0  0  0  0  0  0  0  0  0  0  0  0
   61.3740   56.7740   25.9700 C   0  0  0  0  0  0  0  0  0  0  0  0
   60.7110   55.6090   25.9780 N   0  0  0  0  0  0  0  0  0  0  0  0
   59.5950   55.3470   25.2880 C   0  0  0  0  0  3  0  0  0  0  0  0
   59.0410   56.3080   24.4950 N   0  0  0  0  0  0  0  0  0  0  0  0
   59.6390   57.5350   24.4150 C   0  0  0  0  0  0  0  0  0  0  0  0
   59.1110   58.5330   23.6250 C   0  0  0  0  0  3  0  0  0  0  0  0
   59.7020   59.7720   23.5340 C   0  0  0  0  0  3  0  0  0  0  0  0
   60.8650   59.9730   24.2840 C   0  0  0  0  0  3  0  0  0  0  0  0
   61.3500   58.9440   25.0550 C   0  0  0  0  0  3  0  0  0  0  0  0
   60.7840   57.7130   25.1590 C   0  0  0  0  0  0  0  0  0  0  0  0
  1  2  1  0  0  0  0
  2  7  1  0  0  0  0
  3  2  2  0  0  0  0
  4  3  1  0  0  0  0
  5  6  1  0  0  0  0
  5  4  2  0  0  0  0
  6  1  2  0  0  0  0
  7 11  1  0  0  0  0
  7  8  2  0  0  0  0
  8  9  1  0  0  0  0
 10 12  1  0  0  0  0
 10  9  1  0  0  0  0
 11 10  2  0  0  0  0
 12 13  1  0  0  0  0
 14 13  1  0  0  0  0
 15 14  1  0  0  0  0
 16 15  1  0  0  0  0
 17 16  1  0  0  0  0
 17 12  1  0  0  0  0
 18  5  1  0  0  0  0
 19 18  2  0  0  0  0
 20 21  1  0  0  0  0
 20 19  1  0  0  0  0
 21 22  2  0  0  0  0
 22 18  1  0  0  0  0
 23 24  1  0  0  0  0
 23 21  1  0  0  0  0
 25 24  2  0  0  0  0
 26 25  1  0  0  0  0
 27 26  2  0  0  0  0
 27 32  1  0  0  0  0
 28 27  1  0  0  0  0
 29 28  2  0  0  0  0
 29 30  1  0  0  0  0
 30 31  2  0  0  0  0
 31 32  1  0  0  0  0
 32 23  2  0  0  0  0
M  END
>  <minimizedAffinity>
-8.4197979

$$$$

 OpenBabel03242509293D

 32 37  0  0  0  0  0  0  0  0999 V2000
   66.6850   57.0530   31.0540 C   0  0  0  0  0  3  0  0  0  0  0  0
   65.9720   57.6220   32.1310 C   0  0  0  0  0  0  0  0  0  0  0  0
   64.6570   58.0580   31.9120 C   0  0  0  0  0  3  0  0  0  0  0  0
   64.1310   57.9110   30.6680 N   0  0  0  0  0  0  0  0  0  0  0  0
   64.8600   57.3600   29.6760 C   0  0  0  0  0  0  0  0  0  0  0  0
   66.1190   56.9380   29.8690 N   0  0  0  0  0  0  0  0  0  0  0  0
   66.6510   57.7320   33.4330 C   0  0  0  0  0  0  0  0  0  0  0  0
   67.5370   56.7280   33.8490 C   0  0  0  0  0  3  0  0  0  0  0  0
   68.1120   57.3240   35.5070 S   0  0  0  0  0  0  0  0  0  0  0  0
   67.0100   58.8620   35.3140 C   0  0  0  0  0  0  0  0  0  0  0  0
   66.5530   58.6850   34.3220 N   0  0  0  0  0  0  0  0  0  0  0  0
   66.9020   59.9100   36.2930 N   0  0  0  0  0  0  0  0  0  0  0  0
   67.7730   60.0570   37.4200 C   0  0  0  0  0  2  0  0  0  0  0  0
   67.0360   60.9620   38.4010 C   0  0  0  0  0  2  0  0  0  0  0  0
   66.7540   62.2060   37.8660 O   0  0  0  0  0  0  0  0  0  0  0  0
   66.3720   62.2070   36.5560 C   0  0  0  0  0  2  0  0  0  0  0  0
   65.8350   60.8660   36.1030 C   0  0  0  0  0  2  0  0  0  0  0  0
   64.2240   57.2450   28.3680 C   0  0  0  0  0  0  0  0  0  0  0  0
   64.7190   57.2780   27.1310 N   0  0  0  0  0  0  0  0  0  0  0  0
   63.7760   57.1370   26.2480 O   0  0  0  0  0  0  0  0  0  0  0  0
   62.6170   57.0050   26.8780 C   0  0  0  0  0  0  0  0  0  0  0  0
   62.9180   57.0740   28.1690 N   0  0  0  0  0  0  0  0  0  0  0  0
   61.3920   56.8330   26.1190 C   0  0  0  0  0  0  0  0  0  0  0  0
   60.7760   55.6450   26.0580 N   0  0  0  0  0  0  0  0  0  0  0  0
   59.6470   55.3890   25.3850 C   0  0  0  0  0  3  0  0  0  0  0  0
   59.0280   56.3840   24.6880 N   0  0  0  0  0  0  0  0  0  0  0  0
   59.5740   57.6380   24.6840 C   0  0  0  0  0  0  0  0  0  0  0  0
   58.9810   58.6710   23.9910 C   0  0  0  0  0  3  0  0  0  0  0  0
   59.5190   59.9370   23.9780 C   0  0  0  0  0  3  0  0  0  0  0  0
   60.6990   60.1280   24.7030 C   0  0  0  0  0  3  0  0  0  0  0  0
   61.2510   59.0640   25.3760 C   0  0  0  0  0  3  0  0  0  0  0  0
   60.7370   57.8060   25.4020 C   0  0  0  0  0  0  0  0  0  0  0  0
  1  2  1  0  0  0  0
  2  7  1  0  0  0  0
  3  2  2  0  0  0  0
  4  3  1  0  0  0  0
  5  6  1  0  0  0  0
  5  4  2  0  0  0  0
  6  1  2  0  0  0  0
  7  8  2  0  0  0  0
  7 11  1  0  0  0  0
  8  9  1  0  0  0  0
 10  9  1  0  0  0  0
 10 12  1  0  0  0  0
 11 10  2  0  0  0  0
 12 13  1  0  0  0  0
 13 14  1  0  0  0  0
 15 14  1  0  0  0  0
 16 15  1  0  0  0  0
 17 12  1  0  0  0  0
 17 16  1  0  0  0  0
 18  5  1  0  0  0  0
 19 18  2  0  0  0  0
 20 21  1  0  0  0  0
 20 19  1  0  0  0  0
 21 22  2  0  0  0  0
 22 18  1  0  0  0  0
 23 21  1  0  0  0  0
 24 23  1  0  0  0  0
 25 24  2  0  0  0  0
 26 25  1  0  0  0  0
 27 26  2  0  0  0  0
 27 32  1  0  0  0  0
 28 27  1  0  0  0  0
 29 28  2  0  0  0  0
 29 30  1  0  0  0  0
 30 31  2  0  0  0  0
 31 32  1  0  0  0  0
 32 23  2  0  0  0  0
M  END
>  <minimizedAffinity>
-7.80434275

$$$$

 OpenBabel03242509293D

 32 37  0  0  0  0  0  0  0  0999 V2000
   66.3520   57.0740   30.7530 C   0  0  0  0  0  3  0  0  0  0  0  0
   65.5950   57.6710   31.7850 C   0  0  0  0  0  0  0  0  0  0  0  0
   64.3200   58.1710   31.4820 C   0  0  0  0  0  3  0  0  0  0  0  0
   63.8730   58.0570   30.2030 N   0  0  0  0  0  0  0  0  0  0  0  0
   64.6410   57.4770   29.2580 C   0  0  0  0  0  0  0  0  0  0  0  0
   65.8620   56.9940   29.5320 N   0  0  0  0  0  0  0  0  0  0  0  0
   66.1880   57.7400   33.1310 C   0  0  0  0  0  0  0  0  0  0  0  0
   65.4480   58.2730   34.1960 C   0  0  0  0  0  3  0  0  0  0  0  0
   66.6090   58.1350   35.6340 S   0  0  0  0  0  0  0  0  0  0  0  0
   67.9110   57.3600   34.4850 C   0  0  0  0  0  0  0  0  0  0  0  0
   67.3760   57.3540   33.5160 N   0  0  0  0  0  0  0  0  0  0  0  0
   69.2170   56.9360   34.9090 N   0  0  0  0  0  0  0  0  0  0  0  0
   69.6260   56.8200   36.2770 C   0  0  0  0  0  2  0  0  0  0  0  0
   71.1510   56.8090   36.2570 C   0  0  0  0  0  2  0  0  0  0  0  0
   71.6640   55.7530   35.5270 O   0  0  0  0  0  0  0  0  0  0  0  0
   70.9900   55.4510   34.3800 C   0  0  0  0  0  2  0  0  0  0  0  0
   70.1630   56.6100   33.8660 C   0  0  0  0  0  2  0  0  0  0  0  0
   64.0910   57.4020   27.9080 C   0  0  0  0  0  0  0  0  0  0  0  0
   64.5870   56.9180   26.7700 N   0  0  0  0  0  0  0  0  0  0  0  0
   63.7410   57.0630   25.7950 O   0  0  0  0  0  0  0  0  0  0  0  0
   62.6470   57.6500   26.2600 C   0  0  0  0  0  0  0  0  0  0  0  0
   62.8870   57.8460   27.5520 N   0  0  0  0  0  0  0  0  0  0  0  0
   61.5370   57.9310   25.3700 C   0  0  0  0  0  0  0  0  0  0  0  0
   61.4400   59.1060   24.7320 N   0  0  0  0  0  0  0  0  0  0  0  0
   60.4560   59.4550   23.8950 C   0  0  0  0  0  3  0  0  0  0  0  0
   59.4420   58.5820   23.6310 N   0  0  0  0  0  0  0  0  0  0  0  0
   59.4440   57.3540   24.2320 C   0  0  0  0  0  0  0  0  0  0  0  0
   58.4370   56.4430   23.9930 C   0  0  0  0  0  3  0  0  0  0  0  0
   58.4260   55.2040   24.5900 C   0  0  0  0  0  3  0  0  0  0  0  0
   59.4870   54.9100   25.4520 C   0  0  0  0  0  3  0  0  0  0  0  0
   60.4650   55.8540   25.6560 C   0  0  0  0  0  3  0  0  0  0  0  0
   60.4960   57.0830   25.0780 C   0  0  0  0  0  0  0  0  0  0  0  0
  1  2  1  0  0  0  0
  2  7  1  0  0  0  0
  3  2  2  0  0  0  0
  4  3  1  0  0  0  0
  5  6  1  0  0  0  0
  5  4  2  0  0  0  0
  6  1  2  0  0  0  0
  7 11  1  0  0  0  0
  7  8  2  0  0  0  0
  8  9  1  0  0  0  0
 10 12  1  0  0  0  0
 10  9  1  0  0  0  0
 11 10  2  0  0  0  0
 12 13  1  0  0  0  0
 14 13  1  0  0  0  0
 15 14  1  0  0  0  0
 16 15  1  0  0  0  0
 17 16  1  0  0  0  0
 17 12  1  0  0  0  0
 18  5  1  0  0  0  0
 19 18  2  0  0  0  0
 20 21  1  0  0  0  0
 20 19  1  0  0  0  0
 21 22  2  0  0  0  0
 22 18  1  0  0  0  0
 23 21  1  0  0  0  0
 24 23  2  0  0  0  0
 25 24  1  0  0  0  0
 26 25  2  0  0  0  0
 26 27  1  0  0  0  0
 27 32  1  0  0  0  0
 28 27  2  0  0  0  0
 28 29  1  0  0  0  0
 29 30  2  0  0  0  0
 30 31  1  0  0  0  0
 32 23  1  0  0  0  0
 32 31  2  0  0  0  0
M  END
>  <minimizedAffinity>
-7.79446745

$$$$

 OpenBabel03242509293D

 32 37  0  0  0  0  0  0  0  0999 V2000
   62.6080   58.2200   29.0810 C   0  0  0  0  0  3  0  0  0  0  0  0
   62.9910   57.4950   27.9320 C   0  0  0  0  0  0  0  0  0  0  0  0
   64.3160   57.0430   27.8310 C   0  0  0  0  0  3  0  0  0  0  0  0
   65.1700   57.3270   28.8500 N   0  0  0  0  0  0  0  0  0  0  0  0
   64.7470   58.0250   29.9240 C   0  0  0  0  0  0  0  0  0  0  0  0
   63.4840   58.4640   30.0350 N   0  0  0  0  0  0  0  0  0  0  0  0
   61.9770   57.2530   26.8920 C   0  0  0  0  0  0  0  0  0  0  0  0
   61.6700   55.9410   26.5050 C   0  0  0  0  0  3  0  0  0  0  0  0
   60.3680   56.1710   25.2070 S   0  0  0  0  0  0  0  0  0  0  0  0
   60.4940   58.0550   25.4420 C   0  0  0  0  0  0  0  0  0  0  0  0
   61.2680   58.1290   26.2290 N   0  0  0  0  0  0  0  0  0  0  0  0
   59.7140   59.0170   24.7130 N   0  0  0  0  0  0  0  0  0  0  0  0
   58.5860   58.6900   23.8940 C   0  0  0  0  0  2  0  0  0  0  0  0
   58.3750   59.8900   22.9760 C   0  0  0  0  0  2  0  0  0  0  0  0
   58.1200   61.0550   23.6760 O   0  0  0  0  0  0  0  0  0  0  0  0
   58.8440   61.2220   24.8200 C   0  0  0  0  0  2  0  0  0  0  0  0
   60.1160   60.4000   24.8310 C   0  0  0  0  0  2  0  0  0  0  0  0
   65.7280   58.2950   30.9700 C   0  0  0  0  0  0  0  0  0  0  0  0
   65.7580   59.1940   31.9540 N   0  0  0  0  0  0  0  0  0  0  0  0
   66.8420   59.0760   32.6600 O   0  0  0  0  0  0  0  0  0  0  0  0
   67.5710   58.0860   32.1640 C   0  0  0  0  0  0  0  0  0  0  0  0
   66.8680   57.6270   31.1340 N   0  0  0  0  0  0  0  0  0  0  0  0
   68.8420   57.7420   32.7720 C   0  0  0  0  0  0  0  0  0  0  0  0
   69.9560   58.4300   32.4850 N   0  0  0  0  0  0  0  0  0  0  0  0
   71.1700   58.1870   32.9940 C   0  0  0  0  0  3  0  0  0  0  0  0
   71.3460   57.1690   33.8840 N   0  0  0  0  0  0  0  0  0  0  0  0
   70.2730   56.4040   34.2450 C   0  0  0  0  0  0  0  0  0  0  0  0
   70.4090   55.3650   35.1410 C   0  0  0  0  0  3  0  0  0  0  0  0
   69.3370   54.5860   35.5140 C   0  0  0  0  0  3  0  0  0  0  0  0
   68.1010   54.8990   34.9410 C   0  0  0  0  0  3  0  0  0  0  0  0
   68.0200   55.9440   34.0530 C   0  0  0  0  0  3  0  0  0  0  0  0
   69.0640   56.7260   33.6700 C   0  0  0  0  0  0  0  0  0  0  0  0
  1  6  2  0  0  0  0
  2  1  1  0  0  0  0
  3  2  2  0  0  0  0
  3  4  1  0  0  0  0
  4  5  2  0  0  0  0
  5  6  1  0  0  0  0
  5 18  1  0  0  0  0
  7  2  1  0  0  0  0
  8  7  2  0  0  0  0
  9 10  1  0  0  0  0
  9  8  1  0  0  0  0
 10 11  2  0  0  0  0
 11  7  1  0  0  0  0
 12 17  1  0  0  0  0
 12 10  1  0  0  0  0
 13 12  1  0  0  0  0
 14 15  1  0  0  0  0
 14 13  1  0  0  0  0
 15 16  1  0  0  0  0
 16 17  1  0  0  0  0
 18 22  1  0  0  0  0
 18 19  2  0  0  0  0
 19 20  1  0  0  0  0
 21 20  1  0  0  0  0
 21 23  1  0  0  0  0
 22 21  2  0  0  0  0
 23 32  1  0  0  0  0
 24 23  2  0  0  0  0
 24 25  1  0  0  0  0
 25 26  2  0  0  0  0
 26 27  1  0  0  0  0
 27 28  1  0  0  0  0
 28 29  2  0  0  0  0
 30 29  1  0  0  0  0
 31 30  2  0  0  0  0
 32 31  1  0  0  0  0
 32 27  2  0  0  0  0
M  END
>  <minimizedAffinity>
-7.76377535

$$$$

 OpenBabel03242509293D

 32 37  0  0  0  0  0  0  0  0999 V2000
   66.3300   57.2600   31.1870 C   0  0  0  0  0  3  0  0  0  0  0  0
   65.6190   58.0330   32.1300 C   0  0  0  0  0  0  0  0  0  0  0  0
   64.3690   58.5570   31.7650 C   0  0  0  0  0  3  0  0  0  0  0  0
   63.9020   58.2930   30.5160 N   0  0  0  0  0  0  0  0  0  0  0  0
   64.6270   57.5480   29.6570 C   0  0  0  0  0  0  0  0  0  0  0  0
   65.8230   57.0400   29.9910 N   0  0  0  0  0  0  0  0  0  0  0  0
   66.2300   58.2540   33.4510 C   0  0  0  0  0  0  0  0  0  0  0  0
   65.4460   58.1580   34.6100 C   0  0  0  0  0  3  0  0  0  0  0  0
   66.6530   58.5090   35.9720 S   0  0  0  0  0  0  0  0  0  0  0  0
   68.0260   58.7260   34.6740 C   0  0  0  0  0  0  0  0  0  0  0  0
   67.4730   58.5430   33.7330 N   0  0  0  0  0  0  0  0  0  0  0  0
   69.3930   59.0430   34.9850 N   0  0  0  0  0  0  0  0  0  0  0  0
   69.9520   59.0070   36.3030 C   0  0  0  0  0  2  0  0  0  0  0  0
   71.2280   59.8400   36.2380 C   0  0  0  0  0  2  0  0  0  0  0  0
   72.1430   59.3390   35.3300 O   0  0  0  0  0  0  0  0  0  0  0  0
   71.6130   58.8570   34.1680 C   0  0  0  0  0  2  0  0  0  0  0  0
   70.2380   59.4220   33.8760 C   0  0  0  0  0  2  0  0  0  0  0  0
   64.0580   57.3170   28.3330 C   0  0  0  0  0  0  0  0  0  0  0  0
   64.6190   57.2160   27.1280 N   0  0  0  0  0  0  0  0  0  0  0  0
   63.7200   57.0090   26.2130 O   0  0  0  0  0  0  0  0  0  0  0  0
   62.5260   56.9660   26.7870 C   0  0  0  0  0  0  0  0  0  0  0  0
   62.7610   57.1570   28.0800 N   0  0  0  0  0  0  0  0  0  0  0  0
   61.3390   56.7470   25.9820 C   0  0  0  0  0  0  0  0  0  0  0  0
   60.6800   55.5800   26.0220 N   0  0  0  0  0  0  0  0  0  0  0  0
   59.5810   55.2850   25.3180 C   0  0  0  0  0  3  0  0  0  0  0  0
   59.0420   56.2110   24.4750 N   0  0  0  0  0  0  0  0  0  0  0  0
   59.6370   57.4360   24.3590 C   0  0  0  0  0  0  0  0  0  0  0  0
   59.1240   58.4000   23.5160 C   0  0  0  0  0  3  0  0  0  0  0  0
   59.7130   59.6370   23.3890 C   0  0  0  0  0  3  0  0  0  0  0  0
   60.8580   59.8720   24.1550 C   0  0  0  0  0  3  0  0  0  0  0  0
   61.3280   58.8780   24.9790 C   0  0  0  0  0  3  0  0  0  0  0  0
   60.7640   57.6500   25.1200 C   0  0  0  0  0  0  0  0  0  0  0  0
  1  2  1  0  0  0  0
  2  7  1  0  0  0  0
  3  2  2  0  0  0  0
  4  3  1  0  0  0  0
  5  6  1  0  0  0  0
  5  4  2  0  0  0  0
  6  1  2  0  0  0  0
  7 11  1  0  0  0  0
  7  8  2  0  0  0  0
  8  9  1  0  0  0  0
 10 12  1  0  0  0  0
 10  9  1  0  0  0  0
 11 10  2  0  0  0  0
 12 13  1  0  0  0  0
 14 13  1  0  0  0  0
 15 14  1  0  0  0  0
 16 15  1  0  0  0  0
 17 16  1  0  0  0  0
 17 12  1  0  0  0  0
 18  5  1  0  0  0  0
 19 18  2  0  0  0  0
 20 21  1  0  0  0  0
 20 19  1  0  0  0  0
 21 22  2  0  0  0  0
 22 18  1  0  0  0  0
 23 24  1  0  0  0  0
 23 21  1  0  0  0  0
 25 24  2  0  0  0  0
 26 25  1  0  0  0  0
 27 26  2  0  0  0  0
 27 32  1  0  0  0  0
 28 27  1  0  0  0  0
 29 28  2  0  0  0  0
 29 30  1  0  0  0  0
 30 31  2  0  0  0  0
 31 32  1  0  0  0  0
 32 23  2  0  0  0  0
M  END
>  <minimizedAffinity>
-7.7370162

$$$$

 OpenBabel03242509293D

 32 37  0  0  0  0  0  0  0  0999 V2000
   65.9210   57.3870   29.9910 C   0  0  0  0  0  3  0  0  0  0  0  0
   65.2670   58.2350   30.9110 C   0  0  0  0  0  0  0  0  0  0  0  0
   63.9480   58.6310   30.6430 C   0  0  0  0  0  3  0  0  0  0  0  0
   63.3620   58.1780   29.5030 N   0  0  0  0  0  0  0  0  0  0  0  0
   64.0360   57.3700   28.6600 C   0  0  0  0  0  0  0  0  0  0  0  0
   65.2980   56.9820   28.9030 N   0  0  0  0  0  0  0  0  0  0  0  0
   66.0090   58.6640   32.1090 C   0  0  0  0  0  0  0  0  0  0  0  0
   66.0560   60.0220   32.4550 C   0  0  0  0  0  3  0  0  0  0  0  0
   67.0800   60.0350   33.9990 S   0  0  0  0  0  0  0  0  0  0  0  0
   67.2540   58.1440   33.8770 C   0  0  0  0  0  0  0  0  0  0  0  0
   66.6720   57.9270   32.9600 N   0  0  0  0  0  0  0  0  0  0  0  0
   67.9840   57.3350   34.8130 N   0  0  0  0  0  0  0  0  0  0  0  0
   68.4740   57.8010   36.0760 C   0  0  0  0  0  2  0  0  0  0  0  0
   69.5480   56.8050   36.5000 C   0  0  0  0  0  2  0  0  0  0  0  0
   69.0560   55.5200   36.6370 O   0  0  0  0  0  0  0  0  0  0  0  0
   68.1410   55.1390   35.6990 C   0  0  0  0  0  2  0  0  0  0  0  0
   68.2280   55.9620   34.4310 C   0  0  0  0  0  2  0  0  0  0  0  0
   63.3370   56.9340   27.4550 C   0  0  0  0  0  0  0  0  0  0  0  0
   63.7670   56.3450   26.3400 N   0  0  0  0  0  0  0  0  0  0  0  0
   62.7850   56.1370   25.5150 O   0  0  0  0  0  0  0  0  0  0  0  0
   61.6640   56.5840   26.0630 C   0  0  0  0  0  0  0  0  0  0  0  0
   62.0290   57.0640   27.2460 N   0  0  0  0  0  0  0  0  0  0  0  0
   60.4080   56.4730   25.3450 C   0  0  0  0  0  0  0  0  0  0  0  0
   59.6820   55.3470   25.3880 N   0  0  0  0  0  0  0  0  0  0  0  0
   58.5150   55.1520   24.7610 C   0  0  0  0  0  3  0  0  0  0  0  0
   57.9740   56.1460   24.0010 N   0  0  0  0  0  0  0  0  0  0  0  0
   58.6350   57.3370   23.8880 C   0  0  0  0  0  0  0  0  0  0  0  0
   58.1230   58.3670   23.1290 C   0  0  0  0  0  3  0  0  0  0  0  0
   58.7770   59.5710   23.0070 C   0  0  0  0  0  3  0  0  0  0  0  0
   59.9890   59.7020   23.6910 C   0  0  0  0  0  3  0  0  0  0  0  0
   60.4570   58.6440   24.4330 C   0  0  0  0  0  3  0  0  0  0  0  0
   59.8280   57.4470   24.5680 C   0  0  0  0  0  0  0  0  0  0  0  0
  1  2  1  0  0  0  0
  2  7  1  0  0  0  0
  3  2  2  0  0  0  0
  4  3  1  0  0  0  0
  5  6  1  0  0  0  0
  5  4  2  0  0  0  0
  6  1  2  0  0  0  0
  7  8  2  0  0  0  0
  7 11  1  0  0  0  0
  8  9  1  0  0  0  0
 10  9  1  0  0  0  0
 10 12  1  0  0  0  0
 11 10  2  0  0  0  0
 12 13  1  0  0  0  0
 13 14  1  0  0  0  0
 14 15  1  0  0  0  0
 16 15  1  0  0  0  0
 17 12  1  0  0  0  0
 17 16  1  0  0  0  0
 18  5  1  0  0  0  0
 19 18  2  0  0  0  0
 20 21  1  0  0  0  0
 20 19  1  0  0  0  0
 21 22  2  0  0  0  0
 22 18  1  0  0  0  0
 23 24  1  0  0  0  0
 23 21  1  0  0  0  0
 25 24  2  0  0  0  0
 26 25  1  0  0  0  0
 27 26  2  0  0  0  0
 27 32  1  0  0  0  0
 28 27  1  0  0  0  0
 29 28  2  0  0  0  0
 29 30  1  0  0  0  0
 30 31  2  0  0  0  0
 31 32  1  0  0  0  0
 32 23  2  0  0  0  0
M  END
>  <minimizedAffinity>
-7.64740705

$$$$

 OpenBabel03242509293D

 32 37  0  0  0  0  0  0  0  0999 V2000
   66.4780   57.2420   30.9490 C   0  0  0  0  0  3  0  0  0  0  0  0
   66.1290   58.0500   32.0530 C   0  0  0  0  0  0  0  0  0  0  0  0
   64.8290   58.5740   32.1200 C   0  0  0  0  0  3  0  0  0  0  0  0
   63.9660   58.2780   31.1130 N   0  0  0  0  0  0  0  0  0  0  0  0
   64.3550   57.5010   30.0820 C   0  0  0  0  0  0  0  0  0  0  0  0
   65.5940   56.9930   30.0030 N   0  0  0  0  0  0  0  0  0  0  0  0
   67.1530   58.3030   33.0800 C   0  0  0  0  0  0  0  0  0  0  0  0
   67.4940   59.6200   33.4200 C   0  0  0  0  0  3  0  0  0  0  0  0
   68.7910   59.4030   34.7260 S   0  0  0  0  0  0  0  0  0  0  0  0
   68.6180   57.5160   34.5560 C   0  0  0  0  0  0  0  0  0  0  0  0
   67.8390   57.4340   33.7740 N   0  0  0  0  0  0  0  0  0  0  0  0
   69.3730   56.5610   35.3200 N   0  0  0  0  0  0  0  0  0  0  0  0
   70.1740   56.8890   36.4620 C   0  0  0  0  0  2  0  0  0  0  0  0
   71.1290   55.7150   36.6530 C   0  0  0  0  0  2  0  0  0  0  0  0
   70.4660   54.5230   36.8760 O   0  0  0  0  0  0  0  0  0  0  0  0
   69.3330   54.3340   36.1400 C   0  0  0  0  0  2  0  0  0  0  0  0
   69.3040   55.1840   34.8860 C   0  0  0  0  0  2  0  0  0  0  0  0
   63.3700   57.2380   29.0380 C   0  0  0  0  0  0  0  0  0  0  0  0
   62.7890   56.1120   28.6250 N   0  0  0  0  0  0  0  0  0  0  0  0
   61.9620   56.3460   27.6500 O   0  0  0  0  0  0  0  0  0  0  0  0
   61.9690   57.6440   27.3840 C   0  0  0  0  0  0  0  0  0  0  0  0
   62.8350   58.1650   28.2450 N   0  0  0  0  0  0  0  0  0  0  0  0
   61.1270   58.1760   26.3290 C   0  0  0  0  0  0  0  0  0  0  0  0
   60.8530   57.4560   25.2320 N   0  0  0  0  0  0  0  0  0  0  0  0
   60.0900   57.8600   24.2090 C   0  0  0  0  0  3  0  0  0  0  0  0
   59.5180   59.0970   24.2320 N   0  0  0  0  0  0  0  0  0  0  0  0
   59.7350   59.9150   25.3060 C   0  0  0  0  0  0  0  0  0  0  0  0
   59.1760   61.1730   25.3670 C   0  0  0  0  0  3  0  0  0  0  0  0
   59.3850   62.0060   26.4420 C   0  0  0  0  0  3  0  0  0  0  0  0
   60.1920   61.5160   27.4720 C   0  0  0  0  0  3  0  0  0  0  0  0
   60.7260   60.2540   27.3620 C   0  0  0  0  0  3  0  0  0  0  0  0
   60.5330   59.4150   26.3100 C   0  0  0  0  0  0  0  0  0  0  0  0
  1  2  1  0  0  0  0
  2  3  2  0  0  0  0
  2  7  1  0  0  0  0
  4  3  1  0  0  0  0
  5  4  2  0  0  0  0
  6  5  1  0  0  0  0
  6  1  2  0  0  0  0
  7  8  2  0  0  0  0
  7 11  1  0  0  0  0
  8  9  1  0  0  0  0
 10  9  1  0  0  0  0
 10 12  1  0  0  0  0
 11 10  2  0  0  0  0
 12 13  1  0  0  0  0
 13 14  1  0  0  0  0
 14 15  1  0  0  0  0
 16 15  1  0  0  0  0
 17 12  1  0  0  0  0
 17 16  1  0  0  0  0
 18  5  1  0  0  0  0
 19 18  2  0  0  0  0
 20 19  1  0  0  0  0
 21 20  1  0  0  0  0
 21 22  2  0  0  0  0
 22 18  1  0  0  0  0
 23 21  1  0  0  0  0
 24 23  2  0  0  0  0
 25 26  2  0  0  0  0
 25 24  1  0  0  0  0
 26 27  1  0  0  0  0
 27 28  2  0  0  0  0
 27 32  1  0  0  0  0
 28 29  1  0  0  0  0
 29 30  2  0  0  0  0
 31 30  1  0  0  0  0
 32 23  1  0  0  0  0
 32 31  2  0  0  0  0
M  END
>  <minimizedAffinity>
-7.46791077

$$$$

 OpenBabel03242509293D

 32 37  0  0  0  0  0  0  0  0999 V2000
   61.8930   58.5980   28.4310 C   0  0  0  0  0  3  0  0  0  0  0  0
   62.2310   57.8440   27.2860 C   0  0  0  0  0  0  0  0  0  0  0  0
   63.4180   57.0960   27.2990 C   0  0  0  0  0  3  0  0  0  0  0  0
   64.1890   57.1340   28.4170 N   0  0  0  0  0  0  0  0  0  0  0  0
   63.8160   57.8740   29.4820 C   0  0  0  0  0  0  0  0  0  0  0  0
   62.6840   58.5950   29.4850 N   0  0  0  0  0  0  0  0  0  0  0  0
   61.3170   57.8850   26.1320 C   0  0  0  0  0  0  0  0  0  0  0  0
   61.3120   59.0010   25.2820 C   0  0  0  0  0  3  0  0  0  0  0  0
   60.0240   58.5700   24.0200 S   0  0  0  0  0  0  0  0  0  0  0  0
   59.7320   56.9150   24.9120 C   0  0  0  0  0  0  0  0  0  0  0  0
   60.4530   56.9830   25.7480 N   0  0  0  0  0  0  0  0  0  0  0  0
   58.7810   55.9240   24.4890 N   0  0  0  0  0  0  0  0  0  0  0  0
   58.1050   55.9380   23.2260 C   0  0  0  0  0  2  0  0  0  0  0  0
   56.8970   55.0210   23.3900 C   0  0  0  0  0  2  0  0  0  0  0  0
   57.2550   53.7250   23.7110 O   0  0  0  0  0  0  0  0  0  0  0  0
   58.2950   53.6030   24.5860 C   0  0  0  0  0  2  0  0  0  0  0  0
   58.5070   54.8510   25.4180 C   0  0  0  0  0  2  0  0  0  0  0  0
   64.7030   57.8670   30.6400 C   0  0  0  0  0  0  0  0  0  0  0  0
   64.4580   57.8760   31.9500 N   0  0  0  0  0  0  0  0  0  0  0  0
   65.5650   57.8670   32.6310 O   0  0  0  0  0  0  0  0  0  0  0  0
   66.5870   57.8510   31.7860 C   0  0  0  0  0  0  0  0  0  0  0  0
   66.0330   57.8500   30.5790 N   0  0  0  0  0  0  0  0  0  0  0  0
   67.9470   57.8380   32.2900 C   0  0  0  0  0  0  0  0  0  0  0  0
   68.8530   58.7290   31.8630 N   0  0  0  0  0  0  0  0  0  0  0  0
   70.1270   58.7960   32.2680 C   0  0  0  0  0  3  0  0  0  0  0  0
   70.5970   57.9100   33.1910 N   0  0  0  0  0  0  0  0  0  0  0  0
   69.7540   56.9570   33.6930 C   0  0  0  0  0  0  0  0  0  0  0  0
   70.1900   56.0420   34.6270 C   0  0  0  0  0  3  0  0  0  0  0  0
   69.3530   55.0780   35.1410 C   0  0  0  0  0  3  0  0  0  0  0  0
   68.0370   55.0700   34.6710 C   0  0  0  0  0  3  0  0  0  0  0  0
   67.6530   56.0040   33.7390 C   0  0  0  0  0  3  0  0  0  0  0  0
   68.4620   56.9640   33.2180 C   0  0  0  0  0  0  0  0  0  0  0  0
  1  6  2  0  0  0  0
  2  3  2  0  0  0  0
  2  1  1  0  0  0  0
  3  4  1  0  0  0  0
  4  5  2  0  0  0  0
  5  6  1  0  0  0  0
  5 18  1  0  0  0  0
  7  2  1  0  0  0  0
  8  7  2  0  0  0  0
  9 10  1  0  0  0  0
  9  8  1  0  0  0  0
 10 11  2  0  0  0  0
 11  7  1  0  0  0  0
 12 10  1  0  0  0  0
 12 17  1  0  0  0  0
 13 14  1  0  0  0  0
 13 12  1  0  0  0  0
 14 15  1  0  0  0  0
 15 16  1  0  0  0  0
 16 17  1  0  0  0  0
 18 19  2  0  0  0  0
 19 20  1  0  0  0  0
 21 23  1  0  0  0  0
 21 20  1  0  0  0  0
 22 18  1  0  0  0  0
 22 21  2  0  0  0  0
 23 32  1  0  0  0  0
 24 25  1  0  0  0  0
 24 23  2  0  0  0  0
 25 26  2  0  0  0  0
 26 27  1  0  0  0  0
 27 28  1  0  0  0  0
 28 29  2  0  0  0  0
 30 29  1  0  0  0  0
 31 30  2  0  0  0  0
 32 27  2  0  0  0  0
 32 31  1  0  0  0  0
M  END
>  <minimizedAffinity>
-7.31704903

$$$$

 OpenBabel03242509293D

 32 37  0  0  0  0  0  0  0  0999 V2000
   64.7390   56.9910   27.9890 C   0  0  0  0  0  3  0  0  0  0  0  0
   63.4000   57.3500   28.2550 C   0  0  0  0  0  0  0  0  0  0  0  0
   63.0690   57.8100   29.5390 C   0  0  0  0  0  3  0  0  0  0  0  0
   64.0580   57.8870   30.4680 N   0  0  0  0  0  0  0  0  0  0  0  0
   65.3210   57.5290   30.1570 C   0  0  0  0  0  0  0  0  0  0  0  0
   65.6530   57.0870   28.9340 N   0  0  0  0  0  0  0  0  0  0  0  0
   62.4160   57.2200   27.1680 C   0  0  0  0  0  0  0  0  0  0  0  0
   62.1720   55.9660   26.5900 C   0  0  0  0  0  3  0  0  0  0  0  0
   60.8850   56.3280   25.3080 S   0  0  0  0  0  0  0  0  0  0  0  0
   60.9250   58.1620   25.8140 C   0  0  0  0  0  0  0  0  0  0  0  0
   61.6820   58.1530   26.6210 N   0  0  0  0  0  0  0  0  0  0  0  0
   60.1170   59.1870   25.2110 N   0  0  0  0  0  0  0  0  0  0  0  0
   59.0190   58.9360   24.3280 C   0  0  0  0  0  2  0  0  0  0  0  0
   58.7720   60.2460   23.5860 C   0  0  0  0  0  2  0  0  0  0  0  0
   58.4550   61.2870   24.4400 O   0  0  0  0  0  0  0  0  0  0  0  0
   59.1510   61.3160   25.6130 C   0  0  0  0  0  2  0  0  0  0  0  0
   60.4570   60.5540   25.5360 C   0  0  0  0  0  2  0  0  0  0  0  0
   66.3220   57.6340   31.2130 C   0  0  0  0  0  0  0  0  0  0  0  0
   67.1150   58.6360   31.5930 N   0  0  0  0  0  0  0  0  0  0  0  0
   67.8640   58.2820   32.5940 O   0  0  0  0  0  0  0  0  0  0  0  0
   67.5880   57.0250   32.9120 C   0  0  0  0  0  0  0  0  0  0  0  0
   66.6440   56.6540   32.0550 N   0  0  0  0  0  0  0  0  0  0  0  0
   68.2910   56.3810   34.0050 C   0  0  0  0  0  0  0  0  0  0  0  0
   67.6240   55.8200   35.0230 N   0  0  0  0  0  0  0  0  0  0  0  0
   68.1840   55.2050   36.0730 C   0  0  0  0  0  3  0  0  0  0  0  0
   69.5410   55.1110   36.1640 N   0  0  0  0  0  0  0  0  0  0  0  0
   70.3170   55.6510   35.1780 C   0  0  0  0  0  0  0  0  0  0  0  0
   71.6920   55.5790   35.2330 C   0  0  0  0  0  3  0  0  0  0  0  0
   72.4860   56.1180   34.2470 C   0  0  0  0  0  3  0  0  0  0  0  0
   71.8310   56.7450   33.1830 C   0  0  0  0  0  3  0  0  0  0  0  0
   70.4570   56.7900   33.1760 C   0  0  0  0  0  3  0  0  0  0  0  0
   69.6540   56.2650   34.1380 C   0  0  0  0  0  0  0  0  0  0  0  0
  1  2  1  0  0  0  0
  1  6  2  0  0  0  0
  2  3  2  0  0  0  0
  3  4  1  0  0  0  0
  5  4  2  0  0  0  0
  5 18  1  0  0  0  0
  6  5  1  0  0  0  0
  7  2  1  0  0  0  0
  8  7  2  0  0  0  0
  9 10  1  0  0  0  0
  9  8  1  0  0  0  0
 10 11  2  0  0  0  0
 11  7  1  0  0  0  0
 12 17  1  0  0  0  0
 12 10  1  0  0  0  0
 13 12  1  0  0  0  0
 14 13  1  0  0  0  0
 14 15  1  0  0  0  0
 15 16  1  0  0  0  0
 17 16  1  0  0  0  0
 18 19  2  0  0  0  0
 18 22  1  0  0  0  0
 19 20  1  0  0  0  0
 20 21  1  0  0  0  0
 21 23  1  0  0  0  0
 22 21  2  0  0  0  0
 23 32  2  0  0  0  0
 23 24  1  0  0  0  0
 24 25  2  0  0  0  0
 25 26  1  0  0  0  0
 27 28  1  0  0  0  0
 27 26  2  0  0  0  0
 29 28  2  0  0  0  0
 30 29  1  0  0  0  0
 31 30  2  0  0  0  0
 31 32  1  0  0  0  0
 32 27  1  0  0  0  0
M  END
>  <minimizedAffinity>
-7.31037331

$$$$
