
 OpenBabel03242509393D

 36 41  0  0  0  0  0  0  0  0999 V2000
   70.0850   60.5920   30.4080 C   0  0  0  0  0  3  0  0  0  0  0  0
   69.9660   59.4390   31.2210 C   0  0  0  0  0  3  0  0  0  0  0  0
   68.8670   59.3270   32.0960 C   0  0  0  0  0  0  0  0  0  0  0  0
   67.9660   60.3280   32.1240 N   0  0  0  0  0  0  0  0  0  0  0  0
   68.1150   61.4300   31.3190 C   0  0  0  0  0  0  0  0  0  0  0  0
   69.1460   61.5460   30.4940 N   0  0  0  0  0  0  0  0  0  0  0  0
   67.1030   62.4280   31.4300 N   0  0  0  0  0  0  0  0  0  0  0  0
   66.2490   62.4000   32.4920 C   0  0  0  0  0  3  0  0  0  0  0  0
   65.3630   63.4160   32.4310 N   0  0  0  0  0  0  0  0  0  0  0  0
   65.6480   64.1160   31.3080 C   0  0  0  0  0  0  0  0  0  0  0  0
   65.1740   65.2320   30.6400 C   0  0  0  0  0  0  0  0  0  0  0  0
   64.1800   65.8320   31.1710 O   0  0  0  0  0  0  0  0  0  0  0  0
   65.7340   65.6620   29.4880 N   0  0  0  0  0  0  0  0  0  0  0  0
   66.7920   65.0070   28.9390 C   0  0  0  0  0  0  0  0  0  0  0  0
   67.2980   65.5470   27.7260 N   0  0  0  0  0  0  0  0  0  0  0  0
   67.2910   63.9030   29.5640 N   0  0  0  0  0  0  0  0  0  0  0  0
   66.7140   63.4900   30.7200 C   0  0  0  0  0  0  0  0  0  0  0  0
   65.3550   66.4960   29.0190 H   0  0  0  0  0  0  0  0  0  0  0  0
   68.0990   65.1000   27.2570 H   0  0  0  0  0  0  0  0  0  0  0  0
   66.8650   66.3860   27.3150 H   0  0  0  0  0  0  0  0  0  0  0  0
   68.6760   58.1780   32.9580 C   0  0  0  0  0  0  0  0  0  0  0  0
   69.7300   57.8850   33.8160 C   0  0  0  0  0  3  0  0  0  0  0  0
   69.6400   56.7920   34.6900 C   0  0  0  0  0  3  0  0  0  0  0  0
   68.4800   56.0230   34.6730 C   0  0  0  0  0  3  0  0  0  0  0  0
   67.4200   56.3030   33.8230 C   0  0  0  0  0  3  0  0  0  0  0  0
   67.5530   57.3940   32.9740 C   0  0  0  0  0  0  0  0  0  0  0  0
   66.4390   57.6720   32.0940 C   0  0  0  0  0  0  0  0  0  0  0  0
   65.4610   58.5540   32.4060 N   0  0  0  0  0  0  0  0  0  0  0  0
   64.5600   58.6460   31.4670 O   0  0  0  0  0  0  0  0  0  0  0  0
   64.9040   57.8240   30.4890 C   0  0  0  0  0  0  0  0  0  0  0  0
   66.0310   57.2500   30.8840 N   0  0  0  0  0  0  0  0  0  0  0  0
   64.4180   57.4290   29.2310 N   0  0  0  0  0  0  0  0  0  0  0  0
   65.3370   57.1110   28.1200 C   0  0  0  0  0  2  0  0  0  0  0  0
   64.4400   57.4480   26.9090 C   0  0  0  0  0  2  0  0  0  0  0  0
   63.1860   56.7070   27.3570 C   0  0  0  0  0  2  0  0  0  0  0  0
   63.0440   57.2540   28.7620 C   0  0  0  0  0  2  0  0  0  0  0  0
  1  6  2  0  0  0  0
  1  2  1  0  0  0  0
  2  3  2  0  0  0  0
  3  4  1  0  0  0  0
  3 21  1  0  0  0  0
  5  7  1  0  0  0  0
  5  4  2  0  0  0  0
  6  5  1  0  0  0  0
  7  8  1  0  0  0  0
  9  8  2  0  0  0  0
 10  9  1  0  0  0  0
 11 12  2  0  0  0  0
 11 10  1  0  0  0  0
 13 11  1  0  0  0  0
 14 13  1  0  0  0  0
 14 16  2  0  0  0  0
 15 14  1  0  0  0  0
 16 17  1  0  0  0  0
 17 10  2  0  0  0  0
 17  7  1  0  0  0  0
 18 13  1  0  0  0  0
 19 15  1  0  0  0  0
 20 15  1  0  0  0  0
 21 26  2  0  0  0  0
 21 22  1  0  0  0  0
 22 23  2  0  0  0  0
 24 23  1  0  0  0  0
 25 24  2  0  0  0  0
 26 25  1  0  0  0  0
 27 28  2  0  0  0  0
 27 26  1  0  0  0  0
 29 28  1  0  0  0  0
 30 31  2  0  0  0  0
 30 29  1  0  0  0  0
 31 27  1  0  0  0  0
 32 30  1  0  0  0  0
 33 32  1  0  0  0  0
 34 35  1  0  0  0  0
 34 33  1  0  0  0  0
 35 36  1  0  0  0  0
 36 32  1  0  0  0  0
M  END
>  <minimizedAffinity>
-7.56045961

$$$$

 OpenBabel03242509393D

 36 41  0  0  0  0  0  0  0  0999 V2000
   65.7430   62.0410   31.3020 C   0  0  0  0  0  3  0  0  0  0  0  0
   65.9360   60.7880   31.9330 C   0  0  0  0  0  3  0  0  0  0  0  0
   67.1930   60.1590   31.8380 C   0  0  0  0  0  0  0  0  0  0  0  0
   68.1690   60.7780   31.1450 N   0  0  0  0  0  0  0  0  0  0  0  0
   67.9440   61.9940   30.5480 C   0  0  0  0  0  0  0  0  0  0  0  0
   66.7640   62.5930   30.6310 N   0  0  0  0  0  0  0  0  0  0  0  0
   69.0460   62.5580   29.8420 N   0  0  0  0  0  0  0  0  0  0  0  0
   70.1180   61.7740   29.5360 C   0  0  0  0  0  3  0  0  0  0  0  0
   71.0600   62.4740   28.8700 N   0  0  0  0  0  0  0  0  0  0  0  0
   70.5890   63.7360   28.7410 C   0  0  0  0  0  0  0  0  0  0  0  0
   71.0000   64.9390   28.1930 C   0  0  0  0  0  0  0  0  0  0  0  0
   72.1440   64.9430   27.6260 O   0  0  0  0  0  0  0  0  0  0  0  0
   70.2310   66.0480   28.2550 N   0  0  0  0  0  0  0  0  0  0  0  0
   69.0150   66.0220   28.8640 C   0  0  0  0  0  0  0  0  0  0  0  0
   68.2940   67.2460   28.8700 N   0  0  0  0  0  0  0  0  0  0  0  0
   68.5710   64.8570   29.4170 N   0  0  0  0  0  0  0  0  0  0  0  0
   69.3600   63.7560   29.3430 C   0  0  0  0  0  0  0  0  0  0  0  0
   70.5690   66.9250   27.8350 H   0  0  0  0  0  0  0  0  0  0  0  0
   67.3660   67.2950   29.3150 H   0  0  0  0  0  0  0  0  0  0  0  0
   68.6990   68.0850   28.4300 H   0  0  0  0  0  0  0  0  0  0  0  0
   67.4680   58.8780   32.4560 C   0  0  0  0  0  0  0  0  0  0  0  0
   68.5010   58.8660   33.3870 C   0  0  0  0  0  3  0  0  0  0  0  0
   68.8420   57.6730   34.0410 C   0  0  0  0  0  3  0  0  0  0  0  0
   68.1240   56.5200   33.7340 C   0  0  0  0  0  3  0  0  0  0  0  0
   67.0920   56.5160   32.8080 C   0  0  0  0  0  3  0  0  0  0  0  0
   66.7890   57.7200   32.1840 C   0  0  0  0  0  0  0  0  0  0  0  0
   65.7090   57.6990   31.2210 C   0  0  0  0  0  0  0  0  0  0  0  0
   64.4800   58.1970   31.4880 N   0  0  0  0  0  0  0  0  0  0  0  0
   63.6650   58.0720   30.4760 O   0  0  0  0  0  0  0  0  0  0  0  0
   64.3240   57.4830   29.4930 C   0  0  0  0  0  0  0  0  0  0  0  0
   65.5460   57.2670   29.9580 N   0  0  0  0  0  0  0  0  0  0  0  0
   64.0820   57.0560   28.1760 N   0  0  0  0  0  0  0  0  0  0  0  0
   65.1300   57.1360   27.1380 C   0  0  0  0  0  2  0  0  0  0  0  0
   64.2600   57.2670   25.8700 C   0  0  0  0  0  2  0  0  0  0  0  0
   63.2850   56.1320   26.1600 C   0  0  0  0  0  2  0  0  0  0  0  0
   62.8750   56.4920   27.5730 C   0  0  0  0  0  2  0  0  0  0  0  0
  1  2  1  0  0  0  0
  3  2  2  0  0  0  0
  3 21  1  0  0  0  0
  4  3  1  0  0  0  0
  5  6  1  0  0  0  0
  5  4  2  0  0  0  0
  6  1  2  0  0  0  0
  7  5  1  0  0  0  0
  8  7  1  0  0  0  0
  9  8  2  0  0  0  0
 10  9  1  0  0  0  0
 10 17  2  0  0  0  0
 11 13  1  0  0  0  0
 11 10  1  0  0  0  0
 12 11  2  0  0  0  0
 13 14  1  0  0  0  0
 14 15  1  0  0  0  0
 14 16  2  0  0  0  0
 15 19  1  0  0  0  0
 17 16  1  0  0  0  0
 17  7  1  0  0  0  0
 18 13  1  0  0  0  0
 20 15  1  0  0  0  0
 21 22  1  0  0  0  0
 22 23  2  0  0  0  0
 24 23  1  0  0  0  0
 25 24  2  0  0  0  0
 26 21  2  0  0  0  0
 26 25  1  0  0  0  0
 27 28  2  0  0  0  0
 27 26  1  0  0  0  0
 29 28  1  0  0  0  0
 30 31  2  0  0  0  0
 30 29  1  0  0  0  0
 31 27  1  0  0  0  0
 32 30  1  0  0  0  0
 33 32  1  0  0  0  0
 34 35  1  0  0  0  0
 34 33  1  0  0  0  0
 35 36  1  0  0  0  0
 36 32  1  0  0  0  0
M  END
>  <minimizedAffinity>
-7.52680683

$$$$

 OpenBabel03242509393D

 36 41  0  0  0  0  0  0  0  0999 V2000
   66.3080   62.0620   34.3890 C   0  0  0  0  0  3  0  0  0  0  0  0
   66.7690   60.7430   34.6180 C   0  0  0  0  0  3  0  0  0  0  0  0
   67.3370   60.0190   33.5500 C   0  0  0  0  0  0  0  0  0  0  0  0
   67.4200   60.6150   32.3450 N   0  0  0  0  0  0  0  0  0  0  0  0
   66.9640   61.8970   32.1620 C   0  0  0  0  0  0  0  0  0  0  0  0
   66.4270   62.5850   33.1600 N   0  0  0  0  0  0  0  0  0  0  0  0
   67.1020   62.4300   30.8470 N   0  0  0  0  0  0  0  0  0  0  0  0
   67.3740   61.5890   29.8090 C   0  0  0  0  0  3  0  0  0  0  0  0
   67.4690   62.2660   28.6460 N   0  0  0  0  0  0  0  0  0  0  0  0
   67.2540   63.5700   28.9350 C   0  0  0  0  0  0  0  0  0  0  0  0
   67.2030   64.7800   28.2640 C   0  0  0  0  0  0  0  0  0  0  0  0
   67.4060   64.7400   27.0040 O   0  0  0  0  0  0  0  0  0  0  0  0
   66.9500   65.9400   28.9090 N   0  0  0  0  0  0  0  0  0  0  0  0
   66.7370   65.9600   30.2520 C   0  0  0  0  0  0  0  0  0  0  0  0
   66.4820   67.2360   30.8230 N   0  0  0  0  0  0  0  0  0  0  0  0
   66.7790   64.7910   30.9510 N   0  0  0  0  0  0  0  0  0  0  0  0
   67.0330   63.6380   30.2840 C   0  0  0  0  0  0  0  0  0  0  0  0
   66.9190   66.8210   28.3770 H   0  0  0  0  0  0  0  0  0  0  0  0
   66.3120   67.3220   31.8360 H   0  0  0  0  0  0  0  0  0  0  0  0
   66.4680   68.0750   30.2260 H   0  0  0  0  0  0  0  0  0  0  0  0
   67.8310   58.6660   33.7060 C   0  0  0  0  0  0  0  0  0  0  0  0
   68.9450   58.5210   34.5250 C   0  0  0  0  0  3  0  0  0  0  0  0
   69.4970   57.2500   34.7400 C   0  0  0  0  0  3  0  0  0  0  0  0
   68.9030   56.1550   34.1170 C   0  0  0  0  0  3  0  0  0  0  0  0
   67.7920   56.2850   33.2980 C   0  0  0  0  0  3  0  0  0  0  0  0
   67.2790   57.5620   33.1130 C   0  0  0  0  0  0  0  0  0  0  0  0
   66.1190   57.6790   32.2560 C   0  0  0  0  0  0  0  0  0  0  0  0
   64.9780   58.2900   32.6470 N   0  0  0  0  0  0  0  0  0  0  0  0
   64.0660   58.2790   31.7130 O   0  0  0  0  0  0  0  0  0  0  0  0
   64.5680   57.6560   30.6600 C   0  0  0  0  0  0  0  0  0  0  0  0
   65.7980   57.3040   31.0040 N   0  0  0  0  0  0  0  0  0  0  0  0
   64.1640   57.2960   29.3640 N   0  0  0  0  0  0  0  0  0  0  0  0
   65.1150   57.3010   28.2340 C   0  0  0  0  0  2  0  0  0  0  0  0
   64.1510   57.5570   27.0560 C   0  0  0  0  0  2  0  0  0  0  0  0
   63.0950   56.5180   27.4130 C   0  0  0  0  0  2  0  0  0  0  0  0
   62.8550   56.8750   28.8650 C   0  0  0  0  0  2  0  0  0  0  0  0
  1  2  1  0  0  0  0
  3 21  1  0  0  0  0
  3  2  2  0  0  0  0
  4  3  1  0  0  0  0
  5  4  2  0  0  0  0
  5  6  1  0  0  0  0
  6  1  2  0  0  0  0
  7  5  1  0  0  0  0
  8  7  1  0  0  0  0
  9 10  1  0  0  0  0
  9  8  2  0  0  0  0
 10 17  2  0  0  0  0
 11 13  1  0  0  0  0
 11 10  1  0  0  0  0
 12 11  2  0  0  0  0
 13 14  1  0  0  0  0
 14 15  1  0  0  0  0
 14 16  2  0  0  0  0
 15 19  1  0  0  0  0
 17  7  1  0  0  0  0
 17 16  1  0  0  0  0
 18 13  1  0  0  0  0
 20 15  1  0  0  0  0
 21 22  1  0  0  0  0
 22 23  2  0  0  0  0
 24 23  1  0  0  0  0
 25 24  2  0  0  0  0
 26 25  1  0  0  0  0
 26 21  2  0  0  0  0
 27 28  2  0  0  0  0
 27 26  1  0  0  0  0
 29 28  1  0  0  0  0
 30 31  2  0  0  0  0
 30 29  1  0  0  0  0
 31 27  1  0  0  0  0
 32 30  1  0  0  0  0
 33 32  1  0  0  0  0
 34 35  1  0  0  0  0
 34 33  1  0  0  0  0
 35 36  1  0  0  0  0
 36 32  1  0  0  0  0
M  END
>  <minimizedAffinity>
-7.21019506

$$$$

 OpenBabel03242509393D

 36 41  0  0  0  0  0  0  0  0999 V2000
   66.8350   56.8650   30.8820 C   0  0  0  0  0  3  0  0  0  0  0  0
   66.9140   57.4170   32.1840 C   0  0  0  0  0  3  0  0  0  0  0  0
   65.8830   58.2670   32.6320 C   0  0  0  0  0  0  0  0  0  0  0  0
   64.8560   58.5240   31.7990 N   0  0  0  0  0  0  0  0  0  0  0  0
   64.8140   57.9690   30.5430 C   0  0  0  0  0  0  0  0  0  0  0  0
   65.7800   57.1690   30.1120 N   0  0  0  0  0  0  0  0  0  0  0  0
   63.6820   58.3080   29.7460 N   0  0  0  0  0  0  0  0  0  0  0  0
   62.8920   59.3550   30.1170 C   0  0  0  0  0  3  0  0  0  0  0  0
   61.8740   59.5270   29.2480 N   0  0  0  0  0  0  0  0  0  0  0  0
   62.0070   58.5740   28.2970 C   0  0  0  0  0  0  0  0  0  0  0  0
   61.3530   58.1670   27.1470 C   0  0  0  0  0  0  0  0  0  0  0  0
   60.3130   58.8320   26.8190 O   0  0  0  0  0  0  0  0  0  0  0  0
   61.7920   57.1220   26.4110 N   0  0  0  0  0  0  0  0  0  0  0  0
   62.9020   56.4280   26.7780 C   0  0  0  0  0  0  0  0  0  0  0  0
   63.2710   55.3480   25.9300 N   0  0  0  0  0  0  0  0  0  0  0  0
   63.5770   56.7950   27.9050 N   0  0  0  0  0  0  0  0  0  0  0  0
   63.1180   57.8470   28.6280 C   0  0  0  0  0  0  0  0  0  0  0  0
   61.2810   56.8480   25.5610 H   0  0  0  0  0  0  0  0  0  0  0  0
   64.1020   54.7810   26.1510 H   0  0  0  0  0  0  0  0  0  0  0  0
   62.7080   55.1330   25.0960 H   0  0  0  0  0  0  0  0  0  0  0  0
   65.8920   58.8690   33.9500 C   0  0  0  0  0  0  0  0  0  0  0  0
   65.3290   58.1050   34.9660 C   0  0  0  0  0  3  0  0  0  0  0  0
   65.2910   58.6000   36.2780 C   0  0  0  0  0  3  0  0  0  0  0  0
   65.8280   59.8610   36.5260 C   0  0  0  0  0  3  0  0  0  0  0  0
   66.3940   60.6340   35.5230 C   0  0  0  0  0  3  0  0  0  0  0  0
   66.4090   60.1040   34.2400 C   0  0  0  0  0  0  0  0  0  0  0  0
   67.0030   60.9230   33.2050 C   0  0  0  0  0  0  0  0  0  0  0  0
   68.3400   61.0830   33.0750 N   0  0  0  0  0  0  0  0  0  0  0  0
   68.6490   61.8620   32.0750 O   0  0  0  0  0  0  0  0  0  0  0  0
   67.5250   62.2530   31.4990 C   0  0  0  0  0  0  0  0  0  0  0  0
   66.5500   61.6810   32.1910 N   0  0  0  0  0  0  0  0  0  0  0  0
   67.1240   63.0620   30.4220 N   0  0  0  0  0  0  0  0  0  0  0  0
   65.9440   62.7180   29.6020 C   0  0  0  0  0  2  0  0  0  0  0  0
   66.3300   63.3820   28.2630 C   0  0  0  0  0  2  0  0  0  0  0  0
   66.7530   64.7400   28.8110 C   0  0  0  0  0  2  0  0  0  0  0  0
   67.7050   64.2990   29.9030 C   0  0  0  0  0  2  0  0  0  0  0  0
  1  2  1  0  0  0  0
  2  3  2  0  0  0  0
  3 21  1  0  0  0  0
  4  3  1  0  0  0  0
  5  4  2  0  0  0  0
  6  5  1  0  0  0  0
  6  1  2  0  0  0  0
  7  8  1  0  0  0  0
  7  5  1  0  0  0  0
  9  8  2  0  0  0  0
 10 17  2  0  0  0  0
 10  9  1  0  0  0  0
 11 10  1  0  0  0  0
 12 11  2  0  0  0  0
 13 14  1  0  0  0  0
 13 11  1  0  0  0  0
 14 16  2  0  0  0  0
 15 19  1  0  0  0  0
 15 14  1  0  0  0  0
 16 17  1  0  0  0  0
 17  7  1  0  0  0  0
 18 13  1  0  0  0  0
 20 15  1  0  0  0  0
 21 26  2  0  0  0  0
 21 22  1  0  0  0  0
 22 23  2  0  0  0  0
 23 24  1  0  0  0  0
 25 24  2  0  0  0  0
 26 25  1  0  0  0  0
 27 26  1  0  0  0  0
 28 27  2  0  0  0  0
 29 28  1  0  0  0  0
 30 29  1  0  0  0  0
 30 31  2  0  0  0  0
 31 27  1  0  0  0  0
 32 30  1  0  0  0  0
 33 32  1  0  0  0  0
 34 35  1  0  0  0  0
 34 33  1  0  0  0  0
 35 36  1  0  0  0  0
 36 32  1  0  0  0  0
M  END
>  <minimizedAffinity>
-7.16210508

$$$$

 OpenBabel03242509393D

 36 41  0  0  0  0  0  0  0  0999 V2000
   67.7080   62.2650   30.2320 C   0  0  0  0  0  3  0  0  0  0  0  0
   67.9920   60.9920   30.7810 C   0  0  0  0  0  3  0  0  0  0  0  0
   67.4900   60.6680   32.0580 C   0  0  0  0  0  0  0  0  0  0  0  0
   66.7560   61.5890   32.7100 N   0  0  0  0  0  0  0  0  0  0  0  0
   66.5010   62.8140   32.1440 C   0  0  0  0  0  0  0  0  0  0  0  0
   66.9690   63.1280   30.9440 N   0  0  0  0  0  0  0  0  0  0  0  0
   65.7140   63.7120   32.9220 N   0  0  0  0  0  0  0  0  0  0  0  0
   65.5210   63.4570   34.2480 C   0  0  0  0  0  3  0  0  0  0  0  0
   64.7540   64.4090   34.8200 N   0  0  0  0  0  0  0  0  0  0  0  0
   64.4440   65.2970   33.8470 C   0  0  0  0  0  0  0  0  0  0  0  0
   63.7240   66.4720   33.7150 C   0  0  0  0  0  0  0  0  0  0  0  0
   63.1560   66.9120   34.7710 O   0  0  0  0  0  0  0  0  0  0  0  0
   63.6270   67.1180   32.5320 N   0  0  0  0  0  0  0  0  0  0  0  0
   64.2400   66.6310   31.4190 C   0  0  0  0  0  0  0  0  0  0  0  0
   64.0690   67.3920   30.2310 N   0  0  0  0  0  0  0  0  0  0  0  0
   64.9600   65.4760   31.5050 N   0  0  0  0  0  0  0  0  0  0  0  0
   65.0440   64.8450   32.7030 C   0  0  0  0  0  0  0  0  0  0  0  0
   63.0830   67.9890   32.4710 H   0  0  0  0  0  0  0  0  0  0  0  0
   64.5070   67.0790   29.3520 H   0  0  0  0  0  0  0  0  0  0  0  0
   63.5080   68.2550   30.2480 H   0  0  0  0  0  0  0  0  0  0  0  0
   67.7370   59.3860   32.6850 C   0  0  0  0  0  0  0  0  0  0  0  0
   68.8040   59.3450   33.5760 C   0  0  0  0  0  3  0  0  0  0  0  0
   69.1220   58.1480   34.2350 C   0  0  0  0  0  3  0  0  0  0  0  0
   68.3480   57.0210   33.9740 C   0  0  0  0  0  3  0  0  0  0  0  0
   67.2810   57.0460   33.0870 C   0  0  0  0  0  3  0  0  0  0  0  0
   67.0030   58.2520   32.4570 C   0  0  0  0  0  0  0  0  0  0  0  0
   65.8870   58.2610   31.5360 C   0  0  0  0  0  0  0  0  0  0  0  0
   64.7630   58.9840   31.7540 N   0  0  0  0  0  0  0  0  0  0  0  0
   63.8910   58.8420   30.7940 O   0  0  0  0  0  0  0  0  0  0  0  0
   64.4020   58.0150   29.8970 C   0  0  0  0  0  0  0  0  0  0  0  0
   65.5970   57.6780   30.3590 N   0  0  0  0  0  0  0  0  0  0  0  0
   64.0320   57.4420   28.6680 N   0  0  0  0  0  0  0  0  0  0  0  0
   65.0280   57.1990   27.6050 C   0  0  0  0  0  2  0  0  0  0  0  0
   64.1280   57.2770   26.3540 C   0  0  0  0  0  2  0  0  0  0  0  0
   63.0040   56.3690   26.8400 C   0  0  0  0  0  2  0  0  0  0  0  0
   62.7250   56.9950   28.1900 C   0  0  0  0  0  2  0  0  0  0  0  0
  1  2  1  0  0  0  0
  1  6  2  0  0  0  0
  2  3  2  0  0  0  0
  3 21  1  0  0  0  0
  3  4  1  0  0  0  0
  5  4  2  0  0  0  0
  5  7  1  0  0  0  0
  6  5  1  0  0  0  0
  7  8  1  0  0  0  0
  8  9  2  0  0  0  0
 10  9  1  0  0  0  0
 11 10  1  0  0  0  0
 11 12  2  0  0  0  0
 13 11  1  0  0  0  0
 14 16  2  0  0  0  0
 14 13  1  0  0  0  0
 15 20  1  0  0  0  0
 15 14  1  0  0  0  0
 16 17  1  0  0  0  0
 17  7  1  0  0  0  0
 17 10  2  0  0  0  0
 18 13  1  0  0  0  0
 19 15  1  0  0  0  0
 21 22  1  0  0  0  0
 22 23  2  0  0  0  0
 24 23  1  0  0  0  0
 25 24  2  0  0  0  0
 26 21  2  0  0  0  0
 26 25  1  0  0  0  0
 27 28  2  0  0  0  0
 27 26  1  0  0  0  0
 29 28  1  0  0  0  0
 30 31  2  0  0  0  0
 30 29  1  0  0  0  0
 31 27  1  0  0  0  0
 32 30  1  0  0  0  0
 33 32  1  0  0  0  0
 34 35  1  0  0  0  0
 34 33  1  0  0  0  0
 35 36  1  0  0  0  0
 36 32  1  0  0  0  0
M  END
>  <minimizedAffinity>
-6.69028616

$$$$

 OpenBabel03242509393D

 36 41  0  0  0  0  0  0  0  0999 V2000
   66.5840   63.0020   29.2160 C   0  0  0  0  0  3  0  0  0  0  0  0
   65.2760   63.5440   29.1920 C   0  0  0  0  0  3  0  0  0  0  0  0
   64.2350   62.8530   29.8440 C   0  0  0  0  0  0  0  0  0  0  0  0
   64.5270   61.6960   30.4680 N   0  0  0  0  0  0  0  0  0  0  0  0
   65.8080   61.2020   30.4700 C   0  0  0  0  0  0  0  0  0  0  0  0
   66.7940   61.8440   29.8590 N   0  0  0  0  0  0  0  0  0  0  0  0
   66.0040   59.9700   31.1610 N   0  0  0  0  0  0  0  0  0  0  0  0
   64.9220   59.2140   31.5020 C   0  0  0  0  0  3  0  0  0  0  0  0
   65.2970   58.0900   32.1460 N   0  0  0  0  0  0  0  0  0  0  0  0
   66.6470   58.1170   32.2240 C   0  0  0  0  0  0  0  0  0  0  0  0
   67.6670   57.3280   32.7280 C   0  0  0  0  0  0  0  0  0  0  0  0
   67.3150   56.2420   33.3010 O   0  0  0  0  0  0  0  0  0  0  0  0
   68.9650   57.6880   32.6190 N   0  0  0  0  0  0  0  0  0  0  0  0
   69.3180   58.8500   32.0060 C   0  0  0  0  0  0  0  0  0  0  0  0
   70.7110   59.1270   31.9500 N   0  0  0  0  0  0  0  0  0  0  0  0
   68.3450   59.6560   31.4950 N   0  0  0  0  0  0  0  0  0  0  0  0
   67.0490   59.2750   31.6150 C   0  0  0  0  0  0  0  0  0  0  0  0
   69.6960   57.0760   33.0060 H   0  0  0  0  0  0  0  0  0  0  0  0
   71.0460   59.9900   31.4990 H   0  0  0  0  0  0  0  0  0  0  0  0
   71.3840   58.4650   32.3610 H   0  0  0  0  0  0  0  0  0  0  0  0
   62.8720   63.3440   29.8640 C   0  0  0  0  0  0  0  0  0  0  0  0
   62.0370   62.8470   28.8700 C   0  0  0  0  0  3  0  0  0  0  0  0
   60.6980   63.2620   28.8060 C   0  0  0  0  0  3  0  0  0  0  0  0
   60.2400   64.1720   29.7550 C   0  0  0  0  0  3  0  0  0  0  0  0
   61.0620   64.6760   30.7520 C   0  0  0  0  0  3  0  0  0  0  0  0
   62.3790   64.2380   30.7770 C   0  0  0  0  0  0  0  0  0  0  0  0
   63.2230   64.7740   31.8230 C   0  0  0  0  0  0  0  0  0  0  0  0
   63.8860   65.9470   31.7020 N   0  0  0  0  0  0  0  0  0  0  0  0
   64.5840   66.2330   32.7660 O   0  0  0  0  0  0  0  0  0  0  0  0
   64.4120   65.2560   33.6420 C   0  0  0  0  0  0  0  0  0  0  0  0
   63.5950   64.3920   33.0590 N   0  0  0  0  0  0  0  0  0  0  0  0
   64.8420   64.9210   34.9370 N   0  0  0  0  0  0  0  0  0  0  0  0
   63.9500   64.2230   35.8850 C   0  0  0  0  0  2  0  0  0  0  0  0
   64.5290   64.7140   37.2290 C   0  0  0  0  0  2  0  0  0  0  0  0
   66.0020   64.4580   36.9350 C   0  0  0  0  0  2  0  0  0  0  0  0
   66.1280   65.1510   35.5940 C   0  0  0  0  0  2  0  0  0  0  0  0
  1  6  2  0  0  0  0
  2  1  1  0  0  0  0
  2  3  2  0  0  0  0
  3 21  1  0  0  0  0
  3  4  1  0  0  0  0
  4  5  2  0  0  0  0
  5  7  1  0  0  0  0
  6  5  1  0  0  0  0
  7  8  1  0  0  0  0
  7 17  1  0  0  0  0
  8  9  2  0  0  0  0
  9 10  1  0  0  0  0
 10 11  1  0  0  0  0
 11 12  2  0  0  0  0
 13 11  1  0  0  0  0
 13 18  1  0  0  0  0
 14 13  1  0  0  0  0
 15 14  1  0  0  0  0
 15 20  1  0  0  0  0
 16 17  1  0  0  0  0
 16 14  2  0  0  0  0
 17 10  2  0  0  0  0
 19 15  1  0  0  0  0
 21 26  1  0  0  0  0
 22 21  2  0  0  0  0
 23 22  1  0  0  0  0
 23 24  2  0  0  0  0
 24 25  1  0  0  0  0
 25 26  2  0  0  0  0
 26 27  1  0  0  0  0
 27 31  1  0  0  0  0
 28 27  2  0  0  0  0
 28 29  1  0  0  0  0
 29 30  1  0  0  0  0
 30 32  1  0  0  0  0
 31 30  2  0  0  0  0
 32 36  1  0  0  0  0
 32 33  1  0  0  0  0
 33 34  1  0  0  0  0
 35 34  1  0  0  0  0
 36 35  1  0  0  0  0
M  END
>  <minimizedAffinity>
-6.66649723

$$$$

 OpenBabel03242509393D

 36 41  0  0  0  0  0  0  0  0999 V2000
   64.8570   58.3920   33.5660 C   0  0  0  0  0  3  0  0  0  0  0  0
   66.2200   58.1100   33.8220 C   0  0  0  0  0  3  0  0  0  0  0  0
   67.0430   57.6810   32.7610 C   0  0  0  0  0  0  0  0  0  0  0  0
   66.4960   57.5560   31.5360 N   0  0  0  0  0  0  0  0  0  0  0  0
   65.1680   57.8400   31.3270 C   0  0  0  0  0  0  0  0  0  0  0  0
   64.3870   58.2430   32.3190 N   0  0  0  0  0  0  0  0  0  0  0  0
   64.6950   57.6730   29.9930 N   0  0  0  0  0  0  0  0  0  0  0  0
   65.4500   56.9780   29.0960 C   0  0  0  0  0  3  0  0  0  0  0  0
   64.8460   56.9220   27.8910 N   0  0  0  0  0  0  0  0  0  0  0  0
   63.6780   57.5940   28.0080 C   0  0  0  0  0  0  0  0  0  0  0  0
   62.5960   57.9280   27.2120 C   0  0  0  0  0  0  0  0  0  0  0  0
   62.6340   57.5230   26.0020 O   0  0  0  0  0  0  0  0  0  0  0  0
   61.5550   58.6450   27.6910 N   0  0  0  0  0  0  0  0  0  0  0  0
   61.5340   59.0670   28.9840 C   0  0  0  0  0  0  0  0  0  0  0  0
   60.3900   59.8130   29.3770 N   0  0  0  0  0  0  0  0  0  0  0  0
   62.5800   58.7600   29.8030 N   0  0  0  0  0  0  0  0  0  0  0  0
   63.6140   58.0390   29.3010 C   0  0  0  0  0  0  0  0  0  0  0  0
   60.7670   58.8740   27.0690 H   0  0  0  0  0  0  0  0  0  0  0  0
   60.3110   60.1630   30.3420 H   0  0  0  0  0  0  0  0  0  0  0  0
   59.6410   60.0040   28.6970 H   0  0  0  0  0  0  0  0  0  0  0  0
   68.4470   57.3740   32.9430 C   0  0  0  0  0  0  0  0  0  0  0  0
   68.7350   56.0670   33.3170 C   0  0  0  0  0  3  0  0  0  0  0  0
   70.0670   55.6710   33.5170 C   0  0  0  0  0  3  0  0  0  0  0  0
   71.0730   56.6150   33.3320 C   0  0  0  0  0  3  0  0  0  0  0  0
   70.8010   57.9230   32.9590 C   0  0  0  0  0  3  0  0  0  0  0  0
   69.4690   58.2700   32.7720 C   0  0  0  0  0  0  0  0  0  0  0  0
   69.2030   59.6380   32.3830 C   0  0  0  0  0  0  0  0  0  0  0  0
   68.8080   60.5860   33.2630 N   0  0  0  0  0  0  0  0  0  0  0  0
   68.6260   61.7450   32.6930 O   0  0  0  0  0  0  0  0  0  0  0  0
   68.8930   61.6130   31.4050 C   0  0  0  0  0  0  0  0  0  0  0  0
   69.2360   60.3440   31.2380 N   0  0  0  0  0  0  0  0  0  0  0  0
   68.9070   62.4110   30.2490 N   0  0  0  0  0  0  0  0  0  0  0  0
   69.9130   62.2070   29.1870 C   0  0  0  0  0  2  0  0  0  0  0  0
   69.9850   63.6300   28.5910 C   0  0  0  0  0  2  0  0  0  0  0  0
   68.4880   63.8820   28.4560 C   0  0  0  0  0  2  0  0  0  0  0  0
   68.0310   63.5130   29.8520 C   0  0  0  0  0  2  0  0  0  0  0  0
  1  2  1  0  0  0  0
  3 21  1  0  0  0  0
  3  2  2  0  0  0  0
  4  3  1  0  0  0  0
  5  4  2  0  0  0  0
  5  6  1  0  0  0  0
  6  1  2  0  0  0  0
  7  5  1  0  0  0  0
  8  7  1  0  0  0  0
  9 10  1  0  0  0  0
  9  8  2  0  0  0  0
 10 17  2  0  0  0  0
 11 13  1  0  0  0  0
 11 10  1  0  0  0  0
 12 11  2  0  0  0  0
 13 14  1  0  0  0  0
 14 15  1  0  0  0  0
 14 16  2  0  0  0  0
 15 19  1  0  0  0  0
 17 16  1  0  0  0  0
 17  7  1  0  0  0  0
 18 13  1  0  0  0  0
 20 15  1  0  0  0  0
 21 22  1  0  0  0  0
 22 23  2  0  0  0  0
 24 23  1  0  0  0  0
 25 24  2  0  0  0  0
 26 21  2  0  0  0  0
 26 25  1  0  0  0  0
 27 26  1  0  0  0  0
 27 28  2  0  0  0  0
 29 28  1  0  0  0  0
 30 29  1  0  0  0  0
 31 30  2  0  0  0  0
 31 27  1  0  0  0  0
 32 30  1  0  0  0  0
 33 32  1  0  0  0  0
 34 33  1  0  0  0  0
 35 34  1  0  0  0  0
 35 36  1  0  0  0  0
 36 32  1  0  0  0  0
M  END
>  <minimizedAffinity>
-6.56414843

$$$$

 OpenBabel03242509393D

 36 41  0  0  0  0  0  0  0  0999 V2000
   65.4700   59.6630   30.7650 C   0  0  0  0  0  3  0  0  0  0  0  0
   65.6880   60.8290   29.9930 C   0  0  0  0  0  3  0  0  0  0  0  0
   66.8610   61.5820   30.2030 C   0  0  0  0  0  0  0  0  0  0  0  0
   67.7340   61.1590   31.1380 N   0  0  0  0  0  0  0  0  0  0  0  0
   67.4880   60.0220   31.8670 C   0  0  0  0  0  0  0  0  0  0  0  0
   66.3870   59.3080   31.6770 N   0  0  0  0  0  0  0  0  0  0  0  0
   68.4780   59.6680   32.8290 N   0  0  0  0  0  0  0  0  0  0  0  0
   69.4210   60.5850   33.1890 C   0  0  0  0  0  3  0  0  0  0  0  0
   70.2710   60.0750   34.1050 N   0  0  0  0  0  0  0  0  0  0  0  0
   69.8720   58.8050   34.3430 C   0  0  0  0  0  0  0  0  0  0  0  0
   70.2570   57.7340   35.1310 C   0  0  0  0  0  0  0  0  0  0  0  0
   71.2770   57.9160   35.8780 O   0  0  0  0  0  0  0  0  0  0  0  0
   69.5900   56.5580   35.1090 N   0  0  0  0  0  0  0  0  0  0  0  0
   68.5070   56.3850   34.3050 C   0  0  0  0  0  0  0  0  0  0  0  0
   67.8850   55.1090   34.3640 N   0  0  0  0  0  0  0  0  0  0  0  0
   68.0930   57.4150   33.5130 N   0  0  0  0  0  0  0  0  0  0  0  0
   68.7770   58.5860   33.5510 C   0  0  0  0  0  0  0  0  0  0  0  0
   69.9060   55.7840   35.7090 H   0  0  0  0  0  0  0  0  0  0  0  0
   67.0590   54.9120   33.7800 H   0  0  0  0  0  0  0  0  0  0  0  0
   68.2590   54.3820   34.9890 H   0  0  0  0  0  0  0  0  0  0  0  0
   67.1560   62.7850   29.4520 C   0  0  0  0  0  0  0  0  0  0  0  0
   68.3730   62.7950   28.7810 C   0  0  0  0  0  3  0  0  0  0  0  0
   68.7490   63.9150   28.0240 C   0  0  0  0  0  3  0  0  0  0  0  0
   67.8770   64.9990   27.9680 C   0  0  0  0  0  3  0  0  0  0  0  0
   66.6590   65.0040   28.6320 C   0  0  0  0  0  3  0  0  0  0  0  0
   66.3290   63.8740   29.3690 C   0  0  0  0  0  0  0  0  0  0  0  0
   65.0550   63.8950   30.0550 C   0  0  0  0  0  0  0  0  0  0  0  0
   63.9190   63.4050   29.5070 N   0  0  0  0  0  0  0  0  0  0  0  0
   62.8930   63.5280   30.3040 O   0  0  0  0  0  0  0  0  0  0  0  0
   63.3080   64.1090   31.4170 C   0  0  0  0  0  0  0  0  0  0  0  0
   64.6050   64.3210   31.2490 N   0  0  0  0  0  0  0  0  0  0  0  0
   62.7690   64.5290   32.6450 N   0  0  0  0  0  0  0  0  0  0  0  0
   63.5480   64.4370   33.8970 C   0  0  0  0  0  2  0  0  0  0  0  0
   62.4060   64.3040   34.9280 C   0  0  0  0  0  2  0  0  0  0  0  0
   61.5290   65.4460   34.4270 C   0  0  0  0  0  2  0  0  0  0  0  0
   61.4580   65.0960   32.9550 C   0  0  0  0  0  2  0  0  0  0  0  0
  1  6  2  0  0  0  0
  2  3  2  0  0  0  0
  2  1  1  0  0  0  0
  3  4  1  0  0  0  0
  4  5  2  0  0  0  0
  5  7  1  0  0  0  0
  6  5  1  0  0  0  0
  7  8  1  0  0  0  0
  7 17  1  0  0  0  0
  8  9  2  0  0  0  0
  9 10  1  0  0  0  0
 10 11  1  0  0  0  0
 11 12  2  0  0  0  0
 13 11  1  0  0  0  0
 13 18  1  0  0  0  0
 14 15  1  0  0  0  0
 14 13  1  0  0  0  0
 15 20  1  0  0  0  0
 16 17  1  0  0  0  0
 16 14  2  0  0  0  0
 17 10  2  0  0  0  0
 19 15  1  0  0  0  0
 21  3  1  0  0  0  0
 22 21  2  0  0  0  0
 23 22  1  0  0  0  0
 24 23  2  0  0  0  0
 24 25  1  0  0  0  0
 25 26  2  0  0  0  0
 26 21  1  0  0  0  0
 26 27  1  0  0  0  0
 27 31  1  0  0  0  0
 28 27  2  0  0  0  0
 28 29  1  0  0  0  0
 29 30  1  0  0  0  0
 30 32  1  0  0  0  0
 31 30  2  0  0  0  0
 32 36  1  0  0  0  0
 32 33  1  0  0  0  0
 33 34  1  0  0  0  0
 35 34  1  0  0  0  0
 36 35  1  0  0  0  0
M  END
>  <minimizedAffinity>
-6.41179371

$$$$

 OpenBabel03242509393D

 36 41  0  0  0  0  0  0  0  0999 V2000
   65.0030   59.6480   31.3740 C   0  0  0  0  0  3  0  0  0  0  0  0
   65.0860   60.8320   30.6020 C   0  0  0  0  0  3  0  0  0  0  0  0
   66.3130   61.5230   30.5350 C   0  0  0  0  0  0  0  0  0  0  0  0
   67.3660   61.0250   31.2120 N   0  0  0  0  0  0  0  0  0  0  0  0
   67.2470   59.8730   31.9490 C   0  0  0  0  0  0  0  0  0  0  0  0
   66.0970   59.2170   32.0190 N   0  0  0  0  0  0  0  0  0  0  0  0
   68.4240   59.4370   32.6240 N   0  0  0  0  0  0  0  0  0  0  0  0
   69.4730   60.2960   32.7630 C   0  0  0  0  0  3  0  0  0  0  0  0
   70.4950   59.7140   33.4250 N   0  0  0  0  0  0  0  0  0  0  0  0
   70.1000   58.4540   33.7210 C   0  0  0  0  0  0  0  0  0  0  0  0
   70.6100   57.3370   34.3600 C   0  0  0  0  0  0  0  0  0  0  0  0
   71.7910   57.4440   34.8350 O   0  0  0  0  0  0  0  0  0  0  0  0
   69.8970   56.1950   34.4740 N   0  0  0  0  0  0  0  0  0  0  0  0
   68.6410   56.1020   33.9600 C   0  0  0  0  0  0  0  0  0  0  0  0
   67.9850   54.8540   34.1370 N   0  0  0  0  0  0  0  0  0  0  0  0
   68.1000   57.1790   33.3230 N   0  0  0  0  0  0  0  0  0  0  0  0
   68.8340   58.3150   33.2210 C   0  0  0  0  0  0  0  0  0  0  0  0
   70.3090   55.3840   34.9560 H   0  0  0  0  0  0  0  0  0  0  0  0
   67.0320   54.7160   33.7720 H   0  0  0  0  0  0  0  0  0  0  0  0
   68.4640   54.0860   34.6310 H   0  0  0  0  0  0  0  0  0  0  0  0
   66.4760   62.7400   29.7660 C   0  0  0  0  0  0  0  0  0  0  0  0
   67.0410   62.5860   28.5050 C   0  0  0  0  0  3  0  0  0  0  0  0
   67.2390   63.7060   27.6830 C   0  0  0  0  0  3  0  0  0  0  0  0
   66.8580   64.9560   28.1630 C   0  0  0  0  0  3  0  0  0  0  0  0
   66.2940   65.1250   29.4190 C   0  0  0  0  0  3  0  0  0  0  0  0
   66.1160   63.9890   30.1980 C   0  0  0  0  0  0  0  0  0  0  0  0
   65.5260   64.1820   31.5050 C   0  0  0  0  0  0  0  0  0  0  0  0
   66.2650   64.2980   32.6330 N   0  0  0  0  0  0  0  0  0  0  0  0
   65.5250   64.4660   33.6940 O   0  0  0  0  0  0  0  0  0  0  0  0
   64.2580   64.4690   33.3120 C   0  0  0  0  0  0  0  0  0  0  0  0
   64.2800   64.2970   31.9980 N   0  0  0  0  0  0  0  0  0  0  0  0
   62.9870   64.5960   33.8960 N   0  0  0  0  0  0  0  0  0  0  0  0
   61.8860   65.2860   33.1940 C   0  0  0  0  0  2  0  0  0  0  0  0
   61.0520   65.7800   34.3960 C   0  0  0  0  0  2  0  0  0  0  0  0
   61.0170   64.4750   35.1830 C   0  0  0  0  0  2  0  0  0  0  0  0
   62.4920   64.1330   35.1910 C   0  0  0  0  0  2  0  0  0  0  0  0
  1  6  2  0  0  0  0
  2  1  1  0  0  0  0
  3  2  2  0  0  0  0
  3  4  1  0  0  0  0
  4  5  2  0  0  0  0
  5  6  1  0  0  0  0
  5  7  1  0  0  0  0
  7  8  1  0  0  0  0
  7 17  1  0  0  0  0
  8  9  2  0  0  0  0
  9 10  1  0  0  0  0
 10 11  1  0  0  0  0
 11 13  1  0  0  0  0
 11 12  2  0  0  0  0
 13 18  1  0  0  0  0
 14 15  1  0  0  0  0
 14 13  1  0  0  0  0
 15 20  1  0  0  0  0
 16 14  2  0  0  0  0
 17 16  1  0  0  0  0
 17 10  2  0  0  0  0
 19 15  1  0  0  0  0
 21 26  1  0  0  0  0
 21  3  1  0  0  0  0
 22 21  2  0  0  0  0
 23 24  2  0  0  0  0
 23 22  1  0  0  0  0
 24 25  1  0  0  0  0
 25 26  2  0  0  0  0
 26 27  1  0  0  0  0
 27 31  1  0  0  0  0
 27 28  2  0  0  0  0
 28 29  1  0  0  0  0
 30 29  1  0  0  0  0
 30 32  1  0  0  0  0
 31 30  2  0  0  0  0
 32 36  1  0  0  0  0
 33 32  1  0  0  0  0
 33 34  1  0  0  0  0
 34 35  1  0  0  0  0
 35 36  1  0  0  0  0
M  END
>  <minimizedAffinity>
-6.40860844

$$$$
