
 OpenBabel03242509413D

 32 37  0  0  0  0  0  0  0  0999 V2000
   67.3200   59.4430   33.5650 C   0  0  0  0  0  0  0  0  0  0  0  0
   67.4250   60.0300   34.8130 C   0  0  0  0  0  3  0  0  0  0  0  0
   66.4940   59.7230   35.8200 C   0  0  0  0  0  3  0  0  0  0  0  0
   65.4800   58.8270   35.5290 C   0  0  0  0  0  3  0  0  0  0  0  0
   65.3560   58.2260   34.2870 C   0  0  0  0  0  3  0  0  0  0  0  0
   66.2990   58.5620   33.3270 C   0  0  0  0  0  0  0  0  0  0  0  0
   66.1460   57.9220   32.0250 C   0  0  0  0  0  0  0  0  0  0  0  0
   66.9530   56.9270   31.6090 N   0  0  0  0  0  0  0  0  0  0  0  0
   66.6340   56.5040   30.4190 O   0  0  0  0  0  0  0  0  0  0  0  0
   65.5960   57.2090   30.0060 C   0  0  0  0  0  0  0  0  0  0  0  0
   65.3100   58.0660   30.9890 N   0  0  0  0  0  0  0  0  0  0  0  0
   64.7580   57.2960   28.8690 N   0  0  0  0  0  0  0  0  0  0  0  0
   63.3160   57.5830   28.9840 C   0  0  0  0  0  2  0  0  0  0  0  0
   62.7640   56.8810   27.7320 C   0  0  0  0  0  2  0  0  0  0  0  0
   63.7830   57.4070   26.7240 C   0  0  0  0  0  2  0  0  0  0  0  0
   65.0820   57.1380   27.4550 C   0  0  0  0  0  2  0  0  0  0  0  0
   70.5230   59.7530   31.6040 C   0  0  0  0  0  3  0  0  0  0  0  0
   69.6310   59.3080   32.6090 C   0  0  0  0  0  3  0  0  0  0  0  0
   68.3280   59.8200   32.5920 C   0  0  0  0  0  0  0  0  0  0  0  0
   68.0210   60.6980   31.6230 N   0  0  0  0  0  0  0  0  0  0  0  0
   68.8900   61.1180   30.6610 C   0  0  0  0  0  0  0  0  0  0  0  0
   70.1130   60.6260   30.6900 N   0  0  0  0  0  0  0  0  0  0  0  0
   68.2600   62.0720   29.7530 C   0  0  0  0  0  0  0  0  0  0  0  0
   66.9070   62.0500   29.4910 C   0  0  0  0  0  3  0  0  0  0  0  0
   66.2660   62.9250   28.6440 C   0  0  0  0  0  3  0  0  0  0  0  0
   66.9780   63.9030   27.9920 C   0  0  0  0  0  3  0  0  0  0  0  0
   68.3350   63.9760   28.2120 C   0  0  0  0  0  0  0  0  0  0  0  0
   69.0430   64.9590   27.5560 C   0  0  0  0  0  3  0  0  0  0  0  0
   70.4040   65.0840   27.7340 C   0  0  0  0  0  3  0  0  0  0  0  0
   71.0170   64.1750   28.6020 C   0  0  0  0  0  3  0  0  0  0  0  0
   70.2630   63.2120   29.2340 C   0  0  0  0  0  3  0  0  0  0  0  0
   68.9090   63.0710   29.0700 C   0  0  0  0  0  0  0  0  0  0  0  0
  1  2  1  0  0  0  0
  2  3  2  0  0  0  0
  4  3  1  0  0  0  0
  5  4  2  0  0  0  0
  6  1  2  0  0  0  0
  6  5  1  0  0  0  0
  7  6  1  0  0  0  0
  8  7  2  0  0  0  0
  9  8  1  0  0  0  0
 10  9  1  0  0  0  0
 10 11  2  0  0  0  0
 11  7  1  0  0  0  0
 12 13  1  0  0  0  0
 12 10  1  0  0  0  0
 14 13  1  0  0  0  0
 15 16  1  0  0  0  0
 15 14  1  0  0  0  0
 16 12  1  0  0  0  0
 17 18  1  0  0  0  0
 19 18  2  0  0  0  0
 19  1  1  0  0  0  0
 20 19  1  0  0  0  0
 21 22  1  0  0  0  0
 21 20  2  0  0  0  0
 22 17  2  0  0  0  0
 23 21  1  0  0  0  0
 24 23  1  0  0  0  0
 25 24  2  0  0  0  0
 26 27  2  0  0  0  0
 26 25  1  0  0  0  0
 27 32  1  0  0  0  0
 28 29  2  0  0  0  0
 28 27  1  0  0  0  0
 29 30  1  0  0  0  0
 30 31  2  0  0  0  0
 32 31  1  0  0  0  0
 32 23  2  0  0  0  0
M  END
>  <minimizedAffinity>
-7.75250864

$$$$

 OpenBabel03242509413D

 32 37  0  0  0  0  0  0  0  0999 V2000
   67.3380   59.4850   33.5470 C   0  0  0  0  0  0  0  0  0  0  0  0
   67.4500   60.0750   34.7920 C   0  0  0  0  0  3  0  0  0  0  0  0
   66.5480   59.7390   35.8170 C   0  0  0  0  0  3  0  0  0  0  0  0
   65.5570   58.8120   35.5440 C   0  0  0  0  0  3  0  0  0  0  0  0
   65.4270   58.2080   34.3050 C   0  0  0  0  0  3  0  0  0  0  0  0
   66.3410   58.5730   33.3270 C   0  0  0  0  0  0  0  0  0  0  0  0
   66.1830   57.9280   32.0280 C   0  0  0  0  0  0  0  0  0  0  0  0
   67.0060   56.9530   31.6000 N   0  0  0  0  0  0  0  0  0  0  0  0
   66.6790   56.5210   30.4150 O   0  0  0  0  0  0  0  0  0  0  0  0
   65.6190   57.2020   30.0180 C   0  0  0  0  0  0  0  0  0  0  0  0
   65.3280   58.0530   31.0050 N   0  0  0  0  0  0  0  0  0  0  0  0
   64.7610   57.2690   28.8940 N   0  0  0  0  0  0  0  0  0  0  0  0
   63.3150   57.5220   29.0310 C   0  0  0  0  0  2  0  0  0  0  0  0
   62.7600   56.8060   27.7890 C   0  0  0  0  0  2  0  0  0  0  0  0
   63.7510   57.3550   26.7640 C   0  0  0  0  0  2  0  0  0  0  0  0
   65.0670   57.1170   27.4760 C   0  0  0  0  0  2  0  0  0  0  0  0
   70.4860   59.8790   31.5130 C   0  0  0  0  0  3  0  0  0  0  0  0
   69.6270   59.4040   32.5330 C   0  0  0  0  0  3  0  0  0  0  0  0
   68.3160   59.8930   32.5540 C   0  0  0  0  0  0  0  0  0  0  0  0
   67.9700   60.7780   31.6060 N   0  0  0  0  0  0  0  0  0  0  0  0
   68.8070   61.2270   30.6290 C   0  0  0  0  0  0  0  0  0  0  0  0
   70.0400   60.7560   30.6210 N   0  0  0  0  0  0  0  0  0  0  0  0
   68.1390   62.1810   29.7490 C   0  0  0  0  0  0  0  0  0  0  0  0
   68.8290   62.9220   28.8140 C   0  0  0  0  0  3  0  0  0  0  0  0
   68.2470   63.8330   27.9620 C   0  0  0  0  0  3  0  0  0  0  0  0
   66.8910   64.0540   28.0070 C   0  0  0  0  0  3  0  0  0  0  0  0
   66.1470   63.3430   28.9210 C   0  0  0  0  0  0  0  0  0  0  0  0
   64.7880   63.5680   28.9610 C   0  0  0  0  0  3  0  0  0  0  0  0
   63.9880   62.8890   29.8540 C   0  0  0  0  0  3  0  0  0  0  0  0
   64.6180   61.9720   30.7020 C   0  0  0  0  0  3  0  0  0  0  0  0
   65.9800   61.7840   30.6210 C   0  0  0  0  0  3  0  0  0  0  0  0
   66.7930   62.4510   29.7400 C   0  0  0  0  0  0  0  0  0  0  0  0
  1  2  1  0  0  0  0
  2  3  2  0  0  0  0
  4  3  1  0  0  0  0
  5  4  2  0  0  0  0
  6  1  2  0  0  0  0
  6  5  1  0  0  0  0
  7  6  1  0  0  0  0
  8  7  2  0  0  0  0
  9  8  1  0  0  0  0
 10  9  1  0  0  0  0
 10 11  2  0  0  0  0
 11  7  1  0  0  0  0
 12 13  1  0  0  0  0
 12 10  1  0  0  0  0
 14 13  1  0  0  0  0
 15 16  1  0  0  0  0
 15 14  1  0  0  0  0
 16 12  1  0  0  0  0
 17 18  1  0  0  0  0
 18 19  2  0  0  0  0
 19  1  1  0  0  0  0
 20 19  1  0  0  0  0
 21 20  2  0  0  0  0
 22 21  1  0  0  0  0
 22 17  2  0  0  0  0
 23 21  1  0  0  0  0
 24 23  2  0  0  0  0
 25 26  2  0  0  0  0
 25 24  1  0  0  0  0
 26 27  1  0  0  0  0
 27 28  2  0  0  0  0
 27 32  1  0  0  0  0
 28 29  1  0  0  0  0
 29 30  2  0  0  0  0
 31 30  1  0  0  0  0
 32 23  1  0  0  0  0
 32 31  2  0  0  0  0
M  END
>  <minimizedAffinity>
-7.73456001

$$$$

 OpenBabel03242509413D

 32 37  0  0  0  0  0  0  0  0999 V2000
   66.2620   60.1370   32.8240 C   0  0  0  0  0  0  0  0  0  0  0  0
   66.4440   60.7320   34.0590 C   0  0  0  0  0  3  0  0  0  0  0  0
   66.4780   59.9470   35.2240 C   0  0  0  0  0  3  0  0  0  0  0  0
   66.3250   58.5770   35.0990 C   0  0  0  0  0  3  0  0  0  0  0  0
   66.1430   57.9600   33.8730 C   0  0  0  0  0  3  0  0  0  0  0  0
   66.1160   58.7780   32.7530 C   0  0  0  0  0  0  0  0  0  0  0  0
   65.9180   58.1070   31.4730 C   0  0  0  0  0  0  0  0  0  0  0  0
   66.7930   57.2080   30.9850 N   0  0  0  0  0  0  0  0  0  0  0  0
   66.4170   56.7350   29.8310 O   0  0  0  0  0  0  0  0  0  0  0  0
   65.2700   57.3100   29.5160 C   0  0  0  0  0  0  0  0  0  0  0  0
   64.9780   58.1410   30.5200 N   0  0  0  0  0  0  0  0  0  0  0  0
   64.3240   57.2850   28.4630 N   0  0  0  0  0  0  0  0  0  0  0  0
   62.8760   57.4040   28.7120 C   0  0  0  0  0  2  0  0  0  0  0  0
   62.2960   56.6270   27.5190 C   0  0  0  0  0  2  0  0  0  0  0  0
   63.1480   57.2550   26.4180 C   0  0  0  0  0  2  0  0  0  0  0  0
   64.5320   57.1470   27.0250 C   0  0  0  0  0  2  0  0  0  0  0  0
   67.1990   62.0990   29.7460 C   0  0  0  0  0  3  0  0  0  0  0  0
   67.3420   61.2000   30.8300 C   0  0  0  0  0  3  0  0  0  0  0  0
   66.2430   61.0290   31.6790 C   0  0  0  0  0  0  0  0  0  0  0  0
   65.1330   61.7340   31.4040 N   0  0  0  0  0  0  0  0  0  0  0  0
   65.0090   62.5960   30.3560 C   0  0  0  0  0  0  0  0  0  0  0  0
   66.0530   62.7460   29.5640 N   0  0  0  0  0  0  0  0  0  0  0  0
   63.6830   63.2080   30.3220 C   0  0  0  0  0  0  0  0  0  0  0  0
   62.7310   62.8410   29.3960 C   0  0  0  0  0  3  0  0  0  0  0  0
   61.4690   63.3860   29.3220 C   0  0  0  0  0  3  0  0  0  0  0  0
   61.0850   64.3640   30.2080 C   0  0  0  0  0  3  0  0  0  0  0  0
   61.9930   64.7730   31.1580 C   0  0  0  0  0  0  0  0  0  0  0  0
   61.6020   65.7530   32.0440 C   0  0  0  0  0  3  0  0  0  0  0  0
   62.4650   66.2070   33.0180 C   0  0  0  0  0  3  0  0  0  0  0  0
   63.7380   65.6280   33.0590 C   0  0  0  0  0  3  0  0  0  0  0  0
   64.0780   64.6510   32.1500 C   0  0  0  0  0  3  0  0  0  0  0  0
   63.2350   64.1870   31.1740 C   0  0  0  0  0  0  0  0  0  0  0  0
  1  2  1  0  0  0  0
  2  3  2  0  0  0  0
  4  3  1  0  0  0  0
  5  4  2  0  0  0  0
  6  1  2  0  0  0  0
  6  5  1  0  0  0  0
  7  6  1  0  0  0  0
  8  7  2  0  0  0  0
  9  8  1  0  0  0  0
 10  9  1  0  0  0  0
 10 11  2  0  0  0  0
 11  7  1  0  0  0  0
 12 13  1  0  0  0  0
 12 10  1  0  0  0  0
 14 13  1  0  0  0  0
 15 16  1  0  0  0  0
 15 14  1  0  0  0  0
 16 12  1  0  0  0  0
 17 18  1  0  0  0  0
 18 19  2  0  0  0  0
 19  1  1  0  0  0  0
 20 19  1  0  0  0  0
 21 20  2  0  0  0  0
 22 17  2  0  0  0  0
 22 21  1  0  0  0  0
 23 21  1  0  0  0  0
 23 32  1  0  0  0  0
 24 23  2  0  0  0  0
 25 24  1  0  0  0  0
 25 26  2  0  0  0  0
 26 27  1  0  0  0  0
 27 32  2  0  0  0  0
 27 28  1  0  0  0  0
 28 29  2  0  0  0  0
 29 30  1  0  0  0  0
 31 30  2  0  0  0  0
 32 31  1  0  0  0  0
M  END
>  <minimizedAffinity>
-7.47754908

$$$$

 OpenBabel03242509413D

 32 37  0  0  0  0  0  0  0  0999 V2000
   66.4160   60.0390   32.1480 C   0  0  0  0  0  0  0  0  0  0  0  0
   67.2540   60.2680   33.2240 C   0  0  0  0  0  3  0  0  0  0  0  0
   67.4300   59.2780   34.2060 C   0  0  0  0  0  3  0  0  0  0  0  0
   66.7460   58.0830   34.0670 C   0  0  0  0  0  3  0  0  0  0  0  0
   65.9020   57.8320   32.9970 C   0  0  0  0  0  3  0  0  0  0  0  0
   65.7620   58.8400   32.0550 C   0  0  0  0  0  0  0  0  0  0  0  0
   64.8660   58.5560   30.9400 C   0  0  0  0  0  0  0  0  0  0  0  0
   63.6110   59.0410   30.8790 N   0  0  0  0  0  0  0  0  0  0  0  0
   62.9920   58.6630   29.7960 O   0  0  0  0  0  0  0  0  0  0  0  0
   63.8250   57.9110   29.0990 C   0  0  0  0  0  0  0  0  0  0  0  0
   64.9580   57.8530   29.8040 N   0  0  0  0  0  0  0  0  0  0  0  0
   63.8380   57.1920   27.8800 N   0  0  0  0  0  0  0  0  0  0  0  0
   65.0420   57.1150   27.0330 C   0  0  0  0  0  2  0  0  0  0  0  0
   64.4230   56.9320   25.6380 C   0  0  0  0  0  2  0  0  0  0  0  0
   63.4120   55.8430   25.9920 C   0  0  0  0  0  2  0  0  0  0  0  0
   62.7730   56.4330   27.2330 C   0  0  0  0  0  2  0  0  0  0  0  0
   66.9740   62.3790   29.2470 C   0  0  0  0  0  3  0  0  0  0  0  0
   67.1930   61.2860   30.1200 C   0  0  0  0  0  3  0  0  0  0  0  0
   66.3010   61.1180   31.1850 C   0  0  0  0  0  0  0  0  0  0  0  0
   65.3020   62.0090   31.3010 N   0  0  0  0  0  0  0  0  0  0  0  0
   65.1020   63.0570   30.4530 C   0  0  0  0  0  0  0  0  0  0  0  0
   65.9510   63.2010   29.4540 N   0  0  0  0  0  0  0  0  0  0  0  0
   63.9350   63.8430   30.8420 C   0  0  0  0  0  0  0  0  0  0  0  0
   63.9870   64.7800   31.8510 C   0  0  0  0  0  3  0  0  0  0  0  0
   62.9170   65.5470   32.2540 C   0  0  0  0  0  3  0  0  0  0  0  0
   61.6950   65.4050   31.6420 C   0  0  0  0  0  3  0  0  0  0  0  0
   61.5800   64.4840   30.6250 C   0  0  0  0  0  0  0  0  0  0  0  0
   60.3520   64.3470   30.0140 C   0  0  0  0  0  3  0  0  0  0  0  0
   60.1720   63.4410   28.9910 C   0  0  0  0  0  3  0  0  0  0  0  0
   61.2840   62.6820   28.6110 C   0  0  0  0  0  3  0  0  0  0  0  0
   62.4890   62.8590   29.2550 C   0  0  0  0  0  3  0  0  0  0  0  0
   62.6880   63.7530   30.2740 C   0  0  0  0  0  0  0  0  0  0  0  0
  1  2  1  0  0  0  0
  2  3  2  0  0  0  0
  4  3  1  0  0  0  0
  5  4  2  0  0  0  0
  6  1  2  0  0  0  0
  6  5  1  0  0  0  0
  7  6  1  0  0  0  0
  8  7  2  0  0  0  0
  9  8  1  0  0  0  0
 10  9  1  0  0  0  0
 10 11  2  0  0  0  0
 11  7  1  0  0  0  0
 12 10  1  0  0  0  0
 13 12  1  0  0  0  0
 14 15  1  0  0  0  0
 14 13  1  0  0  0  0
 15 16  1  0  0  0  0
 16 12  1  0  0  0  0
 17 22  2  0  0  0  0
 17 18  1  0  0  0  0
 18 19  2  0  0  0  0
 19 20  1  0  0  0  0
 19  1  1  0  0  0  0
 21 23  1  0  0  0  0
 21 20  2  0  0  0  0
 22 21  1  0  0  0  0
 23 24  1  0  0  0  0
 24 25  2  0  0  0  0
 26 25  1  0  0  0  0
 27 26  2  0  0  0  0
 28 27  1  0  0  0  0
 29 28  2  0  0  0  0
 30 29  1  0  0  0  0
 30 31  2  0  0  0  0
 31 32  1  0  0  0  0
 32 27  1  0  0  0  0
 32 23  2  0  0  0  0
M  END
>  <minimizedAffinity>
-7.41039228

$$$$

 OpenBabel03242509413D

 32 37  0  0  0  0  0  0  0  0999 V2000
   65.8530   58.7760   33.2820 C   0  0  0  0  0  0  0  0  0  0  0  0
   65.2360   58.1190   34.3300 C   0  0  0  0  0  3  0  0  0  0  0  0
   65.2670   58.6660   35.6240 C   0  0  0  0  0  3  0  0  0  0  0  0
   65.9270   59.8670   35.8160 C   0  0  0  0  0  3  0  0  0  0  0  0
   66.5510   60.5440   34.7810 C   0  0  0  0  0  3  0  0  0  0  0  0
   66.4920   59.9630   33.5230 C   0  0  0  0  0  0  0  0  0  0  0  0
   67.1600   60.6900   32.4490 C   0  0  0  0  0  0  0  0  0  0  0  0
   68.4540   60.4900   32.1350 N   0  0  0  0  0  0  0  0  0  0  0  0
   68.8400   61.2430   31.1450 O   0  0  0  0  0  0  0  0  0  0  0  0
   67.8040   61.9720   30.7670 C   0  0  0  0  0  0  0  0  0  0  0  0
   66.7910   61.6270   31.5660 N   0  0  0  0  0  0  0  0  0  0  0  0
   67.4990   62.9620   29.8020 N   0  0  0  0  0  0  0  0  0  0  0  0
   66.1880   63.0160   29.1300 C   0  0  0  0  0  2  0  0  0  0  0  0
   66.5610   63.6660   27.7870 C   0  0  0  0  0  2  0  0  0  0  0  0
   67.4240   64.8030   28.3300 C   0  0  0  0  0  2  0  0  0  0  0  0
   68.3230   64.0520   29.2910 C   0  0  0  0  0  2  0  0  0  0  0  0
   66.5330   56.6830   30.2230 C   0  0  0  0  0  3  0  0  0  0  0  0
   66.7320   57.2420   31.5080 C   0  0  0  0  0  3  0  0  0  0  0  0
   65.7650   58.1360   31.9820 C   0  0  0  0  0  0  0  0  0  0  0  0
   64.7190   58.3980   31.1820 N   0  0  0  0  0  0  0  0  0  0  0  0
   64.5390   57.8530   29.9460 C   0  0  0  0  0  0  0  0  0  0  0  0
   65.4590   57.0120   29.5130 N   0  0  0  0  0  0  0  0  0  0  0  0
   63.3090   58.3330   29.3240 C   0  0  0  0  0  0  0  0  0  0  0  0
   62.6040   59.4050   29.8270 C   0  0  0  0  0  3  0  0  0  0  0  0
   61.4410   59.8950   29.2790 C   0  0  0  0  0  3  0  0  0  0  0  0
   60.9060   59.3120   28.1560 C   0  0  0  0  0  3  0  0  0  0  0  0
   61.5640   58.2350   27.6060 C   0  0  0  0  0  0  0  0  0  0  0  0
   61.0240   57.6550   26.4790 C   0  0  0  0  0  3  0  0  0  0  0  0
   61.6350   56.5730   25.8820 C   0  0  0  0  0  3  0  0  0  0  0  0
   62.8150   56.1060   26.4700 C   0  0  0  0  0  3  0  0  0  0  0  0
   63.3130   56.7230   27.5960 C   0  0  0  0  0  3  0  0  0  0  0  0
   62.7200   57.7980   28.2050 C   0  0  0  0  0  0  0  0  0  0  0  0
  1  6  2  0  0  0  0
  1  2  1  0  0  0  0
  2  3  2  0  0  0  0
  3  4  1  0  0  0  0
  5  4  2  0  0  0  0
  6  5  1  0  0  0  0
  7  6  1  0  0  0  0
  8  7  2  0  0  0  0
  9  8  1  0  0  0  0
 10  9  1  0  0  0  0
 10 11  2  0  0  0  0
 11  7  1  0  0  0  0
 12 10  1  0  0  0  0
 13 12  1  0  0  0  0
 14 15  1  0  0  0  0
 14 13  1  0  0  0  0
 15 16  1  0  0  0  0
 16 12  1  0  0  0  0
 17 18  1  0  0  0  0
 18 19  2  0  0  0  0
 19  1  1  0  0  0  0
 20 19  1  0  0  0  0
 21 20  2  0  0  0  0
 22 21  1  0  0  0  0
 22 17  2  0  0  0  0
 23 24  1  0  0  0  0
 23 21  1  0  0  0  0
 25 24  2  0  0  0  0
 26 25  1  0  0  0  0
 27 26  2  0  0  0  0
 27 32  1  0  0  0  0
 28 27  1  0  0  0  0
 29 30  1  0  0  0  0
 29 28  2  0  0  0  0
 30 31  2  0  0  0  0
 31 32  1  0  0  0  0
 32 23  2  0  0  0  0
M  END
>  <minimizedAffinity>
-7.11904049

$$$$

 OpenBabel03242509413D

 32 37  0  0  0  0  0  0  0  0999 V2000
   67.4010   59.6640   32.3790 C   0  0  0  0  0  0  0  0  0  0  0  0
   68.4110   59.7460   33.3190 C   0  0  0  0  0  3  0  0  0  0  0  0
   68.6890   58.6520   34.1550 C   0  0  0  0  0  3  0  0  0  0  0  0
   67.9300   57.5030   34.0120 C   0  0  0  0  0  3  0  0  0  0  0  0
   66.9140   57.3980   33.0760 C   0  0  0  0  0  3  0  0  0  0  0  0
   66.6780   58.5060   32.2750 C   0  0  0  0  0  0  0  0  0  0  0  0
   65.6010   58.3750   31.3000 C   0  0  0  0  0  0  0  0  0  0  0  0
   64.4020   58.9650   31.4640 N   0  0  0  0  0  0  0  0  0  0  0  0
   63.5940   58.7150   30.4720 O   0  0  0  0  0  0  0  0  0  0  0  0
   64.2390   57.9470   29.6130 C   0  0  0  0  0  0  0  0  0  0  0  0
   65.4550   57.7470   30.1260 N   0  0  0  0  0  0  0  0  0  0  0  0
   64.0010   57.3150   28.3690 N   0  0  0  0  0  0  0  0  0  0  0  0
   65.0510   57.1980   27.3400 C   0  0  0  0  0  2  0  0  0  0  0  0
   64.2130   57.1630   26.0510 C   0  0  0  0  0  2  0  0  0  0  0  0
   63.1710   56.1400   26.4990 C   0  0  0  0  0  2  0  0  0  0  0  0
   62.7850   56.6930   27.8550 C   0  0  0  0  0  2  0  0  0  0  0  0
   67.6860   62.3390   29.7390 C   0  0  0  0  0  3  0  0  0  0  0  0
   67.9950   61.1600   30.4600 C   0  0  0  0  0  3  0  0  0  0  0  0
   67.1890   60.8440   31.5600 C   0  0  0  0  0  0  0  0  0  0  0  0
   66.1830   61.6840   31.8520 N   0  0  0  0  0  0  0  0  0  0  0  0
   65.8970   62.8170   31.1500 C   0  0  0  0  0  0  0  0  0  0  0  0
   66.6650   63.1010   30.1160 N   0  0  0  0  0  0  0  0  0  0  0  0
   64.7460   63.5170   31.7120 C   0  0  0  0  0  0  0  0  0  0  0  0
   64.7870   64.1130   32.9540 C   0  0  0  0  0  3  0  0  0  0  0  0
   63.7310   64.7840   33.5280 C   0  0  0  0  0  3  0  0  0  0  0  0
   62.5360   64.8960   32.8590 C   0  0  0  0  0  3  0  0  0  0  0  0
   62.4330   64.3210   31.6120 C   0  0  0  0  0  0  0  0  0  0  0  0
   61.2330   64.4370   30.9450 C   0  0  0  0  0  3  0  0  0  0  0  0
   61.0660   63.8820   29.6940 C   0  0  0  0  0  3  0  0  0  0  0  0
   62.1630   63.2090   29.1470 C   0  0  0  0  0  3  0  0  0  0  0  0
   63.3410   63.1230   29.8560 C   0  0  0  0  0  3  0  0  0  0  0  0
   63.5260   63.6660   31.1000 C   0  0  0  0  0  0  0  0  0  0  0  0
  1  2  1  0  0  0  0
  2  3  2  0  0  0  0
  4  3  1  0  0  0  0
  5  4  2  0  0  0  0
  6  1  2  0  0  0  0
  6  5  1  0  0  0  0
  7  8  2  0  0  0  0
  7  6  1  0  0  0  0
  9  8  1  0  0  0  0
 10 11  2  0  0  0  0
 10  9  1  0  0  0  0
 11  7  1  0  0  0  0
 12 10  1  0  0  0  0
 13 12  1  0  0  0  0
 14 15  1  0  0  0  0
 14 13  1  0  0  0  0
 15 16  1  0  0  0  0
 16 12  1  0  0  0  0
 17 22  2  0  0  0  0
 17 18  1  0  0  0  0
 18 19  2  0  0  0  0
 19 20  1  0  0  0  0
 19  1  1  0  0  0  0
 21 23  1  0  0  0  0
 21 20  2  0  0  0  0
 22 21  1  0  0  0  0
 23 24  1  0  0  0  0
 24 25  2  0  0  0  0
 26 25  1  0  0  0  0
 27 26  2  0  0  0  0
 28 27  1  0  0  0  0
 29 28  2  0  0  0  0
 30 29  1  0  0  0  0
 30 31  2  0  0  0  0
 31 32  1  0  0  0  0
 32 27  1  0  0  0  0
 32 23  2  0  0  0  0
M  END
>  <minimizedAffinity>
-7.05509567

$$$$

 OpenBabel03242509413D

 32 37  0  0  0  0  0  0  0  0999 V2000
   67.9690   58.5400   33.5950 C   0  0  0  0  0  0  0  0  0  0  0  0
   69.1060   58.3820   34.3660 C   0  0  0  0  0  3  0  0  0  0  0  0
   69.6800   57.1100   34.5270 C   0  0  0  0  0  3  0  0  0  0  0  0
   69.0800   56.0320   33.8980 C   0  0  0  0  0  3  0  0  0  0  0  0
   67.9420   56.1670   33.1200 C   0  0  0  0  0  3  0  0  0  0  0  0
   67.4130   57.4430   32.9930 C   0  0  0  0  0  0  0  0  0  0  0  0
   66.2130   57.5610   32.1740 C   0  0  0  0  0  0  0  0  0  0  0  0
   65.0790   58.1260   32.6300 N   0  0  0  0  0  0  0  0  0  0  0  0
   64.1360   58.1270   31.7300 O   0  0  0  0  0  0  0  0  0  0  0  0
   64.6200   57.5580   30.6410 C   0  0  0  0  0  0  0  0  0  0  0  0
   65.8810   57.2190   30.9230 N   0  0  0  0  0  0  0  0  0  0  0  0
   64.1870   57.2300   29.3330 N   0  0  0  0  0  0  0  0  0  0  0  0
   65.0860   57.3240   28.1680 C   0  0  0  0  0  2  0  0  0  0  0  0
   64.0860   57.6020   27.0330 C   0  0  0  0  0  2  0  0  0  0  0  0
   63.0580   56.5290   27.3850 C   0  0  0  0  0  2  0  0  0  0  0  0
   62.8830   56.7690   28.8700 C   0  0  0  0  0  2  0  0  0  0  0  0
   66.3050   61.8480   34.2940 C   0  0  0  0  0  3  0  0  0  0  0  0
   66.7610   60.5280   34.5230 C   0  0  0  0  0  3  0  0  0  0  0  0
   67.4510   59.8910   33.4860 C   0  0  0  0  0  0  0  0  0  0  0  0
   67.6290   60.5810   32.3470 N   0  0  0  0  0  0  0  0  0  0  0  0
   67.1840   61.8520   32.1390 C   0  0  0  0  0  0  0  0  0  0  0  0
   66.5370   62.4390   33.1270 N   0  0  0  0  0  0  0  0  0  0  0  0
   67.5330   62.3280   30.8030 C   0  0  0  0  0  0  0  0  0  0  0  0
   66.6700   62.2070   29.7350 C   0  0  0  0  0  3  0  0  0  0  0  0
   66.9500   62.6390   28.4580 C   0  0  0  0  0  3  0  0  0  0  0  0
   68.1550   63.2370   28.1790 C   0  0  0  0  0  3  0  0  0  0  0  0
   69.0600   63.3860   29.2060 C   0  0  0  0  0  0  0  0  0  0  0  0
   70.2670   63.9870   28.9200 C   0  0  0  0  0  3  0  0  0  0  0  0
   71.2150   64.1660   29.9040 C   0  0  0  0  0  3  0  0  0  0  0  0
   70.8920   63.7130   31.1880 C   0  0  0  0  0  3  0  0  0  0  0  0
   69.6710   63.1190   31.4200 C   0  0  0  0  0  3  0  0  0  0  0  0
   68.7150   62.9320   30.4550 C   0  0  0  0  0  0  0  0  0  0  0  0
  1  2  1  0  0  0  0
  2  3  2  0  0  0  0
  4  3  1  0  0  0  0
  5  4  2  0  0  0  0
  6  5  1  0  0  0  0
  6  1  2  0  0  0  0
  7  8  2  0  0  0  0
  7  6  1  0  0  0  0
  9  8  1  0  0  0  0
 10 11  2  0  0  0  0
 10  9  1  0  0  0  0
 11  7  1  0  0  0  0
 12 10  1  0  0  0  0
 13 12  1  0  0  0  0
 14 15  1  0  0  0  0
 14 13  1  0  0  0  0
 15 16  1  0  0  0  0
 16 12  1  0  0  0  0
 17 18  1  0  0  0  0
 19  1  1  0  0  0  0
 19 18  2  0  0  0  0
 20 19  1  0  0  0  0
 21 20  2  0  0  0  0
 21 22  1  0  0  0  0
 22 17  2  0  0  0  0
 23 21  1  0  0  0  0
 24 23  2  0  0  0  0
 25 24  1  0  0  0  0
 26 25  2  0  0  0  0
 26 27  1  0  0  0  0
 27 32  1  0  0  0  0
 28 27  2  0  0  0  0
 28 29  1  0  0  0  0
 29 30  2  0  0  0  0
 30 31  1  0  0  0  0
 32 23  1  0  0  0  0
 32 31  2  0  0  0  0
M  END
>  <minimizedAffinity>
-6.57877636

$$$$

 OpenBabel03242509413D

 32 37  0  0  0  0  0  0  0  0999 V2000
   66.2870   60.2950   33.0590 C   0  0  0  0  0  0  0  0  0  0  0  0
   66.4340   60.9410   34.2720 C   0  0  0  0  0  3  0  0  0  0  0  0
   66.4400   60.2050   35.4690 C   0  0  0  0  0  3  0  0  0  0  0  0
   66.2960   58.8310   35.3980 C   0  0  0  0  0  3  0  0  0  0  0  0
   66.1480   58.1620   34.1940 C   0  0  0  0  0  3  0  0  0  0  0  0
   66.1470   58.9330   33.0410 C   0  0  0  0  0  0  0  0  0  0  0  0
   65.9860   58.2090   31.7850 C   0  0  0  0  0  0  0  0  0  0  0  0
   66.9070   57.3400   31.3280 N   0  0  0  0  0  0  0  0  0  0  0  0
   66.5570   56.8080   30.1910 O   0  0  0  0  0  0  0  0  0  0  0  0
   65.3820   57.3120   29.8570 C   0  0  0  0  0  0  0  0  0  0  0  0
   65.0470   58.1600   30.8320 N   0  0  0  0  0  0  0  0  0  0  0  0
   64.4410   57.2010   28.8060 N   0  0  0  0  0  0  0  0  0  0  0  0
   62.9880   57.2530   29.0520 C   0  0  0  0  0  2  0  0  0  0  0  0
   62.4500   56.4060   27.8870 C   0  0  0  0  0  2  0  0  0  0  0  0
   63.2700   57.0380   26.7640 C   0  0  0  0  0  2  0  0  0  0  0  0
   64.6570   57.0240   27.3740 C   0  0  0  0  0  2  0  0  0  0  0  0
   65.2650   62.4010   30.1050 C   0  0  0  0  0  3  0  0  0  0  0  0
   65.1240   61.5820   31.2510 C   0  0  0  0  0  3  0  0  0  0  0  0
   66.2950   61.1380   31.8780 C   0  0  0  0  0  0  0  0  0  0  0  0
   67.4660   61.5220   31.3430 N   0  0  0  0  0  0  0  0  0  0  0  0
   67.5870   62.3110   30.2390 C   0  0  0  0  0  0  0  0  0  0  0  0
   66.4750   62.7220   29.6600 N   0  0  0  0  0  0  0  0  0  0  0  0
   68.9870   62.5520   29.9050 C   0  0  0  0  0  0  0  0  0  0  0  0
   69.9070   61.5300   29.8240 C   0  0  0  0  0  3  0  0  0  0  0  0
   71.2370   61.7040   29.5140 C   0  0  0  0  0  3  0  0  0  0  0  0
   71.7290   62.9620   29.2600 C   0  0  0  0  0  3  0  0  0  0  0  0
   70.8580   64.0260   29.3260 C   0  0  0  0  0  0  0  0  0  0  0  0
   71.3560   65.2850   29.0700 C   0  0  0  0  0  3  0  0  0  0  0  0
   70.5350   66.3910   29.1210 C   0  0  0  0  0  3  0  0  0  0  0  0
   69.1910   66.1710   29.4400 C   0  0  0  0  0  3  0  0  0  0  0  0
   68.7440   64.8910   29.6860 C   0  0  0  0  0  3  0  0  0  0  0  0
   69.5440   63.7790   29.6410 C   0  0  0  0  0  0  0  0  0  0  0  0
  1  2  1  0  0  0  0
  2  3  2  0  0  0  0
  4  3  1  0  0  0  0
  5  4  2  0  0  0  0
  6  1  2  0  0  0  0
  6  5  1  0  0  0  0
  7  6  1  0  0  0  0
  8  7  2  0  0  0  0
  9  8  1  0  0  0  0
 10  9  1  0  0  0  0
 10 11  2  0  0  0  0
 11  7  1  0  0  0  0
 12 13  1  0  0  0  0
 12 10  1  0  0  0  0
 14 13  1  0  0  0  0
 15 16  1  0  0  0  0
 15 14  1  0  0  0  0
 16 12  1  0  0  0  0
 17 18  1  0  0  0  0
 18 19  2  0  0  0  0
 19  1  1  0  0  0  0
 20 19  1  0  0  0  0
 21 20  2  0  0  0  0
 22 17  2  0  0  0  0
 22 21  1  0  0  0  0
 23 21  1  0  0  0  0
 24 23  1  0  0  0  0
 25 24  2  0  0  0  0
 26 27  2  0  0  0  0
 26 25  1  0  0  0  0
 27 32  1  0  0  0  0
 28 29  2  0  0  0  0
 28 27  1  0  0  0  0
 29 30  1  0  0  0  0
 30 31  2  0  0  0  0
 32 31  1  0  0  0  0
 32 23  2  0  0  0  0
M  END
>  <minimizedAffinity>
-6.55839682

$$$$

 OpenBabel03242509413D

 32 37  0  0  0  0  0  0  0  0999 V2000
   62.8690   63.1270   29.8930 C   0  0  0  0  0  0  0  0  0  0  0  0
   61.9990   62.7050   28.9050 C   0  0  0  0  0  3  0  0  0  0  0  0
   60.7590   63.3440   28.7340 C   0  0  0  0  0  3  0  0  0  0  0  0
   60.4390   64.3960   29.5750 C   0  0  0  0  0  3  0  0  0  0  0  0
   61.2950   64.8370   30.5710 C   0  0  0  0  0  3  0  0  0  0  0  0
   62.5060   64.1730   30.6990 C   0  0  0  0  0  0  0  0  0  0  0  0
   63.3900   64.6500   31.7570 C   0  0  0  0  0  0  0  0  0  0  0  0
   64.1840   65.7280   31.6040 N   0  0  0  0  0  0  0  0  0  0  0  0
   64.8850   65.9740   32.6740 O   0  0  0  0  0  0  0  0  0  0  0  0
   64.5750   65.0610   33.5770 C   0  0  0  0  0  0  0  0  0  0  0  0
   63.6680   64.2630   33.0080 N   0  0  0  0  0  0  0  0  0  0  0  0
   64.9270   64.7200   34.9050 N   0  0  0  0  0  0  0  0  0  0  0  0
   63.9360   64.1960   35.8630 C   0  0  0  0  0  2  0  0  0  0  0  0
   64.5270   64.6680   37.2020 C   0  0  0  0  0  2  0  0  0  0  0  0
   65.9730   64.2370   36.9640 C   0  0  0  0  0  2  0  0  0  0  0  0
   66.2190   64.7990   35.5790 C   0  0  0  0  0  2  0  0  0  0  0  0
   65.5160   60.5430   30.6110 C   0  0  0  0  0  3  0  0  0  0  0  0
   64.2340   61.1410   30.5760 C   0  0  0  0  0  3  0  0  0  0  0  0
   64.1260   62.4080   29.9910 C   0  0  0  0  0  0  0  0  0  0  0  0
   65.2490   62.9640   29.5080 N   0  0  0  0  0  0  0  0  0  0  0  0
   66.4780   62.3770   29.5480 C   0  0  0  0  0  0  0  0  0  0  0  0
   66.5630   61.1820   30.1010 N   0  0  0  0  0  0  0  0  0  0  0  0
   67.4970   63.2290   28.9420 C   0  0  0  0  0  0  0  0  0  0  0  0
   67.1760   64.3790   28.2560 C   0  0  0  0  0  3  0  0  0  0  0  0
   68.0980   65.2160   27.6670 C   0  0  0  0  0  3  0  0  0  0  0  0
   69.4390   64.9280   27.7420 C   0  0  0  0  0  3  0  0  0  0  0  0
   69.8240   63.7900   28.4150 C   0  0  0  0  0  0  0  0  0  0  0  0
   71.1700   63.5070   28.4870 C   0  0  0  0  0  3  0  0  0  0  0  0
   71.6190   62.3830   29.1470 C   0  0  0  0  0  3  0  0  0  0  0  0
   70.6500   61.5600   29.7300 C   0  0  0  0  0  3  0  0  0  0  0  0
   69.3170   61.8890   29.6300 C   0  0  0  0  0  3  0  0  0  0  0  0
   68.8510   63.0010   28.9780 C   0  0  0  0  0  0  0  0  0  0  0  0
  1 19  1  0  0  0  0
  1  6  1  0  0  0  0
  2  1  2  0  0  0  0
  3  2  1  0  0  0  0
  3  4  2  0  0  0  0
  4  5  1  0  0  0  0
  5  6  2  0  0  0  0
  6  7  1  0  0  0  0
  7 11  1  0  0  0  0
  8  7  2  0  0  0  0
  8  9  1  0  0  0  0
  9 10  1  0  0  0  0
 10 12  1  0  0  0  0
 11 10  2  0  0  0  0
 12 16  1  0  0  0  0
 12 13  1  0  0  0  0
 13 14  1  0  0  0  0
 15 14  1  0  0  0  0
 16 15  1  0  0  0  0
 18 17  1  0  0  0  0
 19 18  2  0  0  0  0
 20 21  2  0  0  0  0
 20 19  1  0  0  0  0
 21 22  1  0  0  0  0
 22 17  2  0  0  0  0
 23 32  1  0  0  0  0
 23 21  1  0  0  0  0
 24 23  2  0  0  0  0
 25 26  2  0  0  0  0
 25 24  1  0  0  0  0
 26 27  1  0  0  0  0
 27 28  2  0  0  0  0
 27 32  1  0  0  0  0
 28 29  1  0  0  0  0
 29 30  2  0  0  0  0
 31 30  1  0  0  0  0
 32 31  2  0  0  0  0
M  END
>  <minimizedAffinity>
-6.46215916

$$$$
