
 OpenBabel03242509313D

 32 37  0  0  0  0  0  0  0  0999 V2000
   62.4010   56.9200   28.2590 C   0  0  0  0  0  3  0  0  0  0  0  0
   62.6330   56.9720   26.8660 C   0  0  0  0  0  0  0  0  0  0  0  0
   63.9690   57.1070   26.4820 C   0  0  0  0  0  3  0  0  0  0  0  0
   64.9410   57.1780   27.4230 N   0  0  0  0  0  0  0  0  0  0  0  0
   64.6750   57.1240   28.7210 C   0  0  0  0  0  0  0  0  0  0  0  0
   63.3990   56.9940   29.1590 N   0  0  0  0  0  0  0  0  0  0  0  0
   61.4510   56.8760   26.0490 C   0  0  0  0  0  0  0  0  0  0  0  0
   60.8530   55.6110   26.0980 C   0  0  0  0  0  3  0  0  0  0  0  0
   59.7120   55.2950   25.3950 C   0  0  0  0  0  3  0  0  0  0  0  0
   59.1130   56.2660   24.5950 C   0  0  0  0  0  3  0  0  0  0  0  0
   59.7100   57.5160   24.5510 C   0  0  0  0  0  0  0  0  0  0  0  0
   59.1990   58.5380   23.7940 C   0  0  0  0  0  3  0  0  0  0  0  0
   59.7840   59.7920   23.7410 C   0  0  0  0  0  3  0  0  0  0  0  0
   60.9310   60.0310   24.4760 C   0  0  0  0  0  3  0  0  0  0  0  0
   61.4620   59.0140   25.2460 C   0  0  0  0  0  3  0  0  0  0  0  0
   60.8350   57.8050   25.2530 C   0  0  0  0  0  0  0  0  0  0  0  0
   65.8340   57.2090   29.6770 C   0  0  0  0  0  2  0  0  0  0  0  0
   65.7080   58.4590   30.5260 C   0  0  0  0  0  0  0  0  0  0  0  0
   65.7920   58.4580   31.9430 C   0  0  0  0  0  3  0  0  0  0  0  0
   65.5650   60.2260   32.2650 S   0  0  0  0  0  0  0  0  0  0  0  0
   65.4000   60.6620   30.4880 C   0  0  0  0  0  0  0  0  0  0  0  0
   65.5130   59.5930   29.9110 N   0  0  0  0  0  0  0  0  0  0  0  0
   65.1810   62.1220   30.2290 C   0  0  0  0  0  0  0  0  0  0  0  0
   64.0810   62.8050   30.5970 N   0  0  0  0  0  0  0  0  0  0  0  0
   63.8980   64.1000   30.3620 C   0  0  0  0  0  3  0  0  0  0  0  0
   64.8340   64.8130   29.7220 N   0  0  0  0  0  0  0  0  0  0  0  0
   65.9660   64.2180   29.3160 C   0  0  0  0  0  0  0  0  0  0  0  0
   66.9300   64.9570   28.6550 C   0  0  0  0  0  3  0  0  0  0  0  0
   68.1160   64.3520   28.2240 C   0  0  0  0  0  3  0  0  0  0  0  0
   68.2390   62.9860   28.5080 C   0  0  0  0  0  3  0  0  0  0  0  0
   67.2570   62.2790   29.1690 C   0  0  0  0  0  3  0  0  0  0  0  0
   66.1100   62.8740   29.5820 C   0  0  0  0  0  0  0  0  0  0  0  0
  1  6  2  0  0  0  0
  2  1  1  0  0  0  0
  3  2  2  0  0  0  0
  3  4  1  0  0  0  0
  4  5  2  0  0  0  0
  5  6  1  0  0  0  0
  5 17  1  0  0  0  0
  7  8  1  0  0  0  0
  7  2  1  0  0  0  0
  9  8  2  0  0  0  0
 10  9  1  0  0  0  0
 11 10  2  0  0  0  0
 11 16  1  0  0  0  0
 12 11  1  0  0  0  0
 13 12  2  0  0  0  0
 13 14  1  0  0  0  0
 14 15  2  0  0  0  0
 15 16  1  0  0  0  0
 16  7  2  0  0  0  0
 17 18  1  0  0  0  0
 18 19  2  0  0  0  0
 19 20  1  0  0  0  0
 21 20  1  0  0  0  0
 22 21  2  0  0  0  0
 22 18  1  0  0  0  0
 23 21  1  0  0  0  0
 23 24  1  0  0  0  0
 25 24  2  0  0  0  0
 26 25  1  0  0  0  0
 27 32  1  0  0  0  0
 27 26  2  0  0  0  0
 28 27  1  0  0  0  0
 29 30  1  0  0  0  0
 29 28  2  0  0  0  0
 30 31  2  0  0  0  0
 31 32  1  0  0  0  0
 32 23  2  0  0  0  0
M  END
>  <minimizedAffinity>
-8.48767948

$$$$

 OpenBabel03242509313D

 32 37  0  0  0  0  0  0  0  0999 V2000
   60.2190   61.3580   26.6260 C   0  0  0  0  0  3  0  0  0  0  0  0
   59.9760   60.1720   27.3530 C   0  0  0  0  0  0  0  0  0  0  0  0
   59.7930   60.3340   28.7280 C   0  0  0  0  0  3  0  0  0  0  0  0
   59.8520   61.5710   29.2780 N   0  0  0  0  0  0  0  0  0  0  0  0
   60.0820   62.6580   28.5540 C   0  0  0  0  0  0  0  0  0  0  0  0
   60.2680   62.5670   27.2140 N   0  0  0  0  0  0  0  0  0  0  0  0
   59.9530   58.9680   26.5630 C   0  0  0  0  0  0  0  0  0  0  0  0
   58.8270   58.8760   25.7380 C   0  0  0  0  0  3  0  0  0  0  0  0
   58.6000   57.8100   24.8970 C   0  0  0  0  0  3  0  0  0  0  0  0
   59.5240   56.7680   24.8520 C   0  0  0  0  0  3  0  0  0  0  0  0
   60.6370   56.8650   25.6720 C   0  0  0  0  0  0  0  0  0  0  0  0
   61.6020   55.8930   25.7020 C   0  0  0  0  0  3  0  0  0  0  0  0
   62.7200   55.9760   26.5160 C   0  0  0  0  0  3  0  0  0  0  0  0
   62.8760   57.0800   27.3340 C   0  0  0  0  0  3  0  0  0  0  0  0
   61.9140   58.0720   27.3180 C   0  0  0  0  0  3  0  0  0  0  0  0
   60.8400   57.9260   26.4930 C   0  0  0  0  0  0  0  0  0  0  0  0
   60.1220   63.9810   29.2700 C   0  0  0  0  0  2  0  0  0  0  0  0
   61.3860   64.0740   30.1030 C   0  0  0  0  0  0  0  0  0  0  0  0
   61.5700   65.0170   31.1480 C   0  0  0  0  0  3  0  0  0  0  0  0
   63.2400   64.5620   31.6800 S   0  0  0  0  0  0  0  0  0  0  0  0
   63.4110   63.2160   30.4420 C   0  0  0  0  0  0  0  0  0  0  0  0
   62.3510   63.2370   29.8380 N   0  0  0  0  0  0  0  0  0  0  0  0
   64.7220   62.4910   30.4940 C   0  0  0  0  0  0  0  0  0  0  0  0
   65.0040   61.4880   31.3460 N   0  0  0  0  0  0  0  0  0  0  0  0
   66.1710   60.8530   31.3830 C   0  0  0  0  0  3  0  0  0  0  0  0
   67.1580   61.1950   30.5430 N   0  0  0  0  0  0  0  0  0  0  0  0
   66.9680   62.1840   29.6580 C   0  0  0  0  0  0  0  0  0  0  0  0
   67.9890   62.5340   28.7920 C   0  0  0  0  0  3  0  0  0  0  0  0
   67.8080   63.5650   27.8620 C   0  0  0  0  0  3  0  0  0  0  0  0
   66.5540   64.1870   27.8820 C   0  0  0  0  0  3  0  0  0  0  0  0
   65.5580   63.8130   28.7580 C   0  0  0  0  0  3  0  0  0  0  0  0
   65.7430   62.8130   29.6570 C   0  0  0  0  0  0  0  0  0  0  0  0
  1  6  2  0  0  0  0
  1  2  1  0  0  0  0
  2  3  2  0  0  0  0
  3  4  1  0  0  0  0
  5 17  1  0  0  0  0
  5  4  2  0  0  0  0
  6  5  1  0  0  0  0
  7  2  1  0  0  0  0
  8  7  2  0  0  0  0
  9  8  1  0  0  0  0
 10  9  2  0  0  0  0
 10 11  1  0  0  0  0
 11 12  2  0  0  0  0
 11 16  1  0  0  0  0
 12 13  1  0  0  0  0
 13 14  2  0  0  0  0
 15 14  1  0  0  0  0
 16  7  1  0  0  0  0
 16 15  2  0  0  0  0
 17 18  1  0  0  0  0
 18 19  2  0  0  0  0
 19 20  1  0  0  0  0
 21 23  1  0  0  0  0
 21 20  1  0  0  0  0
 22 18  1  0  0  0  0
 22 21  2  0  0  0  0
 23 24  1  0  0  0  0
 24 25  2  0  0  0  0
 26 25  1  0  0  0  0
 27 26  2  0  0  0  0
 28 27  1  0  0  0  0
 29 30  1  0  0  0  0
 29 28  2  0  0  0  0
 30 31  2  0  0  0  0
 31 32  1  0  0  0  0
 32 27  1  0  0  0  0
 32 23  2  0  0  0  0
M  END
>  <minimizedAffinity>
-7.8927474

$$$$

 OpenBabel03242509313D

 32 37  0  0  0  0  0  0  0  0999 V2000
   64.5720   61.3830   30.2960 C   0  0  0  0  0  3  0  0  0  0  0  0
   65.9140   61.5020   30.7210 C   0  0  0  0  0  0  0  0  0  0  0  0
   66.5800   60.2980   30.9610 C   0  0  0  0  0  3  0  0  0  0  0  0
   65.9350   59.1200   30.7820 N   0  0  0  0  0  0  0  0  0  0  0  0
   64.6730   59.0580   30.3810 C   0  0  0  0  0  0  0  0  0  0  0  0
   63.9710   60.1910   30.1310 N   0  0  0  0  0  0  0  0  0  0  0  0
   66.3960   62.8540   30.8400 C   0  0  0  0  0  0  0  0  0  0  0  0
   66.3460   63.3390   32.1520 C   0  0  0  0  0  3  0  0  0  0  0  0
   66.7580   64.6070   32.4970 C   0  0  0  0  0  3  0  0  0  0  0  0
   67.2480   65.4580   31.5090 C   0  0  0  0  0  3  0  0  0  0  0  0
   67.2930   64.9720   30.2120 C   0  0  0  0  0  0  0  0  0  0  0  0
   67.7570   65.7300   29.1690 C   0  0  0  0  0  3  0  0  0  0  0  0
   67.8090   65.2580   27.8680 C   0  0  0  0  0  3  0  0  0  0  0  0
   67.3770   63.9720   27.6020 C   0  0  0  0  0  3  0  0  0  0  0  0
   66.9050   63.1900   28.6390 C   0  0  0  0  0  3  0  0  0  0  0  0
   66.8830   63.7180   29.8950 C   0  0  0  0  0  0  0  0  0  0  0  0
   64.0580   57.6940   30.2120 C   0  0  0  0  0  2  0  0  0  0  0  0
   63.9050   57.3820   28.7360 C   0  0  0  0  0  0  0  0  0  0  0  0
   64.9990   57.2810   27.8370 C   0  0  0  0  0  3  0  0  0  0  0  0
   64.1050   56.8980   26.3090 S   0  0  0  0  0  0  0  0  0  0  0  0
   62.4530   56.9350   27.1100 C   0  0  0  0  0  0  0  0  0  0  0  0
   62.6980   57.1950   28.2770 N   0  0  0  0  0  0  0  0  0  0  0  0
   61.3090   56.6570   26.1810 C   0  0  0  0  0  0  0  0  0  0  0  0
   60.6760   55.4740   26.0870 N   0  0  0  0  0  0  0  0  0  0  0  0
   59.6630   55.2380   25.2600 C   0  0  0  0  0  3  0  0  0  0  0  0
   59.2080   56.2040   24.4500 N   0  0  0  0  0  0  0  0  0  0  0  0
   59.7780   57.4180   24.4730 C   0  0  0  0  0  0  0  0  0  0  0  0
   59.3070   58.4130   23.6360 C   0  0  0  0  0  3  0  0  0  0  0  0
   59.8900   59.6850   23.6470 C   0  0  0  0  0  3  0  0  0  0  0  0
   60.9510   59.8590   24.5450 C   0  0  0  0  0  3  0  0  0  0  0  0
   61.3960   58.8450   25.3650 C   0  0  0  0  0  3  0  0  0  0  0  0
   60.8250   57.6140   25.3470 C   0  0  0  0  0  0  0  0  0  0  0  0
  1  2  1  0  0  0  0
  2  7  1  0  0  0  0
  2  3  2  0  0  0  0
  4  3  1  0  0  0  0
  5  4  2  0  0  0  0
  6  1  2  0  0  0  0
  6  5  1  0  0  0  0
  7  8  1  0  0  0  0
  8  9  2  0  0  0  0
 10  9  1  0  0  0  0
 11 10  2  0  0  0  0
 12 11  1  0  0  0  0
 13 12  2  0  0  0  0
 14 13  1  0  0  0  0
 14 15  2  0  0  0  0
 15 16  1  0  0  0  0
 16 11  1  0  0  0  0
 16  7  2  0  0  0  0
 17  5  1  0  0  0  0
 18 17  1  0  0  0  0
 19 18  2  0  0  0  0
 20 21  1  0  0  0  0
 20 19  1  0  0  0  0
 21 22  2  0  0  0  0
 22 18  1  0  0  0  0
 23 21  1  0  0  0  0
 24 23  1  0  0  0  0
 25 24  2  0  0  0  0
 26 27  2  0  0  0  0
 26 25  1  0  0  0  0
 27 32  1  0  0  0  0
 28 29  2  0  0  0  0
 28 27  1  0  0  0  0
 29 30  1  0  0  0  0
 30 31  2  0  0  0  0
 32 31  1  0  0  0  0
 32 23  2  0  0  0  0
M  END
>  <minimizedAffinity>
-7.79361582

$$$$

 OpenBabel03242509313D

 32 37  0  0  0  0  0  0  0  0999 V2000
   65.1190   57.1190   29.2400 C   0  0  0  0  0  3  0  0  0  0  0  0
   63.8310   57.6630   29.4400 C   0  0  0  0  0  0  0  0  0  0  0  0
   63.6030   58.2280   30.6970 C   0  0  0  0  0  3  0  0  0  0  0  0
   64.5870   58.2290   31.6280 N   0  0  0  0  0  0  0  0  0  0  0  0
   65.7830   57.7060   31.3940 C   0  0  0  0  0  0  0  0  0  0  0  0
   66.0670   57.1420   30.1940 N   0  0  0  0  0  0  0  0  0  0  0  0
   62.9430   57.5540   28.3110 C   0  0  0  0  0  0  0  0  0  0  0  0
   63.2340   56.4590   27.4900 C   0  0  0  0  0  3  0  0  0  0  0  0
   62.5130   56.1630   26.3540 C   0  0  0  0  0  3  0  0  0  0  0  0
   61.4430   56.9790   25.9940 C   0  0  0  0  0  3  0  0  0  0  0  0
   61.1610   58.0620   26.8110 C   0  0  0  0  0  0  0  0  0  0  0  0
   60.1300   58.9240   26.5420 C   0  0  0  0  0  3  0  0  0  0  0  0
   59.8360   60.0110   27.3500 C   0  0  0  0  0  3  0  0  0  0  0  0
   60.6080   60.2420   28.4730 C   0  0  0  0  0  3  0  0  0  0  0  0
   61.6520   59.3840   28.7630 C   0  0  0  0  0  3  0  0  0  0  0  0
   61.8850   58.3340   27.9260 C   0  0  0  0  0  0  0  0  0  0  0  0
   66.8020   57.7660   32.5000 C   0  0  0  0  0  2  0  0  0  0  0  0
   67.4100   59.1550   32.5600 C   0  0  0  0  0  0  0  0  0  0  0  0
   67.4440   59.9460   33.7380 C   0  0  0  0  0  3  0  0  0  0  0  0
   68.2850   61.4150   33.0950 S   0  0  0  0  0  0  0  0  0  0  0  0
   68.4490   60.7400   31.3950 C   0  0  0  0  0  0  0  0  0  0  0  0
   67.9300   59.6380   31.4660 N   0  0  0  0  0  0  0  0  0  0  0  0
   69.1320   61.6600   30.4280 C   0  0  0  0  0  0  0  0  0  0  0  0
   70.4640   61.8340   30.3530 N   0  0  0  0  0  0  0  0  0  0  0  0
   71.0580   62.6520   29.4920 C   0  0  0  0  0  3  0  0  0  0  0  0
   70.3310   63.3710   28.6250 N   0  0  0  0  0  0  0  0  0  0  0  0
   68.9950   63.2630   28.6250 C   0  0  0  0  0  0  0  0  0  0  0  0
   68.2470   64.0060   27.7290 C   0  0  0  0  0  3  0  0  0  0  0  0
   66.8510   63.9060   27.7160 C   0  0  0  0  0  3  0  0  0  0  0  0
   66.2960   63.0240   28.6510 C   0  0  0  0  0  3  0  0  0  0  0  0
   67.0710   62.2990   29.5300 C   0  0  0  0  0  3  0  0  0  0  0  0
   68.4240   62.4030   29.5370 C   0  0  0  0  0  0  0  0  0  0  0  0
  1  2  1  0  0  0  0
  1  6  2  0  0  0  0
  2  3  2  0  0  0  0
  3  4  1  0  0  0  0
  5  4  2  0  0  0  0
  5 17  1  0  0  0  0
  6  5  1  0  0  0  0
  7  2  1  0  0  0  0
  8  7  2  0  0  0  0
  9  8  1  0  0  0  0
 10  9  2  0  0  0  0
 10 11  1  0  0  0  0
 11 16  1  0  0  0  0
 12 11  2  0  0  0  0
 12 13  1  0  0  0  0
 13 14  2  0  0  0  0
 14 15  1  0  0  0  0
 16  7  1  0  0  0  0
 16 15  2  0  0  0  0
 17 18  1  0  0  0  0
 18 19  2  0  0  0  0
 20 19  1  0  0  0  0
 21 22  2  0  0  0  0
 21 20  1  0  0  0  0
 22 18  1  0  0  0  0
 23 21  1  0  0  0  0
 24 23  1  0  0  0  0
 25 24  2  0  0  0  0
 26 25  1  0  0  0  0
 27 26  2  0  0  0  0
 27 32  1  0  0  0  0
 28 27  1  0  0  0  0
 29 28  2  0  0  0  0
 29 30  1  0  0  0  0
 30 31  2  0  0  0  0
 31 32  1  0  0  0  0
 32 23  2  0  0  0  0
M  END
>  <minimizedAffinity>
-7.77879763

$$$$

 OpenBabel03242509313D

 32 37  0  0  0  0  0  0  0  0999 V2000
   63.4610   56.8850   29.1490 C   0  0  0  0  0  3  0  0  0  0  0  0
   64.7440   57.4400   28.9450 C   0  0  0  0  0  0  0  0  0  0  0  0
   65.1950   57.4490   27.6230 C   0  0  0  0  0  3  0  0  0  0  0  0
   64.4120   56.9460   26.6370 N   0  0  0  0  0  0  0  0  0  0  0  0
   63.2120   56.4360   26.8770 C   0  0  0  0  0  0  0  0  0  0  0  0
   62.7180   56.3980   28.1390 N   0  0  0  0  0  0  0  0  0  0  0  0
   65.3970   57.9160   30.1370 C   0  0  0  0  0  0  0  0  0  0  0  0
   66.1030   56.9150   30.8120 C   0  0  0  0  0  3  0  0  0  0  0  0
   66.8020   57.1470   31.9760 C   0  0  0  0  0  3  0  0  0  0  0  0
   66.8170   58.4300   32.5190 C   0  0  0  0  0  3  0  0  0  0  0  0
   66.1140   59.4170   31.8460 C   0  0  0  0  0  0  0  0  0  0  0  0
   66.0650   60.7100   32.2980 C   0  0  0  0  0  3  0  0  0  0  0  0
   65.3680   61.7060   31.6360 C   0  0  0  0  0  3  0  0  0  0  0  0
   64.6900   61.3930   30.4730 C   0  0  0  0  0  3  0  0  0  0  0  0
   64.7260   60.0960   29.9990 C   0  0  0  0  0  3  0  0  0  0  0  0
   65.4320   59.1650   30.6990 C   0  0  0  0  0  0  0  0  0  0  0  0
   62.4280   55.9100   25.7050 C   0  0  0  0  0  2  0  0  0  0  0  0
   61.0960   56.6290   25.6170 C   0  0  0  0  0  0  0  0  0  0  0  0
   59.8600   55.9670   25.3890 C   0  0  0  0  0  3  0  0  0  0  0  0
   58.7420   57.3910   25.4100 S   0  0  0  0  0  0  0  0  0  0  0  0
   60.0840   58.6080   25.7130 C   0  0  0  0  0  0  0  0  0  0  0  0
   61.0940   57.9250   25.7610 N   0  0  0  0  0  0  0  0  0  0  0  0
   59.6180   60.0290   25.8130 C   0  0  0  0  0  0  0  0  0  0  0  0
   58.8600   60.6490   24.8900 N   0  0  0  0  0  0  0  0  0  0  0  0
   58.4530   61.9100   24.9900 C   0  0  0  0  0  3  0  0  0  0  0  0
   58.7910   62.6520   26.0540 N   0  0  0  0  0  0  0  0  0  0  0  0
   59.5450   62.1180   27.0260 C   0  0  0  0  0  0  0  0  0  0  0  0
   59.8920   62.8860   28.1230 C   0  0  0  0  0  3  0  0  0  0  0  0
   60.6790   62.3460   29.1470 C   0  0  0  0  0  3  0  0  0  0  0  0
   61.0700   61.0120   28.9730 C   0  0  0  0  0  3  0  0  0  0  0  0
   60.7060   60.2750   27.8660 C   0  0  0  0  0  3  0  0  0  0  0  0
   59.9440   60.8080   26.8780 C   0  0  0  0  0  0  0  0  0  0  0  0
  2  1  1  0  0  0  0
  2  7  1  0  0  0  0
  3  2  2  0  0  0  0
  4  5  2  0  0  0  0
  4  3  1  0  0  0  0
  5  6  1  0  0  0  0
  6  1  2  0  0  0  0
  7 16  2  0  0  0  0
  7  8  1  0  0  0  0
  8  9  2  0  0  0  0
  9 10  1  0  0  0  0
 11 12  1  0  0  0  0
 11 10  2  0  0  0  0
 13 12  2  0  0  0  0
 14 13  1  0  0  0  0
 15 14  2  0  0  0  0
 15 16  1  0  0  0  0
 16 11  1  0  0  0  0
 17  5  1  0  0  0  0
 18 17  1  0  0  0  0
 18 22  1  0  0  0  0
 19 20  1  0  0  0  0
 19 18  2  0  0  0  0
 20 21  1  0  0  0  0
 21 22  2  0  0  0  0
 21 23  1  0  0  0  0
 23 32  1  0  0  0  0
 24 25  1  0  0  0  0
 24 23  2  0  0  0  0
 25 26  2  0  0  0  0
 26 27  1  0  0  0  0
 27 28  1  0  0  0  0
 28 29  2  0  0  0  0
 30 29  1  0  0  0  0
 31 30  2  0  0  0  0
 32 27  2  0  0  0  0
 32 31  1  0  0  0  0
M  END
>  <minimizedAffinity>
-7.74069357

$$$$

 OpenBabel03242509313D

 32 37  0  0  0  0  0  0  0  0999 V2000
   66.7780   56.5690   31.7930 C   0  0  0  0  0  3  0  0  0  0  0  0
   67.1530   57.1700   33.0150 C   0  0  0  0  0  0  0  0  0  0  0  0
   66.3730   58.2550   33.4190 C   0  0  0  0  0  3  0  0  0  0  0  0
   65.3330   58.6650   32.6530 N   0  0  0  0  0  0  0  0  0  0  0  0
   65.0170   58.0680   31.5120 C   0  0  0  0  0  0  0  0  0  0  0  0
   65.7360   57.0090   31.0640 N   0  0  0  0  0  0  0  0  0  0  0  0
   68.2900   56.5680   33.6640 C   0  0  0  0  0  0  0  0  0  0  0  0
   67.9560   55.4360   34.4150 C   0  0  0  0  0  3  0  0  0  0  0  0
   68.8860   54.7030   35.1180 C   0  0  0  0  0  3  0  0  0  0  0  0
   70.2230   55.0930   35.0910 C   0  0  0  0  0  3  0  0  0  0  0  0
   70.5470   56.2150   34.3470 C   0  0  0  0  0  0  0  0  0  0  0  0
   71.8330   56.6800   34.2570 C   0  0  0  0  0  3  0  0  0  0  0  0
   72.1720   57.8010   33.5170 C   0  0  0  0  0  3  0  0  0  0  0  0
   71.1800   58.4840   32.8380 C   0  0  0  0  0  3  0  0  0  0  0  0
   69.8760   58.0320   32.9150 C   0  0  0  0  0  3  0  0  0  0  0  0
   69.6130   56.9220   33.6610 C   0  0  0  0  0  0  0  0  0  0  0  0
   63.8390   58.6050   30.7440 C   0  0  0  0  0  2  0  0  0  0  0  0
   63.8280   58.0150   29.3460 C   0  0  0  0  0  0  0  0  0  0  0  0
   65.0040   57.6550   28.6370 C   0  0  0  0  0  3  0  0  0  0  0  0
   64.2600   57.0410   27.1040 S   0  0  0  0  0  0  0  0  0  0  0  0
   62.5380   57.3610   27.6560 C   0  0  0  0  0  0  0  0  0  0  0  0
   62.6700   57.8300   28.7750 N   0  0  0  0  0  0  0  0  0  0  0  0
   61.4880   56.9870   26.6530 C   0  0  0  0  0  0  0  0  0  0  0  0
   61.1270   55.7240   26.3640 N   0  0  0  0  0  0  0  0  0  0  0  0
   60.1940   55.4040   25.4720 C   0  0  0  0  0  3  0  0  0  0  0  0
   59.5470   56.3610   24.7930 N   0  0  0  0  0  0  0  0  0  0  0  0
   59.8400   57.6510   25.0140 C   0  0  0  0  0  0  0  0  0  0  0  0
   59.1710   58.6360   24.3120 C   0  0  0  0  0  3  0  0  0  0  0  0
   59.4640   59.9870   24.5300 C   0  0  0  0  0  3  0  0  0  0  0  0
   60.4560   60.2470   25.4830 C   0  0  0  0  0  3  0  0  0  0  0  0
   61.1040   59.2400   26.1660 C   0  0  0  0  0  3  0  0  0  0  0  0
   60.8140   57.9330   25.9470 C   0  0  0  0  0  0  0  0  0  0  0  0
  1  2  1  0  0  0  0
  2  3  2  0  0  0  0
  2  7  1  0  0  0  0
  4  3  1  0  0  0  0
  5  4  2  0  0  0  0
  6  5  1  0  0  0  0
  6  1  2  0  0  0  0
  7  8  1  0  0  0  0
  8  9  2  0  0  0  0
 10  9  1  0  0  0  0
 11 10  2  0  0  0  0
 12 11  1  0  0  0  0
 13 12  2  0  0  0  0
 14 15  2  0  0  0  0
 14 13  1  0  0  0  0
 15 16  1  0  0  0  0
 16  7  2  0  0  0  0
 16 11  1  0  0  0  0
 17  5  1  0  0  0  0
 18 17  1  0  0  0  0
 19 18  2  0  0  0  0
 20 21  1  0  0  0  0
 20 19  1  0  0  0  0
 21 22  2  0  0  0  0
 22 18  1  0  0  0  0
 23 21  1  0  0  0  0
 24 23  1  0  0  0  0
 25 24  2  0  0  0  0
 26 27  2  0  0  0  0
 26 25  1  0  0  0  0
 27 32  1  0  0  0  0
 28 29  2  0  0  0  0
 28 27  1  0  0  0  0
 29 30  1  0  0  0  0
 30 31  2  0  0  0  0
 32 31  1  0  0  0  0
 32 23  2  0  0  0  0
M  END
>  <minimizedAffinity>
-7.73985958

$$$$

 OpenBabel03242509313D

 32 37  0  0  0  0  0  0  0  0999 V2000
   63.5320   58.7230   30.7790 C   0  0  0  0  0  3  0  0  0  0  0  0
   63.6170   58.1100   29.5090 C   0  0  0  0  0  0  0  0  0  0  0  0
   64.7620   57.3440   29.2850 C   0  0  0  0  0  3  0  0  0  0  0  0
   65.7010   57.2270   30.2550 N   0  0  0  0  0  0  0  0  0  0  0  0
   65.5770   57.8210   31.4340 C   0  0  0  0  0  0  0  0  0  0  0  0
   64.4880   58.5790   31.7150 N   0  0  0  0  0  0  0  0  0  0  0  0
   62.5020   58.3680   28.6340 C   0  0  0  0  0  0  0  0  0  0  0  0
   61.7690   59.5010   29.0020 C   0  0  0  0  0  3  0  0  0  0  0  0
   60.6620   59.9350   28.3060 C   0  0  0  0  0  3  0  0  0  0  0  0
   60.2410   59.2250   27.1840 C   0  0  0  0  0  3  0  0  0  0  0  0
   60.9710   58.1030   26.8260 C   0  0  0  0  0  0  0  0  0  0  0  0
   60.6390   57.3370   25.7390 C   0  0  0  0  0  3  0  0  0  0  0  0
   61.3590   56.2140   25.3690 C   0  0  0  0  0  3  0  0  0  0  0  0
   62.4590   55.8430   26.1200 C   0  0  0  0  0  3  0  0  0  0  0  0
   62.8120   56.6020   27.2190 C   0  0  0  0  0  3  0  0  0  0  0  0
   62.0600   57.6950   27.5260 C   0  0  0  0  0  0  0  0  0  0  0  0
   66.6790   57.6190   32.4390 C   0  0  0  0  0  2  0  0  0  0  0  0
   67.4880   58.8950   32.5750 C   0  0  0  0  0  0  0  0  0  0  0  0
   67.8220   59.4830   33.8230 C   0  0  0  0  0  3  0  0  0  0  0  0
   68.7610   60.9190   33.2430 S   0  0  0  0  0  0  0  0  0  0  0  0
   68.5550   60.5010   31.4660 C   0  0  0  0  0  0  0  0  0  0  0  0
   67.8960   59.4740   31.4810 N   0  0  0  0  0  0  0  0  0  0  0  0
   69.2070   61.4690   30.5250 C   0  0  0  0  0  0  0  0  0  0  0  0
   70.5340   61.6810   30.4490 N   0  0  0  0  0  0  0  0  0  0  0  0
   71.1010   62.5420   29.6100 C   0  0  0  0  0  3  0  0  0  0  0  0
   70.3500   63.2670   28.7700 N   0  0  0  0  0  0  0  0  0  0  0  0
   69.0160   63.1230   28.7740 C   0  0  0  0  0  0  0  0  0  0  0  0
   68.2440   63.8730   27.9050 C   0  0  0  0  0  3  0  0  0  0  0  0
   66.8510   63.7360   27.8960 C   0  0  0  0  0  3  0  0  0  0  0  0
   66.3260   62.8100   28.8060 C   0  0  0  0  0  3  0  0  0  0  0  0
   67.1250   62.0790   29.6580 C   0  0  0  0  0  3  0  0  0  0  0  0
   68.4740   62.2200   29.6610 C   0  0  0  0  0  0  0  0  0  0  0  0
  1  6  2  0  0  0  0
  2  1  1  0  0  0  0
  3  2  2  0  0  0  0
  3  4  1  0  0  0  0
  4  5  2  0  0  0  0
  5  6  1  0  0  0  0
  5 17  1  0  0  0  0
  7  8  1  0  0  0  0
  7  2  1  0  0  0  0
  9  8  2  0  0  0  0
 10  9  1  0  0  0  0
 11 10  2  0  0  0  0
 11 16  1  0  0  0  0
 12 11  1  0  0  0  0
 13 12  2  0  0  0  0
 13 14  1  0  0  0  0
 14 15  2  0  0  0  0
 15 16  1  0  0  0  0
 16  7  2  0  0  0  0
 17 18  1  0  0  0  0
 18 19  2  0  0  0  0
 20 19  1  0  0  0  0
 21 22  2  0  0  0  0
 21 20  1  0  0  0  0
 22 18  1  0  0  0  0
 23 21  1  0  0  0  0
 24 23  1  0  0  0  0
 25 24  2  0  0  0  0
 26 27  2  0  0  0  0
 26 25  1  0  0  0  0
 27 32  1  0  0  0  0
 28 27  1  0  0  0  0
 29 28  2  0  0  0  0
 29 30  1  0  0  0  0
 30 31  2  0  0  0  0
 31 32  1  0  0  0  0
 32 23  2  0  0  0  0
M  END
>  <minimizedAffinity>
-7.73881245

$$$$

 OpenBabel03242509313D

 32 37  0  0  0  0  0  0  0  0999 V2000
   67.0580   56.6410   31.9870 C   0  0  0  0  0  3  0  0  0  0  0  0
   67.5760   57.4140   33.0500 C   0  0  0  0  0  0  0  0  0  0  0  0
   66.8380   58.5500   33.3860 C   0  0  0  0  0  3  0  0  0  0  0  0
   65.7030   58.8460   32.7060 N   0  0  0  0  0  0  0  0  0  0  0  0
   65.2540   58.0890   31.7150 C   0  0  0  0  0  0  0  0  0  0  0  0
   65.9250   56.9720   31.3400 N   0  0  0  0  0  0  0  0  0  0  0  0
   68.7950   56.9100   33.6300 C   0  0  0  0  0  0  0  0  0  0  0  0
   69.9420   57.3390   32.9530 C   0  0  0  0  0  3  0  0  0  0  0  0
   71.2150   56.9780   33.3350 C   0  0  0  0  0  3  0  0  0  0  0  0
   71.3850   56.1490   34.4420 C   0  0  0  0  0  3  0  0  0  0  0  0
   70.2450   55.7270   35.1070 C   0  0  0  0  0  0  0  0  0  0  0  0
   70.3070   54.9100   36.2060 C   0  0  0  0  0  3  0  0  0  0  0  0
   69.1760   54.4810   36.8800 C   0  0  0  0  0  3  0  0  0  0  0  0
   67.9320   54.8870   36.4340 C   0  0  0  0  0  3  0  0  0  0  0  0
   67.8480   55.7110   35.3280 C   0  0  0  0  0  3  0  0  0  0  0  0
   69.0000   56.0960   34.7130 C   0  0  0  0  0  0  0  0  0  0  0  0
   63.9800   58.5110   31.0330 C   0  0  0  0  0  2  0  0  0  0  0  0
   63.9770   58.0120   29.6010 C   0  0  0  0  0  0  0  0  0  0  0  0
   65.1580   57.7370   28.8630 C   0  0  0  0  0  3  0  0  0  0  0  0
   64.4220   57.1970   27.2990 S   0  0  0  0  0  0  0  0  0  0  0  0
   62.6950   57.4230   27.8800 C   0  0  0  0  0  0  0  0  0  0  0  0
   62.8210   57.8250   29.0260 N   0  0  0  0  0  0  0  0  0  0  0  0
   61.6500   57.0800   26.8620 C   0  0  0  0  0  0  0  0  0  0  0  0
   61.3840   55.8310   26.4360 N   0  0  0  0  0  0  0  0  0  0  0  0
   60.4550   55.5380   25.5320 C   0  0  0  0  0  3  0  0  0  0  0  0
   59.7120   56.5080   24.9820 N   0  0  0  0  0  0  0  0  0  0  0  0
   59.9050   57.7850   25.3450 C   0  0  0  0  0  0  0  0  0  0  0  0
   59.1370   58.7840   24.7750 C   0  0  0  0  0  3  0  0  0  0  0  0
   59.3260   60.1210   25.1430 C   0  0  0  0  0  3  0  0  0  0  0  0
   60.3220   60.3530   26.1000 C   0  0  0  0  0  3  0  0  0  0  0  0
   61.0700   59.3330   26.6480 C   0  0  0  0  0  3  0  0  0  0  0  0
   60.8800   58.0390   26.2850 C   0  0  0  0  0  0  0  0  0  0  0  0
  1  2  1  0  0  0  0
  2  3  2  0  0  0  0
  2  7  1  0  0  0  0
  4  3  1  0  0  0  0
  5  4  2  0  0  0  0
  6  5  1  0  0  0  0
  6  1  2  0  0  0  0
  7 16  1  0  0  0  0
  8  9  1  0  0  0  0
  8  7  2  0  0  0  0
  9 10  2  0  0  0  0
 10 11  1  0  0  0  0
 11 12  1  0  0  0  0
 12 13  2  0  0  0  0
 14 13  1  0  0  0  0
 15 14  2  0  0  0  0
 16 11  2  0  0  0  0
 16 15  1  0  0  0  0
 17  5  1  0  0  0  0
 18 17  1  0  0  0  0
 19 18  2  0  0  0  0
 20 21  1  0  0  0  0
 20 19  1  0  0  0  0
 21 22  2  0  0  0  0
 22 18  1  0  0  0  0
 23 21  1  0  0  0  0
 24 23  1  0  0  0  0
 25 24  2  0  0  0  0
 26 27  2  0  0  0  0
 26 25  1  0  0  0  0
 27 32  1  0  0  0  0
 28 29  2  0  0  0  0
 28 27  1  0  0  0  0
 29 30  1  0  0  0  0
 30 31  2  0  0  0  0
 32 31  1  0  0  0  0
 32 23  2  0  0  0  0
M  END
>  <minimizedAffinity>
-7.69496775

$$$$

 OpenBabel03242509313D

 32 37  0  0  0  0  0  0  0  0999 V2000
   63.4340   58.6410   30.3490 C   0  0  0  0  0  3  0  0  0  0  0  0
   63.3850   58.1240   29.0360 C   0  0  0  0  0  0  0  0  0  0  0  0
   64.4860   57.3570   28.6480 C   0  0  0  0  0  3  0  0  0  0  0  0
   65.5070   57.1510   29.5150 N   0  0  0  0  0  0  0  0  0  0  0  0
   65.5080   57.6570   30.7400 C   0  0  0  0  0  0  0  0  0  0  0  0
   64.4690   58.4110   31.1770 N   0  0  0  0  0  0  0  0  0  0  0  0
   62.2010   58.4670   28.2910 C   0  0  0  0  0  0  0  0  0  0  0  0
   61.5400   59.5910   28.8000 C   0  0  0  0  0  3  0  0  0  0  0  0
   60.3860   60.0960   28.2440 C   0  0  0  0  0  3  0  0  0  0  0  0
   59.8390   59.4730   27.1250 C   0  0  0  0  0  3  0  0  0  0  0  0
   60.4980   58.3610   26.6260 C   0  0  0  0  0  0  0  0  0  0  0  0
   60.0400   57.6770   25.5300 C   0  0  0  0  0  3  0  0  0  0  0  0
   60.6870   56.5640   25.0210 C   0  0  0  0  0  3  0  0  0  0  0  0
   61.8420   56.1170   25.6360 C   0  0  0  0  0  3  0  0  0  0  0  0
   62.3210   56.7920   26.7430 C   0  0  0  0  0  3  0  0  0  0  0  0
   61.6340   57.8800   27.1900 C   0  0  0  0  0  0  0  0  0  0  0  0
   66.6940   57.3600   31.6190 C   0  0  0  0  0  2  0  0  0  0  0  0
   67.4880   58.6310   31.8520 C   0  0  0  0  0  0  0  0  0  0  0  0
   68.8450   58.6430   32.2720 C   0  0  0  0  0  3  0  0  0  0  0  0
   69.1290   60.4300   32.3380 S   0  0  0  0  0  0  0  0  0  0  0  0
   67.4230   60.8540   31.8050 C   0  0  0  0  0  0  0  0  0  0  0  0
   66.8850   59.7700   31.6520 N   0  0  0  0  0  0  0  0  0  0  0  0
   67.1550   62.3260   31.7040 C   0  0  0  0  0  0  0  0  0  0  0  0
   66.9830   63.1420   32.7600 N   0  0  0  0  0  0  0  0  0  0  0  0
   66.7460   64.4460   32.6590 C   0  0  0  0  0  3  0  0  0  0  0  0
   66.6640   65.0300   31.4560 N   0  0  0  0  0  0  0  0  0  0  0  0
   66.8220   64.2960   30.3450 C   0  0  0  0  0  0  0  0  0  0  0  0
   66.7370   64.9030   29.1050 C   0  0  0  0  0  3  0  0  0  0  0  0
   66.9000   64.1520   27.9350 C   0  0  0  0  0  3  0  0  0  0  0  0
   67.1470   62.7860   28.1200 C   0  0  0  0  0  3  0  0  0  0  0  0
   67.2260   62.2130   29.3720 C   0  0  0  0  0  3  0  0  0  0  0  0
   67.0660   62.9490   30.5000 C   0  0  0  0  0  0  0  0  0  0  0  0
  1  6  2  0  0  0  0
  2  1  1  0  0  0  0
  3  2  2  0  0  0  0
  3  4  1  0  0  0  0
  4  5  2  0  0  0  0
  5  6  1  0  0  0  0
  5 17  1  0  0  0  0
  7  8  1  0  0  0  0
  7  2  1  0  0  0  0
  9  8  2  0  0  0  0
 10  9  1  0  0  0  0
 11 10  2  0  0  0  0
 11 16  1  0  0  0  0
 12 11  1  0  0  0  0
 13 12  2  0  0  0  0
 13 14  1  0  0  0  0
 14 15  2  0  0  0  0
 15 16  1  0  0  0  0
 16  7  2  0  0  0  0
 17 18  1  0  0  0  0
 18 19  2  0  0  0  0
 19 20  1  0  0  0  0
 21 20  1  0  0  0  0
 22 21  2  0  0  0  0
 22 18  1  0  0  0  0
 23 21  1  0  0  0  0
 23 24  1  0  0  0  0
 25 24  2  0  0  0  0
 26 25  1  0  0  0  0
 27 32  1  0  0  0  0
 27 26  2  0  0  0  0
 28 27  1  0  0  0  0
 29 30  1  0  0  0  0
 29 28  2  0  0  0  0
 30 31  2  0  0  0  0
 31 32  1  0  0  0  0
 32 23  2  0  0  0  0
M  END
>  <minimizedAffinity>
-7.14619923

$$$$
