
 OpenBabel03242509383D

 35 39  0  0  1  0  0  0  0  0999 V2000
   66.4510   57.7520   31.5390 N   0  0  0  0  0  0  0  0  0  0  0  0
   66.6290   56.5570   32.0690 C   0  0  0  0  0  3  0  0  0  0  0  0
   67.7220   56.3710   32.8720 C   0  0  0  0  0  3  0  0  0  0  0  0
   68.5540   57.4640   33.0590 C   0  0  0  0  0  0  0  0  0  0  0  0
   69.6990   57.2990   33.8880 N   0  0  0  0  0  0  0  0  0  0  0  0
   68.3270   58.6740   32.4920 N   0  0  0  0  0  0  0  0  0  0  0  0
   67.2460   58.8350   31.7060 C   0  0  0  0  0  0  0  0  0  0  0  0
   66.9990   59.9530   31.1560 O   0  0  0  0  0  0  0  0  0  0  0  0
   63.1800   58.9900   30.2120 C   0  0  0  0  0  3  0  0  0  0  0  0
   64.2470   58.8140   31.0890 C   0  0  0  0  0  3  0  0  0  0  0  0
   65.3170   57.9820   30.6960 C   0  0  0  0  0  0  0  0  0  0  0  0
   65.2350   57.3980   29.4690 N   0  0  0  0  0  0  0  0  0  0  0  0
   64.1780   57.6020   28.6590 C   0  0  0  0  0  0  0  0  0  0  0  0
   63.1660   58.3850   29.0190 N   0  0  0  0  0  0  0  0  0  0  0  0
   64.2940   56.9040   27.4190 N   0  0  0  0  0  0  0  0  0  0  0  0
   65.4910   57.1060   26.8340 N   0  0  0  0  0  0  0  0  0  0  0  0
   65.4940   56.4320   25.6540 C   0  0  0  0  0  3  0  0  0  0  0  0
   64.2770   55.8180   25.5260 C   0  0  0  0  0  3  0  0  0  0  0  0
   63.5310   56.1230   26.6490 C   0  0  0  0  0  0  0  0  0  0  0  0
   70.3380   58.0910   34.0480 H   0  0  0  0  0  0  0  0  0  0  0  0
   69.8900   56.3880   34.3280 H   0  0  0  0  0  0  0  0  0  0  0  0
   62.3320   55.8500   27.1050 O   0  0  0  0  0  0  0  0  0  0  0  0
   61.1980   56.6310   26.7000 C   0  0  2  0  0  3  0  0  0  0  0  0
   60.6340   56.4780   25.3460 C   0  0  0  0  0  2  0  0  0  0  0  0
   61.3700   57.7330   25.7620 C   0  0  1  0  0  3  0  0  0  0  0  0
   60.7060   58.9950   25.8840 N   0  0  0  0  0  0  0  0  0  0  0  0
   60.1240   59.3680   27.0360 C   0  0  0  0  0  3  0  0  0  0  0  0
   59.4840   60.5570   27.1910 C   0  0  0  0  0  0  0  0  0  0  0  0
   58.8200   61.0200   28.4490 C   0  0  0  0  0  1  0  0  0  0  0  0
   59.4040   61.4630   26.1280 C   0  0  0  0  0  0  0  0  0  0  0  0
   58.8470   62.5980   26.1180 O   0  0  0  0  0  0  0  0  0  0  0  0
   60.0040   61.0540   24.9720 N   0  0  0  0  0  0  0  0  0  0  0  0
   60.6340   59.8640   24.8530 C   0  0  0  0  0  0  0  0  0  0  0  0
   61.1810   59.5010   23.7830 O   0  0  0  0  0  0  0  0  0  0  0  0
   59.9760   61.6800   24.1550 H   0  0  0  0  0  0  0  0  0  0  0  0
  1  7  1  0  0  0  0
  1  2  1  0  0  0  0
  2  3  2  0  0  0  0
  3  4  1  0  0  0  0
  4  5  1  0  0  0  0
  5 20  1  0  0  0  0
  5 21  1  0  0  0  0
  6  4  2  0  0  0  0
  7  6  1  0  0  0  0
  8  7  2  0  0  0  0
  9 10  1  0  0  0  0
 11 10  2  0  0  0  0
 11  1  1  0  0  0  0
 12 11  1  0  0  0  0
 13 14  1  0  0  0  0
 13 12  2  0  0  0  0
 14  9  2  0  0  0  0
 15 13  1  0  0  0  0
 16 15  1  0  0  0  0
 17 16  2  0  0  0  0
 18 17  1  0  0  0  0
 18 19  2  0  0  0  0
 19 22  1  0  0  0  0
 19 15  1  0  0  0  0
 23 22  1  6  0  0  0
 24 23  1  0  0  0  0
 25 24  1  6  0  0  0
 25 26  1  0  0  0  0
 25 23  1  0  0  0  0
 26 27  1  0  0  0  0
 27 28  2  0  0  0  0
 28 29  1  0  0  0  0
 30 28  1  0  0  0  0
 31 30  2  0  0  0  0
 32 30  1  0  0  0  0
 33 32  1  0  0  0  0
 33 26  1  0  0  0  0
 34 33  2  0  0  0  0
 35 32  1  0  0  0  0
M  END
>  <minimizedAffinity>
-7.65501118

$$$$

 OpenBabel03242509383D

 35 39  0  0  1  0  0  0  0  0999 V2000
   69.9980   56.8460   34.4270 N   0  0  0  0  0  0  0  0  0  0  0  0
   70.3300   56.0650   33.4170 C   0  0  0  0  0  3  0  0  0  0  0  0
   71.6300   55.6430   33.3360 C   0  0  0  0  0  3  0  0  0  0  0  0
   72.4920   56.0770   34.3320 C   0  0  0  0  0  0  0  0  0  0  0  0
   73.8500   55.6550   34.2720 N   0  0  0  0  0  0  0  0  0  0  0  0
   72.1010   56.8810   35.3520 N   0  0  0  0  0  0  0  0  0  0  0  0
   70.8180   57.2840   35.4120 C   0  0  0  0  0  0  0  0  0  0  0  0
   70.4150   58.0370   36.3510 O   0  0  0  0  0  0  0  0  0  0  0  0
   66.4900   57.3550   35.6200 C   0  0  0  0  0  3  0  0  0  0  0  0
   67.7900   56.8600   35.5720 C   0  0  0  0  0  3  0  0  0  0  0  0
   68.6470   57.3050   34.5440 C   0  0  0  0  0  0  0  0  0  0  0  0
   68.1390   58.1990   33.6520 N   0  0  0  0  0  0  0  0  0  0  0  0
   66.8720   58.6460   33.7430 C   0  0  0  0  0  0  0  0  0  0  0  0
   66.0570   58.2350   34.7100 N   0  0  0  0  0  0  0  0  0  0  0  0
   66.5440   59.5820   32.7170 N   0  0  0  0  0  0  0  0  0  0  0  0
   67.4690   60.5540   32.6030 N   0  0  0  0  0  0  0  0  0  0  0  0
   67.0550   61.4070   31.6300 C   0  0  0  0  0  3  0  0  0  0  0  0
   65.8600   60.9410   31.1520 C   0  0  0  0  0  3  0  0  0  0  0  0
   65.5500   59.7860   31.8460 C   0  0  0  0  0  0  0  0  0  0  0  0
   74.5160   55.9590   34.9950 H   0  0  0  0  0  0  0  0  0  0  0  0
   74.1660   55.0450   33.5050 H   0  0  0  0  0  0  0  0  0  0  0  0
   64.5770   58.9070   31.8570 O   0  0  0  0  0  0  0  0  0  0  0  0
   64.5180   57.8650   30.8720 C   0  0  2  0  0  3  0  0  0  0  0  0
   65.7590   57.3270   30.2840 C   0  0  0  0  0  2  0  0  0  0  0  0
   64.7970   58.1680   29.4730 C   0  0  1  0  0  3  0  0  0  0  0  0
   64.0550   57.6250   28.3770 N   0  0  0  0  0  0  0  0  0  0  0  0
   64.6660   56.9450   27.3920 C   0  0  0  0  0  3  0  0  0  0  0  0
   63.9960   56.4140   26.3350 C   0  0  0  0  0  0  0  0  0  0  0  0
   64.6250   55.6510   25.2120 C   0  0  0  0  0  1  0  0  0  0  0  0
   62.6090   56.5600   26.2280 C   0  0  0  0  0  0  0  0  0  0  0  0
   61.8530   56.1270   25.3120 O   0  0  0  0  0  0  0  0  0  0  0  0
   62.0200   57.2560   27.2440 N   0  0  0  0  0  0  0  0  0  0  0  0
   62.7160   57.7690   28.2820 C   0  0  0  0  0  0  0  0  0  0  0  0
   62.1610   58.4080   29.2090 O   0  0  0  0  0  0  0  0  0  0  0  0
   61.0000   57.3950   27.2180 H   0  0  0  0  0  0  0  0  0  0  0  0
  1 11  1  0  0  0  0
  1  7  1  0  0  0  0
  2  1  1  0  0  0  0
  3  2  2  0  0  0  0
  3  4  1  0  0  0  0
  4  6  2  0  0  0  0
  5  4  1  0  0  0  0
  5 20  1  0  0  0  0
  6  7  1  0  0  0  0
  7  8  2  0  0  0  0
 10  9  1  0  0  0  0
 11 10  2  0  0  0  0
 12 13  2  0  0  0  0
 12 11  1  0  0  0  0
 13 14  1  0  0  0  0
 14  9  2  0  0  0  0
 15 13  1  0  0  0  0
 16 15  1  0  0  0  0
 17 16  2  0  0  0  0
 18 17  1  0  0  0  0
 18 19  2  0  0  0  0
 19 22  1  0  0  0  0
 19 15  1  0  0  0  0
 21  5  1  0  0  0  0
 23 22  1  1  0  0  0
 24 23  1  0  0  0  0
 25 26  1  6  0  0  0
 25 24  1  0  0  0  0
 25 23  1  0  0  0  0
 27 26  1  0  0  0  0
 28 27  2  0  0  0  0
 29 28  1  0  0  0  0
 30 28  1  0  0  0  0
 30 32  1  0  0  0  0
 31 30  2  0  0  0  0
 32 33  1  0  0  0  0
 33 26  1  0  0  0  0
 33 34  2  0  0  0  0
 35 32  1  0  0  0  0
M  END
>  <minimizedAffinity>
-6.83729744

$$$$

 OpenBabel03242509383D

 35 39  0  0  1  0  0  0  0  0999 V2000
   64.0800   64.4180   31.3400 N   0  0  0  0  0  0  0  0  0  0  0  0
   62.7600   64.4190   31.3370 C   0  0  0  0  0  3  0  0  0  0  0  0
   62.1210   65.4210   32.0180 C   0  0  0  0  0  3  0  0  0  0  0  0
   62.9250   66.3540   32.6570 C   0  0  0  0  0  0  0  0  0  0  0  0
   62.2880   67.4060   33.3730 N   0  0  0  0  0  0  0  0  0  0  0  0
   64.2790   66.3090   32.6290 N   0  0  0  0  0  0  0  0  0  0  0  0
   64.8870   65.3150   31.9530 C   0  0  0  0  0  0  0  0  0  0  0  0
   66.1530   65.2390   31.9050 O   0  0  0  0  0  0  0  0  0  0  0  0
   66.1780   62.5910   28.8400 C   0  0  0  0  0  3  0  0  0  0  0  0
   65.5220   63.6470   29.4660 C   0  0  0  0  0  3  0  0  0  0  0  0
   64.7800   63.3850   30.6370 C   0  0  0  0  0  0  0  0  0  0  0  0
   64.7510   62.1000   31.0830 N   0  0  0  0  0  0  0  0  0  0  0  0
   65.4040   61.1140   30.4390 C   0  0  0  0  0  0  0  0  0  0  0  0
   66.1080   61.3500   29.3360 N   0  0  0  0  0  0  0  0  0  0  0  0
   65.2520   59.8460   31.0760 N   0  0  0  0  0  0  0  0  0  0  0  0
   65.5060   59.9090   32.3980 N   0  0  0  0  0  0  0  0  0  0  0  0
   65.3670   58.6570   32.9070 C   0  0  0  0  0  3  0  0  0  0  0  0
   65.0260   57.8260   31.8740 C   0  0  0  0  0  3  0  0  0  0  0  0
   64.9550   58.5910   30.7240 C   0  0  0  0  0  0  0  0  0  0  0  0
   62.8540   68.1150   33.8590 H   0  0  0  0  0  0  0  0  0  0  0  0
   61.2590   67.4580   33.4070 H   0  0  0  0  0  0  0  0  0  0  0  0
   64.6900   58.3910   29.4550 O   0  0  0  0  0  0  0  0  0  0  0  0
   63.3930   57.9370   29.0400 C   0  0  2  0  0  3  0  0  0  0  0  0
   63.1050   56.4940   28.9420 C   0  0  0  0  0  2  0  0  0  0  0  0
   63.2120   57.3670   27.7100 C   0  0  1  0  0  3  0  0  0  0  0  0
   62.0830   57.6370   26.8740 N   0  0  0  0  0  0  0  0  0  0  0  0
   61.2720   58.6810   27.1140 C   0  0  0  0  0  3  0  0  0  0  0  0
   60.1910   58.9700   26.3430 C   0  0  0  0  0  0  0  0  0  0  0  0
   59.2560   60.1160   26.5660 C   0  0  0  0  0  1  0  0  0  0  0  0
   59.8720   58.1700   25.2410 C   0  0  0  0  0  0  0  0  0  0  0  0
   58.9060   58.3100   24.4360 O   0  0  0  0  0  0  0  0  0  0  0  0
   60.7150   57.1190   25.0250 N   0  0  0  0  0  0  0  0  0  0  0  0
   61.7830   56.8600   25.8110 C   0  0  0  0  0  0  0  0  0  0  0  0
   62.5500   55.8890   25.6010 O   0  0  0  0  0  0  0  0  0  0  0  0
   60.5280   56.4950   24.2270 H   0  0  0  0  0  0  0  0  0  0  0  0
  1  7  1  0  0  0  0
  2  1  1  0  0  0  0
  2  3  2  0  0  0  0
  3  4  1  0  0  0  0
  4  5  1  0  0  0  0
  5 21  1  0  0  0  0
  5 20  1  0  0  0  0
  6  4  2  0  0  0  0
  7  6  1  0  0  0  0
  8  7  2  0  0  0  0
  9 14  2  0  0  0  0
  9 10  1  0  0  0  0
 10 11  2  0  0  0  0
 11 12  1  0  0  0  0
 11  1  1  0  0  0  0
 13 15  1  0  0  0  0
 13 12  2  0  0  0  0
 14 13  1  0  0  0  0
 15 16  1  0  0  0  0
 16 17  2  0  0  0  0
 18 17  1  0  0  0  0
 19 15  1  0  0  0  0
 19 18  2  0  0  0  0
 22 19  1  0  0  0  0
 23 22  1  6  0  0  0
 24 23  1  0  0  0  0
 25 26  1  1  0  0  0
 25 24  1  0  0  0  0
 25 23  1  0  0  0  0
 26 27  1  0  0  0  0
 28 29  1  0  0  0  0
 28 27  2  0  0  0  0
 30 28  1  0  0  0  0
 31 30  2  0  0  0  0
 32 30  1  0  0  0  0
 32 33  1  0  0  0  0
 33 26  1  0  0  0  0
 34 33  2  0  0  0  0
 35 32  1  0  0  0  0
M  END
>  <minimizedAffinity>
-6.81061649

$$$$

 OpenBabel03242509383D

 35 39  0  0  1  0  0  0  0  0999 V2000
   68.2660   62.2520   30.0040 N   0  0  0  0  0  0  0  0  0  0  0  0
   67.0040   62.1750   29.6240 C   0  0  0  0  0  3  0  0  0  0  0  0
   66.6240   62.8910   28.5210 C   0  0  0  0  0  3  0  0  0  0  0  0
   67.6080   63.6410   27.8930 C   0  0  0  0  0  0  0  0  0  0  0  0
   67.2410   64.3960   26.7440 N   0  0  0  0  0  0  0  0  0  0  0  0
   68.8930   63.6870   28.3220 N   0  0  0  0  0  0  0  0  0  0  0  0
   69.2450   62.9750   29.4100 C   0  0  0  0  0  0  0  0  0  0  0  0
   70.4380   62.9920   29.8420 O   0  0  0  0  0  0  0  0  0  0  0  0
   69.9460   59.7460   32.2150 C   0  0  0  0  0  3  0  0  0  0  0  0
   69.5690   60.4100   31.0510 C   0  0  0  0  0  3  0  0  0  0  0  0
   68.6980   61.5150   31.1530 C   0  0  0  0  0  0  0  0  0  0  0  0
   68.2750   61.8630   32.3990 N   0  0  0  0  0  0  0  0  0  0  0  0
   68.6700   61.1850   33.4940 C   0  0  0  0  0  0  0  0  0  0  0  0
   69.4930   60.1440   33.4090 N   0  0  0  0  0  0  0  0  0  0  0  0
   68.1190   61.7180   34.6980 N   0  0  0  0  0  0  0  0  0  0  0  0
   68.2800   63.0520   34.7820 N   0  0  0  0  0  0  0  0  0  0  0  0
   67.7560   63.4580   35.9680 C   0  0  0  0  0  3  0  0  0  0  0  0
   67.2740   62.3490   36.6090 C   0  0  0  0  0  3  0  0  0  0  0  0
   67.5080   61.2570   35.7940 C   0  0  0  0  0  0  0  0  0  0  0  0
   67.9460   64.9640   26.2540 H   0  0  0  0  0  0  0  0  0  0  0  0
   66.2700   64.3750   26.4020 H   0  0  0  0  0  0  0  0  0  0  0  0
   67.2930   59.9640   35.8400 O   0  0  0  0  0  0  0  0  0  0  0  0
   66.3370   59.3470   34.9650 C   0  0  2  0  0  3  0  0  0  0  0  0
   65.6460   58.1090   35.3720 C   0  0  0  0  0  2  0  0  0  0  0  0
   66.6790   58.1140   34.2660 C   0  0  1  0  0  3  0  0  0  0  0  0
   66.3320   57.8470   32.9040 N   0  0  0  0  0  0  0  0  0  0  0  0
   65.3450   58.5230   32.2920 C   0  0  0  0  0  3  0  0  0  0  0  0
   64.9860   58.2990   31.0000 C   0  0  0  0  0  0  0  0  0  0  0  0
   63.8970   59.0200   30.2720 C   0  0  0  0  0  1  0  0  0  0  0  0
   65.6460   57.3290   30.2390 C   0  0  0  0  0  0  0  0  0  0  0  0
   65.4270   57.0070   29.0360 O   0  0  0  0  0  0  0  0  0  0  0  0
   66.6420   56.6600   30.8900 N   0  0  0  0  0  0  0  0  0  0  0  0
   66.9750   56.9090   32.1760 C   0  0  0  0  0  0  0  0  0  0  0  0
   67.8930   56.2860   32.7630 O   0  0  0  0  0  0  0  0  0  0  0  0
   67.1620   55.9330   30.3790 H   0  0  0  0  0  0  0  0  0  0  0  0
  1 11  1  0  0  0  0
  2  1  1  0  0  0  0
  3  2  2  0  0  0  0
  4  6  2  0  0  0  0
  4  3  1  0  0  0  0
  5  4  1  0  0  0  0
  6  7  1  0  0  0  0
  7  8  2  0  0  0  0
  7  1  1  0  0  0  0
  9 14  2  0  0  0  0
 10 11  2  0  0  0  0
 10  9  1  0  0  0  0
 11 12  1  0  0  0  0
 12 13  2  0  0  0  0
 13 15  1  0  0  0  0
 14 13  1  0  0  0  0
 15 16  1  0  0  0  0
 15 19  1  0  0  0  0
 16 17  2  0  0  0  0
 17 18  1  0  0  0  0
 19 22  1  0  0  0  0
 19 18  2  0  0  0  0
 20  5  1  0  0  0  0
 21  5  1  0  0  0  0
 23 24  1  0  0  0  0
 23 22  1  1  0  0  0
 25 26  1  6  0  0  0
 25 23  1  0  0  0  0
 25 24  1  0  0  0  0
 27 26  1  0  0  0  0
 28 27  2  0  0  0  0
 29 28  1  0  0  0  0
 30 32  1  0  0  0  0
 30 28  1  0  0  0  0
 31 30  2  0  0  0  0
 32 33  1  0  0  0  0
 33 34  2  0  0  0  0
 33 26  1  0  0  0  0
 35 32  1  0  0  0  0
M  END
>  <minimizedAffinity>
-6.64097357

$$$$

 OpenBabel03242509383D

 35 39  0  0  1  0  0  0  0  0999 V2000
   66.6200   64.4750   30.6790 N   0  0  0  0  0  0  0  0  0  0  0  0
   65.3250   64.2430   30.5790 C   0  0  0  0  0  3  0  0  0  0  0  0
   64.4860   65.3240   30.5090 C   0  0  0  0  0  3  0  0  0  0  0  0
   65.0780   66.5780   30.5510 C   0  0  0  0  0  0  0  0  0  0  0  0
   64.2300   67.7190   30.4820 N   0  0  0  0  0  0  0  0  0  0  0  0
   66.4170   66.7630   30.6550 N   0  0  0  0  0  0  0  0  0  0  0  0
   67.2230   65.6860   30.7210 C   0  0  0  0  0  0  0  0  0  0  0  0
   68.4810   65.8190   30.8190 O   0  0  0  0  0  0  0  0  0  0  0  0
   69.2680   61.9660   29.8500 C   0  0  0  0  0  3  0  0  0  0  0  0
   68.4160   63.0570   29.7030 C   0  0  0  0  0  3  0  0  0  0  0  0
   67.5250   63.3680   30.7530 C   0  0  0  0  0  0  0  0  0  0  0  0
   67.5560   62.5690   31.8540 N   0  0  0  0  0  0  0  0  0  0  0  0
   68.4010   61.5240   31.9450 C   0  0  0  0  0  0  0  0  0  0  0  0
   69.2450   61.2240   30.9630 N   0  0  0  0  0  0  0  0  0  0  0  0
   68.2780   60.8240   33.1830 N   0  0  0  0  0  0  0  0  0  0  0  0
   68.3080   61.6570   34.2420 N   0  0  0  0  0  0  0  0  0  0  0  0
   68.2170   60.9010   35.3660 C   0  0  0  0  0  3  0  0  0  0  0  0
   68.1330   59.5910   34.9780 C   0  0  0  0  0  3  0  0  0  0  0  0
   68.1710   59.5580   33.5960 C   0  0  0  0  0  0  0  0  0  0  0  0
   64.6370   68.6650   30.5110 H   0  0  0  0  0  0  0  0  0  0  0  0
   63.2100   67.5990   30.4040 H   0  0  0  0  0  0  0  0  0  0  0  0
   68.1340   58.6410   32.6600 O   0  0  0  0  0  0  0  0  0  0  0  0
   66.9000   57.9960   32.3110 C   0  0  2  0  0  3  0  0  0  0  0  0
   66.8730   56.5510   32.0150 C   0  0  0  0  0  2  0  0  0  0  0  0
   66.6550   57.5880   30.9340 C   0  0  1  0  0  3  0  0  0  0  0  0
   65.3960   57.7360   30.2700 N   0  0  0  0  0  0  0  0  0  0  0  0
   65.2040   57.2650   29.0260 C   0  0  0  0  0  3  0  0  0  0  0  0
   64.0240   57.3850   28.3630 C   0  0  0  0  0  0  0  0  0  0  0  0
   63.7580   56.8810   26.9800 C   0  0  0  0  0  1  0  0  0  0  0  0
   62.9340   58.0220   28.9660 C   0  0  0  0  0  0  0  0  0  0  0  0
   61.7810   58.2100   28.4810 O   0  0  0  0  0  0  0  0  0  0  0  0
   63.1620   58.4890   30.2290 N   0  0  0  0  0  0  0  0  0  0  0  0
   64.3480   58.3510   30.8600 C   0  0  0  0  0  0  0  0  0  0  0  0
   64.5440   58.7850   32.0210 O   0  0  0  0  0  0  0  0  0  0  0  0
   62.3940   58.9670   30.7220 H   0  0  0  0  0  0  0  0  0  0  0  0
  1  7  1  0  0  0  0
  1 11  1  0  0  0  0
  2  1  1  0  0  0  0
  3  4  1  0  0  0  0
  3  2  2  0  0  0  0
  4  6  2  0  0  0  0
  5 20  1  0  0  0  0
  5  4  1  0  0  0  0
  6  7  1  0  0  0  0
  7  8  2  0  0  0  0
  9 14  2  0  0  0  0
 10  9  1  0  0  0  0
 10 11  2  0  0  0  0
 11 12  1  0  0  0  0
 12 13  2  0  0  0  0
 13 15  1  0  0  0  0
 14 13  1  0  0  0  0
 15 19  1  0  0  0  0
 15 16  1  0  0  0  0
 16 17  2  0  0  0  0
 18 17  1  0  0  0  0
 19 18  2  0  0  0  0
 21  5  1  0  0  0  0
 22 19  1  0  0  0  0
 23 22  1  6  0  0  0
 24 23  1  0  0  0  0
 25 26  1  1  0  0  0
 25 24  1  0  0  0  0
 25 23  1  0  0  0  0
 26 33  1  0  0  0  0
 27 26  1  0  0  0  0
 28 30  1  0  0  0  0
 28 27  2  0  0  0  0
 29 28  1  0  0  0  0
 30 32  1  0  0  0  0
 31 30  2  0  0  0  0
 32 35  1  0  0  0  0
 32 33  1  0  0  0  0
 33 34  2  0  0  0  0
M  END
>  <minimizedAffinity>
-6.61685705

$$$$

 OpenBabel03242509383D

 35 39  0  0  1  0  0  0  0  0999 V2000
   61.1250   58.4000   26.2940 N   0  0  0  0  0  0  0  0  0  0  0  0
   62.3280   58.4760   26.8330 C   0  0  0  0  0  3  0  0  0  0  0  0
   63.1020   57.3470   26.8290 C   0  0  0  0  0  3  0  0  0  0  0  0
   62.5490   56.2120   26.2540 C   0  0  0  0  0  0  0  0  0  0  0  0
   63.3310   55.0230   26.2370 N   0  0  0  0  0  0  0  0  0  0  0  0
   61.3070   56.1850   25.7120 N   0  0  0  0  0  0  0  0  0  0  0  0
   60.5630   57.3070   25.7270 C   0  0  0  0  0  0  0  0  0  0  0  0
   59.3950   57.3220   25.2290 O   0  0  0  0  0  0  0  0  0  0  0  0
   59.1490   61.3640   25.1520 C   0  0  0  0  0  3  0  0  0  0  0  0
   59.9700   60.2410   25.0850 C   0  0  0  0  0  3  0  0  0  0  0  0
   60.2900   59.5630   26.2800 C   0  0  0  0  0  0  0  0  0  0  0  0
   59.7690   60.0560   27.4360 N   0  0  0  0  0  0  0  0  0  0  0  0
   58.9780   61.1470   27.4460 C   0  0  0  0  0  0  0  0  0  0  0  0
   58.6700   61.7930   26.3250 N   0  0  0  0  0  0  0  0  0  0  0  0
   58.5330   61.4910   28.7580 N   0  0  0  0  0  0  0  0  0  0  0  0
   58.0240   60.4310   29.4150 N   0  0  0  0  0  0  0  0  0  0  0  0
   57.6010   60.8620   30.6320 C   0  0  0  0  0  3  0  0  0  0  0  0
   57.8570   62.2040   30.7070 C   0  0  0  0  0  3  0  0  0  0  0  0
   58.4480   62.5880   29.5170 C   0  0  0  0  0  0  0  0  0  0  0  0
   62.9510   54.1620   25.8180 H   0  0  0  0  0  0  0  0  0  0  0  0
   64.2770   55.0220   26.6440 H   0  0  0  0  0  0  0  0  0  0  0  0
   58.9080   63.6970   28.9910 O   0  0  0  0  0  0  0  0  0  0  0  0
   60.2360   64.1540   29.2840 C   0  0  2  0  0  3  0  0  0  0  0  0
   61.3670   63.2070   29.2770 C   0  0  0  0  0  2  0  0  0  0  0  0
   60.8550   63.8220   30.5620 C   0  0  1  0  0  3  0  0  0  0  0  0
   61.6420   64.7380   31.3280 N   0  0  0  0  0  0  0  0  0  0  0  0
   62.5260   65.5610   30.7380 C   0  0  0  0  0  3  0  0  0  0  0  0
   63.2910   66.4450   31.4310 C   0  0  0  0  0  0  0  0  0  0  0  0
   64.2890   67.3800   30.8260 C   0  0  0  0  0  1  0  0  0  0  0  0
   63.1860   66.5340   32.8230 C   0  0  0  0  0  0  0  0  0  0  0  0
   63.8250   67.2990   33.6010 O   0  0  0  0  0  0  0  0  0  0  0  0
   62.2810   65.6850   33.3920 N   0  0  0  0  0  0  0  0  0  0  0  0
   61.5340   64.8190   32.6720 C   0  0  0  0  0  0  0  0  0  0  0  0
   60.7050   64.0430   33.2080 O   0  0  0  0  0  0  0  0  0  0  0  0
   62.1610   65.7060   34.4140 H   0  0  0  0  0  0  0  0  0  0  0  0
  1  2  1  0  0  0  0
  3  2  2  0  0  0  0
  4  3  1  0  0  0  0
  5  4  1  0  0  0  0
  5 21  1  0  0  0  0
  6  7  1  0  0  0  0
  6  4  2  0  0  0  0
  7  1  1  0  0  0  0
  8  7  2  0  0  0  0
  9 14  2  0  0  0  0
 10  9  1  0  0  0  0
 10 11  2  0  0  0  0
 11  1  1  0  0  0  0
 11 12  1  0  0  0  0
 12 13  2  0  0  0  0
 13 15  1  0  0  0  0
 14 13  1  0  0  0  0
 15 16  1  0  0  0  0
 15 19  1  0  0  0  0
 16 17  2  0  0  0  0
 17 18  1  0  0  0  0
 19 18  2  0  0  0  0
 20  5  1  0  0  0  0
 22 19  1  0  0  0  0
 23 22  1  1  0  0  0
 23 25  1  0  0  0  0
 24 23  1  0  0  0  0
 25 24  1  6  0  0  0
 25 26  1  0  0  0  0
 26 33  1  0  0  0  0
 27 26  1  0  0  0  0
 27 28  2  0  0  0  0
 28 30  1  0  0  0  0
 29 28  1  0  0  0  0
 30 32  1  0  0  0  0
 30 31  2  0  0  0  0
 32 35  1  0  0  0  0
 33 34  2  0  0  0  0
 33 32  1  0  0  0  0
M  END
>  <minimizedAffinity>
-6.51517487

$$$$

 OpenBabel03242509383D

 35 39  0  0  1  0  0  0  0  0999 V2000
   64.8810   59.3860   30.4380 N   0  0  0  0  0  0  0  0  0  0  0  0
   63.6630   59.5680   29.9640 C   0  0  0  0  0  3  0  0  0  0  0  0
   63.0070   58.4800   29.4550 C   0  0  0  0  0  3  0  0  0  0  0  0
   63.6860   57.2700   29.4820 C   0  0  0  0  0  0  0  0  0  0  0  0
   63.0280   56.1220   28.9590 N   0  0  0  0  0  0  0  0  0  0  0  0
   64.9390   57.1350   29.9820 N   0  0  0  0  0  0  0  0  0  0  0  0
   65.5660   58.2190   30.4780 C   0  0  0  0  0  0  0  0  0  0  0  0
   66.7390   58.1320   30.9540 O   0  0  0  0  0  0  0  0  0  0  0  0
   66.5800   61.7300   32.8070 C   0  0  0  0  0  3  0  0  0  0  0  0
   65.8780   60.6150   32.3570 C   0  0  0  0  0  3  0  0  0  0  0  0
   65.5960   60.5030   30.9790 C   0  0  0  0  0  0  0  0  0  0  0  0
   66.0330   61.5050   30.1690 N   0  0  0  0  0  0  0  0  0  0  0  0
   66.7090   62.5630   30.6560 C   0  0  0  0  0  0  0  0  0  0  0  0
   66.9820   62.6780   31.9520 N   0  0  0  0  0  0  0  0  0  0  0  0
   67.0820   63.4920   29.6390 N   0  0  0  0  0  0  0  0  0  0  0  0
   67.6770   62.8870   28.5920 N   0  0  0  0  0  0  0  0  0  0  0  0
   68.0210   63.8500   27.6980 C   0  0  0  0  0  3  0  0  0  0  0  0
   67.6300   65.0550   28.2160 C   0  0  0  0  0  3  0  0  0  0  0  0
   67.0360   64.8140   29.4420 C   0  0  0  0  0  0  0  0  0  0  0  0
   63.5040   55.2090   28.9630 H   0  0  0  0  0  0  0  0  0  0  0  0
   62.0760   56.2040   28.5740 H   0  0  0  0  0  0  0  0  0  0  0  0
   66.4810   65.5250   30.3940 O   0  0  0  0  0  0  0  0  0  0  0  0
   65.0740   65.8060   30.3750 C   0  0  2  0  0  3  0  0  0  0  0  0
   64.4900   66.7430   31.3530 C   0  0  0  0  0  2  0  0  0  0  0  0
   64.2090   65.2570   31.4120 C   0  0  1  0  0  3  0  0  0  0  0  0
   62.9050   64.7230   31.1620 N   0  0  0  0  0  0  0  0  0  0  0  0
   62.6180   64.0980   30.0070 C   0  0  0  0  0  3  0  0  0  0  0  0
   61.3930   63.5780   29.7320 C   0  0  0  0  0  0  0  0  0  0  0  0
   61.0200   62.8760   28.4650 C   0  0  0  0  0  1  0  0  0  0  0  0
   60.3560   63.6750   30.6650 C   0  0  0  0  0  0  0  0  0  0  0  0
   59.1720   63.2450   30.5560 O   0  0  0  0  0  0  0  0  0  0  0  0
   60.6800   64.3150   31.8270 N   0  0  0  0  0  0  0  0  0  0  0  0
   61.9100   64.8200   32.0690 C   0  0  0  0  0  0  0  0  0  0  0  0
   62.1930   65.4070   33.1410 O   0  0  0  0  0  0  0  0  0  0  0  0
   59.9540   64.4170   32.5510 H   0  0  0  0  0  0  0  0  0  0  0  0
  1  7  1  0  0  0  0
  1 11  1  0  0  0  0
  2  1  1  0  0  0  0
  3  4  1  0  0  0  0
  3  2  2  0  0  0  0
  4  6  2  0  0  0  0
  5 20  1  0  0  0  0
  5  4  1  0  0  0  0
  6  7  1  0  0  0  0
  7  8  2  0  0  0  0
 10  9  1  0  0  0  0
 11 10  2  0  0  0  0
 12 13  2  0  0  0  0
 12 11  1  0  0  0  0
 13 14  1  0  0  0  0
 14  9  2  0  0  0  0
 15 13  1  0  0  0  0
 16 15  1  0  0  0  0
 17 18  1  0  0  0  0
 17 16  2  0  0  0  0
 18 19  2  0  0  0  0
 19 15  1  0  0  0  0
 19 22  1  0  0  0  0
 21  5  1  0  0  0  0
 23 22  1  1  0  0  0
 23 24  1  0  0  0  0
 23 25  1  0  0  0  0
 24 25  1  0  0  0  0
 25 26  1  6  0  0  0
 26 33  1  0  0  0  0
 27 26  1  0  0  0  0
 28 27  2  0  0  0  0
 28 30  1  0  0  0  0
 29 28  1  0  0  0  0
 30 32  1  0  0  0  0
 31 30  2  0  0  0  0
 32 33  1  0  0  0  0
 32 35  1  0  0  0  0
 33 34  2  0  0  0  0
M  END
>  <minimizedAffinity>
-6.48358965

$$$$

 OpenBabel03242509383D

 35 39  0  0  1  0  0  0  0  0999 V2000
   68.7740   56.6010   34.6600 N   0  0  0  0  0  0  0  0  0  0  0  0
   67.8750   56.2660   35.5660 C   0  0  0  0  0  3  0  0  0  0  0  0
   68.1390   55.1810   36.3580 C   0  0  0  0  0  3  0  0  0  0  0  0
   69.3390   54.5220   36.1360 C   0  0  0  0  0  0  0  0  0  0  0  0
   69.6390   53.3890   36.9440 N   0  0  0  0  0  0  0  0  0  0  0  0
   70.2320   54.9060   35.1910 N   0  0  0  0  0  0  0  0  0  0  0  0
   69.9520   55.9760   34.4230 C   0  0  0  0  0  0  0  0  0  0  0  0
   70.7630   56.3660   33.5280 O   0  0  0  0  0  0  0  0  0  0  0  0
   68.9870   59.9770   33.0640 C   0  0  0  0  0  3  0  0  0  0  0  0
   69.2810   58.9210   33.9230 C   0  0  0  0  0  3  0  0  0  0  0  0
   68.5310   57.7310   33.8160 C   0  0  0  0  0  0  0  0  0  0  0  0
   67.5540   57.6930   32.8700 N   0  0  0  0  0  0  0  0  0  0  0  0
   67.3090   58.7440   32.0640 C   0  0  0  0  0  0  0  0  0  0  0  0
   68.0120   59.8690   32.1540 N   0  0  0  0  0  0  0  0  0  0  0  0
   66.2510   58.4920   31.1390 N   0  0  0  0  0  0  0  0  0  0  0  0
   66.4110   57.3210   30.4920 N   0  0  0  0  0  0  0  0  0  0  0  0
   65.3800   57.1870   29.6180 C   0  0  0  0  0  3  0  0  0  0  0  0
   64.5880   58.2970   29.7390 C   0  0  0  0  0  3  0  0  0  0  0  0
   65.1500   59.1120   30.7050 C   0  0  0  0  0  0  0  0  0  0  0  0
   70.5210   52.8770   36.8050 H   0  0  0  0  0  0  0  0  0  0  0  0
   68.9740   53.0810   37.6670 H   0  0  0  0  0  0  0  0  0  0  0  0
   64.8790   60.2720   31.2540 O   0  0  0  0  0  0  0  0  0  0  0  0
   64.8920   61.4750   30.4730 C   0  0  2  0  0  3  0  0  0  0  0  0
   66.0160   61.7590   29.5610 C   0  0  0  0  0  2  0  0  0  0  0  0
   65.7960   62.5630   30.8250 C   0  0  1  0  0  3  0  0  0  0  0  0
   65.4310   63.9460   30.7880 N   0  0  0  0  0  0  0  0  0  0  0  0
   64.2000   64.3520   31.1410 C   0  0  0  0  0  3  0  0  0  0  0  0
   63.8160   65.6560   31.1200 C   0  0  0  0  0  0  0  0  0  0  0  0
   62.4610   66.1600   31.5010 C   0  0  0  0  0  1  0  0  0  0  0  0
   64.7120   66.6520   30.7170 C   0  0  0  0  0  0  0  0  0  0  0  0
   64.5040   67.8970   30.6450 O   0  0  0  0  0  0  0  0  0  0  0  0
   65.9530   66.2070   30.3640 N   0  0  0  0  0  0  0  0  0  0  0  0
   66.3030   64.9020   30.3990 C   0  0  0  0  0  0  0  0  0  0  0  0
   67.4480   64.5060   30.0710 O   0  0  0  0  0  0  0  0  0  0  0  0
   66.6540   66.8960   30.0590 H   0  0  0  0  0  0  0  0  0  0  0  0
  1  2  1  0  0  0  0
  2  3  2  0  0  0  0
  4  3  1  0  0  0  0
  4  5  1  0  0  0  0
  5 21  1  0  0  0  0
  6  4  2  0  0  0  0
  7  1  1  0  0  0  0
  7  6  1  0  0  0  0
  8  7  2  0  0  0  0
  9 10  1  0  0  0  0
 11 10  2  0  0  0  0
 11  1  1  0  0  0  0
 12 11  1  0  0  0  0
 13 14  1  0  0  0  0
 13 12  2  0  0  0  0
 14  9  2  0  0  0  0
 15 13  1  0  0  0  0
 16 15  1  0  0  0  0
 17 18  1  0  0  0  0
 17 16  2  0  0  0  0
 18 19  2  0  0  0  0
 19 15  1  0  0  0  0
 19 22  1  0  0  0  0
 20  5  1  0  0  0  0
 23 25  1  0  0  0  0
 23 22  1  1  0  0  0
 24 23  1  0  0  0  0
 25 24  1  6  0  0  0
 26 25  1  0  0  0  0
 26 27  1  0  0  0  0
 28 27  2  0  0  0  0
 28 29  1  0  0  0  0
 30 28  1  0  0  0  0
 31 30  2  0  0  0  0
 32 33  1  0  0  0  0
 32 30  1  0  0  0  0
 33 26  1  0  0  0  0
 34 33  2  0  0  0  0
 35 32  1  0  0  0  0
M  END
>  <minimizedAffinity>
-6.32935381

$$$$

 OpenBabel03242509383D

 35 39  0  0  1  0  0  0  0  0999 V2000
   67.6190   57.1660   33.6710 N   0  0  0  0  0  0  0  0  0  0  0  0
   68.5690   56.4510   33.0980 C   0  0  0  0  0  3  0  0  0  0  0  0
   69.1680   55.4710   33.8430 C   0  0  0  0  0  3  0  0  0  0  0  0
   68.7210   55.3150   35.1470 C   0  0  0  0  0  0  0  0  0  0  0  0
   69.3270   54.3040   35.9440 N   0  0  0  0  0  0  0  0  0  0  0  0
   67.7390   56.0760   35.6900 N   0  0  0  0  0  0  0  0  0  0  0  0
   67.1630   57.0340   34.9390 C   0  0  0  0  0  0  0  0  0  0  0  0
   66.2420   57.7670   35.4130 O   0  0  0  0  0  0  0  0  0  0  0  0
   65.0610   59.1440   31.7910 C   0  0  0  0  0  3  0  0  0  0  0  0
   65.6220   58.0970   32.5170 C   0  0  0  0  0  3  0  0  0  0  0  0
   66.9700   58.1990   32.9210 C   0  0  0  0  0  0  0  0  0  0  0  0
   67.6440   59.3280   32.5690 N   0  0  0  0  0  0  0  0  0  0  0  0
   67.0530   60.3120   31.8650 C   0  0  0  0  0  0  0  0  0  0  0  0
   65.7820   60.2270   31.4810 N   0  0  0  0  0  0  0  0  0  0  0  0
   67.9310   61.4080   31.6080 N   0  0  0  0  0  0  0  0  0  0  0  0
   68.5610   61.8240   32.7240 N   0  0  0  0  0  0  0  0  0  0  0  0
   69.3440   62.8820   32.3870 C   0  0  0  0  0  3  0  0  0  0  0  0
   69.1800   63.1080   31.0470 C   0  0  0  0  0  3  0  0  0  0  0  0
   68.2860   62.1680   30.5680 C   0  0  0  0  0  0  0  0  0  0  0  0
   69.0180   54.1610   36.9160 H   0  0  0  0  0  0  0  0  0  0  0  0
   70.0740   53.7150   35.5500 H   0  0  0  0  0  0  0  0  0  0  0  0
   67.7370   61.8690   29.4150 O   0  0  0  0  0  0  0  0  0  0  0  0
   66.5610   62.5550   28.9620 C   0  0  2  0  0  3  0  0  0  0  0  0
   66.6620   63.9130   28.3950 C   0  0  0  0  0  2  0  0  0  0  0  0
   66.0170   63.6600   29.7410 C   0  0  1  0  0  3  0  0  0  0  0  0
   64.6180   63.8690   29.9600 N   0  0  0  0  0  0  0  0  0  0  0  0
   63.6990   63.0530   29.4170 C   0  0  0  0  0  3  0  0  0  0  0  0
   62.3620   63.2170   29.6020 C   0  0  0  0  0  0  0  0  0  0  0  0
   61.2980   62.3410   29.0220 C   0  0  0  0  0  1  0  0  0  0  0  0
   61.8790   64.2710   30.3850 C   0  0  0  0  0  0  0  0  0  0  0  0
   60.6750   64.5530   30.6470 O   0  0  0  0  0  0  0  0  0  0  0  0
   62.8390   65.0820   30.9210 N   0  0  0  0  0  0  0  0  0  0  0  0
   64.1610   64.8880   30.7180 C   0  0  0  0  0  0  0  0  0  0  0  0
   65.0320   65.6420   31.2160 O   0  0  0  0  0  0  0  0  0  0  0  0
   62.5410   65.8750   31.5060 H   0  0  0  0  0  0  0  0  0  0  0  0
  1  7  1  0  0  0  0
  2  1  1  0  0  0  0
  2  3  2  0  0  0  0
  3  4  1  0  0  0  0
  4  6  2  0  0  0  0
  4  5  1  0  0  0  0
  5 20  1  0  0  0  0
  7  8  2  0  0  0  0
  7  6  1  0  0  0  0
  9 10  1  0  0  0  0
 10 11  2  0  0  0  0
 11  1  1  0  0  0  0
 12 11  1  0  0  0  0
 13 12  2  0  0  0  0
 14  9  2  0  0  0  0
 14 13  1  0  0  0  0
 15 13  1  0  0  0  0
 15 16  1  0  0  0  0
 17 16  2  0  0  0  0
 18 17  1  0  0  0  0
 19 18  2  0  0  0  0
 19 15  1  0  0  0  0
 21  5  1  0  0  0  0
 22 19  1  0  0  0  0
 23 22  1  1  0  0  0
 23 25  1  0  0  0  0
 24 23  1  0  0  0  0
 25 24  1  6  0  0  0
 25 26  1  0  0  0  0
 26 33  1  0  0  0  0
 27 28  2  0  0  0  0
 27 26  1  0  0  0  0
 28 30  1  0  0  0  0
 29 28  1  0  0  0  0
 30 31  2  0  0  0  0
 30 32  1  0  0  0  0
 32 35  1  0  0  0  0
 33 32  1  0  0  0  0
 33 34  2  0  0  0  0
M  END
>  <minimizedAffinity>
-6.32761574

$$$$
