
 OpenBabel03242509253D

 39 44  0  0  0  0  0  0  0  0999 V2000
   60.2900   62.1670   28.1370 C   0  0  0  0  0  0  0  0  0  0  0  0
   59.7930   62.7000   27.1240 O   0  0  0  0  0  0  0  0  0  0  0  0
   61.4330   64.5940   30.6050 C   0  0  0  0  0  3  0  0  0  0  0  0
   62.7650   64.2940   30.7730 C   0  0  0  0  0  3  0  0  0  0  0  0
   63.3040   63.2380   30.0320 C   0  0  0  0  0  0  0  0  0  0  0  0
   62.4740   62.5570   29.1760 N   0  0  0  0  0  0  0  0  0  0  0  0
   61.1510   62.8900   29.0390 C   0  0  0  0  0  0  0  0  0  0  0  0
   60.6710   63.8920   29.7530 N   0  0  0  0  0  0  0  0  0  0  0  0
   64.6140   62.7430   30.0240 N   0  0  0  0  0  0  0  0  0  0  0  0
   64.9310   61.7570   30.9090 C   0  0  0  0  0  3  0  0  0  0  0  0
   66.2400   61.4030   30.7590 N   0  0  0  0  0  0  0  0  0  0  0  0
   66.7750   62.1540   29.7770 C   0  0  0  0  0  0  0  0  0  0  0  0
   68.0040   62.3120   29.1320 C   0  0  0  0  0  0  0  0  0  0  0  0
   68.1770   63.2070   28.1470 N   0  0  0  0  0  0  0  0  0  0  0  0
   67.1170   63.9800   27.7720 C   0  0  0  0  0  3  0  0  0  0  0  0
   65.8940   63.8700   28.3640 N   0  0  0  0  0  0  0  0  0  0  0  0
   65.7580   62.9600   29.3520 C   0  0  0  0  0  0  0  0  0  0  0  0
   69.0540   61.4580   29.5940 N   0  0  0  0  0  0  0  0  0  0  0  0
   68.8740   60.7860   30.3540 H   0  0  0  0  0  0  0  0  0  0  0  0
   69.9890   61.5150   29.1670 H   0  0  0  0  0  0  0  0  0  0  0  0
   59.9530   60.8370   28.3240 O   0  0  0  0  0  0  0  0  0  0  0  0
   60.9240   58.5090   24.4530 N   0  0  0  0  0  0  0  0  0  0  0  0
   60.1010   59.5460   24.1860 C   0  0  0  0  0  3  0  0  0  0  0  0
   59.8710   60.1660   25.3590 N   0  0  0  0  0  0  0  0  0  0  0  0
   60.5380   59.5210   26.3200 C   0  0  0  0  0  0  0  0  0  0  0  0
   60.6000   59.7960   27.6750 C   0  0  0  0  0  0  0  0  0  0  0  0
   61.3680   58.9640   28.4310 N   0  0  0  0  0  0  0  0  0  0  0  0
   62.0300   57.9300   27.8850 C   0  0  0  0  0  0  0  0  0  0  0  0
   61.9540   57.6850   26.5690 N   0  0  0  0  0  0  0  0  0  0  0  0
   61.2110   58.4710   25.7600 C   0  0  0  0  0  0  0  0  0  0  0  0
   61.2800   57.8430   23.7520 H   0  0  0  0  0  0  0  0  0  0  0  0
   62.8330   57.1060   28.8540 C   0  0  0  0  0  2  0  0  0  0  0  0
   64.3090   57.4770   28.6950 C   0  0  0  0  0  2  0  0  0  0  0  0
   64.9050   57.5680   30.0540 C   0  0  0  0  0  0  0  0  0  0  0  0
   64.1790   58.1270   31.0800 C   0  0  0  0  0  3  0  0  0  0  0  0
   64.8410   58.1570   32.3050 C   0  0  0  0  0  3  0  0  0  0  0  0
   66.1130   57.6650   32.4440 C   0  0  0  0  0  3  0  0  0  0  0  0
   66.8020   57.1110   31.3730 C   0  0  0  0  0  3  0  0  0  0  0  0
   66.1520   57.0860   30.1920 N   0  0  0  0  0  0  0  0  0  0  0  0
  1 21  1  0  0  0  0
  1  7  1  0  0  0  0
  2  1  2  0  0  0  0
  3  4  1  0  0  0  0
  5  4  2  0  0  0  0
  6  5  1  0  0  0  0
  7  6  2  0  0  0  0
  7  8  1  0  0  0  0
  8  3  2  0  0  0  0
  9  5  1  0  0  0  0
  9 10  1  0  0  0  0
 11 10  2  0  0  0  0
 12 11  1  0  0  0  0
 13 18  1  0  0  0  0
 13 12  2  0  0  0  0
 14 13  1  0  0  0  0
 15 14  2  0  0  0  0
 15 16  1  0  0  0  0
 16 17  2  0  0  0  0
 17 12  1  0  0  0  0
 17  9  1  0  0  0  0
 18 19  1  0  0  0  0
 20 18  1  0  0  0  0
 22 30  1  0  0  0  0
 23 22  1  0  0  0  0
 23 24  2  0  0  0  0
 24 25  1  0  0  0  0
 25 26  1  0  0  0  0
 26 21  1  0  0  0  0
 26 27  2  0  0  0  0
 28 27  1  0  0  0  0
 28 32  1  0  0  0  0
 29 28  2  0  0  0  0
 30 25  2  0  0  0  0
 30 29  1  0  0  0  0
 31 22  1  0  0  0  0
 33 32  1  0  0  0  0
 33 34  1  0  0  0  0
 34 39  2  0  0  0  0
 34 35  1  0  0  0  0
 35 36  2  0  0  0  0
 36 37  1  0  0  0  0
 38 37  2  0  0  0  0
 39 38  1  0  0  0  0
M  END
>  <minimizedAffinity>
-7.6843338

$$$$

 OpenBabel03242509253D

 39 44  0  0  0  0  0  0  0  0999 V2000
   64.8160   57.5810   29.4000 C   0  0  0  0  0  0  0  0  0  0  0  0
   65.4420   57.1560   28.4080 O   0  0  0  0  0  0  0  0  0  0  0  0
   65.4890   60.2990   31.7350 C   0  0  0  0  0  3  0  0  0  0  0  0
   66.6350   59.9020   32.3820 C   0  0  0  0  0  3  0  0  0  0  0  0
   67.2080   58.6780   32.0260 C   0  0  0  0  0  0  0  0  0  0  0  0
   66.5930   57.9370   31.0480 N   0  0  0  0  0  0  0  0  0  0  0  0
   65.4510   58.3700   30.4260 C   0  0  0  0  0  0  0  0  0  0  0  0
   64.9340   59.5310   30.7850 N   0  0  0  0  0  0  0  0  0  0  0  0
   68.3590   58.0610   32.5310 N   0  0  0  0  0  0  0  0  0  0  0  0
   69.5680   58.6000   32.2120 C   0  0  0  0  0  3  0  0  0  0  0  0
   70.5670   57.8710   32.7880 N   0  0  0  0  0  0  0  0  0  0  0  0
   70.0120   56.8610   33.4830 C   0  0  0  0  0  0  0  0  0  0  0  0
   70.4220   55.7860   34.2760 C   0  0  0  0  0  0  0  0  0  0  0  0
   69.5420   54.9410   34.8340 N   0  0  0  0  0  0  0  0  0  0  0  0
   68.2100   55.1440   34.6150 C   0  0  0  0  0  3  0  0  0  0  0  0
   67.7500   56.1760   33.8510 N   0  0  0  0  0  0  0  0  0  0  0  0
   68.6650   57.0050   33.3050 C   0  0  0  0  0  0  0  0  0  0  0  0
   71.8350   55.6550   34.4480 N   0  0  0  0  0  0  0  0  0  0  0  0
   72.4730   56.3290   34.0000 H   0  0  0  0  0  0  0  0  0  0  0  0
   72.2150   54.8880   35.0210 H   0  0  0  0  0  0  0  0  0  0  0  0
   63.4750   57.2390   29.4370 O   0  0  0  0  0  0  0  0  0  0  0  0
   61.0860   57.3040   25.4830 N   0  0  0  0  0  0  0  0  0  0  0  0
   61.9340   56.2520   25.5050 C   0  0  0  0  0  3  0  0  0  0  0  0
   62.5850   56.3090   26.6820 N   0  0  0  0  0  0  0  0  0  0  0  0
   62.1440   57.3700   27.3630 C   0  0  0  0  0  0  0  0  0  0  0  0
   62.5230   57.8230   28.6140 C   0  0  0  0  0  0  0  0  0  0  0  0
   61.9000   58.9450   29.0710 N   0  0  0  0  0  0  0  0  0  0  0  0
   60.9660   59.5750   28.3400 C   0  0  0  0  0  0  0  0  0  0  0  0
   60.6160   59.1160   27.1300 N   0  0  0  0  0  0  0  0  0  0  0  0
   61.1930   58.0080   26.6160 C   0  0  0  0  0  0  0  0  0  0  0  0
   60.4480   57.5300   24.7060 H   0  0  0  0  0  0  0  0  0  0  0  0
   60.3730   60.7990   28.9840 C   0  0  0  0  0  2  0  0  0  0  0  0
   60.8070   62.0260   28.1810 C   0  0  0  0  0  2  0  0  0  0  0  0
   61.4340   62.9890   29.1230 C   0  0  0  0  0  0  0  0  0  0  0  0
   60.7020   64.0530   29.5970 C   0  0  0  0  0  3  0  0  0  0  0  0
   61.3960   64.8860   30.4710 C   0  0  0  0  0  3  0  0  0  0  0  0
   62.7020   64.6400   30.8110 C   0  0  0  0  0  3  0  0  0  0  0  0
   63.3940   63.5500   30.3030 C   0  0  0  0  0  3  0  0  0  0  0  0
   62.7140   62.7490   29.4570 N   0  0  0  0  0  0  0  0  0  0  0  0
  1 21  1  0  0  0  0
  1  7  1  0  0  0  0
  2  1  2  0  0  0  0
  3  4  1  0  0  0  0
  5  4  2  0  0  0  0
  5  9  1  0  0  0  0
  6  5  1  0  0  0  0
  7  8  1  0  0  0  0
  7  6  2  0  0  0  0
  8  3  2  0  0  0  0
  9 17  1  0  0  0  0
 10  9  1  0  0  0  0
 10 11  2  0  0  0  0
 11 12  1  0  0  0  0
 12 13  1  0  0  0  0
 13 18  1  0  0  0  0
 13 14  2  0  0  0  0
 15 14  1  0  0  0  0
 16 15  2  0  0  0  0
 17 12  2  0  0  0  0
 17 16  1  0  0  0  0
 18 20  1  0  0  0  0
 19 18  1  0  0  0  0
 22 23  1  0  0  0  0
 22 30  1  0  0  0  0
 23 24  2  0  0  0  0
 24 25  1  0  0  0  0
 25 26  1  0  0  0  0
 26 27  2  0  0  0  0
 26 21  1  0  0  0  0
 28 32  1  0  0  0  0
 28 27  1  0  0  0  0
 29 28  2  0  0  0  0
 30 29  1  0  0  0  0
 30 25  2  0  0  0  0
 31 22  1  0  0  0  0
 33 32  1  0  0  0  0
 33 34  1  0  0  0  0
 34 39  2  0  0  0  0
 34 35  1  0  0  0  0
 35 36  2  0  0  0  0
 36 37  1  0  0  0  0
 38 37  2  0  0  0  0
 39 38  1  0  0  0  0
M  END
>  <minimizedAffinity>
-7.50578022

$$$$

 OpenBabel03242509253D

 39 44  0  0  0  0  0  0  0  0999 V2000
   65.2060   61.8720   31.2910 C   0  0  0  0  0  0  0  0  0  0  0  0
   65.4150   62.4420   32.3810 O   0  0  0  0  0  0  0  0  0  0  0  0
   66.6120   58.5320   31.6940 C   0  0  0  0  0  3  0  0  0  0  0  0
   65.9160   57.7680   30.7870 C   0  0  0  0  0  3  0  0  0  0  0  0
   64.9370   58.3930   30.0090 C   0  0  0  0  0  0  0  0  0  0  0  0
   64.7230   59.7360   30.1930 N   0  0  0  0  0  0  0  0  0  0  0  0
   65.4410   60.4610   31.1080 C   0  0  0  0  0  0  0  0  0  0  0  0
   66.3590   59.8430   31.8280 N   0  0  0  0  0  0  0  0  0  0  0  0
   64.1020   57.8400   29.0290 N   0  0  0  0  0  0  0  0  0  0  0  0
   62.7600   57.8290   29.2630 C   0  0  0  0  0  3  0  0  0  0  0  0
   62.1110   57.2560   28.2080 N   0  0  0  0  0  0  0  0  0  0  0  0
   63.0260   56.8970   27.2880 C   0  0  0  0  0  0  0  0  0  0  0  0
   63.0630   56.2910   26.0300 C   0  0  0  0  0  0  0  0  0  0  0  0
   64.2170   56.0830   25.3770 N   0  0  0  0  0  0  0  0  0  0  0  0
   65.3830   56.4780   25.9670 C   0  0  0  0  0  3  0  0  0  0  0  0
   65.4090   57.0740   27.1930 N   0  0  0  0  0  0  0  0  0  0  0  0
   64.2290   57.2670   27.8200 C   0  0  0  0  0  0  0  0  0  0  0  0
   61.7930   55.9140   25.4930 N   0  0  0  0  0  0  0  0  0  0  0  0
   60.9320   56.0940   26.0310 H   0  0  0  0  0  0  0  0  0  0  0  0
   61.7380   55.4620   24.5690 H   0  0  0  0  0  0  0  0  0  0  0  0
   64.7360   62.6920   30.2800 O   0  0  0  0  0  0  0  0  0  0  0  0
   61.8370   65.8170   32.0630 N   0  0  0  0  0  0  0  0  0  0  0  0
   63.0420   65.8910   32.6710 C   0  0  0  0  0  3  0  0  0  0  0  0
   63.8190   64.9540   32.0950 N   0  0  0  0  0  0  0  0  0  0  0  0
   63.1060   64.3230   31.1580 C   0  0  0  0  0  0  0  0  0  0  0  0
   63.4870   63.2940   30.3160 C   0  0  0  0  0  0  0  0  0  0  0  0
   62.5430   62.8370   29.4460 N   0  0  0  0  0  0  0  0  0  0  0  0
   61.3080   63.3620   29.4130 C   0  0  0  0  0  0  0  0  0  0  0  0
   60.9630   64.3590   30.2390 N   0  0  0  0  0  0  0  0  0  0  0  0
   61.8490   64.8610   31.1270 C   0  0  0  0  0  0  0  0  0  0  0  0
   61.0260   66.4110   32.2890 H   0  0  0  0  0  0  0  0  0  0  0  0
   60.3830   62.7470   28.3960 C   0  0  0  0  0  2  0  0  0  0  0  0
   60.8030   61.2920   28.1810 C   0  0  0  0  0  2  0  0  0  0  0  0
   60.2780   60.8580   26.8590 C   0  0  0  0  0  0  0  0  0  0  0  0
   60.5990   59.6120   26.3750 C   0  0  0  0  0  3  0  0  0  0  0  0
   60.0500   59.3190   25.1290 C   0  0  0  0  0  3  0  0  0  0  0  0
   59.2590   60.2210   24.4640 C   0  0  0  0  0  3  0  0  0  0  0  0
   58.9660   61.4670   25.0000 C   0  0  0  0  0  3  0  0  0  0  0  0
   59.5020   61.7420   26.2070 N   0  0  0  0  0  0  0  0  0  0  0  0
  1  2  2  0  0  0  0
  3  8  2  0  0  0  0
  4  3  1  0  0  0  0
  5  6  1  0  0  0  0
  5  4  2  0  0  0  0
  6  7  2  0  0  0  0
  7  1  1  0  0  0  0
  7  8  1  0  0  0  0
  9 10  1  0  0  0  0
  9  5  1  0  0  0  0
 11 10  2  0  0  0  0
 12 17  1  0  0  0  0
 12 11  1  0  0  0  0
 13 12  2  0  0  0  0
 14 15  2  0  0  0  0
 14 13  1  0  0  0  0
 15 16  1  0  0  0  0
 16 17  2  0  0  0  0
 17  9  1  0  0  0  0
 18 13  1  0  0  0  0
 18 19  1  0  0  0  0
 20 18  1  0  0  0  0
 21 26  1  0  0  0  0
 21  1  1  0  0  0  0
 22 31  1  0  0  0  0
 22 23  1  0  0  0  0
 24 23  2  0  0  0  0
 25 24  1  0  0  0  0
 26 25  1  0  0  0  0
 27 26  2  0  0  0  0
 28 27  1  0  0  0  0
 28 29  2  0  0  0  0
 29 30  1  0  0  0  0
 30 25  2  0  0  0  0
 30 22  1  0  0  0  0
 32 28  1  0  0  0  0
 33 32  1  0  0  0  0
 34 33  1  0  0  0  0
 35 34  1  0  0  0  0
 36 35  2  0  0  0  0
 37 38  2  0  0  0  0
 37 36  1  0  0  0  0
 38 39  1  0  0  0  0
 39 34  2  0  0  0  0
M  END
>  <minimizedAffinity>
-7.30413103

$$$$

 OpenBabel03242509253D

 39 44  0  0  0  0  0  0  0  0999 V2000
   68.8520   60.9020   30.9740 C   0  0  0  0  0  0  0  0  0  0  0  0
   69.9860   60.4410   30.7360 O   0  0  0  0  0  0  0  0  0  0  0  0
   68.3570   63.3440   28.3120 C   0  0  0  0  0  3  0  0  0  0  0  0
   67.2270   64.0260   28.6960 C   0  0  0  0  0  3  0  0  0  0  0  0
   66.6030   63.6570   29.8910 C   0  0  0  0  0  0  0  0  0  0  0  0
   67.1540   62.6320   30.6180 N   0  0  0  0  0  0  0  0  0  0  0  0
   68.2840   61.9780   30.2000 C   0  0  0  0  0  0  0  0  0  0  0  0
   68.8500   62.3490   29.0660 N   0  0  0  0  0  0  0  0  0  0  0  0
   65.4550   64.1910   30.4890 N   0  0  0  0  0  0  0  0  0  0  0  0
   65.6180   65.1280   31.4660 C   0  0  0  0  0  3  0  0  0  0  0  0
   64.3990   65.5300   31.9290 N   0  0  0  0  0  0  0  0  0  0  0  0
   63.4440   64.8590   31.2570 C   0  0  0  0  0  0  0  0  0  0  0  0
   62.0500   64.7790   31.2200 C   0  0  0  0  0  0  0  0  0  0  0  0
   61.4090   63.9550   30.3770 N   0  0  0  0  0  0  0  0  0  0  0  0
   62.1490   63.1760   29.5350 C   0  0  0  0  0  3  0  0  0  0  0  0
   63.5120   63.2110   29.5260 N   0  0  0  0  0  0  0  0  0  0  0  0
   64.1220   64.0520   30.3880 C   0  0  0  0  0  0  0  0  0  0  0  0
   61.3620   65.6330   32.1380 N   0  0  0  0  0  0  0  0  0  0  0  0
   61.8970   66.2500   32.7670 H   0  0  0  0  0  0  0  0  0  0  0  0
   60.3330   65.6320   32.1700 H   0  0  0  0  0  0  0  0  0  0  0  0
   68.1870   60.3050   32.0320 O   0  0  0  0  0  0  0  0  0  0  0  0
   68.3600   55.8010   33.0480 N   0  0  0  0  0  0  0  0  0  0  0  0
   69.4290   56.4440   33.5690 C   0  0  0  0  0  3  0  0  0  0  0  0
   69.3000   57.7410   33.2280 N   0  0  0  0  0  0  0  0  0  0  0  0
   68.1790   57.8850   32.5160 C   0  0  0  0  0  0  0  0  0  0  0  0
   67.6420   59.0310   31.9580 C   0  0  0  0  0  0  0  0  0  0  0  0
   66.4710   58.8870   31.2760 N   0  0  0  0  0  0  0  0  0  0  0  0
   65.8740   57.6900   31.1550 C   0  0  0  0  0  0  0  0  0  0  0  0
   66.4140   56.5940   31.7060 N   0  0  0  0  0  0  0  0  0  0  0  0
   67.5730   56.6650   32.3960 C   0  0  0  0  0  0  0  0  0  0  0  0
   68.1780   54.7910   33.1410 H   0  0  0  0  0  0  0  0  0  0  0  0
   64.5890   57.6970   30.3720 C   0  0  0  0  0  2  0  0  0  0  0  0
   64.9260   57.8820   28.8920 C   0  0  0  0  0  2  0  0  0  0  0  0
   63.9360   57.1070   28.0980 C   0  0  0  0  0  0  0  0  0  0  0  0
   62.9460   56.4060   28.7440 C   0  0  0  0  0  3  0  0  0  0  0  0
   62.0790   55.7190   27.8960 C   0  0  0  0  0  3  0  0  0  0  0  0
   62.2300   55.7580   26.5340 C   0  0  0  0  0  3  0  0  0  0  0  0
   63.2490   56.4830   25.9340 C   0  0  0  0  0  3  0  0  0  0  0  0
   64.0830   57.1450   26.7620 N   0  0  0  0  0  0  0  0  0  0  0  0
  1 21  1  0  0  0  0
  2  1  2  0  0  0  0
  3  4  1  0  0  0  0
  3  8  2  0  0  0  0
  4  5  2  0  0  0  0
  5  9  1  0  0  0  0
  5  6  1  0  0  0  0
  7  6  2  0  0  0  0
  7  1  1  0  0  0  0
  8  7  1  0  0  0  0
  9 10  1  0  0  0  0
 10 11  2  0  0  0  0
 12 11  1  0  0  0  0
 13 12  1  0  0  0  0
 13 18  1  0  0  0  0
 14 13  2  0  0  0  0
 15 14  1  0  0  0  0
 16 15  2  0  0  0  0
 16 17  1  0  0  0  0
 17  9  1  0  0  0  0
 17 12  2  0  0  0  0
 18 20  1  0  0  0  0
 18 19  1  0  0  0  0
 22 31  1  0  0  0  0
 22 23  1  0  0  0  0
 24 23  2  0  0  0  0
 25 24  1  0  0  0  0
 26 21  1  0  0  0  0
 26 25  1  0  0  0  0
 27 26  2  0  0  0  0
 28 27  1  0  0  0  0
 28 29  2  0  0  0  0
 29 30  1  0  0  0  0
 30 25  2  0  0  0  0
 30 22  1  0  0  0  0
 32 28  1  0  0  0  0
 33 32  1  0  0  0  0
 34 35  1  0  0  0  0
 34 33  1  0  0  0  0
 36 35  2  0  0  0  0
 37 36  1  0  0  0  0
 38 37  2  0  0  0  0
 38 39  1  0  0  0  0
 39 34  2  0  0  0  0
M  END
>  <minimizedAffinity>
-7.21093893

$$$$

 OpenBabel03242509253D

 39 44  0  0  0  0  0  0  0  0999 V2000
   64.7180   57.6480   29.5140 C   0  0  0  0  0  0  0  0  0  0  0  0
   65.4410   57.1760   28.6130 O   0  0  0  0  0  0  0  0  0  0  0  0
   65.8370   58.9130   32.7460 C   0  0  0  0  0  3  0  0  0  0  0  0
   66.2240   60.2050   32.4790 C   0  0  0  0  0  3  0  0  0  0  0  0
   66.1080   60.6740   31.1670 C   0  0  0  0  0  0  0  0  0  0  0  0
   65.6130   59.8180   30.2150 N   0  0  0  0  0  0  0  0  0  0  0  0
   65.2370   58.5370   30.5240 C   0  0  0  0  0  0  0  0  0  0  0  0
   65.3590   58.1230   31.7720 N   0  0  0  0  0  0  0  0  0  0  0  0
   66.4320   61.9340   30.6480 N   0  0  0  0  0  0  0  0  0  0  0  0
   66.8030   62.0110   29.3390 C   0  0  0  0  0  3  0  0  0  0  0  0
   67.0800   63.3070   29.0120 N   0  0  0  0  0  0  0  0  0  0  0  0
   66.8880   64.0730   30.1030 C   0  0  0  0  0  0  0  0  0  0  0  0
   66.9810   65.4180   30.4660 C   0  0  0  0  0  0  0  0  0  0  0  0
   66.6980   65.8380   31.7090 N   0  0  0  0  0  0  0  0  0  0  0  0
   66.3100   64.9160   32.6390 C   0  0  0  0  0  3  0  0  0  0  0  0
   66.2010   63.5900   32.3420 N   0  0  0  0  0  0  0  0  0  0  0  0
   66.4940   63.2050   31.0810 C   0  0  0  0  0  0  0  0  0  0  0  0
   67.3940   66.3080   29.4260 N   0  0  0  0  0  0  0  0  0  0  0  0
   67.6010   65.9400   28.4860 H   0  0  0  0  0  0  0  0  0  0  0  0
   67.4850   67.3160   29.6160 H   0  0  0  0  0  0  0  0  0  0  0  0
   63.3920   57.2550   29.4690 O   0  0  0  0  0  0  0  0  0  0  0  0
   61.1800   57.2410   25.4120 N   0  0  0  0  0  0  0  0  0  0  0  0
   62.0450   56.2040   25.4820 C   0  0  0  0  0  3  0  0  0  0  0  0
   62.6410   56.2830   26.6870 N   0  0  0  0  0  0  0  0  0  0  0  0
   62.1530   57.3430   27.3370 C   0  0  0  0  0  0  0  0  0  0  0  0
   62.4680   57.8150   28.5980 C   0  0  0  0  0  0  0  0  0  0  0  0
   61.8060   58.9300   29.0150 N   0  0  0  0  0  0  0  0  0  0  0  0
   60.8950   59.5370   28.2370 C   0  0  0  0  0  0  0  0  0  0  0  0
   60.6070   59.0600   27.0180 N   0  0  0  0  0  0  0  0  0  0  0  0
   61.2260   57.9580   26.5420 C   0  0  0  0  0  0  0  0  0  0  0  0
   60.5740   57.4490   24.6050 H   0  0  0  0  0  0  0  0  0  0  0  0
   60.2530   60.7560   28.8420 C   0  0  0  0  0  2  0  0  0  0  0  0
   60.6960   61.9820   28.0410 C   0  0  0  0  0  2  0  0  0  0  0  0
   61.2720   62.9660   28.9960 C   0  0  0  0  0  0  0  0  0  0  0  0
   60.5030   64.0160   29.4370 C   0  0  0  0  0  3  0  0  0  0  0  0
   61.1500   64.8700   30.3270 C   0  0  0  0  0  3  0  0  0  0  0  0
   62.4490   64.6560   30.7100 C   0  0  0  0  0  3  0  0  0  0  0  0
   63.1810   63.5780   30.2320 C   0  0  0  0  0  3  0  0  0  0  0  0
   62.5460   62.7560   29.3720 N   0  0  0  0  0  0  0  0  0  0  0  0
  1  7  1  0  0  0  0
  2  1  2  0  0  0  0
  4  3  1  0  0  0  0
  5  4  2  0  0  0  0
  6  7  2  0  0  0  0
  6  5  1  0  0  0  0
  7  8  1  0  0  0  0
  8  3  2  0  0  0  0
  9 17  1  0  0  0  0
  9  5  1  0  0  0  0
 10  9  1  0  0  0  0
 11 10  2  0  0  0  0
 11 12  1  0  0  0  0
 12 13  2  0  0  0  0
 12 17  1  0  0  0  0
 13 14  1  0  0  0  0
 14 15  2  0  0  0  0
 16 15  1  0  0  0  0
 17 16  2  0  0  0  0
 18 20  1  0  0  0  0
 18 13  1  0  0  0  0
 19 18  1  0  0  0  0
 21  1  1  0  0  0  0
 22 23  1  0  0  0  0
 22 30  1  0  0  0  0
 23 24  2  0  0  0  0
 24 25  1  0  0  0  0
 25 26  1  0  0  0  0
 26 27  2  0  0  0  0
 26 21  1  0  0  0  0
 28 32  1  0  0  0  0
 28 27  1  0  0  0  0
 29 28  2  0  0  0  0
 30 29  1  0  0  0  0
 30 25  2  0  0  0  0
 31 22  1  0  0  0  0
 33 32  1  0  0  0  0
 33 34  1  0  0  0  0
 34 39  2  0  0  0  0
 34 35  1  0  0  0  0
 35 36  2  0  0  0  0
 36 37  1  0  0  0  0
 38 37  2  0  0  0  0
 39 38  1  0  0  0  0
M  END
>  <minimizedAffinity>
-6.95892143

$$$$

 OpenBabel03242509253D

 39 44  0  0  0  0  0  0  0  0999 V2000
   66.3950   61.5370   32.0040 C   0  0  0  0  0  0  0  0  0  0  0  0
   67.3500   61.5800   32.8050 O   0  0  0  0  0  0  0  0  0  0  0  0
   65.0230   63.4670   29.2320 C   0  0  0  0  0  3  0  0  0  0  0  0
   66.1240   64.0750   28.6760 C   0  0  0  0  0  3  0  0  0  0  0  0
   67.3750   63.8320   29.2480 C   0  0  0  0  0  0  0  0  0  0  0  0
   67.4380   62.9990   30.3370 N   0  0  0  0  0  0  0  0  0  0  0  0
   66.3150   62.4110   30.8600 C   0  0  0  0  0  0  0  0  0  0  0  0
   65.1470   62.6610   30.2970 N   0  0  0  0  0  0  0  0  0  0  0  0
   68.6300   64.3270   28.8720 N   0  0  0  0  0  0  0  0  0  0  0  0
   69.5960   63.4290   28.5280 C   0  0  0  0  0  3  0  0  0  0  0  0
   70.7430   64.0890   28.1940 N   0  0  0  0  0  0  0  0  0  0  0  0
   70.5260   65.4120   28.3160 C   0  0  0  0  0  0  0  0  0  0  0  0
   71.2270   66.6080   28.1440 C   0  0  0  0  0  0  0  0  0  0  0  0
   70.6580   67.8010   28.3730 N   0  0  0  0  0  0  0  0  0  0  0  0
   69.3580   67.8390   28.7870 C   0  0  0  0  0  3  0  0  0  0  0  0
   68.6240   66.7050   28.9720 N   0  0  0  0  0  0  0  0  0  0  0  0
   69.2290   65.5220   28.7320 C   0  0  0  0  0  0  0  0  0  0  0  0
   72.5820   66.4670   27.7090 N   0  0  0  0  0  0  0  0  0  0  0  0
   72.9750   65.5290   27.5450 H   0  0  0  0  0  0  0  0  0  0  0  0
   73.1630   67.3040   27.5580 H   0  0  0  0  0  0  0  0  0  0  0  0
   65.4250   60.5940   32.2980 O   0  0  0  0  0  0  0  0  0  0  0  0
   66.9370   56.2840   31.5990 N   0  0  0  0  0  0  0  0  0  0  0  0
   67.6780   56.8960   32.5480 C   0  0  0  0  0  3  0  0  0  0  0  0
   67.1740   58.1370   32.6880 N   0  0  0  0  0  0  0  0  0  0  0  0
   66.1480   58.2790   31.8440 C   0  0  0  0  0  0  0  0  0  0  0  0
   65.3320   59.3770   31.6390 C   0  0  0  0  0  0  0  0  0  0  0  0
   64.3500   59.2410   30.7040 N   0  0  0  0  0  0  0  0  0  0  0  0
   64.1880   58.0970   30.0190 C   0  0  0  0  0  0  0  0  0  0  0  0
   64.9920   57.0470   30.2360 N   0  0  0  0  0  0  0  0  0  0  0  0
   65.9860   57.1120   31.1490 C   0  0  0  0  0  0  0  0  0  0  0  0
   67.0820   55.3190   31.2690 H   0  0  0  0  0  0  0  0  0  0  0  0
   63.0600   58.1070   29.0230 C   0  0  0  0  0  2  0  0  0  0  0  0
   63.0560   56.7670   28.2850 C   0  0  0  0  0  2  0  0  0  0  0  0
   62.0330   56.8430   27.2090 C   0  0  0  0  0  0  0  0  0  0  0  0
   61.5990   55.6890   26.6010 C   0  0  0  0  0  3  0  0  0  0  0  0
   60.6400   55.8860   25.6090 C   0  0  0  0  0  3  0  0  0  0  0  0
   60.1890   57.1410   25.2880 C   0  0  0  0  0  3  0  0  0  0  0  0
   60.6630   58.2730   25.9350 C   0  0  0  0  0  3  0  0  0  0  0  0
   61.5890   58.0730   26.8940 N   0  0  0  0  0  0  0  0  0  0  0  0
  1 21  1  0  0  0  0
  1  2  2  0  0  0  0
  3  8  2  0  0  0  0
  4  3  1  0  0  0  0
  4  5  2  0  0  0  0
  5  6  1  0  0  0  0
  6  7  2  0  0  0  0
  7  1  1  0  0  0  0
  8  7  1  0  0  0  0
  9  5  1  0  0  0  0
 10  9  1  0  0  0  0
 11 12  1  0  0  0  0
 11 10  2  0  0  0  0
 12 17  1  0  0  0  0
 13 12  2  0  0  0  0
 13 14  1  0  0  0  0
 14 15  2  0  0  0  0
 15 16  1  0  0  0  0
 17  9  1  0  0  0  0
 17 16  2  0  0  0  0
 18 13  1  0  0  0  0
 19 18  1  0  0  0  0
 20 18  1  0  0  0  0
 22 23  1  0  0  0  0
 23 24  2  0  0  0  0
 25 24  1  0  0  0  0
 26 25  1  0  0  0  0
 26 21  1  0  0  0  0
 27 26  2  0  0  0  0
 28 29  2  0  0  0  0
 28 27  1  0  0  0  0
 29 30  1  0  0  0  0
 30 22  1  0  0  0  0
 30 25  2  0  0  0  0
 31 22  1  0  0  0  0
 32 28  1  0  0  0  0
 33 32  1  0  0  0  0
 34 33  1  0  0  0  0
 35 34  2  0  0  0  0
 36 35  1  0  0  0  0
 37 36  2  0  0  0  0
 37 38  1  0  0  0  0
 38 39  2  0  0  0  0
 39 34  1  0  0  0  0
M  END
>  <minimizedAffinity>
-6.93688726

$$$$

 OpenBabel03242509253D

 39 44  0  0  0  0  0  0  0  0999 V2000
   68.4720   61.1320   30.9330 C   0  0  0  0  0  0  0  0  0  0  0  0
   69.6630   60.8290   30.7180 O   0  0  0  0  0  0  0  0  0  0  0  0
   67.5830   63.2770   28.1220 C   0  0  0  0  0  3  0  0  0  0  0  0
   66.4560   63.9370   28.5530 C   0  0  0  0  0  3  0  0  0  0  0  0
   65.9730   63.6550   29.8330 C   0  0  0  0  0  0  0  0  0  0  0  0
   66.6490   62.7330   30.5930 N   0  0  0  0  0  0  0  0  0  0  0  0
   67.7710   62.0980   30.1250 C   0  0  0  0  0  0  0  0  0  0  0  0
   68.2030   62.3860   28.9100 N   0  0  0  0  0  0  0  0  0  0  0  0
   64.8570   64.1860   30.4930 N   0  0  0  0  0  0  0  0  0  0  0  0
   63.6270   63.7050   30.1610 C   0  0  0  0  0  3  0  0  0  0  0  0
   62.6680   64.3360   30.8990 N   0  0  0  0  0  0  0  0  0  0  0  0
   63.2710   65.2240   31.7120 C   0  0  0  0  0  0  0  0  0  0  0  0
   62.9160   66.1610   32.6850 C   0  0  0  0  0  0  0  0  0  0  0  0
   63.8330   66.9070   33.3190 N   0  0  0  0  0  0  0  0  0  0  0  0
   65.1490   66.7400   32.9960 C   0  0  0  0  0  3  0  0  0  0  0  0
   65.5560   65.8400   32.0560 N   0  0  0  0  0  0  0  0  0  0  0  0
   64.6040   65.1080   31.4390 C   0  0  0  0  0  0  0  0  0  0  0  0
   61.5150   66.2650   32.9540 N   0  0  0  0  0  0  0  0  0  0  0  0
   60.8470   65.6710   32.4420 H   0  0  0  0  0  0  0  0  0  0  0  0
   61.1750   66.9330   33.6600 H   0  0  0  0  0  0  0  0  0  0  0  0
   67.8820   60.4740   31.9980 O   0  0  0  0  0  0  0  0  0  0  0  0
   68.4200   55.9950   32.9960 N   0  0  0  0  0  0  0  0  0  0  0  0
   69.4380   56.7190   33.5120 C   0  0  0  0  0  3  0  0  0  0  0  0
   69.2040   58.0020   33.1770 N   0  0  0  0  0  0  0  0  0  0  0  0
   68.0700   58.0600   32.4740 C   0  0  0  0  0  0  0  0  0  0  0  0
   67.4390   59.1610   31.9240 C   0  0  0  0  0  0  0  0  0  0  0  0
   66.2790   58.9260   31.2500 N   0  0  0  0  0  0  0  0  0  0  0  0
   65.7780   57.6860   31.1280 C   0  0  0  0  0  0  0  0  0  0  0  0
   66.4070   56.6350   31.6710 N   0  0  0  0  0  0  0  0  0  0  0  0
   67.5620   56.7960   32.3530 C   0  0  0  0  0  0  0  0  0  0  0  0
   68.3190   54.9730   33.0850 H   0  0  0  0  0  0  0  0  0  0  0  0
   64.4900   57.5940   30.3540 C   0  0  0  0  0  2  0  0  0  0  0  0
   64.7820   57.9280   28.8900 C   0  0  0  0  0  2  0  0  0  0  0  0
   63.8670   57.1140   28.0470 C   0  0  0  0  0  0  0  0  0  0  0  0
   63.9910   57.1510   26.6780 C   0  0  0  0  0  3  0  0  0  0  0  0
   63.0790   56.3480   25.9960 C   0  0  0  0  0  3  0  0  0  0  0  0
   62.1460   55.5970   26.6630 C   0  0  0  0  0  3  0  0  0  0  0  0
   62.0650   55.5980   28.0480 C   0  0  0  0  0  3  0  0  0  0  0  0
   62.9510   56.3770   28.7000 N   0  0  0  0  0  0  0  0  0  0  0  0
  1 21  1  0  0  0  0
  2  1  2  0  0  0  0
  3  4  1  0  0  0  0
  3  8  2  0  0  0  0
  4  5  2  0  0  0  0
  5  9  1  0  0  0  0
  5  6  1  0  0  0  0
  7  6  2  0  0  0  0
  7  1  1  0  0  0  0
  8  7  1  0  0  0  0
  9 17  1  0  0  0  0
 10  9  1  0  0  0  0
 10 11  2  0  0  0  0
 11 12  1  0  0  0  0
 12 13  1  0  0  0  0
 13 18  1  0  0  0  0
 13 14  2  0  0  0  0
 15 14  1  0  0  0  0
 16 15  2  0  0  0  0
 17 12  2  0  0  0  0
 17 16  1  0  0  0  0
 18 20  1  0  0  0  0
 19 18  1  0  0  0  0
 22 31  1  0  0  0  0
 22 23  1  0  0  0  0
 24 23  2  0  0  0  0
 25 24  1  0  0  0  0
 26 21  1  0  0  0  0
 26 25  1  0  0  0  0
 27 26  2  0  0  0  0
 28 27  1  0  0  0  0
 28 29  2  0  0  0  0
 29 30  1  0  0  0  0
 30 25  2  0  0  0  0
 30 22  1  0  0  0  0
 32 28  1  0  0  0  0
 33 32  1  0  0  0  0
 34 39  1  0  0  0  0
 34 33  1  0  0  0  0
 35 34  2  0  0  0  0
 36 37  2  0  0  0  0
 36 35  1  0  0  0  0
 37 38  1  0  0  0  0
 38 39  2  0  0  0  0
M  END
>  <minimizedAffinity>
-6.93679523

$$$$

 OpenBabel03242509253D

 39 44  0  0  0  0  0  0  0  0999 V2000
   65.6300   62.0800   30.5400 C   0  0  0  0  0  0  0  0  0  0  0  0
   66.4880   61.7910   29.6820 O   0  0  0  0  0  0  0  0  0  0  0  0
   65.2670   65.6900   30.1790 C   0  0  0  0  0  3  0  0  0  0  0  0
   64.4800   66.0510   31.2470 C   0  0  0  0  0  3  0  0  0  0  0  0
   64.0520   65.0510   32.1230 C   0  0  0  0  0  0  0  0  0  0  0  0
   64.4410   63.7590   31.8710 N   0  0  0  0  0  0  0  0  0  0  0  0
   65.2280   63.4410   30.7940 C   0  0  0  0  0  0  0  0  0  0  0  0
   65.6160   64.4090   29.9840 N   0  0  0  0  0  0  0  0  0  0  0  0
   63.2530   65.1620   33.2680 N   0  0  0  0  0  0  0  0  0  0  0  0
   63.3210   64.1670   34.1960 C   0  0  0  0  0  3  0  0  0  0  0  0
   62.4800   64.4430   35.2350 N   0  0  0  0  0  0  0  0  0  0  0  0
   61.8670   65.6160   34.9860 C   0  0  0  0  0  0  0  0  0  0  0  0
   60.9300   66.4560   35.5920 C   0  0  0  0  0  0  0  0  0  0  0  0
   60.5350   67.6050   35.0230 N   0  0  0  0  0  0  0  0  0  0  0  0
   61.0680   67.9540   33.8160 C   0  0  0  0  0  3  0  0  0  0  0  0
   61.9870   67.1750   33.1770 N   0  0  0  0  0  0  0  0  0  0  0  0
   62.3600   66.0270   33.7810 C   0  0  0  0  0  0  0  0  0  0  0  0
   60.4280   66.0060   36.8540 N   0  0  0  0  0  0  0  0  0  0  0  0
   60.7610   65.1160   37.2530 H   0  0  0  0  0  0  0  0  0  0  0  0
   59.7350   66.5720   37.3630 H   0  0  0  0  0  0  0  0  0  0  0  0
   65.0980   61.0000   31.2240 O   0  0  0  0  0  0  0  0  0  0  0  0
   67.9720   57.4600   31.9690 N   0  0  0  0  0  0  0  0  0  0  0  0
   68.3480   58.5340   32.6960 C   0  0  0  0  0  3  0  0  0  0  0  0
   67.4640   59.5120   32.4220 N   0  0  0  0  0  0  0  0  0  0  0  0
   66.5690   59.0450   31.5470 C   0  0  0  0  0  0  0  0  0  0  0  0
   65.4830   59.6890   30.9820 C   0  0  0  0  0  0  0  0  0  0  0  0
   64.7290   58.9630   30.1110 N   0  0  0  0  0  0  0  0  0  0  0  0
   65.0290   57.6870   29.8190 C   0  0  0  0  0  0  0  0  0  0  0  0
   66.0870   57.0850   30.3800 N   0  0  0  0  0  0  0  0  0  0  0  0
   66.8770   57.7460   31.2530 C   0  0  0  0  0  0  0  0  0  0  0  0
   68.4570   56.5510   31.9660 H   0  0  0  0  0  0  0  0  0  0  0  0
   64.0990   57.0230   28.8390 C   0  0  0  0  0  2  0  0  0  0  0  0
   62.8200   57.8570   28.7480 C   0  0  0  0  0  2  0  0  0  0  0  0
   62.0640   57.4020   27.5500 C   0  0  0  0  0  0  0  0  0  0  0  0
   62.1390   56.0870   27.1570 C   0  0  0  0  0  3  0  0  0  0  0  0
   61.3900   55.7810   26.0230 C   0  0  0  0  0  3  0  0  0  0  0  0
   60.6520   56.7360   25.3730 C   0  0  0  0  0  3  0  0  0  0  0  0
   60.6120   58.0520   25.8140 C   0  0  0  0  0  3  0  0  0  0  0  0
   61.3390   58.3380   26.9120 N   0  0  0  0  0  0  0  0  0  0  0  0
  1  7  1  0  0  0  0
  1 21  1  0  0  0  0
  2  1  2  0  0  0  0
  3  4  1  0  0  0  0
  4  5  2  0  0  0  0
  5  9  1  0  0  0  0
  6  5  1  0  0  0  0
  7  6  2  0  0  0  0
  8  3  2  0  0  0  0
  8  7  1  0  0  0  0
  9 17  1  0  0  0  0
  9 10  1  0  0  0  0
 10 11  2  0  0  0  0
 12 11  1  0  0  0  0
 12 13  1  0  0  0  0
 13 18  1  0  0  0  0
 14 13  2  0  0  0  0
 15 14  1  0  0  0  0
 16 17  1  0  0  0  0
 16 15  2  0  0  0  0
 17 12  2  0  0  0  0
 18 19  1  0  0  0  0
 18 20  1  0  0  0  0
 22 23  1  0  0  0  0
 24 23  2  0  0  0  0
 25 24  1  0  0  0  0
 26 21  1  0  0  0  0
 26 25  1  0  0  0  0
 27 26  2  0  0  0  0
 28 27  1  0  0  0  0
 28 29  2  0  0  0  0
 29 30  1  0  0  0  0
 30 25  2  0  0  0  0
 30 22  1  0  0  0  0
 31 22  1  0  0  0  0
 32 28  1  0  0  0  0
 33 32  1  0  0  0  0
 34 33  1  0  0  0  0
 35 34  1  0  0  0  0
 36 35  2  0  0  0  0
 37 38  2  0  0  0  0
 37 36  1  0  0  0  0
 38 39  1  0  0  0  0
 39 34  2  0  0  0  0
M  END
>  <minimizedAffinity>
-6.77527857

$$$$

 OpenBabel03242509253D

 39 44  0  0  0  0  0  0  0  0999 V2000
   66.7080   61.4880   32.5280 C   0  0  0  0  0  0  0  0  0  0  0  0
   67.7180   61.7220   33.2210 O   0  0  0  0  0  0  0  0  0  0  0  0
   66.9350   63.6010   29.5650 C   0  0  0  0  0  3  0  0  0  0  0  0
   65.6300   63.9450   29.3040 C   0  0  0  0  0  3  0  0  0  0  0  0
   64.6320   63.4530   30.1510 C   0  0  0  0  0  0  0  0  0  0  0  0
   65.0100   62.6510   31.1980 N   0  0  0  0  0  0  0  0  0  0  0  0
   66.3250   62.3320   31.4240 C   0  0  0  0  0  0  0  0  0  0  0  0
   67.2440   62.8120   30.6060 N   0  0  0  0  0  0  0  0  0  0  0  0
   63.2480   63.6570   30.0960 N   0  0  0  0  0  0  0  0  0  0  0  0
   62.7500   64.8170   30.6110 C   0  0  0  0  0  3  0  0  0  0  0  0
   61.3930   64.8400   30.4720 N   0  0  0  0  0  0  0  0  0  0  0  0
   61.0060   63.7010   29.8670 C   0  0  0  0  0  0  0  0  0  0  0  0
   59.8240   63.0940   29.4360 C   0  0  0  0  0  0  0  0  0  0  0  0
   59.8210   61.8910   28.8430 N   0  0  0  0  0  0  0  0  0  0  0  0
   61.0110   61.2480   28.6610 C   0  0  0  0  0  3  0  0  0  0  0  0
   62.1970   61.7910   29.0590 N   0  0  0  0  0  0  0  0  0  0  0  0
   62.1610   63.0030   29.6530 C   0  0  0  0  0  0  0  0  0  0  0  0
   58.6290   63.8440   29.6700 N   0  0  0  0  0  0  0  0  0  0  0  0
   58.6810   64.7650   30.1290 H   0  0  0  0  0  0  0  0  0  0  0  0
   57.7180   63.4630   29.3800 H   0  0  0  0  0  0  0  0  0  0  0  0
   65.9900   60.3640   32.8990 O   0  0  0  0  0  0  0  0  0  0  0  0
   67.6130   56.1350   31.9850 N   0  0  0  0  0  0  0  0  0  0  0  0
   68.2730   56.6780   33.0320 C   0  0  0  0  0  3  0  0  0  0  0  0
   67.7410   57.9000   33.2290 N   0  0  0  0  0  0  0  0  0  0  0  0
   66.7790   58.0980   32.3230 C   0  0  0  0  0  0  0  0  0  0  0  0
   65.9640   59.2010   32.1430 C   0  0  0  0  0  0  0  0  0  0  0  0
   65.0570   59.1290   31.1290 N   0  0  0  0  0  0  0  0  0  0  0  0
   64.9640   58.0410   30.3470 C   0  0  0  0  0  0  0  0  0  0  0  0
   65.7650   56.9840   30.5430 N   0  0  0  0  0  0  0  0  0  0  0  0
   66.6870   56.9880   31.5300 C   0  0  0  0  0  0  0  0  0  0  0  0
   67.7970   55.2000   31.5940 H   0  0  0  0  0  0  0  0  0  0  0  0
   63.9130   58.1190   29.2730 C   0  0  0  0  0  2  0  0  0  0  0  0
   63.3780   56.7080   29.0190 C   0  0  0  0  0  2  0  0  0  0  0  0
   62.4900   56.7650   27.8280 C   0  0  0  0  0  0  0  0  0  0  0  0
   62.0120   55.5990   27.2790 C   0  0  0  0  0  3  0  0  0  0  0  0
   61.1920   55.7800   26.1670 C   0  0  0  0  0  3  0  0  0  0  0  0
   60.9060   57.0300   25.6830 C   0  0  0  0  0  3  0  0  0  0  0  0
   61.4170   58.1760   26.2770 C   0  0  0  0  0  3  0  0  0  0  0  0
   62.2090   57.9920   27.3520 N   0  0  0  0  0  0  0  0  0  0  0  0
  1 21  1  0  0  0  0
  1  2  2  0  0  0  0
  3  8  2  0  0  0  0
  4  3  1  0  0  0  0
  4  5  2  0  0  0  0
  5  6  1  0  0  0  0
  6  7  2  0  0  0  0
  7  1  1  0  0  0  0
  8  7  1  0  0  0  0
  9  5  1  0  0  0  0
  9 10  1  0  0  0  0
 11 10  2  0  0  0  0
 12 11  1  0  0  0  0
 13 18  1  0  0  0  0
 13 12  2  0  0  0  0
 14 13  1  0  0  0  0
 15 14  2  0  0  0  0
 15 16  1  0  0  0  0
 16 17  2  0  0  0  0
 17 12  1  0  0  0  0
 17  9  1  0  0  0  0
 18 19  1  0  0  0  0
 20 18  1  0  0  0  0
 22 23  1  0  0  0  0
 23 24  2  0  0  0  0
 25 24  1  0  0  0  0
 26 25  1  0  0  0  0
 26 21  1  0  0  0  0
 27 26  2  0  0  0  0
 28 29  2  0  0  0  0
 28 27  1  0  0  0  0
 29 30  1  0  0  0  0
 30 22  1  0  0  0  0
 30 25  2  0  0  0  0
 31 22  1  0  0  0  0
 32 28  1  0  0  0  0
 33 32  1  0  0  0  0
 34 33  1  0  0  0  0
 35 34  2  0  0  0  0
 36 35  1  0  0  0  0
 37 36  2  0  0  0  0
 37 38  1  0  0  0  0
 38 39  2  0  0  0  0
 39 34  1  0  0  0  0
M  END
>  <minimizedAffinity>
-6.77134705

$$$$
