
 OpenBabel03242509323D

 36 40  0  0  1  0  0  0  0  0999 V2000
   62.8020   57.0890   29.0150 C   0  0  0  0  0  2  0  0  0  0  0  0
   62.9610   57.2040   27.6780 C   0  0  0  0  0  0  0  0  0  0  0  0
   64.2590   57.2910   27.2410 C   0  0  0  0  0  3  0  0  0  0  0  0
   65.2700   57.2550   28.1380 N   0  0  0  0  0  0  0  0  0  0  0  0
   65.0750   57.1400   29.4320 C   0  0  0  0  0  0  0  0  0  0  0  0
   63.8520   57.0550   29.8900 N   0  0  0  0  0  0  0  0  0  0  0  0
   63.6820   56.9640   30.9020 H   0  0  0  0  0  0  0  0  0  0  0  0
   61.7620   57.2100   26.8370 C   0  0  0  0  0  0  0  0  0  0  0  0
   61.7630   56.1840   25.9450 N   0  0  0  0  0  0  0  0  0  0  0  0
   60.8390   56.0640   24.9790 C   0  0  0  0  0  3  0  0  0  0  0  0
   59.9200   57.0780   24.7490 N   0  0  0  0  0  0  0  0  0  0  0  0
   60.0130   58.1870   25.5300 C   0  0  2  0  0  3  0  0  0  0  0  0
   59.1870   59.2530   25.3410 C   0  0  0  0  0  3  0  0  0  0  0  0
   59.3290   60.4080   26.1130 C   0  0  0  0  0  3  0  0  0  0  0  0
   60.3210   60.4810   27.0860 C   0  0  0  0  0  3  0  0  0  0  0  0
   61.1550   59.3880   27.2710 C   0  0  0  0  0  3  0  0  0  0  0  0
   60.9710   58.2820   26.4890 C   0  0  0  0  0  0  0  0  0  0  0  0
   59.1990   56.9940   24.0180 H   0  0  0  0  0  0  0  0  0  0  0  0
   66.2290   57.0960   30.3630 C   0  0  0  0  0  2  0  0  0  0  0  0
   65.8480   57.6030   31.7520 C   0  0  0  0  0  2  0  0  0  0  0  0
   66.1690   59.0130   31.9520 C   0  0  0  0  0  0  0  0  0  0  0  0
   66.3910   59.4340   33.2610 C   0  0  0  0  0  3  0  0  0  0  0  0
   66.6990   60.7830   33.4780 C   0  0  0  0  0  3  0  0  0  0  0  0
   66.7700   61.6170   32.4350 N   0  0  0  0  0  0  0  0  0  0  0  0
   66.5570   61.2190   31.1670 C   0  0  0  0  0  0  0  0  0  0  0  0
   66.2590   59.9120   30.9750 N   0  0  0  0  0  0  0  0  0  0  0  0
   66.6590   62.1860   30.1540 N   0  0  0  0  0  0  0  0  0  0  0  0
   67.9380   62.4450   29.7830 C   0  0  0  0  0  3  0  0  0  0  0  0
   68.2440   63.3610   28.8050 C   0  0  0  0  0  0  0  0  0  0  0  0
   69.6210   63.6890   28.3550 C   0  0  0  0  0  1  0  0  0  0  0  0
   67.2120   64.0430   28.1790 C   0  0  0  0  0  0  0  0  0  0  0  0
   67.4570   64.8990   27.2690 O   0  0  0  0  0  0  0  0  0  0  0  0
   65.9610   63.7660   28.5640 N   0  0  0  0  0  0  0  0  0  0  0  0
   65.6900   62.8670   29.5220 C   0  0  0  0  0  0  0  0  0  0  0  0
   64.5220   62.5760   29.9150 O   0  0  0  0  0  0  0  0  0  0  0  0
   65.1790   64.2600   28.1090 H   0  0  0  0  0  0  0  0  0  0  0  0
  1  6  1  0  0  0  0
  2  1  1  0  0  0  0
  3  2  2  0  0  0  0
  3  4  1  0  0  0  0
  4  5  2  0  0  0  0
  5  6  1  0  0  0  0
  5 19  1  0  0  0  0
  6  7  1  0  0  0  0
  8  2  1  0  0  0  0
  9  8  1  0  0  0  0
 10  9  2  0  0  0  0
 11 10  1  0  0  0  0
 11 12  1  0  0  0  0
 12 13  1  6  0  0  0
 12 17  1  0  0  0  0
 13 14  2  0  0  0  0
 14 15  1  0  0  0  0
 15 16  2  0  0  0  0
 17  8  2  0  0  0  0
 17 16  1  0  0  0  0
 18 11  1  0  0  0  0
 19 20  1  0  0  0  0
 20 21  1  0  0  0  0
 21 22  1  0  0  0  0
 22 23  2  0  0  0  0
 24 23  1  0  0  0  0
 25 24  2  0  0  0  0
 26 25  1  0  0  0  0
 26 21  2  0  0  0  0
 27 25  1  0  0  0  0
 28 27  1  0  0  0  0
 29 28  2  0  0  0  0
 30 29  1  0  0  0  0
 31 33  1  0  0  0  0
 31 29  1  0  0  0  0
 32 31  2  0  0  0  0
 33 34  1  0  0  0  0
 34 35  2  0  0  0  0
 34 27  1  0  0  0  0
 36 33  1  0  0  0  0
M  END
>  <minimizedAffinity>
-7.96520281

$$$$

 OpenBabel03242509323D

 36 40  0  0  1  0  0  0  0  0999 V2000
   65.2760   57.3690   29.6960 C   0  0  0  0  0  2  0  0  0  0  0  0
   64.1610   57.9840   30.1510 C   0  0  0  0  0  0  0  0  0  0  0  0
   64.0890   58.1500   31.5110 C   0  0  0  0  0  3  0  0  0  0  0  0
   65.1000   57.7090   32.2930 N   0  0  0  0  0  0  0  0  0  0  0  0
   66.1700   57.1160   31.8120 C   0  0  0  0  0  0  0  0  0  0  0  0
   66.2770   56.9380   30.5200 N   0  0  0  0  0  0  0  0  0  0  0  0
   67.1090   56.4760   30.1280 H   0  0  0  0  0  0  0  0  0  0  0  0
   63.1640   58.4210   29.1710 C   0  0  0  0  0  0  0  0  0  0  0  0
   62.3960   59.4370   29.6460 N   0  0  0  0  0  0  0  0  0  0  0  0
   61.3280   59.9070   28.9830 C   0  0  0  0  0  3  0  0  0  0  0  0
   60.8630   59.2670   27.8440 N   0  0  0  0  0  0  0  0  0  0  0  0
   61.5270   58.1480   27.4480 C   0  0  2  0  0  3  0  0  0  0  0  0
   61.1100   57.4250   26.3710 C   0  0  0  0  0  3  0  0  0  0  0  0
   61.7660   56.2470   26.0100 C   0  0  0  0  0  3  0  0  0  0  0  0
   62.8550   55.7970   26.7490 C   0  0  0  0  0  3  0  0  0  0  0  0
   63.2720   56.5430   27.8430 C   0  0  0  0  0  3  0  0  0  0  0  0
   62.5950   57.6900   28.1520 C   0  0  0  0  0  0  0  0  0  0  0  0
   60.0510   59.6250   27.3200 H   0  0  0  0  0  0  0  0  0  0  0  0
   67.2490   56.6650   32.7240 C   0  0  0  0  0  2  0  0  0  0  0  0
   68.5180   57.4950   32.5440 C   0  0  0  0  0  2  0  0  0  0  0  0
   68.2640   58.9320   32.5340 C   0  0  0  0  0  0  0  0  0  0  0  0
   68.2140   59.5760   33.7680 C   0  0  0  0  0  3  0  0  0  0  0  0
   67.9720   60.9550   33.7840 C   0  0  0  0  0  3  0  0  0  0  0  0
   67.7960   61.6050   32.6280 N   0  0  0  0  0  0  0  0  0  0  0  0
   67.8420   60.9910   31.4320 C   0  0  0  0  0  0  0  0  0  0  0  0
   68.0770   59.6570   31.4340 N   0  0  0  0  0  0  0  0  0  0  0  0
   67.6430   61.7780   30.2860 N   0  0  0  0  0  0  0  0  0  0  0  0
   68.7510   62.4590   29.9000 C   0  0  0  0  0  3  0  0  0  0  0  0
   68.7560   63.2830   28.8000 C   0  0  0  0  0  0  0  0  0  0  0  0
   69.9350   64.0540   28.3280 C   0  0  0  0  0  1  0  0  0  0  0  0
   67.5910   63.4240   28.0630 C   0  0  0  0  0  0  0  0  0  0  0  0
   67.5580   64.1790   27.0380 O   0  0  0  0  0  0  0  0  0  0  0  0
   66.5140   62.7400   28.4650 N   0  0  0  0  0  0  0  0  0  0  0  0
   66.5360   61.9420   29.5440 C   0  0  0  0  0  0  0  0  0  0  0  0
   65.5410   61.2780   29.9580 O   0  0  0  0  0  0  0  0  0  0  0  0
   65.6380   62.8290   27.9290 H   0  0  0  0  0  0  0  0  0  0  0  0
  1  2  1  0  0  0  0
  1  6  1  0  0  0  0
  2  3  2  0  0  0  0
  3  4  1  0  0  0  0
  5  4  2  0  0  0  0
  5 19  1  0  0  0  0
  6  5  1  0  0  0  0
  7  6  1  0  0  0  0
  8  9  1  0  0  0  0
  8  2  1  0  0  0  0
 10  9  2  0  0  0  0
 11 10  1  0  0  0  0
 12 13  1  1  0  0  0
 12 11  1  0  0  0  0
 12 17  1  0  0  0  0
 14 13  2  0  0  0  0
 14 15  1  0  0  0  0
 15 16  2  0  0  0  0
 16 17  1  0  0  0  0
 17  8  2  0  0  0  0
 18 11  1  0  0  0  0
 20 19  1  0  0  0  0
 21 20  1  0  0  0  0
 21 22  1  0  0  0  0
 22 23  2  0  0  0  0
 24 23  1  0  0  0  0
 25 26  1  0  0  0  0
 25 24  2  0  0  0  0
 26 21  2  0  0  0  0
 27 25  1  0  0  0  0
 28 27  1  0  0  0  0
 29 28  2  0  0  0  0
 30 29  1  0  0  0  0
 31 33  1  0  0  0  0
 31 29  1  0  0  0  0
 32 31  2  0  0  0  0
 33 34  1  0  0  0  0
 34 35  2  0  0  0  0
 34 27  1  0  0  0  0
 36 33  1  0  0  0  0
M  END
>  <minimizedAffinity>
-7.66830158

$$$$

 OpenBabel03242509323D

 36 40  0  0  1  0  0  0  0  0999 V2000
   65.2490   57.2320   28.9410 C   0  0  0  0  0  2  0  0  0  0  0  0
   63.9380   57.3960   29.2310 C   0  0  0  0  0  0  0  0  0  0  0  0
   63.6500   57.6570   30.5470 C   0  0  0  0  0  3  0  0  0  0  0  0
   64.6550   57.7340   31.4490 N   0  0  0  0  0  0  0  0  0  0  0  0
   65.9180   57.5690   31.1280 C   0  0  0  0  0  0  0  0  0  0  0  0
   66.2350   57.3190   29.8830 N   0  0  0  0  0  0  0  0  0  0  0  0
   67.2210   57.1890   29.6160 H   0  0  0  0  0  0  0  0  0  0  0  0
   62.9710   57.3000   28.1350 C   0  0  0  0  0  0  0  0  0  0  0  0
   63.4380   56.5380   27.1100 N   0  0  0  0  0  0  0  0  0  0  0  0
   62.7890   56.4210   25.9420 C   0  0  0  0  0  3  0  0  0  0  0  0
   61.6770   57.2030   25.6680 N   0  0  0  0  0  0  0  0  0  0  0  0
   61.2940   58.0920   26.6240 C   0  0  2  0  0  3  0  0  0  0  0  0
   60.2460   58.9370   26.4210 C   0  0  0  0  0  3  0  0  0  0  0  0
   59.8980   59.8830   27.3870 C   0  0  0  0  0  3  0  0  0  0  0  0
   60.6230   59.9720   28.5720 C   0  0  0  0  0  3  0  0  0  0  0  0
   61.6880   59.1040   28.7680 C   0  0  0  0  0  3  0  0  0  0  0  0
   61.9840   58.1960   27.7900 C   0  0  0  0  0  0  0  0  0  0  0  0
   61.1630   57.1150   24.7790 H   0  0  0  0  0  0  0  0  0  0  0  0
   66.9740   57.6780   32.1640 C   0  0  0  0  0  2  0  0  0  0  0  0
   66.5100   58.5180   33.3510 C   0  0  0  0  0  2  0  0  0  0  0  0
   66.6370   59.9540   33.1200 C   0  0  0  0  0  0  0  0  0  0  0  0
   66.7400   60.7710   34.2420 C   0  0  0  0  0  3  0  0  0  0  0  0
   66.8630   62.1520   34.0460 C   0  0  0  0  0  3  0  0  0  0  0  0
   66.8760   62.6400   32.8000 N   0  0  0  0  0  0  0  0  0  0  0  0
   66.7770   61.8570   31.7100 C   0  0  0  0  0  0  0  0  0  0  0  0
   66.6590   60.5240   31.9180 N   0  0  0  0  0  0  0  0  0  0  0  0
   66.8030   62.4830   30.4530 N   0  0  0  0  0  0  0  0  0  0  0  0
   68.0550   62.7930   30.0300 C   0  0  0  0  0  3  0  0  0  0  0  0
   68.2880   63.4090   28.8240 C   0  0  0  0  0  0  0  0  0  0  0  0
   69.6320   63.7740   28.3070 C   0  0  0  0  0  1  0  0  0  0  0  0
   67.2080   63.7260   28.0150 C   0  0  0  0  0  0  0  0  0  0  0  0
   67.3850   64.2980   26.8900 O   0  0  0  0  0  0  0  0  0  0  0  0
   65.9860   63.4090   28.4550 N   0  0  0  0  0  0  0  0  0  0  0  0
   65.7860   62.8070   29.6380 C   0  0  0  0  0  0  0  0  0  0  0  0
   64.6480   62.4900   30.0920 O   0  0  0  0  0  0  0  0  0  0  0  0
   65.1700   63.6330   27.8670 H   0  0  0  0  0  0  0  0  0  0  0  0
  1  2  1  0  0  0  0
  1  6  1  0  0  0  0
  2  3  2  0  0  0  0
  3  4  1  0  0  0  0
  5  4  2  0  0  0  0
  5 19  1  0  0  0  0
  6  5  1  0  0  0  0
  7  6  1  0  0  0  0
  8  2  1  0  0  0  0
  9  8  1  0  0  0  0
 10  9  2  0  0  0  0
 11 10  1  0  0  0  0
 11 12  1  0  0  0  0
 12 13  1  6  0  0  0
 12 17  1  0  0  0  0
 13 14  2  0  0  0  0
 14 15  1  0  0  0  0
 15 16  2  0  0  0  0
 17  8  2  0  0  0  0
 17 16  1  0  0  0  0
 18 11  1  0  0  0  0
 19 20  1  0  0  0  0
 21 20  1  0  0  0  0
 21 22  1  0  0  0  0
 23 22  2  0  0  0  0
 24 23  1  0  0  0  0
 25 26  1  0  0  0  0
 25 24  2  0  0  0  0
 26 21  2  0  0  0  0
 27 25  1  0  0  0  0
 28 27  1  0  0  0  0
 29 28  2  0  0  0  0
 30 29  1  0  0  0  0
 31 33  1  0  0  0  0
 31 29  1  0  0  0  0
 32 31  2  0  0  0  0
 33 34  1  0  0  0  0
 34 35  2  0  0  0  0
 34 27  1  0  0  0  0
 36 33  1  0  0  0  0
M  END
>  <minimizedAffinity>
-7.52200985

$$$$

 OpenBabel03242509323D

 36 40  0  0  1  0  0  0  0  0999 V2000
   61.0880   60.6500   28.3280 C   0  0  0  0  0  2  0  0  0  0  0  0
   60.5290   60.5260   27.1030 C   0  0  0  0  0  0  0  0  0  0  0  0
   59.8910   61.6440   26.6270 C   0  0  0  0  0  3  0  0  0  0  0  0
   59.8590   62.7670   27.3790 N   0  0  0  0  0  0  0  0  0  0  0  0
   60.4160   62.8500   28.5660 C   0  0  0  0  0  0  0  0  0  0  0  0
   61.0340   61.8060   29.0570 N   0  0  0  0  0  0  0  0  0  0  0  0
   61.4770   61.8540   29.9850 H   0  0  0  0  0  0  0  0  0  0  0  0
   60.6670   59.2450   26.4070 C   0  0  0  0  0  0  0  0  0  0  0  0
   59.7300   59.0920   25.4340 N   0  0  0  0  0  0  0  0  0  0  0  0
   59.5710   57.9440   24.7580 C   0  0  0  0  0  3  0  0  0  0  0  0
   60.2610   56.7990   25.1320 N   0  0  0  0  0  0  0  0  0  0  0  0
   61.0820   56.8970   26.2120 C   0  0  2  0  0  3  0  0  0  0  0  0
   61.7580   55.8130   26.6830 C   0  0  0  0  0  3  0  0  0  0  0  0
   62.5530   55.9130   27.8260 C   0  0  0  0  0  3  0  0  0  0  0  0
   62.6630   57.1260   28.4980 C   0  0  0  0  0  3  0  0  0  0  0  0
   61.9710   58.2250   28.0080 C   0  0  0  0  0  3  0  0  0  0  0  0
   61.2080   58.0710   26.8840 C   0  0  0  0  0  0  0  0  0  0  0  0
   60.1550   55.9150   24.6150 H   0  0  0  0  0  0  0  0  0  0  0  0
   60.3560   64.1160   29.3350 C   0  0  0  0  0  2  0  0  0  0  0  0
   61.0780   63.9930   30.6740 C   0  0  0  0  0  2  0  0  0  0  0  0
   62.4350   64.5310   30.6420 C   0  0  0  0  0  0  0  0  0  0  0  0
   62.5900   65.8820   30.9440 C   0  0  0  0  0  3  0  0  0  0  0  0
   63.8820   66.4210   30.9200 C   0  0  0  0  0  3  0  0  0  0  0  0
   64.9180   65.6320   30.6100 N   0  0  0  0  0  0  0  0  0  0  0  0
   64.7770   64.3260   30.3160 C   0  0  0  0  0  0  0  0  0  0  0  0
   63.5210   63.8210   30.3440 N   0  0  0  0  0  0  0  0  0  0  0  0
   65.9380   63.5980   30.0070 N   0  0  0  0  0  0  0  0  0  0  0  0
   66.6360   63.2050   31.1010 C   0  0  0  0  0  3  0  0  0  0  0  0
   67.8010   62.4820   31.0040 C   0  0  0  0  0  0  0  0  0  0  0  0
   68.6100   62.0230   32.1620 C   0  0  0  0  0  1  0  0  0  0  0  0
   68.2770   62.1450   29.7470 C   0  0  0  0  0  0  0  0  0  0  0  0
   69.3530   61.4750   29.6170 O   0  0  0  0  0  0  0  0  0  0  0  0
   67.5680   62.5450   28.6850 N   0  0  0  0  0  0  0  0  0  0  0  0
   66.4330   63.2510   28.8080 C   0  0  0  0  0  0  0  0  0  0  0  0
   65.7330   63.6480   27.8310 O   0  0  0  0  0  0  0  0  0  0  0  0
   67.9030   62.3020   27.7410 H   0  0  0  0  0  0  0  0  0  0  0  0
  1  6  1  0  0  0  0
  2  1  1  0  0  0  0
  3  2  2  0  0  0  0
  3  4  1  0  0  0  0
  4  5  2  0  0  0  0
  5  6  1  0  0  0  0
  5 19  1  0  0  0  0
  6  7  1  0  0  0  0
  8 17  2  0  0  0  0
  8  2  1  0  0  0  0
  9  8  1  0  0  0  0
 10 11  1  0  0  0  0
 10  9  2  0  0  0  0
 11 12  1  0  0  0  0
 12 13  1  1  0  0  0
 12 17  1  0  0  0  0
 13 14  2  0  0  0  0
 14 15  1  0  0  0  0
 16 15  2  0  0  0  0
 17 16  1  0  0  0  0
 18 11  1  0  0  0  0
 19 20  1  0  0  0  0
 21 20  1  0  0  0  0
 21 22  1  0  0  0  0
 23 22  2  0  0  0  0
 24 23  1  0  0  0  0
 25 26  1  0  0  0  0
 25 24  2  0  0  0  0
 26 21  2  0  0  0  0
 27 25  1  0  0  0  0
 27 28  1  0  0  0  0
 29 28  2  0  0  0  0
 29 30  1  0  0  0  0
 31 29  1  0  0  0  0
 32 31  2  0  0  0  0
 33 34  1  0  0  0  0
 33 31  1  0  0  0  0
 34 27  1  0  0  0  0
 35 34  2  0  0  0  0
 36 33  1  0  0  0  0
M  END
>  <minimizedAffinity>
-7.40868998

$$$$

 OpenBabel03242509323D

 36 40  0  0  1  0  0  0  0  0999 V2000
   65.3300   57.2310   29.0020 C   0  0  0  0  0  2  0  0  0  0  0  0
   64.0290   57.4100   29.3230 C   0  0  0  0  0  0  0  0  0  0  0  0
   63.7720   57.6380   30.6510 C   0  0  0  0  0  3  0  0  0  0  0  0
   64.7950   57.6710   31.5340 N   0  0  0  0  0  0  0  0  0  0  0  0
   66.0490   57.4930   31.1830 C   0  0  0  0  0  0  0  0  0  0  0  0
   66.3370   57.2730   29.9260 N   0  0  0  0  0  0  0  0  0  0  0  0
   67.3140   57.1330   29.6340 H   0  0  0  0  0  0  0  0  0  0  0  0
   63.0390   57.3630   28.2440 C   0  0  0  0  0  0  0  0  0  0  0  0
   63.4880   56.6580   27.1720 N   0  0  0  0  0  0  0  0  0  0  0  0
   62.8140   56.5960   26.0140 C   0  0  0  0  0  3  0  0  0  0  0  0
   61.6910   57.3830   25.8040 N   0  0  0  0  0  0  0  0  0  0  0  0
   61.3240   58.2190   26.8130 C   0  0  2  0  0  3  0  0  0  0  0  0
   60.2660   59.0670   26.6760 C   0  0  0  0  0  3  0  0  0  0  0  0
   59.9350   59.9590   27.6970 C   0  0  0  0  0  3  0  0  0  0  0  0
   60.6850   59.9930   28.8680 C   0  0  0  0  0  3  0  0  0  0  0  0
   61.7590   59.1240   28.9970 C   0  0  0  0  0  3  0  0  0  0  0  0
   62.0390   58.2690   27.9670 C   0  0  0  0  0  0  0  0  0  0  0  0
   61.1590   57.3370   24.9240 H   0  0  0  0  0  0  0  0  0  0  0  0
   67.1270   57.5530   32.2000 C   0  0  0  0  0  2  0  0  0  0  0  0
   67.0110   58.8030   33.0680 C   0  0  0  0  0  2  0  0  0  0  0  0
   66.9420   60.0350   32.2870 C   0  0  0  0  0  0  0  0  0  0  0  0
   68.0740   60.3900   31.5590 C   0  0  0  0  0  3  0  0  0  0  0  0
   68.0320   61.5670   30.8020 C   0  0  0  0  0  3  0  0  0  0  0  0
   66.9190   62.3090   30.8020 N   0  0  0  0  0  0  0  0  0  0  0  0
   65.8200   61.9740   31.5040 C   0  0  0  0  0  0  0  0  0  0  0  0
   65.8780   60.8320   32.2300 N   0  0  0  0  0  0  0  0  0  0  0  0
   64.7100   62.8310   31.4260 N   0  0  0  0  0  0  0  0  0  0  0  0
   63.9660   62.6490   30.3060 C   0  0  0  0  0  3  0  0  0  0  0  0
   62.8380   63.3930   30.0490 C   0  0  0  0  0  0  0  0  0  0  0  0
   61.9830   63.2420   28.8450 C   0  0  0  0  0  1  0  0  0  0  0  0
   62.4520   64.3600   30.9630 C   0  0  0  0  0  0  0  0  0  0  0  0
   61.4130   65.0690   30.7590 O   0  0  0  0  0  0  0  0  0  0  0  0
   63.2030   64.5180   32.0590 N   0  0  0  0  0  0  0  0  0  0  0  0
   64.3000   63.7780   32.2850 C   0  0  0  0  0  0  0  0  0  0  0  0
   65.0380   63.8950   33.3070 O   0  0  0  0  0  0  0  0  0  0  0  0
   62.9310   65.2300   32.7520 H   0  0  0  0  0  0  0  0  0  0  0  0
  1  2  1  0  0  0  0
  1  6  1  0  0  0  0
  2  3  2  0  0  0  0
  3  4  1  0  0  0  0
  5  4  2  0  0  0  0
  5 19  1  0  0  0  0
  6  5  1  0  0  0  0
  7  6  1  0  0  0  0
  8  2  1  0  0  0  0
  9  8  1  0  0  0  0
 10  9  2  0  0  0  0
 11 10  1  0  0  0  0
 11 12  1  0  0  0  0
 12 13  1  6  0  0  0
 12 17  1  0  0  0  0
 13 14  2  0  0  0  0
 14 15  1  0  0  0  0
 15 16  2  0  0  0  0
 17  8  2  0  0  0  0
 17 16  1  0  0  0  0
 18 11  1  0  0  0  0
 19 20  1  0  0  0  0
 21 20  1  0  0  0  0
 22 21  1  0  0  0  0
 23 24  1  0  0  0  0
 23 22  2  0  0  0  0
 24 25  2  0  0  0  0
 25 26  1  0  0  0  0
 26 21  2  0  0  0  0
 27 25  1  0  0  0  0
 27 34  1  0  0  0  0
 28 27  1  0  0  0  0
 29 28  2  0  0  0  0
 29 31  1  0  0  0  0
 30 29  1  0  0  0  0
 31 33  1  0  0  0  0
 32 31  2  0  0  0  0
 33 34  1  0  0  0  0
 33 36  1  0  0  0  0
 34 35  2  0  0  0  0
M  END
>  <minimizedAffinity>
-7.27499914

$$$$

 OpenBabel03242509323D

 36 40  0  0  1  0  0  0  0  0999 V2000
   63.3150   58.0000   30.4300 C   0  0  0  0  0  2  0  0  0  0  0  0
   63.7430   57.5220   29.2410 C   0  0  0  0  0  0  0  0  0  0  0  0
   65.0620   57.1430   29.1950 C   0  0  0  0  0  3  0  0  0  0  0  0
   65.8310   57.2630   30.3000 N   0  0  0  0  0  0  0  0  0  0  0  0
   65.3770   57.7320   31.4400 C   0  0  0  0  0  0  0  0  0  0  0  0
   64.1250   58.1050   31.5260 N   0  0  0  0  0  0  0  0  0  0  0  0
   63.7540   58.4740   32.4130 H   0  0  0  0  0  0  0  0  0  0  0  0
   62.7790   57.4370   28.1420 C   0  0  0  0  0  0  0  0  0  0  0  0
   63.2160   56.6250   27.1430 N   0  0  0  0  0  0  0  0  0  0  0  0
   62.5680   56.5030   25.9750 C   0  0  0  0  0  3  0  0  0  0  0  0
   61.4950   57.3270   25.6700 N   0  0  0  0  0  0  0  0  0  0  0  0
   61.1480   58.2600   26.5970 C   0  0  2  0  0  3  0  0  0  0  0  0
   60.1410   59.1470   26.3620 C   0  0  0  0  0  3  0  0  0  0  0  0
   59.8330   60.1350   27.2980 C   0  0  0  0  0  3  0  0  0  0  0  0
   60.5540   60.2260   28.4840 C   0  0  0  0  0  3  0  0  0  0  0  0
   61.5770   59.3170   28.7130 C   0  0  0  0  0  3  0  0  0  0  0  0
   61.8360   58.3670   27.7640 C   0  0  0  0  0  0  0  0  0  0  0  0
   60.9830   57.2360   24.7810 H   0  0  0  0  0  0  0  0  0  0  0  0
   66.2700   57.8270   32.6200 C   0  0  0  0  0  2  0  0  0  0  0  0
   67.7340   57.6290   32.2320 C   0  0  0  0  0  2  0  0  0  0  0  0
   68.4050   58.8770   31.8790 C   0  0  0  0  0  0  0  0  0  0  0  0
   69.7960   58.8890   31.9400 C   0  0  0  0  0  3  0  0  0  0  0  0
   70.4620   60.0740   31.6060 C   0  0  0  0  0  3  0  0  0  0  0  0
   69.7510   61.1480   31.2430 N   0  0  0  0  0  0  0  0  0  0  0  0
   68.4070   61.1450   31.1820 C   0  0  0  0  0  0  0  0  0  0  0  0
   67.7780   59.9910   31.5090 N   0  0  0  0  0  0  0  0  0  0  0  0
   67.7690   62.3330   30.7870 N   0  0  0  0  0  0  0  0  0  0  0  0
   67.7610   62.5190   29.4430 C   0  0  0  0  0  3  0  0  0  0  0  0
   67.1830   63.6230   28.8620 C   0  0  0  0  0  0  0  0  0  0  0  0
   67.1410   63.8840   27.4010 C   0  0  0  0  0  1  0  0  0  0  0  0
   66.5920   64.5760   29.6760 C   0  0  0  0  0  0  0  0  0  0  0  0
   66.0460   65.6120   29.1740 O   0  0  0  0  0  0  0  0  0  0  0  0
   66.6140   64.3660   30.9980 N   0  0  0  0  0  0  0  0  0  0  0  0
   67.1850   63.2790   31.5390 C   0  0  0  0  0  0  0  0  0  0  0  0
   67.2280   63.0430   32.7820 O   0  0  0  0  0  0  0  0  0  0  0  0
   66.1770   65.0620   31.6200 H   0  0  0  0  0  0  0  0  0  0  0  0
  1  6  1  0  0  0  0
  2  1  1  0  0  0  0
  3  2  2  0  0  0  0
  3  4  1  0  0  0  0
  4  5  2  0  0  0  0
  5  6  1  0  0  0  0
  5 19  1  0  0  0  0
  6  7  1  0  0  0  0
  8  2  1  0  0  0  0
  9  8  1  0  0  0  0
 10  9  2  0  0  0  0
 11 10  1  0  0  0  0
 11 12  1  0  0  0  0
 12 13  1  6  0  0  0
 12 17  1  0  0  0  0
 13 14  2  0  0  0  0
 14 15  1  0  0  0  0
 15 16  2  0  0  0  0
 17  8  2  0  0  0  0
 17 16  1  0  0  0  0
 18 11  1  0  0  0  0
 20 19  1  0  0  0  0
 21 22  1  0  0  0  0
 21 20  1  0  0  0  0
 23 22  2  0  0  0  0
 24 23  1  0  0  0  0
 25 24  2  0  0  0  0
 25 26  1  0  0  0  0
 26 21  2  0  0  0  0
 27 25  1  0  0  0  0
 27 34  1  0  0  0  0
 28 27  1  0  0  0  0
 29 28  2  0  0  0  0
 29 31  1  0  0  0  0
 30 29  1  0  0  0  0
 31 33  1  0  0  0  0
 32 31  2  0  0  0  0
 33 34  1  0  0  0  0
 33 36  1  0  0  0  0
 34 35  2  0  0  0  0
M  END
>  <minimizedAffinity>
-7.25107479

$$$$

 OpenBabel03242509323D

 36 40  0  0  1  0  0  0  0  0999 V2000
   64.0760   58.0960   31.1030 C   0  0  0  0  0  2  0  0  0  0  0  0
   64.2150   57.9100   29.7720 C   0  0  0  0  0  0  0  0  0  0  0  0
   65.3810   57.3030   29.3760 C   0  0  0  0  0  3  0  0  0  0  0  0
   66.2920   56.9350   30.3050 N   0  0  0  0  0  0  0  0  0  0  0  0
   66.1190   57.1320   31.5930 C   0  0  0  0  0  0  0  0  0  0  0  0
   65.0210   57.7080   32.0120 N   0  0  0  0  0  0  0  0  0  0  0  0
   64.8710   57.8680   33.0170 H   0  0  0  0  0  0  0  0  0  0  0  0
   63.1270   58.3490   28.8950 C   0  0  0  0  0  0  0  0  0  0  0  0
   62.3260   59.2660   29.5000 N   0  0  0  0  0  0  0  0  0  0  0  0
   61.1870   59.7090   28.9460 C   0  0  0  0  0  3  0  0  0  0  0  0
   60.6900   59.1280   27.7880 N   0  0  0  0  0  0  0  0  0  0  0  0
   61.3990   58.0950   27.2600 C   0  0  2  0  0  3  0  0  0  0  0  0
   60.9590   57.4310   26.1550 C   0  0  0  0  0  3  0  0  0  0  0  0
   61.6670   56.3350   25.6570 C   0  0  0  0  0  3  0  0  0  0  0  0
   62.8320   55.9090   26.2870 C   0  0  0  0  0  3  0  0  0  0  0  0
   63.2710   56.5940   27.4110 C   0  0  0  0  0  3  0  0  0  0  0  0
   62.5410   57.6610   27.8560 C   0  0  0  0  0  0  0  0  0  0  0  0
   59.8220   59.4660   27.3480 H   0  0  0  0  0  0  0  0  0  0  0  0
   67.1530   56.6940   32.5620 C   0  0  0  0  0  2  0  0  0  0  0  0
   67.6400   57.8550   33.4250 C   0  0  0  0  0  2  0  0  0  0  0  0
   68.3200   58.8930   32.6550 C   0  0  0  0  0  0  0  0  0  0  0  0
   69.6270   58.6310   32.2530 C   0  0  0  0  0  3  0  0  0  0  0  0
   70.3000   59.6110   31.5130 C   0  0  0  0  0  3  0  0  0  0  0  0
   69.6760   60.7570   31.2190 N   0  0  0  0  0  0  0  0  0  0  0  0
   68.4130   61.0180   31.6040 C   0  0  0  0  0  0  0  0  0  0  0  0
   67.7770   60.0600   32.3180 N   0  0  0  0  0  0  0  0  0  0  0  0
   67.8620   62.2560   31.2350 N   0  0  0  0  0  0  0  0  0  0  0  0
   67.4040   62.2840   29.9590 C   0  0  0  0  0  3  0  0  0  0  0  0
   66.8290   63.4080   29.4130 C   0  0  0  0  0  0  0  0  0  0  0  0
   66.3100   63.5010   28.0240 C   0  0  0  0  0  1  0  0  0  0  0  0
   66.7150   64.5480   30.1920 C   0  0  0  0  0  0  0  0  0  0  0  0
   66.1880   65.6070   29.7210 O   0  0  0  0  0  0  0  0  0  0  0  0
   67.1740   64.4920   31.4480 N   0  0  0  0  0  0  0  0  0  0  0  0
   67.7310   63.3820   31.9560 C   0  0  0  0  0  0  0  0  0  0  0  0
   68.1770   63.2870   33.1370 O   0  0  0  0  0  0  0  0  0  0  0  0
   67.0960   65.3280   32.0450 H   0  0  0  0  0  0  0  0  0  0  0  0
  1  6  1  0  0  0  0
  2  1  1  0  0  0  0
  3  2  2  0  0  0  0
  3  4  1  0  0  0  0
  4  5  2  0  0  0  0
  5  6  1  0  0  0  0
  5 19  1  0  0  0  0
  6  7  1  0  0  0  0
  8  9  1  0  0  0  0
  8  2  1  0  0  0  0
 10  9  2  0  0  0  0
 11 10  1  0  0  0  0
 12 13  1  1  0  0  0
 12 11  1  0  0  0  0
 12 17  1  0  0  0  0
 14 13  2  0  0  0  0
 14 15  1  0  0  0  0
 15 16  2  0  0  0  0
 16 17  1  0  0  0  0
 17  8  2  0  0  0  0
 18 11  1  0  0  0  0
 19 20  1  0  0  0  0
 21 20  1  0  0  0  0
 22 21  1  0  0  0  0
 23 22  2  0  0  0  0
 24 23  1  0  0  0  0
 24 25  2  0  0  0  0
 25 26  1  0  0  0  0
 26 21  2  0  0  0  0
 27 25  1  0  0  0  0
 27 34  1  0  0  0  0
 28 27  1  0  0  0  0
 29 28  2  0  0  0  0
 29 31  1  0  0  0  0
 30 29  1  0  0  0  0
 31 33  1  0  0  0  0
 32 31  2  0  0  0  0
 33 34  1  0  0  0  0
 33 36  1  0  0  0  0
 34 35  2  0  0  0  0
M  END
>  <minimizedAffinity>
-7.15263319

$$$$

 OpenBabel03242509323D

 36 40  0  0  1  0  0  0  0  0999 V2000
   62.8620   57.0820   29.0360 C   0  0  0  0  0  2  0  0  0  0  0  0
   63.0100   57.1590   27.6950 C   0  0  0  0  0  0  0  0  0  0  0  0
   64.3030   57.2580   27.2450 C   0  0  0  0  0  3  0  0  0  0  0  0
   65.3210   57.2710   28.1350 N   0  0  0  0  0  0  0  0  0  0  0  0
   65.1370   57.1920   29.4330 C   0  0  0  0  0  0  0  0  0  0  0  0
   63.9190   57.0970   29.9030 N   0  0  0  0  0  0  0  0  0  0  0  0
   63.7580   57.0340   30.9180 H   0  0  0  0  0  0  0  0  0  0  0  0
   61.8040   57.1140   26.8630 C   0  0  0  0  0  0  0  0  0  0  0  0
   61.8120   56.0510   26.0150 N   0  0  0  0  0  0  0  0  0  0  0  0
   60.8830   55.8790   25.0630 C   0  0  0  0  0  3  0  0  0  0  0  0
   59.9500   56.8710   24.7970 N   0  0  0  0  0  0  0  0  0  0  0  0
   60.0330   58.0130   25.5300 C   0  0  2  0  0  3  0  0  0  0  0  0
   59.1930   59.0600   25.3020 C   0  0  0  0  0  3  0  0  0  0  0  0
   59.3260   60.2480   26.0240 C   0  0  0  0  0  3  0  0  0  0  0  0
   60.3240   60.3750   26.9850 C   0  0  0  0  0  3  0  0  0  0  0  0
   61.1730   59.3010   27.2100 C   0  0  0  0  0  3  0  0  0  0  0  0
   60.9970   58.1600   26.4770 C   0  0  0  0  0  0  0  0  0  0  0  0
   59.2250   56.7470   24.0750 H   0  0  0  0  0  0  0  0  0  0  0  0
   66.2980   57.2000   30.3560 C   0  0  0  0  0  2  0  0  0  0  0  0
   65.8840   57.5830   31.7750 C   0  0  0  0  0  2  0  0  0  0  0  0
   66.6600   58.6950   32.3150 C   0  0  0  0  0  0  0  0  0  0  0  0
   66.8400   58.7320   33.6950 C   0  0  0  0  0  3  0  0  0  0  0  0
   67.5810   59.7900   34.2370 C   0  0  0  0  0  3  0  0  0  0  0  0
   68.0860   60.7230   33.4230 N   0  0  0  0  0  0  0  0  0  0  0  0
   67.9170   60.6950   32.0880 C   0  0  0  0  0  0  0  0  0  0  0  0
   67.1980   59.6660   31.5810 N   0  0  0  0  0  0  0  0  0  0  0  0
   68.4950   61.7300   31.3350 N   0  0  0  0  0  0  0  0  0  0  0  0
   69.8190   61.5510   31.1000 C   0  0  0  0  0  3  0  0  0  0  0  0
   70.5630   62.4560   30.3810 C   0  0  0  0  0  0  0  0  0  0  0  0
   72.0130   62.3180   30.0900 C   0  0  0  0  0  1  0  0  0  0  0  0
   69.9390   63.5880   29.8800 C   0  0  0  0  0  0  0  0  0  0  0  0
   70.5950   64.4490   29.2090 O   0  0  0  0  0  0  0  0  0  0  0  0
   68.6320   63.7390   30.1260 N   0  0  0  0  0  0  0  0  0  0  0  0
   67.9300   62.8390   30.8330 C   0  0  0  0  0  0  0  0  0  0  0  0
   66.6940   62.9440   31.0880 O   0  0  0  0  0  0  0  0  0  0  0  0
   68.1490   64.5720   29.7610 H   0  0  0  0  0  0  0  0  0  0  0  0
  1  6  1  0  0  0  0
  2  1  1  0  0  0  0
  3  2  2  0  0  0  0
  3  4  1  0  0  0  0
  4  5  2  0  0  0  0
  5  6  1  0  0  0  0
  5 19  1  0  0  0  0
  6  7  1  0  0  0  0
  8  2  1  0  0  0  0
  9  8  1  0  0  0  0
 10  9  2  0  0  0  0
 11 10  1  0  0  0  0
 11 12  1  0  0  0  0
 12 13  1  6  0  0  0
 12 17  1  0  0  0  0
 13 14  2  0  0  0  0
 14 15  1  0  0  0  0
 15 16  2  0  0  0  0
 17  8  2  0  0  0  0
 17 16  1  0  0  0  0
 18 11  1  0  0  0  0
 19 20  1  0  0  0  0
 20 21  1  0  0  0  0
 21 22  1  0  0  0  0
 22 23  2  0  0  0  0
 24 23  1  0  0  0  0
 25 24  2  0  0  0  0
 26 25  1  0  0  0  0
 26 21  2  0  0  0  0
 27 25  1  0  0  0  0
 28 27  1  0  0  0  0
 29 28  2  0  0  0  0
 30 29  1  0  0  0  0
 31 33  1  0  0  0  0
 31 29  1  0  0  0  0
 32 31  2  0  0  0  0
 33 34  1  0  0  0  0
 34 35  2  0  0  0  0
 34 27  1  0  0  0  0
 36 33  1  0  0  0  0
M  END
>  <minimizedAffinity>
-6.91286993

$$$$

 OpenBabel03242509323D

 36 40  0  0  1  0  0  0  0  0999 V2000
   62.8360   57.1430   29.0070 C   0  0  0  0  0  2  0  0  0  0  0  0
   62.9930   57.2170   27.6660 C   0  0  0  0  0  0  0  0  0  0  0  0
   64.2910   57.2550   27.2220 C   0  0  0  0  0  3  0  0  0  0  0  0
   65.3050   57.2160   28.1160 N   0  0  0  0  0  0  0  0  0  0  0  0
   65.1120   57.1430   29.4130 C   0  0  0  0  0  0  0  0  0  0  0  0
   63.8890   57.1050   29.8780 N   0  0  0  0  0  0  0  0  0  0  0  0
   63.7210   57.0460   30.8920 H   0  0  0  0  0  0  0  0  0  0  0  0
   61.7910   57.2320   26.8300 C   0  0  0  0  0  0  0  0  0  0  0  0
   61.7920   56.2220   25.9200 N   0  0  0  0  0  0  0  0  0  0  0  0
   60.8650   56.1150   24.9560 C   0  0  0  0  0  3  0  0  0  0  0  0
   59.9410   57.1290   24.7470 N   0  0  0  0  0  0  0  0  0  0  0  0
   60.0330   58.2250   25.5470 C   0  0  2  0  0  3  0  0  0  0  0  0
   59.2020   59.2920   25.3790 C   0  0  0  0  0  3  0  0  0  0  0  0
   59.3440   60.4330   26.1700 C   0  0  0  0  0  3  0  0  0  0  0  0
   60.3390   60.4940   27.1400 C   0  0  0  0  0  3  0  0  0  0  0  0
   61.1780   59.4010   27.3030 C   0  0  0  0  0  3  0  0  0  0  0  0
   60.9950   58.3070   26.5030 C   0  0  0  0  0  0  0  0  0  0  0  0
   59.2180   57.0550   24.0170 H   0  0  0  0  0  0  0  0  0  0  0  0
   66.2680   57.0920   30.3410 C   0  0  0  0  0  2  0  0  0  0  0  0
   65.9710   57.8220   31.6480 C   0  0  0  0  0  2  0  0  0  0  0  0
   66.7120   59.0730   31.7850 C   0  0  0  0  0  0  0  0  0  0  0  0
   68.0990   59.0030   31.6800 C   0  0  0  0  0  3  0  0  0  0  0  0
   68.8320   60.1900   31.8080 C   0  0  0  0  0  3  0  0  0  0  0  0
   68.1860   61.3410   32.0250 N   0  0  0  0  0  0  0  0  0  0  0  0
   66.8470   61.4170   32.1280 C   0  0  0  0  0  0  0  0  0  0  0  0
   66.1530   60.2600   32.0020 N   0  0  0  0  0  0  0  0  0  0  0  0
   66.2810   62.6820   32.3560 N   0  0  0  0  0  0  0  0  0  0  0  0
   66.1670   63.4330   31.2320 C   0  0  0  0  0  3  0  0  0  0  0  0
   65.6360   64.7010   31.2510 C   0  0  0  0  0  0  0  0  0  0  0  0
   65.4850   65.5710   30.0570 C   0  0  0  0  0  1  0  0  0  0  0  0
   65.2050   65.2280   32.4580 C   0  0  0  0  0  0  0  0  0  0  0  0
   64.7080   66.4000   32.5140 O   0  0  0  0  0  0  0  0  0  0  0  0
   65.3280   64.4660   33.5500 N   0  0  0  0  0  0  0  0  0  0  0  0
   65.8510   63.2300   33.5040 C   0  0  0  0  0  0  0  0  0  0  0  0
   65.9850   62.4770   34.5120 O   0  0  0  0  0  0  0  0  0  0  0  0
   65.0110   64.8390   34.4570 H   0  0  0  0  0  0  0  0  0  0  0  0
  1  6  1  0  0  0  0
  2  1  1  0  0  0  0
  3  2  2  0  0  0  0
  3  4  1  0  0  0  0
  4  5  2  0  0  0  0
  5  6  1  0  0  0  0
  5 19  1  0  0  0  0
  6  7  1  0  0  0  0
  8  2  1  0  0  0  0
  9  8  1  0  0  0  0
 10  9  2  0  0  0  0
 11 10  1  0  0  0  0
 11 12  1  0  0  0  0
 12 13  1  6  0  0  0
 12 17  1  0  0  0  0
 13 14  2  0  0  0  0
 14 15  1  0  0  0  0
 15 16  2  0  0  0  0
 17  8  2  0  0  0  0
 17 16  1  0  0  0  0
 18 11  1  0  0  0  0
 19 20  1  0  0  0  0
 20 21  1  0  0  0  0
 21 26  2  0  0  0  0
 22 21  1  0  0  0  0
 22 23  2  0  0  0  0
 23 24  1  0  0  0  0
 24 25  2  0  0  0  0
 25 27  1  0  0  0  0
 26 25  1  0  0  0  0
 27 34  1  0  0  0  0
 28 29  2  0  0  0  0
 28 27  1  0  0  0  0
 29 31  1  0  0  0  0
 30 29  1  0  0  0  0
 31 32  2  0  0  0  0
 31 33  1  0  0  0  0
 33 36  1  0  0  0  0
 34 33  1  0  0  0  0
 34 35  2  0  0  0  0
M  END
>  <minimizedAffinity>
-6.8689208

$$$$
