
     RDKit          3D

 33 35  0  0  0  0  0  0  0  0999 V2000
   38.0059   32.6081   49.4975 C   0  0  0  0  0  0  0  0  0  0  0  0
   38.7402   32.8658   48.3360 C   0  0  0  0  0  0  0  0  0  0  0  0
   38.3743   32.1491   47.1944 C   0  0  0  0  0  0  0  0  0  0  0  0
   37.3511   31.2627   47.2709 N   0  0  0  0  0  0  0  0  0  0  0  0
   36.6670   31.0414   48.4080 C   0  0  0  0  0  0  0  0  0  0  0  0
   37.0142   31.7269   49.5071 N   0  0  0  0  0  0  0  0  0  0  0  0
   39.0630   32.3274   45.9194 C   0  0  0  0  0  0  0  0  0  0  0  0
   40.3863   32.0071   45.6856 C   0  0  0  0  0  0  0  0  0  0  0  0
   40.7309   32.2867   44.4110 N   0  0  0  0  0  0  0  0  0  0  0  0
   39.6379   32.7839   43.8271 C   0  0  0  0  0  0  0  0  0  0  0  0
   38.6616   32.8000   44.7356 N   0  0  0  0  0  0  0  0  0  0  0  0
   38.0865   33.1148   41.9858 C   0  0  0  0  0  0  0  0  0  0  0  0
   37.1891   32.6141   42.6825 O   0  0  0  0  0  0  0  0  0  0  0  0
   39.4118   33.2456   42.5064 N   0  0  0  0  0  0  0  0  0  0  0  0
   36.9091   28.9327   50.4559 Cl  0  0  0  0  0  0  0  0  0  0  0  0
   35.6012   29.0429   49.3446 C   0  0  0  0  0  0  0  0  0  0  0  0
   35.5801   30.0752   48.4175 C   0  0  0  0  0  0  0  0  0  0  0  0
   34.5598   30.1987   47.5174 C   0  0  0  0  0  0  0  0  0  0  0  0
   33.5075   29.2966   47.4973 C   0  0  0  0  0  0  0  0  0  0  0  0
   33.5041   28.2621   48.4073 C   0  0  0  0  0  0  0  0  0  0  0  0
   32.2293   27.0616   48.4777 Cl  0  0  0  0  0  0  0  0  0  0  0  0
   34.5472   28.1724   49.2952 C   0  0  0  0  0  0  0  0  0  0  0  0
   38.2811   33.1624   50.4006 H   0  0  0  0  0  0  0  0  0  0  0  0
   39.5572   33.5786   48.2894 H   0  0  0  0  0  0  0  0  0  0  0  0
   41.1209   31.5828   46.3794 H   0  0  0  0  0  0  0  0  0  0  0  0
   41.6346   32.1723   43.9023 H   0  0  0  0  0  0  0  0  0  0  0  0
   37.9155   33.4820   40.9410 H   0  0  0  0  0  0  0  0  0  0  0  0
   40.2248   33.6531   41.9927 H   0  0  0  0  0  0  0  0  0  0  0  0
   34.5520   31.0000   46.8045 H   0  0  0  0  0  0  0  0  0  0  0  0
   32.6899   29.3821   46.7878 H   0  0  0  0  0  0  0  0  0  0  0  0
   34.5656   27.1060   50.2502 N   0  0  0  0  0  0  0  0  0  0  0  0
   33.8026   26.5522   50.6915 H   0  0  0  0  0  0  0  0  0  0  0  0
   35.5592   26.8617   50.5391 H   0  0  0  0  0  0  0  0  0  0  0  0
  1  6  2  0
  2  1  1  0
  3  4  1  0
  3  2  2  0
  4  5  2  0
  5 17  1  0
  5  6  1  0
  7  3  1  0
  8  7  2  0
  9  8  1  0
 10  9  1  0
 10 11  2  0
 11  7  1  0
 12 14  1  0
 12 13  2  0
 14 10  1  0
 16 15  1  0
 17 16  2  0
 18 17  1  0
 19 18  2  0
 19 20  1  0
 20 21  1  0
 20 22  2  0
 22 16  1  0
  1 23  1  0
  2 24  1  0
  8 25  1  0
  9 26  1  0
 12 27  1  0
 14 28  1  0
 18 29  1  0
 19 30  1  0
 31 32  1  0
 31 33  1  0
 22 31  1  0
M  ISO  8  23  14  24  14  25  14  26   9  27   6  29  14  30  14  32   5
M  ISO  1  33   5
M  END
>  <DihAtoms>  (1) 
19,21,30,31

>  <DihDeg>  (1) 
122.83868808764957

$$$$
