
     RDKit          3D

 34 36  0  0  1  0  0  0  0  0999 V2000
   38.3680   31.8970   44.4980 C   0  0  0  0  0  0  0  0  0  0  0  0
   37.2590   32.4590   44.4010 O   0  0  0  0  0  0  0  0  0  0  0  0
   38.9410   31.6210   45.8030 N   0  0  0  0  0  0  0  0  0  0  0  0
   39.1500   31.4890   43.3100 C   0  0  0  0  0  0  0  0  0  0  0  0
   40.1470   30.5670   43.4570 C   0  0  0  0  0  0  0  0  0  0  0  0
   40.8550   30.2180   42.3230 C   0  0  0  0  0  0  0  0  0  0  0  0
   40.5170   30.8150   41.1210 C   0  0  0  0  0  0  0  0  0  0  0  0
   39.5060   31.7480   40.9780 C   0  0  0  0  0  0  0  0  0  0  0  0
   38.8490   32.0510   42.1130 N   0  0  0  0  0  0  0  0  0  0  0  0
   39.1790   32.3470   39.6930 C   0  0  0  0  0  0  0  0  0  0  0  0
   38.8190   33.5490   39.6580 O   0  0  0  0  0  0  0  0  0  0  0  0
   39.3110   31.4610   38.5770 N   0  0  0  0  0  0  0  0  0  0  0  0
   38.4330   31.0970   48.1810 C   0  0  2  0  0  0  0  0  0  0  0  0
   38.6890   32.5620   48.1010 C   0  0  0  0  0  0  0  0  0  0  0  0
   38.0710   31.7190   46.9510 C   0  0  1  0  0  0  0  0  0  0  0  0
   35.0780   30.2410   49.4980 C   0  0  0  0  0  0  0  0  0  0  0  0
   35.4000   29.5490   50.7180 C   0  0  0  0  0  0  0  0  0  0  0  0
   36.8070   29.4060   51.0560 C   0  0  0  0  0  0  0  0  0  0  0  0
   37.7510   29.9230   50.2170 N   0  0  0  0  0  0  0  0  0  0  0  0
   37.3710   30.5590   49.0890 C   0  0  0  0  0  0  0  0  0  0  0  0
   36.0450   30.7300   48.7080 N   0  0  0  0  0  0  0  0  0  0  0  0
   39.9332   31.3643   45.9062 H   0  0  0  0  0  0  0  0  0  0  0  0
   40.3764   30.1214   44.4362 H   0  0  0  0  0  0  0  0  0  0  0  0
   41.6701   29.4812   42.3744 H   0  0  0  0  0  0  0  0  0  0  0  0
   41.0873   30.5301   40.2246 H   0  0  0  0  0  0  0  0  0  0  0  0
   39.1010   31.7959   37.6259 H   0  0  0  0  0  0  0  0  0  0  0  0
   39.6160   30.4884   38.7249 H   0  0  0  0  0  0  0  0  0  0  0  0
   39.0734   30.2386   48.4322 H   0  0  0  0  0  0  0  0  0  0  0  0
   38.0715   33.2717   48.6711 H   0  0  0  0  0  0  0  0  0  0  0  0
   39.5509   33.2334   48.2290 H   0  0  0  0  0  0  0  0  0  0  0  0
   37.1466   31.6909   46.3555 H   0  0  0  0  0  0  0  0  0  0  0  0
   34.0244   30.3706   49.2096 H   0  0  0  0  0  0  0  0  0  0  0  0
   34.6120   29.1438   51.3698 H   0  0  0  0  0  0  0  0  0  0  0  0
   37.1072   28.8867   51.9780 H   0  0  0  0  0  0  0  0  0  0  0  0
  1  3  1  0
  2  1  2  0
  3 15  1  0
  4  5  2  0
  4  1  1  0
  6  5  1  0
  7  6  2  0
  8  7  1  0
  8  9  2  0
  9  4  1  0
 10  8  1  0
 11 10  2  0
 12 10  1  0
 13 20  1  0
 14 13  1  0
 15 14  1  0
 15 13  1  0
 16 17  2  0
 17 18  1  0
 19 18  2  0
 20 19  1  0
 21 20  2  0
 21 16  1  0
  3 22  1  0
  5 23  1  0
  6 24  1  0
  7 25  1  0
 12 26  1  0
 12 27  1  0
 13 28  1  6
 14 29  1  0
 14 30  1  0
 15 31  1  6
 16 32  1  0
 17 33  1  0
 18 34  1  0
M  ISO  8  23  14  24  14  25  14  28  13  29  13  30  13  31  13  32  14
M  ISO  2  33  14  34  14
M  END
>  <minimizedAffinity>  (1) 
-5.02640676

>  <minimizedRMSD>  (1) 
0.0319164395

$$$$
