
     RDKit          3D

 32 33  0  0  0  0  0  0  0  0999 V2000
   36.0792   30.6892   49.0651 C   0  0  2  0  0  0  0  0  0  0  0  0
   37.0190   31.6419   49.7406 C   0  0  0  0  0  0  0  0  0  0  0  0
   38.0478   30.9418   50.6033 C   0  0  0  0  0  0  0  0  0  0  0  0
   37.3549   30.0747   51.6543 C   0  0  0  0  0  0  0  0  0  0  0  0
   36.1181   29.3772   51.1473 C   0  0  0  0  0  0  0  0  0  0  0  0
   36.1865   29.3078   49.6122 C   0  0  1  0  0  0  0  0  0  0  0  0
   36.3228   30.6484   47.5986 C   0  0  0  0  0  0  0  0  0  0  0  0
   37.5809   31.1078   47.1794 C   0  0  0  0  0  0  0  0  0  0  0  0
   37.8309   31.0760   45.8025 C   0  0  0  0  0  0  0  0  0  0  0  0
   36.8504   30.6054   44.9579 N   0  0  0  0  0  0  0  0  0  0  0  0
   35.6357   30.1667   45.4230 C   0  0  0  0  0  0  0  0  0  0  0  0
   35.3924   30.1969   46.7465 N   0  0  0  0  0  0  0  0  0  0  0  0
   33.9408   28.2003   49.2439 C   0  0  0  0  0  0  0  0  0  0  0  0
   33.1169   28.8536   49.9367 O   0  0  0  0  0  0  0  0  0  0  0  0
   35.3315   28.3494   49.0168 N   0  0  0  0  0  0  0  0  0  0  0  0
   34.9931   30.9760   49.1686 H   0  0  0  0  0  0  0  0  0  0  0  0
   36.3683   32.1887   50.5033 H   0  0  0  0  0  0  0  0  0  0  0  0
   37.4511   32.4222   49.1431 H   0  0  0  0  0  0  0  0  0  0  0  0
   38.6194   31.7113   51.1235 H   0  0  0  0  0  0  0  0  0  0  0  0
   38.6735   30.2502   50.0028 H   0  0  0  0  0  0  0  0  0  0  0  0
   38.1225   29.3499   52.0031 H   0  0  0  0  0  0  0  0  0  0  0  0
   37.0938   30.6829   52.5449 H   0  0  0  0  0  0  0  0  0  0  0  0
   36.0593   28.3266   51.4933 H   0  0  0  0  0  0  0  0  0  0  0  0
   35.2249   29.9672   51.4145 H   0  0  0  0  0  0  0  0  0  0  0  0
   37.1602   28.9046   49.4804 H   0  0  0  0  0  0  0  0  0  0  0  0
   38.4218   31.4848   47.7254 H   0  0  0  0  0  0  0  0  0  0  0  0
   38.7318   31.3895   45.3317 H   0  0  0  0  0  0  0  0  0  0  0  0
   34.9067   29.8078   44.7059 H   0  0  0  0  0  0  0  0  0  0  0  0
   35.6128   27.6004   48.3099 H   0  0  0  0  0  0  0  0  0  0  0  0
   33.0660   27.2081   48.7105 N   0  0  0  0  0  0  0  0  0  0  0  0
   32.2050   27.4789   48.1851 H   0  0  0  0  0  0  0  0  0  0  0  0
   33.2330   26.1838   48.8128 H   0  0  0  0  0  0  0  0  0  0  0  0
  1  6  1  0
  1  2  1  0
  2  3  1  0
  3  4  1  0
  5  4  1  0
  6  5  1  0
  7  1  1  0
  8  7  2  0
  9  8  1  0
 10 11  1  0
 10  9  2  0
 11 12  2  0
 12  7  1  0
 13 14  2  0
 15 13  1  0
 15  6  1  0
  1 16  1  6
  2 17  1  0
  2 18  1  0
  3 19  1  0
  3 20  1  0
  4 21  1  0
  4 22  1  0
  5 23  1  0
  5 24  1  0
  6 25  1  1
  8 26  1  0
  9 27  1  0
 11 28  1  0
 15 29  1  0
 30 31  1  0
 30 32  1  0
 13 30  1  0
M  ISO  8  16  13  17  13  18  13  19  13  20  13  21  13  22  13  23  13
M  ISO  7  24  13  25  13  26  14  27  14  28  14  31   5  32   5
M  END
>  <DihAtoms>  (1) 
13,12,29,30

>  <DihDeg>  (1) 
-79.7218198114329

$$$$
