
     RDKit          3D

 45 47  0  0  0  0  0  0  0  0999 V2000
   33.9086   28.4072   47.9495 C   0  0  0  0  0  0  0  0  0  0  0  0
   35.2039   30.6171   46.8875 F   0  0  0  0  0  0  0  0  0  0  0  0
   35.5841   30.0902   48.1038 C   0  0  0  0  0  0  0  0  0  0  0  0
   34.9575   28.9816   48.6992 C   0  0  0  0  0  0  0  0  0  0  0  0
   35.4714   28.6422   49.8725 C   0  0  0  0  0  0  0  0  0  0  0  0
   36.5075   29.2698   50.4915 C   0  0  0  0  0  0  0  0  0  0  0  0
   37.1345   30.3681   49.9080 C   0  0  0  0  0  0  0  0  0  0  0  0
   36.6159   30.7089   48.7248 C   0  0  0  0  0  0  0  0  0  0  0  0
   38.2493   31.0399   50.5700 C   0  0  0  0  0  0  0  0  0  0  0  0
   37.2708   31.8458   48.1044 O   0  0  0  0  0  0  0  0  0  0  0  0
   38.3710   31.5597   47.3733 C   0  0  0  0  0  0  0  0  0  0  0  0
   39.2314   32.5038   47.3692 O   0  0  0  0  0  0  0  0  0  0  0  0
   38.7922   30.4751   46.6178 N   0  0  0  0  0  0  0  0  0  0  0  0
   32.7423   27.8793   48.7272 C   0  0  0  0  0  0  0  0  0  0  0  0
   30.4258   27.2146   48.3784 C   0  0  0  0  0  0  0  0  0  0  0  0
   31.7352   27.2096   47.9568 C   0  0  0  0  0  0  0  0  0  0  0  0
   31.9584   26.5706   46.8043 C   0  0  0  0  0  0  0  0  0  0  0  0
   30.9786   25.9768   46.1060 N   0  0  0  0  0  0  0  0  0  0  0  0
   29.6864   25.9658   46.4927 C   0  0  0  0  0  0  0  0  0  0  0  0
   29.4003   26.5862   47.6337 N   0  0  0  0  0  0  0  0  0  0  0  0
   29.9851   27.7860   49.6862 C   0  0  1  0  0  0  0  0  0  0  0  0
   28.9132   28.7591   49.7004 C   0  0  0  0  0  0  0  0  0  0  0  0
   28.6353   27.2868   50.1165 C   0  0  2  0  0  0  0  0  0  0  0  0
   28.3321   27.1609   51.5479 C   0  0  0  0  0  0  0  0  0  0  0  0
   27.2282   26.7068   51.8154 O   0  0  0  0  0  0  0  0  0  0  0  0
   33.4627   29.0511   47.1620 H   0  0  0  0  0  0  0  0  0  0  0  0
   34.3375   27.5263   47.3825 H   0  0  0  0  0  0  0  0  0  0  0  0
   35.0045   27.7673   50.3817 H   0  0  0  0  0  0  0  0  0  0  0  0
   36.8318   28.8787   51.4688 H   0  0  0  0  0  0  0  0  0  0  0  0
   38.0020   32.0500   50.9182 H   0  0  0  0  0  0  0  0  0  0  0  0
   38.5735   30.4734   51.4759 H   0  0  0  0  0  0  0  0  0  0  0  0
   39.1240   31.1641   49.8835 H   0  0  0  0  0  0  0  0  0  0  0  0
   39.7856   30.1749   46.4697 H   0  0  0  0  0  0  0  0  0  0  0  0
   39.1706   29.6739   46.0644 H   0  0  0  0  0  0  0  0  0  0  0  0
   33.0930   27.2087   49.5566 H   0  0  0  0  0  0  0  0  0  0  0  0
   32.2809   28.7588   49.2385 H   0  0  0  0  0  0  0  0  0  0  0  0
   32.9371   26.4851   46.3525 H   0  0  0  0  0  0  0  0  0  0  0  0
   28.8686   25.5036   45.9659 H   0  0  0  0  0  0  0  0  0  0  0  0
   30.7896   27.9896   50.3999 H   0  0  0  0  0  0  0  0  0  0  0  0
   28.4829   29.0997   48.7409 H   0  0  0  0  0  0  0  0  0  0  0  0
   28.8580   29.5289   50.4907 H   0  0  0  0  0  0  0  0  0  0  0  0
   27.9260   26.8189   49.3736 H   0  0  0  0  0  0  0  0  0  0  0  0
   29.3514   27.5791   52.4688 N   0  0  0  0  0  0  0  0  0  0  0  0
   29.6109   28.5999   52.4542 H   0  0  0  0  0  0  0  0  0  0  0  0
   29.4361   26.6055   52.8198 H   0  0  0  0  0  0  0  0  0  0  0  0
  1  4  1  0
  1 14  1  0
  2  3  1  0
  3  4  2  0
  3  8  1  0
  4  5  1  0
  5  6  2  0
  7  6  1  0
  7  9  1  0
  8  7  2  0
 10  8  1  0
 11 10  1  0
 12 11  2  0
 13 11  1  0
 15 21  1  0
 16 15  1  0
 16 14  1  0
 17 16  2  0
 18 19  2  0
 18 17  1  0
 19 20  1  0
 20 15  2  0
 21 22  1  0
 21 23  1  0
 22 23  1  0
 23 24  1  0
 24 25  2  0
  1 26  1  0
  1 27  1  0
  5 28  1  0
  6 29  1  0
  9 30  1  0
  9 31  1  0
  9 32  1  0
 13 33  1  0
 13 34  1  0
 14 35  1  0
 14 36  1  0
 17 37  1  0
 19 38  1  0
 21 39  1  1
 22 40  1  0
 22 41  1  0
 23 42  1  6
 43 44  1  0
 43 45  1  0
 24 43  1  0
M  ISO  8  26   8  27   8  28  14  29  14  30   8  31   8  32   8  35   8
M  ISO  8  36   8  37  14  38  14  39  13  40  13  41  13  42  13  44   5
M  ISO  1  45   5
M  END
>  <DihAtoms>  (1) 
22,23,42,43

>  <DihDeg>  (1) 
-86.1234244740628

$$$$
