
     RDKit          3D

 22 23  0  0  0  0  0  0  0  0999 V2000
   37.7370   33.2210   49.4480 Cl  0  0  0  0  0  0  0  0  0  0  0  0
   38.2900   32.2890   48.0840 C   0  0  0  0  0  0  0  0  0  0  0  0
   37.7700   31.0380   47.8150 C   0  0  0  0  0  0  0  0  0  0  0  0
   38.2640   30.3740   46.7190 C   0  0  0  0  0  0  0  0  0  0  0  0
   39.2380   30.9000   45.8960 C   0  0  0  0  0  0  0  0  0  0  0  0
   39.7380   32.1790   46.2120 C   0  0  0  0  0  0  0  0  0  0  0  0
   40.9680   32.8030   45.1460 Cl  0  0  0  0  0  0  0  0  0  0  0  0
   39.2730   32.8770   47.2970 C   0  0  0  0  0  0  0  0  0  0  0  0
   36.0620   29.4390   50.7960 C   0  0  0  0  0  0  0  0  0  0  0  0
   37.0340   29.9220   49.9200 C   0  0  0  0  0  0  0  0  0  0  0  0
   36.7480   30.5390   48.7150 C   0  0  0  0  0  0  0  0  0  0  0  0
   35.4270   30.6480   48.4340 N   0  0  0  0  0  0  0  0  0  0  0  0
   34.4800   30.1840   49.2740 C   0  0  0  0  0  0  0  0  0  0  0  0
   34.7790   29.5950   50.4250 N   0  0  0  0  0  0  0  0  0  0  0  0
   38.3930   29.7550   50.3150 N   0  0  0  0  0  0  0  0  0  0  0  0
   37.8642   29.3759   46.4866 H   0  0  0  0  0  0  0  0  0  0  0  0
   39.6108   30.3414   45.0248 H   0  0  0  0  0  0  0  0  0  0  0  0
   39.6674   33.8752   47.5379 H   0  0  0  0  0  0  0  0  0  0  0  0
   36.3322   28.9535   51.7454 H   0  0  0  0  0  0  0  0  0  0  0  0
   33.4220   30.2977   48.9954 H   0  0  0  0  0  0  0  0  0  0  0  0
   39.1516   30.0932   49.7059 H   0  0  0  0  0  0  0  0  0  0  0  0
   38.6166   29.2961   51.2096 H   0  0  0  0  0  0  0  0  0  0  0  0
  2  1  1  0
  3  2  2  0
  3 11  1  0
  4  3  1  0
  5  6  1  0
  5  4  2  0
  6  8  2  0
  7  6  1  0
  8  2  1  0
 10 15  1  0
 10  9  2  0
 11 10  1  0
 12 11  2  0
 12 13  1  0
 13 14  2  0
 14  9  1  0
  4 16  1  0
  5 17  1  0
  8 18  1  0
  9 19  1  0
 13 20  1  0
 15 21  1  0
 15 22  1  0
M  ISO  5  16  14  17  14  18  14  19  14  20  14
M  END
>  <minimizedAffinity>  (1) 
-5.83657598

>  <minimizedRMSD>  (1) 
0.584943116

$$$$
