
     RDKit          3D

 22 23  0  0  0  0  0  0  0  0999 V2000
   38.0026   33.1125   49.4855 C   0  0  0  0  0  0  0  0  0  0  0  0
   38.9712   33.2090   48.4661 C   0  0  0  0  0  0  0  0  0  0  0  0
   38.9548   32.2201   47.4622 C   0  0  0  0  0  0  0  0  0  0  0  0
   38.0192   31.2361   47.5255 N   0  0  0  0  0  0  0  0  0  0  0  0
   37.1119   31.1806   48.5163 C   0  0  0  0  0  0  0  0  0  0  0  0
   37.1032   32.1191   49.4971 N   0  0  0  0  0  0  0  0  0  0  0  0
   36.0931   30.1271   48.6037 C   0  0  0  0  0  0  0  0  0  0  0  0
   35.2806   29.9595   47.5049 C   0  0  0  0  0  0  0  0  0  0  0  0
   34.2940   28.9842   47.5115 C   0  0  0  0  0  0  0  0  0  0  0  0
   34.1540   28.2000   48.6345 C   0  0  0  0  0  0  0  0  0  0  0  0
   34.9596   28.3572   49.7396 C   0  0  0  0  0  0  0  0  0  0  0  0
   35.9409   29.3306   49.7271 C   0  0  0  0  0  0  0  0  0  0  0  0
   38.0368   33.8794   50.2392 H   0  0  0  0  0  0  0  0  0  0  0  0
   39.7251   33.9691   48.3813 H   0  0  0  0  0  0  0  0  0  0  0  0
   39.6364   32.1700   46.6228 H   0  0  0  0  0  0  0  0  0  0  0  0
   35.4081   30.5920   46.6242 H   0  0  0  0  0  0  0  0  0  0  0  0
   33.6437   28.8278   46.6708 H   0  0  0  0  0  0  0  0  0  0  0  0
   33.4062   27.4194   48.7112 H   0  0  0  0  0  0  0  0  0  0  0  0
   34.9109   27.7791   50.6603 H   0  0  0  0  0  0  0  0  0  0  0  0
   36.8162   29.5611   50.8242 N   0  0  0  0  0  0  0  0  0  0  0  0
   36.5514   28.9401   51.6390 H   0  0  0  0  0  0  0  0  0  0  0  0
   37.6070   30.2164   50.8853 H   0  0  0  0  0  0  0  0  0  0  0  0
  1  6  2  0
  2  1  1  0
  3  4  1  0
  3  2  2  0
  4  5  2  0
  5  7  1  0
  5  6  1  0
  7 12  1  0
  8  7  2  0
  9  8  1  0
  9 10  2  0
 10 11  1  0
 12 11  2  0
  1 13  1  0
  2 14  1  0
  3 15  1  0
  8 16  1  0
  9 17  1  0
 10 18  1  0
 11 19  1  0
 20 21  1  0
 20 22  1  0
 12 20  1  0
M  ISO  8  13  14  14  14  15  14  16  14  17  14  18  14  19  14  21   5
M  ISO  1  22   5
M  END
>  <DihAtoms>  (1) 
6,11,19,20

>  <DihDeg>  (1) 
-139.13995350081564

$$$$
