
     RDKit          3D

 39 41  0  0  0  0  0  0  0  0999 V2000
   39.5907   32.8695   46.3056 N   0  0  0  0  0  0  0  0  0  0  0  0
   38.2598   32.3538   46.0686 C   0  0  1  0  0  0  0  0  0  0  0  0
   37.9311   32.3862   44.6008 C   0  0  0  0  0  0  0  0  0  0  0  0
   38.9379   31.5870   43.9072 N   0  0  0  0  0  0  0  0  0  0  0  0
   40.1806   32.3633   44.0166 C   0  0  0  0  0  0  0  0  0  0  0  0
   40.5969   32.2762   45.4827 C   0  0  2  0  0  0  0  0  0  0  0  0
   40.8456   30.8957   45.8121 N   0  0  0  0  0  0  0  0  0  0  0  0
   38.1306   30.5915   46.5712 S   0  0  0  0  0  0  0  0  0  0  0  0
   37.8962   30.9252   50.6023 C   0  0  0  0  0  0  0  0  0  0  0  0
   38.3586   31.0739   49.3094 C   0  0  0  0  0  0  0  0  0  0  0  0
   37.6592   30.4883   48.2827 C   0  0  0  0  0  0  0  0  0  0  0  0
   36.5185   29.7728   48.5884 N   0  0  0  0  0  0  0  0  0  0  0  0
   36.1255   29.6680   49.8623 C   0  0  0  0  0  0  0  0  0  0  0  0
   36.7904   30.2279   50.8685 N   0  0  0  0  0  0  0  0  0  0  0  0
   34.9085   28.9166   50.1501 C   0  0  0  0  0  0  0  0  0  0  0  0
   34.4789   27.9791   49.4506 O   0  0  0  0  0  0  0  0  0  0  0  0
   39.5642   33.8831   46.1914 H   0  0  0  0  0  0  0  0  0  0  0  0
   37.5585   32.9762   46.6655 H   0  0  0  0  0  0  0  0  0  0  0  0
   37.9195   33.4131   44.1955 H   0  0  0  0  0  0  0  0  0  0  0  0
   36.9304   31.9338   44.4497 H   0  0  0  0  0  0  0  0  0  0  0  0
   39.0978   30.7493   44.4935 H   0  0  0  0  0  0  0  0  0  0  0  0
   40.0189   33.3921   43.6933 H   0  0  0  0  0  0  0  0  0  0  0  0
   40.9840   31.8300   43.4538 H   0  0  0  0  0  0  0  0  0  0  0  0
   41.5159   32.8880   45.5833 H   0  0  0  0  0  0  0  0  0  0  0  0
   41.4320   30.9217   46.6972 H   0  0  0  0  0  0  0  0  0  0  0  0
   41.4649   30.4746   45.0873 H   0  0  0  0  0  0  0  0  0  0  0  0
   38.4972   31.4121   51.3480 H   0  0  0  0  0  0  0  0  0  0  0  0
   39.2542   31.6336   49.0523 H   0  0  0  0  0  0  0  0  0  0  0  0
   34.0913   29.2372   51.3266 C   0  0  0  0  0  0  0  0  0  0  0  0
   33.2671   28.3086   51.9387 C   0  0  0  0  0  0  0  0  0  0  0  0
   33.2044   27.3136   51.5618 H   0  0  0  0  0  0  0  0  0  0  0  0
   32.5597   28.7571   53.0341 C   0  0  0  0  0  0  0  0  0  0  0  0
   32.5859   30.0221   53.5801 C   0  0  0  0  0  0  0  0  0  0  0  0
   31.9858   30.2659   54.4471 H   0  0  0  0  0  0  0  0  0  0  0  0
   33.4217   30.9405   52.9486 C   0  0  0  0  0  0  0  0  0  0  0  0
   33.4689   31.9426   53.3485 H   0  0  0  0  0  0  0  0  0  0  0  0
   34.1537   30.5174   51.8337 C   0  0  0  0  0  0  0  0  0  0  0  0
   31.9185   27.9885   53.4890 H   0  0  0  0  0  0  0  0  0  0  0  0
   34.7708   31.3325   51.4280 H   0  0  0  0  0  0  0  0  0  0  0  0
  2  1  1  0
  2  8  1  0
  3  2  1  0
  4  5  1  0
  4  3  1  0
  5  6  1  0
  6  7  1  0
  6  1  1  0
  8 11  1  0
  9 14  2  0
 10  9  1  0
 11 12  1  0
 11 10  2  0
 12 13  2  0
 13 15  1  0
 13 14  1  0
 16 15  2  0
  1 17  1  0
  2 18  1  1
  3 19  1  0
  3 20  1  0
  4 21  1  0
  5 22  1  0
  5 23  1  0
  6 24  1  6
  7 25  1  0
  7 26  1  0
  9 27  1  0
 10 28  1  0
 29 30  2  0
 30 31  1  0
 30 32  1  0
 32 33  2  0
 33 34  1  0
 33 35  1  0
 35 36  1  0
 35 37  2  0
 37 29  1  0
 32 38  1  0
 37 39  1  0
 15 29  1  0
M  ISO  8  17   5  18  13  19  13  20  13  21   5  22  13  23  13  24  13
M  ISO  7  25   5  26   5  27  14  28  14  31  16  34  16  36  16
M  END
>  <DihAtoms>  (1) 
12,14,28,29

>  <DihDeg>  (1) 
-154.59828534141752

$$$$
