
     RDKit          3D

 39 42  0  0  0  0  0  0  0  0999 V2000
   37.6780   31.3039   48.2088 C   0  0  0  0  0  0  0  0  0  0  0  0
   38.5326   32.3115   48.0898 C   0  0  0  0  0  0  0  0  0  0  0  0
   38.9237   32.7105   46.8632 C   0  0  0  0  0  0  0  0  0  0  0  0
   38.4101   32.0437   45.7784 C   0  0  0  0  0  0  0  0  0  0  0  0
   37.3264   30.7997   46.5679 S   0  0  0  0  0  0  0  0  0  0  0  0
   41.1523   31.2129   44.7169 Cl  0  0  0  0  0  0  0  0  0  0  0  0
   39.7826   31.8190   43.8064 C   0  0  0  0  0  0  0  0  0  0  0  0
   38.5801   32.1712   44.3618 C   0  0  0  0  0  0  0  0  0  0  0  0
   37.5166   32.6362   43.6939 C   0  0  0  0  0  0  0  0  0  0  0  0
   37.6009   32.7919   42.2943 C   0  0  0  0  0  0  0  0  0  0  0  0
   38.7696   32.4585   41.6871 C   0  0  0  0  0  0  0  0  0  0  0  0
   38.9645   32.6186   39.9445 Cl  0  0  0  0  0  0  0  0  0  0  0  0
   39.8599   31.9756   42.4184 C   0  0  0  0  0  0  0  0  0  0  0  0
   37.1549   29.9296   51.6710 C   0  0  0  0  0  0  0  0  0  0  0  0
   37.7863   30.5634   50.5953 C   0  0  0  0  0  0  0  0  0  0  0  0
   37.0768   30.6516   49.3860 C   0  0  0  0  0  0  0  0  0  0  0  0
   35.8505   30.1306   49.3292 N   0  0  0  0  0  0  0  0  0  0  0  0
   35.2659   29.5302   50.3655 C   0  0  0  0  0  0  0  0  0  0  0  0
   35.9193   29.4307   51.5352 N   0  0  0  0  0  0  0  0  0  0  0  0
   33.9306   28.9904   50.2003 C   0  0  0  0  0  0  0  0  0  0  0  0
   33.6612   28.3032   49.1932 O   0  0  0  0  0  0  0  0  0  0  0  0
   38.8922   32.7860   48.9995 H   0  0  0  0  0  0  0  0  0  0  0  0
   39.6126   33.5151   46.6231 H   0  0  0  0  0  0  0  0  0  0  0  0
   36.5679   32.9142   44.1344 H   0  0  0  0  0  0  0  0  0  0  0  0
   36.7635   33.1647   41.7204 H   0  0  0  0  0  0  0  0  0  0  0  0
   40.8188   31.6948   41.9756 H   0  0  0  0  0  0  0  0  0  0  0  0
   37.7027   29.8655   52.5924 H   0  0  0  0  0  0  0  0  0  0  0  0
   38.7669   30.9907   50.6089 H   0  0  0  0  0  0  0  0  0  0  0  0
   32.9086   29.2487   51.2072 C   0  0  0  0  0  0  0  0  0  0  0  0
   32.7726   28.2911   52.1852 C   0  0  0  0  0  0  0  0  0  0  0  0
   33.4046   27.3908   52.1935 H   0  0  0  0  0  0  0  0  0  0  0  0
   31.8803   28.3257   53.2277 C   0  0  0  0  0  0  0  0  0  0  0  0
   31.0524   29.4505   53.2647 C   0  0  0  0  0  0  0  0  0  0  0  0
   30.3193   29.5294   54.0784 H   0  0  0  0  0  0  0  0  0  0  0  0
   31.1444   30.4504   52.3035 C   0  0  0  0  0  0  0  0  0  0  0  0
   30.5004   31.3274   52.3306 H   0  0  0  0  0  0  0  0  0  0  0  0
   32.0785   30.3465   51.2703 C   0  0  0  0  0  0  0  0  0  0  0  0
   31.8034   27.5536   53.9785 H   0  0  0  0  0  0  0  0  0  0  0  0
   32.2059   31.0828   50.4900 H   0  0  0  0  0  0  0  0  0  0  0  0
  1 16  1  0
  2  1  2  0
  3  2  1  0
  4  5  1  0
  4  3  2  0
  5  1  1  0
  7  8  2  0
  7  6  1  0
  8  4  1  0
  9  8  1  0
 10  9  2  0
 11 10  1  0
 11 13  2  0
 12 11  1  0
 13  7  1  0
 15 14  2  0
 16 15  1  0
 17 16  2  0
 17 18  1  0
 18 19  2  0
 19 14  1  0
 20 18  1  0
 21 20  2  0
  2 22  1  0
  3 23  1  0
  9 24  1  0
 10 25  1  0
 13 26  1  0
 14 27  1  0
 15 28  1  0
 29 30  2  0
 30 31  1  0
 30 32  1  0
 32 33  2  0
 33 34  1  0
 33 35  1  0
 35 36  1  0
 35 37  2  0
 37 29  1  0
 32 38  1  0
 37 39  1  0
 20 29  1  0
M  ISO  8  22  14  23  14  24  14  25  14  26  14  27  14  28  14  31  16
M  ISO  2  34  16  36  16
M  END
>  <DihAtoms>  (1) 
17,19,28,29

>  <DihDeg>  (1) 
-153.70244826168178

$$$$
