
     RDKit          3D

 34 36  0  0  0  0  0  0  0  0999 V2000
   37.4691   31.4380   49.3873 C   0  0  0  0  0  0  0  0  0  0  0  0
   37.8720   32.7221   49.7030 C   0  0  0  0  0  0  0  0  0  0  0  0
   38.6765   33.3275   48.7607 C   0  0  0  0  0  0  0  0  0  0  0  0
   39.0282   32.6723   47.6091 N   0  0  0  0  0  0  0  0  0  0  0  0
   38.6097   31.4186   47.3448 C   0  0  0  0  0  0  0  0  0  0  0  0
   37.8164   30.7960   48.2552 N   0  0  0  0  0  0  0  0  0  0  0  0
   36.5612   30.7290   50.3622 C   0  0  0  0  0  0  0  0  0  0  0  0
   36.4849   29.3098   50.4653 C   0  0  0  0  0  0  0  0  0  0  0  0
   37.3529   30.0300   51.4879 C   0  0  0  0  0  0  0  0  0  0  0  0
   38.9657   30.7155   46.1178 C   0  0  0  0  0  0  0  0  0  0  0  0
   41.0799   31.5572   45.0375 C   0  0  0  0  0  0  0  0  0  0  0  0
   40.4504   32.2633   44.1761 O   0  0  0  0  0  0  0  0  0  0  0  0
   40.4122   30.7598   45.9922 N   0  0  0  0  0  0  0  0  0  0  0  0
   37.5976   33.2303   50.5981 H   0  0  0  0  0  0  0  0  0  0  0  0
   39.0484   34.3458   48.9190 H   0  0  0  0  0  0  0  0  0  0  0  0
   35.7403   31.3885   50.7450 H   0  0  0  0  0  0  0  0  0  0  0  0
   36.9927   28.5830   49.8006 H   0  0  0  0  0  0  0  0  0  0  0  0
   35.5485   28.8737   50.8956 H   0  0  0  0  0  0  0  0  0  0  0  0
   36.9504   30.1584   52.4952 H   0  0  0  0  0  0  0  0  0  0  0  0
   38.4494   29.9594   51.3878 H   0  0  0  0  0  0  0  0  0  0  0  0
   38.5619   29.7094   46.0942 H   0  0  0  0  0  0  0  0  0  0  0  0
   38.5312   31.3116   45.2670 H   0  0  0  0  0  0  0  0  0  0  0  0
   40.8767   30.1366   46.6876 H   0  0  0  0  0  0  0  0  0  0  0  0
   42.5371   31.5828   45.0254 C   0  0  0  0  0  0  0  0  0  0  0  0
   43.3709   30.5499   45.4084 C   0  0  0  0  0  0  0  0  0  0  0  0
   42.9085   29.6467   45.7453 H   0  0  0  0  0  0  0  0  0  0  0  0
   44.7418   30.6705   45.3611 C   0  0  0  0  0  0  0  0  0  0  0  0
   45.3582   31.8051   44.9378 C   0  0  0  0  0  0  0  0  0  0  0  0
   46.4353   31.8077   44.9349 H   0  0  0  0  0  0  0  0  0  0  0  0
   44.5817   32.8633   44.5453 C   0  0  0  0  0  0  0  0  0  0  0  0
   45.0414   33.7768   44.2045 H   0  0  0  0  0  0  0  0  0  0  0  0
   43.2183   32.7279   44.5981 C   0  0  0  0  0  0  0  0  0  0  0  0
   45.3095   29.7985   45.6847 H   0  0  0  0  0  0  0  0  0  0  0  0
   42.6297   33.5934   44.2770 H   0  0  0  0  0  0  0  0  0  0  0  0
  1  2  2  0
  1  7  1  0
  3  2  1  0
  4  3  2  0
  5  4  1  0
  5  6  2  0
  6  1  1  0
  7  8  1  0
  7  9  1  0
  8  9  1  0
 10  5  1  0
 11 13  1  0
 12 11  2  0
 13 10  1  0
  2 14  1  0
  3 15  1  0
  7 16  1  0
  8 17  1  0
  8 18  1  0
  9 19  1  0
  9 20  1  0
 10 21  1  0
 10 22  1  0
 13 23  1  0
 24 25  2  0
 25 26  1  0
 25 27  1  0
 27 28  2  0
 28 29  1  0
 28 30  1  0
 30 31  1  0
 30 32  2  0
 32 24  1  0
 27 33  1  0
 32 34  1  0
 11 24  1  0
M  ISO  8  14  14  15  14  16  13  17  13  18  13  19  13  20  13  21   8
M  ISO  4  22   8  26  16  29  16  31  16
M  END
>  <DihAtoms>  (1) 
12,10,23,24

>  <DihDeg>  (1) 
-0.025820289699491492

$$$$
