
     RDKit          3D

 31 33  0  0  0  0  0  0  0  0999 V2000
   33.4860   28.9300   47.7470 C   0  0  0  0  0  0  0  0  0  0  0  0
   33.8100   27.7250   48.2770 C   0  0  0  0  0  0  0  0  0  0  0  0
   34.8650   27.9300   49.1780 C   0  0  0  0  0  0  0  0  0  0  0  0
   35.1230   29.3020   49.1320 C   0  0  0  0  0  0  0  0  0  0  0  0
   34.2830   29.7900   48.2850 O   0  0  0  0  0  0  0  0  0  0  0  0
   32.4300   29.1030   46.7710 C   0  0  0  0  0  0  0  0  0  0  0  0
   31.3750   28.4780   46.9050 O   0  0  0  0  0  0  0  0  0  0  0  0
   32.6910   30.0260   45.6730 C   0  0  0  0  0  0  0  0  0  0  0  0
   33.8050   29.7610   44.8830 C   0  0  0  0  0  0  0  0  0  0  0  0
   34.0930   30.6120   43.8290 C   0  0  0  0  0  0  0  0  0  0  0  0
   33.2670   31.6760   43.6140 N   0  0  0  0  0  0  0  0  0  0  0  0
   32.2000   31.9100   44.3900 C   0  0  0  0  0  0  0  0  0  0  0  0
   31.9180   31.0910   45.4090 N   0  0  0  0  0  0  0  0  0  0  0  0
   36.1580   30.0010   49.9150 C   0  0  0  0  0  0  0  0  0  0  0  0
   36.2230   29.7880   51.1550 O   0  0  0  0  0  0  0  0  0  0  0  0
   37.0720   30.9060   49.2730 C   0  0  0  0  0  0  0  0  0  0  0  0
   37.2950   32.1840   49.7550 C   0  0  0  0  0  0  0  0  0  0  0  0
   38.1790   33.0260   49.1200 C   0  0  0  0  0  0  0  0  0  0  0  0
   38.8830   32.6670   47.9920 C   0  0  0  0  0  0  0  0  0  0  0  0
   38.6800   31.3950   47.4870 C   0  0  0  0  0  0  0  0  0  0  0  0
   37.7950   30.5640   48.1320 C   0  0  0  0  0  0  0  0  0  0  0  0
   33.3325   26.7621   48.0430 H   0  0  0  0  0  0  0  0  0  0  0  0
   35.3787   27.1733   49.7892 H   0  0  0  0  0  0  0  0  0  0  0  0
   34.4455   28.8914   45.0917 H   0  0  0  0  0  0  0  0  0  0  0  0
   34.9649   30.4345   43.1823 H   0  0  0  0  0  0  0  0  0  0  0  0
   31.5546   32.7776   44.1885 H   0  0  0  0  0  0  0  0  0  0  0  0
   36.7614   32.5294   50.6528 H   0  0  0  0  0  0  0  0  0  0  0  0
   38.3306   34.0341   49.5331 H   0  0  0  0  0  0  0  0  0  0  0  0
   39.5817   33.3666   47.5098 H   0  0  0  0  0  0  0  0  0  0  0  0
   39.2156   31.0557   46.5881 H   0  0  0  0  0  0  0  0  0  0  0  0
   37.6469   29.5560   47.7173 H   0  0  0  0  0  0  0  0  0  0  0  0
  1  2  2  0
  1  5  1  0
  2  3  1  0
  4  3  2  0
  4 14  1  0
  5  4  1  0
  6  7  2  0
  6  1  1  0
  8  6  1  0
  9  8  2  0
 10  9  1  0
 11 10  2  0
 11 12  1  0
 12 13  2  0
 13  8  1  0
 14 15  2  0
 16 17  2  0
 16 14  1  0
 18 17  1  0
 19 18  2  0
 20 19  1  0
 20 21  2  0
 21 16  1  0
  2 22  1  0
  3 23  1  0
  9 24  1  0
 10 25  1  0
 12 26  1  0
 17 27  1  0
 18 28  1  0
 19 29  1  0
 20 30  1  0
 21 31  1  0
M  ISO  8  22  14  23  14  24  14  25  14  26  14  27  14  28  14  29  14
M  ISO  2  30  14  31  14
M  END
>  <minimizedAffinity>  (1) 
-5.63502073

>  <minimizedRMSD>  (1) 
6.03206301

$$$$
