
     RDKit          3D

 22 23  0  0  0  0  0  0  0  0999 V2000
   38.1270   32.4660   48.7180 C   0  0  0  0  0  0  0  0  0  0  0  0
   38.1660   33.6730   49.0930 O   0  0  0  0  0  0  0  0  0  0  0  0
   37.3200   29.8150   51.2190 C   0  0  0  0  0  0  0  0  0  0  0  0
   38.0530   30.7800   50.5240 C   0  0  0  0  0  0  0  0  0  0  0  0
   37.4440   31.4380   49.4740 C   0  0  0  0  0  0  0  0  0  0  0  0
   36.1460   31.0890   49.1880 N   0  0  0  0  0  0  0  0  0  0  0  0
   35.4680   30.1740   49.8570 C   0  0  0  0  0  0  0  0  0  0  0  0
   36.0320   29.5220   50.8750 N   0  0  0  0  0  0  0  0  0  0  0  0
   38.7810   32.0090   47.4660 C   0  0  0  0  0  0  0  0  0  0  0  0
   38.6810   30.8360   46.7690 C   0  0  0  0  0  0  0  0  0  0  0  0
   39.3630   30.6200   45.5910 C   0  0  0  0  0  0  0  0  0  0  0  0
   40.1790   31.6270   45.0950 C   0  0  0  0  0  0  0  0  0  0  0  0
   40.3370   32.8400   45.7360 C   0  0  0  0  0  0  0  0  0  0  0  0
   39.6280   32.9980   46.9130 C   0  0  0  0  0  0  0  0  0  0  0  0
   37.7893   29.2816   52.0587 H   0  0  0  0  0  0  0  0  0  0  0  0
   39.0909   31.0102   50.8066 H   0  0  0  0  0  0  0  0  0  0  0  0
   34.4298   29.9477   49.5724 H   0  0  0  0  0  0  0  0  0  0  0  0
   38.0341   30.0379   47.1623 H   0  0  0  0  0  0  0  0  0  0  0  0
   39.2623   29.6658   45.0532 H   0  0  0  0  0  0  0  0  0  0  0  0
   40.7214   31.4521   44.1541 H   0  0  0  0  0  0  0  0  0  0  0  0
   40.9868   33.6319   45.3351 H   0  0  0  0  0  0  0  0  0  0  0  0
   39.7289   33.9514   47.4523 H   0  0  0  0  0  0  0  0  0  0  0  0
  1  2  2  0
  1  5  1  0
  4  3  2  0
  5  4  1  0
  6  5  2  0
  6  7  1  0
  7  8  2  0
  8  3  1  0
  9  1  1  0
 10  9  2  0
 11 10  1  0
 12 11  2  0
 12 13  1  0
 13 14  2  0
 14  9  1  0
  3 15  1  0
  4 16  1  0
  7 17  1  0
 10 18  1  0
 11 19  1  0
 12 20  1  0
 13 21  1  0
 14 22  1  0
M  ISO  8  15  14  16  14  17  14  18  14  19  14  20  14  21  14  22  14
M  END
>  <minimizedAffinity>  (1) 
-5.49440432

>  <minimizedRMSD>  (1) 
2.29929852

$$$$
