
     RDKit          3D

 22 23  0  0  0  0  0  0  0  0999 V2000
   37.4620   30.2970   49.3890 C   0  0  0  0  0  0  0  0  0  0  0  0
   38.0800   29.6610   50.3020 O   0  0  0  0  0  0  0  0  0  0  0  0
   36.1540   29.8910   48.9220 C   0  0  0  0  0  0  0  0  0  0  0  0
   35.6380   28.7370   49.5280 C   0  0  0  0  0  0  0  0  0  0  0  0
   34.3670   28.2480   49.1500 C   0  0  0  0  0  0  0  0  0  0  0  0
   33.7020   28.9610   48.1790 N   0  0  0  0  0  0  0  0  0  0  0  0
   34.2310   30.0630   47.6220 C   0  0  0  0  0  0  0  0  0  0  0  0
   35.4470   30.5230   47.9900 N   0  0  0  0  0  0  0  0  0  0  0  0
   38.1730   31.4600   48.8550 C   0  0  0  0  0  0  0  0  0  0  0  0
   38.3660   32.5990   49.6120 C   0  0  0  0  0  0  0  0  0  0  0  0
   39.0360   33.6950   49.1040 C   0  0  0  0  0  0  0  0  0  0  0  0
   39.5060   33.5920   47.7940 C   0  0  0  0  0  0  0  0  0  0  0  0
   39.3290   32.4700   47.0170 C   0  0  0  0  0  0  0  0  0  0  0  0
   38.6530   31.3950   47.5600 C   0  0  0  0  0  0  0  0  0  0  0  0
   36.2225   28.2120   50.2979 H   0  0  0  0  0  0  0  0  0  0  0  0
   33.9330   27.3465   49.6071 H   0  0  0  0  0  0  0  0  0  0  0  0
   33.6623   30.6022   46.8501 H   0  0  0  0  0  0  0  0  0  0  0  0
   37.9781   32.6341   50.6408 H   0  0  0  0  0  0  0  0  0  0  0  0
   39.1915   34.6045   49.7028 H   0  0  0  0  0  0  0  0  0  0  0  0
   40.0437   34.4487   47.3618 H   0  0  0  0  0  0  0  0  0  0  0  0
   39.7166   32.4303   45.9883 H   0  0  0  0  0  0  0  0  0  0  0  0
   38.4962   30.4857   46.9612 H   0  0  0  0  0  0  0  0  0  0  0  0
  1  2  2  0
  3  1  1  0
  3  4  2  0
  5  4  1  0
  6  5  2  0
  7  8  2  0
  7  6  1  0
  8  3  1  0
  9  1  1  0
  9 10  2  0
 11 10  1  0
 12 11  2  0
 13 14  2  0
 13 12  1  0
 14  9  1  0
  4 15  1  0
  5 16  1  0
  7 17  1  0
 10 18  1  0
 11 19  1  0
 12 20  1  0
 13 21  1  0
 14 22  1  0
M  ISO  8  15  14  16  14  17  14  18  14  19  14  20  14  21  14  22  14
M  END
>  <minimizedAffinity>  (1) 
-5.19438457

>  <minimizedRMSD>  (1) 
5.23673153

$$$$
