
     RDKit          3D

 42 44  0  0  0  0  0  0  0  0999 V2000
   37.0810   30.9473   49.0289 C   0  0  0  0  0  0  0  0  0  0  0  0
   36.8115   31.8785   50.0323 C   0  0  0  0  0  0  0  0  0  0  0  0
   37.4215   33.1224   50.0609 C   0  0  0  0  0  0  0  0  0  0  0  0
   38.3346   33.4625   49.0586 C   0  0  0  0  0  0  0  0  0  0  0  0
   38.5890   32.5399   48.0818 C   0  0  0  0  0  0  0  0  0  0  0  0
   37.9602   31.3072   48.0876 C   0  0  0  0  0  0  0  0  0  0  0  0
   36.4678   29.6361   49.0176 C   0  0  1  0  0  0  0  0  0  0  0  0
   36.8630   28.8971   49.9904 O   0  0  0  0  0  0  0  0  0  0  0  0
   33.6140   30.1493   46.8262 C   0  0  0  0  0  0  0  0  0  0  0  0
   32.9540   28.9360   46.8458 C   0  0  0  0  0  0  0  0  0  0  0  0
   33.4485   27.9399   47.6659 C   0  0  0  0  0  0  0  0  0  0  0  0
   34.5699   28.1869   48.4257 N   0  0  0  0  0  0  0  0  0  0  0  0
   35.1565   29.3639   48.3617 C   0  0  0  0  0  0  0  0  0  0  0  0
   34.6860   30.3501   47.5681 N   0  0  0  0  0  0  0  0  0  0  0  0
   38.3446   30.4198   47.0145 C   0  0  0  0  0  0  0  0  0  0  0  0
   38.8204   30.8375   45.8360 C   0  0  0  0  0  0  0  0  0  0  0  0
   39.2831   30.0177   44.6892 C   0  0  0  0  0  0  0  0  0  0  0  0
   39.1874   30.9939   43.1828 S   0  0  0  0  0  0  0  0  0  0  0  0
   36.0993   31.6313   50.8253 H   0  0  0  0  0  0  0  0  0  0  0  0
   37.1577   33.7848   50.8727 H   0  0  0  0  0  0  0  0  0  0  0  0
   38.7540   34.4395   49.1614 H   0  0  0  0  0  0  0  0  0  0  0  0
   39.3185   32.9477   47.3786 H   0  0  0  0  0  0  0  0  0  0  0  0
   37.0089   29.0566   48.1743 H   0  0  0  0  0  0  0  0  0  0  0  0
   36.5051   28.9417   50.9043 H   0  0  0  0  0  0  0  0  0  0  0  0
   33.1865   30.8897   46.1715 H   0  0  0  0  0  0  0  0  0  0  0  0
   32.0843   28.6265   46.3067 H   0  0  0  0  0  0  0  0  0  0  0  0
   33.0571   26.9304   47.8059 H   0  0  0  0  0  0  0  0  0  0  0  0
   38.3623   29.3286   46.8998 H   0  0  0  0  0  0  0  0  0  0  0  0
   38.9148   31.9339   45.6921 H   0  0  0  0  0  0  0  0  0  0  0  0
   40.3056   29.6709   44.8598 H   0  0  0  0  0  0  0  0  0  0  0  0
   38.5629   29.1600   44.5567 H   0  0  0  0  0  0  0  0  0  0  0  0
   40.3619   32.3521   43.2331 C   0  0  0  0  0  0  0  0  0  0  0  0
   39.7676   33.4790   43.7924 C   0  0  0  0  0  0  0  0  0  0  0  0
   38.7538   33.5965   44.1687 H   0  0  0  0  0  0  0  0  0  0  0  0
   40.5058   34.6587   43.9233 C   0  0  0  0  0  0  0  0  0  0  0  0
   41.8197   34.6918   43.4949 C   0  0  0  0  0  0  0  0  0  0  0  0
   42.4972   35.5299   43.5364 H   0  0  0  0  0  0  0  0  0  0  0  0
   42.3840   33.5603   42.9443 C   0  0  0  0  0  0  0  0  0  0  0  0
   43.4136   33.4755   42.5729 H   0  0  0  0  0  0  0  0  0  0  0  0
   41.6676   32.4033   42.8133 C   0  0  0  0  0  0  0  0  0  0  0  0
   40.1119   35.5774   44.3491 H   0  0  0  0  0  0  0  0  0  0  0  0
   41.9757   31.4480   42.4055 H   0  0  0  0  0  0  0  0  0  0  0  0
  1  7  1  0
  1  2  2  0
  2  3  1  0
  4  3  2  0
  5  6  2  0
  5  4  1  0
  6  1  1  0
  7  8  1  0
  9 10  2  0
  9 14  1  0
 10 11  1  0
 11 12  2  0
 13 12  1  0
 13  7  1  0
 14 13  2  0
 15  6  1  0
 16 15  2  0
 17 16  1  0
 18 17  1  0
  2 19  1  0
  3 20  1  0
  4 21  1  0
  5 22  1  0
  7 23  1  6
  8 24  1  0
  9 25  1  0
 10 26  1  0
 11 27  1  0
 15 28  1  0
 16 29  1  0
 17 30  1  0
 17 31  1  0
 32 33  2  0
 33 34  1  0
 33 35  1  0
 35 36  2  0
 36 37  1  0
 36 38  1  0
 38 39  1  0
 38 40  2  0
 40 32  1  0
 35 41  1  0
 40 42  1  0
 18 32  1  0
M  ISO  8  19  14  20  14  21  14  22  14  23   8  24   3  25  14  26  14
M  ISO  6  27  14  30   8  31   8  34  16  37  16  39  16
M  END
>  <DihAtoms>  (1) 
16,17,31,32

>  <DihDeg>  (1) 
89.71608060026588

$$$$
