
     RDKit          3D

 42 46  0  0  0  0  0  0  0  0999 V2000
   36.2030   30.3780   45.9070 C   0  0  0  0  0  0  0  0  0  0  0  0
   36.7330   30.6760   47.1160 C   0  0  0  0  0  0  0  0  0  0  0  0
   36.0600   30.3330   48.2810 C   0  0  0  0  0  0  0  0  0  0  0  0
   34.8410   29.6820   48.1620 C   0  0  0  0  0  0  0  0  0  0  0  0
   34.2950   29.3740   46.9160 C   0  0  0  0  0  0  0  0  0  0  0  0
   35.0110   29.7420   45.8180 N   0  0  0  0  0  0  0  0  0  0  0  0
   36.9260   30.7450   44.6280 C   0  0  0  0  0  0  0  0  0  0  0  0
   36.6720   29.9250   43.4220 C   0  0  0  0  0  0  0  0  0  0  0  0
   36.1240   31.3170   43.5110 C   0  0  0  0  0  0  0  0  0  0  0  0
   39.6220   33.2320   45.0110 C   0  0  0  0  0  0  0  0  0  0  0  0
   40.7100   32.4520   45.4170 C   0  0  0  0  0  0  0  0  0  0  0  0
   40.5160   31.0680   45.5600 C   0  0  0  0  0  0  0  0  0  0  0  0
   39.2910   30.5750   45.2960 N   0  0  0  0  0  0  0  0  0  0  0  0
   38.2490   31.3450   44.9030 C   0  0  0  0  0  0  0  0  0  0  0  0
   38.4150   32.6810   44.7600 N   0  0  0  0  0  0  0  0  0  0  0  0
   33.0230   28.6940   46.7380 C   0  0  0  0  0  0  0  0  0  0  0  0
   32.4520   28.1470   45.6300 N   0  0  0  0  0  0  0  0  0  0  0  0
   31.2460   27.6280   45.9960 C   0  0  0  0  0  0  0  0  0  0  0  0
   31.0670   27.8470   47.3170 N   0  0  0  0  0  0  0  0  0  0  0  0
   32.1420   28.4900   47.7570 N   0  0  0  0  0  0  0  0  0  0  0  0
   30.0360   27.5450   48.2330 C   0  0  0  0  0  0  0  0  0  0  0  0
   30.1970   27.6080   49.6080 C   0  0  0  0  0  0  0  0  0  0  0  0
   29.1750   27.3070   50.4860 C   0  0  0  0  0  0  0  0  0  0  0  0
   27.9330   26.9240   49.9700 C   0  0  0  0  0  0  0  0  0  0  0  0
   27.8100   26.8730   48.5960 C   0  0  0  0  0  0  0  0  0  0  0  0
   28.8060   27.1650   47.6880 C   0  0  0  0  0  0  0  0  0  0  0  0
   37.7022   31.1927   47.1761 H   0  0  0  0  0  0  0  0  0  0  0  0
   36.4811   30.5705   49.2691 H   0  0  0  0  0  0  0  0  0  0  0  0
   34.2913   29.4017   49.0727 H   0  0  0  0  0  0  0  0  0  0  0  0
   35.9924   29.0618   43.4769 H   0  0  0  0  0  0  0  0  0  0  0  0
   37.3035   29.3821   42.7033 H   0  0  0  0  0  0  0  0  0  0  0  0
   36.5442   32.1165   42.8831 H   0  0  0  0  0  0  0  0  0  0  0  0
   35.1266   31.7715   43.4181 H   0  0  0  0  0  0  0  0  0  0  0  0
   39.7526   34.3179   44.8937 H   0  0  0  0  0  0  0  0  0  0  0  0
   41.6898   32.9095   45.6186 H   0  0  0  0  0  0  0  0  0  0  0  0
   41.3376   30.4088   45.8771 H   0  0  0  0  0  0  0  0  0  0  0  0
   30.5374   27.1166   45.3279 H   0  0  0  0  0  0  0  0  0  0  0  0
   31.1740   27.9086   50.0144 H   0  0  0  0  0  0  0  0  0  0  0  0
   29.3349   27.3674   51.5726 H   0  0  0  0  0  0  0  0  0  0  0  0
   27.0899   26.6740   50.6308 H   0  0  0  0  0  0  0  0  0  0  0  0
   26.8325   26.5734   48.1901 H   0  0  0  0  0  0  0  0  0  0  0  0
   28.6427   27.1028   46.6020 H   0  0  0  0  0  0  0  0  0  0  0  0
  1  2  2  0
  2  3  1  0
  4  3  2  0
  5  4  1  0
  6  1  1  0
  6  5  2  0
  7 14  1  0
  7  1  1  0
  8  9  1  0
  8  7  1  0
  9  7  1  0
 10 11  2  0
 11 12  1  0
 13 12  2  0
 14 13  1  0
 15 14  2  0
 15 10  1  0
 16  5  1  0
 16 20  2  0
 17 18  2  0
 17 16  1  0
 18 19  1  0
 19 20  1  0
 19 21  1  0
 21 22  2  0
 22 23  1  0
 24 23  2  0
 25 24  1  0
 26 21  1  0
 26 25  2  0
  2 27  1  0
  3 28  1  0
  4 29  1  0
  8 30  1  0
  8 31  1  0
  9 32  1  0
  9 33  1  0
 10 34  1  0
 11 35  1  0
 12 36  1  0
 18 37  1  0
 22 38  1  0
 23 39  1  0
 24 40  1  0
 25 41  1  0
 26 42  1  0
M  ISO  8  27  14  28  14  29  14  30  13  31  13  32  13  33  13  34  14
M  ISO  8  35  14  36  14  37  14  38  14  39  14  40  14  41  14  42  14
M  END
>  <minimizedAffinity>  (1) 
-6.12856817

>  <minimizedRMSD>  (1) 
1.29466605

$$$$
