
     RDKit          3D

 43 46  0  0  0  0  0  0  0  0999 V2000
   34.0035   28.8111   48.2900 C   0  0  0  0  0  0  0  0  0  0  0  0
   34.6442   28.3428   49.4019 C   0  0  0  0  0  0  0  0  0  0  0  0
   35.8754   28.7828   49.8352 C   0  0  0  0  0  0  0  0  0  0  0  0
   36.5376   29.7458   49.1451 C   0  0  0  0  0  0  0  0  0  0  0  0
   35.8948   30.2334   48.0073 C   0  0  0  0  0  0  0  0  0  0  0  0
   34.6853   29.7824   47.6054 N   0  0  0  0  0  0  0  0  0  0  0  0
   31.9075   27.4926   48.5575 C   0  0  0  0  0  0  0  0  0  0  0  0
   32.7272   28.3648   47.8241 C   0  0  0  0  0  0  0  0  0  0  0  0
   32.2518   28.7878   46.6087 C   0  0  0  0  0  0  0  0  0  0  0  0
   31.0312   28.3589   46.1642 N   0  0  0  0  0  0  0  0  0  0  0  0
   30.2758   27.5084   46.9227 C   0  0  0  0  0  0  0  0  0  0  0  0
   30.7050   27.0661   48.1266 N   0  0  0  0  0  0  0  0  0  0  0  0
   37.7680   30.3034   49.4280 O   0  0  0  0  0  0  0  0  0  0  0  0
   38.3540   31.2772   48.6443 C   0  0  0  0  0  0  0  0  0  0  0  0
   38.4468   32.5169   49.2270 C   0  0  0  0  0  0  0  0  0  0  0  0
   39.0580   33.3633   48.3042 C   0  0  0  0  0  0  0  0  0  0  0  0
   39.3145   32.6421   47.2173 N   0  0  0  0  0  0  0  0  0  0  0  0
   38.8988   31.4430   47.4372 N   0  0  0  0  0  0  0  0  0  0  0  0
   39.9533   33.0707   46.0008 C   0  0  0  0  0  0  0  0  0  0  0  0
   40.6964   31.9285   45.3916 C   0  0  0  0  0  0  0  0  0  0  0  0
   34.1715   27.5727   49.9997 H   0  0  0  0  0  0  0  0  0  0  0  0
   36.3701   28.4014   50.7188 H   0  0  0  0  0  0  0  0  0  0  0  0
   36.2846   31.0016   47.3454 H   0  0  0  0  0  0  0  0  0  0  0  0
   32.2376   27.1323   49.5190 H   0  0  0  0  0  0  0  0  0  0  0  0
   32.8197   29.4670   45.9685 H   0  0  0  0  0  0  0  0  0  0  0  0
   29.3149   27.1691   46.5757 H   0  0  0  0  0  0  0  0  0  0  0  0
   38.1696   32.9521   50.1783 H   0  0  0  0  0  0  0  0  0  0  0  0
   39.3187   34.4245   48.3657 H   0  0  0  0  0  0  0  0  0  0  0  0
   40.5828   33.9565   46.1806 H   0  0  0  0  0  0  0  0  0  0  0  0
   39.1457   33.4304   45.3032 H   0  0  0  0  0  0  0  0  0  0  0  0
   41.2241   32.3680   44.4857 H   0  0  0  0  0  0  0  0  0  0  0  0
   41.5889   31.6351   46.0372 H   0  0  0  0  0  0  0  0  0  0  0  0
   39.9178   30.7416   45.0232 C   0  0  0  0  0  0  0  0  0  0  0  0
   38.9137   30.5042   44.1131 C   0  0  0  0  0  0  0  0  0  0  0  0
   38.5949   31.3920   43.5845 H   0  0  0  0  0  0  0  0  0  0  0  0
   38.3671   29.2546   43.9359 C   0  0  0  0  0  0  0  0  0  0  0  0
   38.7879   28.1600   44.6580 C   0  0  0  0  0  0  0  0  0  0  0  0
   38.2658   27.2467   44.4090 H   0  0  0  0  0  0  0  0  0  0  0  0
   39.7926   28.3632   45.5801 C   0  0  0  0  0  0  0  0  0  0  0  0
   40.0956   27.4834   46.1270 H   0  0  0  0  0  0  0  0  0  0  0  0
   40.3397   29.6252   45.7535 C   0  0  0  0  0  0  0  0  0  0  0  0
   37.5896   29.2220   43.1868 H   0  0  0  0  0  0  0  0  0  0  0  0
   41.1252   29.6072   46.5251 H   0  0  0  0  0  0  0  0  0  0  0  0
  1  2  2  0
  2  3  1  0
  4 13  1  0
  4  3  2  0
  5  4  1  0
  6  5  2  0
  6  1  1  0
  8  1  1  0
  8  7  2  0
  9  8  1  0
 10  9  2  0
 10 11  1  0
 11 12  2  0
 12  7  1  0
 14 15  1  0
 14 13  1  0
 16 15  2  0
 17 18  1  0
 17 16  1  0
 18 14  2  0
 19 17  1  0
 20 19  1  0
  2 21  1  0
  3 22  1  0
  5 23  1  0
  7 24  1  0
  9 25  1  0
 11 26  1  0
 15 27  1  0
 16 28  1  0
 19 29  1  0
 19 30  1  0
 20 31  1  0
 20 32  1  0
 33 34  2  0
 34 35  1  0
 34 36  1  0
 36 37  2  0
 37 38  1  0
 37 39  1  0
 39 40  1  0
 39 41  2  0
 41 33  1  0
 36 42  1  0
 41 43  1  0
 20 33  1  0
M  ISO  8  21  14  22  14  23  14  24  14  25  14  26  14  27  14  28  14
M  ISO  7  29   8  30   8  31   8  32   8  35  16  38  16  40  16
M  END
>  <DihAtoms>  (1) 
18,19,32,33

>  <DihDeg>  (1) 
-100.76699083951098

$$$$
