
     RDKit          3D

 37 40  0  0  0  0  0  0  0  0999 V2000
   33.8940   28.5540   48.8860 C   0  0  0  0  0  0  0  0  0  0  0  0
   34.6170   28.4300   50.0200 C   0  0  0  0  0  0  0  0  0  0  0  0
   35.5230   29.3570   50.4900 C   0  0  0  0  0  0  0  0  0  0  0  0
   35.7370   30.5060   49.7850 C   0  0  0  0  0  0  0  0  0  0  0  0
   34.9950   30.6490   48.6080 C   0  0  0  0  0  0  0  0  0  0  0  0
   34.1230   29.7080   48.1990 N   0  0  0  0  0  0  0  0  0  0  0  0
   31.5840   27.6080   48.6980 C   0  0  0  0  0  0  0  0  0  0  0  0
   32.9570   27.5850   48.4080 C   0  0  0  0  0  0  0  0  0  0  0  0
   33.4000   26.5440   47.6050 C   0  0  0  0  0  0  0  0  0  0  0  0
   32.4940   25.6190   47.1510 N   0  0  0  0  0  0  0  0  0  0  0  0
   31.1890   25.7000   47.4680 C   0  0  0  0  0  0  0  0  0  0  0  0
   30.7240   26.6860   48.2380 N   0  0  0  0  0  0  0  0  0  0  0  0
   36.6110   31.5360   50.1190 O   0  0  0  0  0  0  0  0  0  0  0  0
   37.5420   32.0180   49.2010 C   0  0  0  0  0  0  0  0  0  0  0  0
   38.2610   33.1400   49.6360 C   0  0  0  0  0  0  0  0  0  0  0  0
   39.1370   33.5020   48.6300 C   0  0  0  0  0  0  0  0  0  0  0  0
   38.9330   32.6170   47.6440 N   0  0  0  0  0  0  0  0  0  0  0  0
   38.0070   31.7500   47.9670 N   0  0  0  0  0  0  0  0  0  0  0  0
   39.4700   32.3770   46.3250 C   0  0  0  0  0  0  0  0  0  0  0  0
   39.7480   31.0760   45.8840 C   0  0  0  0  0  0  0  0  0  0  0  0
   40.2590   30.9370   44.6060 C   0  0  0  0  0  0  0  0  0  0  0  0
   40.5090   31.9900   43.7500 C   0  0  0  0  0  0  0  0  0  0  0  0
   40.2310   33.2870   44.1910 C   0  0  0  0  0  0  0  0  0  0  0  0
   39.7190   33.4420   45.4660 C   0  0  0  0  0  0  0  0  0  0  0  0
   34.4715   27.5169   50.6160 H   0  0  0  0  0  0  0  0  0  0  0  0
   36.0695   29.1719   51.4265 H   0  0  0  0  0  0  0  0  0  0  0  0
   35.1275   31.5556   47.9994 H   0  0  0  0  0  0  0  0  0  0  0  0
   31.1949   28.4189   49.3313 H   0  0  0  0  0  0  0  0  0  0  0  0
   34.4634   26.4613   47.3359 H   0  0  0  0  0  0  0  0  0  0  0  0
   30.4924   24.9395   47.0855 H   0  0  0  0  0  0  0  0  0  0  0  0
   38.1479   33.6438   50.6073 H   0  0  0  0  0  0  0  0  0  0  0  0
   39.8505   34.3391   48.6370 H   0  0  0  0  0  0  0  0  0  0  0  0
   39.5674   30.2021   46.5271 H   0  0  0  0  0  0  0  0  0  0  0  0
   40.4805   29.9205   44.2488 H   0  0  0  0  0  0  0  0  0  0  0  0
   40.9175   31.8129   42.7441 H   0  0  0  0  0  0  0  0  0  0  0  0
   40.4139   34.1574   43.5437 H   0  0  0  0  0  0  0  0  0  0  0  0
   39.4972   34.4599   45.8190 H   0  0  0  0  0  0  0  0  0  0  0  0
  1  2  2  0
  2  3  1  0
  4 13  1  0
  4  3  2  0
  5  4  1  0
  6  5  2  0
  6  1  1  0
  8  7  2  0
  8  1  1  0
  9  8  1  0
 10 11  1  0
 10  9  2  0
 11 12  2  0
 12  7  1  0
 14 15  1  0
 14 13  1  0
 16 15  2  0
 17 18  1  0
 17 16  1  0
 18 14  2  0
 19 17  1  0
 20 19  2  0
 21 20  1  0
 22 23  1  0
 22 21  2  0
 23 24  2  0
 24 19  1  0
  2 25  1  0
  3 26  1  0
  5 27  1  0
  7 28  1  0
  9 29  1  0
 11 30  1  0
 15 31  1  0
 16 32  1  0
 20 33  1  0
 21 34  1  0
 22 35  1  0
 23 36  1  0
 24 37  1  0
M  ISO  8  25  14  26  14  27  14  28  14  29  14  30  14  31  14  32  14
M  ISO  5  33  14  34  14  35  14  36  14  37  14
M  END
>  <minimizedAffinity>  (1) 
-6.49344921

>  <minimizedRMSD>  (1) 
1.84623754

$$$$
