
     RDKit          3D

 23 24  0  0  0  0  0  0  0  0999 V2000
   37.3210   30.8830   46.5240 C   0  0  0  0  0  0  0  0  0  0  0  0
   38.5480   31.4680   45.9390 C   0  0  0  0  0  0  0  0  0  0  0  0
   39.7000   30.6820   45.8870 C   0  0  0  0  0  0  0  0  0  0  0  0
   40.8630   31.2430   45.3300 C   0  0  0  0  0  0  0  0  0  0  0  0
   40.8050   32.5380   44.8650 N   0  0  0  0  0  0  0  0  0  0  0  0
   39.6770   33.2570   44.9360 C   0  0  0  0  0  0  0  0  0  0  0  0
   38.5630   32.7320   45.4650 N   0  0  0  0  0  0  0  0  0  0  0  0
   37.4420   30.7430   47.9980 C   0  0  0  0  0  0  0  0  0  0  0  0
   38.2400   31.5340   48.7990 C   0  0  0  0  0  0  0  0  0  0  0  0
   38.3310   31.3800   50.1650 C   0  0  0  0  0  0  0  0  0  0  0  0
   37.5840   30.3760   50.7940 C   0  0  0  0  0  0  0  0  0  0  0  0
   36.7730   29.5630   50.0230 C   0  0  0  0  0  0  0  0  0  0  0  0
   36.7090   29.7490   48.6580 C   0  0  0  0  0  0  0  0  0  0  0  0
   37.1511   29.8901   46.0821 H   0  0  0  0  0  0  0  0  0  0  0  0
   36.4773   31.5543   46.3062 H   0  0  0  0  0  0  0  0  0  0  0  0
   39.6983   29.6513   46.2714 H   0  0  0  0  0  0  0  0  0  0  0  0
   41.7952   30.6623   45.2673 H   0  0  0  0  0  0  0  0  0  0  0  0
   39.6648   34.2893   44.5561 H   0  0  0  0  0  0  0  0  0  0  0  0
   38.8338   32.3280   48.3225 H   0  0  0  0  0  0  0  0  0  0  0  0
   38.9840   32.0391   50.7559 H   0  0  0  0  0  0  0  0  0  0  0  0
   37.6414   30.2363   51.8836 H   0  0  0  0  0  0  0  0  0  0  0  0
   36.1793   28.7684   50.4984 H   0  0  0  0  0  0  0  0  0  0  0  0
   36.0569   29.0911   48.0647 H   0  0  0  0  0  0  0  0  0  0  0  0
  1  8  1  0
  2  1  1  0
  3  2  2  0
  4  3  1  0
  5  6  1  0
  5  4  2  0
  6  7  2  0
  7  2  1  0
  8 13  1  0
  8  9  2  0
  9 10  1  0
 10 11  2  0
 12 11  1  0
 13 12  2  0
  1 14  1  0
  1 15  1  0
  3 16  1  0
  4 17  1  0
  6 18  1  0
  9 19  1  0
 10 20  1  0
 11 21  1  0
 12 22  1  0
 13 23  1  0
M  ISO  8  14   8  15   8  16  14  17  14  18  14  19  14  20  14  21  14
M  ISO  2  22  14  23  14
M  END
>  <minimizedAffinity>  (1) 
-5.32790327

>  <minimizedRMSD>  (1) 
4.99549437

$$$$
