
     RDKit          3D

 42 44  0  0  1  0  0  0  0  0999 V2000
   34.2190   29.4130   48.6970 C   0  0  1  0  0  0  0  0  0  0  0  0
   33.8880   30.0520   49.9510 C   0  0  0  0  0  0  0  0  0  0  0  0
   34.6760   29.6240   51.1710 C   0  0  0  0  0  0  0  0  0  0  0  0
   36.1220   29.3450   50.9360 C   0  0  0  0  0  0  0  0  0  0  0  0
   36.4970   28.7260   49.6420 C   0  0  0  0  0  0  0  0  0  0  0  0
   35.7100   29.2590   48.5040 C   0  0  2  0  0  0  0  0  0  0  0  0
   32.1670   27.8950   48.8100 C   0  0  0  0  0  0  0  0  0  0  0  0
   33.4950   28.1740   48.3630 C   0  0  0  0  0  0  0  0  0  0  0  0
   34.0870   27.1900   47.5870 C   0  0  0  0  0  0  0  0  0  0  0  0
   33.3880   26.0410   47.2990 N   0  0  0  0  0  0  0  0  0  0  0  0
   32.1420   25.8380   47.7490 C   0  0  0  0  0  0  0  0  0  0  0  0
   31.5240   26.7800   48.5150 N   0  0  0  0  0  0  0  0  0  0  0  0
   36.2250   30.7080   48.3150 C   0  0  0  0  0  0  0  0  0  0  0  0
   37.6580   30.6910   47.7870 C   0  0  0  0  0  0  0  0  0  0  0  0
   38.3800   31.9440   48.1210 C   0  0  0  0  0  0  0  0  0  0  0  0
   38.3380   32.5960   49.3340 C   0  0  0  0  0  0  0  0  0  0  0  0
   39.0440   33.7600   49.5580 C   0  0  0  0  0  0  0  0  0  0  0  0
   39.8230   34.2970   48.5330 C   0  0  0  0  0  0  0  0  0  0  0  0
   39.9030   33.6770   47.2820 C   0  0  0  0  0  0  0  0  0  0  0  0
   39.1740   32.5220   47.1280 C   0  0  0  0  0  0  0  0  0  0  0  0
   33.8360   30.1334   47.9592 H   0  0  0  0  0  0  0  0  0  0  0  0
   34.0386   31.1339   49.8217 H   0  0  0  0  0  0  0  0  0  0  0  0
   32.8515   29.7492   50.1604 H   0  0  0  0  0  0  0  0  0  0  0  0
   34.6030   30.4262   51.9201 H   0  0  0  0  0  0  0  0  0  0  0  0
   34.2337   28.6711   51.4971 H   0  0  0  0  0  0  0  0  0  0  0  0
   36.6590   30.3020   51.0116 H   0  0  0  0  0  0  0  0  0  0  0  0
   36.3901   28.5947   51.6944 H   0  0  0  0  0  0  0  0  0  0  0  0
   37.5633   28.9208   49.4545 H   0  0  0  0  0  0  0  0  0  0  0  0
   36.2874   27.6487   49.7156 H   0  0  0  0  0  0  0  0  0  0  0  0
   35.8411   28.5392   47.6826 H   0  0  0  0  0  0  0  0  0  0  0  0
   31.6552   28.6456   49.4302 H   0  0  0  0  0  0  0  0  0  0  0  0
   35.1090   27.3270   47.2040 H   0  0  0  0  0  0  0  0  0  0  0  0
   31.6153   24.9054   47.4984 H   0  0  0  0  0  0  0  0  0  0  0  0
   35.5786   31.2330   47.5963 H   0  0  0  0  0  0  0  0  0  0  0  0
   36.2048   31.2267   49.2848 H   0  0  0  0  0  0  0  0  0  0  0  0
   37.6338   30.5739   46.6935 H   0  0  0  0  0  0  0  0  0  0  0  0
   38.1886   29.8522   48.2611 H   0  0  0  0  0  0  0  0  0  0  0  0
   37.7251   32.1772   50.1457 H   0  0  0  0  0  0  0  0  0  0  0  0
   38.9930   34.2602   50.5364 H   0  0  0  0  0  0  0  0  0  0  0  0
   40.3849   35.2255   48.7121 H   0  0  0  0  0  0  0  0  0  0  0  0
   40.5151   34.0905   46.4669 H   0  0  0  0  0  0  0  0  0  0  0  0
   39.2192   32.0164   46.1522 H   0  0  0  0  0  0  0  0  0  0  0  0
  1  2  1  0
  2  3  1  0
  4  3  1  0
  5  4  1  0
  6  1  1  0
  6  5  1  0
  8  1  1  0
  8  7  2  0
  9  8  1  0
 10  9  2  0
 10 11  1  0
 11 12  2  0
 12  7  1  0
 13  6  1  0
 14 15  1  0
 14 13  1  0
 15 16  2  0
 16 17  1  0
 18 17  2  0
 19 18  1  0
 20 19  2  0
 20 15  1  0
  1 21  1  6
  2 22  1  0
  2 23  1  0
  3 24  1  0
  3 25  1  0
  4 26  1  0
  4 27  1  0
  5 28  1  0
  5 29  1  0
  6 30  1  6
  7 31  1  0
  9 32  1  0
 11 33  1  0
 13 34  1  0
 13 35  1  0
 14 36  1  0
 14 37  1  0
 16 38  1  0
 17 39  1  0
 18 40  1  0
 19 41  1  0
 20 42  1  0
M  ISO  8  21  13  22  13  23  13  24  13  25  13  26  13  27  13  28  13
M  ISO  8  29  13  30  13  31  14  32  14  33  14  34   8  35   8  36   8
M  ISO  6  37   8  38  14  39  14  40  14  41  14  42  14
M  END
>  <minimizedAffinity>  (1) 
-5.79798698

>  <minimizedRMSD>  (1) 
2.87437057

$$$$
