
     RDKit          3D

 47 51  0  0  0  0  0  0  0  0999 V2000
   39.2540   31.9300   44.9530 C   0  0  0  0  0  0  0  0  0  0  0  0
   38.1650   32.5700   45.0850 O   0  0  0  0  0  0  0  0  0  0  0  0
   39.9520   31.6780   46.1730 N   0  0  0  0  0  0  0  0  0  0  0  0
   39.1480   32.2220   42.5850 C   0  0  0  0  0  0  0  0  0  0  0  0
   39.6900   31.5220   43.6500 C   0  0  0  0  0  0  0  0  0  0  0  0
   40.5920   30.5000   43.4780 C   0  0  0  0  0  0  0  0  0  0  0  0
   40.9810   30.1450   42.2020 C   0  0  0  0  0  0  0  0  0  0  0  0
   41.8290   29.2050   41.7330 N   0  0  0  0  0  0  0  0  0  0  0  0
   41.8280   29.3020   40.4030 C   0  0  0  0  0  0  0  0  0  0  0  0
   40.9980   30.2830   40.0230 N   0  0  0  0  0  0  0  0  0  0  0  0
   40.4420   30.8410   41.1360 C   0  0  0  0  0  0  0  0  0  0  0  0
   39.5410   31.8650   41.2890 C   0  0  0  0  0  0  0  0  0  0  0  0
   38.9780   32.5930   40.1450 C   0  0  0  0  0  0  0  0  0  0  0  0
   39.4080   32.3430   38.8400 C   0  0  0  0  0  0  0  0  0  0  0  0
   38.8340   33.0660   37.8130 C   0  0  0  0  0  0  0  0  0  0  0  0
   37.8600   34.0200   38.0190 C   0  0  0  0  0  0  0  0  0  0  0  0
   37.4580   34.2430   39.3290 C   0  0  0  0  0  0  0  0  0  0  0  0
   38.0050   33.5400   40.4070 C   0  0  0  0  0  0  0  0  0  0  0  0
   38.1060   30.1620   47.5010 F   0  0  0  0  0  0  0  0  0  0  0  0
   38.3650   31.3980   47.9990 C   0  0  0  0  0  0  0  0  0  0  0  0
   37.7080   31.8250   49.1190 C   0  0  0  0  0  0  0  0  0  0  0  0
   38.0240   33.0890   49.5660 C   0  0  0  0  0  0  0  0  0  0  0  0
   38.9410   33.9040   48.9480 C   0  0  0  0  0  0  0  0  0  0  0  0
   39.5870   33.4380   47.8160 C   0  0  0  0  0  0  0  0  0  0  0  0
   39.2950   32.1790   47.3440 C   0  0  0  0  0  0  0  0  0  0  0  0
   36.0780   29.3440   51.4550 C   0  0  0  0  0  0  0  0  0  0  0  0
   37.0280   30.1970   50.8740 C   0  0  0  0  0  0  0  0  0  0  0  0
   36.7410   30.9280   49.7460 C   0  0  0  0  0  0  0  0  0  0  0  0
   35.4920   30.7800   49.2240 N   0  0  0  0  0  0  0  0  0  0  0  0
   34.5750   29.9660   49.7710 C   0  0  0  0  0  0  0  0  0  0  0  0
   34.8730   29.2620   50.8690 N   0  0  0  0  0  0  0  0  0  0  0  0
   40.8519   31.1782   46.2084 H   0  0  0  0  0  0  0  0  0  0  0  0
   38.4281   33.0366   42.7525 H   0  0  0  0  0  0  0  0  0  0  0  0
   41.0009   29.9689   44.3502 H   0  0  0  0  0  0  0  0  0  0  0  0
   42.3746   28.5378   42.2969 H   0  0  0  0  0  0  0  0  0  0  0  0
   42.4188   28.6724   39.7214 H   0  0  0  0  0  0  0  0  0  0  0  0
   40.1834   31.5901   38.6356 H   0  0  0  0  0  0  0  0  0  0  0  0
   39.1691   32.8720   36.7834 H   0  0  0  0  0  0  0  0  0  0  0  0
   37.4202   34.5806   37.1810 H   0  0  0  0  0  0  0  0  0  0  0  0
   36.6829   34.9983   39.5256 H   0  0  0  0  0  0  0  0  0  0  0  0
   37.6701   33.7352   41.4364 H   0  0  0  0  0  0  0  0  0  0  0  0
   37.5151   33.4657   50.4655 H   0  0  0  0  0  0  0  0  0  0  0  0
   39.1576   34.9068   49.3448 H   0  0  0  0  0  0  0  0  0  0  0  0
   40.3262   34.0677   47.2991 H   0  0  0  0  0  0  0  0  0  0  0  0
   36.3122   28.7627   52.3590 H   0  0  0  0  0  0  0  0  0  0  0  0
   38.0248   30.2828   51.3313 H   0  0  0  0  0  0  0  0  0  0  0  0
   33.5775   29.8778   49.3158 H   0  0  0  0  0  0  0  0  0  0  0  0
  1  2  2  0
  1  3  1  0
  3 25  1  0
  4  5  2  0
  5  1  1  0
  6  5  1  0
  7  6  2  0
  8  7  1  0
  9  8  1  0
 10  9  2  0
 10 11  1  0
 11 12  2  0
 11  7  1  0
 12  4  1  0
 13 18  1  0
 13 12  1  0
 14 13  2  0
 15 16  2  0
 15 14  1  0
 16 17  1  0
 17 18  2  0
 19 20  1  0
 20 21  2  0
 21 22  1  0
 21 28  1  0
 23 22  2  0
 24 23  1  0
 25 24  2  0
 25 20  1  0
 27 26  2  0
 28 27  1  0
 29 28  2  0
 29 30  1  0
 30 31  2  0
 31 26  1  0
  3 32  1  0
  4 33  1  0
  6 34  1  0
  8 35  1  0
  9 36  1  0
 14 37  1  0
 15 38  1  0
 16 39  1  0
 17 40  1  0
 18 41  1  0
 22 42  1  0
 23 43  1  0
 24 44  1  0
 26 45  1  0
 27 46  1  0
 30 47  1  0
M  END
>  <minimizedAffinity>  (1) 
-7.58088684

>  <minimizedRMSD>  (1) 
0.079833746

$$$$
