
     RDKit          3D

 37 40  0  0  0  0  0  0  0  0999 V2000
   39.0360   32.4370   45.9380 C   0  0  0  0  0  0  0  0  0  0  0  0
   40.0460   33.1640   45.4620 C   0  0  0  0  0  0  0  0  0  0  0  0
   40.3620   33.1210   44.1590 C   0  0  0  0  0  0  0  0  0  0  0  0
   39.5930   32.2960   43.3590 C   0  0  0  0  0  0  0  0  0  0  0  0
   38.4020   31.5850   44.5490 S   0  0  0  0  0  0  0  0  0  0  0  0
   41.1750   29.8050   42.5820 Cl  0  0  0  0  0  0  0  0  0  0  0  0
   40.3030   30.8850   41.5220 C   0  0  0  0  0  0  0  0  0  0  0  0
   39.6150   31.9850   41.9470 C   0  0  0  0  0  0  0  0  0  0  0  0
   38.9230   32.8540   41.1650 C   0  0  0  0  0  0  0  0  0  0  0  0
   38.9030   32.6120   39.7840 C   0  0  0  0  0  0  0  0  0  0  0  0
   39.5760   31.5190   39.2900 C   0  0  0  0  0  0  0  0  0  0  0  0
   39.5690   31.1900   37.5710 Cl  0  0  0  0  0  0  0  0  0  0  0  0
   40.2720   30.6590   40.1450 C   0  0  0  0  0  0  0  0  0  0  0  0
   38.3850   32.9000   49.6240 C   0  0  0  0  0  0  0  0  0  0  0  0
   38.9680   33.0940   48.3560 C   0  0  0  0  0  0  0  0  0  0  0  0
   38.4990   32.3100   47.2960 C   0  0  0  0  0  0  0  0  0  0  0  0
   37.5160   31.4050   47.5100 N   0  0  0  0  0  0  0  0  0  0  0  0
   36.9880   31.2570   48.7510 C   0  0  0  0  0  0  0  0  0  0  0  0
   37.4150   31.9890   49.7810 N   0  0  0  0  0  0  0  0  0  0  0  0
   35.9260   30.2690   48.9510 C   0  0  0  0  0  0  0  0  0  0  0  0
   35.6060   29.8220   50.2170 C   0  0  0  0  0  0  0  0  0  0  0  0
   34.5920   28.8840   50.3670 C   0  0  0  0  0  0  0  0  0  0  0  0
   33.9060   28.3980   49.2870 C   0  0  0  0  0  0  0  0  0  0  0  0
   34.2090   28.8300   48.0160 C   0  0  0  0  0  0  0  0  0  0  0  0
   35.2300   29.7740   47.8660 C   0  0  0  0  0  0  0  0  0  0  0  0
   40.6254   33.8047   46.1430 H   0  0  0  0  0  0  0  0  0  0  0  0
   41.1924   33.7132   43.7470 H   0  0  0  0  0  0  0  0  0  0  0  0
   38.3971   33.7168   41.5997 H   0  0  0  0  0  0  0  0  0  0  0  0
   38.3577   33.2856   39.1065 H   0  0  0  0  0  0  0  0  0  0  0  0
   40.8030   29.7914   39.7262 H   0  0  0  0  0  0  0  0  0  0  0  0
   38.7257   33.4956   50.4838 H   0  0  0  0  0  0  0  0  0  0  0  0
   39.7650   33.8368   48.2044 H   0  0  0  0  0  0  0  0  0  0  0  0
   36.1467   30.2034   51.0958 H   0  0  0  0  0  0  0  0  0  0  0  0
   34.3353   28.5246   51.3745 H   0  0  0  0  0  0  0  0  0  0  0  0
   33.1069   27.6569   49.4360 H   0  0  0  0  0  0  0  0  0  0  0  0
   33.6634   28.4436   47.1425 H   0  0  0  0  0  0  0  0  0  0  0  0
   35.4852   30.1314   46.8575 H   0  0  0  0  0  0  0  0  0  0  0  0
  1 16  1  0
  2  1  2  0
  3  2  1  0
  4  3  2  0
  4  5  1  0
  5  1  1  0
  7  8  2  0
  7  6  1  0
  8  4  1  0
  9  8  1  0
 10  9  2  0
 11 10  1  0
 11 13  2  0
 12 11  1  0
 13  7  1  0
 14 19  2  0
 15 14  1  0
 16 17  1  0
 16 15  2  0
 17 18  2  0
 18 20  1  0
 18 19  1  0
 20 21  2  0
 21 22  1  0
 23 22  2  0
 24 23  1  0
 25 24  2  0
 25 20  1  0
  2 26  1  0
  3 27  1  0
  9 28  1  0
 10 29  1  0
 13 30  1  0
 14 31  1  0
 15 32  1  0
 21 33  1  0
 22 34  1  0
 23 35  1  0
 24 36  1  0
 25 37  1  0
M  ISO  8  26  14  27  14  28  14  29  14  30  14  31  14  32  14  33  14
M  ISO  4  34  14  35  14  36  14  37  14
M  END
>  <minimizedAffinity>  (1) 
-6.89877558

>  <minimizedRMSD>  (1) 
3.23875809

$$$$
