
     RDKit          3D

 46 49  0  0  0  0  0  0  0  0999 V2000
   34.9264   29.9806   46.9126 C   0  0  0  0  0  0  0  0  0  0  0  0
   36.2320   30.5366   46.9196 C   0  0  0  0  0  0  0  0  0  0  0  0
   36.8986   30.6663   45.6888 C   0  0  0  0  0  0  0  0  0  0  0  0
   36.2475   30.2496   44.5679 N   0  0  0  0  0  0  0  0  0  0  0  0
   35.0080   29.7260   44.5986 C   0  0  0  0  0  0  0  0  0  0  0  0
   34.3621   29.5961   45.7584 N   0  0  0  0  0  0  0  0  0  0  0  0
   36.7365   30.9127   48.2053 N   0  0  0  0  0  0  0  0  0  0  0  0
   37.1545   32.1328   48.8916 C   0  0  0  0  0  0  0  0  0  0  0  0
   38.5120   31.7077   49.4639 C   0  0  0  0  0  0  0  0  0  0  0  0
   38.3196   30.2460   49.7910 C   0  0  0  0  0  0  0  0  0  0  0  0
   36.9615   29.9029   49.2587 C   0  0  1  0  0  0  0  0  0  0  0  0
   34.9505   29.2259   50.5762 C   0  0  0  0  0  0  0  0  0  0  0  0
   34.6699   28.2143   49.8764 O   0  0  0  0  0  0  0  0  0  0  0  0
   35.9948   30.1651   50.3240 N   0  0  0  0  0  0  0  0  0  0  0  0
   38.2040   31.2240   45.5827 C   0  0  0  0  0  0  0  0  0  0  0  0
   38.3330   32.5470   45.2004 C   0  0  0  0  0  0  0  0  0  0  0  0
   39.5528   33.1872   45.0790 C   0  0  0  0  0  0  0  0  0  0  0  0
   40.6879   32.4408   45.3626 C   0  0  0  0  0  0  0  0  0  0  0  0
   40.6214   31.0987   45.7531 C   0  0  0  0  0  0  0  0  0  0  0  0
   39.3429   30.5278   45.8481 C   0  0  0  0  0  0  0  0  0  0  0  0
   34.3268   29.8453   47.7815 H   0  0  0  0  0  0  0  0  0  0  0  0
   34.6041   29.4331   43.6404 H   0  0  0  0  0  0  0  0  0  0  0  0
   36.4714   32.4861   49.6516 H   0  0  0  0  0  0  0  0  0  0  0  0
   37.3945   32.8678   48.0952 H   0  0  0  0  0  0  0  0  0  0  0  0
   39.3190   31.8499   48.7070 H   0  0  0  0  0  0  0  0  0  0  0  0
   38.7030   32.2762   50.3933 H   0  0  0  0  0  0  0  0  0  0  0  0
   38.2690   30.1323   50.9325 H   0  0  0  0  0  0  0  0  0  0  0  0
   39.1292   29.5882   49.5083 H   0  0  0  0  0  0  0  0  0  0  0  0
   36.8212   28.8957   48.8866 H   0  0  0  0  0  0  0  0  0  0  0  0
   34.2734   29.3056   51.4354 H   0  0  0  0  0  0  0  0  0  0  0  0
   35.9815   30.9918   50.9452 H   0  0  0  0  0  0  0  0  0  0  0  0
   37.4209   33.1159   44.9827 H   0  0  0  0  0  0  0  0  0  0  0  0
   39.5404   34.2166   44.7743 H   0  0  0  0  0  0  0  0  0  0  0  0
   41.6075   33.0139   45.2463 H   0  0  0  0  0  0  0  0  0  0  0  0
   41.5733   30.6666   45.9344 H   0  0  0  0  0  0  0  0  0  0  0  0
   39.5280   29.1233   46.1968 C   0  0  0  0  0  0  0  0  0  0  0  0
   38.6035   28.1835   46.5457 C   0  0  0  0  0  0  0  0  0  0  0  0
   37.5832   28.5600   46.5575 H   0  0  0  0  0  0  0  0  0  0  0  0
   38.9246   26.8918   46.8608 C   0  0  0  0  0  0  0  0  0  0  0  0
   40.2184   26.4433   46.8487 C   0  0  0  0  0  0  0  0  0  0  0  0
   40.4310   25.4120   47.1055 H   0  0  0  0  0  0  0  0  0  0  0  0
   41.1990   27.3521   46.5031 C   0  0  0  0  0  0  0  0  0  0  0  0
   42.2021   26.9444   46.5101 H   0  0  0  0  0  0  0  0  0  0  0  0
   40.8478   28.6535   46.1884 C   0  0  0  0  0  0  0  0  0  0  0  0
   38.0744   26.2698   47.1160 H   0  0  0  0  0  0  0  0  0  0  0  0
   41.7475   29.2153   45.9520 H   0  0  0  0  0  0  0  0  0  0  0  0
  1  2  2  0
  2  7  1  0
  3  2  1  0
  4  5  1  0
  4  3  2  0
  5  6  2  0
  6  1  1  0
  7  8  1  0
  7 11  1  0
  8  9  1  0
  9 10  1  0
 11 10  1  0
 11 14  1  0
 13 12  2  0
 14 12  1  0
 15  3  1  0
 15 20  1  0
 16 15  2  0
 17 16  1  0
 17 18  2  0
 18 19  1  0
 19 20  2  0
  1 21  1  0
  5 22  1  0
  8 23  1  0
  8 24  1  0
  9 25  1  0
  9 26  1  0
 10 27  1  0
 10 28  1  0
 11 29  1  6
 12 30  1  0
 14 31  1  0
 16 32  1  0
 17 33  1  0
 18 34  1  0
 19 35  1  0
 36 37  2  0
 37 38  1  0
 37 39  1  0
 39 40  2  0
 40 41  1  0
 40 42  1  0
 42 43  1  0
 42 44  2  0
 44 36  1  0
 39 45  1  0
 44 46  1  0
 20 36  1  0
M  ISO  8  21  14  22  14  23  13  24  13  25  13  26  13  27  13  28  13
M  ISO  8  29  13  30   6  32  14  33  14  34  14  35  14  38  16  41  16
M  ISO  1  43  16
M  END
>  <DihAtoms>  (1) 
14,19,35,36

>  <DihDeg>  (1) 
-131.09000372204144

$$$$
