
     RDKit          3D

 30 32  0  0  0  0  0  0  0  0999 V2000
   38.0810   33.3430   49.6120 Cl  0  0  0  0  0  0  0  0  0  0  0  0
   38.4990   32.4980   48.1420 C   0  0  0  0  0  0  0  0  0  0  0  0
   38.0620   31.2050   47.9310 C   0  0  0  0  0  0  0  0  0  0  0  0
   38.4300   30.5930   46.7430 C   0  0  0  0  0  0  0  0  0  0  0  0
   39.2050   31.2450   45.8000 C   0  0  0  0  0  0  0  0  0  0  0  0
   39.6200   32.5450   46.0610 C   0  0  0  0  0  0  0  0  0  0  0  0
   40.5970   33.3110   44.8280 Cl  0  0  0  0  0  0  0  0  0  0  0  0
   39.2770   33.1840   47.2230 C   0  0  0  0  0  0  0  0  0  0  0  0
   37.0490   29.3650   51.0750 C   0  0  0  0  0  0  0  0  0  0  0  0
   37.8200   29.9630   50.0720 C   0  0  0  0  0  0  0  0  0  0  0  0
   37.2540   30.5890   48.9630 C   0  0  0  0  0  0  0  0  0  0  0  0
   35.8990   30.5780   48.9220 N   0  0  0  0  0  0  0  0  0  0  0  0
   35.1580   30.0040   49.8860 C   0  0  0  0  0  0  0  0  0  0  0  0
   35.7160   29.4100   50.9390 N   0  0  0  0  0  0  0  0  0  0  0  0
   39.5080   30.4670   44.6020 C   0  0  0  0  0  0  0  0  0  0  0  0
   38.7260   29.3850   44.2520 C   0  0  0  0  0  0  0  0  0  0  0  0
   38.9840   28.6240   43.1230 C   0  0  0  0  0  0  0  0  0  0  0  0
   40.0510   28.9370   42.3050 C   0  0  0  0  0  0  0  0  0  0  0  0
   40.8460   30.0330   42.6560 C   0  0  0  0  0  0  0  0  0  0  0  0
   40.5920   30.8050   43.7940 C   0  0  0  0  0  0  0  0  0  0  0  0
   38.0977   29.5633   46.5449 H   0  0  0  0  0  0  0  0  0  0  0  0
   39.6100   34.2135   47.4213 H   0  0  0  0  0  0  0  0  0  0  0  0
   37.5185   28.8768   51.9417 H   0  0  0  0  0  0  0  0  0  0  0  0
   38.9160   29.9380   50.1625 H   0  0  0  0  0  0  0  0  0  0  0  0
   34.0614   30.0257   49.8025 H   0  0  0  0  0  0  0  0  0  0  0  0
   37.8704   29.1181   44.8897 H   0  0  0  0  0  0  0  0  0  0  0  0
   38.3372   27.7687   42.8781 H   0  0  0  0  0  0  0  0  0  0  0  0
   40.2692   28.3430   41.4052 H   0  0  0  0  0  0  0  0  0  0  0  0
   41.7002   30.2967   42.0150 H   0  0  0  0  0  0  0  0  0  0  0  0
   41.2346   31.6614   44.0462 H   0  0  0  0  0  0  0  0  0  0  0  0
  2  1  1  0
  3  2  2  0
  3 11  1  0
  4  3  1  0
  5  6  1  0
  5  4  2  0
  6  8  2  0
  7  6  1  0
  8  2  1  0
 10  9  2  0
 11 10  1  0
 12 11  2  0
 12 13  1  0
 13 14  2  0
 14  9  1  0
 15  5  1  0
 16 15  2  0
 17 16  1  0
 18 19  1  0
 18 17  2  0
 19 20  2  0
 20 15  1  0
  4 21  1  0
  8 22  1  0
  9 23  1  0
 10 24  1  0
 13 25  1  0
 16 26  1  0
 17 27  1  0
 18 28  1  0
 19 29  1  0
 20 30  1  0
M  ISO  8  21  14  22  14  23  14  24  14  25  14  26  14  27  14  28  14
M  ISO  2  29  14  30  14
M  END
>  <minimizedAffinity>  (1) 
-6.69847202

>  <minimizedRMSD>  (1) 
0.424790978

$$$$
