
     RDKit          3D

 30 32  0  0  0  0  0  0  0  0999 V2000
   39.8600   30.8360   44.5340 C   0  0  0  0  0  0  0  0  0  0  0  0
   40.4470   32.0660   44.3110 C   0  0  0  0  0  0  0  0  0  0  0  0
   40.4040   33.1580   45.1410 C   0  0  0  0  0  0  0  0  0  0  0  0
   39.7030   32.9790   46.2960 N   0  0  0  0  0  0  0  0  0  0  0  0
   39.1090   31.7710   46.5480 C   0  0  0  0  0  0  0  0  0  0  0  0
   39.1870   30.7310   45.6910 N   0  0  0  0  0  0  0  0  0  0  0  0
   38.3730   31.6490   47.8060 C   0  0  0  0  0  0  0  0  0  0  0  0
   38.2030   32.6930   48.6620 C   0  0  0  0  0  0  0  0  0  0  0  0
   37.5020   32.5090   49.8260 C   0  0  0  0  0  0  0  0  0  0  0  0
   36.9460   31.2760   50.1710 C   0  0  0  0  0  0  0  0  0  0  0  0
   37.1150   30.1990   49.3030 C   0  0  0  0  0  0  0  0  0  0  0  0
   37.8310   30.4350   48.1410 C   0  0  0  0  0  0  0  0  0  0  0  0
   39.1560   27.7220   42.7990 C   0  0  0  0  0  0  0  0  0  0  0  0
   40.1100   27.6500   41.7680 C   0  0  0  0  0  0  0  0  0  0  0  0
   41.0100   28.7300   41.7000 C   0  0  0  0  0  0  0  0  0  0  0  0
   40.9250   29.7510   42.5910 N   0  0  0  0  0  0  0  0  0  0  0  0
   39.9940   29.7570   43.5480 C   0  0  0  0  0  0  0  0  0  0  0  0
   39.0770   28.7470   43.6880 N   0  0  0  0  0  0  0  0  0  0  0  0
   40.1580   26.5700   40.8680 N   0  0  0  0  0  0  0  0  0  0  0  0
   41.0067   32.1824   43.3712 H   0  0  0  0  0  0  0  0  0  0  0  0
   40.8991   34.1083   44.8923 H   0  0  0  0  0  0  0  0  0  0  0  0
   38.6258   33.6796   48.4214 H   0  0  0  0  0  0  0  0  0  0  0  0
   37.3736   33.3607   50.5102 H   0  0  0  0  0  0  0  0  0  0  0  0
   36.3853   31.1568   51.1098 H   0  0  0  0  0  0  0  0  0  0  0  0
   36.6987   29.2065   49.5303 H   0  0  0  0  0  0  0  0  0  0  0  0
   37.9736   29.5963   47.4437 H   0  0  0  0  0  0  0  0  0  0  0  0
   38.4309   26.9000   42.8913 H   0  0  0  0  0  0  0  0  0  0  0  0
   41.7863   28.7470   40.9209 H   0  0  0  0  0  0  0  0  0  0  0  0
   40.8707   26.5504   40.1247 H   0  0  0  0  0  0  0  0  0  0  0  0
   39.4804   25.7988   40.9523 H   0  0  0  0  0  0  0  0  0  0  0  0
  1  6  1  0
  2  1  2  0
  2  3  1  0
  3  4  2  0
  4  5  1  0
  5  7  1  0
  6  5  2  0
  7 12  1  0
  7  8  2  0
  8  9  1  0
  9 10  2  0
 11 10  1  0
 12 11  2  0
 13 18  2  0
 14 13  1  0
 15 14  2  0
 15 16  1  0
 16 17  2  0
 17 18  1  0
 17  1  1  0
 19 14  1  0
  2 20  1  0
  3 21  1  0
  8 22  1  0
  9 23  1  0
 10 24  1  0
 11 25  1  0
 12 26  1  0
 13 27  1  0
 15 28  1  0
 19 29  1  0
 19 30  1  0
M  ISO  8  20  14  21  14  22  14  23  14  24  14  25  14  26  14  27  14
M  ISO  1  28  14
M  END
>  <minimizedAffinity>  (1) 
-6.34121561

>  <minimizedRMSD>  (1) 
6.34919214

$$$$
