
     RDKit          3D

 46 49  0  0  1  0  0  0  0  0999 V2000
   37.2600   29.2730   50.5230 C   0  0  0  0  0  0  0  0  0  0  0  0
   37.4190   30.6580   50.7680 C   0  0  0  0  0  0  0  0  0  0  0  0
   36.6560   31.5320   49.9950 C   0  0  0  0  0  0  0  0  0  0  0  0
   35.8160   31.0040   49.0630 N   0  0  0  0  0  0  0  0  0  0  0  0
   35.7010   29.6940   48.8680 C   0  0  0  0  0  0  0  0  0  0  0  0
   36.4190   28.8360   49.5950 N   0  0  0  0  0  0  0  0  0  0  0  0
   34.8080   29.2050   47.8800 N   0  0  0  0  0  0  0  0  0  0  0  0
   34.1750   27.9020   47.9970 C   0  0  0  0  0  0  0  0  0  0  0  0
   32.6920   28.0380   47.8630 C   0  0  0  0  0  0  0  0  0  0  0  0
   32.2220   29.2270   47.3510 N   0  0  0  0  0  0  0  0  0  0  0  0
   33.0450   30.0720   46.5220 C   0  0  0  0  0  0  0  0  0  0  0  0
   34.4800   29.9900   46.6990 C   0  0  2  0  0  0  0  0  0  0  0  0
   35.1950   29.3870   45.5860 N   0  0  0  0  0  0  0  0  0  0  0  0
   36.2790   30.2550   45.1270 C   0  0  0  0  0  0  0  0  0  0  0  0
   36.3540   30.1130   43.6180 C   0  0  0  0  0  0  0  0  0  0  0  0
   35.4310   28.9820   43.3480 C   0  0  0  0  0  0  0  0  0  0  0  0
   34.3690   29.1290   44.4600 C   0  0  1  0  0  0  0  0  0  0  0  0
   33.7200   27.7980   44.4130 C   0  0  0  0  0  0  0  0  0  0  0  0
   32.4030   27.7190   44.0010 C   0  0  0  0  0  0  0  0  0  0  0  0
   31.6850   26.5510   43.9200 C   0  0  0  0  0  0  0  0  0  0  0  0
   32.2800   25.3580   44.2620 C   0  0  0  0  0  0  0  0  0  0  0  0
   33.5810   25.3870   44.6740 C   0  0  0  0  0  0  0  0  0  0  0  0
   34.2730   26.5760   44.7450 C   0  0  0  0  0  0  0  0  0  0  0  0
   37.8425   28.5484   51.1109 H   0  0  0  0  0  0  0  0  0  0  0  0
   38.1146   31.0287   51.5353 H   0  0  0  0  0  0  0  0  0  0  0  0
   36.7309   32.6205   50.1347 H   0  0  0  0  0  0  0  0  0  0  0  0
   34.5531   27.2411   47.2031 H   0  0  0  0  0  0  0  0  0  0  0  0
   34.4100   27.4745   48.9829 H   0  0  0  0  0  0  0  0  0  0  0  0
   32.3418   27.2300   47.2038 H   0  0  0  0  0  0  0  0  0  0  0  0
   32.3044   27.9938   48.8915 H   0  0  0  0  0  0  0  0  0  0  0  0
   31.3903   28.9926   46.7904 H   0  0  0  0  0  0  0  0  0  0  0  0
   32.7482   31.1133   46.7160 H   0  0  0  0  0  0  0  0  0  0  0  0
   32.8686   29.7152   45.4965 H   0  0  0  0  0  0  0  0  0  0  0  0
   34.7999   31.0387   46.7883 H   0  0  0  0  0  0  0  0  0  0  0  0
   36.0665   31.2998   45.3978 H   0  0  0  0  0  0  0  0  0  0  0  0
   37.2331   29.9717   45.5954 H   0  0  0  0  0  0  0  0  0  0  0  0
   36.0135   31.0308   43.1162 H   0  0  0  0  0  0  0  0  0  0  0  0
   37.3750   29.9401   43.2470 H   0  0  0  0  0  0  0  0  0  0  0  0
   34.9751   29.0728   42.3511 H   0  0  0  0  0  0  0  0  0  0  0  0
   35.9317   28.0026   43.3527 H   0  0  0  0  0  0  0  0  0  0  0  0
   33.5826   29.8972   44.4209 H   0  0  0  0  0  0  0  0  0  0  0  0
   31.8962   28.6538   43.7192 H   0  0  0  0  0  0  0  0  0  0  0  0
   30.6381   26.5690   43.5830 H   0  0  0  0  0  0  0  0  0  0  0  0
   31.7243   24.4104   44.2051 H   0  0  0  0  0  0  0  0  0  0  0  0
   34.0833   24.4489   44.9529 H   0  0  0  0  0  0  0  0  0  0  0  0
   35.3194   26.5514   45.0833 H   0  0  0  0  0  0  0  0  0  0  0  0
  1  2  2  0
  3  2  1  0
  4  3  2  0
  5  4  1  0
  5  6  2  0
  6  1  1  0
  7  8  1  0
  7  5  1  0
  9  8  1  0
 10  9  1  0
 11 12  1  0
 11 10  1  0
 12  7  1  0
 13 14  1  0
 13 12  1  0
 15 14  1  0
 16 15  1  0
 16 17  1  0
 17 13  1  0
 18 17  1  0
 18 23  1  0
 19 18  2  0
 20 19  1  0
 20 21  2  0
 21 22  1  0
 22 23  2  0
  1 24  1  0
  2 25  1  0
  3 26  1  0
  8 27  1  0
  8 28  1  0
  9 29  1  0
  9 30  1  0
 10 31  1  0
 11 32  1  0
 11 33  1  0
 12 34  1  1
 14 35  1  0
 14 36  1  0
 15 37  1  0
 15 38  1  0
 16 39  1  0
 16 40  1  0
 17 41  1  6
 19 42  1  0
 20 43  1  0
 21 44  1  0
 22 45  1  0
 23 46  1  0
M  ISO  8  24  14  25  14  26  14  27  13  28  13  29  13  30  13  31   5
M  ISO  8  32  13  33  13  34  13  35  13  36  13  37  13  38  13  39  13
M  ISO  7  40  13  41  13  42  14  43  14  44  14  45  14  46  14
M  END
>  <minimizedAffinity>  (1) 
-4.72970057

>  <minimizedRMSD>  (1) 
0.724833131

$$$$
