
     RDKit          3D

 42 46  0  0  0  0  0  0  0  0999 V2000
   34.0620   29.3810   47.9100 C   0  0  0  0  0  0  0  0  0  0  0  0
   34.2970   28.3120   47.0530 C   0  0  0  0  0  0  0  0  0  0  0  0
   33.9090   28.8060   45.8100 C   0  0  0  0  0  0  0  0  0  0  0  0
   33.4730   30.1030   45.9590 C   0  0  0  0  0  0  0  0  0  0  0  0
   33.5830   30.4040   47.2300 O   0  0  0  0  0  0  0  0  0  0  0  0
   33.6030   31.0090   43.6870 C   0  0  0  0  0  0  0  0  0  0  0  0
   32.9800   30.9880   44.9130 C   0  0  0  0  0  0  0  0  0  0  0  0
   31.8840   31.7950   45.1810 C   0  0  0  0  0  0  0  0  0  0  0  0
   31.3750   32.6580   44.2140 C   0  0  0  0  0  0  0  0  0  0  0  0
   30.3650   33.5380   44.1540 N   0  0  0  0  0  0  0  0  0  0  0  0
   30.3840   34.0690   42.9320 N   0  0  0  0  0  0  0  0  0  0  0  0
   31.3890   33.5420   42.2060 C   0  0  0  0  0  0  0  0  0  0  0  0
   32.0480   32.6260   43.0130 C   0  0  0  0  0  0  0  0  0  0  0  0
   33.1400   31.8530   42.6750 C   0  0  0  0  0  0  0  0  0  0  0  0
   34.3190   29.3450   49.3380 C   0  0  0  0  0  0  0  0  0  0  0  0
   33.4230   28.9100   50.0850 O   0  0  0  0  0  0  0  0  0  0  0  0
   37.1550   29.7880   51.5830 C   0  0  0  0  0  0  0  0  0  0  0  0
   37.9800   30.6470   50.8850 C   0  0  0  0  0  0  0  0  0  0  0  0
   37.5870   31.0880   49.6490 C   0  0  0  0  0  0  0  0  0  0  0  0
   36.4120   30.6660   49.1580 N   0  0  0  0  0  0  0  0  0  0  0  0
   35.6050   29.8140   49.8600 C   0  0  0  0  0  0  0  0  0  0  0  0
   35.9920   29.3840   51.0720 N   0  0  0  0  0  0  0  0  0  0  0  0
   38.3710   31.9950   48.8200 C   0  0  0  0  0  0  0  0  0  0  0  0
   38.7800   33.1890   49.3750 C   0  0  0  0  0  0  0  0  0  0  0  0
   39.5370   34.1260   48.6620 C   0  0  0  0  0  0  0  0  0  0  0  0
   39.9000   33.8740   47.3560 C   0  0  0  0  0  0  0  0  0  0  0  0
   39.4760   32.6660   46.8210 C   0  0  0  0  0  0  0  0  0  0  0  0
   38.7360   31.7470   47.5180 C   0  0  0  0  0  0  0  0  0  0  0  0
   34.6939   27.3157   47.2977 H   0  0  0  0  0  0  0  0  0  0  0  0
   33.9452   28.2493   44.8619 H   0  0  0  0  0  0  0  0  0  0  0  0
   34.4702   30.3579   43.5026 H   0  0  0  0  0  0  0  0  0  0  0  0
   31.4097   31.7525   46.1726 H   0  0  0  0  0  0  0  0  0  0  0  0
   29.7008   33.7611   44.9090 H   0  0  0  0  0  0  0  0  0  0  0  0
   31.6408   33.7920   41.1648 H   0  0  0  0  0  0  0  0  0  0  0  0
   33.6110   31.8982   41.6820 H   0  0  0  0  0  0  0  0  0  0  0  0
   37.4623   29.4311   52.5771 H   0  0  0  0  0  0  0  0  0  0  0  0
   38.9387   30.9725   51.3149 H   0  0  0  0  0  0  0  0  0  0  0  0
   38.5015   33.4133   50.4153 H   0  0  0  0  0  0  0  0  0  0  0  0
   39.8430   35.0658   49.1449 H   0  0  0  0  0  0  0  0  0  0  0  0
   40.4933   34.5914   46.7702 H   0  0  0  0  0  0  0  0  0  0  0  0
   39.7486   32.4334   45.7810 H   0  0  0  0  0  0  0  0  0  0  0  0
   38.4328   30.8070   47.0337 H   0  0  0  0  0  0  0  0  0  0  0  0
  1 15  1  0
  2  1  2  0
  3  4  2  0
  3  2  1  0
  4  5  1  0
  5  1  1  0
  6  7  2  0
  7  8  1  0
  7  4  1  0
  9  8  2  0
 10  9  1  0
 11 10  1  0
 12 11  2  0
 12 13  1  0
 13  9  1  0
 14 13  2  0
 14  6  1  0
 15 21  1  0
 15 16  2  0
 18 17  2  0
 19 18  1  0
 20 19  2  0
 20 21  1  0
 21 22  2  0
 22 17  1  0
 23 24  2  0
 23 19  1  0
 25 24  1  0
 26 25  2  0
 27 26  1  0
 27 28  2  0
 28 23  1  0
  2 29  1  0
  3 30  1  0
  6 31  1  0
  8 32  1  0
 10 33  1  0
 12 34  1  0
 14 35  1  0
 17 36  1  0
 18 37  1  0
 24 38  1  0
 25 39  1  0
 26 40  1  0
 27 41  1  0
 28 42  1  0
M  ISO  8  29  14  30  14  31  14  32  14  33   9  34  14  35  14  36  14
M  ISO  6  37  14  38  14  39  14  40  14  41  14  42  14
M  END
>  <minimizedAffinity>  (1) 
-6.92429209

>  <minimizedRMSD>  (1) 
7.14246988

$$$$
