
     RDKit          3D

 30 32  0  0  0  0  0  0  0  0999 V2000
   38.0045   33.1071   49.4763 C   0  0  0  0  0  0  0  0  0  0  0  0
   38.9659   33.2163   48.4705 C   0  0  0  0  0  0  0  0  0  0  0  0
   38.9472   32.2239   47.4654 C   0  0  0  0  0  0  0  0  0  0  0  0
   38.0175   31.2374   47.5264 N   0  0  0  0  0  0  0  0  0  0  0  0
   37.1138   31.1732   48.5114 C   0  0  0  0  0  0  0  0  0  0  0  0
   37.1086   32.1163   49.4932 N   0  0  0  0  0  0  0  0  0  0  0  0
   36.0940   30.1202   48.6077 C   0  0  0  0  0  0  0  0  0  0  0  0
   35.2877   29.9601   47.5061 C   0  0  0  0  0  0  0  0  0  0  0  0
   34.2975   28.9903   47.5077 C   0  0  0  0  0  0  0  0  0  0  0  0
   34.1492   28.2027   48.6330 C   0  0  0  0  0  0  0  0  0  0  0  0
   34.9547   28.3593   49.7395 C   0  0  0  0  0  0  0  0  0  0  0  0
   35.9444   29.3292   49.7370 C   0  0  0  0  0  0  0  0  0  0  0  0
   37.9878   33.8511   50.2666 H   0  0  0  0  0  0  0  0  0  0  0  0
   39.7036   34.0068   48.4284 H   0  0  0  0  0  0  0  0  0  0  0  0
   39.6722   32.2579   46.6569 H   0  0  0  0  0  0  0  0  0  0  0  0
   35.4099   30.5854   46.6185 H   0  0  0  0  0  0  0  0  0  0  0  0
   33.6612   28.8610   46.6438 H   0  0  0  0  0  0  0  0  0  0  0  0
   33.3894   27.4228   48.6974 H   0  0  0  0  0  0  0  0  0  0  0  0
   34.9018   27.7808   50.6601 H   0  0  0  0  0  0  0  0  0  0  0  0
   36.8885   29.6385   50.8117 C   0  0  0  0  0  0  0  0  0  0  0  0
   38.2434   29.4453   50.5380 C   0  0  0  0  0  0  0  0  0  0  0  0
   38.6316   29.0813   49.5818 H   0  0  0  0  0  0  0  0  0  0  0  0
   39.2022   29.7181   51.5083 C   0  0  0  0  0  0  0  0  0  0  0  0
   38.7861   30.1881   52.7596 C   0  0  0  0  0  0  0  0  0  0  0  0
   39.5597   30.3919   53.4941 H   0  0  0  0  0  0  0  0  0  0  0  0
   37.4248   30.3742   53.0118 C   0  0  0  0  0  0  0  0  0  0  0  0
   37.1103   30.7436   53.9970 H   0  0  0  0  0  0  0  0  0  0  0  0
   36.4957   30.1029   52.0514 C   0  0  0  0  0  0  0  0  0  0  0  0
   40.2677   29.5756   51.3242 H   0  0  0  0  0  0  0  0  0  0  0  0
   35.4218   30.2395   52.2168 H   0  0  0  0  0  0  0  0  0  0  0  0
  1  6  2  0
  2  1  1  0
  3  4  1  0
  3  2  2  0
  4  5  2  0
  5  7  1  0
  5  6  1  0
  7 12  1  0
  8  7  2  0
  9  8  1  0
  9 10  2  0
 10 11  1  0
 12 11  2  0
  1 13  1  0
  2 14  1  0
  3 15  1  0
  8 16  1  0
  9 17  1  0
 10 18  1  0
 11 19  1  0
 20 21  2  0
 21 22  1  0
 21 23  1  0
 23 24  2  0
 24 25  1  0
 24 26  1  0
 26 27  1  0
 26 28  2  0
 28 20  1  0
 23 29  1  0
 28 30  1  0
 12 20  1  0
M  ISO  8  13  14  14  14  15  14  16  14  17  14  18  14  19  14  22  16
M  ISO  2  25  16  27  16
M  END
>  <DihAtoms>  (1) 
6,11,19,20

>  <DihDeg>  (1) 
-62.95559065195391

$$$$
