
     RDKit          3D

 29 31  0  0  0  0  0  0  0  0999 V2000
   35.7770   30.1490   49.9120 C   0  0  0  0  0  0  0  0  0  0  0  0
   36.6750   29.8420   50.9070 C   0  0  0  0  0  0  0  0  0  0  0  0
   37.7680   30.6510   50.6180 C   0  0  0  0  0  0  0  0  0  0  0  0
   37.4910   31.3890   49.4960 C   0  0  0  0  0  0  0  0  0  0  0  0
   36.2980   31.0650   49.1020 O   0  0  0  0  0  0  0  0  0  0  0  0
   38.3920   32.3550   48.8800 C   0  0  0  0  0  0  0  0  0  0  0  0
   38.8650   32.1860   47.5960 C   0  0  0  0  0  0  0  0  0  0  0  0
   39.7300   33.1040   46.9900 C   0  0  0  0  0  0  0  0  0  0  0  0
   40.1360   34.2280   47.6940 C   0  0  0  0  0  0  0  0  0  0  0  0
   39.6510   34.3720   48.9740 C   0  0  0  0  0  0  0  0  0  0  0  0
   38.8050   33.4750   49.5610 C   0  0  0  0  0  0  0  0  0  0  0  0
   34.4510   29.5420   49.7860 C   0  0  0  0  0  0  0  0  0  0  0  0
   33.6500   29.6680   50.7490 O   0  0  0  0  0  0  0  0  0  0  0  0
   33.7900   26.7730   47.5140 C   0  0  0  0  0  0  0  0  0  0  0  0
   33.4300   27.4140   46.3290 C   0  0  0  0  0  0  0  0  0  0  0  0
   33.4100   28.7990   46.2940 C   0  0  0  0  0  0  0  0  0  0  0  0
   33.7460   29.4440   47.4310 N   0  0  0  0  0  0  0  0  0  0  0  0
   34.0930   28.8200   48.5740 C   0  0  0  0  0  0  0  0  0  0  0  0
   34.1160   27.4750   48.6190 N   0  0  0  0  0  0  0  0  0  0  0  0
   36.5567   29.1268   51.7344 H   0  0  0  0  0  0  0  0  0  0  0  0
   38.7032   30.6924   51.1956 H   0  0  0  0  0  0  0  0  0  0  0  0
   38.5512   31.2979   47.0277 H   0  0  0  0  0  0  0  0  0  0  0  0
   40.0854   32.9354   45.9627 H   0  0  0  0  0  0  0  0  0  0  0  0
   40.8148   34.9707   47.2495 H   0  0  0  0  0  0  0  0  0  0  0  0
   39.9605   35.2543   49.5535 H   0  0  0  0  0  0  0  0  0  0  0  0
   38.4511   33.6504   50.5876 H   0  0  0  0  0  0  0  0  0  0  0  0
   33.8085   25.6737   47.5484 H   0  0  0  0  0  0  0  0  0  0  0  0
   33.1659   26.8290   45.4357 H   0  0  0  0  0  0  0  0  0  0  0  0
   33.1331   29.3476   45.3816 H   0  0  0  0  0  0  0  0  0  0  0  0
  1  2  2  0
  3  2  1  0
  4  3  2  0
  5  4  1  0
  5  1  1  0
  6  4  1  0
  6 11  1  0
  7  6  2  0
  8  7  1  0
  8  9  2  0
  9 10  1  0
 10 11  2  0
 12  1  1  0
 12 13  2  0
 14 19  2  0
 15 14  1  0
 16 15  2  0
 16 17  1  0
 17 18  2  0
 18 19  1  0
 18 12  1  0
  2 20  1  0
  3 21  1  0
  7 22  1  0
  8 23  1  0
  9 24  1  0
 10 25  1  0
 11 26  1  0
 14 27  1  0
 15 28  1  0
 16 29  1  0
M  ISO  8  20  14  21  14  22  14  23  14  24  14  25  14  26  14  27  14
M  ISO  2  28  14  29  14
M  END
>  <minimizedAffinity>  (1) 
-6.05214071

>  <minimizedRMSD>  (1) 
2.07578087

$$$$
