
     RDKit          3D

 36 38  0  0  1  0  0  0  0  0999 V2000
   34.6400   30.3350   48.2810 C   0  0  1  0  0  0  0  0  0  0  0  0
   33.6830   30.2370   47.1820 C   0  0  0  0  0  0  0  0  0  0  0  0
   33.4310   28.8690   46.6150 C   0  0  0  0  0  0  0  0  0  0  0  0
   33.4580   27.7420   47.5750 C   0  0  2  0  0  0  0  0  0  0  0  0
   34.3900   27.8440   48.7350 C   0  0  0  0  0  0  0  0  0  0  0  0
   34.4670   29.2300   49.2840 C   0  0  0  0  0  0  0  0  0  0  0  0
   36.4850   30.5530   46.5800 C   0  0  0  0  0  0  0  0  0  0  0  0
   36.0550   30.5860   47.9160 C   0  0  0  0  0  0  0  0  0  0  0  0
   37.0000   30.8660   48.8850 C   0  0  0  0  0  0  0  0  0  0  0  0
   38.2890   31.0940   48.4940 N   0  0  0  0  0  0  0  0  0  0  0  0
   38.6670   31.0550   47.1970 C   0  0  0  0  0  0  0  0  0  0  0  0
   37.7520   30.7810   46.2390 N   0  0  0  0  0  0  0  0  0  0  0  0
   33.8050   26.5040   46.8210 C   0  0  0  0  0  0  0  0  0  0  0  0
   34.0330   26.6350   45.4470 C   0  0  0  0  0  0  0  0  0  0  0  0
   34.3590   25.4960   44.7150 C   0  0  0  0  0  0  0  0  0  0  0  0
   34.4510   24.2880   45.3340 C   0  0  0  0  0  0  0  0  0  0  0  0
   34.2270   24.1620   46.6880 C   0  0  0  0  0  0  0  0  0  0  0  0
   33.8970   25.2810   47.4540 C   0  0  0  0  0  0  0  0  0  0  0  0
   34.3658   31.2791   48.7744 H   0  0  0  0  0  0  0  0  0  0  0  0
   32.7208   30.6281   47.5444 H   0  0  0  0  0  0  0  0  0  0  0  0
   34.1359   30.8079   46.3580 H   0  0  0  0  0  0  0  0  0  0  0  0
   32.4384   28.8810   46.1412 H   0  0  0  0  0  0  0  0  0  0  0  0
   34.2649   28.6822   45.9224 H   0  0  0  0  0  0  0  0  0  0  0  0
   32.4543   27.7433   48.0251 H   0  0  0  0  0  0  0  0  0  0  0  0
   34.0402   27.1684   49.5295 H   0  0  0  0  0  0  0  0  0  0  0  0
   35.3946   27.5668   48.3830 H   0  0  0  0  0  0  0  0  0  0  0  0
   35.3209   29.2692   49.9763 H   0  0  0  0  0  0  0  0  0  0  0  0
   33.4905   29.4129   49.7561 H   0  0  0  0  0  0  0  0  0  0  0  0
   35.7523   30.3318   45.7899 H   0  0  0  0  0  0  0  0  0  0  0  0
   36.7202   30.9044   49.9481 H   0  0  0  0  0  0  0  0  0  0  0  0
   39.7148   31.2453   46.9214 H   0  0  0  0  0  0  0  0  0  0  0  0
   33.9565   27.6161   44.9556 H   0  0  0  0  0  0  0  0  0  0  0  0
   34.5426   25.5733   43.6332 H   0  0  0  0  0  0  0  0  0  0  0  0
   34.7086   23.3964   44.7435 H   0  0  0  0  0  0  0  0  0  0  0  0
   34.3087   23.1752   47.1671 H   0  0  0  0  0  0  0  0  0  0  0  0
   33.7148   25.1905   48.5350 H   0  0  0  0  0  0  0  0  0  0  0  0
  1  6  1  0
  2  1  1  0
  3  2  1  0
  3  4  1  0
  4  5  1  0
  5  6  1  0
  7  8  2  0
  8  1  1  0
  8  9  1  0
 10  9  2  0
 11 10  1  0
 12  7  1  0
 12 11  2  0
 13 18  1  0
 13  4  1  0
 14 13  2  0
 15 16  2  0
 15 14  1  0
 16 17  1  0
 17 18  2  0
  1 19  1  1
  2 20  1  0
  2 21  1  0
  3 22  1  0
  3 23  1  0
  4 24  1  1
  5 25  1  0
  5 26  1  0
  6 27  1  0
  6 28  1  0
  7 29  1  0
  9 30  1  0
 11 31  1  0
 14 32  1  0
 15 33  1  0
 16 34  1  0
 17 35  1  0
 18 36  1  0
M  ISO  8  19  13  20  13  21  13  22  13  23  13  24  13  25  13  26  13
M  ISO  8  27  13  28  13  29  14  30  14  31  14  32  14  33  14  34  14
M  ISO  2  35  14  36  14
M  END
>  <minimizedAffinity>  (1) 
-4.68327236

>  <minimizedRMSD>  (1) 
1.8254931

$$$$
