
     RDKit          3D

 37 39  0  0  0  0  0  0  0  0999 V2000
   37.4000   30.2380   51.4180 C   0  0  0  0  0  0  0  0  0  0  0  0
   37.9870   30.8990   50.3170 C   0  0  0  0  0  0  0  0  0  0  0  0
   37.4290   30.6840   49.0420 C   0  0  0  0  0  0  0  0  0  0  0  0
   36.3640   29.8500   48.9720 N   0  0  0  0  0  0  0  0  0  0  0  0
   35.8280   29.2340   50.0440 C   0  0  0  0  0  0  0  0  0  0  0  0
   36.3460   29.4280   51.2680 N   0  0  0  0  0  0  0  0  0  0  0  0
   37.9310   31.2980   47.8200 C   0  0  0  0  0  0  0  0  0  0  0  0
   37.2910   30.9500   46.6500 C   0  0  0  0  0  0  0  0  0  0  0  0
   37.7000   31.4870   45.4350 C   0  0  0  0  0  0  0  0  0  0  0  0
   38.7580   32.3740   45.4230 C   0  0  0  0  0  0  0  0  0  0  0  0
   39.3730   32.6980   46.6100 C   0  0  0  0  0  0  0  0  0  0  0  0
   38.9850   32.1830   47.8110 C   0  0  0  0  0  0  0  0  0  0  0  0
   34.6970   28.3850   49.7700 C   0  0  0  0  0  0  0  0  0  0  0  0
   34.3510   28.1500   48.5500 C   0  0  0  0  0  0  0  0  0  0  0  0
   33.2420   27.3220   48.0630 C   0  0  0  0  0  0  0  0  0  0  0  0
   33.6900   26.2950   47.0620 C   0  0  0  0  0  0  0  0  0  0  0  0
   33.9460   24.9710   47.3250 C   0  0  0  0  0  0  0  0  0  0  0  0
   34.3530   24.1340   46.3120 C   0  0  0  0  0  0  0  0  0  0  0  0
   34.5190   24.5830   45.0090 C   0  0  0  0  0  0  0  0  0  0  0  0
   34.2670   25.9070   44.7280 C   0  0  0  0  0  0  0  0  0  0  0  0
   33.8610   26.7390   45.7460 C   0  0  0  0  0  0  0  0  0  0  0  0
   37.8194   30.3928   52.4231 H   0  0  0  0  0  0  0  0  0  0  0  0
   38.8543   31.5621   50.4512 H   0  0  0  0  0  0  0  0  0  0  0  0
   36.4499   30.2417   46.6780 H   0  0  0  0  0  0  0  0  0  0  0  0
   37.1902   31.2104   44.5003 H   0  0  0  0  0  0  0  0  0  0  0  0
   39.1044   32.8156   44.4770 H   0  0  0  0  0  0  0  0  0  0  0  0
   40.2159   33.4045   46.5891 H   0  0  0  0  0  0  0  0  0  0  0  0
   39.4975   32.4655   48.7424 H   0  0  0  0  0  0  0  0  0  0  0  0
   34.1296   27.9380   50.5996 H   0  0  0  0  0  0  0  0  0  0  0  0
   34.9659   28.6319   47.7756 H   0  0  0  0  0  0  0  0  0  0  0  0
   32.7850   26.8046   48.9194 H   0  0  0  0  0  0  0  0  0  0  0  0
   32.5223   27.9864   47.5624 H   0  0  0  0  0  0  0  0  0  0  0  0
   33.8255   24.5801   48.3461 H   0  0  0  0  0  0  0  0  0  0  0  0
   34.5530   23.0769   46.5414 H   0  0  0  0  0  0  0  0  0  0  0  0
   34.8457   23.8941   44.2161 H   0  0  0  0  0  0  0  0  0  0  0  0
   34.3884   26.2938   43.7054 H   0  0  0  0  0  0  0  0  0  0  0  0
   33.6628   27.7963   45.5160 H   0  0  0  0  0  0  0  0  0  0  0  0
  2  1  2  0
  3  2  1  0
  4  3  2  0
  4  5  1  0
  5  6  2  0
  6  1  1  0
  7  3  1  0
  8  7  2  0
  9  8  1  0
 10  9  2  0
 10 11  1  0
 11 12  2  0
 12  7  1  0
 13  5  1  0
 14 13  2  0
 15 14  1  0
 16 17  2  0
 16 15  1  0
 18 17  1  0
 19 18  2  0
 20 19  1  0
 20 21  2  0
 21 16  1  0
  1 22  1  0
  2 23  1  0
  8 24  1  0
  9 25  1  0
 10 26  1  0
 11 27  1  0
 12 28  1  0
 13 29  1  0
 14 30  1  0
 15 31  1  0
 15 32  1  0
 17 33  1  0
 18 34  1  0
 19 35  1  0
 20 36  1  0
 21 37  1  0
M  ISO  8  22  14  23  14  24  14  25  14  26  14  27  14  28  14  31   8
M  ISO  6  32   8  33  14  34  14  35  14  36  14  37  14
M  END
>  <minimizedAffinity>  (1) 
-6.2960043

>  <minimizedRMSD>  (1) 
0.513930321

$$$$
