
     RDKit          3D

 36 38  0  0  0  0  0  0  0  0999 V2000
   34.7501   29.4325   48.7995 C   0  0  0  0  0  0  0  0  0  0  0  0
   34.2268   30.0564   47.6565 C   0  0  0  0  0  0  0  0  0  0  0  0
   33.5022   29.2529   46.7739 C   0  0  0  0  0  0  0  0  0  0  0  0
   33.3351   27.9164   47.0551 N   0  0  0  0  0  0  0  0  0  0  0  0
   33.8646   27.3519   48.1843 C   0  0  0  0  0  0  0  0  0  0  0  0
   34.5599   28.1119   49.0348 N   0  0  0  0  0  0  0  0  0  0  0  0
   35.5149   30.3013   49.7447 C   0  0  2  0  0  0  0  0  0  0  0  0
   36.4800   31.1677   48.9679 C   0  0  0  0  0  0  0  0  0  0  0  0
   37.9220   30.7939   49.1617 C   0  0  0  0  0  0  0  0  0  0  0  0
   38.3102   30.7903   50.6162 C   0  0  0  0  0  0  0  0  0  0  0  0
   37.2851   30.1475   51.5006 C   0  0  0  0  0  0  0  0  0  0  0  0
   36.2340   29.4063   50.6960 C   0  0  1  0  0  0  0  0  0  0  0  0
   34.3158   31.0748   47.3828 H   0  0  0  0  0  0  0  0  0  0  0  0
   33.0510   29.5961   45.8695 H   0  0  0  0  0  0  0  0  0  0  0  0
   33.6844   26.2954   48.3258 H   0  0  0  0  0  0  0  0  0  0  0  0
   34.7574   30.9650   50.2020 H   0  0  0  0  0  0  0  0  0  0  0  0
   36.2708   31.2071   47.8817 H   0  0  0  0  0  0  0  0  0  0  0  0
   36.3922   32.2185   49.3146 H   0  0  0  0  0  0  0  0  0  0  0  0
   38.5294   31.5463   48.6355 H   0  0  0  0  0  0  0  0  0  0  0  0
   38.1383   29.7900   48.7116 H   0  0  0  0  0  0  0  0  0  0  0  0
   38.4273   31.8475   50.9326 H   0  0  0  0  0  0  0  0  0  0  0  0
   39.2983   30.2890   50.6982 H   0  0  0  0  0  0  0  0  0  0  0  0
   36.7850   30.8730   52.1777 H   0  0  0  0  0  0  0  0  0  0  0  0
   37.7884   29.3830   52.1318 H   0  0  0  0  0  0  0  0  0  0  0  0
   36.8360   28.6906   50.0653 H   0  0  0  0  0  0  0  0  0  0  0  0
   35.3746   28.5906   51.5379 C   0  0  0  0  0  0  0  0  0  0  0  0
   34.0327   28.8625   51.6821 C   0  0  0  0  0  0  0  0  0  0  0  0
   33.5847   29.7020   51.1617 H   0  0  0  0  0  0  0  0  0  0  0  0
   33.1461   28.1572   52.4495 C   0  0  0  0  0  0  0  0  0  0  0  0
   33.6046   27.0629   53.1606 C   0  0  0  0  0  0  0  0  0  0  0  0
   33.0321   26.4240   53.7954 H   0  0  0  0  0  0  0  0  0  0  0  0
   34.9420   26.7368   53.0587 C   0  0  0  0  0  0  0  0  0  0  0  0
   35.3632   25.8807   53.5988 H   0  0  0  0  0  0  0  0  0  0  0  0
   35.7851   27.4772   52.2762 C   0  0  0  0  0  0  0  0  0  0  0  0
   32.1062   28.3787   52.5530 H   0  0  0  0  0  0  0  0  0  0  0  0
   36.8421   27.1968   52.2144 H   0  0  0  0  0  0  0  0  0  0  0  0
  1  6  1  0
  1  7  1  0
  2  1  2  0
  3  4  2  0
  3  2  1  0
  4  5  1  0
  5  6  2  0
  7 12  1  0
  8  9  1  0
  8  7  1  0
  9 10  1  0
 10 11  1  0
 12 11  1  0
  2 13  1  0
  3 14  1  0
  5 15  1  0
  7 16  1  1
  8 17  1  0
  8 18  1  0
  9 19  1  0
  9 20  1  0
 10 21  1  0
 10 22  1  0
 11 23  1  0
 11 24  1  0
 12 25  1  6
 26 27  2  0
 27 28  1  0
 27 29  1  0
 29 30  2  0
 30 31  1  0
 30 32  1  0
 32 33  1  0
 32 34  2  0
 34 26  1  0
 29 35  1  0
 34 36  1  0
 12 26  1  0
M  ISO  8  13  14  14  14  15  14  16  13  17  13  18  13  19  13  20  13
M  ISO  8  21  13  22  13  23  13  24  13  25  13  28  16  31  16  33  16
M  END
>  <DihAtoms>  (1) 
6,11,25,26

>  <DihDeg>  (1) 
-60.4381512361645

$$$$
