
     RDKit          3D

 39 41  0  0  0  0  0  0  0  0999 V2000
   38.2668   32.2973   47.3985 C   0  0  0  0  0  0  0  0  0  0  0  0
   37.9039   32.7325   48.6563 C   0  0  0  0  0  0  0  0  0  0  0  0
   38.6725   33.6857   49.3025 C   0  0  0  0  0  0  0  0  0  0  0  0
   39.8028   34.1968   48.6806 C   0  0  0  0  0  0  0  0  0  0  0  0
   40.1530   33.7550   47.4287 C   0  0  0  0  0  0  0  0  0  0  0  0
   39.3756   32.8077   46.8047 C   0  0  0  0  0  0  0  0  0  0  0  0
   39.7632   32.3408   45.4578 C   0  0  0  0  0  0  0  0  0  0  0  0
   40.6195   31.3239   45.1022 C   0  0  0  0  0  0  0  0  0  0  0  0
   40.6423   31.2892   43.7045 C   0  0  0  0  0  0  0  0  0  0  0  0
   39.7975   32.2882   43.3064 C   0  0  0  0  0  0  0  0  0  0  0  0
   39.2867   32.8995   44.3577 O   0  0  0  0  0  0  0  0  0  0  0  0
   36.7444   30.5254   46.2952 N   0  0  0  0  0  0  0  0  0  0  0  0
   37.4271   31.3113   46.7903 C   0  0  0  0  0  0  0  0  0  0  0  0
   36.8063   32.3108   49.3918 O   0  0  0  0  0  0  0  0  0  0  0  0
   36.7850   31.2006   50.1676 C   0  0  0  0  0  0  0  0  0  0  0  0
   35.6419   30.4268   49.9463 C   0  0  0  0  0  0  0  0  0  0  0  0
   35.4393   29.2491   50.6477 C   0  0  0  0  0  0  0  0  0  0  0  0
   36.3926   28.8872   51.5491 N   0  0  0  0  0  0  0  0  0  0  0  0
   37.4997   29.6552   51.7503 C   0  0  0  0  0  0  0  0  0  0  0  0
   37.6747   30.7719   51.0737 N   0  0  0  0  0  0  0  0  0  0  0  0
   34.1456   29.7136   48.1559 C   0  0  0  0  0  0  0  0  0  0  0  0
   34.5475   28.5216   47.8730 O   0  0  0  0  0  0  0  0  0  0  0  0
   34.6152   30.7239   49.0413 N   0  0  0  0  0  0  0  0  0  0  0  0
   38.4481   34.0718   50.2866 H   0  0  0  0  0  0  0  0  0  0  0  0
   40.4020   34.9457   49.1949 H   0  0  0  0  0  0  0  0  0  0  0  0
   41.0264   34.1387   46.9284 H   0  0  0  0  0  0  0  0  0  0  0  0
   41.0988   30.7603   45.8830 H   0  0  0  0  0  0  0  0  0  0  0  0
   41.2750   30.5368   43.2545 H   0  0  0  0  0  0  0  0  0  0  0  0
   39.6490   32.4583   42.2507 H   0  0  0  0  0  0  0  0  0  0  0  0
   34.5913   28.6084   50.5309 H   0  0  0  0  0  0  0  0  0  0  0  0
   38.2653   29.3617   52.4763 H   0  0  0  0  0  0  0  0  0  0  0  0
   34.1647   31.6283   48.9626 H   0  0  0  0  0  0  0  0  0  0  0  0
   32.2302   32.4964   47.4011 O   0  0  0  0  0  0  0  0  0  0  0  0
   32.7684   31.3909   46.5002 P   0  0  0  0  0  0  0  0  0  0  0  0
   34.1299   31.9463   45.7137 O   0  0  0  0  0  0  0  0  0  0  0  0
   31.5100   31.0695   45.3902 O   0  0  0  0  0  0  0  0  0  0  0  0
   33.0186   29.9318   47.3684 O   0  0  0  0  0  0  0  0  0  0  0  0
   34.5129   32.6747   46.2257 H   0  0  0  0  0  0  0  0  0  0  0  0
   30.7327   30.7632   45.9556 H   0  0  0  0  0  0  0  0  0  0  0  0
  1  2  2  0
  2  3  1  0
  2 14  1  0
  4  3  2  0
  5  4  1  0
  6  1  1  0
  6  5  2  0
  7  6  1  0
  8  7  2  0
  9  8  1  0
 10  9  2  0
 10 11  1  0
 11  7  1  0
 12 13  3  0
 13  1  1  0
 14 15  1  0
 15 20  1  0
 16 15  2  0
 16 17  1  0
 17 18  2  0
 18 19  1  0
 20 19  2  0
 21 23  1  0
 22 21  2  0
 23 16  1  0
  3 24  1  0
  4 25  1  0
  5 26  1  0
  8 27  1  0
  9 28  1  0
 10 29  1  0
 17 30  1  0
 19 31  1  0
 23 32  1  0
 33 34  2  0
 34 35  1  0
 34 36  1  0
 34 37  1  0
 35 38  1  0
 36 39  1  0
 21 37  1  0
M  ISO  8  24  14  25  14  26  14  27  14  28  14  29  14  30  14  31  14
M  END
>  <DihAtoms>  (1) 
22,20,36,33

>  <DihDeg>  (1) 
179.9999210142589

$$$$
