
     RDKit          3D

 22 22  0  0  0  0  0  0  0  0999 V2000
   38.1310   30.6740   47.6750 C   0  0  0  0  0  0  0  0  0  0  0  0
   37.3720   30.2330   51.3710 C   0  0  0  0  0  0  0  0  0  0  0  0
   38.0040   30.6460   50.1990 C   0  0  0  0  0  0  0  0  0  0  0  0
   37.5090   30.2690   48.9610 C   0  0  0  0  0  0  0  0  0  0  0  0
   36.3980   29.4920   48.9400 N   0  0  0  0  0  0  0  0  0  0  0  0
   35.7840   29.0900   50.0880 C   0  0  0  0  0  0  0  0  0  0  0  0
   36.2820   29.4670   51.2870 N   0  0  0  0  0  0  0  0  0  0  0  0
   38.2530   32.2060   47.6200 C   0  0  0  0  0  0  0  0  0  0  0  0
   39.4840   32.4790   46.9840 O   0  0  0  0  0  0  0  0  0  0  0  0
   40.0480   33.7590   44.8360 O   0  0  0  0  0  0  0  0  0  0  0  0
   39.2850   32.5620   45.3120 P   0  0  0  0  0  0  0  0  0  0  0  0
   37.6630   32.8190   44.9550 O   0  0  0  0  0  0  0  0  0  0  0  0
   39.8880   31.1540   44.6230 O   0  0  0  0  0  0  0  0  0  0  0  0
   39.1316   30.2241   47.5947 H   0  0  0  0  0  0  0  0  0  0  0  0
   37.5031   30.3277   46.8408 H   0  0  0  0  0  0  0  0  0  0  0  0
   37.7665   30.5345   52.3525 H   0  0  0  0  0  0  0  0  0  0  0  0
   38.9034   31.2766   50.2576 H   0  0  0  0  0  0  0  0  0  0  0  0
   34.8840   28.4594   50.0393 H   0  0  0  0  0  0  0  0  0  0  0  0
   37.4213   32.6345   47.0415 H   0  0  0  0  0  0  0  0  0  0  0  0
   38.2142   32.6483   48.6264 H   0  0  0  0  0  0  0  0  0  0  0  0
   37.1487   32.9005   45.7970 H   0  0  0  0  0  0  0  0  0  0  0  0
   40.1572   30.5254   45.3388 H   0  0  0  0  0  0  0  0  0  0  0  0
  1  4  1  0
  3  2  2  0
  4  3  1  0
  5  4  2  0
  5  6  1  0
  6  7  2  0
  7  2  1  0
  8  1  1  0
  9  8  1  0
 10 11  2  0
 11  9  1  0
 12 11  1  0
 13 11  1  0
  1 14  1  0
  1 15  1  0
  2 16  1  0
  3 17  1  0
  6 18  1  0
  8 19  1  0
  8 20  1  0
 12 21  1  0
 13 22  1  0
M  ISO  8  14   8  15   8  16  14  17  14  18  14  19   8  20   8  21   3
M  ISO  1  22   3
M  END
>  <minimizedAffinity>  (1) 
-4.67957401

>  <minimizedRMSD>  (1) 
0.988386214

$$$$
