
     RDKit          3D

 33 34  0  0  0  0  0  0  0  0999 V2000
   38.1970   31.8930   47.4080 C   0  0  0  0  0  0  0  0  0  0  0  0
   38.7520   32.7800   48.3020 C   0  0  0  0  0  0  0  0  0  0  0  0
   38.2900   32.8530   49.6260 C   0  0  0  0  0  0  0  0  0  0  0  0
   37.2150   31.9660   50.0230 C   0  0  0  0  0  0  0  0  0  0  0  0
   36.7230   31.1230   49.0880 C   0  0  0  0  0  0  0  0  0  0  0  0
   37.1610   31.0510   47.8160 C   0  0  0  0  0  0  0  0  0  0  0  0
   40.0160   31.2440   45.9100 C   0  0  0  0  0  0  0  0  0  0  0  0
   38.7800   31.9130   46.0890 C   0  0  0  0  0  0  0  0  0  0  0  0
   38.2860   32.5040   44.9530 C   0  0  0  0  0  0  0  0  0  0  0  0
   38.9440   32.4350   43.7870 N   0  0  0  0  0  0  0  0  0  0  0  0
   40.0890   31.8110   43.6370 C   0  0  0  0  0  0  0  0  0  0  0  0
   40.6150   31.2200   44.6980 N   0  0  0  0  0  0  0  0  0  0  0  0
   35.1590   30.0520   47.0860 C   0  0  0  0  0  0  0  0  0  0  0  0
   34.5980   30.6850   48.0650 O   0  0  0  0  0  0  0  0  0  0  0  0
   36.5940   30.1900   46.9070 N   0  0  0  0  0  0  0  0  0  0  0  0
   34.3930   29.2760   46.2550 O   0  0  0  0  0  0  0  0  0  0  0  0
   33.0030   29.3450   46.1800 C   0  0  0  0  0  0  0  0  0  0  0  0
   32.3870   30.2590   45.4640 O   0  0  0  0  0  0  0  0  0  0  0  0
   32.0560   28.5240   46.7740 O   0  0  0  0  0  0  0  0  0  0  0  0
   31.3960   26.6930   48.5590 O   0  0  0  0  0  0  0  0  0  0  0  0
   32.5040   27.6690   48.1970 P   0  0  0  0  0  0  0  0  0  0  0  0
   33.8690   26.6930   47.8680 O   0  0  0  0  0  0  0  0  0  0  0  0
   32.7670   28.6640   49.5120 O   0  0  0  0  0  0  0  0  0  0  0  0
   39.5685   33.4406   47.9750 H   0  0  0  0  0  0  0  0  0  0  0  0
   38.7313   33.5629   50.3411 H   0  0  0  0  0  0  0  0  0  0  0  0
   36.8142   31.9783   51.0473 H   0  0  0  0  0  0  0  0  0  0  0  0
   35.9074   30.4481   49.3867 H   0  0  0  0  0  0  0  0  0  0  0  0
   40.4922   30.7400   46.7639 H   0  0  0  0  0  0  0  0  0  0  0  0
   37.3298   33.0458   45.0003 H   0  0  0  0  0  0  0  0  0  0  0  0
   40.5951   31.7802   42.6608 H   0  0  0  0  0  0  0  0  0  0  0  0
   37.1285   29.6962   46.1780 H   0  0  0  0  0  0  0  0  0  0  0  0
   34.2785   26.4002   48.7205 H   0  0  0  0  0  0  0  0  0  0  0  0
   32.6311   28.1500   50.3471 H   0  0  0  0  0  0  0  0  0  0  0  0
  1  6  1  0
  1  2  2  0
  2  3  1  0
  3  4  2  0
  5  4  1  0
  6  5  2  0
  7  8  2  0
  8  1  1  0
  9  8  1  0
 10  9  2  0
 11 10  1  0
 11 12  2  0
 12  7  1  0
 13 14  2  0
 15 13  1  0
 15  6  1  0
 16 13  1  0
 17 16  1  0
 17 19  1  0
 18 17  2  0
 19 21  1  0
 21 20  2  0
 21 23  1  0
 22 21  1  0
  2 24  1  0
  3 25  1  0
  4 26  1  0
  5 27  1  0
  7 28  1  0
  9 29  1  0
 11 30  1  0
 15 31  1  0
 22 32  1  0
 23 33  1  0
M  ISO  8  24  14  25  14  26  14  27  14  28  14  29  14  30  14  32   3
M  ISO  1  33   3
M  END
>  <minimizedAffinity>  (1) 
-5.72304583

>  <minimizedRMSD>  (1) 
2.17923713

$$$$
