
     RDKit          3D

 36 37  0  0  1  0  0  0  0  0999 V2000
   38.5910   32.1050   48.5270 C   0  0  2  0  0  0  0  0  0  0  0  0
   38.9360   33.2800   49.4050 C   0  0  0  0  0  0  0  0  0  0  0  0
   39.6360   34.3450   48.6250 C   0  0  0  0  0  0  0  0  0  0  0  0
   40.4020   33.7860   47.4750 C   0  0  0  0  0  0  0  0  0  0  0  0
   39.2930   33.4970   46.5140 C   0  0  0  0  0  0  0  0  0  0  0  0
   38.5290   32.3340   47.1120 C   0  0  1  0  0  0  0  0  0  0  0  0
   39.1680   31.1660   46.3710 C   0  0  0  0  0  0  0  0  0  0  0  0
   38.7130   29.9550   46.8590 F   0  0  0  0  0  0  0  0  0  0  0  0
   38.7840   31.1100   45.0200 F   0  0  0  0  0  0  0  0  0  0  0  0
   40.5310   31.2140   46.2740 F   0  0  0  0  0  0  0  0  0  0  0  0
   36.9770   31.5090   49.1300 S   0  0  0  0  0  0  0  0  0  0  0  0
   36.3870   30.0320   48.4650 C   0  0  0  0  0  0  0  0  0  0  0  0
   35.4550   30.1740   47.2880 C   0  0  0  0  0  0  0  0  0  0  0  0
   32.8940   27.9060   48.7740 C   0  0  0  0  0  0  0  0  0  0  0  0
   34.0590   28.6330   48.6010 C   0  0  0  0  0  0  0  0  0  0  0  0
   34.2370   29.3970   47.4840 C   0  0  0  0  0  0  0  0  0  0  0  0
   33.2060   29.4030   46.5510 N   0  0  0  0  0  0  0  0  0  0  0  0
   32.0970   28.6950   46.7420 C   0  0  0  0  0  0  0  0  0  0  0  0
   31.9010   27.9350   47.8360 N   0  0  0  0  0  0  0  0  0  0  0  0
   39.4161   31.3826   48.6129 H   0  0  0  0  0  0  0  0  0  0  0  0
   38.0103   33.6953   49.8301 H   0  0  0  0  0  0  0  0  0  0  0  0
   39.6067   32.9341   50.2053 H   0  0  0  0  0  0  0  0  0  0  0  0
   38.8873   35.0538   48.2415 H   0  0  0  0  0  0  0  0  0  0  0  0
   40.3499   34.8434   49.2973 H   0  0  0  0  0  0  0  0  0  0  0  0
   41.1113   34.5204   47.0657 H   0  0  0  0  0  0  0  0  0  0  0  0
   41.0274   32.9160   47.7240 H   0  0  0  0  0  0  0  0  0  0  0  0
   39.6997   33.2236   45.5292 H   0  0  0  0  0  0  0  0  0  0  0  0
   38.6466   34.3740   46.3626 H   0  0  0  0  0  0  0  0  0  0  0  0
   37.4496   32.5107   46.9947 H   0  0  0  0  0  0  0  0  0  0  0  0
   37.2534   29.4368   48.1408 H   0  0  0  0  0  0  0  0  0  0  0  0
   35.7953   29.5582   49.2621 H   0  0  0  0  0  0  0  0  0  0  0  0
   35.9656   29.8183   46.3809 H   0  0  0  0  0  0  0  0  0  0  0  0
   35.1797   31.2342   47.1873 H   0  0  0  0  0  0  0  0  0  0  0  0
   32.7657   27.2958   49.6802 H   0  0  0  0  0  0  0  0  0  0  0  0
   34.8462   28.5948   49.3684 H   0  0  0  0  0  0  0  0  0  0  0  0
   31.3084   28.7316   45.9760 H   0  0  0  0  0  0  0  0  0  0  0  0
  1 11  1  0
  1  2  1  0
  3  2  1  0
  4  3  1  0
  5  6  1  0
  5  4  1  0
  6  1  1  0
  7  8  1  0
  7  6  1  0
  9  7  1  0
 10  7  1  0
 12 11  1  0
 13 16  1  0
 13 12  1  0
 15 14  2  0
 16 15  1  0
 17 18  1  0
 17 16  2  0
 18 19  2  0
 19 14  1  0
  1 20  1  6
  2 21  1  0
  2 22  1  0
  3 23  1  0
  3 24  1  0
  4 25  1  0
  4 26  1  0
  5 27  1  0
  5 28  1  0
  6 29  1  6
 12 30  1  0
 12 31  1  0
 13 32  1  0
 13 33  1  0
 14 34  1  0
 15 35  1  0
 18 36  1  0
M  ISO  8  20  13  21  13  22  13  23  13  24  13  25  13  26  13  27  13
M  ISO  8  28  13  29  13  30   8  31   8  32   8  33   8  34  14  35  14
M  ISO  1  36  14
M  END
>  <minimizedAffinity>  (1) 
-4.18751907

>  <minimizedRMSD>  (1) 
0.568464994

$$$$
