
     RDKit          3D

 25 26  0  0  0  0  0  0  0  0999 V2000
   38.7580   30.9750   49.8150 Cl  0  0  0  0  0  0  0  0  0  0  0  0
   37.3450   30.4960   48.8990 C   0  0  0  0  0  0  0  0  0  0  0  0
   37.2900   30.7710   47.5490 C   0  0  0  0  0  0  0  0  0  0  0  0
   36.1930   30.3990   46.8350 C   0  0  0  0  0  0  0  0  0  0  0  0
   35.1510   29.7550   47.4740 C   0  0  0  0  0  0  0  0  0  0  0  0
   35.2250   29.4910   48.8150 C   0  0  0  0  0  0  0  0  0  0  0  0
   36.3350   29.8570   49.5780 C   0  0  0  0  0  0  0  0  0  0  0  0
   39.7750   33.2860   46.4970 C   0  0  0  0  0  0  0  0  0  0  0  0
   40.5210   32.5500   45.5410 C   0  0  0  0  0  0  0  0  0  0  0  0
   40.1420   31.2370   45.3020 C   0  0  0  0  0  0  0  0  0  0  0  0
   39.0890   30.7210   45.9840 N   0  0  0  0  0  0  0  0  0  0  0  0
   38.3960   31.4510   46.8920 C   0  0  0  0  0  0  0  0  0  0  0  0
   38.7500   32.7020   47.1260 N   0  0  0  0  0  0  0  0  0  0  0  0
   40.9040   30.5200   44.3390 N   0  0  0  0  0  0  0  0  0  0  0  0
   36.4580   29.5910   51.0390 C   0  0  0  0  0  0  0  0  0  0  0  0
   35.2780   29.1440   51.5540 F   0  0  0  0  0  0  0  0  0  0  0  0
   36.8740   30.7820   51.6380 F   0  0  0  0  0  0  0  0  0  0  0  0
   37.4730   28.6800   51.3160 F   0  0  0  0  0  0  0  0  0  0  0  0
   36.1362   30.6095   45.7568 H   0  0  0  0  0  0  0  0  0  0  0  0
   34.2599   29.4537   46.9038 H   0  0  0  0  0  0  0  0  0  0  0  0
   34.3859   28.9758   49.3053 H   0  0  0  0  0  0  0  0  0  0  0  0
   40.0382   34.3306   46.7194 H   0  0  0  0  0  0  0  0  0  0  0  0
   41.3696   33.0040   45.0083 H   0  0  0  0  0  0  0  0  0  0  0  0
   40.6683   29.5414   44.1207 H   0  0  0  0  0  0  0  0  0  0  0  0
   41.6916   30.9793   43.8598 H   0  0  0  0  0  0  0  0  0  0  0  0
  2  7  2  0
  2  1  1  0
  3  2  1  0
  4  5  1  0
  4  3  2  0
  5  6  2  0
  6  7  1  0
  7 15  1  0
  8 13  2  0
  9  8  1  0
 10  9  2  0
 10 11  1  0
 11 12  2  0
 12 13  1  0
 12  3  1  0
 14 10  1  0
 15 18  1  0
 15 16  1  0
 15 17  1  0
  4 19  1  0
  5 20  1  0
  6 21  1  0
  8 22  1  0
  9 23  1  0
 14 24  1  0
 14 25  1  0
M  ISO  5  19  14  20  14  21  14  22  14  23  14
M  END
>  <minimizedAffinity>  (1) 
-6.53808022

>  <minimizedRMSD>  (1) 
2.67379022

$$$$
