
     RDKit          3D

 25 26  0  0  1  0  0  0  0  0999 V2000
   39.6020   32.7630   46.8770 C   0  0  0  0  0  0  0  0  0  0  0  0
   39.8880   32.2130   45.6210 C   0  0  0  0  0  0  0  0  0  0  0  0
   39.1950   31.0490   45.2400 C   0  0  0  0  0  0  0  0  0  0  0  0
   38.2870   30.5220   46.1100 N   0  0  0  0  0  0  0  0  0  0  0  0
   38.0460   31.0930   47.3160 C   0  0  0  0  0  0  0  0  0  0  0  0
   38.6910   32.2040   47.7090 N   0  0  0  0  0  0  0  0  0  0  0  0
   37.0730   30.4670   48.1650 N   0  0  0  0  0  0  0  0  0  0  0  0
   35.6700   30.3020   47.7860 C   0  0  0  0  0  0  0  0  0  0  0  0
   35.1200   29.3640   48.7970 C   0  0  0  0  0  0  0  0  0  0  0  0
   36.2790   28.9070   49.6470 C   0  0  0  0  0  0  0  0  0  0  0  0
   37.3430   29.9270   49.4820 C   0  0  2  0  0  0  0  0  0  0  0  0
   37.4670   30.9270   50.5690 C   0  0  0  0  0  0  0  0  0  0  0  0
   38.8120   31.3200   50.5940 F   0  0  0  0  0  0  0  0  0  0  0  0
   36.7260   32.0320   50.2840 F   0  0  0  0  0  0  0  0  0  0  0  0
   37.1410   30.4890   51.8110 F   0  0  0  0  0  0  0  0  0  0  0  0
   40.1312   33.6730   47.1962 H   0  0  0  0  0  0  0  0  0  0  0  0
   40.6302   32.6759   44.9541 H   0  0  0  0  0  0  0  0  0  0  0  0
   39.3812   30.5760   44.2645 H   0  0  0  0  0  0  0  0  0  0  0  0
   35.1415   31.2661   47.8219 H   0  0  0  0  0  0  0  0  0  0  0  0
   35.5556   29.9246   46.7591 H   0  0  0  0  0  0  0  0  0  0  0  0
   34.3723   29.8758   49.4206 H   0  0  0  0  0  0  0  0  0  0  0  0
   34.6256   28.5089   48.3129 H   0  0  0  0  0  0  0  0  0  0  0  0
   35.9749   28.8409   50.7021 H   0  0  0  0  0  0  0  0  0  0  0  0
   36.6299   27.9100   49.3424 H   0  0  0  0  0  0  0  0  0  0  0  0
   38.3478   29.4863   49.5609 H   0  0  0  0  0  0  0  0  0  0  0  0
  1  6  2  0
  2  1  1  0
  3  2  2  0
  3  4  1  0
  4  5  2  0
  5  6  1  0
  5  7  1  0
  7 11  1  0
  8  7  1  0
  8  9  1  0
  9 10  1  0
 11 10  1  0
 11 12  1  0
 12 13  1  0
 12 15  1  0
 14 12  1  0
  1 16  1  0
  2 17  1  0
  3 18  1  0
  8 19  1  0
  8 20  1  0
  9 21  1  0
  9 22  1  0
 10 23  1  0
 10 24  1  0
 11 25  1  6
M  ISO  8  16  14  17  14  18  14  19  13  20  13  21  13  22  13  23  13
M  ISO  2  24  13  25  13
M  END
>  <minimizedAffinity>  (1) 
-6.01526928

>  <minimizedRMSD>  (1) 
2.32338452

$$$$
