
     RDKit          3D

 23 24  0  0  0  0  0  0  0  0999 V2000
   37.2290   29.0998   50.5633 Cl  0  0  0  0  0  0  0  0  0  0  0  0
   35.9603   29.1871   49.3872 C   0  0  0  0  0  0  0  0  0  0  0  0
   35.9318   30.2261   48.4829 C   0  0  0  0  0  0  0  0  0  0  0  0
   34.9420   30.3394   47.5344 C   0  0  0  0  0  0  0  0  0  0  0  0
   33.9318   29.3982   47.4612 C   0  0  0  0  0  0  0  0  0  0  0  0
   33.9329   28.3351   48.3621 C   0  0  0  0  0  0  0  0  0  0  0  0
   32.7125   27.0763   48.3771 Cl  0  0  0  0  0  0  0  0  0  0  0  0
   34.9440   28.2681   49.2895 C   0  0  0  0  0  0  0  0  0  0  0  0
   37.9728   33.1031   49.5021 C   0  0  0  0  0  0  0  0  0  0  0  0
   39.0029   33.1044   48.5620 C   0  0  0  0  0  0  0  0  0  0  0  0
   38.9882   32.0932   47.5616 C   0  0  0  0  0  0  0  0  0  0  0  0
   37.9723   31.1927   47.5871 N   0  0  0  0  0  0  0  0  0  0  0  0
   36.9857   31.2378   48.5340 C   0  0  0  0  0  0  0  0  0  0  0  0
   36.9968   32.1886   49.4772 N   0  0  0  0  0  0  0  0  0  0  0  0
   34.9135   31.1498   46.8236 H   0  0  0  0  0  0  0  0  0  0  0  0
   33.1310   29.4395   46.7364 H   0  0  0  0  0  0  0  0  0  0  0  0
   38.0288   33.8932   50.2430 H   0  0  0  0  0  0  0  0  0  0  0  0
   39.7973   33.8086   48.5421 H   0  0  0  0  0  0  0  0  0  0  0  0
   39.7557   32.0352   46.8020 H   0  0  0  0  0  0  0  0  0  0  0  0
   34.9724   27.1349   50.2728 C   0  0  0  0  0  0  0  0  0  0  0  0
   36.1278   26.3933   50.1540 F   0  0  0  0  0  0  0  0  0  0  0  0
   35.0332   27.7112   51.5451 F   0  0  0  0  0  0  0  0  0  0  0  0
   33.8258   26.3999   50.2144 F   0  0  0  0  0  0  0  0  0  0  0  0
  2  1  1  0
  3 13  1  0
  3  2  2  0
  4  3  1  0
  5  4  2  0
  5  6  1  0
  6  7  1  0
  6  8  2  0
  8  2  1  0
 10  9  2  0
 11 12  2  0
 11 10  1  0
 12 13  1  0
 13 14  2  0
 14  9  1  0
  4 15  1  0
  5 16  1  0
  9 17  1  0
 10 18  1  0
 11 19  1  0
 20 21  1  0
 20 22  1  0
 20 23  1  0
  8 20  1  0
M  ISO  5  15  14  16  14  17  14  18  14  19  14
M  END
>  <DihAtoms>  (1) 
5,7,19,20

>  <DihDeg>  (1) 
-0.0022042110906094104

$$$$
