
     RDKit          3D

 27 28  0  0  1  0  0  0  0  0999 V2000
   36.4800   30.1500   47.7100 N   0  0  0  0  0  0  0  0  0  0  0  0
   36.3210   29.5640   49.0140 C   0  0  0  0  0  0  0  0  0  0  0  0
   36.8190   30.4250   50.1450 C   0  0  2  0  0  0  0  0  0  0  0  0
   38.0160   31.1360   49.8620 N   0  0  0  0  0  0  0  0  0  0  0  0
   37.9310   31.8170   48.5670 C   0  0  0  0  0  0  0  0  0  0  0  0
   37.8000   30.6550   47.5810 C   0  0  0  0  0  0  0  0  0  0  0  0
   35.4610   30.1990   46.7300 C   0  0  0  0  0  0  0  0  0  0  0  0
   35.7220   30.1730   45.3490 C   0  0  0  0  0  0  0  0  0  0  0  0
   34.6540   30.2260   44.4620 C   0  0  0  0  0  0  0  0  0  0  0  0
   33.3900   30.3020   44.9630 N   0  0  0  0  0  0  0  0  0  0  0  0
   33.1740   30.3250   46.3060 C   0  0  0  0  0  0  0  0  0  0  0  0
   34.1860   30.2740   47.1880 N   0  0  0  0  0  0  0  0  0  0  0  0
   36.9860   29.5940   51.3840 C   0  0  0  0  0  0  0  0  0  0  0  0
   37.7420   28.4820   51.0350 F   0  0  0  0  0  0  0  0  0  0  0  0
   35.7190   29.1100   51.7310 F   0  0  0  0  0  0  0  0  0  0  0  0
   37.5040   30.2620   52.4500 F   0  0  0  0  0  0  0  0  0  0  0  0
   35.2507   29.3681   49.1755 H   0  0  0  0  0  0  0  0  0  0  0  0
   36.9294   28.6476   49.0240 H   0  0  0  0  0  0  0  0  0  0  0  0
   36.0498   31.1962   50.2990 H   0  0  0  0  0  0  0  0  0  0  0  0
   38.1741   31.8362   50.6007 H   0  0  0  0  0  0  0  0  0  0  0  0
   37.0509   32.4754   48.5226 H   0  0  0  0  0  0  0  0  0  0  0  0
   38.7928   32.4686   48.3602 H   0  0  0  0  0  0  0  0  0  0  0  0
   38.5307   29.8693   47.8234 H   0  0  0  0  0  0  0  0  0  0  0  0
   37.9941   30.9894   46.5512 H   0  0  0  0  0  0  0  0  0  0  0  0
   36.7552   30.1117   44.9766 H   0  0  0  0  0  0  0  0  0  0  0  0
   34.8261   30.2069   43.3757 H   0  0  0  0  0  0  0  0  0  0  0  0
   32.1415   30.3871   46.6803 H   0  0  0  0  0  0  0  0  0  0  0  0
  1  2  1  0
  2  3  1  0
  3 13  1  0
  4  3  1  0
  5  4  1  0
  6  1  1  0
  6  5  1  0
  7 12  1  0
  7  1  1  0
  8  7  2  0
  9 10  2  0
  9  8  1  0
 10 11  1  0
 11 12  2  0
 13 15  1  0
 13 16  1  0
 14 13  1  0
  2 17  1  0
  2 18  1  0
  3 19  1  1
  4 20  1  0
  5 21  1  0
  5 22  1  0
  6 23  1  0
  6 24  1  0
  8 25  1  0
  9 26  1  0
 11 27  1  0
M  ISO  8  17  13  18  13  19  13  20   5  21  13  22  13  23  13  24  13
M  ISO  3  25  14  26  14  27  14
M  END
>  <minimizedAffinity>  (1) 
-4.97525072

>  <minimizedRMSD>  (1) 
2.15450191

$$$$
