
     RDKit          3D

 37 39  0  0  0  0  0  0  0  0999 V2000
   35.9530   30.3050   48.5770 C   0  0  0  0  0  0  0  0  0  0  0  0
   35.9920   29.3010   49.5230 C   0  0  0  0  0  0  0  0  0  0  0  0
   35.0210   28.3090   49.5390 C   0  0  0  0  0  0  0  0  0  0  0  0
   34.0410   28.3990   48.5670 C   0  0  0  0  0  0  0  0  0  0  0  0
   33.9970   29.3980   47.6210 C   0  0  0  0  0  0  0  0  0  0  0  0
   34.9730   30.3490   47.6470 N   0  0  0  0  0  0  0  0  0  0  0  0
   32.9510   29.3950   46.6730 N   0  0  0  0  0  0  0  0  0  0  0  0
   31.8100   28.5510   46.9140 C   0  0  0  0  0  0  0  0  0  0  0  0
   30.9350   28.6310   45.6840 C   0  0  0  0  0  0  0  0  0  0  0  0
   30.5180   30.0710   45.4460 C   0  0  0  0  0  0  0  0  0  0  0  0
   31.6860   30.9930   45.4120 C   0  0  0  0  0  0  0  0  0  0  0  0
   32.9580   30.1970   45.4650 C   0  0  0  0  0  0  0  0  0  0  0  0
   38.1220   33.0500   49.6770 C   0  0  0  0  0  0  0  0  0  0  0  0
   38.9630   33.2430   48.5680 C   0  0  0  0  0  0  0  0  0  0  0  0
   38.7730   32.4330   47.4670 C   0  0  0  0  0  0  0  0  0  0  0  0
   37.7820   31.4960   47.5220 N   0  0  0  0  0  0  0  0  0  0  0  0
   36.9900   31.3280   48.5910 C   0  0  0  0  0  0  0  0  0  0  0  0
   37.1790   32.1070   49.6430 N   0  0  0  0  0  0  0  0  0  0  0  0
   39.6370   32.6000   46.2680 C   0  0  0  0  0  0  0  0  0  0  0  0
   40.4460   31.5110   46.0440 F   0  0  0  0  0  0  0  0  0  0  0  0
   38.8650   32.8200   45.1280 F   0  0  0  0  0  0  0  0  0  0  0  0
   40.4430   33.7180   46.3810 F   0  0  0  0  0  0  0  0  0  0  0  0
   36.7990   29.2866   50.2704 H   0  0  0  0  0  0  0  0  0  0  0  0
   35.0304   27.4979   50.2820 H   0  0  0  0  0  0  0  0  0  0  0  0
   33.2541   27.6306   48.5490 H   0  0  0  0  0  0  0  0  0  0  0  0
   32.1356   27.5134   47.0794 H   0  0  0  0  0  0  0  0  0  0  0  0
   31.2608   28.8786   47.8090 H   0  0  0  0  0  0  0  0  0  0  0  0
   31.4957   28.2637   44.8118 H   0  0  0  0  0  0  0  0  0  0  0  0
   30.0382   28.0119   45.8338 H   0  0  0  0  0  0  0  0  0  0  0  0
   29.9890   30.1328   44.4835 H   0  0  0  0  0  0  0  0  0  0  0  0
   29.8679   30.3778   46.2786 H   0  0  0  0  0  0  0  0  0  0  0  0
   31.6609   31.5815   44.4830 H   0  0  0  0  0  0  0  0  0  0  0  0
   31.6424   31.6698   46.2780 H   0  0  0  0  0  0  0  0  0  0  0  0
   33.0215   29.5406   44.5846 H   0  0  0  0  0  0  0  0  0  0  0  0
   33.8253   30.8736   45.4678 H   0  0  0  0  0  0  0  0  0  0  0  0
   38.2412   33.6765   50.5733 H   0  0  0  0  0  0  0  0  0  0  0  0
   39.7471   34.0144   48.5771 H   0  0  0  0  0  0  0  0  0  0  0  0
  1 17  1  0
  1  2  2  0
  2  3  1  0
  4  3  2  0
  5  6  2  0
  5  4  1  0
  6  1  1  0
  7  8  1  0
  7  5  1  0
  9  8  1  0
 10  9  1  0
 11 10  1  0
 11 12  1  0
 12  7  1  0
 14 13  2  0
 15 16  2  0
 15 14  1  0
 16 17  1  0
 17 18  2  0
 18 13  1  0
 19 22  1  0
 19 15  1  0
 20 19  1  0
 21 19  1  0
  2 23  1  0
  3 24  1  0
  4 25  1  0
  8 26  1  0
  8 27  1  0
  9 28  1  0
  9 29  1  0
 10 30  1  0
 10 31  1  0
 11 32  1  0
 11 33  1  0
 12 34  1  0
 12 35  1  0
 13 36  1  0
 14 37  1  0
M  ISO  8  23  14  24  14  25  14  26  13  27  13  28  13  29  13  30  13
M  ISO  7  31  13  32  13  33  13  34  13  35  13  36  14  37  14
M  END
>  <minimizedAffinity>  (1) 
-6.82012463

>  <minimizedRMSD>  (1) 
0.419705838

$$$$
