
     RDKit          3D

 35 37  0  0  0  0  0  0  0  0999 V2000
   38.7500   31.2930   46.5990 C   0  0  0  0  0  0  0  0  0  0  0  0
   39.4340   32.4570   46.7170 C   0  0  0  0  0  0  0  0  0  0  0  0
   40.2980   32.9580   45.7780 C   0  0  0  0  0  0  0  0  0  0  0  0
   40.5210   32.2590   44.6070 C   0  0  0  0  0  0  0  0  0  0  0  0
   39.8260   31.0750   44.4830 C   0  0  0  0  0  0  0  0  0  0  0  0
   38.9960   30.6450   45.4450 N   0  0  0  0  0  0  0  0  0  0  0  0
   38.9520   30.2000   42.3660 C   0  0  0  0  0  0  0  0  0  0  0  0
   40.0200   30.3260   43.2550 C   0  0  0  0  0  0  0  0  0  0  0  0
   41.2090   29.7200   42.9340 C   0  0  0  0  0  0  0  0  0  0  0  0
   41.4260   28.9860   41.7830 C   0  0  0  0  0  0  0  0  0  0  0  0
   40.4000   28.8430   40.8940 C   0  0  0  0  0  0  0  0  0  0  0  0
   39.2130   29.4500   41.2150 C   0  0  0  0  0  0  0  0  0  0  0  0
   37.3790   30.8590   42.6180 S   0  0  0  0  0  0  0  0  0  0  0  0
   36.6810   30.7290   41.2580 O   0  0  0  0  0  0  0  0  0  0  0  0
   36.5610   29.9870   43.5040 O   0  0  0  0  0  0  0  0  0  0  0  0
   37.1930   32.5870   42.7790 C   0  0  0  0  0  0  0  0  0  0  0  0
   37.1970   32.8990   44.1350 F   0  0  0  0  0  0  0  0  0  0  0  0
   36.3070   33.2370   42.0230 F   0  0  0  0  0  0  0  0  0  0  0  0
   38.4010   33.2330   42.3770 F   0  0  0  0  0  0  0  0  0  0  0  0
   38.1810   30.5660   48.9370 C   0  0  0  0  0  0  0  0  0  0  0  0
   37.8340   30.7880   47.5900 C   0  0  0  0  0  0  0  0  0  0  0  0
   36.5090   30.5140   47.1830 C   0  0  0  0  0  0  0  0  0  0  0  0
   35.6340   30.0440   48.1300 N   0  0  0  0  0  0  0  0  0  0  0  0
   36.0300   29.8470   49.4250 C   0  0  0  0  0  0  0  0  0  0  0  0
   37.2770   30.1030   49.8210 N   0  0  0  0  0  0  0  0  0  0  0  0
   39.2847   33.0439   47.6353 H   0  0  0  0  0  0  0  0  0  0  0  0
   40.8124   33.9139   45.9562 H   0  0  0  0  0  0  0  0  0  0  0  0
   41.2063   32.6225   43.8271 H   0  0  0  0  0  0  0  0  0  0  0  0
   42.0456   29.8256   43.6404 H   0  0  0  0  0  0  0  0  0  0  0  0
   42.4060   28.5263   41.5873 H   0  0  0  0  0  0  0  0  0  0  0  0
   40.5198   28.2680   39.9640 H   0  0  0  0  0  0  0  0  0  0  0  0
   38.3866   29.3360   40.4980 H   0  0  0  0  0  0  0  0  0  0  0  0
   39.2077   30.7744   49.2724 H   0  0  0  0  0  0  0  0  0  0  0  0
   36.1896   30.6721   46.1423 H   0  0  0  0  0  0  0  0  0  0  0  0
   35.3016   29.4682   50.1571 H   0  0  0  0  0  0  0  0  0  0  0  0
  1  2  2  0
  1 21  1  0
  3  2  1  0
  4  3  2  0
  5  4  1  0
  5  6  2  0
  6  1  1  0
  7 13  1  0
  7  8  2  0
  8  5  1  0
  9  8  1  0
 10  9  2  0
 11 12  2  0
 11 10  1  0
 12  7  1  0
 13 16  1  0
 13 15  2  0
 14 13  2  0
 16 17  1  0
 18 16  1  0
 19 16  1  0
 20 25  2  0
 21 20  1  0
 22 21  2  0
 22 23  1  0
 23 24  2  0
 24 25  1  0
  2 26  1  0
  3 27  1  0
  4 28  1  0
  9 29  1  0
 10 30  1  0
 11 31  1  0
 12 32  1  0
 20 33  1  0
 22 34  1  0
 24 35  1  0
M  ISO  8  26  14  27  14  28  14  29  14  30  14  31  14  32  14  33  14
M  ISO  2  34  14  35  14
M  END
>  <minimizedAffinity>  (1) 
-5.48600245

>  <minimizedRMSD>  (1) 
1.64326513

$$$$
