
     RDKit          3D

 30 32  0  0  0  0  0  0  0  0999 V2000
   33.8473   28.7913   48.2716 C   0  0  0  0  0  0  0  0  0  0  0  0
   34.4356   28.4207   49.4289 C   0  0  0  0  0  0  0  0  0  0  0  0
   35.7123   28.7881   49.8131 C   0  0  0  0  0  0  0  0  0  0  0  0
   36.4609   29.5784   48.9947 C   0  0  0  0  0  0  0  0  0  0  0  0
   35.8478   29.9625   47.7925 C   0  0  0  0  0  0  0  0  0  0  0  0
   34.6022   29.5768   47.4671 N   0  0  0  0  0  0  0  0  0  0  0  0
   31.6420   27.6656   48.6942 C   0  0  0  0  0  0  0  0  0  0  0  0
   32.5209   28.4014   47.8857 C   0  0  0  0  0  0  0  0  0  0  0  0
   32.0239   28.7449   46.6489 C   0  0  0  0  0  0  0  0  0  0  0  0
   30.7736   28.3866   46.2637 N   0  0  0  0  0  0  0  0  0  0  0  0
   29.9785   27.6719   47.1045 C   0  0  0  0  0  0  0  0  0  0  0  0
   30.4039   27.3089   48.3171 N   0  0  0  0  0  0  0  0  0  0  0  0
   37.7542   30.0486   49.2057 O   0  0  0  0  0  0  0  0  0  0  0  0
   38.1593   31.3060   48.7808 C   0  0  0  0  0  0  0  0  0  0  0  0
   37.8669   32.3312   49.6843 C   0  0  0  0  0  0  0  0  0  0  0  0
   38.3350   33.5099   49.1088 C   0  0  0  0  0  0  0  0  0  0  0  0
   38.8705   33.1729   47.9300 N   0  0  0  0  0  0  0  0  0  0  0  0
   38.7721   31.8831   47.7293 N   0  0  0  0  0  0  0  0  0  0  0  0
   33.9244   27.7935   50.1468 H   0  0  0  0  0  0  0  0  0  0  0  0
   36.1867   28.4937   50.7382 H   0  0  0  0  0  0  0  0  0  0  0  0
   36.3808   30.5917   47.0891 H   0  0  0  0  0  0  0  0  0  0  0  0
   31.9861   27.3714   49.6763 H   0  0  0  0  0  0  0  0  0  0  0  0
   32.6732   29.3235   45.9736 H   0  0  0  0  0  0  0  0  0  0  0  0
   29.0248   27.4688   46.6539 H   0  0  0  0  0  0  0  0  0  0  0  0
   37.3928   32.3947   50.6554 H   0  0  0  0  0  0  0  0  0  0  0  0
   38.2955   34.5322   49.5038 H   0  0  0  0  0  0  0  0  0  0  0  0
   39.4749   34.1229   47.0103 C   0  0  0  0  0  0  0  0  0  0  0  0
   38.6400   34.3666   45.9244 F   0  0  0  0  0  0  0  0  0  0  0  0
   40.6518   33.6686   46.4936 F   0  0  0  0  0  0  0  0  0  0  0  0
   39.6519   35.3454   47.6369 F   0  0  0  0  0  0  0  0  0  0  0  0
  1  2  2  0
  2  3  1  0
  4 13  1  0
  4  3  2  0
  5  4  1  0
  6  5  2  0
  6  1  1  0
  8  1  1  0
  8  7  2  0
  9  8  1  0
 10  9  2  0
 10 11  1  0
 11 12  2  0
 12  7  1  0
 14 13  1  0
 14 15  1  0
 16 15  2  0
 17 16  1  0
 18 17  1  0
 18 14  2  0
  2 19  1  0
  3 20  1  0
  5 21  1  0
  7 22  1  0
  9 23  1  0
 11 24  1  0
 15 25  1  0
 16 26  1  0
 27 28  1  0
 27 29  1  0
 27 30  1  0
 17 27  1  0
M  ISO  8  19  14  20  14  21  14  22  14  23  14  24  14  25  14  26  14
M  END
>  <DihAtoms>  (1) 
15,16,26,27

>  <DihDeg>  (1) 
-60.19054599786146

$$$$
