
     RDKit          3D

 20 20  0  0  0  0  0  0  0  0999 V2000
   37.6130   30.6560   47.7330 C   0  0  0  0  0  0  0  0  0  0  0  0
   37.0490   29.4210   51.2700 C   0  0  0  0  0  0  0  0  0  0  0  0
   37.7520   29.8520   50.1590 C   0  0  0  0  0  0  0  0  0  0  0  0
   37.0300   30.1810   49.0040 C   0  0  0  0  0  0  0  0  0  0  0  0
   35.6620   30.0500   49.0780 N   0  0  0  0  0  0  0  0  0  0  0  0
   35.0250   29.6340   50.1510 C   0  0  0  0  0  0  0  0  0  0  0  0
   35.7190   29.3100   51.2780 N   0  0  0  0  0  0  0  0  0  0  0  0
   38.7440   31.6220   48.0380 C   0  0  0  0  0  0  0  0  0  0  0  0
   38.1550   33.0720   48.8840 S   0  0  0  0  0  0  0  0  0  0  0  0
   39.5460   34.2330   49.1310 C   0  0  0  0  0  0  0  0  0  0  0  0
   40.4340   34.1710   48.0740 F   0  0  0  0  0  0  0  0  0  0  0  0
   40.0870   34.0940   50.3620 F   0  0  0  0  0  0  0  0  0  0  0  0
   38.9730   35.5340   49.0310 F   0  0  0  0  0  0  0  0  0  0  0  0
   36.8400   31.1683   47.1414 H   0  0  0  0  0  0  0  0  0  0  0  0
   37.9995   29.8009   47.1591 H   0  0  0  0  0  0  0  0  0  0  0  0
   37.6073   29.1600   52.1811 H   0  0  0  0  0  0  0  0  0  0  0  0
   38.8487   29.9342   50.1818 H   0  0  0  0  0  0  0  0  0  0  0  0
   33.9285   29.5474   50.1385 H   0  0  0  0  0  0  0  0  0  0  0  0
   39.4856   31.1147   48.6726 H   0  0  0  0  0  0  0  0  0  0  0  0
   39.1936   31.9379   47.0851 H   0  0  0  0  0  0  0  0  0  0  0  0
  1  8  1  0
  1  4  1  0
  2  7  2  0
  3  2  1  0
  4  5  1  0
  4  3  2  0
  5  6  2  0
  6  7  1  0
  8  9  1  0
  9 10  1  0
 10 12  1  0
 11 10  1  0
 13 10  1  0
  1 14  1  0
  1 15  1  0
  2 16  1  0
  3 17  1  0
  6 18  1  0
  8 19  1  0
  8 20  1  0
M  ISO  7  14   8  15   8  16  14  17  14  18  14  19   8  20   8
M  END
>  <minimizedAffinity>  (1) 
-4.16377354

>  <minimizedRMSD>  (1) 
0.997182846

$$$$
