
     RDKit          3D

 27 29  0  0  0  0  0  0  0  0999 V2000
   36.8495   30.5570   46.9159 C   0  0  0  0  0  0  0  0  0  0  0  0
   37.5158   31.0356   48.0254 C   0  0  0  0  0  0  0  0  0  0  0  0
   38.5063   31.9825   47.8943 C   0  0  0  0  0  0  0  0  0  0  0  0
   38.7998   32.4281   46.6071 C   0  0  0  0  0  0  0  0  0  0  0  0
   39.7330   33.3543   46.2262 N   0  0  0  0  0  0  0  0  0  0  0  0
   39.6435   33.4453   44.9021 C   0  0  0  0  0  0  0  0  0  0  0  0
   38.7136   32.6367   44.4176 N   0  0  0  0  0  0  0  0  0  0  0  0
   38.1581   31.9761   45.4712 C   0  0  0  0  0  0  0  0  0  0  0  0
   37.1593   31.0168   45.6370 C   0  0  0  0  0  0  0  0  0  0  0  0
   37.3867   30.0948   51.6628 C   0  0  0  0  0  0  0  0  0  0  0  0
   37.8687   30.6551   50.4850 C   0  0  0  0  0  0  0  0  0  0  0  0
   37.1320   30.5041   49.3216 C   0  0  0  0  0  0  0  0  0  0  0  0
   35.9523   29.8016   49.3940 N   0  0  0  0  0  0  0  0  0  0  0  0
   35.5040   29.2642   50.5572 C   0  0  0  0  0  0  0  0  0  0  0  0
   36.2136   29.4117   51.6696 N   0  0  0  0  0  0  0  0  0  0  0  0
   40.4597   34.3080   44.1710 O   0  0  0  0  0  0  0  0  0  0  0  0
   36.0588   29.8077   46.9711 H   0  0  0  0  0  0  0  0  0  0  0  0
   39.0285   32.3581   48.7602 H   0  0  0  0  0  0  0  0  0  0  0  0
   40.3722   33.8659   46.8934 H   0  0  0  0  0  0  0  0  0  0  0  0
   36.6531   30.6582   44.7563 H   0  0  0  0  0  0  0  0  0  0  0  0
   37.9416   30.1970   52.5874 H   0  0  0  0  0  0  0  0  0  0  0  0
   38.7859   31.1999   50.4347 H   0  0  0  0  0  0  0  0  0  0  0  0
   34.5613   28.7425   50.4483 H   0  0  0  0  0  0  0  0  0  0  0  0
   41.4227   35.1357   44.7462 C   0  0  0  0  0  0  0  0  0  0  0  0
   41.5644   36.2721   43.9697 F   0  0  0  0  0  0  0  0  0  0  0  0
   42.6736   34.5254   44.7721 F   0  0  0  0  0  0  0  0  0  0  0  0
   41.0202   35.4439   46.0325 F   0  0  0  0  0  0  0  0  0  0  0  0
  1  2  2  0
  2 12  1  0
  3  2  1  0
  4  3  2  0
  5  4  1  0
  6  5  1  0
  7  6  2  0
  7  8  1  0
  8  9  2  0
  8  4  1  0
  9  1  1  0
 10 15  2  0
 11 10  1  0
 12 13  1  0
 12 11  2  0
 13 14  2  0
 14 15  1  0
 16  6  1  0
  1 17  1  0
  3 18  1  0
  5 19  1  0
  9 20  1  0
 10 21  1  0
 11 22  1  0
 14 23  1  0
 24 25  1  0
 24 26  1  0
 24 27  1  0
 16 24  1  0
M  ISO  7  17  14  18  14  19   9  20  14  21  14  22  14  23  14
M  END
>  <DihAtoms>  (1) 
5,15,23,24

>  <DihDeg>  (1) 
179.99743953999732

$$$$
