
     RDKit          3D

 39 41  0  0  1  0  0  0  0  0999 V2000
   35.3930   30.4220   48.3270 C   0  0  2  0  0  0  0  0  0  0  0  0
   36.5500   31.0620   47.6020 C   0  0  0  0  0  0  0  0  0  0  0  0
   37.8510   30.3990   47.8800 C   0  0  0  0  0  0  0  0  0  0  0  0
   38.1650   30.2740   49.3290 C   0  0  0  0  0  0  0  0  0  0  0  0
   37.0250   29.8280   50.1510 C   0  0  0  0  0  0  0  0  0  0  0  0
   35.7690   29.4540   49.3640 C   0  0  1  0  0  0  0  0  0  0  0  0
   34.5060   29.7170   47.3330 C   0  0  0  0  0  0  0  0  0  0  0  0
   33.3920   30.4400   46.9050 C   0  0  0  0  0  0  0  0  0  0  0  0
   32.5310   29.8230   45.9910 C   0  0  0  0  0  0  0  0  0  0  0  0
   32.8330   28.5390   45.5670 N   0  0  0  0  0  0  0  0  0  0  0  0
   33.9350   27.8740   46.0160 C   0  0  0  0  0  0  0  0  0  0  0  0
   34.7430   28.4640   46.8780 N   0  0  0  0  0  0  0  0  0  0  0  0
   31.3830   30.4770   45.4920 N   0  0  0  0  0  0  0  0  0  0  0  0
   31.4650   31.6590   44.8080 C   0  0  0  0  0  0  0  0  0  0  0  0
   30.3290   32.2740   44.3320 C   0  0  0  0  0  0  0  0  0  0  0  0
   29.1210   31.6710   44.5620 C   0  0  0  0  0  0  0  0  0  0  0  0
   28.0800   32.2380   44.1230 O   0  0  0  0  0  0  0  0  0  0  0  0
   29.0410   30.5060   45.2350 N   0  0  0  0  0  0  0  0  0  0  0  0
   30.1820   29.9440   45.6800 C   0  0  0  0  0  0  0  0  0  0  0  0
   29.9950   28.8510   46.3000 O   0  0  0  0  0  0  0  0  0  0  0  0
   34.6730   29.3110   50.4160 C   0  0  0  0  0  0  0  0  0  0  0  0
   33.9010   30.4620   50.4020 F   0  0  0  0  0  0  0  0  0  0  0  0
   33.7900   28.2900   50.0450 F   0  0  0  0  0  0  0  0  0  0  0  0
   35.1400   29.1190   51.6790 F   0  0  0  0  0  0  0  0  0  0  0  0
   34.8804   31.2503   48.8380 H   0  0  0  0  0  0  0  0  0  0  0  0
   36.6197   32.1145   47.9142 H   0  0  0  0  0  0  0  0  0  0  0  0
   36.3559   30.9642   46.5237 H   0  0  0  0  0  0  0  0  0  0  0  0
   37.8264   29.3901   47.4424 H   0  0  0  0  0  0  0  0  0  0  0  0
   38.6338   31.0319   47.4365 H   0  0  0  0  0  0  0  0  0  0  0  0
   38.9814   29.5460   49.4449 H   0  0  0  0  0  0  0  0  0  0  0  0
   38.4410   31.2780   49.6837 H   0  0  0  0  0  0  0  0  0  0  0  0
   37.3431   28.9456   50.7257 H   0  0  0  0  0  0  0  0  0  0  0  0
   36.7481   30.6843   50.7836 H   0  0  0  0  0  0  0  0  0  0  0  0
   35.9435   28.5285   48.7957 H   0  0  0  0  0  0  0  0  0  0  0  0
   33.1977   31.4583   47.2729 H   0  0  0  0  0  0  0  0  0  0  0  0
   34.1494   26.8544   45.6632 H   0  0  0  0  0  0  0  0  0  0  0  0
   32.4479   32.1223   44.6368 H   0  0  0  0  0  0  0  0  0  0  0  0
   30.3899   33.2244   43.7816 H   0  0  0  0  0  0  0  0  0  0  0  0
   28.1301   30.0563   45.4050 H   0  0  0  0  0  0  0  0  0  0  0  0
  1  6  1  0
  2  3  1  0
  2  1  1  0
  3  4  1  0
  4  5  1  0
  6  5  1  0
  6 21  1  0
  7  1  1  0
  8  7  2  0
  9  8  1  0
 10  9  2  0
 10 11  1  0
 11 12  2  0
 12  7  1  0
 13 19  1  0
 13  9  1  0
 14 13  1  0
 15 16  1  0
 15 14  2  0
 16 18  1  0
 17 16  2  0
 18 19  1  0
 19 20  2  0
 21 24  1  0
 22 21  1  0
 23 21  1  0
  1 25  1  1
  2 26  1  0
  2 27  1  0
  3 28  1  0
  3 29  1  0
  4 30  1  0
  4 31  1  0
  5 32  1  0
  5 33  1  0
  6 34  1  6
  8 35  1  0
 11 36  1  0
 14 37  1  0
 15 38  1  0
 18 39  1  0
M  ISO  8  25  13  26  13  27  13  28  13  29  13  30  13  31  13  32  13
M  ISO  7  33  13  34  13  35  14  36  14  37  14  38  14  39   9
M  END
>  <minimizedAffinity>  (1) 
-5.74673128

>  <minimizedRMSD>  (1) 
1.90098262

$$$$
