
     RDKit          3D

 28 30  0  0  0  0  0  0  0  0999 V2000
   36.8463   30.5630   46.9130 C   0  0  0  0  0  0  0  0  0  0  0  0
   37.5098   31.0337   48.0267 C   0  0  0  0  0  0  0  0  0  0  0  0
   38.5010   31.9776   47.8855 C   0  0  0  0  0  0  0  0  0  0  0  0
   38.7907   32.4196   46.5987 C   0  0  0  0  0  0  0  0  0  0  0  0
   39.7338   33.3501   46.2204 N   0  0  0  0  0  0  0  0  0  0  0  0
   39.6426   33.4414   44.8973 C   0  0  0  0  0  0  0  0  0  0  0  0
   38.7027   32.6287   44.4139 N   0  0  0  0  0  0  0  0  0  0  0  0
   38.1525   31.9750   45.4658 C   0  0  0  0  0  0  0  0  0  0  0  0
   37.1573   31.0239   45.6337 C   0  0  0  0  0  0  0  0  0  0  0  0
   37.3911   30.1065   51.6656 C   0  0  0  0  0  0  0  0  0  0  0  0
   37.8700   30.6675   50.4852 C   0  0  0  0  0  0  0  0  0  0  0  0
   37.1250   30.5017   49.3207 C   0  0  0  0  0  0  0  0  0  0  0  0
   35.9550   29.7939   49.3918 N   0  0  0  0  0  0  0  0  0  0  0  0
   35.5152   29.2589   50.5597 C   0  0  0  0  0  0  0  0  0  0  0  0
   36.2216   29.4146   51.6705 N   0  0  0  0  0  0  0  0  0  0  0  0
   40.4815   34.3159   44.2096 O   0  0  0  0  0  0  0  0  0  0  0  0
   36.0685   29.8339   46.9371 H   0  0  0  0  0  0  0  0  0  0  0  0
   39.0214   32.3488   48.7439 H   0  0  0  0  0  0  0  0  0  0  0  0
   40.3740   33.8570   46.8996 H   0  0  0  0  0  0  0  0  0  0  0  0
   36.6581   30.6761   44.7474 H   0  0  0  0  0  0  0  0  0  0  0  0
   37.9704   30.2380   52.5601 H   0  0  0  0  0  0  0  0  0  0  0  0
   38.7893   31.2236   50.4296 H   0  0  0  0  0  0  0  0  0  0  0  0
   34.5889   28.7131   50.5544 H   0  0  0  0  0  0  0  0  0  0  0  0
   40.2111   35.6233   43.9222 C   0  0  0  0  0  0  0  0  0  0  0  0
   39.8746   36.3854   42.9620 O   0  0  0  0  0  0  0  0  0  0  0  0
   40.3537   36.4240   45.1119 N   0  0  0  0  0  0  0  0  0  0  0  0
   40.6838   37.0683   45.8369 H   0  0  0  0  0  0  0  0  0  0  0  0
   39.5473   36.2945   45.7646 H   0  0  0  0  0  0  0  0  0  0  0  0
  1  2  2  0
  2 12  1  0
  3  2  1  0
  4  3  2  0
  5  4  1  0
  6  5  1  0
  7  6  2  0
  7  8  1  0
  8  9  2  0
  8  4  1  0
  9  1  1  0
 10 15  2  0
 11 10  1  0
 12 13  1  0
 12 11  2  0
 13 14  2  0
 14 15  1  0
 16  6  1  0
  1 17  1  0
  3 18  1  0
  5 19  1  0
  9 20  1  0
 10 21  1  0
 11 22  1  0
 14 23  1  0
 24 25  2  0
 24 26  1  0
 26 27  1  0
 26 28  1  0
 16 24  1  0
M  ISO  8  17  14  18  14  19   9  20  14  21  14  22  14  23  14  27   5
M  END
>  <DihAtoms>  (1) 
5,15,23,24

>  <DihDeg>  (1) 
-0.00021715579893371299

$$$$
