
     RDKit          3D

 33 34  0  0  0  0  0  0  0  0999 V2000
   39.5829   32.8725   46.2893 N   0  0  0  0  0  0  0  0  0  0  0  0
   38.2669   32.3558   46.0691 C   0  0  1  0  0  0  0  0  0  0  0  0
   37.9383   32.3971   44.6035 C   0  0  0  0  0  0  0  0  0  0  0  0
   38.9365   31.5868   43.9098 N   0  0  0  0  0  0  0  0  0  0  0  0
   40.1834   32.3697   44.0240 C   0  0  0  0  0  0  0  0  0  0  0  0
   40.5960   32.2677   45.4904 C   0  0  2  0  0  0  0  0  0  0  0  0
   40.8407   30.8757   45.8029 N   0  0  0  0  0  0  0  0  0  0  0  0
   38.1283   30.5940   46.5743 S   0  0  0  0  0  0  0  0  0  0  0  0
   37.8957   30.9290   50.6008 C   0  0  0  0  0  0  0  0  0  0  0  0
   38.3563   31.0753   49.3074 C   0  0  0  0  0  0  0  0  0  0  0  0
   37.6608   30.4938   48.2854 C   0  0  0  0  0  0  0  0  0  0  0  0
   36.5136   29.7756   48.5859 N   0  0  0  0  0  0  0  0  0  0  0  0
   36.1253   29.6743   49.8577 C   0  0  0  0  0  0  0  0  0  0  0  0
   36.7850   30.2315   50.8743 N   0  0  0  0  0  0  0  0  0  0  0  0
   34.9105   28.9114   50.1577 C   0  0  0  0  0  0  0  0  0  0  0  0
   34.4887   27.9648   49.4465 O   0  0  0  0  0  0  0  0  0  0  0  0
   39.8378   33.0758   47.2572 H   0  0  0  0  0  0  0  0  0  0  0  0
   37.5371   32.9400   46.6376 H   0  0  0  0  0  0  0  0  0  0  0  0
   37.9177   33.4158   44.1869 H   0  0  0  0  0  0  0  0  0  0  0  0
   36.9377   31.9041   44.4878 H   0  0  0  0  0  0  0  0  0  0  0  0
   39.0345   30.6728   44.3828 H   0  0  0  0  0  0  0  0  0  0  0  0
   39.9315   33.4152   43.7743 H   0  0  0  0  0  0  0  0  0  0  0  0
   40.9745   31.9718   43.3855 H   0  0  0  0  0  0  0  0  0  0  0  0
   41.5185   32.8790   45.5986 H   0  0  0  0  0  0  0  0  0  0  0  0
   40.8953   30.7930   46.8592 H   0  0  0  0  0  0  0  0  0  0  0  0
   41.8306   30.6730   45.4756 H   0  0  0  0  0  0  0  0  0  0  0  0
   38.4273   31.3800   51.4359 H   0  0  0  0  0  0  0  0  0  0  0  0
   39.2482   31.6349   49.0836 H   0  0  0  0  0  0  0  0  0  0  0  0
   34.1522   29.7614   53.4671 H   0  0  0  0  0  0  0  0  0  0  0  0
   34.7417   29.5021   52.5837 C   0  0  0  0  0  0  0  0  0  0  0  0
   35.9899   29.4278   52.7122 O   0  0  0  0  0  0  0  0  0  0  0  0
   34.1499   29.2526   51.3248 N   0  0  0  0  0  0  0  0  0  0  0  0
   33.1034   29.3138   51.2124 H   0  0  0  0  0  0  0  0  0  0  0  0
  2  1  1  0
  2  8  1  0
  3  2  1  0
  4  5  1  0
  4  3  1  0
  5  6  1  0
  6  7  1  0
  6  1  1  0
  8 11  1  0
  9 14  2  0
 10  9  1  0
 11 12  1  0
 11 10  2  0
 12 13  2  0
 13 15  1  0
 13 14  1  0
 16 15  2  0
  1 17  1  0
  2 18  1  1
  3 19  1  0
  3 20  1  0
  4 21  1  0
  5 22  1  0
  5 23  1  0
  6 24  1  6
  7 25  1  0
  7 26  1  0
  9 27  1  0
 10 28  1  0
 29 30  1  0
 30 31  2  0
 30 32  1  0
 32 33  1  0
 15 32  1  0
M  ISO  8  17   5  18  13  19  13  20  13  21   5  22  13  23  13  24  13
M  ISO  5  25   5  26   5  27  14  28  14  29   1
M  END
>  <DihAtoms>  (1) 
12,14,31,29

>  <DihDeg>  (1) 
179.999981612541

$$$$
