
     RDKit          3D

 15 15  0  0  0  0  0  0  0  0999 V2000
   37.4700   30.2930   51.3250 C   0  0  0  0  0  0  0  0  0  0  0  0
   38.2050   30.9290   50.3200 C   0  0  0  0  0  0  0  0  0  0  0  0
   37.8960   30.6520   48.9840 C   0  0  0  0  0  0  0  0  0  0  0  0
   36.8850   29.7680   48.7330 N   0  0  0  0  0  0  0  0  0  0  0  0
   36.1950   29.1690   49.7270 C   0  0  0  0  0  0  0  0  0  0  0  0
   36.4870   29.4320   51.0290 N   0  0  0  0  0  0  0  0  0  0  0  0
   35.2100   28.3070   49.2760 O   0  0  0  0  0  0  0  0  0  0  0  0
   33.8490   28.6020   49.4770 C   0  0  0  0  0  0  0  0  0  0  0  0
   32.8630   27.9740   48.9600 O   0  0  0  0  0  0  0  0  0  0  0  0
   33.4540   29.6810   50.3170 N   0  0  0  0  0  0  0  0  0  0  0  0
   37.7033   30.5036   52.3792 H   0  0  0  0  0  0  0  0  0  0  0  0
   39.0105   31.6334   50.5748 H   0  0  0  0  0  0  0  0  0  0  0  0
   38.4491   31.1304   48.1623 H   0  0  0  0  0  0  0  0  0  0  0  0
   32.4543   29.8864   50.4557 H   0  0  0  0  0  0  0  0  0  0  0  0
   34.1679   30.2565   50.7861 H   0  0  0  0  0  0  0  0  0  0  0  0
  2  1  2  0
  3  2  1  0
  4  3  2  0
  4  5  1  0
  5  6  2  0
  6  1  1  0
  7  8  1  0
  7  5  1  0
  8 10  1  0
  9  8  2  0
  1 11  1  0
  2 12  1  0
  3 13  1  0
 10 14  1  0
 10 15  1  0
M  ISO  3  11  14  12  14  13  14
M  END
>  <minimizedAffinity>  (1) 
-3.89788628

>  <minimizedRMSD>  (1) 
0.479061961

$$$$
