
     RDKit          3D

 28 29  0  0  0  0  0  0  0  0999 V2000
   37.4660   31.4304   49.3819 C   0  0  0  0  0  0  0  0  0  0  0  0
   37.8724   32.7126   49.6978 C   0  0  0  0  0  0  0  0  0  0  0  0
   38.6932   33.3173   48.7559 C   0  0  0  0  0  0  0  0  0  0  0  0
   39.0484   32.6678   47.6231 N   0  0  0  0  0  0  0  0  0  0  0  0
   38.6277   31.4032   47.3468 C   0  0  0  0  0  0  0  0  0  0  0  0
   37.8235   30.8024   48.2639 N   0  0  0  0  0  0  0  0  0  0  0  0
   36.5514   30.7394   50.3545 C   0  0  0  0  0  0  0  0  0  0  0  0
   36.4657   29.3205   50.4663 C   0  0  0  0  0  0  0  0  0  0  0  0
   37.3360   30.0379   51.4878 C   0  0  0  0  0  0  0  0  0  0  0  0
   38.9822   30.6695   46.1302 C   0  0  0  0  0  0  0  0  0  0  0  0
   41.0409   31.5882   45.0003 C   0  0  0  0  0  0  0  0  0  0  0  0
   40.4250   32.2842   44.1684 O   0  0  0  0  0  0  0  0  0  0  0  0
   40.4465   30.7657   46.0220 N   0  0  0  0  0  0  0  0  0  0  0  0
   37.5408   33.1527   50.6267 H   0  0  0  0  0  0  0  0  0  0  0  0
   39.0282   34.3205   48.9803 H   0  0  0  0  0  0  0  0  0  0  0  0
   35.7550   31.4117   50.7245 H   0  0  0  0  0  0  0  0  0  0  0  0
   37.0003   28.5840   49.8683 H   0  0  0  0  0  0  0  0  0  0  0  0
   35.5220   28.9018   50.9078 H   0  0  0  0  0  0  0  0  0  0  0  0
   38.4319   29.9711   51.4005 H   0  0  0  0  0  0  0  0  0  0  0  0
   36.9695   30.1980   52.5132 H   0  0  0  0  0  0  0  0  0  0  0  0
   38.7122   29.6191   46.2088 H   0  0  0  0  0  0  0  0  0  0  0  0
   38.5365   31.1399   45.2283 H   0  0  0  0  0  0  0  0  0  0  0  0
   40.8713   30.1596   46.7844 H   0  0  0  0  0  0  0  0  0  0  0  0
   43.7664   33.3285   46.0159 H   0  0  0  0  0  0  0  0  0  0  0  0
   43.0782   32.5321   45.7126 C   0  0  0  0  0  0  0  0  0  0  0  0
   42.5457   33.6864   45.7025 O   0  0  0  0  0  0  0  0  0  0  0  0
   42.3601   31.2778   45.3426 N   0  0  0  0  0  0  0  0  0  0  0  0
   43.3184   31.0540   45.5915 H   0  0  0  0  0  0  0  0  0  0  0  0
  1  2  2  0
  1  7  1  0
  3  2  1  0
  4  3  2  0
  5  4  1  0
  5  6  2  0
  6  1  1  0
  7  8  1  0
  7  9  1  0
  8  9  1  0
 10  5  1  0
 11 13  1  0
 12 11  2  0
 13 10  1  0
  2 14  1  0
  3 15  1  0
  7 16  1  0
  8 17  1  0
  8 18  1  0
  9 19  1  0
  9 20  1  0
 10 21  1  0
 10 22  1  0
 13 23  1  0
 24 25  1  0
 25 26  2  0
 25 27  1  0
 27 28  1  0
 11 27  1  0
M  ISO  8  14  14  15  14  16  13  17  13  18  13  19  13  20  13  21   8
M  ISO  2  22   8  24   1
M  END
>  <DihAtoms>  (1) 
12,10,26,24

>  <DihDeg>  (1) 
179.76852805607191

$$$$
