
     RDKit          3D

 28 29  0  0  0  0  0  0  0  0999 V2000
   36.1140   30.8680   49.2720 C   0  0  0  0  0  0  0  0  0  0  0  0
   36.6980   31.8640   50.0330 C   0  0  0  0  0  0  0  0  0  0  0  0
   37.7430   32.5370   49.4150 C   0  0  0  0  0  0  0  0  0  0  0  0
   38.1330   32.2150   48.1600 N   0  0  0  0  0  0  0  0  0  0  0  0
   37.5330   31.2260   47.4420 C   0  0  0  0  0  0  0  0  0  0  0  0
   36.5090   30.5600   48.0390 N   0  0  0  0  0  0  0  0  0  0  0  0
   34.9570   30.1260   49.8820 C   0  0  0  0  0  0  0  0  0  0  0  0
   34.7440   28.7290   49.6910 C   0  0  0  0  0  0  0  0  0  0  0  0
   35.4170   29.1500   50.9900 C   0  0  0  0  0  0  0  0  0  0  0  0
   37.9190   30.8530   46.0800 C   0  0  0  0  0  0  0  0  0  0  0  0
   38.6750   32.6790   44.5130 C   0  0  0  0  0  0  0  0  0  0  0  0
   37.6490   32.6660   43.8040 O   0  0  0  0  0  0  0  0  0  0  0  0
   38.9190   31.8500   45.6650 N   0  0  0  0  0  0  0  0  0  0  0  0
   40.9210   32.4480   45.1840 C   0  0  0  0  0  0  0  0  0  0  0  0
   40.6840   31.2590   45.5660 O   0  0  0  0  0  0  0  0  0  0  0  0
   39.8980   33.3530   44.5830 N   0  0  0  0  0  0  0  0  0  0  0  0
   36.3598   32.1049   51.0516 H   0  0  0  0  0  0  0  0  0  0  0  0
   38.2616   33.3439   49.9534 H   0  0  0  0  0  0  0  0  0  0  0  0
   34.2641   30.9698   49.7484 H   0  0  0  0  0  0  0  0  0  0  0  0
   33.7195   28.3294   49.7173 H   0  0  0  0  0  0  0  0  0  0  0  0
   35.0128   28.0229   48.8915 H   0  0  0  0  0  0  0  0  0  0  0  0
   36.4862   28.9542   51.1586 H   0  0  0  0  0  0  0  0  0  0  0  0
   35.2402   29.0157   52.0674 H   0  0  0  0  0  0  0  0  0  0  0  0
   38.3553   29.8433   46.0674 H   0  0  0  0  0  0  0  0  0  0  0  0
   37.0534   30.8378   45.4013 H   0  0  0  0  0  0  0  0  0  0  0  0
   39.7937   31.9548   46.1987 H   0  0  0  0  0  0  0  0  0  0  0  0
   41.9441   32.8339   45.3040 H   0  0  0  0  0  0  0  0  0  0  0  0
   40.0660   34.3197   44.2698 H   0  0  0  0  0  0  0  0  0  0  0  0
  1  7  1  0
  1  2  2  0
  3  2  1  0
  4  3  2  0
  5  6  2  0
  5  4  1  0
  6  1  1  0
  7  9  1  0
  8  7  1  0
  8  9  1  0
 10  5  1  0
 11 16  1  0
 11 13  1  0
 12 11  2  0
 13 10  1  0
 14 15  2  0
 16 14  1  0
  2 17  1  0
  3 18  1  0
  7 19  1  0
  8 20  1  0
  8 21  1  0
  9 22  1  0
  9 23  1  0
 10 24  1  0
 10 25  1  0
 13 26  1  0
 14 27  1  0
 16 28  1  0
M  ISO  8  17  14  18  14  19  13  20  13  21  13  22  13  23  13  24   8
M  ISO  2  25   8  27   6
M  END
>  <minimizedAffinity>  (1) 
-5.46417999

>  <minimizedRMSD>  (1) 
2.05607319

$$$$
