
     RDKit          3D

 17 17  0  0  0  0  0  0  0  0999 V2000
   37.3310   30.2910   50.0270 C   0  0  0  0  0  0  0  0  0  0  0  0
   38.3210   31.2780   50.0750 C   0  0  0  0  0  0  0  0  0  0  0  0
   38.5110   32.0620   48.9230 C   0  0  0  0  0  0  0  0  0  0  0  0
   37.7270   31.8190   47.8360 N   0  0  0  0  0  0  0  0  0  0  0  0
   36.7850   30.8560   47.8400 C   0  0  0  0  0  0  0  0  0  0  0  0
   36.5900   30.0960   48.9310 N   0  0  0  0  0  0  0  0  0  0  0  0
   34.6510   30.1000   47.0090 C   0  0  0  0  0  0  0  0  0  0  0  0
   34.1610   29.8630   48.1440 O   0  0  0  0  0  0  0  0  0  0  0  0
   35.9640   30.6040   46.6970 N   0  0  0  0  0  0  0  0  0  0  0  0
   37.1160   29.4490   51.2370 C   0  0  0  0  0  0  0  0  0  0  0  0
   35.7580   29.1910   51.3940 F   0  0  0  0  0  0  0  0  0  0  0  0
   37.8820   28.3330   51.1410 F   0  0  0  0  0  0  0  0  0  0  0  0
   37.4930   30.2180   52.3470 F   0  0  0  0  0  0  0  0  0  0  0  0
   38.9276   31.4349   50.9791 H   0  0  0  0  0  0  0  0  0  0  0  0
   39.2750   32.8531   48.9003 H   0  0  0  0  0  0  0  0  0  0  0  0
   33.9956   29.8972   46.1491 H   0  0  0  0  0  0  0  0  0  0  0  0
   36.2842   30.7689   45.7320 H   0  0  0  0  0  0  0  0  0  0  0  0
  1  2  2  0
  1 10  1  0
  3  2  1  0
  4  5  1  0
  4  3  2  0
  5  6  2  0
  6  1  1  0
  7  8  2  0
  9  7  1  0
  9  5  1  0
 10 11  1  0
 10 13  1  0
 12 10  1  0
  2 14  1  0
  3 15  1  0
  7 16  1  0
  9 17  1  0
M  ISO  3  14  14  15  14  16   6
M  END
>  <minimizedAffinity>  (1) 
-5.31719351

>  <minimizedRMSD>  (1) 
0.132781208

$$$$
