
     RDKit          3D

 38 40  0  0  1  0  0  0  0  0999 V2000
   32.1730   30.1800   46.0540 N   0  0  0  0  0  0  0  0  0  0  0  0
   33.2750   30.5080   46.9580 C   0  0  0  0  0  0  0  0  0  0  0  0
   34.4530   29.6490   46.8090 C   0  0  2  0  0  0  0  0  0  0  0  0
   34.1020   28.2510   46.6150 N   0  0  0  0  0  0  0  0  0  0  0  0
   33.1490   28.1050   45.5490 C   0  0  0  0  0  0  0  0  0  0  0  0
   31.9000   28.7820   46.0880 C   0  0  0  0  0  0  0  0  0  0  0  0
   37.0940   30.8750   46.2180 Cl  0  0  0  0  0  0  0  0  0  0  0  0
   36.5730   30.3850   47.8300 C   0  0  0  0  0  0  0  0  0  0  0  0
   35.3370   29.8080   47.9520 C   0  0  0  0  0  0  0  0  0  0  0  0
   34.7820   29.3680   49.1630 C   0  0  0  0  0  0  0  0  0  0  0  0
   35.5960   29.5520   50.2890 C   0  0  0  0  0  0  0  0  0  0  0  0
   36.8630   30.1390   50.1760 C   0  0  0  0  0  0  0  0  0  0  0  0
   37.3270   30.5440   48.9580 C   0  0  0  0  0  0  0  0  0  0  0  0
   38.5940   32.5380   49.0750 C   0  0  0  0  0  0  0  0  0  0  0  0
   37.5450   33.1560   49.4630 O   0  0  0  0  0  0  0  0  0  0  0  0
   38.6020   31.1480   48.7760 N   0  0  0  0  0  0  0  0  0  0  0  0
   31.4980   31.1610   45.2890 C   0  0  0  0  0  0  0  0  0  0  0  0
   31.9330   32.4770   45.2160 C   0  0  0  0  0  0  0  0  0  0  0  0
   31.2170   33.3870   44.4370 C   0  0  0  0  0  0  0  0  0  0  0  0
   30.1010   32.9210   43.7730 N   0  0  0  0  0  0  0  0  0  0  0  0
   29.7120   31.6250   43.8740 C   0  0  0  0  0  0  0  0  0  0  0  0
   30.3880   30.7650   44.6100 N   0  0  0  0  0  0  0  0  0  0  0  0
   33.5800   31.5474   46.7665 H   0  0  0  0  0  0  0  0  0  0  0  0
   32.9001   30.3541   47.9806 H   0  0  0  0  0  0  0  0  0  0  0  0
   34.9804   29.9696   45.8985 H   0  0  0  0  0  0  0  0  0  0  0  0
   34.9526   27.7188   46.3822 H   0  0  0  0  0  0  0  0  0  0  0  0
   32.9585   27.0428   45.3357 H   0  0  0  0  0  0  0  0  0  0  0  0
   33.4973   28.5439   44.6024 H   0  0  0  0  0  0  0  0  0  0  0  0
   31.7015   28.4551   47.1194 H   0  0  0  0  0  0  0  0  0  0  0  0
   31.0113   28.5276   45.4917 H   0  0  0  0  0  0  0  0  0  0  0  0
   33.7826   28.9126   49.2242 H   0  0  0  0  0  0  0  0  0  0  0  0
   35.2344   29.2305   51.2769 H   0  0  0  0  0  0  0  0  0  0  0  0
   37.4862   30.2740   51.0723 H   0  0  0  0  0  0  0  0  0  0  0  0
   39.5303   33.1053   48.9678 H   0  0  0  0  0  0  0  0  0  0  0  0
   39.4384   30.6352   48.4623 H   0  0  0  0  0  0  0  0  0  0  0  0
   32.8304   32.7985   45.7650 H   0  0  0  0  0  0  0  0  0  0  0  0
   31.5311   34.4380   44.3553 H   0  0  0  0  0  0  0  0  0  0  0  0
   28.8168   31.2859   43.3322 H   0  0  0  0  0  0  0  0  0  0  0  0
  1  6  1  0
  1  2  1  0
  3  2  1  0
  3  9  1  0
  4  3  1  0
  5  6  1  0
  5  4  1  0
  7  8  1  0
  8  9  2  0
  8 13  1  0
  9 10  1  0
 10 11  2  0
 12 11  1  0
 13 12  2  0
 14 15  2  0
 16 13  1  0
 16 14  1  0
 17  1  1  0
 18 17  2  0
 19 18  1  0
 20 21  1  0
 20 19  2  0
 21 22  2  0
 22 17  1  0
  2 23  1  0
  2 24  1  0
  3 25  1  6
  4 26  1  0
  5 27  1  0
  5 28  1  0
  6 29  1  0
  6 30  1  0
 10 31  1  0
 11 32  1  0
 12 33  1  0
 14 34  1  0
 16 35  1  0
 18 36  1  0
 19 37  1  0
 21 38  1  0
M  ISO  8  23  13  24  13  25  13  26   5  27  13  28  13  29  13  30  13
M  ISO  7  31  14  32  14  33  14  34   6  36  14  37  14  38  14
M  END
>  <minimizedAffinity>  (1) 
-5.46839762

>  <minimizedRMSD>  (1) 
2.49497437

$$$$
