
     RDKit          3D

 29 30  0  0  1  0  0  0  0  0999 V2000
   36.9830   30.0130   49.1880 C   0  0  0  0  0  0  0  0  0  0  0  0
   37.9410   30.6820   48.3910 C   0  0  0  0  0  0  0  0  0  0  0  0
   37.6160   30.9450   47.0460 C   0  0  0  0  0  0  0  0  0  0  0  0
   36.4110   30.5470   46.5890 N   0  0  0  0  0  0  0  0  0  0  0  0
   35.5090   29.9070   47.3780 C   0  0  0  0  0  0  0  0  0  0  0  0
   35.7970   29.6470   48.6550 N   0  0  0  0  0  0  0  0  0  0  0  0
   38.5310   31.5950   46.1950 N   0  0  0  0  0  0  0  0  0  0  0  0
   39.5340   32.5610   46.6700 C   0  0  0  0  0  0  0  0  0  0  0  0
   40.1730   33.1090   45.4190 C   0  0  0  0  0  0  0  0  0  0  0  0
   39.0740   32.8950   44.4390 C   0  0  0  0  0  0  0  0  0  0  0  0
   38.6940   31.4580   44.7920 C   0  0  1  0  0  0  0  0  0  0  0  0
   40.6550   30.4020   43.5170 C   0  0  0  0  0  0  0  0  0  0  0  0
   40.4990   31.0140   42.4590 O   0  0  0  0  0  0  0  0  0  0  0  0
   39.8390   30.5610   44.6660 N   0  0  0  0  0  0  0  0  0  0  0  0
   37.5580   30.9420   44.0180 C   0  0  0  0  0  0  0  0  0  0  0  0
   36.4380   31.7150   44.4050 F   0  0  0  0  0  0  0  0  0  0  0  0
   37.2150   29.6510   44.1960 F   0  0  0  0  0  0  0  0  0  0  0  0
   37.7450   31.3440   42.6990 F   0  0  0  0  0  0  0  0  0  0  0  0
   37.2039   29.7906   50.2424 H   0  0  0  0  0  0  0  0  0  0  0  0
   38.9113   30.9879   48.8093 H   0  0  0  0  0  0  0  0  0  0  0  0
   34.5372   29.6018   46.9626 H   0  0  0  0  0  0  0  0  0  0  0  0
   39.0529   33.3672   47.2432 H   0  0  0  0  0  0  0  0  0  0  0  0
   40.2715   32.0945   47.3397 H   0  0  0  0  0  0  0  0  0  0  0  0
   40.4223   34.1753   45.5236 H   0  0  0  0  0  0  0  0  0  0  0  0
   41.1287   32.6371   45.1472 H   0  0  0  0  0  0  0  0  0  0  0  0
   39.4276   32.9823   43.4010 H   0  0  0  0  0  0  0  0  0  0  0  0
   38.2510   33.6228   44.4937 H   0  0  0  0  0  0  0  0  0  0  0  0
   41.4849   29.6823   43.5743 H   0  0  0  0  0  0  0  0  0  0  0  0
   40.0766   29.9896   45.4894 H   0  0  0  0  0  0  0  0  0  0  0  0
  2  1  2  0
  3  2  1  0
  4  3  2  0
  4  5  1  0
  5  6  2  0
  6  1  1  0
  7  8  1  0
  7  3  1  0
  9  8  1  0
 10 11  1  0
 10  9  1  0
 11 15  1  0
 11  7  1  0
 12 14  1  0
 13 12  2  0
 11 14  1  1
 15 17  1  0
 15 16  1  0
 18 15  1  0
  1 19  1  0
  2 20  1  0
  5 21  1  0
  8 22  1  0
  8 23  1  0
  9 24  1  0
  9 25  1  0
 10 26  1  0
 10 27  1  0
 12 28  1  0
 14 29  1  0
M  ISO  8  19  14  20  14  21  14  22  13  23  13  24  13  25  13  26  13
M  ISO  2  27  13  28   6
M  END
>  <minimizedAffinity>  (1) 
-4.74710226

>  <minimizedRMSD>  (1) 
2.99610639

$$$$
