
     RDKit          3D

 17 17  0  0  0  0  0  0  0  0999 V2000
   36.8640   29.9970   49.7710 C   0  0  0  0  0  0  0  0  0  0  0  0
   38.0730   30.4720   49.2290 C   0  0  0  0  0  0  0  0  0  0  0  0
   38.0570   30.9290   47.9150 C   0  0  0  0  0  0  0  0  0  0  0  0
   36.8850   30.8910   47.2290 N   0  0  0  0  0  0  0  0  0  0  0  0
   35.7440   30.4280   47.7810 C   0  0  0  0  0  0  0  0  0  0  0  0
   35.7510   29.9860   49.0460 N   0  0  0  0  0  0  0  0  0  0  0  0
   39.1360   32.1670   46.0870 C   0  0  0  0  0  0  0  0  0  0  0  0
   37.9730   32.3490   45.6270 O   0  0  0  0  0  0  0  0  0  0  0  0
   39.2280   31.4260   47.2870 N   0  0  0  0  0  0  0  0  0  0  0  0
   36.8780   29.5040   51.1880 C   0  0  0  0  0  0  0  0  0  0  0  0
   35.5800   29.1820   51.5750 F   0  0  0  0  0  0  0  0  0  0  0  0
   37.7400   28.4540   51.2570 F   0  0  0  0  0  0  0  0  0  0  0  0
   37.2770   30.5550   51.9900 F   0  0  0  0  0  0  0  0  0  0  0  0
   38.9984   30.4816   49.8236 H   0  0  0  0  0  0  0  0  0  0  0  0
   34.8129   30.4135   47.1955 H   0  0  0  0  0  0  0  0  0  0  0  0
   40.0283   32.5638   45.5808 H   0  0  0  0  0  0  0  0  0  0  0  0
   40.1506   31.2458   47.7080 H   0  0  0  0  0  0  0  0  0  0  0  0
  1 10  1  0
  2  1  2  0
  3  2  1  0
  4  5  1  0
  4  3  2  0
  5  6  2  0
  6  1  1  0
  7  9  1  0
  8  7  2  0
  9  3  1  0
 10 12  1  0
 10 11  1  0
 10 13  1  0
  2 14  1  0
  5 15  1  0
  7 16  1  0
  9 17  1  0
M  ISO  3  14  14  15  14  16   6
M  END
>  <minimizedAffinity>  (1) 
-5.255476

>  <minimizedRMSD>  (1) 
1.41221619

$$$$
