
     RDKit          3D

 23 24  0  0  0  0  0  0  0  0999 V2000
   37.5194   30.4340   50.9196 C   0  0  0  0  0  0  0  0  0  0  0  0
   37.1862   31.0571   49.7030 C   0  0  0  0  0  0  0  0  0  0  0  0
   35.9579   30.7843   49.1299 C   0  0  0  0  0  0  0  0  0  0  0  0
   35.1374   29.9104   49.8000 N   0  0  0  0  0  0  0  0  0  0  0  0
   35.4792   29.3309   50.9571 C   0  0  0  0  0  0  0  0  0  0  0  0
   36.6620   29.5849   51.5221 N   0  0  0  0  0  0  0  0  0  0  0  0
   38.0723   31.9778   49.0145 C   0  0  0  0  0  0  0  0  0  0  0  0
   38.5432   33.1449   49.5669 C   0  0  0  0  0  0  0  0  0  0  0  0
   39.3864   34.0438   48.9425 C   0  0  0  0  0  0  0  0  0  0  0  0
   39.8001   33.7599   47.6536 C   0  0  0  0  0  0  0  0  0  0  0  0
   39.3228   32.5821   47.1006 C   0  0  0  0  0  0  0  0  0  0  0  0
   38.5081   31.7580   47.7641 N   0  0  0  0  0  0  0  0  0  0  0  0
   38.5011   30.7268   51.2639 H   0  0  0  0  0  0  0  0  0  0  0  0
   35.5882   31.1995   48.2003 H   0  0  0  0  0  0  0  0  0  0  0  0
   34.8193   28.6458   51.4691 H   0  0  0  0  0  0  0  0  0  0  0  0
   38.2467   33.4140   50.5797 H   0  0  0  0  0  0  0  0  0  0  0  0
   39.7179   34.9399   49.4326 H   0  0  0  0  0  0  0  0  0  0  0  0
   39.6581   32.3749   46.0870 H   0  0  0  0  0  0  0  0  0  0  0  0
   42.1932   35.3958   45.7225 H   0  0  0  0  0  0  0  0  0  0  0  0
   41.6746   34.4936   46.0366 C   0  0  0  0  0  0  0  0  0  0  0  0
   41.9626   33.3691   45.5526 O   0  0  0  0  0  0  0  0  0  0  0  0
   40.6682   34.6901   47.0172 N   0  0  0  0  0  0  0  0  0  0  0  0
   40.4124   35.6135   47.4327 H   0  0  0  0  0  0  0  0  0  0  0  0
  1  6  2  0
  2  1  1  0
  3  2  2  0
  3  4  1  0
  4  5  2  0
  5  6  1  0
  7  8  2  0
  7  2  1  0
  9  8  1  0
 10  9  2  0
 11 10  1  0
 11 12  2  0
 12  7  1  0
  1 13  1  0
  3 14  1  0
  5 15  1  0
  8 16  1  0
  9 17  1  0
 11 18  1  0
 19 20  1  0
 20 21  2  0
 20 22  1  0
 22 23  1  0
 10 22  1  0
M  ISO  7  13  14  14  14  15  14  16  14  17  14  18  14  19   1
M  END
>  <DihAtoms>  (1) 
8,9,21,19

>  <DihDeg>  (1) 
-90.0020471176177

$$$$
