
     RDKit          3D

 40 42  0  0  1  0  0  0  0  0999 V2000
   37.2840   29.3020   50.6070 C   0  0  0  0  0  0  0  0  0  0  0  0
   37.4430   30.6650   50.8810 C   0  0  0  0  0  0  0  0  0  0  0  0
   36.7040   31.5480   50.1010 C   0  0  0  0  0  0  0  0  0  0  0  0
   35.8940   31.0260   49.1430 N   0  0  0  0  0  0  0  0  0  0  0  0
   35.7740   29.7100   48.9160 C   0  0  0  0  0  0  0  0  0  0  0  0
   36.4670   28.8400   49.6460 N   0  0  0  0  0  0  0  0  0  0  0  0
   34.9070   29.2600   47.9000 N   0  0  0  0  0  0  0  0  0  0  0  0
   34.2560   27.9570   47.9710 C   0  0  0  0  0  0  0  0  0  0  0  0
   32.7850   28.1200   47.8200 C   0  0  0  0  0  0  0  0  0  0  0  0
   32.3310   29.3100   47.3090 N   0  0  0  0  0  0  0  0  0  0  0  0
   33.1810   30.1670   46.5180 C   0  0  0  0  0  0  0  0  0  0  0  0
   34.6120   30.0680   46.7240 C   0  0  2  0  0  0  0  0  0  0  0  0
   35.3430   29.5050   45.6170 N   0  0  0  0  0  0  0  0  0  0  0  0
   36.3980   30.3820   45.1590 C   0  0  0  0  0  0  0  0  0  0  0  0
   36.5170   30.1950   43.6610 C   0  0  0  0  0  0  0  0  0  0  0  0
   35.5840   29.0800   43.3730 C   0  0  0  0  0  0  0  0  0  0  0  0
   34.5340   29.1920   44.4930 C   0  0  1  0  0  0  0  0  0  0  0  0
   32.6500   27.6370   44.0540 C   0  0  0  0  0  0  0  0  0  0  0  0
   31.8280   28.5080   43.5710 O   0  0  0  0  0  0  0  0  0  0  0  0
   33.9590   27.8720   44.5180 N   0  0  0  0  0  0  0  0  0  0  0  0
   37.8538   28.5761   51.2056 H   0  0  0  0  0  0  0  0  0  0  0  0
   38.1184   31.0201   51.6733 H   0  0  0  0  0  0  0  0  0  0  0  0
   36.7731   32.6350   50.2548 H   0  0  0  0  0  0  0  0  0  0  0  0
   34.6370   27.3139   47.1639 H   0  0  0  0  0  0  0  0  0  0  0  0
   34.4722   27.4955   48.9458 H   0  0  0  0  0  0  0  0  0  0  0  0
   32.4307   27.3186   47.1549 H   0  0  0  0  0  0  0  0  0  0  0  0
   32.3912   28.0859   48.8465 H   0  0  0  0  0  0  0  0  0  0  0  0
   31.5193   29.0809   46.7178 H   0  0  0  0  0  0  0  0  0  0  0  0
   32.8892   31.2062   46.7300 H   0  0  0  0  0  0  0  0  0  0  0  0
   33.0246   29.8352   45.4810 H   0  0  0  0  0  0  0  0  0  0  0  0
   34.9421   31.1101   46.8466 H   0  0  0  0  0  0  0  0  0  0  0  0
   36.1456   31.4276   45.3894 H   0  0  0  0  0  0  0  0  0  0  0  0
   37.3484   30.1438   45.6590 H   0  0  0  0  0  0  0  0  0  0  0  0
   36.2151   31.1076   43.1262 H   0  0  0  0  0  0  0  0  0  0  0  0
   37.5470   29.9845   43.3373 H   0  0  0  0  0  0  0  0  0  0  0  0
   35.1185   29.2023   42.3839 H   0  0  0  0  0  0  0  0  0  0  0  0
   36.0823   28.0996   43.3492 H   0  0  0  0  0  0  0  0  0  0  0  0
   33.7192   29.9269   44.4152 H   0  0  0  0  0  0  0  0  0  0  0  0
   32.2889   26.5994   44.1090 H   0  0  0  0  0  0  0  0  0  0  0  0
   34.5152   27.0852   44.8819 H   0  0  0  0  0  0  0  0  0  0  0  0
  1  2  2  0
  3  2  1  0
  4  3  2  0
  5  4  1  0
  5  6  2  0
  6  1  1  0
  7  8  1  0
  7  5  1  0
  9  8  1  0
 10  9  1  0
 11 12  1  0
 11 10  1  0
 12  7  1  0
 13 14  1  0
 13 12  1  0
 15 14  1  0
 16 15  1  0
 16 17  1  0
 17 20  1  0
 17 13  1  0
 18 20  1  0
 19 18  2  0
  1 21  1  0
  2 22  1  0
  3 23  1  0
  8 24  1  0
  8 25  1  0
  9 26  1  0
  9 27  1  0
 10 28  1  0
 11 29  1  0
 11 30  1  0
 12 31  1  1
 14 32  1  0
 14 33  1  0
 15 34  1  0
 15 35  1  0
 16 36  1  0
 16 37  1  0
 17 38  1  6
 18 39  1  0
 20 40  1  0
M  ISO  8  21  14  22  14  23  14  24  13  25  13  26  13  27  13  28   5
M  ISO  8  29  13  30  13  31  13  32  13  33  13  34  13  35  13  36  13
M  ISO  3  37  13  38  13  39   6
M  END
>  <minimizedAffinity>  (1) 
-4.50466299

>  <minimizedRMSD>  (1) 
0.899677038

$$$$
