
     RDKit          3D

 23 24  0  0  0  0  0  0  0  0999 V2000
   35.9700   30.3150   48.6080 C   0  0  0  0  0  0  0  0  0  0  0  0
   36.0450   29.2770   49.5000 C   0  0  0  0  0  0  0  0  0  0  0  0
   35.0620   28.3140   49.5790 C   0  0  0  0  0  0  0  0  0  0  0  0
   34.0040   28.4540   48.7130 C   0  0  0  0  0  0  0  0  0  0  0  0
   33.8990   29.4920   47.8000 C   0  0  0  0  0  0  0  0  0  0  0  0
   34.9110   30.4130   47.7760 N   0  0  0  0  0  0  0  0  0  0  0  0
   33.1930   30.0660   45.5410 C   0  0  0  0  0  0  0  0  0  0  0  0
   34.3970   30.1820   45.1390 O   0  0  0  0  0  0  0  0  0  0  0  0
   32.8660   29.7180   46.8820 N   0  0  0  0  0  0  0  0  0  0  0  0
   38.1370   33.1140   49.5290 C   0  0  0  0  0  0  0  0  0  0  0  0
   39.0120   33.2240   48.4450 C   0  0  0  0  0  0  0  0  0  0  0  0
   38.8420   32.3220   47.4000 C   0  0  0  0  0  0  0  0  0  0  0  0
   37.8420   31.3930   47.4920 N   0  0  0  0  0  0  0  0  0  0  0  0
   37.0250   31.3200   48.5470 C   0  0  0  0  0  0  0  0  0  0  0  0
   37.1790   32.1800   49.5530 N   0  0  0  0  0  0  0  0  0  0  0  0
   36.9138   29.2107   50.1714 H   0  0  0  0  0  0  0  0  0  0  0  0
   35.1210   27.4807   50.2946 H   0  0  0  0  0  0  0  0  0  0  0  0
   33.1997   27.7044   48.7460 H   0  0  0  0  0  0  0  0  0  0  0  0
   32.3764   30.2413   44.8252 H   0  0  0  0  0  0  0  0  0  0  0  0
   31.8817   29.6335   47.1735 H   0  0  0  0  0  0  0  0  0  0  0  0
   38.2375   33.8071   50.3772 H   0  0  0  0  0  0  0  0  0  0  0  0
   39.8007   33.9904   48.4193 H   0  0  0  0  0  0  0  0  0  0  0  0
   39.4981   32.3549   46.5177 H   0  0  0  0  0  0  0  0  0  0  0  0
  1  2  2  0
  2  3  1  0
  4  3  2  0
  5  4  1  0
  6  5  2  0
  6  1  1  0
  7  9  1  0
  8  7  2  0
  9  5  1  0
 10 15  2  0
 11 10  1  0
 12 13  1  0
 12 11  2  0
 13 14  2  0
 14  1  1  0
 14 15  1  0
  2 16  1  0
  3 17  1  0
  4 18  1  0
  7 19  1  0
  9 20  1  0
 10 21  1  0
 11 22  1  0
 12 23  1  0
M  ISO  7  16  14  17  14  18  14  19   6  21  14  22  14  23  14
M  END
>  <minimizedAffinity>  (1) 
-5.30042076

>  <minimizedRMSD>  (1) 
0.259285241

$$$$
