
     RDKit          3D

 30 31  0  0  0  0  0  0  0  0999 V2000
   38.9320   30.5130   45.6290 O   0  0  0  0  0  0  0  0  0  0  0  0
   36.6240   29.5970   44.0920 Cl  0  0  0  0  0  0  0  0  0  0  0  0
   38.2650   29.9460   43.5090 C   0  0  0  0  0  0  0  0  0  0  0  0
   39.3060   30.3800   44.3220 C   0  0  0  0  0  0  0  0  0  0  0  0
   40.5260   30.6110   43.7260 C   0  0  0  0  0  0  0  0  0  0  0  0
   40.7060   30.4200   42.3810 C   0  0  0  0  0  0  0  0  0  0  0  0
   39.6900   29.9910   41.5650 C   0  0  0  0  0  0  0  0  0  0  0  0
   38.4660   29.7540   42.1320 C   0  0  0  0  0  0  0  0  0  0  0  0
   36.4380   30.0170   40.5230 C   0  0  0  0  0  0  0  0  0  0  0  0
   36.3480   31.2790   40.4550 O   0  0  0  0  0  0  0  0  0  0  0  0
   37.4050   29.3080   41.2900 N   0  0  0  0  0  0  0  0  0  0  0  0
   39.4760   32.5140   47.1670 O   0  0  0  0  0  0  0  0  0  0  0  0
   38.3520   31.8490   46.4400 P   0  0  1  0  0  0  0  0  0  0  0  0
   37.7780   32.9050   45.2190 O   0  0  0  0  0  0  0  0  0  0  0  0
   37.0640   31.4010   47.4390 O   0  0  0  0  0  0  0  0  0  0  0  0
   37.6060   30.5300   50.9830 C   0  0  0  0  0  0  0  0  0  0  0  0
   37.7150   31.2960   49.8220 C   0  0  0  0  0  0  0  0  0  0  0  0
   37.0970   30.8420   48.6610 C   0  0  0  0  0  0  0  0  0  0  0  0
   36.4080   29.6540   48.7240 N   0  0  0  0  0  0  0  0  0  0  0  0
   36.3300   28.9480   49.8680 C   0  0  0  0  0  0  0  0  0  0  0  0
   36.9320   29.3930   50.9930 N   0  0  0  0  0  0  0  0  0  0  0  0
   41.3710   30.9549   44.3406 H   0  0  0  0  0  0  0  0  0  0  0  0
   41.6953   30.6167   41.9422 H   0  0  0  0  0  0  0  0  0  0  0  0
   39.8535   29.8418   40.4875 H   0  0  0  0  0  0  0  0  0  0  0  0
   35.7136   29.4241   39.9453 H   0  0  0  0  0  0  0  0  0  0  0  0
   37.3233   28.2833   41.2248 H   0  0  0  0  0  0  0  0  0  0  0  0
   37.3498   33.6928   45.6386 H   0  0  0  0  0  0  0  0  0  0  0  0
   38.0900   30.8788   51.9072 H   0  0  0  0  0  0  0  0  0  0  0  0
   38.2786   32.2406   49.8245 H   0  0  0  0  0  0  0  0  0  0  0  0
   35.7713   28.0006   49.8869 H   0  0  0  0  0  0  0  0  0  0  0  0
  1 13  1  0
  3  2  1  0
  3  4  2  0
  4  1  1  0
  5  4  1  0
  6  5  2  0
  7  8  2  0
  7  6  1  0
  8  3  1  0
  9 11  1  0
 10  9  2  0
 11  8  1  0
 13 12  2  0
 13 15  1  0
 14 13  1  0
 15 18  1  0
 16 21  2  0
 17 16  1  0
 18 19  1  0
 18 17  2  0
 19 20  2  0
 20 21  1  0
  5 22  1  0
  6 23  1  0
  7 24  1  0
  9 25  1  0
 11 26  1  0
 14 27  1  0
 16 28  1  0
 17 29  1  0
 20 30  1  0
M  ISO  8  22  14  23  14  24  14  25   6  27   3  28  14  29  14  30  14
M  END
>  <minimizedAffinity>  (1) 
-4.79418516

>  <minimizedRMSD>  (1) 
0.111878701

$$$$
