
     RDKit          3D

 42 44  0  0  0  0  0  0  0  0999 V2000
   36.0776   30.6887   49.0682 C   0  0  2  0  0  0  0  0  0  0  0  0
   37.0123   31.6413   49.7441 C   0  0  0  0  0  0  0  0  0  0  0  0
   38.0442   30.9479   50.6068 C   0  0  0  0  0  0  0  0  0  0  0  0
   37.3752   30.0519   51.6431 C   0  0  0  0  0  0  0  0  0  0  0  0
   36.1231   29.3733   51.1498 C   0  0  0  0  0  0  0  0  0  0  0  0
   36.1957   29.3025   49.6132 C   0  0  1  0  0  0  0  0  0  0  0  0
   36.3184   30.6469   47.6030 C   0  0  0  0  0  0  0  0  0  0  0  0
   37.5605   31.1265   47.1776 C   0  0  0  0  0  0  0  0  0  0  0  0
   37.8211   31.0979   45.8043 C   0  0  0  0  0  0  0  0  0  0  0  0
   36.8494   30.6030   44.9616 N   0  0  0  0  0  0  0  0  0  0  0  0
   35.6473   30.1434   45.4274 C   0  0  0  0  0  0  0  0  0  0  0  0
   35.4024   30.1742   46.7466 N   0  0  0  0  0  0  0  0  0  0  0  0
   33.9422   28.1900   49.2625 C   0  0  0  0  0  0  0  0  0  0  0  0
   33.1066   28.8997   49.9015 O   0  0  0  0  0  0  0  0  0  0  0  0
   35.3318   28.3497   49.0182 N   0  0  0  0  0  0  0  0  0  0  0  0
   34.9845   30.9761   49.1728 H   0  0  0  0  0  0  0  0  0  0  0  0
   36.3568   32.1933   50.5013 H   0  0  0  0  0  0  0  0  0  0  0  0
   37.4451   32.4177   49.1442 H   0  0  0  0  0  0  0  0  0  0  0  0
   38.5828   31.7358   51.1618 H   0  0  0  0  0  0  0  0  0  0  0  0
   38.7503   30.3311   50.0482 H   0  0  0  0  0  0  0  0  0  0  0  0
   37.1713   30.6189   52.5827 H   0  0  0  0  0  0  0  0  0  0  0  0
   38.0785   29.2402   51.9240 H   0  0  0  0  0  0  0  0  0  0  0  0
   36.0691   28.3105   51.4903 H   0  0  0  0  0  0  0  0  0  0  0  0
   35.1957   29.8597   51.4804 H   0  0  0  0  0  0  0  0  0  0  0  0
   37.1778   28.9192   49.4860 H   0  0  0  0  0  0  0  0  0  0  0  0
   38.4062   31.5257   47.7033 H   0  0  0  0  0  0  0  0  0  0  0  0
   38.7205   31.4288   45.3251 H   0  0  0  0  0  0  0  0  0  0  0  0
   34.9876   29.7880   44.6683 H   0  0  0  0  0  0  0  0  0  0  0  0
   35.7143   27.6537   48.2981 H   0  0  0  0  0  0  0  0  0  0  0  0
   33.2796   27.0408   48.7239 N   0  0  0  0  0  0  0  0  0  0  0  0
   33.0346   25.7098   49.2235 C   0  0  0  0  0  0  0  0  0  0  0  0
   31.5708   25.4002   49.0325 C   0  0  0  0  0  0  0  0  0  0  0  0
   31.2592   26.2098   47.7945 C   0  0  0  0  0  0  0  0  0  0  0  0
   32.6041   26.7765   47.4747 C   0  0  1  0  0  0  0  0  0  0  0  0
   32.5599   27.7357   46.9222 H   0  0  0  0  0  0  0  0  0  0  0  0
   33.3168   25.5984   50.2756 H   0  0  0  0  0  0  0  0  0  0  0  0
   33.5963   24.9641   48.6249 H   0  0  0  0  0  0  0  0  0  0  0  0
   31.3859   24.3196   48.8700 H   0  0  0  0  0  0  0  0  0  0  0  0
   30.9502   25.7969   49.8623 H   0  0  0  0  0  0  0  0  0  0  0  0
   30.5529   27.0496   47.9801 H   0  0  0  0  0  0  0  0  0  0  0  0
   30.9201   25.5779   46.9503 H   0  0  0  0  0  0  0  0  0  0  0  0
   33.2394   26.0740   46.8896 H   0  0  0  0  0  0  0  0  0  0  0  0
  1  6  1  0
  1  2  1  0
  2  3  1  0
  3  4  1  0
  5  4  1  0
  6  5  1  0
  7  1  1  0
  8  7  2  0
  9  8  1  0
 10 11  1  0
 10  9  2  0
 11 12  2  0
 12  7  1  0
 13 14  2  0
 15 13  1  0
 15  6  1  0
  1 16  1  6
  2 17  1  0
  2 18  1  0
  3 19  1  0
  3 20  1  0
  4 21  1  0
  4 22  1  0
  5 23  1  0
  5 24  1  0
  6 25  1  1
  8 26  1  0
  9 27  1  0
 11 28  1  0
 15 29  1  0
 30 31  1  0
 31 32  1  0
 32 33  1  0
 33 34  1  0
 34 35  1  6
 34 30  1  0
 31 36  1  0
 31 37  1  0
 32 38  1  0
 32 39  1  0
 33 40  1  0
 33 41  1  0
 34 42  1  0
 13 30  1  0
M  ISO  8  16  13  17  13  18  13  19  13  20  13  21  13  22  13  23  13
M  ISO  6  24  13  25  13  26  14  27  14  28  14  35  13
M  END
>  <DihAtoms>  (1) 
13,12,29,30

>  <DihDeg>  (1) 
-179.9956443779863

$$$$
