
     RDKit          3D

 42 43  0  0  0  0  0  0  0  0999 V2000
   33.8125   27.9487   49.9747 O   0  0  0  0  0  0  0  0  0  0  0  0
   33.8284   29.2581   48.8618 P   0  0  0  0  0  0  0  0  0  0  0  0
   33.6301   30.3698   46.4773 O   0  0  0  0  0  0  0  0  0  0  0  0
   35.4353   29.8800   48.7094 O   0  0  0  0  0  0  0  0  0  0  0  0
   37.1818   29.0906   51.7766 C   0  0  0  0  0  0  0  0  0  0  0  0
   38.4174   29.6594   51.4592 C   0  0  0  0  0  0  0  0  0  0  0  0
   38.6524   30.2876   50.2514 C   0  0  0  0  0  0  0  0  0  0  0  0
   37.6201   30.3292   49.3762 N   0  0  0  0  0  0  0  0  0  0  0  0
   36.4207   29.7885   49.6590 C   0  0  0  0  0  0  0  0  0  0  0  0
   36.2020   29.1715   50.8544 N   0  0  0  0  0  0  0  0  0  0  0  0
   33.0833   28.8069   47.3927 O   0  0  0  0  0  0  0  0  0  0  0  0
   32.0773   30.1613   45.6723 C   0  0  2  0  0  0  0  0  0  0  0  0
   33.3680   29.6305   46.3139 C   0  0  2  0  0  0  0  0  0  0  0  0
   33.8245   28.8262   45.1101 C   0  0  0  0  0  0  0  0  0  0  0  0
   32.6855   28.1057   44.7624 O   0  0  0  0  0  0  0  0  0  0  0  0
   31.5742   28.8316   45.1266 C   0  0  0  0  0  0  0  0  0  0  0  0
   32.4676   30.9065   44.5941 O   0  0  0  0  0  0  0  0  0  0  0  0
   32.9108   27.8149   50.3765 H   0  0  0  0  0  0  0  0  0  0  0  0
   34.3279   30.5928   47.1285 H   0  0  0  0  0  0  0  0  0  0  0  0
   33.3470   31.1781   45.9927 H   0  0  0  0  0  0  0  0  0  0  0  0
   37.1009   28.6228   52.7473 H   0  0  0  0  0  0  0  0  0  0  0  0
   39.2236   29.6070   52.1866 H   0  0  0  0  0  0  0  0  0  0  0  0
   39.6117   30.7265   50.0111 H   0  0  0  0  0  0  0  0  0  0  0  0
   31.4000   30.6285   46.3708 H   0  0  0  0  0  0  0  0  0  0  0  0
   34.0346   30.4442   46.5947 H   0  0  0  0  0  0  0  0  0  0  0  0
   34.0027   29.5642   44.3028 H   0  0  0  0  0  0  0  0  0  0  0  0
   34.6813   28.1719   45.3345 H   0  0  0  0  0  0  0  0  0  0  0  0
   30.9083   28.9584   44.2477 H   0  0  0  0  0  0  0  0  0  0  0  0
   30.9595   28.3632   45.9224 H   0  0  0  0  0  0  0  0  0  0  0  0
   30.9042   31.4887   42.8991 H   0  0  0  0  0  0  0  0  0  0  0  0
   31.4172   32.3610   43.1836 N   0  0  0  0  0  0  0  0  0  0  0  0
   30.4575   33.4220   43.2902 C   0  0  0  0  0  0  0  0  0  0  0  0
   29.8179   33.2710   44.6370 C   0  0  0  0  0  0  0  0  0  0  0  0
   30.6614   32.2434   45.3544 C   0  0  0  0  0  0  0  0  0  0  0  0
   31.9404   32.1865   44.5271 C   0  0  1  0  0  0  0  0  0  0  0  0
   31.0109   34.3872   43.2318 H   0  0  0  0  0  0  0  0  0  0  0  0
   29.6799   33.3968   42.4973 H   0  0  0  0  0  0  0  0  0  0  0  0
   29.8483   34.2403   45.1658 H   0  0  0  0  0  0  0  0  0  0  0  0
   28.7705   32.8966   44.5821 H   0  0  0  0  0  0  0  0  0  0  0  0
   30.1772   31.2634   45.3224 H   0  0  0  0  0  0  0  0  0  0  0  0
   30.8705   32.6095   46.3787 H   0  0  0  0  0  0  0  0  0  0  0  0
   32.6369   32.9865   44.7861 H   0  0  0  0  0  0  0  0  0  0  0  0
  2  1  1  0
  2  4  1  0
  4  9  1  0
  6  5  2  0
  7  6  1  0
  8  7  2  0
  8  9  1  0
  9 10  2  0
 10  5  1  0
 11  2  1  0
 12 17  1  0
 12 13  1  0
 13 11  1  0
 14 13  1  0
 15 16  1  0
 15 14  1  0
 16 12  1  0
  1 18  1  0
  3 19  1  0
  3 20  1  0
  5 21  1  0
  6 22  1  0
  7 23  1  0
 12 24  1  1
 13 25  1  1
 14 26  1  0
 14 27  1  0
 16 28  1  0
 16 29  1  0
 30 31  1  0
 31 32  1  0
 32 33  1  0
 33 34  1  0
 34 35  1  0
 35 31  1  0
 32 36  1  0
 32 37  1  0
 33 38  1  0
 33 39  1  0
 34 40  1  0
 34 41  1  0
 35 42  1  1
 17 35  1  0
M  ISO  8  18   3  19   3  20   3  21  14  22  14  23  14  24  13  25  13
M  ISO  5  26  13  27  13  28  13  29  13  30   5
M  END
>  <DihAtoms>  (1) 
11,16,34,33

>  <DihDeg>  (1) 
-127.18229497300311

$$$$
