
     RDKit          3D

 48 52  0  0  0  0  0  0  0  0999 V2000
   35.8468   28.9113   49.3761 C   0  0  0  0  0  0  0  0  0  0  0  0
   35.8635   30.0837   48.5880 C   0  0  0  0  0  0  0  0  0  0  0  0
   34.7739   30.3168   47.6986 C   0  0  0  0  0  0  0  0  0  0  0  0
   33.7654   29.4076   47.6348 N   0  0  0  0  0  0  0  0  0  0  0  0
   33.8068   28.2982   48.4136 C   0  0  0  0  0  0  0  0  0  0  0  0
   34.8211   28.0455   49.2718 N   0  0  0  0  0  0  0  0  0  0  0  0
   32.7326   27.3413   48.2810 N   0  0  0  0  0  0  0  0  0  0  0  0
   31.3568   27.6362   48.5418 C   0  0  0  0  0  0  0  0  0  0  0  0
   30.6087   26.4568   48.0006 C   0  0  0  0  0  0  0  0  0  0  0  0
   31.6076   25.6059   47.2379 C   0  0  0  0  0  0  0  0  0  0  0  0
   32.9018   25.9387   47.8595 C   0  0  0  0  0  0  0  0  0  0  0  0
   36.8464   31.1063   48.5446 C   0  0  0  0  0  0  0  0  0  0  0  0
   36.7959   32.0046   49.5664 N   0  0  0  0  0  0  0  0  0  0  0  0
   37.6712   33.0207   49.6050 C   0  0  0  0  0  0  0  0  0  0  0  0
   38.6462   33.2366   48.6681 N   0  0  0  0  0  0  0  0  0  0  0  0
   38.7221   32.3616   47.6413 C   0  0  0  0  0  0  0  0  0  0  0  0
   39.6645   32.4764   46.6285 C   0  0  0  0  0  0  0  0  0  0  0  0
   39.7171   31.5660   45.5870 C   0  0  0  0  0  0  0  0  0  0  0  0
   38.7968   30.5071   45.5613 C   0  0  0  0  0  0  0  0  0  0  0  0
   37.8701   30.4305   46.5972 C   0  0  0  0  0  0  0  0  0  0  0  0
   37.8257   31.3341   47.6169 C   0  0  0  0  0  0  0  0  0  0  0  0
   36.7022   28.8082   50.0257 H   0  0  0  0  0  0  0  0  0  0  0  0
   34.6987   31.1773   47.0672 H   0  0  0  0  0  0  0  0  0  0  0  0
   31.0130   28.6076   48.1565 H   0  0  0  0  0  0  0  0  0  0  0  0
   31.1655   27.6733   49.6515 H   0  0  0  0  0  0  0  0  0  0  0  0
   29.8938   26.8382   47.2286 H   0  0  0  0  0  0  0  0  0  0  0  0
   30.0587   25.8954   48.7632 H   0  0  0  0  0  0  0  0  0  0  0  0
   31.5951   25.8189   46.1521 H   0  0  0  0  0  0  0  0  0  0  0  0
   31.3736   24.5381   47.3780 H   0  0  0  0  0  0  0  0  0  0  0  0
   33.8033   25.8162   47.2333 H   0  0  0  0  0  0  0  0  0  0  0  0
   33.0497   25.3472   48.7860 H   0  0  0  0  0  0  0  0  0  0  0  0
   37.6234   33.7400   50.4322 H   0  0  0  0  0  0  0  0  0  0  0  0
   40.3220   33.3237   46.7472 H   0  0  0  0  0  0  0  0  0  0  0  0
   40.4875   31.7868   44.8914 H   0  0  0  0  0  0  0  0  0  0  0  0
   39.0099   29.9299   44.6846 H   0  0  0  0  0  0  0  0  0  0  0  0
   37.1873   29.2289   46.2625 N   0  0  0  0  0  0  0  0  0  0  0  0
   37.0950   28.1002   45.3502 C   0  0  0  0  0  0  0  0  0  0  0  0
   35.7308   28.2522   44.6778 C   0  0  0  0  0  0  0  0  0  0  0  0
   34.9289   28.6760   45.9081 C   0  0  0  0  0  0  0  0  0  0  0  0
   35.9731   28.7709   47.0002 C   0  0  1  0  0  0  0  0  0  0  0  0
   36.1530   27.7958   47.4786 H   0  0  0  0  0  0  0  0  0  0  0  0
   37.0788   27.1700   45.9310 H   0  0  0  0  0  0  0  0  0  0  0  0
   37.9024   28.0784   44.5903 H   0  0  0  0  0  0  0  0  0  0  0  0
   35.7646   29.0194   43.8994 H   0  0  0  0  0  0  0  0  0  0  0  0
   35.4302   27.2428   44.3379 H   0  0  0  0  0  0  0  0  0  0  0  0
   34.2511   27.8373   46.1658 H   0  0  0  0  0  0  0  0  0  0  0  0
   34.3349   29.5745   45.7590 H   0  0  0  0  0  0  0  0  0  0  0  0
   35.6392   29.4827   47.7429 H   0  0  0  0  0  0  0  0  0  0  0  0
  2  1  2  0
  3  2  1  0
  4  3  2  0
  4  5  1  0
  5  6  2  0
  6  1  1  0
  7  5  1  0
  7  8  1  0
  9  8  1  0
 10 11  1  0
 10  9  1  0
 11  7  1  0
 12  2  1  0
 12 13  2  0
 13 14  1  0
 15 14  2  0
 16 15  1  0
 17 16  2  0
 18 17  1  0
 19 18  2  0
 19 20  1  0
 20 21  2  0
 21 16  1  0
 21 12  1  0
  1 22  1  0
  3 23  1  0
  8 24  1  0
  8 25  1  0
  9 26  1  0
  9 27  1  0
 10 28  1  0
 10 29  1  0
 11 30  1  0
 11 31  1  0
 14 32  1  0
 17 33  1  0
 18 34  1  0
 19 35  1  0
 36 37  1  0
 37 38  1  0
 38 39  1  0
 39 40  1  0
 40 41  1  1
 40 36  1  0
 37 42  1  0
 37 43  1  0
 38 44  1  0
 38 45  1  0
 39 46  1  0
 39 47  1  0
 40 48  1  0
 20 36  1  0
M  ISO  8  22  14  23  14  24  13  25  13  26  13  27  13  28  13  29  13
M  ISO  7  30  13  31  13  32  14  33  14  34  14  35  14  41  13
M  END
>  <DihAtoms>  (1) 
18,19,35,36

>  <DihDeg>  (1) 
107.3161378330101

$$$$
