
     RDKit          3D

 45 47  0  0  0  0  0  0  0  0999 V2000
   35.4748   30.3424   47.7097 C   0  0  0  0  0  0  0  0  0  0  0  0
   32.8637   27.9113   48.8275 C   0  0  0  0  0  0  0  0  0  0  0  0
   34.0161   28.6978   48.8372 C   0  0  0  0  0  0  0  0  0  0  0  0
   34.2922   29.4905   47.7626 C   0  0  0  0  0  0  0  0  0  0  0  0
   33.4191   29.4869   46.7008 N   0  0  0  0  0  0  0  0  0  0  0  0
   32.3254   28.7249   46.7201 C   0  0  0  0  0  0  0  0  0  0  0  0
   32.0180   27.9271   47.7644 N   0  0  0  0  0  0  0  0  0  0  0  0
   36.5760   29.8642   48.6136 C   0  0  0  0  0  0  0  0  0  0  0  0
   37.1994   31.2476   49.5907 S   0  0  0  0  0  0  0  0  0  0  0  0
   38.4915   32.1589   48.7956 C   0  0  2  0  0  0  0  0  0  0  0  0
   38.8247   33.4184   49.5446 C   0  0  0  0  0  0  0  0  0  0  0  0
   39.5137   34.3567   48.6058 C   0  0  0  0  0  0  0  0  0  0  0  0
   40.3138   33.6357   47.5586 C   0  0  0  0  0  0  0  0  0  0  0  0
   39.5095   32.7517   46.6668 C   0  0  0  0  0  0  0  0  0  0  0  0
   38.1481   32.4919   47.3749 C   0  0  2  0  0  0  0  0  0  0  0  0
   35.1230   31.3213   48.1021 H   0  0  0  0  0  0  0  0  0  0  0  0
   35.7505   30.3982   46.6359 H   0  0  0  0  0  0  0  0  0  0  0  0
   32.5882   27.2621   49.6463 H   0  0  0  0  0  0  0  0  0  0  0  0
   34.5847   28.5895   49.7450 H   0  0  0  0  0  0  0  0  0  0  0  0
   31.7083   28.8038   45.8250 H   0  0  0  0  0  0  0  0  0  0  0  0
   37.4356   29.6200   47.9025 H   0  0  0  0  0  0  0  0  0  0  0  0
   36.4121   28.9432   49.1512 H   0  0  0  0  0  0  0  0  0  0  0  0
   39.4050   31.5276   48.7600 H   0  0  0  0  0  0  0  0  0  0  0  0
   39.5197   33.1236   50.3592 H   0  0  0  0  0  0  0  0  0  0  0  0
   37.9474   33.8657   50.0470 H   0  0  0  0  0  0  0  0  0  0  0  0
   38.9061   35.1832   48.2059 H   0  0  0  0  0  0  0  0  0  0  0  0
   40.2947   34.8980   49.2258 H   0  0  0  0  0  0  0  0  0  0  0  0
   40.9806   34.3220   47.0076 H   0  0  0  0  0  0  0  0  0  0  0  0
   41.0210   32.9735   48.1381 H   0  0  0  0  0  0  0  0  0  0  0  0
   39.3961   33.2011   45.6925 H   0  0  0  0  0  0  0  0  0  0  0  0
   40.0266   31.7604   46.5375 H   0  0  0  0  0  0  0  0  0  0  0  0
   37.7633   31.6061   46.8827 H   0  0  0  0  0  0  0  0  0  0  0  0
   37.4509   33.6873   47.1165 N   0  0  0  0  0  0  0  0  0  0  0  0
   37.9861   34.9520   47.2941 C   0  0  0  0  0  0  0  0  0  0  0  0
   37.1538   35.5387   48.4488 C   0  0  0  0  0  0  0  0  0  0  0  0
   35.8087   34.9388   48.2095 C   0  0  0  0  0  0  0  0  0  0  0  0
   36.1231   33.5870   47.6323 C   0  0  1  0  0  0  0  0  0  0  0  0
   35.3548   33.4160   46.8458 H   0  0  0  0  0  0  0  0  0  0  0  0
   37.7725   35.6829   46.4522 H   0  0  0  0  0  0  0  0  0  0  0  0
   39.0176   35.1114   47.5513 H   0  0  0  0  0  0  0  0  0  0  0  0
   37.0847   36.6310   48.3954 H   0  0  0  0  0  0  0  0  0  0  0  0
   37.5490   35.2779   49.4327 H   0  0  0  0  0  0  0  0  0  0  0  0
   35.2755   35.5937   47.4844 H   0  0  0  0  0  0  0  0  0  0  0  0
   35.2366   34.8504   49.1568 H   0  0  0  0  0  0  0  0  0  0  0  0
   36.0349   32.8661   48.4779 H   0  0  0  0  0  0  0  0  0  0  0  0
  1  4  1  0
  1  8  1  0
  2  3  2  0
  4  3  1  0
  5  6  1  0
  5  4  2  0
  6  7  2  0
  7  2  1  0
  8  9  1  0
 10 11  1  0
 10  9  1  0
 12 11  1  0
 13 12  1  0
 14 15  1  0
 14 13  1  0
 15 10  1  0
  1 16  1  0
  1 17  1  0
  2 18  1  0
  3 19  1  0
  6 20  1  0
  8 21  1  0
  8 22  1  0
 10 23  1  6
 11 24  1  0
 11 25  1  0
 12 26  1  0
 12 27  1  0
 13 28  1  0
 13 29  1  0
 14 30  1  0
 14 31  1  0
 15 32  1  6
 33 34  1  0
 34 35  1  0
 35 36  1  0
 36 37  1  0
 37 38  1  6
 37 33  1  0
 34 39  1  0
 34 40  1  0
 35 41  1  0
 35 42  1  0
 36 43  1  0
 36 44  1  0
 37 45  1  0
 15 33  1  0
M  ISO  8  16   8  17   8  18  14  19  14  20  14  21   8  22   8  23  13
M  ISO  8  24  13  25  13  26  13  27  13  28  13  29  13  30  13  31  13
M  ISO  2  32  13  38  13
M  END
>  <DihAtoms>  (1) 
13,14,32,33

>  <DihDeg>  (1) 
-167.35012463926438

$$$$
