
     RDKit          3D

 31 33  0  0  0  0  0  0  0  0999 V2000
   35.9640   30.2690   48.6140 C   0  0  0  0  0  0  0  0  0  0  0  0
   35.9890   29.2960   49.5940 C   0  0  0  0  0  0  0  0  0  0  0  0
   35.0150   28.3260   49.6970 C   0  0  0  0  0  0  0  0  0  0  0  0
   34.0110   28.3810   48.7620 C   0  0  0  0  0  0  0  0  0  0  0  0
   33.9590   29.3460   47.7680 C   0  0  0  0  0  0  0  0  0  0  0  0
   34.9460   30.2710   47.7210 N   0  0  0  0  0  0  0  0  0  0  0  0
   32.8990   29.3620   46.8230 N   0  0  0  0  0  0  0  0  0  0  0  0
   32.5770   30.4740   45.9520 C   0  0  0  0  0  0  0  0  0  0  0  0
   31.1130   30.2350   45.6560 C   0  0  0  0  0  0  0  0  0  0  0  0
   31.1070   28.7190   45.4270 C   0  0  0  0  0  0  0  0  0  0  0  0
   31.9790   28.2660   46.5850 C   0  0  0  0  0  0  0  0  0  0  0  0
   38.0980   33.1000   49.4750 C   0  0  0  0  0  0  0  0  0  0  0  0
   38.9870   33.1750   48.3990 C   0  0  0  0  0  0  0  0  0  0  0  0
   38.8350   32.2350   47.3760 C   0  0  0  0  0  0  0  0  0  0  0  0
   37.8400   31.3160   47.4960 N   0  0  0  0  0  0  0  0  0  0  0  0
   37.0120   31.2770   48.5400 C   0  0  0  0  0  0  0  0  0  0  0  0
   37.1310   32.1710   49.5450 N   0  0  0  0  0  0  0  0  0  0  0  0
   36.8164   29.2951   50.3188 H   0  0  0  0  0  0  0  0  0  0  0  0
   35.0406   27.5546   50.4808 H   0  0  0  0  0  0  0  0  0  0  0  0
   33.2123   27.6257   48.8035 H   0  0  0  0  0  0  0  0  0  0  0  0
   32.7287   31.4368   46.4618 H   0  0  0  0  0  0  0  0  0  0  0  0
   33.2066   30.5261   45.0515 H   0  0  0  0  0  0  0  0  0  0  0  0
   30.4769   30.5178   46.5077 H   0  0  0  0  0  0  0  0  0  0  0  0
   30.7176   30.8232   44.8147 H   0  0  0  0  0  0  0  0  0  0  0  0
   30.0916   28.3013   45.4944 H   0  0  0  0  0  0  0  0  0  0  0  0
   31.4589   28.4020   44.4342 H   0  0  0  0  0  0  0  0  0  0  0  0
   31.3656   28.0770   47.4783 H   0  0  0  0  0  0  0  0  0  0  0  0
   32.5079   27.3286   46.3579 H   0  0  0  0  0  0  0  0  0  0  0  0
   38.1940   33.8282   50.2939 H   0  0  0  0  0  0  0  0  0  0  0  0
   39.7740   33.9425   48.3590 H   0  0  0  0  0  0  0  0  0  0  0  0
   39.5003   32.2385   46.5000 H   0  0  0  0  0  0  0  0  0  0  0  0
  1  2  2  0
  2  3  1  0
  4  3  2  0
  5  4  1  0
  6  5  2  0
  6  1  1  0
  7  5  1  0
  8  7  1  0
  9  8  1  0
 10  9  1  0
 10 11  1  0
 11  7  1  0
 12 17  2  0
 13 12  1  0
 14 15  1  0
 14 13  2  0
 15 16  2  0
 16  1  1  0
 16 17  1  0
  2 18  1  0
  3 19  1  0
  4 20  1  0
  8 21  1  0
  8 22  1  0
  9 23  1  0
  9 24  1  0
 10 25  1  0
 10 26  1  0
 11 27  1  0
 11 28  1  0
 12 29  1  0
 13 30  1  0
 14 31  1  0
M  ISO  8  18  14  19  14  20  14  21  13  22  13  23  13  24  13  25  13
M  ISO  6  26  13  27  13  28  13  29  14  30  14  31  14
M  END
>  <minimizedAffinity>  (1) 
-5.52089071

>  <minimizedRMSD>  (1) 
0.126852572

$$$$
