
     RDKit          3D

 36 38  0  0  1  0  0  0  0  0999 V2000
   35.6740   29.8230   49.1690 C   0  0  0  0  0  0  0  0  0  0  0  0
   35.4180   29.3580   50.4550 C   0  0  0  0  0  0  0  0  0  0  0  0
   36.3820   29.4880   51.4760 C   0  0  0  0  0  0  0  0  0  0  0  0
   37.6090   30.0850   51.2100 C   0  0  0  0  0  0  0  0  0  0  0  0
   37.8420   30.5390   49.9260 C   0  0  0  0  0  0  0  0  0  0  0  0
   36.8850   30.4030   48.9380 C   0  0  0  0  0  0  0  0  0  0  0  0
   37.3150   30.9140   47.6900 N   0  0  0  0  0  0  0  0  0  0  0  0
   37.2410   30.7260   46.2580 C   0  0  0  0  0  0  0  0  0  0  0  0
   38.6990   30.5410   45.8980 C   0  0  0  0  0  0  0  0  0  0  0  0
   39.3120   31.6870   46.6740 C   0  0  0  0  0  0  0  0  0  0  0  0
   38.1770   32.0760   47.5920 C   0  0  0  0  0  0  0  0  0  0  0  0
   34.6490   29.6660   48.1620 C   0  0  0  0  0  0  0  0  0  0  0  0
   34.0400   30.7620   47.8640 O   0  0  0  0  0  0  0  0  0  0  0  0
   33.8640   27.4170   45.4180 C   0  0  0  0  0  0  0  0  0  0  0  0
   33.6430   26.1980   46.0400 C   0  0  0  0  0  0  0  0  0  0  0  0
   33.7570   26.1310   47.4140 C   0  0  0  0  0  0  0  0  0  0  0  0
   34.0820   27.2490   48.1390 N   0  0  0  0  0  0  0  0  0  0  0  0
   34.2890   28.4150   47.5000 C   0  0  0  0  0  0  0  0  0  0  0  0
   34.1740   28.4590   46.1750 N   0  0  0  0  0  0  0  0  0  0  0  0
   34.4513   28.8829   50.6782 H   0  0  0  0  0  0  0  0  0  0  0  0
   36.1621   29.1154   52.4873 H   0  0  0  0  0  0  0  0  0  0  0  0
   38.3702   30.1925   51.9968 H   0  0  0  0  0  0  0  0  0  0  0  0
   38.8038   31.0160   49.6864 H   0  0  0  0  0  0  0  0  0  0  0  0
   36.6482   29.8359   46.0004 H   0  0  0  0  0  0  0  0  0  0  0  0
   36.7502   31.5527   45.7235 H   0  0  0  0  0  0  0  0  0  0  0  0
   39.0824   29.5675   46.2375 H   0  0  0  0  0  0  0  0  0  0  0  0
   38.9129   30.5468   44.8190 H   0  0  0  0  0  0  0  0  0  0  0  0
   40.1942   31.3593   47.2435 H   0  0  0  0  0  0  0  0  0  0  0  0
   39.6775   32.5097   46.0419 H   0  0  0  0  0  0  0  0  0  0  0  0
   38.5659   32.3463   48.5848 H   0  0  0  0  0  0  0  0  0  0  0  0
   37.6298   32.9476   47.2034 H   0  0  0  0  0  0  0  0  0  0  0  0
   35.3916   29.8647   47.3752 H   0  0  0  0  0  0  0  0  0  0  0  0
   33.7792   31.2313   48.6958 H   0  0  0  0  0  0  0  0  0  0  0  0
   33.7841   27.5164   44.3254 H   0  0  0  0  0  0  0  0  0  0  0  0
   33.3829   25.3052   45.4525 H   0  0  0  0  0  0  0  0  0  0  0  0
   33.5861   25.1750   47.9307 H   0  0  0  0  0  0  0  0  0  0  0  0
  1  2  2  0
  2  3  1  0
  4  3  2  0
  5  4  1  0
  6  1  1  0
  6  5  2  0
  7  6  1  0
  8  7  1  0
  9  8  1  0
  9 10  1  0
 10 11  1  0
 11  7  1  0
 12 13  1  0
 12  1  1  0
 14 15  2  0
 14 19  1  0
 15 16  1  0
 16 17  2  0
 18 17  1  0
 18 12  1  0
 19 18  2  0
  2 20  1  0
  3 21  1  0
  4 22  1  0
  5 23  1  0
  8 24  1  0
  8 25  1  0
  9 26  1  0
  9 27  1  0
 10 28  1  0
 10 29  1  0
 11 30  1  0
 11 31  1  0
 12 32  1  0
 13 33  1  0
 14 34  1  0
 15 35  1  0
 16 36  1  0
M  ISO  8  20  14  21  14  22  14  23  14  24  13  25  13  26  13  27  13
M  ISO  8  28  13  29  13  30  13  31  13  32   8  33   3  34  14  35  14
M  ISO  1  36  14
M  END
>  <minimizedAffinity>  (1) 
-5.59499836

>  <minimizedRMSD>  (1) 
2.38907647

$$$$
