
     RDKit          3D

 32 34  0  0  1  0  0  0  0  0999 V2000
   38.9430   30.8310   45.6740 C   0  0  0  0  0  0  0  0  0  0  0  0
   40.1490   31.4370   45.9190 C   0  0  0  0  0  0  0  0  0  0  0  0
   40.9670   31.3310   44.7880 C   0  0  0  0  0  0  0  0  0  0  0  0
   40.1910   30.6470   43.8890 N   0  0  0  0  0  0  0  0  0  0  0  0
   39.0130   30.3580   44.4100 N   0  0  0  0  0  0  0  0  0  0  0  0
   37.8030   30.7120   46.5800 C   0  0  0  0  0  0  0  0  0  0  0  0
   38.0280   30.9740   47.9570 C   0  0  0  0  0  0  0  0  0  0  0  0
   36.9560   30.8660   48.8370 C   0  0  0  0  0  0  0  0  0  0  0  0
   35.7510   30.5140   48.3220 N   0  0  0  0  0  0  0  0  0  0  0  0
   35.5580   30.2680   47.0040 C   0  0  0  0  0  0  0  0  0  0  0  0
   36.5940   30.3740   46.1640 N   0  0  0  0  0  0  0  0  0  0  0  0
   37.1750   31.1370   50.2780 C   0  0  0  0  0  0  0  0  0  0  0  0
   36.6510   32.3930   50.5110 F   0  0  0  0  0  0  0  0  0  0  0  0
   36.5160   30.2400   51.0990 F   0  0  0  0  0  0  0  0  0  0  0  0
   38.5150   31.1520   50.6070 F   0  0  0  0  0  0  0  0  0  0  0  0
   41.4520   29.1090   42.7000 N   0  0  0  0  0  0  0  0  0  0  0  0
   41.6040   28.6850   41.3380 C   0  0  0  0  0  0  0  0  0  0  0  0
   40.1720   28.7260   40.8220 C   0  0  0  0  0  0  0  0  0  0  0  0
   39.4290   29.6780   41.7640 C   0  0  0  0  0  0  0  0  0  0  0  0
   40.5550   30.2660   42.5490 C   0  0  1  0  0  0  0  0  0  0  0  0
   40.4304   31.9310   46.8607 H   0  0  0  0  0  0  0  0  0  0  0  0
   41.9915   31.7080   44.6527 H   0  0  0  0  0  0  0  0  0  0  0  0
   39.0274   31.2560   48.3199 H   0  0  0  0  0  0  0  0  0  0  0  0
   34.5632   29.9850   46.6295 H   0  0  0  0  0  0  0  0  0  0  0  0
   41.0220   28.3725   43.2776 H   0  0  0  0  0  0  0  0  0  0  0  0
   42.2497   29.3756   40.7758 H   0  0  0  0  0  0  0  0  0  0  0  0
   42.0807   27.6990   41.2349 H   0  0  0  0  0  0  0  0  0  0  0  0
   40.1452   29.1064   39.7902 H   0  0  0  0  0  0  0  0  0  0  0  0
   39.7138   27.7261   40.8050 H   0  0  0  0  0  0  0  0  0  0  0  0
   38.8835   30.4518   41.2039 H   0  0  0  0  0  0  0  0  0  0  0  0
   38.6622   29.1873   42.3815 H   0  0  0  0  0  0  0  0  0  0  0  0
   40.9455   31.1654   42.0503 H   0  0  0  0  0  0  0  0  0  0  0  0
  1  2  1  0
  1  6  1  0
  3  2  2  0
  4  5  1  0
  4  3  1  0
  5  1  2  0
  6  7  2  0
  7  8  1  0
  8 12  1  0
  9  8  2  0
 10  9  1  0
 11  6  1  0
 11 10  2  0
 12 13  1  0
 12 15  1  0
 12 14  1  0
 17 16  1  0
 18 17  1  0
 18 19  1  0
 20 19  1  0
 20 16  1  0
 20  4  1  0
  2 21  1  0
  3 22  1  0
  7 23  1  0
 10 24  1  0
 16 25  1  0
 17 26  1  0
 17 27  1  0
 18 28  1  0
 18 29  1  0
 19 30  1  0
 19 31  1  0
 20 32  1  6
M  ISO  8  21  14  22  14  23  14  24  14  25   5  26  13  27  13  28  13
M  ISO  4  29  13  30  13  31  13  32  13
M  END
>  <minimizedAffinity>  (1) 
-6.14961672

>  <minimizedRMSD>  (1) 
1.41936612

$$$$
