
     RDKit          3D

 32 34  0  0  0  0  0  0  0  0999 V2000
   39.0980   31.2920   47.0570 Cl  0  0  0  0  0  0  0  0  0  0  0  0
   37.5560   30.8470   46.3840 C   0  0  0  0  0  0  0  0  0  0  0  0
   36.6460   30.4130   47.3120 C   0  0  0  0  0  0  0  0  0  0  0  0
   35.3670   30.0290   46.8730 C   0  0  0  0  0  0  0  0  0  0  0  0
   35.0230   30.0820   45.5570 C   0  0  0  0  0  0  0  0  0  0  0  0
   35.9490   30.5210   44.6410 C   0  0  0  0  0  0  0  0  0  0  0  0
   35.5420   30.6010   42.9470 Cl  0  0  0  0  0  0  0  0  0  0  0  0
   37.1860   30.8930   45.0600 C   0  0  0  0  0  0  0  0  0  0  0  0
   37.1550   31.4400   49.5050 C   0  0  0  0  0  0  0  0  0  0  0  0
   36.7990   30.2750   48.7720 C   0  0  0  0  0  0  0  0  0  0  0  0
   36.6100   29.0640   49.4640 C   0  0  0  0  0  0  0  0  0  0  0  0
   36.7860   29.0920   50.8170 N   0  0  0  0  0  0  0  0  0  0  0  0
   37.1260   30.2130   51.4870 C   0  0  0  0  0  0  0  0  0  0  0  0
   37.3070   31.3710   50.8350 N   0  0  0  0  0  0  0  0  0  0  0  0
   38.2090   31.3610   44.1730 N   0  0  0  0  0  0  0  0  0  0  0  0
   38.5830   32.6730   43.6770 C   0  0  0  0  0  0  0  0  0  0  0  0
   39.2680   32.3270   42.3700 C   0  0  0  0  0  0  0  0  0  0  0  0
   40.1340   31.1420   42.8130 C   0  0  0  0  0  0  0  0  0  0  0  0
   39.1140   30.3560   43.6030 C   0  0  0  0  0  0  0  0  0  0  0  0
   34.6283   29.6782   47.6087 H   0  0  0  0  0  0  0  0  0  0  0  0
   34.0175   29.7776   45.2310 H   0  0  0  0  0  0  0  0  0  0  0  0
   37.3054   32.3959   48.9819 H   0  0  0  0  0  0  0  0  0  0  0  0
   36.3333   28.1380   48.9386 H   0  0  0  0  0  0  0  0  0  0  0  0
   37.2560   30.1766   52.5787 H   0  0  0  0  0  0  0  0  0  0  0  0
   37.6984   33.3053   43.5104 H   0  0  0  0  0  0  0  0  0  0  0  0
   39.2129   33.2486   44.3712 H   0  0  0  0  0  0  0  0  0  0  0  0
   39.8811   33.1618   41.9995 H   0  0  0  0  0  0  0  0  0  0  0  0
   38.5830   32.1080   41.5376 H   0  0  0  0  0  0  0  0  0  0  0  0
   40.5145   30.5701   41.9538 H   0  0  0  0  0  0  0  0  0  0  0  0
   41.0432   31.4137   43.3693 H   0  0  0  0  0  0  0  0  0  0  0  0
   38.5619   29.6695   42.9443 H   0  0  0  0  0  0  0  0  0  0  0  0
   39.5851   29.7388   44.3822 H   0  0  0  0  0  0  0  0  0  0  0  0
  2  1  1  0
  2  3  2  0
  3 10  1  0
  4  3  1  0
  5  4  2  0
  6  8  2  0
  6  5  1  0
  7  6  1  0
  8  2  1  0
  9 14  2  0
 10 11  2  0
 10  9  1  0
 11 12  1  0
 12 13  2  0
 14 13  1  0
 15  8  1  0
 16 15  1  0
 17 18  1  0
 17 16  1  0
 18 19  1  0
 19 15  1  0
  4 20  1  0
  5 21  1  0
  9 22  1  0
 11 23  1  0
 13 24  1  0
 16 25  1  0
 16 26  1  0
 17 27  1  0
 17 28  1  0
 18 29  1  0
 18 30  1  0
 19 31  1  0
 19 32  1  0
M  ISO  8  20  14  21  14  22  14  23  14  24  14  25  13  26  13  27  13
M  ISO  5  28  13  29  13  30  13  31  13  32  13
M  END
>  <minimizedAffinity>  (1) 
-5.04906082

>  <minimizedRMSD>  (1) 
4.11591625

$$$$
