
     RDKit          3D

 45 48  0  0  1  0  0  0  0  0999 V2000
   38.4900   31.1280   45.9280 C   0  0  0  0  0  0  0  0  0  0  0  0
   39.8260   31.0580   46.2070 C   0  0  0  0  0  0  0  0  0  0  0  0
   40.4530   31.4230   45.0080 C   0  0  0  0  0  0  0  0  0  0  0  0
   39.5260   31.6890   44.0810 N   0  0  0  0  0  0  0  0  0  0  0  0
   38.3160   31.5090   44.6430 N   0  0  0  0  0  0  0  0  0  0  0  0
   39.8070   30.9010   41.7890 C   0  0  2  0  0  0  0  0  0  0  0  0
   39.8490   32.0930   42.7370 C   0  0  1  0  0  0  0  0  0  0  0  0
   38.7600   32.9280   42.1040 C   0  0  0  0  0  0  0  0  0  0  0  0
   38.8320   32.7360   40.7440 O   0  0  0  0  0  0  0  0  0  0  0  0
   39.6560   31.6860   40.4720 C   0  0  0  0  0  0  0  0  0  0  0  0
   38.6340   30.2170   42.0500 O   0  0  0  0  0  0  0  0  0  0  0  0
   39.5810   28.3230   43.1380 N   0  0  0  0  0  0  0  0  0  0  0  0
   39.5300   26.9010   42.7550 C   0  0  0  0  0  0  0  0  0  0  0  0
   38.0070   26.7250   42.7040 C   0  0  0  0  0  0  0  0  0  0  0  0
   37.4720   28.0940   42.2640 C   0  0  0  0  0  0  0  0  0  0  0  0
   38.7460   28.8670   42.0990 C   0  0  1  0  0  0  0  0  0  0  0  0
   36.5060   30.6370   49.0710 C   0  0  0  0  0  0  0  0  0  0  0  0
   37.5730   30.9270   48.2300 C   0  0  0  0  0  0  0  0  0  0  0  0
   37.4240   30.8400   46.8580 C   0  0  0  0  0  0  0  0  0  0  0  0
   36.2070   30.4630   46.3910 N   0  0  0  0  0  0  0  0  0  0  0  0
   35.1770   30.1820   47.2410 C   0  0  0  0  0  0  0  0  0  0  0  0
   35.3140   30.2640   48.5510 N   0  0  0  0  0  0  0  0  0  0  0  0
   36.8250   30.7730   50.4190 O   0  0  0  0  0  0  0  0  0  0  0  0
   36.8670   29.7030   51.3160 C   0  0  0  0  0  0  0  0  0  0  0  0
   35.5980   29.2300   51.6310 F   0  0  0  0  0  0  0  0  0  0  0  0
   37.5360   30.0920   52.4440 F   0  0  0  0  0  0  0  0  0  0  0  0
   37.5930   28.6660   50.7340 F   0  0  0  0  0  0  0  0  0  0  0  0
   40.3020   30.7782   47.1584 H   0  0  0  0  0  0  0  0  0  0  0  0
   41.5404   31.4817   44.8530 H   0  0  0  0  0  0  0  0  0  0  0  0
   40.6373   30.1806   41.8287 H   0  0  0  0  0  0  0  0  0  0  0  0
   40.8183   32.6017   42.8445 H   0  0  0  0  0  0  0  0  0  0  0  0
   37.7760   32.6080   42.4772 H   0  0  0  0  0  0  0  0  0  0  0  0
   38.8915   33.9912   42.3535 H   0  0  0  0  0  0  0  0  0  0  0  0
   39.2126   31.0453   39.6956 H   0  0  0  0  0  0  0  0  0  0  0  0
   40.6316   32.0303   40.0982 H   0  0  0  0  0  0  0  0  0  0  0  0
   39.1858   28.4848   44.0753 H   0  0  0  0  0  0  0  0  0  0  0  0
   39.9998   26.7194   41.7771 H   0  0  0  0  0  0  0  0  0  0  0  0
   40.0655   26.2101   43.4228 H   0  0  0  0  0  0  0  0  0  0  0  0
   37.7303   25.9481   41.9761 H   0  0  0  0  0  0  0  0  0  0  0  0
   37.5919   26.4070   43.6718 H   0  0  0  0  0  0  0  0  0  0  0  0
   36.9175   28.0243   41.3165 H   0  0  0  0  0  0  0  0  0  0  0  0
   36.7580   28.5465   42.9679 H   0  0  0  0  0  0  0  0  0  0  0  0
   39.1884   28.7383   41.1001 H   0  0  0  0  0  0  0  0  0  0  0  0
   38.5410   31.2273   48.6575 H   0  0  0  0  0  0  0  0  0  0  0  0
   34.2059   29.8788   46.8227 H   0  0  0  0  0  0  0  0  0  0  0  0
  1  2  1  0
  1 19  1  0
  3  2  2  0
  4  5  1  0
  4  3  1  0
  5  1  2  0
  6 11  1  0
  6  7  1  0
  7  4  1  0
  8  7  1  0
  9  8  1  0
 10  9  1  0
 10  6  1  0
 13 12  1  0
 14 13  1  0
 15 14  1  0
 16 11  1  0
 16 15  1  0
 16 12  1  0
 17 23  1  0
 18 17  2  0
 19 18  1  0
 20 19  2  0
 20 21  1  0
 21 22  2  0
 22 17  1  0
 23 24  1  0
 24 25  1  0
 24 26  1  0
 27 24  1  0
  2 28  1  0
  3 29  1  0
  6 30  1  6
  7 31  1  1
  8 32  1  0
  8 33  1  0
 10 34  1  0
 10 35  1  0
 12 36  1  0
 13 37  1  0
 13 38  1  0
 14 39  1  0
 14 40  1  0
 15 41  1  0
 15 42  1  0
 16 43  1  6
 18 44  1  0
 21 45  1  0
M  ISO  8  28  14  29  14  30  13  31  13  32  13  33  13  34  13  35  13
M  ISO  8  36   5  37  13  38  13  39  13  40  13  41  13  42  13  43  13
M  ISO  2  44  14  45  14
M  END
>  <minimizedAffinity>  (1) 
-6.28338814

>  <minimizedRMSD>  (1) 
0.291114837

$$$$
