
     RDKit          3D

 52 56  0  0  1  0  0  0  0  0999 V2000
   40.3640   31.0250   43.8270 C   0  0  0  0  0  0  0  0  0  0  0  0
   39.4960   28.7880   43.2500 C   0  0  0  0  0  0  0  0  0  0  0  0
   40.3110   29.8520   42.9000 C   0  0  0  0  0  0  0  0  0  0  0  0
   41.0370   29.7890   41.7200 C   0  0  0  0  0  0  0  0  0  0  0  0
   40.9590   28.6880   40.8920 C   0  0  0  0  0  0  0  0  0  0  0  0
   41.5630   28.4170   39.7200 N   0  0  0  0  0  0  0  0  0  0  0  0
   41.1360   27.2040   39.3360 C   0  0  0  0  0  0  0  0  0  0  0  0
   40.2500   26.6580   40.2440 C   0  0  0  0  0  0  0  0  0  0  0  0
   40.1500   27.6320   41.2390 C   0  0  0  0  0  0  0  0  0  0  0  0
   39.4330   27.6900   42.4020 C   0  0  0  0  0  0  0  0  0  0  0  0
   38.6100   26.5590   42.7070 N   0  0  0  0  0  0  0  0  0  0  0  0
   38.9870   25.3920   43.5010 C   0  0  0  0  0  0  0  0  0  0  0  0
   38.5370   24.2730   42.5800 C   0  0  0  0  0  0  0  0  0  0  0  0
   37.1610   24.7430   42.1690 C   0  0  0  0  0  0  0  0  0  0  0  0
   37.2250   26.2290   42.3510 C   0  0  0  0  0  0  0  0  0  0  0  0
   39.5870   30.6680   45.0790 C   0  0  0  0  0  0  0  0  0  0  0  0
   38.7530   32.2040   46.8940 C   0  0  1  0  0  0  0  0  0  0  0  0
   39.8600   32.9880   46.2260 C   0  0  0  0  0  0  0  0  0  0  0  0
   39.8900   31.5130   46.2620 C   0  0  2  0  0  0  0  0  0  0  0  0
   38.6840   32.3620   48.3910 C   0  0  0  0  0  0  0  0  0  0  0  0
   37.4300   29.9920   50.9930 C   0  0  0  0  0  0  0  0  0  0  0  0
   38.1460   31.0550   50.3570 C   0  0  0  0  0  0  0  0  0  0  0  0
   37.9340   31.2620   49.0180 C   0  0  0  0  0  0  0  0  0  0  0  0
   37.0650   30.4560   48.3780 N   0  0  0  0  0  0  0  0  0  0  0  0
   36.4010   29.4700   48.9780 C   0  0  0  0  0  0  0  0  0  0  0  0
   36.5910   29.2480   50.2780 N   0  0  0  0  0  0  0  0  0  0  0  0
   39.9108   31.9033   43.3441 H   0  0  0  0  0  0  0  0  0  0  0  0
   41.4072   31.2653   44.0801 H   0  0  0  0  0  0  0  0  0  0  0  0
   38.9105   28.8123   44.1809 H   0  0  0  0  0  0  0  0  0  0  0  0
   41.6863   30.6314   41.4393 H   0  0  0  0  0  0  0  0  0  0  0  0
   42.2251   29.0235   39.2153 H   0  0  0  0  0  0  0  0  0  0  0  0
   41.4537   26.7044   38.4089 H   0  0  0  0  0  0  0  0  0  0  0  0
   39.7420   25.6836   40.1947 H   0  0  0  0  0  0  0  0  0  0  0  0
   40.0714   25.3573   43.6822 H   0  0  0  0  0  0  0  0  0  0  0  0
   38.5462   25.3614   44.5084 H   0  0  0  0  0  0  0  0  0  0  0  0
   39.2038   24.1779   41.7103 H   0  0  0  0  0  0  0  0  0  0  0  0
   38.5452   23.2789   43.0509 H   0  0  0  0  0  0  0  0  0  0  0  0
   36.3868   24.3017   42.8138 H   0  0  0  0  0  0  0  0  0  0  0  0
   36.8993   24.4499   41.1416 H   0  0  0  0  0  0  0  0  0  0  0  0
   36.9442   26.7364   41.4163 H   0  0  0  0  0  0  0  0  0  0  0  0
   36.5289   26.5584   43.1365 H   0  0  0  0  0  0  0  0  0  0  0  0
   38.5143   30.7645   44.8552 H   0  0  0  0  0  0  0  0  0  0  0  0
   39.8841   29.6431   45.3462 H   0  0  0  0  0  0  0  0  0  0  0  0
   37.6629   32.0887   46.8024 H   0  0  0  0  0  0  0  0  0  0  0  0
   40.5689   33.5701   46.8331 H   0  0  0  0  0  0  0  0  0  0  0  0
   39.9121   33.7535   45.4378 H   0  0  0  0  0  0  0  0  0  0  0  0
   40.6737   30.8053   46.5703 H   0  0  0  0  0  0  0  0  0  0  0  0
   39.7066   32.3733   48.7962 H   0  0  0  0  0  0  0  0  0  0  0  0
   38.1626   33.3046   48.6137 H   0  0  0  0  0  0  0  0  0  0  0  0
   37.5724   29.7917   52.0652 H   0  0  0  0  0  0  0  0  0  0  0  0
   38.8450   31.6868   50.9246 H   0  0  0  0  0  0  0  0  0  0  0  0
   35.7013   28.8438   48.4051 H   0  0  0  0  0  0  0  0  0  0  0  0
  1 16  1  0
  3  2  2  0
  3  1  1  0
  4  3  1  0
  5  9  1  0
  5  4  2  0
  6  5  1  0
  7  6  1  0
  7  8  2  0
  8  9  1  0
  9 10  2  0
 10 11  1  0
 10  2  1  0
 11 12  1  0
 13 12  1  0
 14 15  1  0
 14 13  1  0
 15 11  1  0
 16 19  1  0
 17 20  1  0
 18 19  1  0
 18 17  1  0
 19 17  1  0
 20 23  1  0
 22 21  2  0
 23 22  1  0
 24 25  1  0
 24 23  2  0
 25 26  2  0
 26 21  1  0
  1 27  1  0
  1 28  1  0
  2 29  1  0
  4 30  1  0
  6 31  1  0
  7 32  1  0
  8 33  1  0
 12 34  1  0
 12 35  1  0
 13 36  1  0
 13 37  1  0
 14 38  1  0
 14 39  1  0
 15 40  1  0
 15 41  1  0
 16 42  1  0
 16 43  1  0
 17 44  1  6
 18 45  1  0
 18 46  1  0
 19 47  1  1
 20 48  1  0
 20 49  1  0
 21 50  1  0
 22 51  1  0
 25 52  1  0
M  ISO  8  27   8  28   8  29  14  30  14  31   9  32  14  33  14  34  13
M  ISO  8  35  13  36  13  37  13  38  13  39  13  40  13  41  13  42   8
M  ISO  8  43   8  44  13  45  13  46  13  47  13  48   8  49   8  50  14
M  ISO  2  51  14  52  14
M  END
>  <minimizedAffinity>  (1) 
-5.90899992

>  <minimizedRMSD>  (1) 
0.261693507

$$$$
