
     RDKit          3D

 39 41  0  0  0  0  0  0  0  0999 V2000
   36.6550   29.3420   49.4970 C   0  0  0  0  0  0  0  0  0  0  0  0
   35.4540   29.2030   49.0560 C   0  0  0  0  0  0  0  0  0  0  0  0
   38.2950   32.6000   49.7530 C   0  0  0  0  0  0  0  0  0  0  0  0
   38.8090   32.7590   48.4460 C   0  0  0  0  0  0  0  0  0  0  0  0
   38.5690   31.7340   47.5140 C   0  0  0  0  0  0  0  0  0  0  0  0
   37.8510   30.6310   47.9160 N   0  0  0  0  0  0  0  0  0  0  0  0
   37.3920   30.5490   49.1820 C   0  0  0  0  0  0  0  0  0  0  0  0
   37.6060   31.5120   50.0910 N   0  0  0  0  0  0  0  0  0  0  0  0
   39.0500   31.8200   46.1820 N   0  0  0  0  0  0  0  0  0  0  0  0
   40.3380   31.3480   45.7210 C   0  0  0  0  0  0  0  0  0  0  0  0
   40.6870   32.2750   44.5830 C   0  0  0  0  0  0  0  0  0  0  0  0
   39.3870   32.7900   44.0630 C   0  0  0  0  0  0  0  0  0  0  0  0
   38.3290   32.3950   45.0670 C   0  0  0  0  0  0  0  0  0  0  0  0
   34.5100   28.0870   49.2220 C   0  0  0  0  0  0  0  0  0  0  0  0
   34.0350   27.5140   47.9350 C   0  0  0  0  0  0  0  0  0  0  0  0
   33.7120   26.2030   47.6930 C   0  0  0  0  0  0  0  0  0  0  0  0
   33.2780   25.8020   46.4450 C   0  0  0  0  0  0  0  0  0  0  0  0
   33.1560   26.7180   45.3990 C   0  0  0  0  0  0  0  0  0  0  0  0
   33.4700   28.0260   45.6160 C   0  0  0  0  0  0  0  0  0  0  0  0
   33.9060   28.4230   46.8690 C   0  0  0  0  0  0  0  0  0  0  0  0
   37.1175   28.5522   50.1071 H   0  0  0  0  0  0  0  0  0  0  0  0
   35.0750   30.0489   48.4637 H   0  0  0  0  0  0  0  0  0  0  0  0
   38.4668   33.3869   50.5022 H   0  0  0  0  0  0  0  0  0  0  0  0
   39.3793   33.6571   48.1665 H   0  0  0  0  0  0  0  0  0  0  0  0
   41.0879   31.4154   46.5229 H   0  0  0  0  0  0  0  0  0  0  0  0
   40.3137   30.2926   45.4120 H   0  0  0  0  0  0  0  0  0  0  0  0
   41.3111   33.1059   44.9437 H   0  0  0  0  0  0  0  0  0  0  0  0
   41.2586   31.7559   43.7996 H   0  0  0  0  0  0  0  0  0  0  0  0
   39.4255   33.8849   43.9641 H   0  0  0  0  0  0  0  0  0  0  0  0
   39.1651   32.3719   43.0701 H   0  0  0  0  0  0  0  0  0  0  0  0
   37.7587   33.2777   45.3920 H   0  0  0  0  0  0  0  0  0  0  0  0
   37.6052   31.6856   44.6395 H   0  0  0  0  0  0  0  0  0  0  0  0
   35.0093   27.2911   49.7940 H   0  0  0  0  0  0  0  0  0  0  0  0
   33.6273   28.4855   49.7435 H   0  0  0  0  0  0  0  0  0  0  0  0
   33.7997   25.4629   48.5021 H   0  0  0  0  0  0  0  0  0  0  0  0
   33.0248   24.7455   46.2727 H   0  0  0  0  0  0  0  0  0  0  0  0
   32.8096   26.3871   44.4088 H   0  0  0  0  0  0  0  0  0  0  0  0
   33.3779   28.7607   44.8025 H   0  0  0  0  0  0  0  0  0  0  0  0
   34.1590   29.4804   47.0358 H   0  0  0  0  0  0  0  0  0  0  0  0
  2 14  1  0
  2  1  2  0
  3  8  2  0
  4  3  1  0
  5  6  1  0
  5  4  2  0
  6  7  2  0
  7  1  1  0
  7  8  1  0
  9  5  1  0
 10  9  1  0
 11 10  1  0
 12 11  1  0
 12 13  1  0
 13  9  1  0
 15 14  1  0
 16 15  2  0
 17 16  1  0
 18 19  1  0
 18 17  2  0
 19 20  2  0
 20 15  1  0
  1 21  1  0
  2 22  1  0
  3 23  1  0
  4 24  1  0
 10 25  1  0
 10 26  1  0
 11 27  1  0
 11 28  1  0
 12 29  1  0
 12 30  1  0
 13 31  1  0
 13 32  1  0
 14 33  1  0
 14 34  1  0
 16 35  1  0
 17 36  1  0
 18 37  1  0
 19 38  1  0
 20 39  1  0
M  ISO  8  23  14  24  14  25  13  26  13  27  13  28  13  29  13  30  13
M  ISO  8  31  13  32  13  33   8  34   8  35  14  36  14  37  14  38  14
M  ISO  1  39  14
M  END
>  <minimizedAffinity>  (1) 
-6.18592739

>  <minimizedRMSD>  (1) 
2.2590332

$$$$
