
     RDKit          3D

 23 24  0  0  0  0  0  0  0  0999 V2000
   37.3284   30.2338   51.4267 C   0  0  0  0  0  0  0  0  0  0  0  0
   38.0812   30.7385   50.3410 C   0  0  0  0  0  0  0  0  0  0  0  0
   37.6985   30.3731   49.0391 C   0  0  0  0  0  0  0  0  0  0  0  0
   36.6119   29.5440   48.8950 N   0  0  0  0  0  0  0  0  0  0  0  0
   35.9218   29.0860   49.9710 C   0  0  0  0  0  0  0  0  0  0  0  0
   36.2736   29.4253   51.2257 N   0  0  0  0  0  0  0  0  0  0  0  0
   34.8764   28.2742   49.5905 O   0  0  0  0  0  0  0  0  0  0  0  0
   37.5421   30.4554   52.4532 H   0  0  0  0  0  0  0  0  0  0  0  0
   38.9004   31.3714   50.5838 H   0  0  0  0  0  0  0  0  0  0  0  0
   38.2696   30.7567   48.2266 H   0  0  0  0  0  0  0  0  0  0  0  0
   34.7195   25.8471   50.0177 H   0  0  0  0  0  0  0  0  0  0  0  0
   34.1384   26.3191   50.7500 N   0  0  0  0  0  0  0  0  0  0  0  0
   34.5987   25.9663   52.0695 C   0  0  0  0  0  0  0  0  0  0  0  0
   35.4831   27.1287   52.4386 C   0  0  0  0  0  0  0  0  0  0  0  0
   34.6888   28.3138   51.9263 C   0  0  0  0  0  0  0  0  0  0  0  0
   34.0900   27.7426   50.6505 C   0  0  1  0  0  0  0  0  0  0  0  0
   35.1593   25.0040   52.0564 H   0  0  0  0  0  0  0  0  0  0  0  0
   33.7504   25.9008   52.7906 H   0  0  0  0  0  0  0  0  0  0  0  0
   36.4470   27.0777   51.9199 H   0  0  0  0  0  0  0  0  0  0  0  0
   35.5893   27.2139   53.5471 H   0  0  0  0  0  0  0  0  0  0  0  0
   35.3340   29.1957   51.7459 H   0  0  0  0  0  0  0  0  0  0  0  0
   33.8932   28.5672   52.6506 H   0  0  0  0  0  0  0  0  0  0  0  0
   33.0523   28.0917   50.5113 H   0  0  0  0  0  0  0  0  0  0  0  0
  2  1  2  0
  3  2  1  0
  4  3  2  0
  4  5  1  0
  5  6  2  0
  6  1  1  0
  7  5  1  0
  1  8  1  0
  2  9  1  0
  3 10  1  0
 11 12  1  0
 12 13  1  0
 13 14  1  0
 14 15  1  0
 15 16  1  0
 16 12  1  0
 13 17  1  0
 13 18  1  0
 14 19  1  0
 14 20  1  0
 15 21  1  0
 15 22  1  0
 16 23  1  6
  7 16  1  0
M  ISO  4   8  14   9  14  10  14  11   5
M  END
>  <DihAtoms>  (1) 
4,6,15,14

>  <DihDeg>  (1) 
-118.62535022544014

$$$$
