
     RDKit          3D

 23 24  0  0  0  0  0  0  0  0999 V2000
   37.3284   30.2338   51.4267 C   0  0  0  0  0  0  0  0  0  0  0  0
   38.0812   30.7385   50.3410 C   0  0  0  0  0  0  0  0  0  0  0  0
   37.6985   30.3731   49.0391 C   0  0  0  0  0  0  0  0  0  0  0  0
   36.6119   29.5440   48.8950 N   0  0  0  0  0  0  0  0  0  0  0  0
   35.9218   29.0860   49.9710 C   0  0  0  0  0  0  0  0  0  0  0  0
   36.2736   29.4253   51.2257 N   0  0  0  0  0  0  0  0  0  0  0  0
   34.8764   28.2742   49.5905 O   0  0  0  0  0  0  0  0  0  0  0  0
   37.5421   30.4554   52.4532 H   0  0  0  0  0  0  0  0  0  0  0  0
   38.9004   31.3714   50.5838 H   0  0  0  0  0  0  0  0  0  0  0  0
   38.2696   30.7567   48.2266 H   0  0  0  0  0  0  0  0  0  0  0  0
   32.5841   29.0695   50.0496 H   0  0  0  0  0  0  0  0  0  0  0  0
   32.7857   28.3154   50.7477 N   0  0  0  0  0  0  0  0  0  0  0  0
   31.8112   27.2579   50.6493 C   0  0  0  0  0  0  0  0  0  0  0  0
   32.5072   26.2393   49.7847 C   0  0  0  0  0  0  0  0  0  0  0  0
   33.9214   26.2657   50.3298 C   0  0  0  0  0  0  0  0  0  0  0  0
   34.0900   27.7426   50.6505 C   0  0  1  0  0  0  0  0  0  0  0  0
   30.8668   27.6228   50.1852 H   0  0  0  0  0  0  0  0  0  0  0  0
   31.5948   26.8121   51.6485 H   0  0  0  0  0  0  0  0  0  0  0  0
   32.5109   26.5443   48.7323 H   0  0  0  0  0  0  0  0  0  0  0  0
   32.0762   25.2210   49.9412 H   0  0  0  0  0  0  0  0  0  0  0  0
   34.6561   25.8960   49.5881 H   0  0  0  0  0  0  0  0  0  0  0  0
   33.9742   25.6584   51.2519 H   0  0  0  0  0  0  0  0  0  0  0  0
   34.6507   27.8803   51.5911 H   0  0  0  0  0  0  0  0  0  0  0  0
  2  1  2  0
  3  2  1  0
  4  3  2  0
  4  5  1  0
  5  6  2  0
  6  1  1  0
  7  5  1  0
  1  8  1  0
  2  9  1  0
  3 10  1  0
 11 12  1  0
 12 13  1  0
 13 14  1  0
 14 15  1  0
 15 16  1  0
 16 12  1  0
 13 17  1  0
 13 18  1  0
 14 19  1  0
 14 20  1  0
 15 21  1  0
 15 22  1  0
 16 23  1  1
  7 16  1  0
M  ISO  4   8  14   9  14  10  14  11   5
M  END
>  <DihAtoms>  (1) 
4,6,15,14

>  <DihDeg>  (1) 
-118.62535022544014

$$$$
