
     RDKit          3D

 37 39  0  0  1  0  0  0  0  0999 V2000
   33.9050   29.6050   46.9490 C   0  0  0  0  0  0  0  0  0  0  0  0
   33.5990   28.2510   47.1690 C   0  0  0  0  0  0  0  0  0  0  0  0
   33.8860   27.5420   48.2840 C   0  0  0  0  0  0  0  0  0  0  0  0
   34.5220   28.1240   49.3150 C   0  0  0  0  0  0  0  0  0  0  0  0
   34.8310   29.4420   49.1240 C   0  0  0  0  0  0  0  0  0  0  0  0
   34.5200   30.0650   48.0110 N   0  0  0  0  0  0  0  0  0  0  0  0
   32.1920   30.8100   45.8530 C   0  0  0  0  0  0  0  0  0  0  0  0
   33.4990   30.2480   45.7130 C   0  0  0  0  0  0  0  0  0  0  0  0
   34.1250   30.4250   44.5090 C   0  0  0  0  0  0  0  0  0  0  0  0
   33.4390   31.1280   43.5450 N   0  0  0  0  0  0  0  0  0  0  0  0
   32.2250   31.6480   43.6860 C   0  0  0  0  0  0  0  0  0  0  0  0
   31.6060   31.4770   44.8630 N   0  0  0  0  0  0  0  0  0  0  0  0
   31.7090   32.3500   42.5920 N   0  0  0  0  0  0  0  0  0  0  0  0
   35.4650   29.8810   44.3010 C   0  0  0  0  0  0  0  0  0  0  0  0
   35.4030   28.5680   44.3290 F   0  0  0  0  0  0  0  0  0  0  0  0
   36.0760   30.3020   43.1370 F   0  0  0  0  0  0  0  0  0  0  0  0
   36.3430   30.2920   45.3460 F   0  0  0  0  0  0  0  0  0  0  0  0
   36.6260   31.1770   49.4360 C   0  0  2  0  0  0  0  0  0  0  0  0
   35.5450   30.3870   50.0750 C   0  0  2  0  0  0  0  0  0  0  0  0
   36.1640   29.6420   51.0900 O   0  0  0  0  0  0  0  0  0  0  0  0
   37.3420   29.1620   50.5530 C   0  0  0  0  0  0  0  0  0  0  0  0
   37.8420   30.2780   49.6940 C   0  0  2  0  0  0  0  0  0  0  0  0
   36.7960   32.3760   50.1720 O   0  0  0  0  0  0  0  0  0  0  0  0
   38.8180   31.0000   50.4110 O   0  0  0  0  0  0  0  0  0  0  0  0
   33.0779   27.7190   46.3594 H   0  0  0  0  0  0  0  0  0  0  0  0
   33.5972   26.4825   48.3476 H   0  0  0  0  0  0  0  0  0  0  0  0
   34.7739   27.5829   50.2390 H   0  0  0  0  0  0  0  0  0  0  0  0
   31.6563   30.6873   46.8059 H   0  0  0  0  0  0  0  0  0  0  0  0
   30.7718   32.7737   42.6475 H   0  0  0  0  0  0  0  0  0  0  0  0
   32.2662   32.4434   41.7308 H   0  0  0  0  0  0  0  0  0  0  0  0
   36.4524   31.4341   48.3807 H   0  0  0  0  0  0  0  0  0  0  0  0
   34.7698   31.0745   50.4443 H   0  0  0  0  0  0  0  0  0  0  0  0
   38.0655   28.9289   51.3481 H   0  0  0  0  0  0  0  0  0  0  0  0
   37.1952   28.2307   49.9863 H   0  0  0  0  0  0  0  0  0  0  0  0
   38.2882   29.9177   48.7553 H   0  0  0  0  0  0  0  0  0  0  0  0
   36.7675   32.1752   51.1410 H   0  0  0  0  0  0  0  0  0  0  0  0
   38.6648   30.8867   51.3825 H   0  0  0  0  0  0  0  0  0  0  0  0
  1  2  2  0
  1  6  1  0
  2  3  1  0
  3  4  2  0
  5  4  1  0
  6  5  2  0
  8  7  2  0
  8  1  1  0
  9  8  1  0
 10 11  1  0
 10  9  2  0
 11 12  2  0
 12  7  1  0
 13 11  1  0
 14 15  1  0
 14  9  1  0
 14 17  1  0
 16 14  1  0
 18 22  1  0
 18 19  1  0
 18 23  1  0
 19  5  1  0
 19 20  1  0
 21 20  1  0
 22 24  1  0
 22 21  1  0
  2 25  1  0
  3 26  1  0
  4 27  1  0
  7 28  1  0
 13 29  1  0
 13 30  1  0
 18 31  1  6
 19 32  1  1
 21 33  1  0
 21 34  1  0
 22 35  1  6
 23 36  1  0
 24 37  1  0
M  ISO  8  25  14  26  14  27  14  28  14  31  13  32  13  33  13  34  13
M  ISO  3  35  13  36   3  37   3
M  END
>  <minimizedAffinity>  (1) 
-5.96386051

>  <minimizedRMSD>  (1) 
3.56018972

$$$$
