
     RDKit          3D

 36 38  0  0  0  0  0  0  0  0999 V2000
   38.0791   31.7519   47.9166 C   0  0  0  0  0  0  0  0  0  0  0  0
   37.9947   30.5627   47.2463 C   0  0  0  0  0  0  0  0  0  0  0  0
   38.7175   30.3843   46.1089 C   0  0  0  0  0  0  0  0  0  0  0  0
   39.5149   31.3984   45.6580 C   0  0  0  0  0  0  0  0  0  0  0  0
   39.5972   32.6094   46.3458 C   0  0  0  0  0  0  0  0  0  0  0  0
   38.8558   32.7399   47.4775 N   0  0  0  0  0  0  0  0  0  0  0  0
   40.4735   33.7131   45.8431 C   0  0  0  0  0  0  0  0  0  0  0  0
   37.4230   32.1378   49.0974 O   0  0  0  0  0  0  0  0  0  0  0  0
   37.3333   30.5782   50.8028 C   0  0  0  0  0  0  0  0  0  0  0  0
   36.6610   31.1807   49.7128 C   0  0  0  0  0  0  0  0  0  0  0  0
   35.3811   30.7418   49.4278 C   0  0  0  0  0  0  0  0  0  0  0  0
   34.8656   29.7712   50.2089 N   0  0  0  0  0  0  0  0  0  0  0  0
   35.5093   29.2236   51.2194 C   0  0  0  0  0  0  0  0  0  0  0  0
   36.7779   29.6100   51.5568 N   0  0  0  0  0  0  0  0  0  0  0  0
   37.3278   29.8482   47.7121 H   0  0  0  0  0  0  0  0  0  0  0  0
   38.6199   29.4303   45.6133 H   0  0  0  0  0  0  0  0  0  0  0  0
   40.0892   31.2453   44.7468 H   0  0  0  0  0  0  0  0  0  0  0  0
   39.7675   34.4752   45.4047 H   0  0  0  0  0  0  0  0  0  0  0  0
   41.1195   33.2900   45.0613 H   0  0  0  0  0  0  0  0  0  0  0  0
   41.0030   34.2234   46.6558 H   0  0  0  0  0  0  0  0  0  0  0  0
   38.3427   30.8202   51.1451 H   0  0  0  0  0  0  0  0  0  0  0  0
   34.9388   31.2491   48.5856 H   0  0  0  0  0  0  0  0  0  0  0  0
   34.6964   27.9131   54.3890 O   0  0  0  0  0  0  0  0  0  0  0  0
   34.3697   28.7372   53.3168 C   0  0  1  0  0  0  0  0  0  0  0  0
   34.8277   28.1585   52.0059 C   0  0  1  0  0  0  0  0  0  0  0  0
   33.7192   27.6718   51.3367 O   0  0  0  0  0  0  0  0  0  0  0  0
   32.7037   27.4810   52.2715 C   0  0  0  0  0  0  0  0  0  0  0  0
   32.8497   28.7306   53.1329 C   0  0  1  0  0  0  0  0  0  0  0  0
   32.2370   28.5594   54.3648 O   0  0  0  0  0  0  0  0  0  0  0  0
   35.6249   28.0835   54.6700 H   0  0  0  0  0  0  0  0  0  0  0  0
   34.6708   29.7815   53.4506 H   0  0  0  0  0  0  0  0  0  0  0  0
   35.5529   27.3163   52.1957 H   0  0  0  0  0  0  0  0  0  0  0  0
   31.7178   27.5083   51.7663 H   0  0  0  0  0  0  0  0  0  0  0  0
   32.8720   26.5843   52.8830 H   0  0  0  0  0  0  0  0  0  0  0  0
   32.4749   29.6012   52.5919 H   0  0  0  0  0  0  0  0  0  0  0  0
   32.8194   28.9748   55.0456 H   0  0  0  0  0  0  0  0  0  0  0  0
  1  8  1  0
  2  1  2  0
  3  2  1  0
  4  3  2  0
  4  5  1  0
  5  6  2  0
  6  1  1  0
  7  5  1  0
  8 10  1  0
  9 14  2  0
 10  9  1  0
 11 10  2  0
 11 12  1  0
 12 13  2  0
 13 14  1  0
  2 15  1  0
  3 16  1  0
  4 17  1  0
  7 18  1  0
  7 19  1  0
  7 20  1  0
  9 21  1  0
 11 22  1  0
 23 24  1  0
 24 25  1  0
 25 26  1  0
 26 27  1  0
 27 28  1  0
 28 29  1  0
 28 24  1  0
 23 30  1  0
 24 31  1  1
 25 32  1  1
 27 33  1  0
 27 34  1  0
 28 35  1  6
 29 36  1  0
 13 25  1  0
M  ISO  8  15  14  16  14  17  14  18   8  19   8  20   8  21  14  22  14
M  END
>  <DihAtoms>  (1) 
11,12,24,23

>  <DihDeg>  (1) 
-74.25230338196026

$$$$
