
     RDKit          3D

 51 55  0  0  0  0  0  0  0  0999 V2000
   38.0895   31.3087   47.7782 C   0  0  0  0  0  0  0  0  0  0  0  0
   37.0852   31.3025   48.7333 C   0  0  0  0  0  0  0  0  0  0  0  0
   37.1239   32.4149   49.5916 C   0  0  0  0  0  0  0  0  0  0  0  0
   38.0923   33.4110   49.4675 C   0  0  0  0  0  0  0  0  0  0  0  0
   39.0658   33.3064   48.4526 C   0  0  0  0  0  0  0  0  0  0  0  0
   39.0530   32.2277   47.5967 C   0  0  0  0  0  0  0  0  0  0  0  0
   34.9674   30.3094   48.0522 C   0  0  0  0  0  0  0  0  0  0  0  0
   36.0970   30.2874   48.8611 C   0  0  0  0  0  0  0  0  0  0  0  0
   36.2132   29.2389   49.7896 C   0  0  0  0  0  0  0  0  0  0  0  0
   35.2230   28.3136   49.8435 N   0  0  0  0  0  0  0  0  0  0  0  0
   34.1347   28.3796   49.0279 C   0  0  0  0  0  0  0  0  0  0  0  0
   34.0088   29.3691   48.1403 N   0  0  0  0  0  0  0  0  0  0  0  0
   37.4040   29.1677   50.6812 C   0  0  0  0  0  0  0  0  0  0  0  0
   38.1345   30.2285   46.8657 O   0  0  0  0  0  0  0  0  0  0  0  0
   40.0290   32.1854   46.6296 O   0  0  0  0  0  0  0  0  0  0  0  0
   40.5637   31.1794   44.4147 C   0  0  0  0  0  0  0  0  0  0  0  0
   39.8519   31.9859   45.2932 C   0  0  0  0  0  0  0  0  0  0  0  0
   38.7919   32.7239   44.8024 C   0  0  0  0  0  0  0  0  0  0  0  0
   38.4358   32.6633   43.4386 C   0  0  0  0  0  0  0  0  0  0  0  0
   37.4866   33.2433   42.6841 N   0  0  0  0  0  0  0  0  0  0  0  0
   37.5940   32.8267   41.4048 C   0  0  0  0  0  0  0  0  0  0  0  0
   38.6430   31.9641   41.3774 N   0  0  0  0  0  0  0  0  0  0  0  0
   39.1669   31.8543   42.6116 C   0  0  0  0  0  0  0  0  0  0  0  0
   40.2217   31.1135   43.0753 C   0  0  0  0  0  0  0  0  0  0  0  0
   36.3917   32.5307   50.3848 H   0  0  0  0  0  0  0  0  0  0  0  0
   38.0937   34.2586   50.1484 H   0  0  0  0  0  0  0  0  0  0  0  0
   39.7750   34.1041   48.4167 H   0  0  0  0  0  0  0  0  0  0  0  0
   34.8654   31.1105   47.3336 H   0  0  0  0  0  0  0  0  0  0  0  0
   33.3900   27.5963   49.1389 H   0  0  0  0  0  0  0  0  0  0  0  0
   38.3219   29.0782   50.0648 H   0  0  0  0  0  0  0  0  0  0  0  0
   37.4509   29.9788   51.4260 H   0  0  0  0  0  0  0  0  0  0  0  0
   37.3377   28.2167   51.2416 H   0  0  0  0  0  0  0  0  0  0  0  0
   38.3647   29.3466   47.2815 H   0  0  0  0  0  0  0  0  0  0  0  0
   41.3719   30.6471   44.9072 H   0  0  0  0  0  0  0  0  0  0  0  0
   38.1505   33.3906   45.3609 H   0  0  0  0  0  0  0  0  0  0  0  0
   36.7747   33.9122   43.0271 H   0  0  0  0  0  0  0  0  0  0  0  0
   37.0348   33.0583   40.5324 H   0  0  0  0  0  0  0  0  0  0  0  0
   42.3499   30.0242   44.2369 O   0  0  0  0  0  0  0  0  0  0  0  0
   42.1460   29.5206   42.9549 C   0  0  2  0  0  0  0  0  0  0  0  0
   41.0549   30.2126   42.2157 C   0  0  1  0  0  0  0  0  0  0  0  0
   40.2172   29.3009   41.6361 O   0  0  0  0  0  0  0  0  0  0  0  0
   40.7622   28.0367   41.8006 C   0  0  0  0  0  0  0  0  0  0  0  0
   41.6665   28.0849   42.9876 C   0  0  2  0  0  0  0  0  0  0  0  0
   41.0571   27.7466   44.1922 O   0  0  0  0  0  0  0  0  0  0  0  0
   41.8982   29.4104   44.8624 H   0  0  0  0  0  0  0  0  0  0  0  0
   43.0730   29.5268   42.3529 H   0  0  0  0  0  0  0  0  0  0  0  0
   41.5046   30.8131   41.3719 H   0  0  0  0  0  0  0  0  0  0  0  0
   40.0205   27.2199   41.8416 H   0  0  0  0  0  0  0  0  0  0  0  0
   41.4054   27.8364   40.9055 H   0  0  0  0  0  0  0  0  0  0  0  0
   42.5106   27.3688   42.8742 H   0  0  0  0  0  0  0  0  0  0  0  0
   40.2871   27.1350   44.0846 H   0  0  0  0  0  0  0  0  0  0  0  0
  1  2  2  0
  2  8  1  0
  2  3  1  0
  4  3  2  0
  5  4  1  0
  6  1  1  0
  6  5  2  0
  7 12  2  0
  7  8  1  0
  8  9  2  0
  9 10  1  0
  9 13  1  0
 11 10  2  0
 12 11  1  0
 14  1  1  0
 15  6  1  0
 16 17  2  0
 17 15  1  0
 18 17  1  0
 19 18  2  0
 20 19  1  0
 21 20  1  0
 22 21  2  0
 22 23  1  0
 23 24  2  0
 23 19  1  0
 24 16  1  0
  3 25  1  0
  4 26  1  0
  5 27  1  0
  7 28  1  0
 11 29  1  0
 13 30  1  0
 13 31  1  0
 13 32  1  0
 14 33  1  0
 16 34  1  0
 18 35  1  0
 20 36  1  0
 21 37  1  0
 38 39  1  0
 39 40  1  0
 40 41  1  0
 41 42  1  0
 42 43  1  0
 43 44  1  0
 43 39  1  0
 38 45  1  0
 39 46  1  6
 40 47  1  6
 42 48  1  0
 42 49  1  0
 43 50  1  6
 44 51  1  0
 24 40  1  0
M  ISO  8  25  14  26  14  27  14  28  14  29  14  30   8  31   8  32   8
M  ISO  5  33   3  34  14  35  14  36   9  37  14
M  END
>  <DihAtoms>  (1) 
22,23,39,38

>  <DihDeg>  (1) 
-90.23847251163942

$$$$
