
     RDKit          3D

 33 35  0  0  0  0  0  0  0  0999 V2000
   37.2212   29.1000   50.5657 Cl  0  0  0  0  0  0  0  0  0  0  0  0
   35.9499   29.1947   49.3775 C   0  0  0  0  0  0  0  0  0  0  0  0
   35.9377   30.2232   48.4761 C   0  0  0  0  0  0  0  0  0  0  0  0
   34.9524   30.3294   47.5268 C   0  0  0  0  0  0  0  0  0  0  0  0
   33.9354   29.3861   47.4588 C   0  0  0  0  0  0  0  0  0  0  0  0
   33.9267   28.3316   48.3645 C   0  0  0  0  0  0  0  0  0  0  0  0
   32.7041   27.0832   48.3818 Cl  0  0  0  0  0  0  0  0  0  0  0  0
   34.9462   28.2699   49.3050 C   0  0  0  0  0  0  0  0  0  0  0  0
   37.9815   33.0962   49.5092 C   0  0  0  0  0  0  0  0  0  0  0  0
   39.0081   33.1110   48.5627 C   0  0  0  0  0  0  0  0  0  0  0  0
   38.9732   32.1159   47.5746 C   0  0  0  0  0  0  0  0  0  0  0  0
   37.9663   31.2019   47.5801 N   0  0  0  0  0  0  0  0  0  0  0  0
   36.9873   31.2255   48.5213 C   0  0  0  0  0  0  0  0  0  0  0  0
   37.0131   32.1815   49.4777 N   0  0  0  0  0  0  0  0  0  0  0  0
   34.9201   31.1365   46.7997 H   0  0  0  0  0  0  0  0  0  0  0  0
   33.1414   29.4154   46.7425 H   0  0  0  0  0  0  0  0  0  0  0  0
   37.8639   33.7870   50.3279 H   0  0  0  0  0  0  0  0  0  0  0  0
   39.7455   33.8727   48.6535 H   0  0  0  0  0  0  0  0  0  0  0  0
   39.7657   32.1227   46.8394 H   0  0  0  0  0  0  0  0  0  0  0  0
   32.9255   26.9096   51.5846 O   0  0  0  0  0  0  0  0  0  0  0  0
   34.1874   27.4988   51.5382 C   0  0  0  0  0  0  0  0  0  0  0  0
   34.9560   27.1491   50.2842 C   0  0  0  0  0  0  0  0  0  0  0  0
   36.2536   26.9416   50.7338 O   0  0  0  0  0  0  0  0  0  0  0  0
   36.1250   26.2560   51.9565 C   0  0  0  0  0  0  0  0  0  0  0  0
   35.0065   26.9701   52.6802 C   0  0  0  0  0  0  0  0  0  0  0  0
   35.4868   27.9696   53.5245 O   0  0  0  0  0  0  0  0  0  0  0  0
   32.9754   26.0916   52.1157 H   0  0  0  0  0  0  0  0  0  0  0  0
   34.1165   28.6049   51.5995 H   0  0  0  0  0  0  0  0  0  0  0  0
   34.5355   26.2386   49.8076 H   0  0  0  0  0  0  0  0  0  0  0  0
   37.0858   26.2691   52.4702 H   0  0  0  0  0  0  0  0  0  0  0  0
   35.7688   25.2250   51.6757 H   0  0  0  0  0  0  0  0  0  0  0  0
   34.4945   26.2300   53.3158 H   0  0  0  0  0  0  0  0  0  0  0  0
   36.4670   27.8858   53.6788 H   0  0  0  0  0  0  0  0  0  0  0  0
  2  1  1  0
  3 13  1  0
  3  2  2  0
  4  3  1  0
  5  4  2  0
  5  6  1  0
  6  7  1  0
  6  8  2  0
  8  2  1  0
 10  9  2  0
 11 12  2  0
 11 10  1  0
 12 13  1  0
 13 14  2  0
 14  9  1  0
  4 15  1  0
  5 16  1  0
  9 17  1  0
 10 18  1  0
 11 19  1  0
 20 21  1  0
 21 22  1  0
 22 23  1  0
 23 24  1  0
 24 25  1  0
 25 26  1  0
 25 21  1  0
 20 27  1  0
 21 28  1  0
 22 29  1  0
 24 30  1  0
 24 31  1  0
 25 32  1  0
 26 33  1  0
  8 22  1  0
M  ISO  5  15  14  16  14  17  14  18  14  19  14
M  END
>  <DihAtoms>  (1) 
5,7,21,20

>  <DihDeg>  (1) 
-90.00725051533446

$$$$
