
     RDKit          3D

 33 35  0  0  0  0  0  0  0  0999 V2000
   37.9823   33.1636   49.4269 C   0  0  0  0  0  0  0  0  0  0  0  0
   39.0199   33.1604   48.4658 C   0  0  0  0  0  0  0  0  0  0  0  0
   39.0142   32.1224   47.5398 C   0  0  0  0  0  0  0  0  0  0  0  0
   38.0308   31.1757   47.5986 N   0  0  0  0  0  0  0  0  0  0  0  0
   37.0476   31.2251   48.5510 C   0  0  0  0  0  0  0  0  0  0  0  0
   37.0348   32.2179   49.4534 N   0  0  0  0  0  0  0  0  0  0  0  0
   37.2674   29.3568   51.0494 Br  0  0  0  0  0  0  0  0  0  0  0  0
   35.9491   29.3189   49.6540 C   0  0  0  0  0  0  0  0  0  0  0  0
   36.0004   30.2222   48.6183 C   0  0  0  0  0  0  0  0  0  0  0  0
   35.0150   30.1282   47.6547 C   0  0  0  0  0  0  0  0  0  0  0  0
   34.0032   29.1836   47.6901 C   0  0  0  0  0  0  0  0  0  0  0  0
   33.9969   28.3035   48.7470 C   0  0  0  0  0  0  0  0  0  0  0  0
   34.9764   28.3728   49.7341 C   0  0  0  0  0  0  0  0  0  0  0  0
   38.0388   34.0003   50.1254 H   0  0  0  0  0  0  0  0  0  0  0  0
   39.8015   33.8728   48.3831 H   0  0  0  0  0  0  0  0  0  0  0  0
   39.7272   31.9637   46.7389 H   0  0  0  0  0  0  0  0  0  0  0  0
   35.0083   30.8149   46.8172 H   0  0  0  0  0  0  0  0  0  0  0  0
   33.2595   29.1654   46.8990 H   0  0  0  0  0  0  0  0  0  0  0  0
   33.1993   27.5756   48.7547 H   0  0  0  0  0  0  0  0  0  0  0  0
   33.5107   28.6115   52.4003 O   0  0  0  0  0  0  0  0  0  0  0  0
   33.6120   27.4760   51.6244 C   0  0  1  0  0  0  0  0  0  0  0  0
   34.8998   27.4040   50.8212 C   0  0  1  0  0  0  0  0  0  0  0  0
   34.8840   26.0732   50.4224 O   0  0  0  0  0  0  0  0  0  0  0  0
   34.7043   25.3895   51.6224 C   0  0  0  0  0  0  0  0  0  0  0  0
   33.7237   26.1926   52.4355 C   0  0  2  0  0  0  0  0  0  0  0  0
   32.4910   25.5677   52.5706 O   0  0  0  0  0  0  0  0  0  0  0  0
   34.1395   28.5663   53.1555 H   0  0  0  0  0  0  0  0  0  0  0  0
   32.7306   27.4028   50.9318 H   0  0  0  0  0  0  0  0  0  0  0  0
   35.7240   27.5072   51.5536 H   0  0  0  0  0  0  0  0  0  0  0  0
   34.3528   24.3728   51.4288 H   0  0  0  0  0  0  0  0  0  0  0  0
   35.7191   25.3274   52.0984 H   0  0  0  0  0  0  0  0  0  0  0  0
   34.1970   26.4552   53.4007 H   0  0  0  0  0  0  0  0  0  0  0  0
   31.8872   25.8971   51.8352 H   0  0  0  0  0  0  0  0  0  0  0  0
  1  6  2  0
  2  1  1  0
  3  4  1  0
  3  2  2  0
  4  5  2  0
  5  9  1  0
  5  6  1  0
  8 13  2  0
  8  7  1  0
  9  8  1  0
 10 11  1  0
 10  9  2  0
 11 12  2  0
 12 13  1  0
  1 14  1  0
  2 15  1  0
  3 16  1  0
 10 17  1  0
 11 18  1  0
 12 19  1  0
 20 21  1  0
 21 22  1  0
 22 23  1  0
 23 24  1  0
 24 25  1  0
 25 26  1  0
 25 21  1  0
 20 27  1  0
 21 28  1  6
 22 29  1  1
 24 30  1  0
 24 31  1  0
 25 32  1  1
 26 33  1  0
 13 22  1  0
M  ISO  6  14  14  15  14  16  14  17  14  18  14  19  14
M  END
>  <DihAtoms>  (1) 
7,12,21,20

>  <DihDeg>  (1) 
-89.99907351123878

$$$$
