
     RDKit          3D

 33 35  0  0  0  0  0  0  0  0999 V2000
   37.9823   33.1636   49.4269 C   0  0  0  0  0  0  0  0  0  0  0  0
   39.0199   33.1604   48.4658 C   0  0  0  0  0  0  0  0  0  0  0  0
   39.0142   32.1224   47.5398 C   0  0  0  0  0  0  0  0  0  0  0  0
   38.0308   31.1757   47.5986 N   0  0  0  0  0  0  0  0  0  0  0  0
   37.0476   31.2251   48.5510 C   0  0  0  0  0  0  0  0  0  0  0  0
   37.0348   32.2179   49.4534 N   0  0  0  0  0  0  0  0  0  0  0  0
   37.2674   29.3568   51.0494 Br  0  0  0  0  0  0  0  0  0  0  0  0
   35.9491   29.3189   49.6540 C   0  0  0  0  0  0  0  0  0  0  0  0
   36.0004   30.2222   48.6183 C   0  0  0  0  0  0  0  0  0  0  0  0
   35.0150   30.1282   47.6547 C   0  0  0  0  0  0  0  0  0  0  0  0
   34.0032   29.1836   47.6901 C   0  0  0  0  0  0  0  0  0  0  0  0
   33.9969   28.3035   48.7470 C   0  0  0  0  0  0  0  0  0  0  0  0
   34.9764   28.3728   49.7341 C   0  0  0  0  0  0  0  0  0  0  0  0
   38.0388   34.0003   50.1254 H   0  0  0  0  0  0  0  0  0  0  0  0
   39.8015   33.8728   48.3831 H   0  0  0  0  0  0  0  0  0  0  0  0
   39.7272   31.9637   46.7389 H   0  0  0  0  0  0  0  0  0  0  0  0
   35.0083   30.8149   46.8172 H   0  0  0  0  0  0  0  0  0  0  0  0
   33.2595   29.1654   46.8990 H   0  0  0  0  0  0  0  0  0  0  0  0
   33.1993   27.5756   48.7547 H   0  0  0  0  0  0  0  0  0  0  0  0
   32.7190   27.9335   51.7403 O   0  0  0  0  0  0  0  0  0  0  0  0
   33.4865   26.9523   51.1489 C   0  0  1  0  0  0  0  0  0  0  0  0
   34.8998   27.4040   50.8212 C   0  0  1  0  0  0  0  0  0  0  0  0
   35.5106   26.1828   50.5642 O   0  0  0  0  0  0  0  0  0  0  0  0
   35.2016   25.4343   51.6973 C   0  0  0  0  0  0  0  0  0  0  0  0
   33.7820   25.7746   52.0671 C   0  0  2  0  0  0  0  0  0  0  0  0
   32.8984   24.7258   51.8490 O   0  0  0  0  0  0  0  0  0  0  0  0
   33.0256   28.0988   52.6603 H   0  0  0  0  0  0  0  0  0  0  0  0
   32.9835   26.5797   50.2161 H   0  0  0  0  0  0  0  0  0  0  0  0
   35.3288   27.7812   51.7699 H   0  0  0  0  0  0  0  0  0  0  0  0
   35.3367   24.3688   51.4946 H   0  0  0  0  0  0  0  0  0  0  0  0
   35.9430   25.7408   52.4827 H   0  0  0  0  0  0  0  0  0  0  0  0
   33.7697   26.1575   53.1053 H   0  0  0  0  0  0  0  0  0  0  0  0
   32.5022   24.8321   50.9295 H   0  0  0  0  0  0  0  0  0  0  0  0
  1  6  2  0
  2  1  1  0
  3  4  1  0
  3  2  2  0
  4  5  2  0
  5  9  1  0
  5  6  1  0
  8 13  2  0
  8  7  1  0
  9  8  1  0
 10 11  1  0
 10  9  2  0
 11 12  2  0
 12 13  1  0
  1 14  1  0
  2 15  1  0
  3 16  1  0
 10 17  1  0
 11 18  1  0
 12 19  1  0
 20 21  1  0
 21 22  1  0
 22 23  1  0
 23 24  1  0
 24 25  1  0
 25 26  1  0
 25 21  1  0
 20 27  1  0
 21 28  1  6
 22 29  1  1
 24 30  1  0
 24 31  1  0
 25 32  1  1
 26 33  1  0
 13 22  1  0
M  ISO  6  14  14  15  14  16  14  17  14  18  14  19  14
M  END
>  <DihAtoms>  (1) 
7,12,21,20

>  <DihDeg>  (1) 
-89.99907351123878

$$$$
