
     RDKit          3D

 43 45  0  0  1  0  0  0  0  0999 V2000
   35.5380   29.5700   48.3890 C   0  0  0  0  0  0  0  0  0  0  0  0
   36.4100   30.4310   47.9760 C   0  0  0  0  0  0  0  0  0  0  0  0
   32.8450   29.8500   45.8300 C   0  0  0  0  0  0  0  0  0  0  0  0
   34.0280   30.0100   46.5280 C   0  0  0  0  0  0  0  0  0  0  0  0
   34.2950   29.3570   47.7020 C   0  0  0  0  0  0  0  0  0  0  0  0
   33.3170   28.5270   48.1540 N   0  0  0  0  0  0  0  0  0  0  0  0
   32.1780   28.3660   47.4930 C   0  0  0  0  0  0  0  0  0  0  0  0
   31.9280   29.0160   46.3370 N   0  0  0  0  0  0  0  0  0  0  0  0
   29.8370   27.5820   47.3960 C   0  0  2  0  0  0  0  0  0  0  0  0
   31.1650   27.4380   48.0640 C   0  0  2  0  0  0  0  0  0  0  0  0
   30.9940   27.7160   49.4080 O   0  0  0  0  0  0  0  0  0  0  0  0
   29.6810   27.3900   49.7270 C   0  0  0  0  0  0  0  0  0  0  0  0
   28.9230   27.9560   48.5440 C   0  0  1  0  0  0  0  0  0  0  0  0
   29.4390   26.3550   46.8550 O   0  0  0  0  0  0  0  0  0  0  0  0
   28.8500   29.3500   48.6450 O   0  0  0  0  0  0  0  0  0  0  0  0
   37.6730   30.5850   48.7720 C   0  0  1  0  0  0  0  0  0  0  0  0
   38.4570   31.7090   48.2410 C   0  0  0  0  0  0  0  0  0  0  0  0
   38.6040   32.7740   49.1690 C   0  0  0  0  0  0  0  0  0  0  0  0
   39.2980   33.9320   48.8940 C   0  0  0  0  0  0  0  0  0  0  0  0
   39.9110   34.1160   47.6420 C   0  0  0  0  0  0  0  0  0  0  0  0
   39.7180   33.0290   46.7980 C   0  0  0  0  0  0  0  0  0  0  0  0
   39.0500   31.8970   47.0420 N   0  0  0  0  0  0  0  0  0  0  0  0
   37.1830   31.0650   50.4650 S   0  0  0  0  0  0  0  0  0  0  0  0
   37.0880   29.6400   51.5330 C   0  0  0  0  0  0  0  0  0  0  0  0
   37.7500   29.8170   52.7400 F   0  0  0  0  0  0  0  0  0  0  0  0
   35.7820   29.2310   51.7240 F   0  0  0  0  0  0  0  0  0  0  0  0
   37.7280   28.5870   50.8500 F   0  0  0  0  0  0  0  0  0  0  0  0
   35.7549   28.9831   49.2937 H   0  0  0  0  0  0  0  0  0  0  0  0
   36.2319   31.0307   47.0712 H   0  0  0  0  0  0  0  0  0  0  0  0
   32.6631   30.3901   44.8891 H   0  0  0  0  0  0  0  0  0  0  0  0
   34.7890   30.6926   46.1220 H   0  0  0  0  0  0  0  0  0  0  0  0
   29.8359   28.3122   46.5733 H   0  0  0  0  0  0  0  0  0  0  0  0
   31.5341   26.4137   47.9076 H   0  0  0  0  0  0  0  0  0  0  0  0
   29.5466   26.3010   49.8045 H   0  0  0  0  0  0  0  0  0  0  0  0
   29.3483   27.7845   50.6984 H   0  0  0  0  0  0  0  0  0  0  0  0
   27.8907   27.5876   48.4507 H   0  0  0  0  0  0  0  0  0  0  0  0
   29.2337   25.7221   47.5881 H   0  0  0  0  0  0  0  0  0  0  0  0
   28.8363   29.6114   49.5998 H   0  0  0  0  0  0  0  0  0  0  0  0
   38.2544   29.6519   48.7365 H   0  0  0  0  0  0  0  0  0  0  0  0
   38.1389   32.6687   50.1603 H   0  0  0  0  0  0  0  0  0  0  0  0
   39.3731   34.7184   49.6595 H   0  0  0  0  0  0  0  0  0  0  0  0
   40.4779   35.0164   47.3629 H   0  0  0  0  0  0  0  0  0  0  0  0
   40.1738   33.1106   45.8002 H   0  0  0  0  0  0  0  0  0  0  0  0
  2  1  2  0
  2 16  1  0
  3  8  2  0
  3  4  1  0
  4  5  2  0
  5  6  1  0
  5  1  1  0
  7  6  2  0
  8  7  1  0
  9 14  1  0
  9 10  1  0
  9 13  1  0
 10  7  1  0
 10 11  1  0
 11 12  1  0
 13 15  1  0
 13 12  1  0
 16 23  1  0
 17 16  1  0
 17 18  2  0
 19 18  1  0
 20 19  2  0
 21 22  2  0
 21 20  1  0
 22 17  1  0
 23 24  1  0
 24 26  1  0
 24 25  1  0
 27 24  1  0
  1 28  1  0
  2 29  1  0
  3 30  1  0
  4 31  1  0
  9 32  1  6
 10 33  1  1
 12 34  1  0
 12 35  1  0
 13 36  1  6
 14 37  1  0
 15 38  1  0
 16 39  1  1
 18 40  1  0
 19 41  1  0
 20 42  1  0
 21 43  1  0
M  ISO  8  30  14  31  14  32  13  33  13  34  13  35  13  36  13  37   3
M  ISO  6  38   3  39   8  40  14  41  14  42  14  43  14
M  END
>  <minimizedAffinity>  (1) 
-7.01196623

>  <minimizedRMSD>  (1) 
1.26192069

$$$$
