
     RDKit          3D

 36 39  0  0  0  0  0  0  0  0999 V2000
   37.0553   30.7143   46.7723 C   0  0  0  0  0  0  0  0  0  0  0  0
   37.7003   31.1402   47.9196 C   0  0  0  0  0  0  0  0  0  0  0  0
   38.7116   32.0576   47.8345 C   0  0  0  0  0  0  0  0  0  0  0  0
   39.0632   32.5391   46.5784 C   0  0  0  0  0  0  0  0  0  0  0  0
   40.0208   33.4408   46.2487 N   0  0  0  0  0  0  0  0  0  0  0  0
   39.9929   33.5923   44.9164 C   0  0  0  0  0  0  0  0  0  0  0  0
   39.0409   32.8100   44.3834 N   0  0  0  0  0  0  0  0  0  0  0  0
   38.4428   32.1397   45.3976 C   0  0  0  0  0  0  0  0  0  0  0  0
   37.4213   31.2090   45.5140 C   0  0  0  0  0  0  0  0  0  0  0  0
   37.3812   30.1598   51.5435 C   0  0  0  0  0  0  0  0  0  0  0  0
   37.9040   30.7561   50.3881 C   0  0  0  0  0  0  0  0  0  0  0  0
   37.2523   30.5712   49.1844 C   0  0  0  0  0  0  0  0  0  0  0  0
   36.1271   29.8155   49.1720 N   0  0  0  0  0  0  0  0  0  0  0  0
   35.6396   29.2476   50.3057 C   0  0  0  0  0  0  0  0  0  0  0  0
   36.2577   29.4169   51.4761 N   0  0  0  0  0  0  0  0  0  0  0  0
   36.2471   29.9912   46.7649 H   0  0  0  0  0  0  0  0  0  0  0  0
   39.2208   32.3981   48.7071 H   0  0  0  0  0  0  0  0  0  0  0  0
   40.6769   33.9441   46.8864 H   0  0  0  0  0  0  0  0  0  0  0  0
   36.9232   30.8809   44.6224 H   0  0  0  0  0  0  0  0  0  0  0  0
   37.9386   30.3436   52.4517 H   0  0  0  0  0  0  0  0  0  0  0  0
   38.7890   31.3481   50.4089 H   0  0  0  0  0  0  0  0  0  0  0  0
   34.7332   28.6492   50.2468 H   0  0  0  0  0  0  0  0  0  0  0  0
   42.9772   34.1322   45.1302 O   0  0  0  0  0  0  0  0  0  0  0  0
   41.9888   35.0983   44.9510 C   0  0  2  0  0  0  0  0  0  0  0  0
   40.8684   34.4807   44.1327 C   0  0  2  0  0  0  0  0  0  0  0  0
   40.1854   35.6132   43.7051 O   0  0  0  0  0  0  0  0  0  0  0  0
   41.1543   36.4989   43.2605 C   0  0  0  0  0  0  0  0  0  0  0  0
   42.4213   36.2030   44.0121 C   0  0  1  0  0  0  0  0  0  0  0  0
   42.9266   37.3146   44.6702 O   0  0  0  0  0  0  0  0  0  0  0  0
   43.4409   34.2745   45.9935 H   0  0  0  0  0  0  0  0  0  0  0  0
   41.6020   35.4958   45.9106 H   0  0  0  0  0  0  0  0  0  0  0  0
   41.3225   33.9780   43.2581 H   0  0  0  0  0  0  0  0  0  0  0  0
   41.2952   36.2632   42.1743 H   0  0  0  0  0  0  0  0  0  0  0  0
   40.8590   37.5577   43.3601 H   0  0  0  0  0  0  0  0  0  0  0  0
   43.1847   35.7262   43.3340 H   0  0  0  0  0  0  0  0  0  0  0  0
   43.8489   37.4603   44.3098 H   0  0  0  0  0  0  0  0  0  0  0  0
  1  2  2  0
  2 12  1  0
  3  2  1  0
  4  3  2  0
  5  4  1  0
  6  5  1  0
  7  6  2  0
  7  8  1  0
  8  9  2  0
  8  4  1  0
  9  1  1  0
 11 10  2  0
 12 11  1  0
 13 12  2  0
 13 14  1  0
 14 15  2  0
 15 10  1  0
  1 16  1  0
  3 17  1  0
  5 18  1  0
  9 19  1  0
 10 20  1  0
 11 21  1  0
 14 22  1  0
 23 24  1  0
 24 25  1  0
 25 26  1  0
 26 27  1  0
 27 28  1  0
 28 29  1  0
 28 24  1  0
 23 30  1  0
 24 31  1  1
 25 32  1  6
 27 33  1  0
 27 34  1  0
 28 35  1  6
 29 36  1  0
  6 25  1  0
M  ISO  7  16  14  17  14  18   9  19  14  20  14  21  14  22  14
M  END
>  <DihAtoms>  (1) 
4,5,24,23

>  <DihDeg>  (1) 
-21.497120296110076

$$$$
