
     RDKit          3D

 36 39  0  0  0  0  0  0  0  0999 V2000
   37.0553   30.7143   46.7723 C   0  0  0  0  0  0  0  0  0  0  0  0
   37.7003   31.1402   47.9196 C   0  0  0  0  0  0  0  0  0  0  0  0
   38.7116   32.0576   47.8345 C   0  0  0  0  0  0  0  0  0  0  0  0
   39.0632   32.5391   46.5784 C   0  0  0  0  0  0  0  0  0  0  0  0
   40.0208   33.4408   46.2487 N   0  0  0  0  0  0  0  0  0  0  0  0
   39.9929   33.5923   44.9164 C   0  0  0  0  0  0  0  0  0  0  0  0
   39.0409   32.8100   44.3834 N   0  0  0  0  0  0  0  0  0  0  0  0
   38.4428   32.1397   45.3976 C   0  0  0  0  0  0  0  0  0  0  0  0
   37.4213   31.2090   45.5140 C   0  0  0  0  0  0  0  0  0  0  0  0
   37.3812   30.1598   51.5435 C   0  0  0  0  0  0  0  0  0  0  0  0
   37.9040   30.7561   50.3881 C   0  0  0  0  0  0  0  0  0  0  0  0
   37.2523   30.5712   49.1844 C   0  0  0  0  0  0  0  0  0  0  0  0
   36.1271   29.8155   49.1720 N   0  0  0  0  0  0  0  0  0  0  0  0
   35.6396   29.2476   50.3057 C   0  0  0  0  0  0  0  0  0  0  0  0
   36.2577   29.4169   51.4761 N   0  0  0  0  0  0  0  0  0  0  0  0
   36.2471   29.9912   46.7649 H   0  0  0  0  0  0  0  0  0  0  0  0
   39.2208   32.3981   48.7071 H   0  0  0  0  0  0  0  0  0  0  0  0
   40.6769   33.9441   46.8864 H   0  0  0  0  0  0  0  0  0  0  0  0
   36.9232   30.8809   44.6224 H   0  0  0  0  0  0  0  0  0  0  0  0
   37.9386   30.3436   52.4517 H   0  0  0  0  0  0  0  0  0  0  0  0
   38.7890   31.3481   50.4089 H   0  0  0  0  0  0  0  0  0  0  0  0
   34.7332   28.6492   50.2468 H   0  0  0  0  0  0  0  0  0  0  0  0
   39.3688   35.4473   42.5899 O   0  0  0  0  0  0  0  0  0  0  0  0
   40.4647   34.5905   42.6728 C   0  0  2  0  0  0  0  0  0  0  0  0
   40.8684   34.4807   44.1327 C   0  0  2  0  0  0  0  0  0  0  0  0
   42.1512   33.9568   44.0234 O   0  0  0  0  0  0  0  0  0  0  0  0
   42.7828   34.6952   43.0353 C   0  0  0  0  0  0  0  0  0  0  0  0
   41.7235   35.2019   42.0977 C   0  0  1  0  0  0  0  0  0  0  0  0
   41.9559   34.8389   40.7793 O   0  0  0  0  0  0  0  0  0  0  0  0
   38.7887   35.1870   41.8307 H   0  0  0  0  0  0  0  0  0  0  0  0
   40.2564   33.5890   42.2459 H   0  0  0  0  0  0  0  0  0  0  0  0
   40.9278   35.5045   44.5476 H   0  0  0  0  0  0  0  0  0  0  0  0
   43.2595   35.5576   43.5687 H   0  0  0  0  0  0  0  0  0  0  0  0
   43.5656   34.1311   42.4993 H   0  0  0  0  0  0  0  0  0  0  0  0
   41.5864   36.3142   42.2152 H   0  0  0  0  0  0  0  0  0  0  0  0
   42.0175   35.6916   40.2589 H   0  0  0  0  0  0  0  0  0  0  0  0
  1  2  2  0
  2 12  1  0
  3  2  1  0
  4  3  2  0
  5  4  1  0
  6  5  1  0
  7  6  2  0
  7  8  1  0
  8  9  2  0
  8  4  1  0
  9  1  1  0
 11 10  2  0
 12 11  1  0
 13 12  2  0
 13 14  1  0
 14 15  2  0
 15 10  1  0
  1 16  1  0
  3 17  1  0
  5 18  1  0
  9 19  1  0
 10 20  1  0
 11 21  1  0
 14 22  1  0
 23 24  1  0
 24 25  1  0
 25 26  1  0
 26 27  1  0
 27 28  1  0
 28 29  1  0
 28 24  1  0
 23 30  1  0
 24 31  1  6
 25 32  1  1
 27 33  1  0
 27 34  1  0
 28 35  1  6
 29 36  1  0
  6 25  1  0
M  ISO  7  16  14  17  14  18   9  19  14  20  14  21  14  22  14
M  END
>  <DihAtoms>  (1) 
4,5,24,23

>  <DihDeg>  (1) 
-21.497120296110076

$$$$
