
     RDKit          3D

 47 51  0  0  1  0  0  0  0  0999 V2000
   37.6100   30.1300   49.5170 C   0  0  0  0  0  0  0  0  0  0  0  0
   36.2430   29.6590   49.1020 C   0  0  0  0  0  0  0  0  0  0  0  0
   35.5230   28.6100   49.6520 C   0  0  0  0  0  0  0  0  0  0  0  0
   34.3120   28.5000   48.9870 C   0  0  0  0  0  0  0  0  0  0  0  0
   34.3330   29.4850   48.0550 N   0  0  0  0  0  0  0  0  0  0  0  0
   35.4690   30.1620   48.1290 N   0  0  0  0  0  0  0  0  0  0  0  0
   32.0340   28.9630   47.2070 N   0  0  0  0  0  0  0  0  0  0  0  0
   33.2080   29.6320   47.2000 C   0  0  0  0  0  0  0  0  0  0  0  0
   33.1210   30.5140   46.1820 N   0  0  0  0  0  0  0  0  0  0  0  0
   31.9360   30.4110   45.5630 C   0  0  0  0  0  0  0  0  0  0  0  0
   31.4260   31.1000   44.4930 C   0  0  0  0  0  0  0  0  0  0  0  0
   30.1860   30.7960   44.0600 N   0  0  0  0  0  0  0  0  0  0  0  0
   29.4840   29.8220   44.6920 C   0  0  0  0  0  0  0  0  0  0  0  0
   29.9930   29.1420   45.7500 N   0  0  0  0  0  0  0  0  0  0  0  0
   31.2300   29.4230   46.2080 C   0  0  0  0  0  0  0  0  0  0  0  0
   37.4400   31.5620   49.9400 C   0  0  0  0  0  0  0  0  0  0  0  0
   39.6640   34.3580   48.9380 C   0  0  0  0  0  0  0  0  0  0  0  0
   39.9860   34.0000   47.6020 C   0  0  0  0  0  0  0  0  0  0  0  0
   39.4340   32.8130   47.0790 C   0  0  0  0  0  0  0  0  0  0  0  0
   38.6250   32.0740   47.8800 N   0  0  0  0  0  0  0  0  0  0  0  0
   38.3460   32.4550   49.1480 C   0  0  0  0  0  0  0  0  0  0  0  0
   38.8590   33.5620   49.6390 N   0  0  0  0  0  0  0  0  0  0  0  0
   39.9830   30.9440   45.6390 C   0  0  1  0  0  0  0  0  0  0  0  0
   39.7640   32.4350   45.6950 C   0  0  1  0  0  0  0  0  0  0  0  0
   38.7710   32.7670   44.8110 O   0  0  0  0  0  0  0  0  0  0  0  0
   38.5040   31.6910   43.9850 C   0  0  0  0  0  0  0  0  0  0  0  0
   39.5910   30.6710   44.2020 C   0  0  1  0  0  0  0  0  0  0  0  0
   41.3470   30.6690   45.8640 O   0  0  0  0  0  0  0  0  0  0  0  0
   40.6490   30.9040   43.3330 O   0  0  0  0  0  0  0  0  0  0  0  0
   38.3115   30.0610   48.6725 H   0  0  0  0  0  0  0  0  0  0  0  0
   38.0202   29.5139   50.3308 H   0  0  0  0  0  0  0  0  0  0  0  0
   35.8581   27.9693   50.4810 H   0  0  0  0  0  0  0  0  0  0  0  0
   33.5087   27.7722   49.1743 H   0  0  0  0  0  0  0  0  0  0  0  0
   31.7838   28.2154   47.8699 H   0  0  0  0  0  0  0  0  0  0  0  0
   32.0166   31.8849   43.9979 H   0  0  0  0  0  0  0  0  0  0  0  0
   28.4725   29.5764   44.3362 H   0  0  0  0  0  0  0  0  0  0  0  0
   36.3962   31.8668   49.7742 H   0  0  0  0  0  0  0  0  0  0  0  0
   37.6966   31.6506   51.0060 H   0  0  0  0  0  0  0  0  0  0  0  0
   40.0722   35.2762   49.3856 H   0  0  0  0  0  0  0  0  0  0  0  0
   40.6482   34.6318   46.9918 H   0  0  0  0  0  0  0  0  0  0  0  0
   39.4306   30.3429   46.3762 H   0  0  0  0  0  0  0  0  0  0  0  0
   40.6700   32.9870   45.4043 H   0  0  0  0  0  0  0  0  0  0  0  0
   38.4992   32.0166   42.9343 H   0  0  0  0  0  0  0  0  0  0  0  0
   37.5183   31.2610   44.2163 H   0  0  0  0  0  0  0  0  0  0  0  0
   39.2872   29.6296   44.0200 H   0  0  0  0  0  0  0  0  0  0  0  0
   41.5203   30.6341   46.8381 H   0  0  0  0  0  0  0  0  0  0  0  0
   41.4708   31.0850   43.8546 H   0  0  0  0  0  0  0  0  0  0  0  0
  1 16  1  0
  2  1  1  0
  2  3  1  0
  4  3  2  0
  5  6  1  0
  5  4  1  0
  6  2  2  0
  8  7  1  0
  8  5  1  0
  9  8  2  0
 10  9  1  0
 10 15  2  0
 11 10  1  0
 12 11  2  0
 12 13  1  0
 13 14  2  0
 14 15  1  0
 15  7  1  0
 17 22  2  0
 18 17  1  0
 19 18  2  0
 19 20  1  0
 20 21  2  0
 21 22  1  0
 21 16  1  0
 23 24  1  0
 23 28  1  0
 24 19  1  0
 25 24  1  0
 26 27  1  0
 26 25  1  0
 27 29  1  0
 27 23  1  0
  1 30  1  0
  1 31  1  0
  3 32  1  0
  4 33  1  0
  7 34  1  0
 11 35  1  0
 13 36  1  0
 16 37  1  0
 16 38  1  0
 17 39  1  0
 18 40  1  0
 23 41  1  1
 24 42  1  6
 26 43  1  0
 26 44  1  0
 27 45  1  1
 28 46  1  0
 29 47  1  0
M  ISO  8  30   8  31   8  32  14  33  14  34   9  35  14  36  14  37   8
M  ISO  8  38   8  39  14  40  14  41  13  42  13  43  13  44  13  45  13
M  ISO  2  46   3  47   3
M  END
>  <minimizedAffinity>  (1) 
-7.49376297

>  <minimizedRMSD>  (1) 
3.51827359

$$$$
