
     RDKit          3D

 36 39  0  0  0  0  0  0  0  0999 V2000
   37.0553   30.7143   46.7723 C   0  0  0  0  0  0  0  0  0  0  0  0
   37.7003   31.1402   47.9196 C   0  0  0  0  0  0  0  0  0  0  0  0
   38.7116   32.0576   47.8345 C   0  0  0  0  0  0  0  0  0  0  0  0
   39.0632   32.5391   46.5784 C   0  0  0  0  0  0  0  0  0  0  0  0
   40.0208   33.4408   46.2487 N   0  0  0  0  0  0  0  0  0  0  0  0
   39.9929   33.5923   44.9164 C   0  0  0  0  0  0  0  0  0  0  0  0
   39.0409   32.8100   44.3834 N   0  0  0  0  0  0  0  0  0  0  0  0
   38.4428   32.1397   45.3976 C   0  0  0  0  0  0  0  0  0  0  0  0
   37.4213   31.2090   45.5140 C   0  0  0  0  0  0  0  0  0  0  0  0
   37.3812   30.1598   51.5435 C   0  0  0  0  0  0  0  0  0  0  0  0
   37.9040   30.7561   50.3881 C   0  0  0  0  0  0  0  0  0  0  0  0
   37.2523   30.5712   49.1844 C   0  0  0  0  0  0  0  0  0  0  0  0
   36.1271   29.8155   49.1720 N   0  0  0  0  0  0  0  0  0  0  0  0
   35.6396   29.2476   50.3057 C   0  0  0  0  0  0  0  0  0  0  0  0
   36.2577   29.4169   51.4761 N   0  0  0  0  0  0  0  0  0  0  0  0
   36.2471   29.9912   46.7649 H   0  0  0  0  0  0  0  0  0  0  0  0
   39.2208   32.3981   48.7071 H   0  0  0  0  0  0  0  0  0  0  0  0
   40.6769   33.9441   46.8864 H   0  0  0  0  0  0  0  0  0  0  0  0
   36.9232   30.8809   44.6224 H   0  0  0  0  0  0  0  0  0  0  0  0
   37.9386   30.3436   52.4517 H   0  0  0  0  0  0  0  0  0  0  0  0
   38.7890   31.3481   50.4089 H   0  0  0  0  0  0  0  0  0  0  0  0
   34.7332   28.6492   50.2468 H   0  0  0  0  0  0  0  0  0  0  0  0
   41.5892   33.0750   42.3812 O   0  0  0  0  0  0  0  0  0  0  0  0
   42.0489   33.7619   43.5032 C   0  0  2  0  0  0  0  0  0  0  0  0
   40.8684   34.4807   44.1327 C   0  0  2  0  0  0  0  0  0  0  0  0
   41.5129   35.4025   44.9492 O   0  0  0  0  0  0  0  0  0  0  0  0
   42.5163   35.9633   44.1750 C   0  0  0  0  0  0  0  0  0  0  0  0
   42.9160   34.9479   43.1420 C   0  0  1  0  0  0  0  0  0  0  0  0
   44.2731   34.6623   43.1677 O   0  0  0  0  0  0  0  0  0  0  0  0
   42.1274   32.2562   42.2381 H   0  0  0  0  0  0  0  0  0  0  0  0
   42.5415   33.0954   44.2391 H   0  0  0  0  0  0  0  0  0  0  0  0
   40.3302   35.0195   43.3302 H   0  0  0  0  0  0  0  0  0  0  0  0
   42.0446   36.8473   43.6735 H   0  0  0  0  0  0  0  0  0  0  0  0
   43.3834   36.3086   44.7642 H   0  0  0  0  0  0  0  0  0  0  0  0
   42.5665   35.2626   42.1179 H   0  0  0  0  0  0  0  0  0  0  0  0
   44.6253   34.8850   42.2578 H   0  0  0  0  0  0  0  0  0  0  0  0
  1  2  2  0
  2 12  1  0
  3  2  1  0
  4  3  2  0
  5  4  1  0
  6  5  1  0
  7  6  2  0
  7  8  1  0
  8  9  2  0
  8  4  1  0
  9  1  1  0
 11 10  2  0
 12 11  1  0
 13 12  2  0
 13 14  1  0
 14 15  2  0
 15 10  1  0
  1 16  1  0
  3 17  1  0
  5 18  1  0
  9 19  1  0
 10 20  1  0
 11 21  1  0
 14 22  1  0
 23 24  1  0
 24 25  1  0
 25 26  1  0
 26 27  1  0
 27 28  1  0
 28 29  1  0
 28 24  1  0
 23 30  1  0
 24 31  1  1
 25 32  1  6
 27 33  1  0
 27 34  1  0
 28 35  1  6
 29 36  1  0
  6 25  1  0
M  ISO  7  16  14  17  14  18   9  19  14  20  14  21  14  22  14
M  END
>  <DihAtoms>  (1) 
4,5,24,23

>  <DihDeg>  (1) 
-21.497120296110076

$$$$
