
     RDKit          3D

 36 38  0  0  0  0  0  0  0  0999 V2000
   38.0791   31.7519   47.9166 C   0  0  0  0  0  0  0  0  0  0  0  0
   37.9947   30.5627   47.2463 C   0  0  0  0  0  0  0  0  0  0  0  0
   38.7175   30.3843   46.1089 C   0  0  0  0  0  0  0  0  0  0  0  0
   39.5149   31.3984   45.6580 C   0  0  0  0  0  0  0  0  0  0  0  0
   39.5972   32.6094   46.3458 C   0  0  0  0  0  0  0  0  0  0  0  0
   38.8558   32.7399   47.4775 N   0  0  0  0  0  0  0  0  0  0  0  0
   40.4735   33.7131   45.8431 C   0  0  0  0  0  0  0  0  0  0  0  0
   37.4230   32.1378   49.0974 O   0  0  0  0  0  0  0  0  0  0  0  0
   37.3333   30.5782   50.8028 C   0  0  0  0  0  0  0  0  0  0  0  0
   36.6610   31.1807   49.7128 C   0  0  0  0  0  0  0  0  0  0  0  0
   35.3811   30.7418   49.4278 C   0  0  0  0  0  0  0  0  0  0  0  0
   34.8656   29.7712   50.2089 N   0  0  0  0  0  0  0  0  0  0  0  0
   35.5093   29.2236   51.2194 C   0  0  0  0  0  0  0  0  0  0  0  0
   36.7779   29.6100   51.5568 N   0  0  0  0  0  0  0  0  0  0  0  0
   37.3278   29.8482   47.7121 H   0  0  0  0  0  0  0  0  0  0  0  0
   38.6199   29.4303   45.6133 H   0  0  0  0  0  0  0  0  0  0  0  0
   40.0892   31.2453   44.7468 H   0  0  0  0  0  0  0  0  0  0  0  0
   39.7675   34.4752   45.4047 H   0  0  0  0  0  0  0  0  0  0  0  0
   41.1195   33.2900   45.0613 H   0  0  0  0  0  0  0  0  0  0  0  0
   41.0030   34.2234   46.6558 H   0  0  0  0  0  0  0  0  0  0  0  0
   38.3427   30.8202   51.1451 H   0  0  0  0  0  0  0  0  0  0  0  0
   34.9388   31.2491   48.5856 H   0  0  0  0  0  0  0  0  0  0  0  0
   35.6482   26.9496   53.9092 O   0  0  0  0  0  0  0  0  0  0  0  0
   35.3176   28.2122   53.4273 C   0  0  1  0  0  0  0  0  0  0  0  0
   34.8277   28.1585   52.0059 C   0  0  1  0  0  0  0  0  0  0  0  0
   33.4563   28.3398   52.0134 O   0  0  0  0  0  0  0  0  0  0  0  0
   32.9930   28.0521   53.2957 C   0  0  0  0  0  0  0  0  0  0  0  0
   34.0664   28.7083   54.1571 C   0  0  1  0  0  0  0  0  0  0  0  0
   34.0511   28.1967   55.4457 O   0  0  0  0  0  0  0  0  0  0  0  0
   36.5639   26.7160   53.6318 H   0  0  0  0  0  0  0  0  0  0  0  0
   36.0972   28.9655   53.5817 H   0  0  0  0  0  0  0  0  0  0  0  0
   35.0723   27.1531   51.5581 H   0  0  0  0  0  0  0  0  0  0  0  0
   32.0285   28.5686   53.4715 H   0  0  0  0  0  0  0  0  0  0  0  0
   32.9674   26.9715   53.4900 H   0  0  0  0  0  0  0  0  0  0  0  0
   33.9516   29.7934   54.1320 H   0  0  0  0  0  0  0  0  0  0  0  0
   34.9896   28.0954   55.7354 H   0  0  0  0  0  0  0  0  0  0  0  0
  1  8  1  0
  2  1  2  0
  3  2  1  0
  4  3  2  0
  4  5  1  0
  5  6  2  0
  6  1  1  0
  7  5  1  0
  8 10  1  0
  9 14  2  0
 10  9  1  0
 11 10  2  0
 11 12  1  0
 12 13  2  0
 13 14  1  0
  2 15  1  0
  3 16  1  0
  4 17  1  0
  7 18  1  0
  7 19  1  0
  7 20  1  0
  9 21  1  0
 11 22  1  0
 23 24  1  0
 24 25  1  0
 25 26  1  0
 26 27  1  0
 27 28  1  0
 28 29  1  0
 28 24  1  0
 23 30  1  0
 24 31  1  6
 25 32  1  6
 27 33  1  0
 27 34  1  0
 28 35  1  1
 29 36  1  0
 13 25  1  0
M  ISO  8  15  14  16  14  17  14  18   8  19   8  20   8  21  14  22  14
M  END
>  <DihAtoms>  (1) 
11,12,24,23

>  <DihDeg>  (1) 
-74.25230338196026

$$$$
