
     RDKit          3D

 33 35  0  0  1  0  0  0  0  0999 V2000
   37.6730   30.7510   45.1790 C   0  0  0  0  0  0  0  0  0  0  0  0
   38.6060   31.6790   44.8430 C   0  0  0  0  0  0  0  0  0  0  0  0
   39.1340   31.3960   43.5860 C   0  0  0  0  0  0  0  0  0  0  0  0
   38.4740   30.2740   43.2080 N   0  0  0  0  0  0  0  0  0  0  0  0
   37.6150   29.8910   44.1390 N   0  0  0  0  0  0  0  0  0  0  0  0
   36.8770   30.6720   46.4060 C   0  0  0  0  0  0  0  0  0  0  0  0
   37.4730   31.1930   47.5900 C   0  0  0  0  0  0  0  0  0  0  0  0
   36.7290   31.1280   48.7770 C   0  0  0  0  0  0  0  0  0  0  0  0
   35.4840   30.5700   48.7190 N   0  0  0  0  0  0  0  0  0  0  0  0
   34.9540   30.0880   47.5760 C   0  0  0  0  0  0  0  0  0  0  0  0
   35.6700   30.1510   46.4400 N   0  0  0  0  0  0  0  0  0  0  0  0
   37.3220   31.6620   50.0270 C   0  0  0  0  0  0  0  0  0  0  0  0
   36.7650   32.9070   50.2140 F   0  0  0  0  0  0  0  0  0  0  0  0
   37.0310   30.8700   51.1290 F   0  0  0  0  0  0  0  0  0  0  0  0
   38.6920   31.8140   49.9250 F   0  0  0  0  0  0  0  0  0  0  0  0
   40.0520   29.7920   41.3720 C   0  0  2  0  0  0  0  0  0  0  0  0
   38.6800   29.5770   41.9410 C   0  0  1  0  0  0  0  0  0  0  0  0
   38.5900   28.1970   42.1150 O   0  0  0  0  0  0  0  0  0  0  0  0
   39.8400   27.7930   42.5950 C   0  0  0  0  0  0  0  0  0  0  0  0
   40.7910   28.5430   41.7060 C   0  0  2  0  0  0  0  0  0  0  0  0
   40.6580   30.9670   41.7160 O   0  0  0  0  0  0  0  0  0  0  0  0
   42.0050   28.8080   42.3350 O   0  0  0  0  0  0  0  0  0  0  0  0
   38.9018   32.5310   45.4728 H   0  0  0  0  0  0  0  0  0  0  0  0
   39.9044   31.9515   43.0311 H   0  0  0  0  0  0  0  0  0  0  0  0
   38.4818   31.6312   47.5740 H   0  0  0  0  0  0  0  0  0  0  0  0
   33.9459   29.6478   47.5735 H   0  0  0  0  0  0  0  0  0  0  0  0
   40.0193   29.9471   40.2835 H   0  0  0  0  0  0  0  0  0  0  0  0
   37.9062   29.9807   41.2715 H   0  0  0  0  0  0  0  0  0  0  0  0
   39.9721   28.0794   43.6488 H   0  0  0  0  0  0  0  0  0  0  0  0
   39.9863   26.7030   42.5710 H   0  0  0  0  0  0  0  0  0  0  0  0
   41.0718   27.9654   40.8130 H   0  0  0  0  0  0  0  0  0  0  0  0
   40.6967   31.0419   42.7024 H   0  0  0  0  0  0  0  0  0  0  0  0
   41.8808   28.7809   43.3168 H   0  0  0  0  0  0  0  0  0  0  0  0
  1  6  1  0
  2  1  1  0
  3  2  2  0
  4  3  1  0
  4  5  1  0
  5  1  2  0
  6 11  1  0
  6  7  2  0
  7  8  1  0
  8 12  1  0
  9  8  2  0
 10  9  1  0
 11 10  2  0
 12 13  1  0
 12 14  1  0
 15 12  1  0
 16 20  1  0
 16 21  1  0
 16 17  1  0
 17 18  1  0
 17  4  1  0
 18 19  1  0
 20 22  1  0
 20 19  1  0
  2 23  1  0
  3 24  1  0
  7 25  1  0
 10 26  1  0
 16 27  1  6
 17 28  1  6
 19 29  1  0
 19 30  1  0
 20 31  1  6
 21 32  1  0
 22 33  1  0
M  ISO  8  23  14  24  14  25  14  26  14  27  13  28  13  29  13  30  13
M  ISO  3  31  13  32   3  33   3
M  END
>  <minimizedAffinity>  (1) 
-6.25190258

>  <minimizedRMSD>  (1) 
2.17841649

$$$$
