
     RDKit          3D

 33 35  0  0  0  0  0  0  0  0999 V2000
   37.9102   30.8730   46.7218 C   0  0  0  0  0  0  0  0  0  0  0  0
   38.0568   31.0426   48.1288 C   0  0  0  0  0  0  0  0  0  0  0  0
   36.9311   30.8198   48.9338 C   0  0  0  0  0  0  0  0  0  0  0  0
   35.7692   30.4553   48.3173 N   0  0  0  0  0  0  0  0  0  0  0  0
   35.6689   30.3045   46.9800 C   0  0  0  0  0  0  0  0  0  0  0  0
   36.7505   30.5189   46.2105 N   0  0  0  0  0  0  0  0  0  0  0  0
   39.0988   31.1111   45.9018 C   0  0  0  0  0  0  0  0  0  0  0  0
   39.9105   32.2008   45.8967 C   0  0  0  0  0  0  0  0  0  0  0  0
   40.9336   32.0337   44.9682 C   0  0  0  0  0  0  0  0  0  0  0  0
   40.6873   30.8121   44.4365 N   0  0  0  0  0  0  0  0  0  0  0  0
   39.6106   30.2658   44.9815 N   0  0  0  0  0  0  0  0  0  0  0  0
   37.0532   30.9887   50.4021 C   0  0  0  0  0  0  0  0  0  0  0  0
   36.5625   32.2430   50.6853 F   0  0  0  0  0  0  0  0  0  0  0  0
   36.3121   30.0482   51.1039 F   0  0  0  0  0  0  0  0  0  0  0  0
   38.3686   30.9365   50.8207 F   0  0  0  0  0  0  0  0  0  0  0  0
   39.0091   31.3333   48.5476 H   0  0  0  0  0  0  0  0  0  0  0  0
   34.7068   30.0103   46.5524 H   0  0  0  0  0  0  0  0  0  0  0  0
   39.7625   33.0788   46.5421 H   0  0  0  0  0  0  0  0  0  0  0  0
   41.7226   32.7421   44.7533 H   0  0  0  0  0  0  0  0  0  0  0  0
   40.6362   31.9106   41.9331 O   0  0  0  0  0  0  0  0  0  0  0  0
   41.6545   31.0324   42.1771 C   0  0  2  0  0  0  0  0  0  0  0  0
   41.4971   30.1778   43.4013 C   0  0  1  0  0  0  0  0  0  0  0  0
   42.8016   29.9727   43.8497 O   0  0  0  0  0  0  0  0  0  0  0  0
   43.4576   31.1970   43.6807 C   0  0  0  0  0  0  0  0  0  0  0  0
   43.0177   31.6189   42.3071 C   0  0  2  0  0  0  0  0  0  0  0  0
   43.0069   33.0024   42.1566 O   0  0  0  0  0  0  0  0  0  0  0  0
   40.2235   31.8051   41.0326 H   0  0  0  0  0  0  0  0  0  0  0  0
   41.6911   30.3283   41.2952 H   0  0  0  0  0  0  0  0  0  0  0  0
   41.0368   29.1941   43.1724 H   0  0  0  0  0  0  0  0  0  0  0  0
   43.1924   31.9307   44.4644 H   0  0  0  0  0  0  0  0  0  0  0  0
   44.5551   30.9697   43.7417 H   0  0  0  0  0  0  0  0  0  0  0  0
   43.7599   31.1781   41.5939 H   0  0  0  0  0  0  0  0  0  0  0  0
   43.9625   33.3159   42.1575 H   0  0  0  0  0  0  0  0  0  0  0  0
  1  2  2  0
  2  3  1  0
  3 12  1  0
  4  3  2  0
  5  4  1  0
  6  1  1  0
  6  5  2  0
  7  1  1  0
  8  7  1  0
  9  8  2  0
 10  9  1  0
 10 11  1  0
 11  7  2  0
 12 13  1  0
 12 15  1  0
 12 14  1  0
  2 16  1  0
  5 17  1  0
  8 18  1  0
  9 19  1  0
 20 21  1  0
 21 22  1  0
 22 23  1  0
 23 24  1  0
 24 25  1  0
 25 26  1  0
 25 21  1  0
 20 27  1  0
 21 28  1  6
 22 29  1  6
 24 30  1  0
 24 31  1  0
 25 32  1  6
 26 33  1  0
 10 22  1  0
M  ISO  4  16  14  17  14  18  14  19  14
M  END
>  <DihAtoms>  (1) 
8,9,21,20

>  <DihDeg>  (1) 
-25.042214166560473

$$$$
