
     RDKit          3D

 33 35  0  0  0  0  0  0  0  0999 V2000
   37.9102   30.8730   46.7218 C   0  0  0  0  0  0  0  0  0  0  0  0
   38.0568   31.0426   48.1288 C   0  0  0  0  0  0  0  0  0  0  0  0
   36.9311   30.8198   48.9338 C   0  0  0  0  0  0  0  0  0  0  0  0
   35.7692   30.4553   48.3173 N   0  0  0  0  0  0  0  0  0  0  0  0
   35.6689   30.3045   46.9800 C   0  0  0  0  0  0  0  0  0  0  0  0
   36.7505   30.5189   46.2105 N   0  0  0  0  0  0  0  0  0  0  0  0
   39.0988   31.1111   45.9018 C   0  0  0  0  0  0  0  0  0  0  0  0
   39.9105   32.2008   45.8967 C   0  0  0  0  0  0  0  0  0  0  0  0
   40.9336   32.0337   44.9682 C   0  0  0  0  0  0  0  0  0  0  0  0
   40.6873   30.8121   44.4365 N   0  0  0  0  0  0  0  0  0  0  0  0
   39.6106   30.2658   44.9815 N   0  0  0  0  0  0  0  0  0  0  0  0
   37.0532   30.9887   50.4021 C   0  0  0  0  0  0  0  0  0  0  0  0
   36.5625   32.2430   50.6853 F   0  0  0  0  0  0  0  0  0  0  0  0
   36.3121   30.0482   51.1039 F   0  0  0  0  0  0  0  0  0  0  0  0
   38.3686   30.9365   50.8207 F   0  0  0  0  0  0  0  0  0  0  0  0
   39.0091   31.3333   48.5476 H   0  0  0  0  0  0  0  0  0  0  0  0
   34.7068   30.0103   46.5524 H   0  0  0  0  0  0  0  0  0  0  0  0
   39.7625   33.0788   46.5421 H   0  0  0  0  0  0  0  0  0  0  0  0
   41.7226   32.7421   44.7533 H   0  0  0  0  0  0  0  0  0  0  0  0
   41.6710   32.4021   42.4414 O   0  0  0  0  0  0  0  0  0  0  0  0
   42.2459   31.1677   42.5568 C   0  0  0  0  0  0  0  0  0  0  0  0
   41.4971   30.1778   43.4013 C   0  0  0  0  0  0  0  0  0  0  0  0
   42.4935   29.3843   43.9692 O   0  0  0  0  0  0  0  0  0  0  0  0
   43.5289   30.2617   44.3096 C   0  0  0  0  0  0  0  0  0  0  0  0
   43.6367   31.1323   43.0895 C   0  0  0  0  0  0  0  0  0  0  0  0
   44.1135   32.4052   43.3881 O   0  0  0  0  0  0  0  0  0  0  0  0
   41.5057   32.6804   41.4993 H   0  0  0  0  0  0  0  0  0  0  0  0
   42.2903   30.7342   41.5152 H   0  0  0  0  0  0  0  0  0  0  0  0
   40.8242   29.5331   42.7984 H   0  0  0  0  0  0  0  0  0  0  0  0
   43.3132   30.8333   45.2313 H   0  0  0  0  0  0  0  0  0  0  0  0
   44.4349   29.6200   44.4747 H   0  0  0  0  0  0  0  0  0  0  0  0
   44.3606   30.6206   42.4054 H   0  0  0  0  0  0  0  0  0  0  0  0
   45.0813   32.3147   43.6462 H   0  0  0  0  0  0  0  0  0  0  0  0
  1  2  2  0
  2  3  1  0
  3 12  1  0
  4  3  2  0
  5  4  1  0
  6  1  1  0
  6  5  2  0
  7  1  1  0
  8  7  1  0
  9  8  2  0
 10  9  1  0
 10 11  1  0
 11  7  2  0
 12 13  1  0
 12 15  1  0
 12 14  1  0
  2 16  1  0
  5 17  1  0
  8 18  1  0
  9 19  1  0
 20 21  1  0
 21 22  1  0
 22 23  1  0
 23 24  1  0
 24 25  1  0
 25 26  1  0
 25 21  1  0
 20 27  1  0
 21 28  1  0
 22 29  1  0
 24 30  1  0
 24 31  1  0
 25 32  1  0
 26 33  1  0
 10 22  1  0
M  ISO  4  16  14  17  14  18  14  19  14
M  END
>  <DihAtoms>  (1) 
8,9,21,20

>  <DihDeg>  (1) 
-25.042214166560473

$$$$
