
     RDKit          3D

 38 40  0  0  1  0  0  0  0  0999 V2000
   37.0420   31.5300   48.7030 C   0  0  1  0  0  0  0  0  0  0  0  0
   36.2140   30.9560   47.6650 C   0  0  0  0  0  0  0  0  0  0  0  0
   37.2010   30.1080   48.3870 C   0  0  2  0  0  0  0  0  0  0  0  0
   38.1900   32.4320   48.3540 C   0  0  0  0  0  0  0  0  0  0  0  0
   38.5420   33.3880   49.3380 C   0  0  0  0  0  0  0  0  0  0  0  0
   39.5870   34.2140   48.9920 C   0  0  0  0  0  0  0  0  0  0  0  0
   40.2000   34.0700   47.7710 N   0  0  0  0  0  0  0  0  0  0  0  0
   39.8240   33.1370   46.8660 C   0  0  0  0  0  0  0  0  0  0  0  0
   38.7870   32.3000   47.1810 N   0  0  0  0  0  0  0  0  0  0  0  0
   40.4360   32.9870   45.6130 N   0  0  0  0  0  0  0  0  0  0  0  0
   36.6620   29.2220   49.3300 O   0  0  0  0  0  0  0  0  0  0  0  0
   34.6150   27.7170   49.7410 O   0  0  0  0  0  0  0  0  0  0  0  0
   35.0320   28.9850   49.0600 P   0  0  1  0  0  0  0  0  0  0  0  0
   34.1370   30.2340   49.8270 O   0  0  0  0  0  0  0  0  0  0  0  0
   34.7540   28.9720   47.4010 O   0  0  0  0  0  0  0  0  0  0  0  0
   33.2760   30.1650   45.9880 C   0  0  1  0  0  0  0  0  0  0  0  0
   33.4340   29.1320   47.0440 C   0  0  1  0  0  0  0  0  0  0  0  0
   32.8260   27.9680   46.6230 O   0  0  0  0  0  0  0  0  0  0  0  0
   31.8920   28.2940   45.6580 C   0  0  0  0  0  0  0  0  0  0  0  0
   32.3950   29.5260   44.9520 C   0  0  2  0  0  0  0  0  0  0  0  0
   32.5940   31.3070   46.4620 O   0  0  0  0  0  0  0  0  0  0  0  0
   33.1430   29.1690   43.8330 O   0  0  0  0  0  0  0  0  0  0  0  0
   36.8101   32.1207   49.6015 H   0  0  0  0  0  0  0  0  0  0  0  0
   36.3856   31.2252   46.6123 H   0  0  0  0  0  0  0  0  0  0  0  0
   35.1322   30.9003   47.4739 H   0  0  0  0  0  0  0  0  0  0  0  0
   38.0353   29.4527   48.0961 H   0  0  0  0  0  0  0  0  0  0  0  0
   38.0207   33.4643   50.3036 H   0  0  0  0  0  0  0  0  0  0  0  0
   39.9312   34.9890   49.6926 H   0  0  0  0  0  0  0  0  0  0  0  0
   41.2187   33.6007   45.3454 H   0  0  0  0  0  0  0  0  0  0  0  0
   40.1027   32.2631   44.9604 H   0  0  0  0  0  0  0  0  0  0  0  0
   34.2078   30.1352   50.8095 H   0  0  0  0  0  0  0  0  0  0  0  0
   34.2629   30.4846   45.6221 H   0  0  0  0  0  0  0  0  0  0  0  0
   32.9317   29.4554   47.9676 H   0  0  0  0  0  0  0  0  0  0  0  0
   31.7849   27.4660   44.9417 H   0  0  0  0  0  0  0  0  0  0  0  0
   30.9075   28.4782   46.1128 H   0  0  0  0  0  0  0  0  0  0  0  0
   31.5921   30.1859   44.5915 H   0  0  0  0  0  0  0  0  0  0  0  0
   32.5953   31.3049   47.4520 H   0  0  0  0  0  0  0  0  0  0  0  0
   33.9972   28.7613   44.1234 H   0  0  0  0  0  0  0  0  0  0  0  0
  2  3  1  0
  2  1  1  0
  3  1  1  0
  3 11  1  0
  4  1  1  0
  4  5  2  0
  6  5  1  0
  7  6  2  0
  8  9  2  0
  8  7  1  0
  9  4  1  0
 10  8  1  0
 13 11  1  0
 13 12  2  0
 13 14  1  0
 15 13  1  0
 16 21  1  0
 16 17  1  0
 17 15  1  0
 18 17  1  0
 19 18  1  0
 20 22  1  0
 20 19  1  0
 20 16  1  0
  1 23  1  1
  2 24  1  0
  2 25  1  0
  3 26  1  6
  5 27  1  0
  6 28  1  0
 10 29  1  0
 10 30  1  0
 14 31  1  0
 16 32  1  6
 17 33  1  1
 19 34  1  0
 19 35  1  0
 20 36  1  6
 21 37  1  0
 22 38  1  0
M  ISO  8  23  13  24  13  25  13  26  13  27  14  28  14  31   3  32  13
M  ISO  6  33  13  34  13  35  13  36  13  37   3  38   3
M  END
>  <minimizedAffinity>  (1) 
-5.11791372

>  <minimizedRMSD>  (1) 
0.838775039

$$$$
