
     RDKit          3D

 24 25  0  0  0  0  0  0  0  0999 V2000
   37.3255   30.2320   51.4336 C   0  0  0  0  0  0  0  0  0  0  0  0
   38.0693   30.7293   50.3376 C   0  0  0  0  0  0  0  0  0  0  0  0
   37.7000   30.3742   49.0378 C   0  0  0  0  0  0  0  0  0  0  0  0
   36.6137   29.5457   48.9003 N   0  0  0  0  0  0  0  0  0  0  0  0
   35.9236   29.0870   49.9640 C   0  0  0  0  0  0  0  0  0  0  0  0
   36.2847   29.4336   51.2241 N   0  0  0  0  0  0  0  0  0  0  0  0
   34.8751   28.2733   49.5915 O   0  0  0  0  0  0  0  0  0  0  0  0
   37.5942   30.4944   52.4486 H   0  0  0  0  0  0  0  0  0  0  0  0
   38.9249   31.3866   50.5262 H   0  0  0  0  0  0  0  0  0  0  0  0
   38.2370   30.7302   48.1936 H   0  0  0  0  0  0  0  0  0  0  0  0
   32.2692   27.6524   49.0914 O   0  0  0  0  0  0  0  0  0  0  0  0
   32.8294   27.1007   50.2262 C   0  0  2  0  0  0  0  0  0  0  0  0
   34.1012   27.7516   50.6613 C   0  0  1  0  0  0  0  0  0  0  0  0
   34.8576   26.7210   51.2106 O   0  0  0  0  0  0  0  0  0  0  0  0
   34.7640   25.7288   50.2356 C   0  0  0  0  0  0  0  0  0  0  0  0
   33.2710   25.6492   50.0073 C   0  0  2  0  0  0  0  0  0  0  0  0
   33.0186   25.2730   48.6880 O   0  0  0  0  0  0  0  0  0  0  0  0
   31.2902   27.8027   49.2813 H   0  0  0  0  0  0  0  0  0  0  0  0
   32.1226   27.1364   51.0893 H   0  0  0  0  0  0  0  0  0  0  0  0
   33.8634   28.5404   51.4196 H   0  0  0  0  0  0  0  0  0  0  0  0
   35.3259   25.9507   49.3284 H   0  0  0  0  0  0  0  0  0  0  0  0
   35.1603   24.7823   50.6952 H   0  0  0  0  0  0  0  0  0  0  0  0
   32.8016   24.9944   50.7538 H   0  0  0  0  0  0  0  0  0  0  0  0
   33.8657   25.3535   48.1466 H   0  0  0  0  0  0  0  0  0  0  0  0
  2  1  2  0
  3  2  1  0
  4  3  2  0
  4  5  1  0
  5  6  2  0
  6  1  1  0
  7  5  1  0
  1  8  1  0
  2  9  1  0
  3 10  1  0
 11 12  1  0
 12 13  1  0
 13 14  1  0
 14 15  1  0
 15 16  1  0
 16 17  1  0
 16 12  1  0
 11 18  1  0
 12 19  1  1
 13 20  1  1
 15 21  1  0
 15 22  1  0
 16 23  1  1
 17 24  1  0
  7 13  1  0
M  ISO  3   8  14   9  14  10  14
M  END
>  <DihAtoms>  (1) 
4,6,12,11

>  <DihDeg>  (1) 
123.71827117221825

$$$$
