
     RDKit          3D

 24 25  0  0  0  0  0  0  0  0999 V2000
   37.3255   30.2320   51.4336 C   0  0  0  0  0  0  0  0  0  0  0  0
   38.0693   30.7293   50.3376 C   0  0  0  0  0  0  0  0  0  0  0  0
   37.7000   30.3742   49.0378 C   0  0  0  0  0  0  0  0  0  0  0  0
   36.6137   29.5457   48.9003 N   0  0  0  0  0  0  0  0  0  0  0  0
   35.9236   29.0870   49.9640 C   0  0  0  0  0  0  0  0  0  0  0  0
   36.2847   29.4336   51.2241 N   0  0  0  0  0  0  0  0  0  0  0  0
   34.8751   28.2733   49.5915 O   0  0  0  0  0  0  0  0  0  0  0  0
   37.5942   30.4944   52.4486 H   0  0  0  0  0  0  0  0  0  0  0  0
   38.9249   31.3866   50.5262 H   0  0  0  0  0  0  0  0  0  0  0  0
   38.2370   30.7302   48.1936 H   0  0  0  0  0  0  0  0  0  0  0  0
   34.8335   25.5697   49.9307 O   0  0  0  0  0  0  0  0  0  0  0  0
   34.4220   26.3339   51.0043 C   0  0  2  0  0  0  0  0  0  0  0  0
   34.1012   27.7516   50.6613 C   0  0  1  0  0  0  0  0  0  0  0  0
   34.4687   28.4812   51.7876 O   0  0  0  0  0  0  0  0  0  0  0  0
   35.7485   27.9965   52.0537 C   0  0  0  0  0  0  0  0  0  0  0  0
   35.5266   26.5004   52.0540 C   0  0  2  0  0  0  0  0  0  0  0  0
   36.6864   25.8550   51.6252 O   0  0  0  0  0  0  0  0  0  0  0  0
   34.3116   24.7071   49.9574 H   0  0  0  0  0  0  0  0  0  0  0  0
   33.5205   25.8961   51.4957 H   0  0  0  0  0  0  0  0  0  0  0  0
   33.0040   27.8347   50.4538 H   0  0  0  0  0  0  0  0  0  0  0  0
   36.4987   28.3191   51.3318 H   0  0  0  0  0  0  0  0  0  0  0  0
   36.0323   28.3700   53.0755 H   0  0  0  0  0  0  0  0  0  0  0  0
   35.1684   26.1645   53.0366 H   0  0  0  0  0  0  0  0  0  0  0  0
   37.3149   26.5287   51.2149 H   0  0  0  0  0  0  0  0  0  0  0  0
  2  1  2  0
  3  2  1  0
  4  3  2  0
  4  5  1  0
  5  6  2  0
  6  1  1  0
  7  5  1  0
  1  8  1  0
  2  9  1  0
  3 10  1  0
 11 12  1  0
 12 13  1  0
 13 14  1  0
 14 15  1  0
 15 16  1  0
 16 17  1  0
 16 12  1  0
 11 18  1  0
 12 19  1  1
 13 20  1  6
 15 21  1  0
 15 22  1  0
 16 23  1  1
 17 24  1  0
  7 13  1  0
M  ISO  3   8  14   9  14  10  14
M  END
>  <DihAtoms>  (1) 
4,6,12,11

>  <DihDeg>  (1) 
123.71827117221825

$$$$
