
     RDKit          3D

 51 54  0  0  1  0  0  0  0  0999 V2000
   37.7470   30.5890   45.1040 C   0  0  2  0  0  0  0  0  0  0  0  0
   38.6010   31.2310   46.1810 C   0  0  2  0  0  0  0  0  0  0  0  0
   40.0300   30.9380   45.8690 C   0  0  0  0  0  0  0  0  0  0  0  0
   40.2420   30.8700   44.5230 O   0  0  0  0  0  0  0  0  0  0  0  0
   39.4990   31.8490   43.8860 C   0  0  0  0  0  0  0  0  0  0  0  0
   38.0720   31.4120   43.8280 C   0  0  2  0  0  0  0  0  0  0  0  0
   36.4050   30.6690   45.2520 O   0  0  0  0  0  0  0  0  0  0  0  0
   38.2620   30.9520   47.4700 O   0  0  0  0  0  0  0  0  0  0  0  0
   37.5620   31.9430   48.0330 C   0  0  1  0  0  0  0  0  0  0  0  0
   36.8100   31.5570   49.2810 C   0  0  2  0  0  0  0  0  0  0  0  0
   38.0220   31.1570   50.1330 C   0  0  0  0  0  0  0  0  0  0  0  0
   38.9940   32.0980   49.9050 O   0  0  0  0  0  0  0  0  0  0  0  0
   38.6440   32.7700   48.8010 C   0  0  0  0  0  0  0  0  0  0  0  0
   35.9040   30.4230   49.0530 C   0  0  0  0  0  0  0  0  0  0  0  0
   34.9250   30.5560   48.0680 C   0  0  0  0  0  0  0  0  0  0  0  0
   34.0550   29.4470   47.8850 C   0  0  0  0  0  0  0  0  0  0  0  0
   34.2260   28.3340   48.6700 N   0  0  0  0  0  0  0  0  0  0  0  0
   35.1920   28.2540   49.6130 C   0  0  0  0  0  0  0  0  0  0  0  0
   36.0240   29.2990   49.7970 N   0  0  0  0  0  0  0  0  0  0  0  0
   37.2810   32.5620   43.8040 O   0  0  0  0  0  0  0  0  0  0  0  0
   36.5370   33.4810   41.7260 C   0  0  2  0  0  0  0  0  0  0  0  0
   36.2720   32.5580   42.8980 C   0  0  1  0  0  0  0  0  0  0  0  0
   36.1840   31.2700   42.3840 O   0  0  0  0  0  0  0  0  0  0  0  0
   36.4750   31.2610   41.0550 C   0  0  0  0  0  0  0  0  0  0  0  0
   36.1280   32.6300   40.5080 C   0  0  1  0  0  0  0  0  0  0  0  0
   37.8750   33.8530   41.6150 O   0  0  0  0  0  0  0  0  0  0  0  0
   34.7730   32.6710   40.2690 O   0  0  0  0  0  0  0  0  0  0  0  0
   37.9806   29.5141   45.1065 H   0  0  0  0  0  0  0  0  0  0  0  0
   38.4092   32.3136   46.1449 H   0  0  0  0  0  0  0  0  0  0  0  0
   40.6592   31.7358   46.2905 H   0  0  0  0  0  0  0  0  0  0  0  0
   40.2877   29.9636   46.3096 H   0  0  0  0  0  0  0  0  0  0  0  0
   39.5738   32.7926   44.4464 H   0  0  0  0  0  0  0  0  0  0  0  0
   39.8830   32.0045   42.8670 H   0  0  0  0  0  0  0  0  0  0  0  0
   37.8826   30.7934   42.9383 H   0  0  0  0  0  0  0  0  0  0  0  0
   36.1795   30.6824   46.2159 H   0  0  0  0  0  0  0  0  0  0  0  0
   36.9268   32.3580   47.2366 H   0  0  0  0  0  0  0  0  0  0  0  0
   36.1455   32.3247   49.7041 H   0  0  0  0  0  0  0  0  0  0  0  0
   37.7487   31.1452   51.1984 H   0  0  0  0  0  0  0  0  0  0  0  0
   38.3768   30.1503   49.8671 H   0  0  0  0  0  0  0  0  0  0  0  0
   39.5258   32.9123   48.1590 H   0  0  0  0  0  0  0  0  0  0  0  0
   38.2385   33.7553   49.0746 H   0  0  0  0  0  0  0  0  0  0  0  0
   34.8313   31.4710   47.4647 H   0  0  0  0  0  0  0  0  0  0  0  0
   33.2583   29.4801   47.1273 H   0  0  0  0  0  0  0  0  0  0  0  0
   35.2980   27.3454   50.2239 H   0  0  0  0  0  0  0  0  0  0  0  0
   35.9864   34.4278   41.8282 H   0  0  0  0  0  0  0  0  0  0  0  0
   35.3566   32.8948   43.4065 H   0  0  0  0  0  0  0  0  0  0  0  0
   37.5454   31.0563   40.9055 H   0  0  0  0  0  0  0  0  0  0  0  0
   35.9021   30.4781   40.5365 H   0  0  0  0  0  0  0  0  0  0  0  0
   36.6006   32.9406   39.5645 H   0  0  0  0  0  0  0  0  0  0  0  0
   38.2636   33.9610   42.5191 H   0  0  0  0  0  0  0  0  0  0  0  0
   34.2862   32.6857   41.1309 H   0  0  0  0  0  0  0  0  0  0  0  0
  1  7  1  0
  1  2  1  0
  2  8  1  0
  3  2  1  0
  4  3  1  0
  5  4  1  0
  6  5  1  0
  6  1  1  0
  8  9  1  0
  9 13  1  0
  9 10  1  0
 10 11  1  0
 12 11  1  0
 13 12  1  0
 14 10  1  0
 14 19  1  0
 15 14  2  0
 16 15  1  0
 16 17  2  0
 17 18  1  0
 18 19  2  0
 20  6  1  0
 21 26  1  0
 21 22  1  0
 22 20  1  0
 23 22  1  0
 24 23  1  0
 25 27  1  0
 25 24  1  0
 25 21  1  0
  1 28  1  6
  2 29  1  1
  3 30  1  0
  3 31  1  0
  5 32  1  0
  5 33  1  0
  6 34  1  6
  7 35  1  0
  9 36  1  6
 10 37  1  1
 11 38  1  0
 11 39  1  0
 13 40  1  0
 13 41  1  0
 15 42  1  0
 16 43  1  0
 18 44  1  0
 21 45  1  1
 22 46  1  1
 24 47  1  0
 24 48  1  0
 25 49  1  6
 26 50  1  0
 27 51  1  0
M  ISO  8  28  13  29  13  30  13  31  13  32  13  33  13  34  13  35   3
M  ISO  8  36  13  37  13  38  13  39  13  40  13  41  13  42  14  43  14
M  ISO  8  44  14  45  13  46  13  47  13  48  13  49  13  50   3  51   3
M  END
>  <minimizedAffinity>  (1) 
-5.44682598

>  <minimizedRMSD>  (1) 
3.36838603

$$$$
