
     RDKit          3D

 24 25  0  0  0  0  0  0  0  0999 V2000
   37.3255   30.2320   51.4336 C   0  0  0  0  0  0  0  0  0  0  0  0
   38.0693   30.7293   50.3376 C   0  0  0  0  0  0  0  0  0  0  0  0
   37.7000   30.3742   49.0378 C   0  0  0  0  0  0  0  0  0  0  0  0
   36.6137   29.5457   48.9003 N   0  0  0  0  0  0  0  0  0  0  0  0
   35.9236   29.0870   49.9640 C   0  0  0  0  0  0  0  0  0  0  0  0
   36.2847   29.4336   51.2241 N   0  0  0  0  0  0  0  0  0  0  0  0
   34.8751   28.2733   49.5915 O   0  0  0  0  0  0  0  0  0  0  0  0
   37.5942   30.4944   52.4486 H   0  0  0  0  0  0  0  0  0  0  0  0
   38.9249   31.3866   50.5262 H   0  0  0  0  0  0  0  0  0  0  0  0
   38.2370   30.7302   48.1936 H   0  0  0  0  0  0  0  0  0  0  0  0
   35.9950   26.3332   51.1434 O   0  0  0  0  0  0  0  0  0  0  0  0
   34.8977   26.9872   51.6671 C   0  0  2  0  0  0  0  0  0  0  0  0
   34.1012   27.7516   50.6613 C   0  0  1  0  0  0  0  0  0  0  0  0
   33.6189   28.8565   51.3559 O   0  0  0  0  0  0  0  0  0  0  0  0
   34.7639   29.3326   51.9930 C   0  0  0  0  0  0  0  0  0  0  0  0
   35.2970   28.0844   52.6604 C   0  0  2  0  0  0  0  0  0  0  0  0
   36.6871   28.1580   52.7487 O   0  0  0  0  0  0  0  0  0  0  0  0
   35.9795   25.3887   51.4963 H   0  0  0  0  0  0  0  0  0  0  0  0
   34.2027   26.2766   52.1747 H   0  0  0  0  0  0  0  0  0  0  0  0
   33.2694   27.1015   50.2882 H   0  0  0  0  0  0  0  0  0  0  0  0
   35.4812   29.7975   51.3167 H   0  0  0  0  0  0  0  0  0  0  0  0
   34.4238   30.0903   52.7508 H   0  0  0  0  0  0  0  0  0  0  0  0
   34.7983   27.9207   53.6253 H   0  0  0  0  0  0  0  0  0  0  0  0
   37.0227   28.9079   52.1638 H   0  0  0  0  0  0  0  0  0  0  0  0
  2  1  2  0
  3  2  1  0
  4  3  2  0
  4  5  1  0
  5  6  2  0
  6  1  1  0
  7  5  1  0
  1  8  1  0
  2  9  1  0
  3 10  1  0
 11 12  1  0
 12 13  1  0
 13 14  1  0
 14 15  1  0
 15 16  1  0
 16 17  1  0
 16 12  1  0
 11 18  1  0
 12 19  1  1
 13 20  1  6
 15 21  1  0
 15 22  1  0
 16 23  1  1
 17 24  1  0
  7 13  1  0
M  ISO  3   8  14   9  14  10  14
M  END
>  <DihAtoms>  (1) 
4,6,12,11

>  <DihDeg>  (1) 
123.71827117221825

$$$$
