
     RDKit          3D

 24 25  0  0  0  0  0  0  0  0999 V2000
   37.3255   30.2320   51.4336 C   0  0  0  0  0  0  0  0  0  0  0  0
   38.0693   30.7293   50.3376 C   0  0  0  0  0  0  0  0  0  0  0  0
   37.7000   30.3742   49.0378 C   0  0  0  0  0  0  0  0  0  0  0  0
   36.6137   29.5457   48.9003 N   0  0  0  0  0  0  0  0  0  0  0  0
   35.9236   29.0870   49.9640 C   0  0  0  0  0  0  0  0  0  0  0  0
   36.2847   29.4336   51.2241 N   0  0  0  0  0  0  0  0  0  0  0  0
   34.8751   28.2733   49.5915 O   0  0  0  0  0  0  0  0  0  0  0  0
   37.5942   30.4944   52.4486 H   0  0  0  0  0  0  0  0  0  0  0  0
   38.9249   31.3866   50.5262 H   0  0  0  0  0  0  0  0  0  0  0  0
   38.2370   30.7302   48.1936 H   0  0  0  0  0  0  0  0  0  0  0  0
   35.5124   29.0571   52.1225 O   0  0  0  0  0  0  0  0  0  0  0  0
   34.2625   28.4985   51.9445 C   0  0  2  0  0  0  0  0  0  0  0  0
   34.1012   27.7516   50.6613 C   0  0  1  0  0  0  0  0  0  0  0  0
   32.7720   27.9487   50.3005 O   0  0  0  0  0  0  0  0  0  0  0  0
   32.6245   29.3277   50.4430 C   0  0  0  0  0  0  0  0  0  0  0  0
   33.1630   29.5612   51.8369 C   0  0  2  0  0  0  0  0  0  0  0  0
   33.7281   30.8343   51.9133 O   0  0  0  0  0  0  0  0  0  0  0  0
   35.8195   28.8178   53.0528 H   0  0  0  0  0  0  0  0  0  0  0  0
   34.0065   27.7974   52.7744 H   0  0  0  0  0  0  0  0  0  0  0  0
   34.3254   26.6694   50.8414 H   0  0  0  0  0  0  0  0  0  0  0  0
   33.1448   29.9058   49.6793 H   0  0  0  0  0  0  0  0  0  0  0  0
   31.5229   29.5450   50.3864 H   0  0  0  0  0  0  0  0  0  0  0  0
   32.3827   29.3755   52.5873 H   0  0  0  0  0  0  0  0  0  0  0  0
   33.8401   31.2096   50.9839 H   0  0  0  0  0  0  0  0  0  0  0  0
  2  1  2  0
  3  2  1  0
  4  3  2  0
  4  5  1  0
  5  6  2  0
  6  1  1  0
  7  5  1  0
  1  8  1  0
  2  9  1  0
  3 10  1  0
 11 12  1  0
 12 13  1  0
 13 14  1  0
 14 15  1  0
 15 16  1  0
 16 17  1  0
 16 12  1  0
 11 18  1  0
 12 19  1  1
 13 20  1  1
 15 21  1  0
 15 22  1  0
 16 23  1  1
 17 24  1  0
  7 13  1  0
M  ISO  3   8  14   9  14  10  14
M  END
>  <DihAtoms>  (1) 
4,6,12,11

>  <DihDeg>  (1) 
123.71827117221825

$$$$
