
     RDKit          3D

 24 25  0  0  0  0  0  0  0  0999 V2000
   37.3255   30.2320   51.4336 C   0  0  0  0  0  0  0  0  0  0  0  0
   38.0693   30.7293   50.3376 C   0  0  0  0  0  0  0  0  0  0  0  0
   37.7000   30.3742   49.0378 C   0  0  0  0  0  0  0  0  0  0  0  0
   36.6137   29.5457   48.9003 N   0  0  0  0  0  0  0  0  0  0  0  0
   35.9236   29.0870   49.9640 C   0  0  0  0  0  0  0  0  0  0  0  0
   36.2847   29.4336   51.2241 N   0  0  0  0  0  0  0  0  0  0  0  0
   34.8751   28.2733   49.5915 O   0  0  0  0  0  0  0  0  0  0  0  0
   37.5942   30.4944   52.4486 H   0  0  0  0  0  0  0  0  0  0  0  0
   38.9249   31.3866   50.5262 H   0  0  0  0  0  0  0  0  0  0  0  0
   38.2370   30.7302   48.1936 H   0  0  0  0  0  0  0  0  0  0  0  0
   32.3686   29.2787   49.9564 O   0  0  0  0  0  0  0  0  0  0  0  0
   32.6455   28.0717   50.5667 C   0  0  0  0  0  0  0  0  0  0  0  0
   34.1012   27.7516   50.6613 C   0  0  0  0  0  0  0  0  0  0  0  0
   34.1689   26.3672   50.5398 O   0  0  0  0  0  0  0  0  0  0  0  0
   33.3716   26.1256   49.4219 C   0  0  0  0  0  0  0  0  0  0  0  0
   32.1071   26.8807   49.7658 C   0  0  0  0  0  0  0  0  0  0  0  0
   31.5000   27.3350   48.5950 O   0  0  0  0  0  0  0  0  0  0  0  0
   31.7066   29.7665   50.5402 H   0  0  0  0  0  0  0  0  0  0  0  0
   32.2258   28.0308   51.6001 H   0  0  0  0  0  0  0  0  0  0  0  0
   34.4848   28.0995   51.6541 H   0  0  0  0  0  0  0  0  0  0  0  0
   33.8225   26.4482   48.4834 H   0  0  0  0  0  0  0  0  0  0  0  0
   33.1906   25.0166   49.3845 H   0  0  0  0  0  0  0  0  0  0  0  0
   31.4511   26.2660   50.3970 H   0  0  0  0  0  0  0  0  0  0  0  0
   32.1448   27.2460   47.8246 H   0  0  0  0  0  0  0  0  0  0  0  0
  2  1  2  0
  3  2  1  0
  4  3  2  0
  4  5  1  0
  5  6  2  0
  6  1  1  0
  7  5  1  0
  1  8  1  0
  2  9  1  0
  3 10  1  0
 11 12  1  0
 12 13  1  0
 13 14  1  0
 14 15  1  0
 15 16  1  0
 16 17  1  0
 16 12  1  0
 11 18  1  0
 12 19  1  0
 13 20  1  0
 15 21  1  0
 15 22  1  0
 16 23  1  0
 17 24  1  0
  7 13  1  0
M  ISO  3   8  14   9  14  10  14
M  END
>  <DihAtoms>  (1) 
4,6,12,11

>  <DihDeg>  (1) 
123.71827117221825

$$$$
