
     RDKit          3D

 32 33  0  0  1  0  0  0  0  0999 V2000
   37.9550   30.0180   48.0890 O   0  0  0  0  0  0  0  0  0  0  0  0
   37.7870   30.9360   49.2670 P   0  0  2  0  0  0  0  0  0  0  0  0
   38.4440   30.1350   50.6190 O   0  0  0  0  0  0  0  0  0  0  0  0
   36.1580   31.2680   49.5370 O   0  0  0  0  0  0  0  0  0  0  0  0
   35.5830   30.1050   50.0240 C   0  0  0  0  0  0  0  0  0  0  0  0
   34.5810   29.5320   49.0860 C   0  0  0  0  0  0  0  0  0  0  0  0
   34.4040   30.1760   47.8580 C   0  0  0  0  0  0  0  0  0  0  0  0
   33.4610   29.6440   46.9650 C   0  0  0  0  0  0  0  0  0  0  0  0
   32.7750   28.5370   47.3440 N   0  0  0  0  0  0  0  0  0  0  0  0
   32.9650   27.9360   48.5350 C   0  0  0  0  0  0  0  0  0  0  0  0
   33.8650   28.4400   49.3920 N   0  0  0  0  0  0  0  0  0  0  0  0
   38.6540   32.3660   48.9780 O   0  0  0  0  0  0  0  0  0  0  0  0
   39.9090   33.2050   47.2010 C   0  0  1  0  0  0  0  0  0  0  0  0
   38.5270   32.8090   47.6860 C   0  0  1  0  0  0  0  0  0  0  0  0
   38.1580   31.8030   46.8060 O   0  0  0  0  0  0  0  0  0  0  0  0
   38.5960   32.1720   45.5460 C   0  0  0  0  0  0  0  0  0  0  0  0
   39.8410   32.9980   45.7240 C   0  0  1  0  0  0  0  0  0  0  0  0
   40.2710   34.4890   47.5890 O   0  0  0  0  0  0  0  0  0  0  0  0
   39.8080   34.1990   45.0160 O   0  0  0  0  0  0  0  0  0  0  0  0
   38.1014   30.5527   51.4486 H   0  0  0  0  0  0  0  0  0  0  0  0
   36.3764   29.3616   50.1907 H   0  0  0  0  0  0  0  0  0  0  0  0
   35.0618   30.3550   50.9599 H   0  0  0  0  0  0  0  0  0  0  0  0
   34.9863   31.0727   47.5994 H   0  0  0  0  0  0  0  0  0  0  0  0
   33.2833   30.1116   45.9853 H   0  0  0  0  0  0  0  0  0  0  0  0
   32.3866   27.0393   48.8021 H   0  0  0  0  0  0  0  0  0  0  0  0
   40.7106   32.6007   47.6507 H   0  0  0  0  0  0  0  0  0  0  0  0
   37.7752   33.6119   47.6987 H   0  0  0  0  0  0  0  0  0  0  0  0
   37.8213   32.7650   45.0378 H   0  0  0  0  0  0  0  0  0  0  0  0
   38.8052   31.2831   44.9328 H   0  0  0  0  0  0  0  0  0  0  0  0
   40.7342   32.4980   45.3212 H   0  0  0  0  0  0  0  0  0  0  0  0
   40.2863   34.5431   48.5774 H   0  0  0  0  0  0  0  0  0  0  0  0
   39.7872   34.9569   45.6526 H   0  0  0  0  0  0  0  0  0  0  0  0
  2  1  2  0
  2  4  1  0
  2  3  1  0
  4  5  1  0
  6 11  1  0
  6  5  1  0
  7  6  2  0
  8  9  2  0
  8  7  1  0
  9 10  1  0
 10 11  2  0
 12  2  1  0
 13 18  1  0
 13 14  1  0
 14 12  1  0
 15 14  1  0
 16 17  1  0
 16 15  1  0
 17 19  1  0
 17 13  1  0
  3 20  1  0
  5 21  1  0
  5 22  1  0
  7 23  1  0
  8 24  1  0
 10 25  1  0
 13 26  1  1
 14 27  1  1
 16 28  1  0
 16 29  1  0
 17 30  1  6
 18 31  1  0
 19 32  1  0
M  ISO  8  20   3  21   8  22   8  23  14  24  14  25  14  26  13  27  13
M  ISO  5  28  13  29  13  30  13  31   3  32   3
M  END
>  <minimizedAffinity>  (1) 
-5.06462383

>  <minimizedRMSD>  (1) 
2.12174082

$$$$
