
     RDKit          3D

 26 27  0  0  0  0  0  0  0  0999 V2000
   37.2661   30.1844   51.4187 C   0  0  0  0  0  0  0  0  0  0  0  0
   38.0969   30.7586   50.4514 C   0  0  0  0  0  0  0  0  0  0  0  0
   37.8072   30.4938   49.1010 C   0  0  0  0  0  0  0  0  0  0  0  0
   36.7427   29.7008   48.8393 N   0  0  0  0  0  0  0  0  0  0  0  0
   35.9655   29.1652   49.7842 C   0  0  0  0  0  0  0  0  0  0  0  0
   36.2203   29.4021   51.0796 N   0  0  0  0  0  0  0  0  0  0  0  0
   34.8281   28.3169   49.4810 C   0  0  0  0  0  0  0  0  0  0  0  0
   33.6232   28.7112   49.5638 O   0  0  0  0  0  0  0  0  0  0  0  0
   37.4212   30.3392   52.4835 H   0  0  0  0  0  0  0  0  0  0  0  0
   38.9172   31.3746   50.7792 H   0  0  0  0  0  0  0  0  0  0  0  0
   38.4434   30.9329   48.3445 H   0  0  0  0  0  0  0  0  0  0  0  0
   34.9550   26.9614   49.0618 N   0  0  0  0  0  0  0  0  0  0  0  0
   33.7695   26.1266   49.1097 C   0  0  2  0  0  0  0  0  0  0  0  0
   33.3726   25.9519   48.0826 H   0  0  0  0  0  0  0  0  0  0  0  0
   34.2207   24.7659   49.6236 C   0  0  1  0  0  0  0  0  0  0  0  0
   33.4626   24.4520   50.3794 H   0  0  0  0  0  0  0  0  0  0  0  0
   35.4599   24.8913   50.3422 N   0  0  0  0  0  0  0  0  0  0  0  0
   35.6510   24.1615   51.0242 H   0  0  0  0  0  0  0  0  0  0  0  0
   36.5747   25.2559   49.5052 C   0  0  0  0  0  0  0  0  0  0  0  0
   36.1987   26.3738   48.5921 C   0  0  0  0  0  0  0  0  0  0  0  0
   33.0034   26.5770   49.7724 H   0  0  0  0  0  0  0  0  0  0  0  0
   34.2145   23.9939   48.8350 H   0  0  0  0  0  0  0  0  0  0  0  0
   37.4073   25.6034   50.1522 H   0  0  0  0  0  0  0  0  0  0  0  0
   36.9742   24.3896   48.9332 H   0  0  0  0  0  0  0  0  0  0  0  0
   35.9525   25.9533   47.5823 H   0  0  0  0  0  0  0  0  0  0  0  0
   37.0032   27.1150   48.5196 H   0  0  0  0  0  0  0  0  0  0  0  0
  2  1  2  0
  3  2  1  0
  4  3  2  0
  4  5  1  0
  5  6  2  0
  6  1  1  0
  7  8  2  0
  7  5  1  0
  1  9  1  0
  2 10  1  0
  3 11  1  0
 12 13  1  0
 13 14  1  6
 13 15  1  0
 15 16  1  1
 15 17  1  0
 17 18  1  0
 17 19  1  0
 19 20  1  0
 20 12  1  0
 13 21  1  0
 15 22  1  0
 19 23  1  0
 19 24  1  0
 20 25  1  0
 20 26  1  0
  7 12  1  0
M  ISO  6   9  14  10  14  11  14  14   8  16   8  18   5
M  END
>  <DihAtoms>  (1) 
7,6,11,12

>  <DihDeg>  (1) 
0.00030514289840125915

$$$$
