
     RDKit          3D

 35 37  0  0  0  0  0  0  0  0999 V2000
   37.1201   30.2709   50.3234 C   0  0  0  0  0  0  0  0  0  0  0  0
   37.5099   30.1377   51.5053 O   0  0  0  0  0  0  0  0  0  0  0  0
   37.7935   31.0835   49.3345 C   0  0  0  0  0  0  0  0  0  0  0  0
   38.1093   32.3879   49.7144 C   0  0  0  0  0  0  0  0  0  0  0  0
   38.7625   33.2015   48.7782 C   0  0  0  0  0  0  0  0  0  0  0  0
   39.0529   32.6733   47.5485 N   0  0  0  0  0  0  0  0  0  0  0  0
   38.7279   31.4005   47.2209 C   0  0  0  0  0  0  0  0  0  0  0  0
   38.1084   30.6278   48.1081 N   0  0  0  0  0  0  0  0  0  0  0  0
   35.9195   29.5740   49.9012 C   0  0  0  0  0  0  0  0  0  0  0  0
   34.6771   29.9016   50.3908 C   0  0  0  0  0  0  0  0  0  0  0  0
   33.7635   29.0342   49.7718 C   0  0  0  0  0  0  0  0  0  0  0  0
   34.5337   28.2321   48.9391 C   0  0  0  0  0  0  0  0  0  0  0  0
   35.7700   28.5863   49.0528 O   0  0  0  0  0  0  0  0  0  0  0  0
   33.9683   27.1739   48.0956 C   0  0  0  0  0  0  0  0  0  0  0  0
   32.7382   26.9069   48.1115 O   0  0  0  0  0  0  0  0  0  0  0  0
   37.9027   32.8470   50.6654 H   0  0  0  0  0  0  0  0  0  0  0  0
   39.0218   34.2181   49.0404 H   0  0  0  0  0  0  0  0  0  0  0  0
   39.0151   31.1117   46.2183 H   0  0  0  0  0  0  0  0  0  0  0  0
   34.3577   30.6509   51.1041 H   0  0  0  0  0  0  0  0  0  0  0  0
   32.6959   28.9653   49.8829 H   0  0  0  0  0  0  0  0  0  0  0  0
   34.7321   26.3768   47.2098 N   0  0  0  0  0  0  0  0  0  0  0  0
   36.0194   26.9593   46.9948 C   0  0  1  0  0  0  0  0  0  0  0  0
   35.9692   27.9765   46.5085 H   0  0  0  0  0  0  0  0  0  0  0  0
   36.7338   26.0776   45.9631 C   0  0  2  0  0  0  0  0  0  0  0  0
   37.7746   26.4465   45.8930 H   0  0  0  0  0  0  0  0  0  0  0  0
   36.7873   24.7246   46.4238 N   0  0  0  0  0  0  0  0  0  0  0  0
   37.4794   24.6833   47.2076 H   0  0  0  0  0  0  0  0  0  0  0  0
   35.5452   24.1642   46.8580 C   0  0  0  0  0  0  0  0  0  0  0  0
   34.4005   25.1361   46.5413 C   0  0  0  0  0  0  0  0  0  0  0  0
   36.6282   27.0554   47.9158 H   0  0  0  0  0  0  0  0  0  0  0  0
   36.2753   26.2027   44.9750 H   0  0  0  0  0  0  0  0  0  0  0  0
   35.5044   23.9620   47.9304 H   0  0  0  0  0  0  0  0  0  0  0  0
   35.2825   23.2260   46.3055 H   0  0  0  0  0  0  0  0  0  0  0  0
   33.4368   24.7009   46.8571 H   0  0  0  0  0  0  0  0  0  0  0  0
   34.3269   25.2758   45.4375 H   0  0  0  0  0  0  0  0  0  0  0  0
  1  2  2  0
  3  4  2  0
  3  1  1  0
  5  4  1  0
  6  5  2  0
  7  6  1  0
  7  8  2  0
  8  3  1  0
  9  1  1  0
  9 10  2  0
 11 10  1  0
 12 13  1  0
 12 11  2  0
 13  9  1  0
 14 15  2  0
 14 12  1  0
  4 16  1  0
  5 17  1  0
  7 18  1  0
 10 19  1  0
 11 20  1  0
 21 22  1  0
 22 23  1  6
 22 24  1  0
 24 25  1  6
 24 26  1  0
 26 27  1  0
 26 28  1  0
 28 29  1  0
 29 21  1  0
 22 30  1  0
 24 31  1  0
 28 32  1  0
 28 33  1  0
 29 34  1  0
 29 35  1  0
 14 21  1  0
M  ISO  8  16  14  17  14  18  14  19  14  20  14  23   8  25   8  27   5
M  END
>  <DihAtoms>  (1) 
14,13,20,21

>  <DihDeg>  (1) 
-0.003627534816742965

$$$$
