
     RDKit          3D

 26 27  0  0  0  0  0  0  0  0999 V2000
   37.2661   30.1844   51.4187 C   0  0  0  0  0  0  0  0  0  0  0  0
   38.0969   30.7586   50.4514 C   0  0  0  0  0  0  0  0  0  0  0  0
   37.8072   30.4938   49.1010 C   0  0  0  0  0  0  0  0  0  0  0  0
   36.7427   29.7008   48.8393 N   0  0  0  0  0  0  0  0  0  0  0  0
   35.9655   29.1652   49.7842 C   0  0  0  0  0  0  0  0  0  0  0  0
   36.2203   29.4021   51.0796 N   0  0  0  0  0  0  0  0  0  0  0  0
   34.8281   28.3169   49.4810 C   0  0  0  0  0  0  0  0  0  0  0  0
   33.6232   28.7112   49.5638 O   0  0  0  0  0  0  0  0  0  0  0  0
   37.4212   30.3392   52.4835 H   0  0  0  0  0  0  0  0  0  0  0  0
   38.9172   31.3746   50.7792 H   0  0  0  0  0  0  0  0  0  0  0  0
   38.4434   30.9329   48.3445 H   0  0  0  0  0  0  0  0  0  0  0  0
   34.9550   26.9614   49.0618 N   0  0  0  0  0  0  0  0  0  0  0  0
   35.8901   26.1174   49.7814 C   0  0  2  0  0  0  0  0  0  0  0  0
   35.3446   25.4061   50.4443 H   0  0  0  0  0  0  0  0  0  0  0  0
   36.5930   25.2628   48.7350 C   0  0  1  0  0  0  0  0  0  0  0  0
   37.6760   25.2723   49.0022 H   0  0  0  0  0  0  0  0  0  0  0  0
   36.5041   25.8859   47.4422 N   0  0  0  0  0  0  0  0  0  0  0  0
   37.2249   25.6231   46.7746 H   0  0  0  0  0  0  0  0  0  0  0  0
   35.1639   25.9250   46.9145 C   0  0  0  0  0  0  0  0  0  0  0  0
   34.2038   26.3824   47.9604 C   0  0  0  0  0  0  0  0  0  0  0  0
   36.6121   26.7356   50.3521 H   0  0  0  0  0  0  0  0  0  0  0  0
   36.2720   24.2074   48.7676 H   0  0  0  0  0  0  0  0  0  0  0  0
   35.1325   26.6512   46.0753 H   0  0  0  0  0  0  0  0  0  0  0  0
   34.8510   24.9483   46.4842 H   0  0  0  0  0  0  0  0  0  0  0  0
   33.6921   25.4881   48.4025 H   0  0  0  0  0  0  0  0  0  0  0  0
   33.4711   27.0852   47.5468 H   0  0  0  0  0  0  0  0  0  0  0  0
  2  1  2  0
  3  2  1  0
  4  3  2  0
  4  5  1  0
  5  6  2  0
  6  1  1  0
  7  8  2  0
  7  5  1  0
  1  9  1  0
  2 10  1  0
  3 11  1  0
 12 13  1  0
 13 14  1  1
 13 15  1  0
 15 16  1  1
 15 17  1  0
 17 18  1  0
 17 19  1  0
 19 20  1  0
 20 12  1  0
 13 21  1  0
 15 22  1  0
 19 23  1  0
 19 24  1  0
 20 25  1  0
 20 26  1  0
  7 12  1  0
M  ISO  6   9  14  10  14  11  14  14   8  16   8  18   5
M  END
>  <DihAtoms>  (1) 
7,6,11,12

>  <DihDeg>  (1) 
0.00030514289840125915

$$$$
