
     RDKit          3D

 26 27  0  0  0  0  0  0  0  0999 V2000
   37.2661   30.1844   51.4187 C   0  0  0  0  0  0  0  0  0  0  0  0
   38.0969   30.7586   50.4514 C   0  0  0  0  0  0  0  0  0  0  0  0
   37.8072   30.4938   49.1010 C   0  0  0  0  0  0  0  0  0  0  0  0
   36.7427   29.7008   48.8393 N   0  0  0  0  0  0  0  0  0  0  0  0
   35.9655   29.1652   49.7842 C   0  0  0  0  0  0  0  0  0  0  0  0
   36.2203   29.4021   51.0796 N   0  0  0  0  0  0  0  0  0  0  0  0
   34.8281   28.3169   49.4810 C   0  0  0  0  0  0  0  0  0  0  0  0
   33.6232   28.7112   49.5638 O   0  0  0  0  0  0  0  0  0  0  0  0
   37.4212   30.3392   52.4835 H   0  0  0  0  0  0  0  0  0  0  0  0
   38.9172   31.3746   50.7792 H   0  0  0  0  0  0  0  0  0  0  0  0
   38.4434   30.9329   48.3445 H   0  0  0  0  0  0  0  0  0  0  0  0
   34.9550   26.9614   49.0618 N   0  0  0  0  0  0  0  0  0  0  0  0
   36.2607   26.5123   48.6168 C   0  0  2  0  0  0  0  0  0  0  0  0
   36.7348   25.8627   49.3890 H   0  0  0  0  0  0  0  0  0  0  0  0
   36.0204   25.6201   47.4062 C   0  0  1  0  0  0  0  0  0  0  0  0
   36.7800   25.9174   46.6453 H   0  0  0  0  0  0  0  0  0  0  0  0
   34.7420   25.9141   46.8174 N   0  0  0  0  0  0  0  0  0  0  0  0
   34.6419   25.6719   45.8348 H   0  0  0  0  0  0  0  0  0  0  0  0
   33.6269   25.5520   47.6551 C   0  0  0  0  0  0  0  0  0  0  0  0
   33.8553   26.0110   49.0559 C   0  0  0  0  0  0  0  0  0  0  0  0
   36.9036   27.3786   48.3613 H   0  0  0  0  0  0  0  0  0  0  0  0
   36.1988   24.5535   47.6262 H   0  0  0  0  0  0  0  0  0  0  0  0
   32.7147   26.0551   47.2711 H   0  0  0  0  0  0  0  0  0  0  0  0
   33.4106   24.4616   47.6219 H   0  0  0  0  0  0  0  0  0  0  0  0
   34.2218   25.1462   49.6682 H   0  0  0  0  0  0  0  0  0  0  0  0
   32.9417   26.4351   49.4888 H   0  0  0  0  0  0  0  0  0  0  0  0
  2  1  2  0
  3  2  1  0
  4  3  2  0
  4  5  1  0
  5  6  2  0
  6  1  1  0
  7  8  2  0
  7  5  1  0
  1  9  1  0
  2 10  1  0
  3 11  1  0
 12 13  1  0
 13 14  1  1
 13 15  1  0
 15 16  1  6
 15 17  1  0
 17 18  1  0
 17 19  1  0
 19 20  1  0
 20 12  1  0
 13 21  1  0
 15 22  1  0
 19 23  1  0
 19 24  1  0
 20 25  1  0
 20 26  1  0
  7 12  1  0
M  ISO  6   9  14  10  14  11  14  14   8  16   8  18   5
M  END
>  <DihAtoms>  (1) 
7,6,11,12

>  <DihDeg>  (1) 
0.00030514289840125915

$$$$
