
     RDKit          3D

 26 27  0  0  0  0  0  0  0  0999 V2000
   37.2661   30.1844   51.4187 C   0  0  0  0  0  0  0  0  0  0  0  0
   38.0969   30.7586   50.4514 C   0  0  0  0  0  0  0  0  0  0  0  0
   37.8072   30.4938   49.1010 C   0  0  0  0  0  0  0  0  0  0  0  0
   36.7427   29.7008   48.8393 N   0  0  0  0  0  0  0  0  0  0  0  0
   35.9655   29.1652   49.7842 C   0  0  0  0  0  0  0  0  0  0  0  0
   36.2203   29.4021   51.0796 N   0  0  0  0  0  0  0  0  0  0  0  0
   34.8281   28.3169   49.4810 C   0  0  0  0  0  0  0  0  0  0  0  0
   33.6232   28.7112   49.5638 O   0  0  0  0  0  0  0  0  0  0  0  0
   37.4212   30.3392   52.4835 H   0  0  0  0  0  0  0  0  0  0  0  0
   38.9172   31.3746   50.7792 H   0  0  0  0  0  0  0  0  0  0  0  0
   38.4434   30.9329   48.3445 H   0  0  0  0  0  0  0  0  0  0  0  0
   34.9550   26.9614   49.0618 N   0  0  0  0  0  0  0  0  0  0  0  0
   36.2936   26.4165   48.9364 C   0  0  2  0  0  0  0  0  0  0  0  0
   36.5133   25.7211   49.7797 H   0  0  0  0  0  0  0  0  0  0  0  0
   36.2953   25.5626   47.6754 C   0  0  1  0  0  0  0  0  0  0  0  0
   37.2392   25.8091   47.1343 H   0  0  0  0  0  0  0  0  0  0  0  0
   35.2272   25.9647   46.8008 N   0  0  0  0  0  0  0  0  0  0  0  0
   35.3556   25.7445   45.8163 H   0  0  0  0  0  0  0  0  0  0  0  0
   33.9162   25.6806   47.3271 C   0  0  0  0  0  0  0  0  0  0  0  0
   33.8243   26.1010   48.7552 C   0  0  0  0  0  0  0  0  0  0  0  0
   37.0414   27.2326   48.8749 H   0  0  0  0  0  0  0  0  0  0  0  0
   36.3351   24.4823   47.8976 H   0  0  0  0  0  0  0  0  0  0  0  0
   33.1666   26.2593   46.7476 H   0  0  0  0  0  0  0  0  0  0  0  0
   33.6355   24.6112   47.2063 H   0  0  0  0  0  0  0  0  0  0  0  0
   33.9637   25.2018   49.4103 H   0  0  0  0  0  0  0  0  0  0  0  0
   32.8657   26.5901   48.9643 H   0  0  0  0  0  0  0  0  0  0  0  0
  2  1  2  0
  3  2  1  0
  4  3  2  0
  4  5  1  0
  5  6  2  0
  6  1  1  0
  7  8  2  0
  7  5  1  0
  1  9  1  0
  2 10  1  0
  3 11  1  0
 12 13  1  0
 13 14  1  1
 13 15  1  0
 15 16  1  6
 15 17  1  0
 17 18  1  0
 17 19  1  0
 19 20  1  0
 20 12  1  0
 13 21  1  0
 15 22  1  0
 19 23  1  0
 19 24  1  0
 20 25  1  0
 20 26  1  0
  7 12  1  0
M  ISO  6   9  14  10  14  11  14  14   8  16   8  18   5
M  END
>  <DihAtoms>  (1) 
7,6,11,12

>  <DihDeg>  (1) 
0.00030514289840125915

$$$$
