
     RDKit          3D

 26 27  0  0  0  0  0  0  0  0999 V2000
   37.2661   30.1844   51.4187 C   0  0  0  0  0  0  0  0  0  0  0  0
   38.0969   30.7586   50.4514 C   0  0  0  0  0  0  0  0  0  0  0  0
   37.8072   30.4938   49.1010 C   0  0  0  0  0  0  0  0  0  0  0  0
   36.7427   29.7008   48.8393 N   0  0  0  0  0  0  0  0  0  0  0  0
   35.9655   29.1652   49.7842 C   0  0  0  0  0  0  0  0  0  0  0  0
   36.2203   29.4021   51.0796 N   0  0  0  0  0  0  0  0  0  0  0  0
   34.8281   28.3169   49.4810 C   0  0  0  0  0  0  0  0  0  0  0  0
   33.6232   28.7112   49.5638 O   0  0  0  0  0  0  0  0  0  0  0  0
   37.4212   30.3392   52.4835 H   0  0  0  0  0  0  0  0  0  0  0  0
   38.9172   31.3746   50.7792 H   0  0  0  0  0  0  0  0  0  0  0  0
   38.4434   30.9329   48.3445 H   0  0  0  0  0  0  0  0  0  0  0  0
   34.9550   26.9614   49.0618 N   0  0  0  0  0  0  0  0  0  0  0  0
   33.7908   26.3247   48.4755 C   0  0  2  0  0  0  0  0  0  0  0  0
   33.9151   26.2224   47.3723 H   0  0  0  0  0  0  0  0  0  0  0  0
   33.7509   24.9061   49.0279 C   0  0  1  0  0  0  0  0  0  0  0  0
   32.6887   24.7111   49.3074 H   0  0  0  0  0  0  0  0  0  0  0  0
   34.4980   24.8285   50.2540 N   0  0  0  0  0  0  0  0  0  0  0  0
   34.2377   24.0729   50.8830 H   0  0  0  0  0  0  0  0  0  0  0  0
   35.9154   25.0176   50.0759 C   0  0  0  0  0  0  0  0  0  0  0  0
   36.1788   26.1874   49.1887 C   0  0  0  0  0  0  0  0  0  0  0  0
   32.8700   26.8862   48.7322 H   0  0  0  0  0  0  0  0  0  0  0  0
   34.0187   24.1505   48.2695 H   0  0  0  0  0  0  0  0  0  0  0  0
   36.3743   25.2242   51.0655 H   0  0  0  0  0  0  0  0  0  0  0  0
   36.4183   24.1031   49.6915 H   0  0  0  0  0  0  0  0  0  0  0  0
   36.3922   25.8184   48.1517 H   0  0  0  0  0  0  0  0  0  0  0  0
   37.0117   26.7923   49.5658 H   0  0  0  0  0  0  0  0  0  0  0  0
  2  1  2  0
  3  2  1  0
  4  3  2  0
  4  5  1  0
  5  6  2  0
  6  1  1  0
  7  8  2  0
  7  5  1  0
  1  9  1  0
  2 10  1  0
  3 11  1  0
 12 13  1  0
 13 14  1  6
 13 15  1  0
 15 16  1  1
 15 17  1  0
 17 18  1  0
 17 19  1  0
 19 20  1  0
 20 12  1  0
 13 21  1  0
 15 22  1  0
 19 23  1  0
 19 24  1  0
 20 25  1  0
 20 26  1  0
  7 12  1  0
M  ISO  6   9  14  10  14  11  14  14   8  16   8  18   5
M  END
>  <DihAtoms>  (1) 
7,6,11,12

>  <DihDeg>  (1) 
0.00030514289840125915

$$$$
