
     RDKit          3D

 26 27  0  0  0  0  0  0  0  0999 V2000
   37.2661   30.1844   51.4187 C   0  0  0  0  0  0  0  0  0  0  0  0
   38.0969   30.7586   50.4514 C   0  0  0  0  0  0  0  0  0  0  0  0
   37.8072   30.4938   49.1010 C   0  0  0  0  0  0  0  0  0  0  0  0
   36.7427   29.7008   48.8393 N   0  0  0  0  0  0  0  0  0  0  0  0
   35.9655   29.1652   49.7842 C   0  0  0  0  0  0  0  0  0  0  0  0
   36.2203   29.4021   51.0796 N   0  0  0  0  0  0  0  0  0  0  0  0
   34.8281   28.3169   49.4810 C   0  0  0  0  0  0  0  0  0  0  0  0
   33.6232   28.7112   49.5638 O   0  0  0  0  0  0  0  0  0  0  0  0
   37.4212   30.3392   52.4835 H   0  0  0  0  0  0  0  0  0  0  0  0
   38.9172   31.3746   50.7792 H   0  0  0  0  0  0  0  0  0  0  0  0
   38.4434   30.9329   48.3445 H   0  0  0  0  0  0  0  0  0  0  0  0
   34.9550   26.9614   49.0618 N   0  0  0  0  0  0  0  0  0  0  0  0
   35.9482   26.6587   48.0486 C   0  0  2  0  0  0  0  0  0  0  0  0
   36.8269   26.1451   48.5036 H   0  0  0  0  0  0  0  0  0  0  0  0
   35.3095   25.6459   47.1076 C   0  0  1  0  0  0  0  0  0  0  0  0
   35.5617   25.9801   46.0736 H   0  0  0  0  0  0  0  0  0  0  0  0
   33.8763   25.7143   47.2015 N   0  0  0  0  0  0  0  0  0  0  0  0
   33.3638   25.3810   46.3888 H   0  0  0  0  0  0  0  0  0  0  0  0
   33.3625   25.2741   48.4737 C   0  0  0  0  0  0  0  0  0  0  0  0
   34.1493   25.8732   49.5904 C   0  0  0  0  0  0  0  0  0  0  0  0
   36.2477   27.5804   47.5102 H   0  0  0  0  0  0  0  0  0  0  0  0
   35.7371   24.6351   47.2227 H   0  0  0  0  0  0  0  0  0  0  0  0
   32.3104   25.6154   48.5704 H   0  0  0  0  0  0  0  0  0  0  0  0
   33.3321   24.1654   48.5559 H   0  0  0  0  0  0  0  0  0  0  0  0
   34.8933   25.1194   49.9582 H   0  0  0  0  0  0  0  0  0  0  0  0
   33.4944   26.2034   50.4052 H   0  0  0  0  0  0  0  0  0  0  0  0
  2  1  2  0
  3  2  1  0
  4  3  2  0
  4  5  1  0
  5  6  2  0
  6  1  1  0
  7  8  2  0
  7  5  1  0
  1  9  1  0
  2 10  1  0
  3 11  1  0
 12 13  1  0
 13 14  1  1
 13 15  1  0
 15 16  1  6
 15 17  1  0
 17 18  1  0
 17 19  1  0
 19 20  1  0
 20 12  1  0
 13 21  1  0
 15 22  1  0
 19 23  1  0
 19 24  1  0
 20 25  1  0
 20 26  1  0
  7 12  1  0
M  ISO  6   9  14  10  14  11  14  14   8  16   8  18   5
M  END
>  <DihAtoms>  (1) 
7,6,11,12

>  <DihDeg>  (1) 
0.00030514289840125915

$$$$
