
     RDKit          3D

 40 42  0  0  0  0  0  0  0  0999 V2000
   37.9339   31.5778   49.8500 C   0  0  0  0  0  0  0  0  0  0  0  0
   37.9371   31.6146   48.4536 C   0  0  0  0  0  0  0  0  0  0  0  0
   37.0790   30.8235   47.7752 C   0  0  0  0  0  0  0  0  0  0  0  0
   36.2331   30.0327   48.5019 N   0  0  0  0  0  0  0  0  0  0  0  0
   36.2256   30.0090   49.8427 C   0  0  0  0  0  0  0  0  0  0  0  0
   37.0844   30.7806   50.5067 N   0  0  0  0  0  0  0  0  0  0  0  0
   38.2180   31.2304   45.6693 C   0  0  0  0  0  0  0  0  0  0  0  0
   37.0954   30.8151   46.3401 C   0  0  0  0  0  0  0  0  0  0  0  0
   35.9777   30.4439   45.6323 C   0  0  0  0  0  0  0  0  0  0  0  0
   35.9173   30.4711   44.2600 C   0  0  0  0  0  0  0  0  0  0  0  0
   37.0077   30.8864   43.5417 C   0  0  0  0  0  0  0  0  0  0  0  0
   38.1024   31.2461   44.2660 C   0  0  0  0  0  0  0  0  0  0  0  0
   39.6984   31.6741   46.3942 S   0  0  0  0  0  0  0  0  0  0  0  0
   40.0616   33.1044   45.9937 O   0  0  0  0  0  0  0  0  0  0  0  0
   40.6307   30.8625   45.5142 O   0  0  0  0  0  0  0  0  0  0  0  0
   35.1584   29.2173   50.4933 C   0  0  0  0  0  0  0  0  0  0  0  0
   35.3516   29.0999   51.8541 F   0  0  0  0  0  0  0  0  0  0  0  0
   33.8903   29.8813   50.3863 F   0  0  0  0  0  0  0  0  0  0  0  0
   34.9296   28.0195   49.9558 F   0  0  0  0  0  0  0  0  0  0  0  0
   38.5468   32.1236   50.5729 H   0  0  0  0  0  0  0  0  0  0  0  0
   38.6148   32.3968   48.2150 H   0  0  0  0  0  0  0  0  0  0  0  0
   35.1125   30.1157   46.2374 H   0  0  0  0  0  0  0  0  0  0  0  0
   34.9862   30.1486   43.8557 H   0  0  0  0  0  0  0  0  0  0  0  0
   36.9623   30.9123   42.4799 H   0  0  0  0  0  0  0  0  0  0  0  0
   38.9848   31.5828   43.6943 H   0  0  0  0  0  0  0  0  0  0  0  0
   41.1211   32.9302   48.5101 H   0  0  0  0  0  0  0  0  0  0  0  0
   40.9688   31.9647   48.7860 N   0  0  0  0  0  0  0  0  0  0  0  0
   40.7023   31.0915   47.5972 C   0  0  1  0  0  0  0  0  0  0  0  0
   40.0482   29.8677   48.2343 C   0  0  1  0  0  0  0  0  0  0  0  0
   38.9392   29.8490   48.0002 H   0  0  0  0  0  0  0  0  0  0  0  0
   40.1093   29.8345   49.6645 N   0  0  0  0  0  0  0  0  0  0  0  0
   39.3782   30.3448   50.1683 H   0  0  0  0  0  0  0  0  0  0  0  0
   41.4442   30.0496   50.1336 C   0  0  0  0  0  0  0  0  0  0  0  0
   41.9506   31.3879   49.6418 C   0  0  0  0  0  0  0  0  0  0  0  0
   41.7124   30.6575   47.4537 H   0  0  0  0  0  0  0  0  0  0  0  0
   40.3912   28.8906   47.8768 H   0  0  0  0  0  0  0  0  0  0  0  0
   42.0892   29.2258   49.7078 H   0  0  0  0  0  0  0  0  0  0  0  0
   41.4648   30.0057   51.2541 H   0  0  0  0  0  0  0  0  0  0  0  0
   42.9249   31.2677   49.1212 H   0  0  0  0  0  0  0  0  0  0  0  0
   42.0423   32.0570   50.5182 H   0  0  0  0  0  0  0  0  0  0  0  0
  1  6  2  0
  2  1  1  0
  3  2  2  0
  3  4  1  0
  4  5  2  0
  5 16  1  0
  5  6  1  0
  7  8  1  0
  7 13  1  0
  8  3  1  0
  9  8  2  0
 10  9  1  0
 11 12  1  0
 11 10  2  0
 12  7  2  0
 14 13  2  0
 15 13  2  0
 16 17  1  0
 18 16  1  0
 19 16  1  0
  1 20  1  0
  2 21  1  0
  9 22  1  0
 10 23  1  0
 11 24  1  0
 12 25  1  0
 26 27  1  0
 27 28  1  0
 28 29  1  0
 29 30  1  1
 29 31  1  0
 31 32  1  0
 31 33  1  0
 33 34  1  0
 34 27  1  0
 28 35  1  6
 29 36  1  0
 33 37  1  0
 33 38  1  0
 34 39  1  0
 34 40  1  0
 13 28  1  0
M  ISO  8  20  14  21  14  22  14  23  14  24  14  25  14  26   5  30   8
M  ISO  1  32   5
M  END
>  <DihAtoms>  (1) 
6,12,27,26

>  <DihDeg>  (1) 
60.531611825186054

$$$$
