
     RDKit          3D

 46 50  0  0  0  0  0  0  0  0999 V2000
   35.6090   29.6990   49.6280 C   0  0  0  0  0  0  0  0  0  0  0  0
   36.5930   29.5150   50.5900 C   0  0  0  0  0  0  0  0  0  0  0  0
   37.7240   30.0700   49.9880 C   0  0  0  0  0  0  0  0  0  0  0  0
   37.3780   30.5450   48.7380 C   0  0  0  0  0  0  0  0  0  0  0  0
   36.1020   30.3010   48.5630 O   0  0  0  0  0  0  0  0  0  0  0  0
   38.7890   32.4360   48.0810 C   0  0  0  0  0  0  0  0  0  0  0  0
   38.2540   31.1990   47.7730 C   0  0  0  0  0  0  0  0  0  0  0  0
   38.5260   30.5610   46.5750 C   0  0  0  0  0  0  0  0  0  0  0  0
   39.3560   31.1520   45.6330 C   0  0  0  0  0  0  0  0  0  0  0  0
   39.8080   30.8200   44.4180 N   0  0  0  0  0  0  0  0  0  0  0  0
   40.5870   31.8130   43.9990 N   0  0  0  0  0  0  0  0  0  0  0  0
   40.6460   32.7910   44.9320 C   0  0  0  0  0  0  0  0  0  0  0  0
   39.8570   32.3780   45.9900 C   0  0  0  0  0  0  0  0  0  0  0  0
   39.6330   33.0780   47.1640 C   0  0  0  0  0  0  0  0  0  0  0  0
   34.2270   29.2690   49.8090 C   0  0  0  0  0  0  0  0  0  0  0  0
   33.6460   29.5650   50.8710 O   0  0  0  0  0  0  0  0  0  0  0  0
   31.7580   27.1910   48.1060 C   0  0  0  0  0  0  0  0  0  0  0  0
   32.2690   27.0850   46.8290 C   0  0  0  0  0  0  0  0  0  0  0  0
   33.4500   27.7080   46.5150 C   0  0  0  0  0  0  0  0  0  0  0  0
   34.0600   28.4050   47.4940 N   0  0  0  0  0  0  0  0  0  0  0  0
   33.5560   28.5060   48.7410 C   0  0  0  0  0  0  0  0  0  0  0  0
   32.4040   27.8970   49.0420 N   0  0  0  0  0  0  0  0  0  0  0  0
   34.1140   27.7000   45.2550 N   0  0  0  0  0  0  0  0  0  0  0  0
   34.7210   28.9000   44.6620 C   0  0  0  0  0  0  0  0  0  0  0  0
   34.4500   28.9700   43.1950 C   0  0  0  0  0  0  0  0  0  0  0  0
   33.3490   28.1340   42.7590 N   0  0  0  0  0  0  0  0  0  0  0  0
   33.5530   26.7480   43.0840 C   0  0  0  0  0  0  0  0  0  0  0  0
   34.2910   26.5640   44.3900 C   0  0  0  0  0  0  0  0  0  0  0  0
   36.5037   29.0474   51.5817 H   0  0  0  0  0  0  0  0  0  0  0  0
   38.7272   30.1207   50.4362 H   0  0  0  0  0  0  0  0  0  0  0  0
   38.5532   32.9151   49.0427 H   0  0  0  0  0  0  0  0  0  0  0  0
   38.0803   29.5769   46.3679 H   0  0  0  0  0  0  0  0  0  0  0  0
   39.5923   29.9548   43.9024 H   0  0  0  0  0  0  0  0  0  0  0  0
   41.2117   33.7319   44.8625 H   0  0  0  0  0  0  0  0  0  0  0  0
   40.0828   34.0622   47.3617 H   0  0  0  0  0  0  0  0  0  0  0  0
   30.8111   26.6908   48.3574 H   0  0  0  0  0  0  0  0  0  0  0  0
   31.7315   26.5032   46.0657 H   0  0  0  0  0  0  0  0  0  0  0  0
   34.3008   29.7929   45.1481 H   0  0  0  0  0  0  0  0  0  0  0  0
   35.8093   28.8531   44.8146 H   0  0  0  0  0  0  0  0  0  0  0  0
   34.2162   30.0131   42.9357 H   0  0  0  0  0  0  0  0  0  0  0  0
   35.3522   28.5995   42.6863 H   0  0  0  0  0  0  0  0  0  0  0  0
   33.2497   28.2234   41.7377 H   0  0  0  0  0  0  0  0  0  0  0  0
   32.5725   26.2552   43.1600 H   0  0  0  0  0  0  0  0  0  0  0  0
   34.1672   26.3039   42.2868 H   0  0  0  0  0  0  0  0  0  0  0  0
   33.9068   25.6656   44.8952 H   0  0  0  0  0  0  0  0  0  0  0  0
   35.3637   26.4584   44.1707 H   0  0  0  0  0  0  0  0  0  0  0  0
  1 15  1  0
  1  2  2  0
  3  2  1  0
  4  3  2  0
  5  4  1  0
  5  1  1  0
  7  6  2  0
  7  4  1  0
  8  7  1  0
  9 13  1  0
  9  8  2  0
 10  9  1  0
 11 10  1  0
 11 12  2  0
 12 13  1  0
 13 14  2  0
 14  6  1  0
 15 16  2  0
 17 22  2  0
 18 17  1  0
 19 18  2  0
 19 20  1  0
 20 21  2  0
 21 22  1  0
 21 15  1  0
 23 19  1  0
 24 23  1  0
 25 24  1  0
 26 27  1  0
 26 25  1  0
 27 28  1  0
 28 23  1  0
  2 29  1  0
  3 30  1  0
  6 31  1  0
  8 32  1  0
 10 33  1  0
 12 34  1  0
 14 35  1  0
 17 36  1  0
 18 37  1  0
 24 38  1  0
 24 39  1  0
 25 40  1  0
 25 41  1  0
 26 42  1  0
 27 43  1  0
 27 44  1  0
 28 45  1  0
 28 46  1  0
M  ISO  8  29  14  30  14  31  14  32  14  33   9  34  14  35  14  36  14
M  ISO  8  37  14  38  13  39  13  40  13  41  13  42   5  43  13  44  13
M  ISO  2  45  13  46  13
M  END
>  <minimizedAffinity>  (1) 
-6.3987813

>  <minimizedRMSD>  (1) 
1.55107594

$$$$
