
     RDKit          3D

 37 39  0  0  0  0  0  0  0  0999 V2000
   37.4610   30.2240   51.3940 C   0  0  0  0  0  0  0  0  0  0  0  0
   38.0890   30.9120   50.3360 C   0  0  0  0  0  0  0  0  0  0  0  0
   37.6660   30.6780   49.0350 C   0  0  0  0  0  0  0  0  0  0  0  0
   36.6520   29.7760   48.8880 N   0  0  0  0  0  0  0  0  0  0  0  0
   36.0620   29.1290   49.8930 C   0  0  0  0  0  0  0  0  0  0  0  0
   36.4690   29.3560   51.1580 N   0  0  0  0  0  0  0  0  0  0  0  0
   38.2480   31.3290   47.9140 N   0  0  0  0  0  0  0  0  0  0  0  0
   38.2800   30.6460   46.6300 C   0  0  0  0  0  0  0  0  0  0  0  0
   39.6530   30.9710   46.0350 C   0  0  0  0  0  0  0  0  0  0  0  0
   39.6190   32.3990   45.7820 N   0  0  0  0  0  0  0  0  0  0  0  0
   39.6350   33.1610   47.0000 C   0  0  0  0  0  0  0  0  0  0  0  0
   38.7810   32.6420   48.1010 C   0  0  0  0  0  0  0  0  0  0  0  0
   35.0690   28.2770   49.4980 O   0  0  0  0  0  0  0  0  0  0  0  0
   34.2840   28.6250   48.3670 C   0  0  0  0  0  0  0  0  0  0  0  0
   33.4010   27.4960   47.9550 C   0  0  0  0  0  0  0  0  0  0  0  0
   31.9660   27.9050   47.8460 C   0  0  0  0  0  0  0  0  0  0  0  0
   31.1430   27.5620   48.9080 C   0  0  0  0  0  0  0  0  0  0  0  0
   29.8020   27.8850   48.9220 C   0  0  0  0  0  0  0  0  0  0  0  0
   29.2850   28.5410   47.8930 N   0  0  0  0  0  0  0  0  0  0  0  0
   30.0990   28.8740   46.8530 C   0  0  0  0  0  0  0  0  0  0  0  0
   31.3980   28.5690   46.8240 N   0  0  0  0  0  0  0  0  0  0  0  0
   37.7905   30.4027   52.4282 H   0  0  0  0  0  0  0  0  0  0  0  0
   38.9026   31.6241   50.5386 H   0  0  0  0  0  0  0  0  0  0  0  0
   38.1667   29.5606   46.7678 H   0  0  0  0  0  0  0  0  0  0  0  0
   37.4602   30.9700   45.9720 H   0  0  0  0  0  0  0  0  0  0  0  0
   40.4529   30.7228   46.7482 H   0  0  0  0  0  0  0  0  0  0  0  0
   39.8572   30.3924   45.1220 H   0  0  0  0  0  0  0  0  0  0  0  0
   39.5872   32.8170   44.8411 H   0  0  0  0  0  0  0  0  0  0  0  0
   40.2415   34.0719   47.1111 H   0  0  0  0  0  0  0  0  0  0  0  0
   38.5720   33.2329   49.0050 H   0  0  0  0  0  0  0  0  0  0  0  0
   33.6600   29.4955   48.6176 H   0  0  0  0  0  0  0  0  0  0  0  0
   34.9609   28.8601   47.5324 H   0  0  0  0  0  0  0  0  0  0  0  0
   33.7375   27.1233   46.9763 H   0  0  0  0  0  0  0  0  0  0  0  0
   33.4699   26.7167   48.7283 H   0  0  0  0  0  0  0  0  0  0  0  0
   31.5711   27.0175   49.7625 H   0  0  0  0  0  0  0  0  0  0  0  0
   29.1698   27.6017   49.7764 H   0  0  0  0  0  0  0  0  0  0  0  0
   29.6671   29.4179   46.0000 H   0  0  0  0  0  0  0  0  0  0  0  0
  2  1  2  0
  3  2  1  0
  4  3  2  0
  4  5  1  0
  5  6  2  0
  6  1  1  0
  7 12  1  0
  7  3  1  0
  8  7  1  0
  9  8  1  0
 10  9  1  0
 10 11  1  0
 11 12  2  0
 13  5  1  0
 14 13  1  0
 15 14  1  0
 16 15  1  0
 16 17  2  0
 17 18  1  0
 19 18  2  0
 20 19  1  0
 21 20  2  0
 21 16  1  0
  1 22  1  0
  2 23  1  0
  8 24  1  0
  8 25  1  0
  9 26  1  0
  9 27  1  0
 10 28  1  0
 11 29  1  0
 12 30  1  0
 14 31  1  0
 14 32  1  0
 15 33  1  0
 15 34  1  0
 17 35  1  0
 18 36  1  0
 20 37  1  0
M  ISO  8  22  14  23  14  24  13  25  13  26  13  27  13  29  13  30  13
M  ISO  7  31   8  32   8  33   8  34   8  35  14  36  14  37  14
M  END
>  <minimizedAffinity>  (1) 
-5.77930689

>  <minimizedRMSD>  (1) 
0.790948331

$$$$
