
     RDKit          3D

 47 50  0  0  0  0  0  0  0  0999 V2000
   33.9974   28.8174   48.2956 C   0  0  0  0  0  0  0  0  0  0  0  0
   34.6291   28.3647   49.4063 C   0  0  0  0  0  0  0  0  0  0  0  0
   35.8572   28.7940   49.8440 C   0  0  0  0  0  0  0  0  0  0  0  0
   36.5380   29.7481   49.1465 C   0  0  0  0  0  0  0  0  0  0  0  0
   35.8951   30.2271   47.9936 C   0  0  0  0  0  0  0  0  0  0  0  0
   34.6878   29.7808   47.5948 N   0  0  0  0  0  0  0  0  0  0  0  0
   31.9157   27.4832   48.5439 C   0  0  0  0  0  0  0  0  0  0  0  0
   32.7310   28.3688   47.8362 C   0  0  0  0  0  0  0  0  0  0  0  0
   32.2474   28.8058   46.6235 C   0  0  0  0  0  0  0  0  0  0  0  0
   31.0237   28.3713   46.1664 N   0  0  0  0  0  0  0  0  0  0  0  0
   30.2872   27.5005   46.9249 C   0  0  0  0  0  0  0  0  0  0  0  0
   30.7182   27.0481   48.1145 N   0  0  0  0  0  0  0  0  0  0  0  0
   37.7819   30.2987   49.4362 O   0  0  0  0  0  0  0  0  0  0  0  0
   38.3632   31.2574   48.6423 C   0  0  0  0  0  0  0  0  0  0  0  0
   38.4431   32.5238   49.2237 C   0  0  0  0  0  0  0  0  0  0  0  0
   39.0468   33.3777   48.3142 C   0  0  0  0  0  0  0  0  0  0  0  0
   39.3167   32.6344   47.2228 N   0  0  0  0  0  0  0  0  0  0  0  0
   38.9151   31.3975   47.4208 N   0  0  0  0  0  0  0  0  0  0  0  0
   39.9483   33.0906   45.9826 C   0  0  0  0  0  0  0  0  0  0  0  0
   40.6862   31.9320   45.4064 C   0  0  0  0  0  0  0  0  0  0  0  0
   34.1558   27.5962   50.0286 H   0  0  0  0  0  0  0  0  0  0  0  0
   36.3537   28.4224   50.7365 H   0  0  0  0  0  0  0  0  0  0  0  0
   36.3747   30.9859   47.3881 H   0  0  0  0  0  0  0  0  0  0  0  0
   32.2465   27.1087   49.5008 H   0  0  0  0  0  0  0  0  0  0  0  0
   32.8411   29.4991   46.0324 H   0  0  0  0  0  0  0  0  0  0  0  0
   29.3433   27.2600   46.4091 H   0  0  0  0  0  0  0  0  0  0  0  0
   38.1448   32.9460   50.1857 H   0  0  0  0  0  0  0  0  0  0  0  0
   39.2828   34.4434   48.4043 H   0  0  0  0  0  0  0  0  0  0  0  0
   39.2598   33.6197   45.3402 H   0  0  0  0  0  0  0  0  0  0  0  0
   40.7472   33.8073   46.3498 H   0  0  0  0  0  0  0  0  0  0  0  0
   41.4421   31.5066   46.1058 H   0  0  0  0  0  0  0  0  0  0  0  0
   40.0215   31.0592   45.1646 H   0  0  0  0  0  0  0  0  0  0  0  0
   41.3304   32.3471   44.1651 N   0  0  0  0  0  0  0  0  0  0  0  0
   42.7100   32.7730   44.4595 C   0  0  2  0  0  0  0  0  0  0  0  0
   43.0711   32.3566   45.3955 H   0  0  0  0  0  0  0  0  0  0  0  0
   43.6120   32.4644   43.2777 C   0  0  2  0  0  0  0  0  0  0  0  0
   44.5983   32.9067   43.5186 H   0  0  0  0  0  0  0  0  0  0  0  0
   43.8032   31.0213   43.1490 N   0  0  0  0  0  0  0  0  0  0  0  0
   44.6131   30.6800   43.7180 H   0  0  0  0  0  0  0  0  0  0  0  0
   42.5786   30.3193   43.4901 C   0  0  0  0  0  0  0  0  0  0  0  0
   41.3871   31.2280   43.2230 C   0  0  0  0  0  0  0  0  0  0  0  0
   42.6767   33.8789   44.5506 H   0  0  0  0  0  0  0  0  0  0  0  0
   43.2330   32.9393   42.3675 H   0  0  0  0  0  0  0  0  0  0  0  0
   42.5660   30.0361   44.5570 H   0  0  0  0  0  0  0  0  0  0  0  0
   42.4370   29.4081   42.8956 H   0  0  0  0  0  0  0  0  0  0  0  0
   41.4192   31.6613   42.2047 H   0  0  0  0  0  0  0  0  0  0  0  0
   40.4926   30.6172   43.3577 H   0  0  0  0  0  0  0  0  0  0  0  0
  1  2  2  0
  2  3  1  0
  4 13  1  0
  4  3  2  0
  5  4  1  0
  6  5  2  0
  6  1  1  0
  8  1  1  0
  8  7  2  0
  9  8  1  0
 10  9  2  0
 10 11  1  0
 11 12  2  0
 12  7  1  0
 14 15  1  0
 14 13  1  0
 16 15  2  0
 17 18  1  0
 17 16  1  0
 18 14  2  0
 19 17  1  0
 20 19  1  0
  2 21  1  0
  3 22  1  0
  5 23  1  0
  7 24  1  0
  9 25  1  0
 11 26  1  0
 15 27  1  0
 16 28  1  0
 19 29  1  0
 19 30  1  0
 20 31  1  0
 20 32  1  0
 33 34  1  0
 34 35  1  1
 34 36  1  0
 36 37  1  1
 36 38  1  0
 38 39  1  0
 38 40  1  0
 40 41  1  0
 41 33  1  0
 34 42  1  0
 36 43  1  0
 40 44  1  0
 40 45  1  0
 41 46  1  0
 41 47  1  0
 20 33  1  0
M  ISO  8  21  14  22  14  23  14  24  14  25  14  26  14  27  14  28  14
M  ISO  7  29   8  30   8  31   8  32   8  35   8  37   8  39   5
M  END
>  <DihAtoms>  (1) 
18,19,32,33

>  <DihDeg>  (1) 
168.55110336009827

$$$$
