
     RDKit          3D

 47 51  0  0  0  0  0  0  0  0999 V2000
   37.5120   31.1290   49.6280 C   0  0  0  0  0  0  0  0  0  0  0  0
   37.7540   30.6580   50.8980 C   0  0  0  0  0  0  0  0  0  0  0  0
   36.9310   29.6890   51.4120 C   0  0  0  0  0  0  0  0  0  0  0  0
   35.8980   29.2120   50.6660 N   0  0  0  0  0  0  0  0  0  0  0  0
   35.6970   29.6900   49.4480 C   0  0  0  0  0  0  0  0  0  0  0  0
   36.4880   30.6520   48.8980 N   0  0  0  0  0  0  0  0  0  0  0  0
   34.5900   29.1880   48.6340 C   0  0  0  0  0  0  0  0  0  0  0  0
   34.5250   29.3950   47.2870 C   0  0  0  0  0  0  0  0  0  0  0  0
   33.5470   28.9800   46.4100 C   0  0  0  0  0  0  0  0  0  0  0  0
   32.5180   28.2640   47.0210 C   0  0  0  0  0  0  0  0  0  0  0  0
   31.5160   27.8200   46.2170 N   0  0  0  0  0  0  0  0  0  0  0  0
   30.4810   27.1240   46.7020 C   0  0  0  0  0  0  0  0  0  0  0  0
   30.4200   26.8410   48.0540 C   0  0  0  0  0  0  0  0  0  0  0  0
   31.4390   27.2910   48.8720 C   0  0  0  0  0  0  0  0  0  0  0  0
   32.5200   28.0160   48.3820 C   0  0  0  0  0  0  0  0  0  0  0  0
   33.5380   28.4680   49.1850 C   0  0  0  0  0  0  0  0  0  0  0  0
   39.4470   34.2090   49.1150 C   0  0  0  0  0  0  0  0  0  0  0  0
   39.9480   34.0560   47.8290 C   0  0  0  0  0  0  0  0  0  0  0  0
   39.6070   32.8710   47.1380 C   0  0  0  0  0  0  0  0  0  0  0  0
   38.8190   31.9800   47.7860 N   0  0  0  0  0  0  0  0  0  0  0  0
   38.3560   32.1630   49.0280 C   0  0  0  0  0  0  0  0  0  0  0  0
   38.6820   33.2870   49.6770 N   0  0  0  0  0  0  0  0  0  0  0  0
   39.9980   32.4940   45.8210 N   0  0  0  0  0  0  0  0  0  0  0  0
   39.8840   33.3890   44.6580 C   0  0  0  0  0  0  0  0  0  0  0  0
   38.9240   32.7130   43.7130 C   0  0  0  0  0  0  0  0  0  0  0  0
   39.3250   31.3570   43.4070 N   0  0  0  0  0  0  0  0  0  0  0  0
   39.4990   30.5400   44.5610 C   0  0  0  0  0  0  0  0  0  0  0  0
   40.5490   31.2020   45.4630 C   0  0  0  0  0  0  0  0  0  0  0  0
   38.5929   31.0518   51.4906 H   0  0  0  0  0  0  0  0  0  0  0  0
   37.1056   29.2982   52.4253 H   0  0  0  0  0  0  0  0  0  0  0  0
   35.3570   29.9640   46.8465 H   0  0  0  0  0  0  0  0  0  0  0  0
   33.5750   29.1930   45.3312 H   0  0  0  0  0  0  0  0  0  0  0  0
   29.6828   26.7788   46.0284 H   0  0  0  0  0  0  0  0  0  0  0  0
   29.5774   26.2692   48.4701 H   0  0  0  0  0  0  0  0  0  0  0  0
   31.3935   27.0680   49.9482 H   0  0  0  0  0  0  0  0  0  0  0  0
   33.5203   28.2598   50.2650 H   0  0  0  0  0  0  0  0  0  0  0  0
   39.6923   35.1198   49.6810 H   0  0  0  0  0  0  0  0  0  0  0  0
   40.5841   34.8254   47.3670 H   0  0  0  0  0  0  0  0  0  0  0  0
   39.4919   34.3695   44.9660 H   0  0  0  0  0  0  0  0  0  0  0  0
   40.8614   33.5653   44.1851 H   0  0  0  0  0  0  0  0  0  0  0  0
   37.9264   32.6919   44.1760 H   0  0  0  0  0  0  0  0  0  0  0  0
   38.9159   33.2840   42.7728 H   0  0  0  0  0  0  0  0  0  0  0  0
   38.6012   30.9298   42.8116 H   0  0  0  0  0  0  0  0  0  0  0  0
   38.5454   30.4520   45.1022 H   0  0  0  0  0  0  0  0  0  0  0  0
   39.8307   29.5332   44.2673 H   0  0  0  0  0  0  0  0  0  0  0  0
   40.7190   30.5943   46.3640 H   0  0  0  0  0  0  0  0  0  0  0  0
   41.5188   31.3007   44.9533 H   0  0  0  0  0  0  0  0  0  0  0  0
  1  2  2  0
  2  3  1  0
  4  3  2  0
  5  4  1  0
  6  5  2  0
  6  1  1  0
  7 16  1  0
  7  5  1  0
  8  7  2  0
  9 10  2  0
  9  8  1  0
 10 15  1  0
 11 12  2  0
 11 10  1  0
 12 13  1  0
 13 14  2  0
 15 14  1  0
 15 16  2  0
 17 22  2  0
 18 17  1  0
 19 20  1  0
 19 18  2  0
 20 21  2  0
 21  1  1  0
 21 22  1  0
 23 19  1  0
 24 23  1  0
 25 24  1  0
 26 25  1  0
 26 27  1  0
 27 28  1  0
 28 23  1  0
  2 29  1  0
  3 30  1  0
  8 31  1  0
  9 32  1  0
 12 33  1  0
 13 34  1  0
 14 35  1  0
 16 36  1  0
 17 37  1  0
 18 38  1  0
 24 39  1  0
 24 40  1  0
 25 41  1  0
 25 42  1  0
 26 43  1  0
 27 44  1  0
 27 45  1  0
 28 46  1  0
 28 47  1  0
M  END
>  <minimizedAffinity>  (1) 
-7.72186613

>  <minimizedRMSD>  (1) 
0.397792846

$$$$
