
     RDKit          3D

 49 52  0  0  0  0  0  0  0  0999 V2000
   34.3660   29.1420   47.8090 C   0  0  0  0  0  0  0  0  0  0  0  0
   33.5210   28.1270   47.1000 C   0  0  0  0  0  0  0  0  0  0  0  0
   32.1200   28.1170   47.5890 C   0  0  0  0  0  0  0  0  0  0  0  0
   31.8760   27.6710   48.8770 C   0  0  0  0  0  0  0  0  0  0  0  0
   30.6220   27.6260   49.4110 C   0  0  0  0  0  0  0  0  0  0  0  0
   29.5920   28.0220   48.6820 N   0  0  0  0  0  0  0  0  0  0  0  0
   29.8210   28.4640   47.4120 C   0  0  0  0  0  0  0  0  0  0  0  0
   31.0520   28.5200   46.8550 N   0  0  0  0  0  0  0  0  0  0  0  0
   28.7410   28.8990   46.5920 N   0  0  0  0  0  0  0  0  0  0  0  0
   28.7340   28.7870   45.1450 C   0  0  0  0  0  0  0  0  0  0  0  0
   27.3340   29.1590   44.6860 C   0  0  0  0  0  0  0  0  0  0  0  0
   26.3200   28.4740   45.4340 N   0  0  0  0  0  0  0  0  0  0  0  0
   26.3870   28.6380   46.8530 C   0  0  0  0  0  0  0  0  0  0  0  0
   27.5740   29.4910   47.2200 C   0  0  0  0  0  0  0  0  0  0  0  0
   35.1690   28.5090   48.8050 O   0  0  0  0  0  0  0  0  0  0  0  0
   37.2770   30.0820   51.2750 C   0  0  0  0  0  0  0  0  0  0  0  0
   38.0900   30.8890   50.4280 C   0  0  0  0  0  0  0  0  0  0  0  0
   37.8450   30.8260   49.0700 C   0  0  0  0  0  0  0  0  0  0  0  0
   36.8370   29.9900   48.6460 N   0  0  0  0  0  0  0  0  0  0  0  0
   36.1010   29.2530   49.4650 C   0  0  0  0  0  0  0  0  0  0  0  0
   36.3190   29.2960   50.7940 N   0  0  0  0  0  0  0  0  0  0  0  0
   38.8640   33.5350   49.2180 F   0  0  0  0  0  0  0  0  0  0  0  0
   39.0480   32.8290   48.1040 C   0  0  0  0  0  0  0  0  0  0  0  0
   38.5640   31.5700   48.0610 C   0  0  0  0  0  0  0  0  0  0  0  0
   38.8120   30.9190   46.8470 C   0  0  0  0  0  0  0  0  0  0  0  0
   39.4850   31.5130   45.8070 C   0  0  0  0  0  0  0  0  0  0  0  0
   39.9560   32.8030   45.9110 C   0  0  0  0  0  0  0  0  0  0  0  0
   39.7260   33.4630   47.0900 C   0  0  0  0  0  0  0  0  0  0  0  0
   33.7133   29.8865   48.2883 H   0  0  0  0  0  0  0  0  0  0  0  0
   35.0244   29.6334   47.0775 H   0  0  0  0  0  0  0  0  0  0  0  0
   33.9580   27.1302   47.2593 H   0  0  0  0  0  0  0  0  0  0  0  0
   33.5020   28.3927   46.0327 H   0  0  0  0  0  0  0  0  0  0  0  0
   32.7256   27.3406   49.4926 H   0  0  0  0  0  0  0  0  0  0  0  0
   30.4686   27.2638   50.4383 H   0  0  0  0  0  0  0  0  0  0  0  0
   29.4720   29.4756   44.7077 H   0  0  0  0  0  0  0  0  0  0  0  0
   28.9980   27.7681   44.8253 H   0  0  0  0  0  0  0  0  0  0  0  0
   27.1960   30.2430   44.8120 H   0  0  0  0  0  0  0  0  0  0  0  0
   27.2341   28.8632   43.6312 H   0  0  0  0  0  0  0  0  0  0  0  0
   25.4032   28.8204   45.1172 H   0  0  0  0  0  0  0  0  0  0  0  0
   25.4661   29.1244   47.2070 H   0  0  0  0  0  0  0  0  0  0  0  0
   26.4936   27.6502   47.3251 H   0  0  0  0  0  0  0  0  0  0  0  0
   27.7021   29.5079   48.3124 H   0  0  0  0  0  0  0  0  0  0  0  0
   27.4304   30.5265   46.8777 H   0  0  0  0  0  0  0  0  0  0  0  0
   37.4474   30.1102   52.3614 H   0  0  0  0  0  0  0  0  0  0  0  0
   38.8799   31.5353   50.8383 H   0  0  0  0  0  0  0  0  0  0  0  0
   38.4525   29.8872   46.7202 H   0  0  0  0  0  0  0  0  0  0  0  0
   39.6502   30.9496   44.8768 H   0  0  0  0  0  0  0  0  0  0  0  0
   40.4949   33.2841   45.0815 H   0  0  0  0  0  0  0  0  0  0  0  0
   40.0822   34.4950   47.2242 H   0  0  0  0  0  0  0  0  0  0  0  0
  1 15  1  0
  2  3  1  0
  2  1  1  0
  3  4  2  0
  4  5  1  0
  6  5  2  0
  7  6  1  0
  8  7  2  0
  8  3  1  0
  9 14  1  0
  9  7  1  0
 10  9  1  0
 11 10  1  0
 11 12  1  0
 12 13  1  0
 13 14  1  0
 15 20  1  0
 17 16  2  0
 18 17  1  0
 19 18  2  0
 19 20  1  0
 20 21  2  0
 21 16  1  0
 23 22  1  0
 24 23  2  0
 24 18  1  0
 25 24  1  0
 26 27  1  0
 26 25  2  0
 27 28  2  0
 28 23  1  0
  1 29  1  0
  1 30  1  0
  2 31  1  0
  2 32  1  0
  4 33  1  0
  5 34  1  0
 10 35  1  0
 10 36  1  0
 11 37  1  0
 11 38  1  0
 12 39  1  0
 13 40  1  0
 13 41  1  0
 14 42  1  0
 14 43  1  0
 16 44  1  0
 17 45  1  0
 25 46  1  0
 26 47  1  0
 27 48  1  0
 28 49  1  0
M  ISO  8  29   8  30   8  31   8  32   8  33  14  34  14  35  13  36  13
M  ISO  8  37  13  38  13  39   5  40  13  41  13  42  13  43  13  44  14
M  ISO  5  45  14  46  14  47  14  48  14  49  14
M  END
>  <minimizedAffinity>  (1) 
-7.11884546

>  <minimizedRMSD>  (1) 
1.08973229

$$$$
