
     RDKit          3D

 47 49  0  0  1  0  0  0  0  0999 V2000
   38.5380   31.5660   48.2290 C   0  0  2  0  0  0  0  0  0  0  0  0
   38.1440   31.8750   49.6650 C   0  0  0  0  0  0  0  0  0  0  0  0
   38.4540   33.3170   50.0100 C   0  0  0  0  0  0  0  0  0  0  0  0
   39.6960   33.7250   49.2840 C   0  0  0  0  0  0  0  0  0  0  0  0
   39.2480   33.9550   47.8450 C   0  0  0  0  0  0  0  0  0  0  0  0
   38.5220   32.7640   47.3650 C   0  0  1  0  0  0  0  0  0  0  0  0
   39.1880   32.5080   46.0950 N   0  0  0  0  0  0  0  0  0  0  0  0
   39.9800   31.3150   46.2190 C   0  0  0  0  0  0  0  0  0  0  0  0
   40.9030   31.2090   45.0290 C   0  0  0  0  0  0  0  0  0  0  0  0
   40.4350   32.0010   43.9420 N   0  0  0  0  0  0  0  0  0  0  0  0
   39.0010   31.9100   43.7440 C   0  0  0  0  0  0  0  0  0  0  0  0
   38.2820   32.4310   44.9880 C   0  0  0  0  0  0  0  0  0  0  0  0
   37.2970   30.3920   47.6150 S   0  0  0  0  0  0  0  0  0  0  0  0
   35.7560   30.4190   48.5430 C   0  0  0  0  0  0  0  0  0  0  0  0
   35.0500   29.1110   48.4740 C   0  0  0  0  0  0  0  0  0  0  0  0
   32.3770   30.0920   46.0550 C   0  0  0  0  0  0  0  0  0  0  0  0
   33.5850   30.0970   46.7550 C   0  0  0  0  0  0  0  0  0  0  0  0
   33.8380   29.1370   47.6910 C   0  0  0  0  0  0  0  0  0  0  0  0
   32.8550   28.1840   47.8960 N   0  0  0  0  0  0  0  0  0  0  0  0
   31.7090   28.1980   47.2160 C   0  0  0  0  0  0  0  0  0  0  0  0
   31.4440   29.1420   46.2880 N   0  0  0  0  0  0  0  0  0  0  0  0
   39.5642   31.1705   48.2063 H   0  0  0  0  0  0  0  0  0  0  0  0
   37.0653   31.6985   49.7888 H   0  0  0  0  0  0  0  0  0  0  0  0
   38.7189   31.2206   50.3367 H   0  0  0  0  0  0  0  0  0  0  0  0
   37.6164   33.9600   49.7018 H   0  0  0  0  0  0  0  0  0  0  0  0
   38.6020   33.4203   51.0951 H   0  0  0  0  0  0  0  0  0  0  0  0
   40.1100   34.6492   49.7134 H   0  0  0  0  0  0  0  0  0  0  0  0
   40.4878   32.9648   49.3560 H   0  0  0  0  0  0  0  0  0  0  0  0
   38.5850   34.8317   47.8021 H   0  0  0  0  0  0  0  0  0  0  0  0
   40.1276   34.1321   47.2087 H   0  0  0  0  0  0  0  0  0  0  0  0
   37.4415   32.9658   47.3217 H   0  0  0  0  0  0  0  0  0  0  0  0
   40.5745   31.3620   47.1433 H   0  0  0  0  0  0  0  0  0  0  0  0
   39.3211   30.4350   46.2565 H   0  0  0  0  0  0  0  0  0  0  0  0
   41.9053   31.5561   45.3203 H   0  0  0  0  0  0  0  0  0  0  0  0
   40.9351   30.1581   44.7057 H   0  0  0  0  0  0  0  0  0  0  0  0
   40.6783   32.9849   44.1254 H   0  0  0  0  0  0  0  0  0  0  0  0
   38.7118   32.5157   42.8725 H   0  0  0  0  0  0  0  0  0  0  0  0
   38.7202   30.8607   43.5701 H   0  0  0  0  0  0  0  0  0  0  0  0
   37.4572   31.7489   45.2419 H   0  0  0  0  0  0  0  0  0  0  0  0
   37.8904   33.4372   44.7777 H   0  0  0  0  0  0  0  0  0  0  0  0
   35.9775   30.6496   49.5955 H   0  0  0  0  0  0  0  0  0  0  0  0
   35.1025   31.1855   48.1010 H   0  0  0  0  0  0  0  0  0  0  0  0
   35.7332   28.3726   48.0290 H   0  0  0  0  0  0  0  0  0  0  0  0
   34.7580   28.8531   49.5027 H   0  0  0  0  0  0  0  0  0  0  0  0
   32.1819   30.8715   45.3038 H   0  0  0  0  0  0  0  0  0  0  0  0
   34.3342   30.8763   46.5515 H   0  0  0  0  0  0  0  0  0  0  0  0
   30.9585   27.4191   47.4163 H   0  0  0  0  0  0  0  0  0  0  0  0
  1  2  1  0
  2  3  1  0
  4  3  1  0
  5  4  1  0
  6  5  1  0
  6  1  1  0
  7 12  1  0
  7  8  1  0
  7  6  1  0
  9  8  1  0
 10  9  1  0
 11 10  1  0
 11 12  1  0
 13  1  1  0
 13 14  1  0
 15 14  1  0
 16 21  2  0
 16 17  1  0
 17 18  2  0
 18 19  1  0
 18 15  1  0
 20 19  2  0
 21 20  1  0
  1 22  1  1
  2 23  1  0
  2 24  1  0
  3 25  1  0
  3 26  1  0
  4 27  1  0
  4 28  1  0
  5 29  1  0
  5 30  1  0
  6 31  1  6
  8 32  1  0
  8 33  1  0
  9 34  1  0
  9 35  1  0
 10 36  1  0
 11 37  1  0
 11 38  1  0
 12 39  1  0
 12 40  1  0
 14 41  1  0
 14 42  1  0
 15 43  1  0
 15 44  1  0
 16 45  1  0
 17 46  1  0
 20 47  1  0
M  ISO  8  22  13  23  13  24  13  25  13  26  13  27  13  28  13  29  13
M  ISO  8  30  13  31  13  32  13  33  13  34  13  35  13  36   5  37  13
M  ISO  8  38  13  39  13  40  13  41   8  42   8  43   8  44   8  45  14
M  ISO  2  46  14  47  14
M  END
>  <minimizedAffinity>  (1) 
-4.38742971

>  <minimizedRMSD>  (1) 
2.20584583

$$$$
