
     RDKit          3D

 33 35  0  0  0  0  0  0  0  0999 V2000
   37.5250   30.4319   50.9284 C   0  0  0  0  0  0  0  0  0  0  0  0
   37.2035   31.0545   49.7194 C   0  0  0  0  0  0  0  0  0  0  0  0
   35.9597   30.7795   49.1368 C   0  0  0  0  0  0  0  0  0  0  0  0
   35.1209   29.9151   49.7799 N   0  0  0  0  0  0  0  0  0  0  0  0
   35.4743   29.3335   50.9521 C   0  0  0  0  0  0  0  0  0  0  0  0
   36.6598   29.5851   51.5234 N   0  0  0  0  0  0  0  0  0  0  0  0
   38.0829   31.9780   49.0188 C   0  0  0  0  0  0  0  0  0  0  0  0
   38.5444   33.1450   49.5788 C   0  0  0  0  0  0  0  0  0  0  0  0
   39.3792   34.0275   48.9216 C   0  0  0  0  0  0  0  0  0  0  0  0
   39.7943   33.7661   47.6429 C   0  0  0  0  0  0  0  0  0  0  0  0
   39.3206   32.5971   47.1075 C   0  0  0  0  0  0  0  0  0  0  0  0
   38.5104   31.7547   47.7644 N   0  0  0  0  0  0  0  0  0  0  0  0
   38.5045   30.7072   51.2976 H   0  0  0  0  0  0  0  0  0  0  0  0
   35.6195   31.2113   48.2038 H   0  0  0  0  0  0  0  0  0  0  0  0
   34.8040   28.6436   51.4646 H   0  0  0  0  0  0  0  0  0  0  0  0
   38.2501   33.4037   50.5852 H   0  0  0  0  0  0  0  0  0  0  0  0
   39.7241   34.9378   49.3913 H   0  0  0  0  0  0  0  0  0  0  0  0
   39.5414   32.2278   46.1160 H   0  0  0  0  0  0  0  0  0  0  0  0
   40.6561   34.5918   46.8527 N   0  0  0  0  0  0  0  0  0  0  0  0
   40.1056   35.6478   46.0247 C   0  0  2  0  0  0  0  0  0  0  0  0
   39.2945   36.1802   46.5801 H   0  0  0  0  0  0  0  0  0  0  0  0
   41.2270   36.5829   45.6501 C   0  0  2  0  0  0  0  0  0  0  0  0
   40.8202   37.5537   45.2914 H   0  0  0  0  0  0  0  0  0  0  0  0
   42.0278   36.8854   46.8177 N   0  0  0  0  0  0  0  0  0  0  0  0
   41.3954   37.3174   47.5375 H   0  0  0  0  0  0  0  0  0  0  0  0
   42.7258   35.7372   47.3185 C   0  0  0  0  0  0  0  0  0  0  0  0
   42.0859   34.4690   46.7955 C   0  0  0  0  0  0  0  0  0  0  0  0
   39.6571   35.1732   45.1282 H   0  0  0  0  0  0  0  0  0  0  0  0
   41.8490   36.1068   44.8721 H   0  0  0  0  0  0  0  0  0  0  0  0
   43.8012   35.7924   47.0084 H   0  0  0  0  0  0  0  0  0  0  0  0
   42.6582   35.7451   48.4239 H   0  0  0  0  0  0  0  0  0  0  0  0
   42.3468   34.3286   45.7215 H   0  0  0  0  0  0  0  0  0  0  0  0
   42.4609   33.5876   47.3130 H   0  0  0  0  0  0  0  0  0  0  0  0
  1  6  2  0
  2  1  1  0
  3  2  2  0
  3  4  1  0
  4  5  2  0
  5  6  1  0
  7  8  2  0
  7  2  1  0
  9  8  1  0
 10  9  2  0
 11 10  1  0
 11 12  2  0
 12  7  1  0
  1 13  1  0
  3 14  1  0
  5 15  1  0
  8 16  1  0
  9 17  1  0
 11 18  1  0
 19 20  1  0
 20 21  1  1
 20 22  1  0
 22 23  1  6
 22 24  1  0
 24 25  1  0
 24 26  1  0
 26 27  1  0
 27 19  1  0
 20 28  1  0
 22 29  1  0
 26 30  1  0
 26 31  1  0
 27 32  1  0
 27 33  1  0
 10 19  1  0
M  ISO  8  13  14  14  14  15  14  16  14  17  14  18  14  21   8  23   8
M  ISO  1  25   5
M  END
>  <DihAtoms>  (1) 
8,9,18,19

>  <DihDeg>  (1) 
-178.45825621907355

$$$$
