
     RDKit          3D

 33 35  0  0  0  0  0  0  0  0999 V2000
   37.5250   30.4319   50.9284 C   0  0  0  0  0  0  0  0  0  0  0  0
   37.2035   31.0545   49.7194 C   0  0  0  0  0  0  0  0  0  0  0  0
   35.9597   30.7795   49.1368 C   0  0  0  0  0  0  0  0  0  0  0  0
   35.1209   29.9151   49.7799 N   0  0  0  0  0  0  0  0  0  0  0  0
   35.4743   29.3335   50.9521 C   0  0  0  0  0  0  0  0  0  0  0  0
   36.6598   29.5851   51.5234 N   0  0  0  0  0  0  0  0  0  0  0  0
   38.0829   31.9780   49.0188 C   0  0  0  0  0  0  0  0  0  0  0  0
   38.5444   33.1450   49.5788 C   0  0  0  0  0  0  0  0  0  0  0  0
   39.3792   34.0275   48.9216 C   0  0  0  0  0  0  0  0  0  0  0  0
   39.7943   33.7661   47.6429 C   0  0  0  0  0  0  0  0  0  0  0  0
   39.3206   32.5971   47.1075 C   0  0  0  0  0  0  0  0  0  0  0  0
   38.5104   31.7547   47.7644 N   0  0  0  0  0  0  0  0  0  0  0  0
   38.5045   30.7072   51.2976 H   0  0  0  0  0  0  0  0  0  0  0  0
   35.6195   31.2113   48.2038 H   0  0  0  0  0  0  0  0  0  0  0  0
   34.8040   28.6436   51.4646 H   0  0  0  0  0  0  0  0  0  0  0  0
   38.2501   33.4037   50.5852 H   0  0  0  0  0  0  0  0  0  0  0  0
   39.7241   34.9378   49.3913 H   0  0  0  0  0  0  0  0  0  0  0  0
   39.5414   32.2278   46.1160 H   0  0  0  0  0  0  0  0  0  0  0  0
   40.6561   34.5918   46.8527 N   0  0  0  0  0  0  0  0  0  0  0  0
   40.9432   35.9544   47.2586 C   0  0  2  0  0  0  0  0  0  0  0  0
   41.1090   35.9931   48.3635 H   0  0  0  0  0  0  0  0  0  0  0  0
   42.1577   36.4240   46.4991 C   0  0  2  0  0  0  0  0  0  0  0  0
   42.5992   37.3201   46.9875 H   0  0  0  0  0  0  0  0  0  0  0  0
   43.1822   35.4013   46.5261 N   0  0  0  0  0  0  0  0  0  0  0  0
   43.4140   35.2056   47.5323 H   0  0  0  0  0  0  0  0  0  0  0  0
   42.7982   34.2190   45.8112 C   0  0  0  0  0  0  0  0  0  0  0  0
   41.2954   34.1821   45.6337 C   0  0  0  0  0  0  0  0  0  0  0  0
   40.0528   36.5712   47.0205 H   0  0  0  0  0  0  0  0  0  0  0  0
   41.8675   36.6479   45.4577 H   0  0  0  0  0  0  0  0  0  0  0  0
   43.3127   34.2039   44.8158 H   0  0  0  0  0  0  0  0  0  0  0  0
   43.1124   33.3379   46.4039 H   0  0  0  0  0  0  0  0  0  0  0  0
   40.9882   34.9173   44.8549 H   0  0  0  0  0  0  0  0  0  0  0  0
   40.9573   33.2101   45.2786 H   0  0  0  0  0  0  0  0  0  0  0  0
  1  6  2  0
  2  1  1  0
  3  2  2  0
  3  4  1  0
  4  5  2  0
  5  6  1  0
  7  8  2  0
  7  2  1  0
  9  8  1  0
 10  9  2  0
 11 10  1  0
 11 12  2  0
 12  7  1  0
  1 13  1  0
  3 14  1  0
  5 15  1  0
  8 16  1  0
  9 17  1  0
 11 18  1  0
 19 20  1  0
 20 21  1  1
 20 22  1  0
 22 23  1  1
 22 24  1  0
 24 25  1  0
 24 26  1  0
 26 27  1  0
 27 19  1  0
 20 28  1  0
 22 29  1  0
 26 30  1  0
 26 31  1  0
 27 32  1  0
 27 33  1  0
 10 19  1  0
M  ISO  8  13  14  14  14  15  14  16  14  17  14  18  14  21   8  23   8
M  ISO  1  25   5
M  END
>  <DihAtoms>  (1) 
8,9,18,19

>  <DihDeg>  (1) 
-178.45825621907355

$$$$
