
     RDKit          3D

 46 49  0  0  0  0  0  0  0  0999 V2000
   37.3320   31.1380   47.1130 N   0  0  0  0  0  0  0  0  0  0  0  0
   36.6880   30.9080   45.9460 C   0  0  0  0  0  0  0  0  0  0  0  0
   37.1380   31.4410   44.7370 C   0  0  0  0  0  0  0  0  0  0  0  0
   38.2950   32.2340   44.7660 C   0  0  0  0  0  0  0  0  0  0  0  0
   38.7310   32.7300   43.7100 O   0  0  0  0  0  0  0  0  0  0  0  0
   38.9380   32.4590   45.9620 N   0  0  0  0  0  0  0  0  0  0  0  0
   38.4130   31.8980   47.0390 C   0  0  0  0  0  0  0  0  0  0  0  0
   39.0320   32.1310   48.1030 O   0  0  0  0  0  0  0  0  0  0  0  0
   36.4800   31.2220   43.4560 C   0  0  0  0  0  0  0  0  0  0  0  0
   36.7140   30.1120   42.6750 C   0  0  0  0  0  0  0  0  0  0  0  0
   36.0970   29.8880   41.4550 C   0  0  0  0  0  0  0  0  0  0  0  0
   35.1930   30.8320   40.9880 C   0  0  0  0  0  0  0  0  0  0  0  0
   34.9940   31.9280   41.8070 C   0  0  0  0  0  0  0  0  0  0  0  0
   35.6110   32.0920   42.9670 N   0  0  0  0  0  0  0  0  0  0  0  0
   34.0800   32.9350   41.3910 N   0  0  0  0  0  0  0  0  0  0  0  0
   32.7570   33.1840   41.8850 C   0  0  0  0  0  0  0  0  0  0  0  0
   32.7520   34.6110   42.4490 C   0  0  0  0  0  0  0  0  0  0  0  0
   33.1370   35.5620   41.4490 N   0  0  0  0  0  0  0  0  0  0  0  0
   34.4620   35.2860   40.9130 C   0  0  0  0  0  0  0  0  0  0  0  0
   34.4010   33.8920   40.3520 C   0  0  0  0  0  0  0  0  0  0  0  0
   37.2630   29.4120   50.4040 C   0  0  0  0  0  0  0  0  0  0  0  0
   37.7310   29.9530   49.1900 C   0  0  0  0  0  0  0  0  0  0  0  0
   36.8740   30.6020   48.3150 C   0  0  0  0  0  0  0  0  0  0  0  0
   35.5740   30.6920   48.6750 N   0  0  0  0  0  0  0  0  0  0  0  0
   35.1030   30.1780   49.8400 C   0  0  0  0  0  0  0  0  0  0  0  0
   35.9680   29.5390   50.6930 N   0  0  0  0  0  0  0  0  0  0  0  0
   40.1280   33.2780   45.9770 C   0  0  0  0  0  0  0  0  0  0  0  0
   40.0560   34.2560   45.0500 F   0  0  0  0  0  0  0  0  0  0  0  0
   41.2920   32.5570   45.7080 F   0  0  0  0  0  0  0  0  0  0  0  0
   40.2280   33.8830   47.2330 F   0  0  0  0  0  0  0  0  0  0  0  0
   35.7831   30.2826   45.9498 H   0  0  0  0  0  0  0  0  0  0  0  0
   37.4306   29.3616   43.0402 H   0  0  0  0  0  0  0  0  0  0  0  0
   36.3184   28.9831   40.8701 H   0  0  0  0  0  0  0  0  0  0  0  0
   34.6686   30.7157   40.0281 H   0  0  0  0  0  0  0  0  0  0  0  0
   32.0258   33.0979   41.0677 H   0  0  0  0  0  0  0  0  0  0  0  0
   32.4827   32.4536   42.6604 H   0  0  0  0  0  0  0  0  0  0  0  0
   31.7396   34.8533   42.8044 H   0  0  0  0  0  0  0  0  0  0  0  0
   33.4748   34.6622   43.2766 H   0  0  0  0  0  0  0  0  0  0  0  0
   32.4537   35.5294   40.6790 H   0  0  0  0  0  0  0  0  0  0  0  0
   34.7110   36.0064   40.1199 H   0  0  0  0  0  0  0  0  0  0  0  0
   35.2366   35.3741   41.6891 H   0  0  0  0  0  0  0  0  0  0  0  0
   33.6271   33.8506   39.5714 H   0  0  0  0  0  0  0  0  0  0  0  0
   35.3841   33.6379   39.9290 H   0  0  0  0  0  0  0  0  0  0  0  0
   37.9480   28.8986   51.0947 H   0  0  0  0  0  0  0  0  0  0  0  0
   38.7961   29.8585   48.9319 H   0  0  0  0  0  0  0  0  0  0  0  0
   34.0379   30.2728   50.0980 H   0  0  0  0  0  0  0  0  0  0  0  0
  1 23  1  0
  2  1  1  0
  3  4  1  0
  3  2  2  0
  4  6  1  0
  5  4  2  0
  6 27  1  0
  6  7  1  0
  7  1  1  0
  7  8  2  0
  9  3  1  0
 10  9  2  0
 11 10  1  0
 12 11  2  0
 12 13  1  0
 13 14  2  0
 14  9  1  0
 15 13  1  0
 15 16  1  0
 16 17  1  0
 18 17  1  0
 19 18  1  0
 20 19  1  0
 20 15  1  0
 21 26  2  0
 22 21  1  0
 23 24  1  0
 23 22  2  0
 24 25  2  0
 25 26  1  0
 27 30  1  0
 28 27  1  0
 29 27  1  0
  2 31  1  0
 10 32  1  0
 11 33  1  0
 12 34  1  0
 16 35  1  0
 16 36  1  0
 17 37  1  0
 17 38  1  0
 18 39  1  0
 19 40  1  0
 19 41  1  0
 20 42  1  0
 20 43  1  0
 21 44  1  0
 22 45  1  0
 25 46  1  0
M  ISO  8  31  14  32  14  33  14  34  14  35  13  36  13  37  13  38  13
M  ISO  8  39   5  40  13  41  13  42  13  43  13  44  14  45  14  46  14
M  END
>  <minimizedAffinity>  (1) 
-6.90453482

>  <minimizedRMSD>  (1) 
0.435905784

$$$$
