
     RDKit          3D

 38 40  0  0  0  0  0  0  0  0999 V2000
   35.3470   29.5010   48.1730 C   0  0  0  0  0  0  0  0  0  0  0  0
   35.0890   30.4240   47.1490 C   0  0  0  0  0  0  0  0  0  0  0  0
   33.9080   30.2950   46.4130 C   0  0  0  0  0  0  0  0  0  0  0  0
   33.0600   29.2790   46.7250 N   0  0  0  0  0  0  0  0  0  0  0  0
   33.3480   28.3980   47.7330 C   0  0  0  0  0  0  0  0  0  0  0  0
   34.4720   28.5150   48.4370 N   0  0  0  0  0  0  0  0  0  0  0  0
   32.4730   27.3370   48.0660 N   0  0  0  0  0  0  0  0  0  0  0  0
   32.7280   25.9640   47.7170 C   0  0  0  0  0  0  0  0  0  0  0  0
   31.5390   25.2220   47.2200 C   0  0  0  0  0  0  0  0  0  0  0  0
   30.3690   26.0220   47.0060 N   0  0  0  0  0  0  0  0  0  0  0  0
   30.0570   26.9960   47.9970 C   0  0  0  0  0  0  0  0  0  0  0  0
   31.2310   27.4920   48.7870 C   0  0  0  0  0  0  0  0  0  0  0  0
   36.5280   29.5640   48.9680 N   0  0  0  0  0  0  0  0  0  0  0  0
   36.6150   28.9260   50.2720 C   0  0  0  0  0  0  0  0  0  0  0  0
   37.2550   29.7620   51.3250 C   0  0  0  0  0  0  0  0  0  0  0  0
   38.2820   30.6500   50.8910 N   0  0  0  0  0  0  0  0  0  0  0  0
   37.9240   31.3400   49.6400 C   0  0  0  0  0  0  0  0  0  0  0  0
   37.7410   30.2240   48.6350 C   0  0  0  0  0  0  0  0  0  0  0  0
   35.8016   31.2328   46.9297 H   0  0  0  0  0  0  0  0  0  0  0  0
   33.6703   30.9982   45.6012 H   0  0  0  0  0  0  0  0  0  0  0  0
   33.4969   25.9467   46.9306 H   0  0  0  0  0  0  0  0  0  0  0  0
   33.0463   25.4605   48.6418 H   0  0  0  0  0  0  0  0  0  0  0  0
   31.8077   24.7486   46.2641 H   0  0  0  0  0  0  0  0  0  0  0  0
   31.2769   24.5003   48.0077 H   0  0  0  0  0  0  0  0  0  0  0  0
   30.4920   26.5181   46.1117 H   0  0  0  0  0  0  0  0  0  0  0  0
   29.5944   27.8584   47.4947 H   0  0  0  0  0  0  0  0  0  0  0  0
   29.3884   26.5006   48.7164 H   0  0  0  0  0  0  0  0  0  0  0  0
   31.2925   26.9234   49.7266 H   0  0  0  0  0  0  0  0  0  0  0  0
   31.0818   28.5646   48.9800 H   0  0  0  0  0  0  0  0  0  0  0  0
   35.5955   28.6780   50.6022 H   0  0  0  0  0  0  0  0  0  0  0  0
   37.2528   28.0388   50.1452 H   0  0  0  0  0  0  0  0  0  0  0  0
   36.4669   30.3669   51.7973 H   0  0  0  0  0  0  0  0  0  0  0  0
   37.7502   29.0507   52.0024 H   0  0  0  0  0  0  0  0  0  0  0  0
   38.4440   31.3546   51.6246 H   0  0  0  0  0  0  0  0  0  0  0  0
   36.9914   31.9102   49.7629 H   0  0  0  0  0  0  0  0  0  0  0  0
   38.6894   32.0654   49.3269 H   0  0  0  0  0  0  0  0  0  0  0  0
   38.5837   29.5195   48.6944 H   0  0  0  0  0  0  0  0  0  0  0  0
   37.7053   30.6197   47.6092 H   0  0  0  0  0  0  0  0  0  0  0  0
  1  6  1  0
  1 13  1  0
  2  1  2  0
  3  4  2  0
  3  2  1  0
  4  5  1  0
  5  7  1  0
  5  6  2  0
  7 12  1  0
  8  7  1  0
  9  8  1  0
 10  9  1  0
 10 11  1  0
 11 12  1  0
 13 14  1  0
 14 15  1  0
 16 15  1  0
 17 16  1  0
 18 13  1  0
 18 17  1  0
  2 19  1  0
  3 20  1  0
  8 21  1  0
  8 22  1  0
  9 23  1  0
  9 24  1  0
 10 25  1  0
 11 26  1  0
 11 27  1  0
 12 28  1  0
 12 29  1  0
 14 30  1  0
 14 31  1  0
 15 32  1  0
 15 33  1  0
 16 34  1  0
 17 35  1  0
 17 36  1  0
 18 37  1  0
 18 38  1  0
M  ISO  8  19  14  20  14  21  13  22  13  23  13  24  13  25   5  26  13
M  ISO  8  27  13  28  13  29  13  30  13  31  13  32  13  33  13  34   5
M  ISO  4  35  13  36  13  37  13  38  13
M  END
>  <minimizedAffinity>  (1) 
-4.89890909

>  <minimizedRMSD>  (1) 
1.16583586

$$$$
