
     RDKit          3D

 37 39  0  0  0  0  0  0  0  0999 V2000
   32.9200   30.9190   46.4730 Cl  0  0  0  0  0  0  0  0  0  0  0  0
   33.0060   29.2660   47.0480 C   0  0  0  0  0  0  0  0  0  0  0  0
   34.0920   28.8450   47.8150 C   0  0  0  0  0  0  0  0  0  0  0  0
   34.1890   27.5430   48.2850 C   0  0  0  0  0  0  0  0  0  0  0  0
   33.1640   26.6650   47.9660 C   0  0  0  0  0  0  0  0  0  0  0  0
   32.0830   27.0480   47.2140 C   0  0  0  0  0  0  0  0  0  0  0  0
   30.8170   25.8990   46.8390 Cl  0  0  0  0  0  0  0  0  0  0  0  0
   32.0100   28.3520   46.7570 C   0  0  0  0  0  0  0  0  0  0  0  0
   30.8890   28.7890   45.9630 N   0  0  0  0  0  0  0  0  0  0  0  0
   30.9630   28.6500   44.5410 C   0  0  0  0  0  0  0  0  0  0  0  0
   29.7790   27.9660   43.9120 C   0  0  0  0  0  0  0  0  0  0  0  0
   28.5210   28.4780   44.3600 N   0  0  0  0  0  0  0  0  0  0  0  0
   28.4320   28.6910   45.7690 C   0  0  0  0  0  0  0  0  0  0  0  0
   29.6340   29.3780   46.3630 C   0  0  0  0  0  0  0  0  0  0  0  0
   36.2310   31.1600   49.7190 C   0  0  0  0  0  0  0  0  0  0  0  0
   37.1880   31.5260   48.7280 C   0  0  0  0  0  0  0  0  0  0  0  0
   37.0750   30.9740   47.4490 C   0  0  0  0  0  0  0  0  0  0  0  0
   36.0520   30.1110   47.2090 N   0  0  0  0  0  0  0  0  0  0  0  0
   35.1610   29.7770   48.1440 C   0  0  0  0  0  0  0  0  0  0  0  0
   35.2490   30.2930   49.3790 N   0  0  0  0  0  0  0  0  0  0  0  0
   38.2680   32.4870   49.1230 C   0  0  0  0  0  0  0  0  0  0  0  0
   39.1700   32.6540   48.0570 F   0  0  0  0  0  0  0  0  0  0  0  0
   37.6920   33.6970   49.3640 F   0  0  0  0  0  0  0  0  0  0  0  0
   38.9750   32.0660   50.2310 F   0  0  0  0  0  0  0  0  0  0  0  0
   35.0489   27.2186   48.8895 H   0  0  0  0  0  0  0  0  0  0  0  0
   33.2199   25.6277   48.3279 H   0  0  0  0  0  0  0  0  0  0  0  0
   31.0503   29.6552   44.1028 H   0  0  0  0  0  0  0  0  0  0  0  0
   31.8347   28.0109   44.3369 H   0  0  0  0  0  0  0  0  0  0  0  0
   29.8257   26.8944   44.1559 H   0  0  0  0  0  0  0  0  0  0  0  0
   29.8364   28.1498   42.8290 H   0  0  0  0  0  0  0  0  0  0  0  0
   28.3545   29.3783   43.8881 H   0  0  0  0  0  0  0  0  0  0  0  0
   27.5455   29.3105   45.9697 H   0  0  0  0  0  0  0  0  0  0  0  0
   28.3700   27.6976   46.2373 H   0  0  0  0  0  0  0  0  0  0  0  0
   29.5585   29.3260   47.4592 H   0  0  0  0  0  0  0  0  0  0  0  0
   29.6302   30.4141   45.9936 H   0  0  0  0  0  0  0  0  0  0  0  0
   36.2893   31.5728   50.7369 H   0  0  0  0  0  0  0  0  0  0  0  0
   37.7945   31.2309   46.6576 H   0  0  0  0  0  0  0  0  0  0  0  0
  1  2  1  0
  2  3  2  0
  3 19  1  0
  3  4  1  0
  5  4  2  0
  6  5  1  0
  7  6  1  0
  8  2  1  0
  8  6  2  0
  9 14  1  0
  9  8  1  0
 10  9  1  0
 11 12  1  0
 11 10  1  0
 12 13  1  0
 13 14  1  0
 16 21  1  0
 16 15  2  0
 17 16  1  0
 18 17  2  0
 18 19  1  0
 19 20  2  0
 20 15  1  0
 21 23  1  0
 21 24  1  0
 22 21  1  0
  4 25  1  0
  5 26  1  0
 10 27  1  0
 10 28  1  0
 11 29  1  0
 11 30  1  0
 12 31  1  0
 13 32  1  0
 13 33  1  0
 14 34  1  0
 14 35  1  0
 15 36  1  0
 17 37  1  0
M  ISO  8  25  14  26  14  27  13  28  13  29  13  30  13  31   5  32  13
M  ISO  5  33  13  34  13  35  13  36  14  37  14
M  END
>  <minimizedAffinity>  (1) 
-5.66014671

>  <minimizedRMSD>  (1) 
1.79869258

$$$$
