
     RDKit          3D

 33 35  0  0  0  0  0  0  0  0999 V2000
   37.5250   30.4319   50.9284 C   0  0  0  0  0  0  0  0  0  0  0  0
   37.2035   31.0545   49.7194 C   0  0  0  0  0  0  0  0  0  0  0  0
   35.9597   30.7795   49.1368 C   0  0  0  0  0  0  0  0  0  0  0  0
   35.1209   29.9151   49.7799 N   0  0  0  0  0  0  0  0  0  0  0  0
   35.4743   29.3335   50.9521 C   0  0  0  0  0  0  0  0  0  0  0  0
   36.6598   29.5851   51.5234 N   0  0  0  0  0  0  0  0  0  0  0  0
   38.0829   31.9780   49.0188 C   0  0  0  0  0  0  0  0  0  0  0  0
   38.5444   33.1450   49.5788 C   0  0  0  0  0  0  0  0  0  0  0  0
   39.3792   34.0275   48.9216 C   0  0  0  0  0  0  0  0  0  0  0  0
   39.7943   33.7661   47.6429 C   0  0  0  0  0  0  0  0  0  0  0  0
   39.3206   32.5971   47.1075 C   0  0  0  0  0  0  0  0  0  0  0  0
   38.5104   31.7547   47.7644 N   0  0  0  0  0  0  0  0  0  0  0  0
   38.5045   30.7072   51.2976 H   0  0  0  0  0  0  0  0  0  0  0  0
   35.6195   31.2113   48.2038 H   0  0  0  0  0  0  0  0  0  0  0  0
   34.8040   28.6436   51.4646 H   0  0  0  0  0  0  0  0  0  0  0  0
   38.2501   33.4037   50.5852 H   0  0  0  0  0  0  0  0  0  0  0  0
   39.7241   34.9378   49.3913 H   0  0  0  0  0  0  0  0  0  0  0  0
   39.5414   32.2278   46.1160 H   0  0  0  0  0  0  0  0  0  0  0  0
   40.6561   34.5918   46.8527 N   0  0  0  0  0  0  0  0  0  0  0  0
   42.0914   34.3836   46.8695 C   0  0  2  0  0  0  0  0  0  0  0  0
   42.3151   33.2884   46.8526 H   0  0  0  0  0  0  0  0  0  0  0  0
   42.6816   35.0883   45.6747 C   0  0  2  0  0  0  0  0  0  0  0  0
   43.7062   34.7094   45.4668 H   0  0  0  0  0  0  0  0  0  0  0  0
   41.8952   34.7997   44.4938 N   0  0  0  0  0  0  0  0  0  0  0  0
   41.8908   33.7575   44.3579 H   0  0  0  0  0  0  0  0  0  0  0  0
   40.5728   35.3496   44.5655 C   0  0  0  0  0  0  0  0  0  0  0  0
   40.2155   35.6624   46.0028 C   0  0  0  0  0  0  0  0  0  0  0  0
   42.4811   34.8018   47.8199 H   0  0  0  0  0  0  0  0  0  0  0  0
   42.6970   36.1750   45.8682 H   0  0  0  0  0  0  0  0  0  0  0  0
   40.5216   36.2757   43.9366 H   0  0  0  0  0  0  0  0  0  0  0  0
   39.8621   34.5961   44.1738 H   0  0  0  0  0  0  0  0  0  0  0  0
   40.7602   36.5747   46.3382 H   0  0  0  0  0  0  0  0  0  0  0  0
   39.1562   35.8882   46.1128 H   0  0  0  0  0  0  0  0  0  0  0  0
  1  6  2  0
  2  1  1  0
  3  2  2  0
  3  4  1  0
  4  5  2  0
  5  6  1  0
  7  8  2  0
  7  2  1  0
  9  8  1  0
 10  9  2  0
 11 10  1  0
 11 12  2  0
 12  7  1  0
  1 13  1  0
  3 14  1  0
  5 15  1  0
  8 16  1  0
  9 17  1  0
 11 18  1  0
 19 20  1  0
 20 21  1  6
 20 22  1  0
 22 23  1  6
 22 24  1  0
 24 25  1  0
 24 26  1  0
 26 27  1  0
 27 19  1  0
 20 28  1  0
 22 29  1  0
 26 30  1  0
 26 31  1  0
 27 32  1  0
 27 33  1  0
 10 19  1  0
M  ISO  8  13  14  14  14  15  14  16  14  17  14  18  14  21   8  23   8
M  ISO  1  25   5
M  END
>  <DihAtoms>  (1) 
8,9,18,19

>  <DihDeg>  (1) 
-178.45825621907355

$$$$
