
     RDKit          3D

 31 32  0  0  0  0  0  0  0  0999 V2000
   34.1980   28.5960   48.5330 C   0  0  0  0  0  0  0  0  0  0  0  0
   32.8020   28.1390   48.8930 C   0  0  0  0  0  0  0  0  0  0  0  0
   32.3980   27.1370   47.9210 N   0  0  0  0  0  0  0  0  0  0  0  0
   31.2050   26.4310   48.3570 C   0  0  0  0  0  0  0  0  0  0  0  0
   29.9430   26.8380   47.6980 C   0  0  0  0  0  0  0  0  0  0  0  0
   29.8830   28.2440   47.4990 N   0  0  0  0  0  0  0  0  0  0  0  0
   30.9380   28.6690   46.6340 C   0  0  0  0  0  0  0  0  0  0  0  0
   32.1410   27.7570   46.6210 C   0  0  0  0  0  0  0  0  0  0  0  0
   35.1010   28.2170   49.5520 O   0  0  0  0  0  0  0  0  0  0  0  0
   37.4190   30.3170   51.3600 C   0  0  0  0  0  0  0  0  0  0  0  0
   38.1180   30.8750   50.2990 C   0  0  0  0  0  0  0  0  0  0  0  0
   37.7590   30.5030   48.9920 C   0  0  0  0  0  0  0  0  0  0  0  0
   36.7370   29.6090   48.8590 N   0  0  0  0  0  0  0  0  0  0  0  0
   36.0870   29.0940   49.9190 C   0  0  0  0  0  0  0  0  0  0  0  0
   36.4330   29.4530   51.1830 N   0  0  0  0  0  0  0  0  0  0  0  0
   34.5017   28.1306   47.5837 H   0  0  0  0  0  0  0  0  0  0  0  0
   34.2069   29.6909   48.4272 H   0  0  0  0  0  0  0  0  0  0  0  0
   32.7998   27.7029   49.9029 H   0  0  0  0  0  0  0  0  0  0  0  0
   32.1043   28.9893   48.8809 H   0  0  0  0  0  0  0  0  0  0  0  0
   31.3569   25.3588   48.1639 H   0  0  0  0  0  0  0  0  0  0  0  0
   31.0815   26.6785   49.4216 H   0  0  0  0  0  0  0  0  0  0  0  0
   29.8731   26.3365   46.7215 H   0  0  0  0  0  0  0  0  0  0  0  0
   29.1065   26.5483   48.3510 H   0  0  0  0  0  0  0  0  0  0  0  0
   28.9768   28.4886   47.0749 H   0  0  0  0  0  0  0  0  0  0  0  0
   30.5403   28.7282   45.6101 H   0  0  0  0  0  0  0  0  0  0  0  0
   31.2851   29.6401   47.0167 H   0  0  0  0  0  0  0  0  0  0  0  0
   31.9710   26.9619   45.8801 H   0  0  0  0  0  0  0  0  0  0  0  0
   33.0183   28.3705   46.3681 H   0  0  0  0  0  0  0  0  0  0  0  0
   37.6948   30.6036   52.3856 H   0  0  0  0  0  0  0  0  0  0  0  0
   38.9336   31.5914   50.4766 H   0  0  0  0  0  0  0  0  0  0  0  0
   38.2793   30.9147   48.1146 H   0  0  0  0  0  0  0  0  0  0  0  0
  1  2  1  0
  1  9  1  0
  3  4  1  0
  3  2  1  0
  5  4  1  0
  6  5  1  0
  7  6  1  0
  8  7  1  0
  8  3  1  0
  9 14  1  0
 11 10  2  0
 12 11  1  0
 13 12  2  0
 13 14  1  0
 14 15  2  0
 15 10  1  0
  1 16  1  0
  1 17  1  0
  2 18  1  0
  2 19  1  0
  4 20  1  0
  4 21  1  0
  5 22  1  0
  5 23  1  0
  6 24  1  0
  7 25  1  0
  7 26  1  0
  8 27  1  0
  8 28  1  0
 10 29  1  0
 11 30  1  0
 12 31  1  0
M  ISO  8  16   8  17   8  18   8  19   8  20  13  21  13  22  13  23  13
M  ISO  8  24   5  25  13  26  13  27  13  28  13  29  14  30  14  31  14
M  END
>  <minimizedAffinity>  (1) 
-3.98857832

>  <minimizedRMSD>  (1) 
3.11372948

$$$$
