
     RDKit          3D

 37 40  0  0  0  0  0  0  0  0999 V2000
   38.2480   32.6720   49.2690 C   0  0  0  0  0  0  0  0  0  0  0  0
   38.9540   32.8170   48.0470 C   0  0  0  0  0  0  0  0  0  0  0  0
   38.5310   32.0060   46.9850 C   0  0  0  0  0  0  0  0  0  0  0  0
   37.5070   31.1490   47.1630 N   0  0  0  0  0  0  0  0  0  0  0  0
   36.8580   31.0390   48.3480 C   0  0  0  0  0  0  0  0  0  0  0  0
   37.2290   31.7920   49.3800 N   0  0  0  0  0  0  0  0  0  0  0  0
   39.2010   32.1090   45.7350 N   0  0  0  0  0  0  0  0  0  0  0  0
   38.5600   32.7970   44.6310 C   0  0  0  0  0  0  0  0  0  0  0  0
   39.5480   32.8680   43.4590 C   0  0  0  0  0  0  0  0  0  0  0  0
   39.8950   31.5110   43.1600 N   0  0  0  0  0  0  0  0  0  0  0  0
   40.7370   30.9810   44.1850 C   0  0  0  0  0  0  0  0  0  0  0  0
   40.5140   31.5320   45.5560 C   0  0  0  0  0  0  0  0  0  0  0  0
   35.7910   29.1250   49.4620 C   0  0  0  0  0  0  0  0  0  0  0  0
   35.7600   30.0940   48.4740 C   0  0  0  0  0  0  0  0  0  0  0  0
   34.6940   30.1690   47.6060 C   0  0  0  0  0  0  0  0  0  0  0  0
   33.6350   29.2820   47.7040 C   0  0  0  0  0  0  0  0  0  0  0  0
   32.4900   29.1330   47.0020 N   0  0  0  0  0  0  0  0  0  0  0  0
   31.8740   28.0680   47.6050 C   0  0  0  0  0  0  0  0  0  0  0  0
   32.6010   27.5940   48.6170 N   0  0  0  0  0  0  0  0  0  0  0  0
   33.7170   28.3420   48.7010 C   0  0  0  0  0  0  0  0  0  0  0  0
   34.7510   28.2230   49.5890 C   0  0  0  0  0  0  0  0  0  0  0  0
   38.5340   33.2839   50.1372 H   0  0  0  0  0  0  0  0  0  0  0  0
   39.7874   33.5268   47.9390 H   0  0  0  0  0  0  0  0  0  0  0  0
   37.6592   32.2456   44.3235 H   0  0  0  0  0  0  0  0  0  0  0  0
   38.2685   33.8120   44.9390 H   0  0  0  0  0  0  0  0  0  0  0  0
   39.0750   33.3436   42.5872 H   0  0  0  0  0  0  0  0  0  0  0  0
   40.4352   33.4669   43.7124 H   0  0  0  0  0  0  0  0  0  0  0  0
   39.0362   30.9456   43.0987 H   0  0  0  0  0  0  0  0  0  0  0  0
   40.5748   29.8938   44.2272 H   0  0  0  0  0  0  0  0  0  0  0  0
   41.7623   31.2686   43.9093 H   0  0  0  0  0  0  0  0  0  0  0  0
   40.6392   30.7171   46.2842 H   0  0  0  0  0  0  0  0  0  0  0  0
   41.2468   32.3386   45.7055 H   0  0  0  0  0  0  0  0  0  0  0  0
   36.6478   29.0724   50.1498 H   0  0  0  0  0  0  0  0  0  0  0  0
   34.6833   30.9433   46.8247 H   0  0  0  0  0  0  0  0  0  0  0  0
   32.1581   29.6895   46.2014 H   0  0  0  0  0  0  0  0  0  0  0  0
   30.9027   27.6562   47.2936 H   0  0  0  0  0  0  0  0  0  0  0  0
   34.7547   27.4460   50.3676 H   0  0  0  0  0  0  0  0  0  0  0  0
  1  6  2  0
  2  1  1  0
  3  4  1  0
  3  2  2  0
  4  5  2  0
  5 14  1  0
  5  6  1  0
  7  3  1  0
  8  7  1  0
  9  8  1  0
 10  9  1  0
 10 11  1  0
 11 12  1  0
 12  7  1  0
 13 21  2  0
 14 13  1  0
 15 16  1  0
 15 14  2  0
 16 20  2  0
 17 18  1  0
 17 16  1  0
 18 19  2  0
 19 20  1  0
 20 21  1  0
  1 22  1  0
  2 23  1  0
  8 24  1  0
  8 25  1  0
  9 26  1  0
  9 27  1  0
 10 28  1  0
 11 29  1  0
 11 30  1  0
 12 31  1  0
 12 32  1  0
 13 33  1  0
 15 34  1  0
 17 35  1  0
 18 36  1  0
 21 37  1  0
M  ISO  8  22  14  23  14  24  13  25  13  26  13  27  13  28   5  29  13
M  ISO  8  30  13  31  13  32  13  33  14  34  14  35   9  36  14  37  14
M  END
>  <minimizedAffinity>  (1) 
-7.16749239

>  <minimizedRMSD>  (1) 
2.23999166

$$$$
