
     RDKit          3D

 34 36  0  0  0  0  0  0  0  0999 V2000
   38.0130   33.1098   49.4628 C   0  0  0  0  0  0  0  0  0  0  0  0
   38.9724   33.2107   48.4526 C   0  0  0  0  0  0  0  0  0  0  0  0
   38.9505   32.2116   47.4498 C   0  0  0  0  0  0  0  0  0  0  0  0
   38.0110   31.2496   47.5506 N   0  0  0  0  0  0  0  0  0  0  0  0
   37.1016   31.1760   48.5308 C   0  0  0  0  0  0  0  0  0  0  0  0
   37.1018   32.1245   49.5067 N   0  0  0  0  0  0  0  0  0  0  0  0
   36.0996   30.1304   48.6181 C   0  0  0  0  0  0  0  0  0  0  0  0
   35.2864   29.9567   47.5230 C   0  0  0  0  0  0  0  0  0  0  0  0
   34.2968   28.9889   47.4974 C   0  0  0  0  0  0  0  0  0  0  0  0
   34.1494   28.1964   48.6138 C   0  0  0  0  0  0  0  0  0  0  0  0
   34.9551   28.3508   49.7295 C   0  0  0  0  0  0  0  0  0  0  0  0
   35.9476   29.3308   49.7390 C   0  0  0  0  0  0  0  0  0  0  0  0
   38.0250   33.8719   50.2332 H   0  0  0  0  0  0  0  0  0  0  0  0
   39.6739   34.0277   48.4788 H   0  0  0  0  0  0  0  0  0  0  0  0
   39.6834   32.2766   46.6657 H   0  0  0  0  0  0  0  0  0  0  0  0
   35.3284   30.5366   46.5931 H   0  0  0  0  0  0  0  0  0  0  0  0
   33.6420   28.8285   46.6509 H   0  0  0  0  0  0  0  0  0  0  0  0
   33.4241   27.4172   48.7155 H   0  0  0  0  0  0  0  0  0  0  0  0
   34.9008   27.7712   50.6379 H   0  0  0  0  0  0  0  0  0  0  0  0
   36.7951   29.5197   50.8667 N   0  0  0  0  0  0  0  0  0  0  0  0
   38.0718   28.9419   51.2237 C   0  0  2  0  0  0  0  0  0  0  0  0
   38.9205   29.6037   51.0092 H   0  0  0  0  0  0  0  0  0  0  0  0
   38.1557   28.5984   52.6928 C   0  0  1  0  0  0  0  0  0  0  0  0
   38.6780   27.6536   52.8917 H   0  0  0  0  0  0  0  0  0  0  0  0
   36.7830   28.4670   53.1825 N   0  0  0  0  0  0  0  0  0  0  0  0
   36.7578   28.0520   54.1238 H   0  0  0  0  0  0  0  0  0  0  0  0
   36.2995   29.8543   53.2646 C   0  0  0  0  0  0  0  0  0  0  0  0
   36.3340   30.4665   51.8864 C   0  0  0  0  0  0  0  0  0  0  0  0
   38.2774   27.9781   50.6717 H   0  0  0  0  0  0  0  0  0  0  0  0
   38.6146   29.4183   53.2782 H   0  0  0  0  0  0  0  0  0  0  0  0
   36.9741   30.4492   53.9188 H   0  0  0  0  0  0  0  0  0  0  0  0
   35.2939   29.8244   53.7217 H   0  0  0  0  0  0  0  0  0  0  0  0
   36.9346   31.4118   51.8767 H   0  0  0  0  0  0  0  0  0  0  0  0
   35.2916   30.8184   51.6882 H   0  0  0  0  0  0  0  0  0  0  0  0
  1  6  2  0
  2  1  1  0
  3  4  1  0
  3  2  2  0
  4  5  2  0
  5  7  1  0
  5  6  1  0
  7 12  1  0
  8  7  2  0
  9  8  1  0
  9 10  2  0
 10 11  1  0
 12 11  2  0
  1 13  1  0
  2 14  1  0
  3 15  1  0
  8 16  1  0
  9 17  1  0
 10 18  1  0
 11 19  1  0
 20 21  1  0
 21 22  1  6
 21 23  1  0
 23 24  1  6
 23 25  1  0
 25 26  1  0
 25 27  1  0
 27 28  1  0
 28 20  1  0
 21 29  1  0
 23 30  1  0
 27 31  1  0
 27 32  1  0
 28 33  1  0
 28 34  1  0
 12 20  1  0
M  ISO  8  13  14  14  14  15  14  16  14  17  14  18  14  19  14  22   8
M  ISO  2  24   8  26   5
M  END
>  <DihAtoms>  (1) 
6,11,19,20

>  <DihDeg>  (1) 
-59.992957356059655

$$$$
