
     RDKit          3D

 34 36  0  0  0  0  0  0  0  0999 V2000
   38.0130   33.1098   49.4628 C   0  0  0  0  0  0  0  0  0  0  0  0
   38.9724   33.2107   48.4526 C   0  0  0  0  0  0  0  0  0  0  0  0
   38.9505   32.2116   47.4498 C   0  0  0  0  0  0  0  0  0  0  0  0
   38.0110   31.2496   47.5506 N   0  0  0  0  0  0  0  0  0  0  0  0
   37.1016   31.1760   48.5308 C   0  0  0  0  0  0  0  0  0  0  0  0
   37.1018   32.1245   49.5067 N   0  0  0  0  0  0  0  0  0  0  0  0
   36.0996   30.1304   48.6181 C   0  0  0  0  0  0  0  0  0  0  0  0
   35.2864   29.9567   47.5230 C   0  0  0  0  0  0  0  0  0  0  0  0
   34.2968   28.9889   47.4974 C   0  0  0  0  0  0  0  0  0  0  0  0
   34.1494   28.1964   48.6138 C   0  0  0  0  0  0  0  0  0  0  0  0
   34.9551   28.3508   49.7295 C   0  0  0  0  0  0  0  0  0  0  0  0
   35.9476   29.3308   49.7390 C   0  0  0  0  0  0  0  0  0  0  0  0
   38.0250   33.8719   50.2332 H   0  0  0  0  0  0  0  0  0  0  0  0
   39.6739   34.0277   48.4788 H   0  0  0  0  0  0  0  0  0  0  0  0
   39.6834   32.2766   46.6657 H   0  0  0  0  0  0  0  0  0  0  0  0
   35.3284   30.5366   46.5931 H   0  0  0  0  0  0  0  0  0  0  0  0
   33.6420   28.8285   46.6509 H   0  0  0  0  0  0  0  0  0  0  0  0
   33.4241   27.4172   48.7155 H   0  0  0  0  0  0  0  0  0  0  0  0
   34.9008   27.7712   50.6379 H   0  0  0  0  0  0  0  0  0  0  0  0
   36.7951   29.5197   50.8667 N   0  0  0  0  0  0  0  0  0  0  0  0
   36.8654   28.8489   52.1460 C   0  0  2  0  0  0  0  0  0  0  0  0
   37.6703   28.1049   52.1999 H   0  0  0  0  0  0  0  0  0  0  0  0
   37.0939   29.8124   53.2874 C   0  0  1  0  0  0  0  0  0  0  0  0
   36.5233   29.5625   54.1912 H   0  0  0  0  0  0  0  0  0  0  0  0
   36.6587   31.1324   52.8294 N   0  0  0  0  0  0  0  0  0  0  0  0
   36.6074   31.8024   53.6086 H   0  0  0  0  0  0  0  0  0  0  0  0
   37.7240   31.5592   51.9084 C   0  0  0  0  0  0  0  0  0  0  0  0
   37.8024   30.5798   50.7639 C   0  0  0  0  0  0  0  0  0  0  0  0
   35.9113   28.2985   52.3962 H   0  0  0  0  0  0  0  0  0  0  0  0
   38.1696   29.9097   53.5303 H   0  0  0  0  0  0  0  0  0  0  0  0
   38.7034   31.5468   52.4353 H   0  0  0  0  0  0  0  0  0  0  0  0
   37.4964   32.5962   51.6022 H   0  0  0  0  0  0  0  0  0  0  0  0
   38.8357   30.1611   50.6575 H   0  0  0  0  0  0  0  0  0  0  0  0
   37.6722   31.1906   49.8367 H   0  0  0  0  0  0  0  0  0  0  0  0
  1  6  2  0
  2  1  1  0
  3  4  1  0
  3  2  2  0
  4  5  2  0
  5  7  1  0
  5  6  1  0
  7 12  1  0
  8  7  2  0
  9  8  1  0
  9 10  2  0
 10 11  1  0
 12 11  2  0
  1 13  1  0
  2 14  1  0
  3 15  1  0
  8 16  1  0
  9 17  1  0
 10 18  1  0
 11 19  1  0
 20 21  1  0
 21 22  1  6
 21 23  1  0
 23 24  1  1
 23 25  1  0
 25 26  1  0
 25 27  1  0
 27 28  1  0
 28 20  1  0
 21 29  1  0
 23 30  1  0
 27 31  1  0
 27 32  1  0
 28 33  1  0
 28 34  1  0
 12 20  1  0
M  ISO  8  13  14  14  14  15  14  16  14  17  14  18  14  19  14  22   8
M  ISO  2  24   8  26   5
M  END
>  <DihAtoms>  (1) 
6,11,19,20

>  <DihDeg>  (1) 
-59.992957356059655

$$$$
