
     RDKit          3D

 34 36  0  0  0  0  0  0  0  0999 V2000
   38.2970   31.1470   46.9210 F   0  0  0  0  0  0  0  0  0  0  0  0
   37.0360   30.7120   46.5690 C   0  0  0  0  0  0  0  0  0  0  0  0
   36.1050   30.3100   47.5160 C   0  0  0  0  0  0  0  0  0  0  0  0
   34.8550   29.8830   47.1040 C   0  0  0  0  0  0  0  0  0  0  0  0
   34.5260   29.8540   45.7520 C   0  0  0  0  0  0  0  0  0  0  0  0
   35.4930   30.2650   44.8460 C   0  0  0  0  0  0  0  0  0  0  0  0
   36.7320   30.6900   45.2190 C   0  0  0  0  0  0  0  0  0  0  0  0
   36.6160   29.1210   49.5230 C   0  0  0  0  0  0  0  0  0  0  0  0
   36.5230   30.3710   48.8790 C   0  0  0  0  0  0  0  0  0  0  0  0
   36.8430   31.4910   49.6300 C   0  0  0  0  0  0  0  0  0  0  0  0
   37.2250   31.3420   50.9310 N   0  0  0  0  0  0  0  0  0  0  0  0
   37.2990   30.1240   51.5040 C   0  0  0  0  0  0  0  0  0  0  0  0
   36.9980   29.0150   50.8110 N   0  0  0  0  0  0  0  0  0  0  0  0
   37.6390   31.0890   44.2010 N   0  0  0  0  0  0  0  0  0  0  0  0
   38.5200   30.1400   43.5450 C   0  0  0  0  0  0  0  0  0  0  0  0
   39.3900   30.8410   42.5560 C   0  0  0  0  0  0  0  0  0  0  0  0
   40.0270   32.0380   43.0370 N   0  0  0  0  0  0  0  0  0  0  0  0
   39.2550   32.7880   43.9910 C   0  0  0  0  0  0  0  0  0  0  0  0
   37.7820   32.4610   43.7180 C   0  0  0  0  0  0  0  0  0  0  0  0
   34.1144   29.5635   47.8520 H   0  0  0  0  0  0  0  0  0  0  0  0
   33.5349   29.5173   45.4139 H   0  0  0  0  0  0  0  0  0  0  0  0
   35.2470   30.2467   43.7740 H   0  0  0  0  0  0  0  0  0  0  0  0
   36.3705   28.2085   48.9600 H   0  0  0  0  0  0  0  0  0  0  0  0
   36.7893   32.4933   49.1800 H   0  0  0  0  0  0  0  0  0  0  0  0
   37.6108   30.0379   52.5554 H   0  0  0  0  0  0  0  0  0  0  0  0
   39.1514   29.6488   44.3001 H   0  0  0  0  0  0  0  0  0  0  0  0
   37.9109   29.3904   43.0185 H   0  0  0  0  0  0  0  0  0  0  0  0
   38.7694   31.1113   41.6889 H   0  0  0  0  0  0  0  0  0  0  0  0
   40.2026   30.1399   42.3150 H   0  0  0  0  0  0  0  0  0  0  0  0
   40.9164   31.7712   43.4828 H   0  0  0  0  0  0  0  0  0  0  0  0
   39.5259   32.4917   45.0151 H   0  0  0  0  0  0  0  0  0  0  0  0
   39.4459   33.8670   43.8946 H   0  0  0  0  0  0  0  0  0  0  0  0
   37.1193   33.1430   44.2709 H   0  0  0  0  0  0  0  0  0  0  0  0
   37.5091   32.5715   42.6581 H   0  0  0  0  0  0  0  0  0  0  0  0
  2  1  1  0
  2  3  2  0
  3  9  1  0
  4  3  1  0
  5  4  2  0
  6  7  2  0
  6  5  1  0
  7  2  1  0
  8 13  2  0
  9  8  1  0
  9 10  2  0
 10 11  1  0
 11 12  2  0
 13 12  1  0
 14  7  1  0
 15 14  1  0
 16 17  1  0
 16 15  1  0
 17 18  1  0
 19 18  1  0
 19 14  1  0
  4 20  1  0
  5 21  1  0
  6 22  1  0
  8 23  1  0
 10 24  1  0
 12 25  1  0
 15 26  1  0
 15 27  1  0
 16 28  1  0
 16 29  1  0
 17 30  1  0
 18 31  1  0
 18 32  1  0
 19 33  1  0
 19 34  1  0
M  ISO  8  20  14  21  14  22  14  23  14  24  14  25  14  26  13  27  13
M  ISO  7  28  13  29  13  30   5  31  13  32  13  33  13  34  13
M  END
>  <minimizedAffinity>  (1) 
-5.20529222

>  <minimizedRMSD>  (1) 
5.72202349

$$$$
