
     RDKit          3D

 34 36  0  0  0  0  0  0  0  0999 V2000
   37.2702   30.0547   51.4888 C   0  0  0  0  0  0  0  0  0  0  0  0
   38.0303   30.7893   50.5228 C   0  0  0  0  0  0  0  0  0  0  0  0
   37.6410   30.6262   49.1878 C   0  0  0  0  0  0  0  0  0  0  0  0
   36.5965   29.8085   48.8645 N   0  0  0  0  0  0  0  0  0  0  0  0
   35.9109   29.1345   49.8302 C   0  0  0  0  0  0  0  0  0  0  0  0
   36.2477   29.2611   51.1122 N   0  0  0  0  0  0  0  0  0  0  0  0
   38.3354   31.3100   48.1223 C   0  0  0  0  0  0  0  0  0  0  0  0
   38.7894   32.5828   48.3302 C   0  0  0  0  0  0  0  0  0  0  0  0
   39.4684   33.2995   47.3586 C   0  0  0  0  0  0  0  0  0  0  0  0
   39.6800   32.6712   46.1321 C   0  0  0  0  0  0  0  0  0  0  0  0
   39.2437   31.3741   45.8497 C   0  0  0  0  0  0  0  0  0  0  0  0
   38.5745   30.7411   46.8888 C   0  0  0  0  0  0  0  0  0  0  0  0
   37.5118   30.1301   52.5425 H   0  0  0  0  0  0  0  0  0  0  0  0
   35.1137   28.5289   49.4236 H   0  0  0  0  0  0  0  0  0  0  0  0
   38.6788   33.1768   49.2262 H   0  0  0  0  0  0  0  0  0  0  0  0
   39.8461   34.2959   47.4662 H   0  0  0  0  0  0  0  0  0  0  0  0
   40.2010   33.1549   45.3144 H   0  0  0  0  0  0  0  0  0  0  0  0
   39.4232   30.9198   44.8936 H   0  0  0  0  0  0  0  0  0  0  0  0
   38.2251   29.7306   46.6937 H   0  0  0  0  0  0  0  0  0  0  0  0
   39.0812   31.5787   51.0137 N   0  0  0  0  0  0  0  0  0  0  0  0
   40.4063   31.1200   51.4670 C   0  0  2  0  0  0  0  0  0  0  0  0
   41.1900   31.6690   50.9465 H   0  0  0  0  0  0  0  0  0  0  0  0
   40.5225   31.4981   52.9449 C   0  0  1  0  0  0  0  0  0  0  0  0
   39.9688   30.7845   53.5967 H   0  0  0  0  0  0  0  0  0  0  0  0
   40.1217   32.8499   53.1886 N   0  0  0  0  0  0  0  0  0  0  0  0
   40.7396   33.3888   53.8347 H   0  0  0  0  0  0  0  0  0  0  0  0
   40.0148   33.6343   51.9710 C   0  0  0  0  0  0  0  0  0  0  0  0
   38.9208   33.0418   51.1404 C   0  0  0  0  0  0  0  0  0  0  0  0
   40.4965   30.0296   51.4139 H   0  0  0  0  0  0  0  0  0  0  0  0
   41.6071   31.4225   53.1939 H   0  0  0  0  0  0  0  0  0  0  0  0
   40.9540   33.6409   51.4112 H   0  0  0  0  0  0  0  0  0  0  0  0
   39.6991   34.6535   52.2831 H   0  0  0  0  0  0  0  0  0  0  0  0
   37.9427   33.1510   51.6917 H   0  0  0  0  0  0  0  0  0  0  0  0
   38.8551   33.5029   50.1386 H   0  0  0  0  0  0  0  0  0  0  0  0
  2  1  2  0
  3  2  1  0
  4  3  2  0
  4  5  1  0
  5  6  2  0
  6  1  1  0
  7  8  2  0
  7  3  1  0
  9  8  1  0
 10  9  2  0
 11 10  1  0
 11 12  2  0
 12  7  1  0
  1 13  1  0
  5 14  1  0
  8 15  1  0
  9 16  1  0
 10 17  1  0
 11 18  1  0
 12 19  1  0
 20 21  1  0
 21 22  1  6
 21 23  1  0
 23 24  1  1
 23 25  1  0
 25 26  1  0
 25 27  1  0
 27 28  1  0
 28 20  1  0
 21 29  1  0
 23 30  1  0
 27 31  1  0
 27 32  1  0
 28 33  1  0
 28 34  1  0
  2 20  1  0
M  ISO  8  13  14  14  14  15  14  16  14  17  14  18  14  19  14  22   8
M  ISO  2  24   8  26   5
M  END
>  <DihAtoms>  (1) 
0,1,19,20

>  <DihDeg>  (1) 
121.75704058319178

$$$$
