
     RDKit          3D

 36 38  0  0  0  0  0  0  0  0999 V2000
   38.3950   32.2920   48.4700 C   0  0  0  0  0  0  0  0  0  0  0  0
   38.6580   33.1230   49.5220 C   0  0  0  0  0  0  0  0  0  0  0  0
   39.5260   34.2160   49.3860 C   0  0  0  0  0  0  0  0  0  0  0  0
   40.1270   34.4430   48.1310 C   0  0  0  0  0  0  0  0  0  0  0  0
   39.8700   33.5980   47.0300 C   0  0  0  0  0  0  0  0  0  0  0  0
   39.0080   32.5680   47.2860 C   0  0  0  0  0  0  0  0  0  0  0  0
   36.7880   29.0830   49.6130 C   0  0  0  0  0  0  0  0  0  0  0  0
   37.7880   30.0770   49.4860 C   0  0  0  0  0  0  0  0  0  0  0  0
   37.4860   31.1920   48.6980 C   0  0  0  0  0  0  0  0  0  0  0  0
   36.2560   31.2660   48.0930 N   0  0  0  0  0  0  0  0  0  0  0  0
   35.3350   30.2790   48.2500 C   0  0  0  0  0  0  0  0  0  0  0  0
   35.6040   29.1890   49.0110 N   0  0  0  0  0  0  0  0  0  0  0  0
   34.1170   30.4850   47.5770 N   0  0  0  0  0  0  0  0  0  0  0  0
   38.7580   31.7200   46.1650 N   0  0  0  0  0  0  0  0  0  0  0  0
   39.2950   30.4110   45.7820 C   0  0  0  0  0  0  0  0  0  0  0  0
   40.2840   30.7240   44.6520 C   0  0  0  0  0  0  0  0  0  0  0  0
   39.8600   31.8900   43.9160 N   0  0  0  0  0  0  0  0  0  0  0  0
   38.4090   31.9850   43.8270 C   0  0  0  0  0  0  0  0  0  0  0  0
   37.7840   32.2040   45.1740 C   0  0  0  0  0  0  0  0  0  0  0  0
   38.1799   32.9311   50.4939 H   0  0  0  0  0  0  0  0  0  0  0  0
   39.7330   34.8803   50.2380 H   0  0  0  0  0  0  0  0  0  0  0  0
   40.8102   35.2962   48.0073 H   0  0  0  0  0  0  0  0  0  0  0  0
   40.3278   33.7559   46.0423 H   0  0  0  0  0  0  0  0  0  0  0  0
   36.9950   28.1949   50.2282 H   0  0  0  0  0  0  0  0  0  0  0  0
   38.7623   29.9764   49.9865 H   0  0  0  0  0  0  0  0  0  0  0  0
   33.3660   29.7834   47.6449 H   0  0  0  0  0  0  0  0  0  0  0  0
   33.9762   31.3375   47.0163 H   0  0  0  0  0  0  0  0  0  0  0  0
   39.8101   29.9374   46.6308 H   0  0  0  0  0  0  0  0  0  0  0  0
   38.5082   29.7085   45.4698 H   0  0  0  0  0  0  0  0  0  0  0  0
   41.2787   30.9104   45.0832 H   0  0  0  0  0  0  0  0  0  0  0  0
   40.3222   29.8653   43.9656 H   0  0  0  0  0  0  0  0  0  0  0  0
   40.2193   32.7308   44.3903 H   0  0  0  0  0  0  0  0  0  0  0  0
   38.1464   32.8278   43.1707 H   0  0  0  0  0  0  0  0  0  0  0  0
   38.0272   31.0364   43.4216 H   0  0  0  0  0  0  0  0  0  0  0  0
   37.5812   33.2738   45.3304 H   0  0  0  0  0  0  0  0  0  0  0  0
   36.8260   31.6706   45.2616 H   0  0  0  0  0  0  0  0  0  0  0  0
  1  9  1  0
  1  2  2  0
  3  2  1  0
  4  3  2  0
  5  6  2  0
  5  4  1  0
  6  1  1  0
  8  7  2  0
  9  8  1  0
 10 11  1  0
 10  9  2  0
 11 12  2  0
 12  7  1  0
 13 11  1  0
 14  6  1  0
 15 14  1  0
 16 15  1  0
 17 16  1  0
 18 17  1  0
 18 19  1  0
 19 14  1  0
  2 20  1  0
  3 21  1  0
  4 22  1  0
  5 23  1  0
  7 24  1  0
  8 25  1  0
 13 26  1  0
 13 27  1  0
 15 28  1  0
 15 29  1  0
 16 30  1  0
 16 31  1  0
 17 32  1  0
 18 33  1  0
 18 34  1  0
 19 35  1  0
 19 36  1  0
M  ISO  8  20  14  21  14  22  14  23  14  24  14  25  14  28  13  29  13
M  ISO  7  30  13  31  13  32   5  33  13  34  13  35  13  36  13
M  END
>  <minimizedAffinity>  (1) 
-5.92594576

>  <minimizedRMSD>  (1) 
3.20018172

$$$$
