
     RDKit          3D

 23 24  0  0  0  0  0  0  0  0999 V2000
   35.7480   30.4320   49.7850 C   0  0  0  0  0  0  0  0  0  0  0  0
   36.2740   29.9450   50.9810 C   0  0  0  0  0  0  0  0  0  0  0  0
   37.5970   30.2040   51.2990 C   0  0  0  0  0  0  0  0  0  0  0  0
   38.3350   30.9320   50.4150 N   0  0  0  0  0  0  0  0  0  0  0  0
   37.8070   31.3970   49.2570 C   0  0  0  0  0  0  0  0  0  0  0  0
   36.5110   31.1500   48.9350 N   0  0  0  0  0  0  0  0  0  0  0  0
   34.4470   30.2590   49.3240 O   0  0  0  0  0  0  0  0  0  0  0  0
   34.7900   27.5990   49.1460 O   0  0  0  0  0  0  0  0  0  0  0  0
   33.8760   28.7420   48.7460 P   0  0  1  0  0  0  0  0  0  0  0  0
   32.3230   28.5510   49.3970 O   0  0  0  0  0  0  0  0  0  0  0  0
   33.8270   28.7590   47.0620 O   0  0  0  0  0  0  0  0  0  0  0  0
   33.9460   30.0260   46.5260 C   0  0  0  0  0  0  0  0  0  0  0  0
   32.6280   30.6050   46.0560 C   0  0  0  0  0  0  0  0  0  0  0  0
   33.6380   30.1500   45.0180 C   0  0  0  0  0  0  0  0  0  0  0  0
   35.6434   29.3598   51.6665 H   0  0  0  0  0  0  0  0  0  0  0  0
   38.0381   29.8334   52.2361 H   0  0  0  0  0  0  0  0  0  0  0  0
   38.4357   31.9817   48.5694 H   0  0  0  0  0  0  0  0  0  0  0  0
   32.3765   28.5576   50.3855 H   0  0  0  0  0  0  0  0  0  0  0  0
   34.7753   30.3523   47.1708 H   0  0  0  0  0  0  0  0  0  0  0  0
   31.6982   30.0353   46.2004 H   0  0  0  0  0  0  0  0  0  0  0  0
   32.0877   31.5442   46.2455 H   0  0  0  0  0  0  0  0  0  0  0  0
   33.4450   29.2484   44.4181 H   0  0  0  0  0  0  0  0  0  0  0  0
   34.1350   30.6151   44.1539 H   0  0  0  0  0  0  0  0  0  0  0  0
  1  2  2  0
  2  3  1  0
  4  3  2  0
  5  4  1  0
  6  5  2  0
  6  1  1  0
  7  1  1  0
  9  8  2  0
  9  7  1  0
  9 10  1  0
 11  9  1  0
 12 11  1  0
 13 12  1  0
 14 13  1  0
 14 12  1  0
  2 15  1  0
  3 16  1  0
  5 17  1  0
 10 18  1  0
 12 19  1  0
 13 20  1  0
 13 21  1  0
 14 22  1  0
 14 23  1  0
M  ISO  8  15  14  16  14  17  14  18   3  19  13  20  13  21  13  22  13
M  ISO  1  23  13
M  END
>  <minimizedAffinity>  (1) 
-3.80780697

>  <minimizedRMSD>  (1) 
2.14008999

$$$$
