
     RDKit          3D

 32 34  0  0  1  0  0  0  0  0999 V2000
   37.6710   31.4680   47.4040 C   0  0  1  0  0  0  0  0  0  0  0  0
   36.3470   30.9390   47.1930 C   0  0  0  0  0  0  0  0  0  0  0  0
   37.2880   30.2560   48.1280 C   0  0  2  0  0  0  0  0  0  0  0  0
   38.7360   31.3290   46.3540 C   0  0  0  0  0  0  0  0  0  0  0  0
   39.7420   32.3220   46.3650 C   0  0  0  0  0  0  0  0  0  0  0  0
   40.7090   32.1640   45.4010 C   0  0  0  0  0  0  0  0  0  0  0  0
   40.6560   31.1190   44.5300 N   0  0  0  0  0  0  0  0  0  0  0  0
   39.6690   30.1880   44.5570 C   0  0  0  0  0  0  0  0  0  0  0  0
   38.6890   30.3150   45.5040 N   0  0  0  0  0  0  0  0  0  0  0  0
   39.6080   29.1000   43.6800 N   0  0  0  0  0  0  0  0  0  0  0  0
   37.0170   30.4260   49.4890 O   0  0  0  0  0  0  0  0  0  0  0  0
   35.6550   29.2890   51.3620 O   0  0  0  0  0  0  0  0  0  0  0  0
   35.6130   29.6340   49.9070 P   0  0  1  0  0  0  0  0  0  0  0  0
   34.2750   30.7220   49.7460 O   0  0  0  0  0  0  0  0  0  0  0  0
   35.4040   28.3100   48.8930 O   0  0  0  0  0  0  0  0  0  0  0  0
   34.2630   28.3490   48.1440 C   0  0  0  0  0  0  0  0  0  0  0  0
   33.0520   27.6980   48.7010 C   0  0  0  0  0  0  0  0  0  0  0  0
   33.7680   26.9840   47.6180 C   0  0  0  0  0  0  0  0  0  0  0  0
   38.0373   32.4688   47.6763 H   0  0  0  0  0  0  0  0  0  0  0  0
   35.4708   31.4745   47.5874 H   0  0  0  0  0  0  0  0  0  0  0  0
   35.7621   30.6312   46.3137 H   0  0  0  0  0  0  0  0  0  0  0  0
   37.6943   29.2394   48.2350 H   0  0  0  0  0  0  0  0  0  0  0  0
   39.7503   33.1529   47.0858 H   0  0  0  0  0  0  0  0  0  0  0  0
   41.5336   32.8888   45.3326 H   0  0  0  0  0  0  0  0  0  0  0  0
   38.8328   28.4254   43.7495 H   0  0  0  0  0  0  0  0  0  0  0  0
   40.3383   28.9735   42.9648 H   0  0  0  0  0  0  0  0  0  0  0  0
   33.9528   30.9840   50.6447 H   0  0  0  0  0  0  0  0  0  0  0  0
   34.4836   29.3384   47.7168 H   0  0  0  0  0  0  0  0  0  0  0  0
   33.0753   27.2946   49.7241 H   0  0  0  0  0  0  0  0  0  0  0  0
   32.0098   28.0213   48.8401 H   0  0  0  0  0  0  0  0  0  0  0  0
   33.3205   26.9059   46.6162 H   0  0  0  0  0  0  0  0  0  0  0  0
   34.2080   25.9835   47.4938 H   0  0  0  0  0  0  0  0  0  0  0  0
  1  3  1  0
  2  1  1  0
  2  3  1  0
  3 11  1  0
  4  5  2  0
  4  1  1  0
  6  5  1  0
  7  8  1  0
  7  6  2  0
  8  9  2  0
  9  4  1  0
 10  8  1  0
 11 13  1  0
 13 12  2  0
 14 13  1  0
 15 13  1  0
 16 17  1  0
 16 15  1  0
 18 16  1  0
 18 17  1  0
  1 19  1  1
  2 20  1  0
  2 21  1  0
  3 22  1  6
  5 23  1  0
  6 24  1  0
 10 25  1  0
 10 26  1  0
 14 27  1  0
 16 28  1  0
 17 29  1  0
 17 30  1  0
 18 31  1  0
 18 32  1  0
M  ISO  8  19  13  20  13  21  13  22  13  23  14  24  14  27   3  28  13
M  ISO  4  29  13  30  13  31  13  32  13
M  END
>  <minimizedAffinity>  (1) 
-4.79076576

>  <minimizedRMSD>  (1) 
2.516752

$$$$
