
     RDKit          3D

 38 40  0  0  1  0  0  0  0  0999 V2000
   35.9330   29.8210   46.8500 O   0  0  0  0  0  0  0  0  0  0  0  0
   36.0090   30.2020   48.3020 P   0  0  2  0  0  0  0  0  0  0  0  0
   36.8160   28.9320   49.1350 O   0  0  0  0  0  0  0  0  0  0  0  0
   34.4590   30.3950   48.9560 O   0  0  0  0  0  0  0  0  0  0  0  0
   34.2010   29.2860   49.7350 C   0  0  0  0  0  0  0  0  0  0  0  0
   33.3250   28.2920   49.0750 C   0  0  0  0  0  0  0  0  0  0  0  0
   33.9370   27.3760   48.2540 C   0  0  0  0  0  0  0  0  0  0  0  0
   33.1680   26.4100   47.6020 C   0  0  0  0  0  0  0  0  0  0  0  0
   31.8240   26.4420   47.8270 N   0  0  0  0  0  0  0  0  0  0  0  0
   31.2450   27.3510   48.6350 C   0  0  0  0  0  0  0  0  0  0  0  0
   31.9950   28.2810   49.2630 N   0  0  0  0  0  0  0  0  0  0  0  0
   36.8870   31.6280   48.4640 O   0  0  0  0  0  0  0  0  0  0  0  0
   38.9770   32.4420   47.8520 C   0  0  2  0  0  0  0  0  0  0  0  0
   38.2410   31.4090   48.6630 C   0  0  1  0  0  0  0  0  0  0  0  0
   38.6290   31.9220   50.0600 C   0  0  0  0  0  0  0  0  0  0  0  0
   38.3200   33.2650   49.9500 O   0  0  0  0  0  0  0  0  0  0  0  0
   38.6940   33.6990   48.6940 C   0  0  0  0  0  0  0  0  0  0  0  0
   38.3850   32.5180   46.6030 O   0  0  0  0  0  0  0  0  0  0  0  0
   39.1910   32.1160   45.5710 C   0  0  0  0  0  0  0  0  0  0  0  0
   39.5710   33.2540   44.6110 C   0  0  0  0  0  0  0  0  0  0  0  0
   40.5890   32.5640   45.4260 C   0  0  0  0  0  0  0  0  0  0  0  0
   36.7284   29.0699   50.1114 H   0  0  0  0  0  0  0  0  0  0  0  0
   35.1578   28.8004   49.9773 H   0  0  0  0  0  0  0  0  0  0  0  0
   33.6723   29.6374   50.6334 H   0  0  0  0  0  0  0  0  0  0  0  0
   35.0273   27.4035   48.1110 H   0  0  0  0  0  0  0  0  0  0  0  0
   33.6244   25.6600   46.9393 H   0  0  0  0  0  0  0  0  0  0  0  0
   30.1552   27.3353   48.7838 H   0  0  0  0  0  0  0  0  0  0  0  0
   40.0473   32.2617   47.6735 H   0  0  0  0  0  0  0  0  0  0  0  0
   38.4532   30.3490   48.4595 H   0  0  0  0  0  0  0  0  0  0  0  0
   38.0348   31.4351   50.8473 H   0  0  0  0  0  0  0  0  0  0  0  0
   39.6737   31.7212   50.3399 H   0  0  0  0  0  0  0  0  0  0  0  0
   39.5993   34.3200   48.7625 H   0  0  0  0  0  0  0  0  0  0  0  0
   37.9014   34.3091   48.2362 H   0  0  0  0  0  0  0  0  0  0  0  0
   38.7369   31.1144   45.5483 H   0  0  0  0  0  0  0  0  0  0  0  0
   39.2868   34.2913   44.8417 H   0  0  0  0  0  0  0  0  0  0  0  0
   39.4286   33.4589   43.5397 H   0  0  0  0  0  0  0  0  0  0  0  0
   41.3212   31.9057   44.9356 H   0  0  0  0  0  0  0  0  0  0  0  0
   41.3560   32.9068   46.1361 H   0  0  0  0  0  0  0  0  0  0  0  0
  2  1  2  0
  2 12  1  0
  2  4  1  0
  2  3  1  0
  4  5  1  0
  6 11  1  0
  6  5  1  0
  7  6  2  0
  8  9  2  0
  8  7  1  0
  9 10  1  0
 10 11  2  0
 12 14  1  0
 13 14  1  0
 13 17  1  0
 14 15  1  0
 16 15  1  0
 17 16  1  0
 18 13  1  0
 19 18  1  0
 20 21  1  0
 20 19  1  0
 21 19  1  0
  3 22  1  0
  5 23  1  0
  5 24  1  0
  7 25  1  0
  8 26  1  0
 10 27  1  0
 13 28  1  6
 14 29  1  6
 15 30  1  0
 15 31  1  0
 17 32  1  0
 17 33  1  0
 19 34  1  0
 20 35  1  0
 20 36  1  0
 21 37  1  0
 21 38  1  0
M  ISO  8  22   3  23   8  24   8  25  14  26  14  27  14  28  13  29  13
M  ISO  8  30  13  31  13  32  13  33  13  34  13  35  13  36  13  37  13
M  ISO  1  38  13
M  END
>  <minimizedAffinity>  (1) 
-4.32741308

>  <minimizedRMSD>  (1) 
0.362763673

$$$$
