
     RDKit          3D

 19 20  0  0  0  0  0  0  0  0999 V2000
   37.5570   30.4550   50.8770 C   0  0  0  0  0  0  0  0  0  0  0  0
   38.3720   31.3430   50.1350 C   0  0  0  0  0  0  0  0  0  0  0  0
   37.9660   31.6690   48.8410 C   0  0  0  0  0  0  0  0  0  0  0  0
   36.8240   31.1160   48.3810 N   0  0  0  0  0  0  0  0  0  0  0  0
   36.0680   30.2730   49.1090 C   0  0  0  0  0  0  0  0  0  0  0  0
   36.4270   29.9420   50.3450 N   0  0  0  0  0  0  0  0  0  0  0  0
   34.8400   29.6900   48.5890 C   0  0  0  0  0  0  0  0  0  0  0  0
   34.1210   30.2410   47.7270 O   0  0  0  0  0  0  0  0  0  0  0  0
   34.3160   28.3670   49.0370 C   0  0  0  0  0  0  0  0  0  0  0  0
   34.0300   27.3090   48.0390 C   0  0  0  0  0  0  0  0  0  0  0  0
   32.8890   28.0110   48.8010 C   0  0  0  0  0  0  0  0  0  0  0  0
   37.8482   30.1790   51.9012 H   0  0  0  0  0  0  0  0  0  0  0  0
   39.2942   31.7618   50.5642 H   0  0  0  0  0  0  0  0  0  0  0  0
   38.5572   32.3544   48.2159 H   0  0  0  0  0  0  0  0  0  0  0  0
   34.9500   28.4193   49.9344 H   0  0  0  0  0  0  0  0  0  0  0  0
   34.2781   26.2601   48.2588 H   0  0  0  0  0  0  0  0  0  0  0  0
   34.2790   27.1420   46.9807 H   0  0  0  0  0  0  0  0  0  0  0  0
   32.2224   28.7121   48.2775 H   0  0  0  0  0  0  0  0  0  0  0  0
   32.0456   27.6860   49.4279 H   0  0  0  0  0  0  0  0  0  0  0  0
  2  1  2  0
  3  2  1  0
  4  3  2  0
  4  5  1  0
  5  6  2  0
  6  1  1  0
  7  9  1  0
  7  5  1  0
  8  7  2  0
 10 11  1  0
 10  9  1  0
 11  9  1  0
  1 12  1  0
  2 13  1  0
  3 14  1  0
  9 15  1  0
 10 16  1  0
 10 17  1  0
 11 18  1  0
 11 19  1  0
M  ISO  8  12  14  13  14  14  14  15  13  16  13  17  13  18  13  19  13
M  END
>  <minimizedAffinity>  (1) 
-3.97096729

>  <minimizedRMSD>  (1) 
1.58119166

$$$$
