
     RDKit          3D

 39 42  0  0  1  0  0  0  0  0999 V2000
   37.9630   31.6370   45.1140 C   0  0  0  0  0  0  0  0  0  0  0  0
   36.9380   30.9280   45.2920 O   0  0  0  0  0  0  0  0  0  0  0  0
   38.4510   32.5120   46.1470 N   0  0  0  0  0  0  0  0  0  0  0  0
   38.6910   31.5900   43.8390 C   0  0  0  0  0  0  0  0  0  0  0  0
   39.7760   30.7640   43.7310 C   0  0  0  0  0  0  0  0  0  0  0  0
   40.4590   30.6940   42.5300 C   0  0  0  0  0  0  0  0  0  0  0  0
   40.0000   31.4680   41.5080 C   0  0  0  0  0  0  0  0  0  0  0  0
   38.9050   32.3150   41.5890 C   0  0  0  0  0  0  0  0  0  0  0  0
   38.2800   32.3370   42.7930 N   0  0  0  0  0  0  0  0  0  0  0  0
   38.4790   33.1330   40.4490 C   0  0  0  0  0  0  0  0  0  0  0  0
   38.0040   34.2880   40.7070 O   0  0  0  0  0  0  0  0  0  0  0  0
   38.6520   32.5170   39.0940 C   0  0  0  0  0  0  0  0  0  0  0  0
   39.5710   33.3630   38.1880 C   0  0  0  0  0  0  0  0  0  0  0  0
   38.1350   33.2580   37.8990 C   0  0  0  0  0  0  0  0  0  0  0  0
   38.5390   31.4490   48.3940 C   0  0  2  0  0  0  0  0  0  0  0  0
   38.8500   32.8840   48.5880 C   0  0  0  0  0  0  0  0  0  0  0  0
   37.9090   32.3410   47.4760 C   0  0  1  0  0  0  0  0  0  0  0  0
   35.9370   29.2280   49.8040 C   0  0  0  0  0  0  0  0  0  0  0  0
   36.2260   29.2890   51.1980 C   0  0  0  0  0  0  0  0  0  0  0  0
   37.3260   30.1200   51.6380 C   0  0  0  0  0  0  0  0  0  0  0  0
   38.0480   30.8120   50.7010 N   0  0  0  0  0  0  0  0  0  0  0  0
   37.7080   30.6990   49.3860 C   0  0  0  0  0  0  0  0  0  0  0  0
   36.6640   29.9200   48.9020 N   0  0  0  0  0  0  0  0  0  0  0  0
   39.1594   33.2325   45.9470 H   0  0  0  0  0  0  0  0  0  0  0  0
   40.1024   30.1610   44.5912 H   0  0  0  0  0  0  0  0  0  0  0  0
   41.3354   30.0410   42.4059 H   0  0  0  0  0  0  0  0  0  0  0  0
   40.5365   31.4177   40.5490 H   0  0  0  0  0  0  0  0  0  0  0  0
   38.5554   31.4766   39.4379 H   0  0  0  0  0  0  0  0  0  0  0  0
   39.9907   34.3097   38.5591 H   0  0  0  0  0  0  0  0  0  0  0  0
   40.4962   33.1760   37.6231 H   0  0  0  0  0  0  0  0  0  0  0  0
   37.4871   34.1352   38.0432 H   0  0  0  0  0  0  0  0  0  0  0  0
   37.5562   32.9628   37.0114 H   0  0  0  0  0  0  0  0  0  0  0  0
   39.1780   30.5620   48.2716 H   0  0  0  0  0  0  0  0  0  0  0  0
   38.4420   33.4349   49.4482 H   0  0  0  0  0  0  0  0  0  0  0  0
   39.7549   33.5075   48.6370 H   0  0  0  0  0  0  0  0  0  0  0  0
   36.8639   32.4569   47.1531 H   0  0  0  0  0  0  0  0  0  0  0  0
   35.1021   28.6025   49.4551 H   0  0  0  0  0  0  0  0  0  0  0  0
   35.6270   28.7179   51.9226 H   0  0  0  0  0  0  0  0  0  0  0  0
   37.5783   30.1949   52.7061 H   0  0  0  0  0  0  0  0  0  0  0  0
  1  2  2  0
  1  3  1  0
  3 17  1  0
  4  1  1  0
  5  4  2  0
  6  5  1  0
  7  8  1  0
  7  6  2  0
  8  9  2  0
  9  4  1  0
 10 11  2  0
 10  8  1  0
 12 10  1  0
 13 12  1  0
 14 13  1  0
 14 12  1  0
 15 16  1  0
 15 22  1  0
 17 15  1  0
 17 16  1  0
 18 19  2  0
 19 20  1  0
 21 20  2  0
 22 21  1  0
 23 22  2  0
 23 18  1  0
  3 24  1  0
  5 25  1  0
  6 26  1  0
  7 27  1  0
 12 28  1  0
 13 29  1  0
 13 30  1  0
 14 31  1  0
 14 32  1  0
 15 33  1  6
 16 34  1  0
 16 35  1  0
 17 36  1  6
 18 37  1  0
 19 38  1  0
 20 39  1  0
M  ISO  8  25  14  26  14  27  14  28  13  29  13  30  13  31  13  32  13
M  ISO  7  33  13  34  13  35  13  36  13  37  14  38  14  39  14
M  END
>  <minimizedAffinity>  (1) 
-5.34041166

>  <minimizedRMSD>  (1) 
1.12918985

$$$$
