
     RDKit          3D

 18 19  0  0  0  0  0  0  0  0999 V2000
   37.3302   30.2346   51.4178 C   0  0  0  0  0  0  0  0  0  0  0  0
   38.0803   30.7385   50.3521 C   0  0  0  0  0  0  0  0  0  0  0  0
   37.7014   30.3759   49.0501 C   0  0  0  0  0  0  0  0  0  0  0  0
   36.6123   29.5440   48.8901 N   0  0  0  0  0  0  0  0  0  0  0  0
   35.9173   29.0823   49.9665 C   0  0  0  0  0  0  0  0  0  0  0  0
   36.2841   29.4326   51.2147 N   0  0  0  0  0  0  0  0  0  0  0  0
   34.8664   28.2670   49.5978 O   0  0  0  0  0  0  0  0  0  0  0  0
   37.6326   30.5214   52.4143 H   0  0  0  0  0  0  0  0  0  0  0  0
   38.9399   31.3935   50.4507 H   0  0  0  0  0  0  0  0  0  0  0  0
   38.2422   30.7344   48.2001 H   0  0  0  0  0  0  0  0  0  0  0  0
   34.0556   27.7148   50.6209 C   0  0  0  0  0  0  0  0  0  0  0  0
   34.6484   26.8172   51.6395 C   0  0  0  0  0  0  0  0  0  0  0  0
   33.9156   26.2005   50.4943 C   0  0  0  0  0  0  0  0  0  0  0  0
   33.1646   28.3043   50.9459 H   0  0  0  0  0  0  0  0  0  0  0  0
   35.7413   26.7308   51.6431 H   0  0  0  0  0  0  0  0  0  0  0  0
   34.1325   26.7458   52.6251 H   0  0  0  0  0  0  0  0  0  0  0  0
   32.8574   25.8449   50.6140 H   0  0  0  0  0  0  0  0  0  0  0  0
   34.4408   25.6679   49.6886 H   0  0  0  0  0  0  0  0  0  0  0  0
  2  1  2  0
  3  2  1  0
  4  3  2  0
  4  5  1  0
  5  6  2  0
  6  1  1  0
  7  5  1  0
  1  8  1  0
  2  9  1  0
  3 10  1  0
 11 12  1  0
 12 13  1  0
 13 11  1  0
 11 14  1  0
 12 15  1  0
 12 16  1  0
 13 17  1  0
 13 18  1  0
  7 11  1  0
M  ISO  3   8  14   9  14  10  14
M  END
>  <DihAtoms>  (1) 
4,6,10,11

>  <DihDeg>  (1) 
-151.0529990157183

$$$$
