
     RDKit          3D

 19 20  0  0  0  0  0  0  0  0999 V2000
   37.2669   30.1806   51.4259 C   0  0  0  0  0  0  0  0  0  0  0  0
   38.1010   30.7576   50.4387 C   0  0  0  0  0  0  0  0  0  0  0  0
   37.8028   30.4926   49.1020 C   0  0  0  0  0  0  0  0  0  0  0  0
   36.7401   29.7046   48.8376 N   0  0  0  0  0  0  0  0  0  0  0  0
   35.9631   29.1686   49.7977 C   0  0  0  0  0  0  0  0  0  0  0  0
   36.2202   29.4015   51.0805 N   0  0  0  0  0  0  0  0  0  0  0  0
   34.8220   28.3214   49.4865 C   0  0  0  0  0  0  0  0  0  0  0  0
   33.6338   28.7060   49.5501 O   0  0  0  0  0  0  0  0  0  0  0  0
   37.5037   30.3901   52.4605 H   0  0  0  0  0  0  0  0  0  0  0  0
   38.9477   31.3863   50.6764 H   0  0  0  0  0  0  0  0  0  0  0  0
   38.4141   30.9133   48.3144 H   0  0  0  0  0  0  0  0  0  0  0  0
   34.9600   26.8986   49.0574 C   0  0  0  0  0  0  0  0  0  0  0  0
   34.0488   25.8687   49.6114 C   0  0  0  0  0  0  0  0  0  0  0  0
   35.5449   25.8925   49.9864 C   0  0  0  0  0  0  0  0  0  0  0  0
   35.3081   26.8061   48.0022 H   0  0  0  0  0  0  0  0  0  0  0  0
   33.7483   25.0848   48.8934 H   0  0  0  0  0  0  0  0  0  0  0  0
   33.3567   26.1568   50.4212 H   0  0  0  0  0  0  0  0  0  0  0  0
   36.1746   25.0800   49.5791 H   0  0  0  0  0  0  0  0  0  0  0  0
   35.7746   26.1752   51.0296 H   0  0  0  0  0  0  0  0  0  0  0  0
  2  1  2  0
  3  2  1  0
  4  3  2  0
  4  5  1  0
  5  6  2  0
  6  1  1  0
  7  8  2  0
  7  5  1  0
  1  9  1  0
  2 10  1  0
  3 11  1  0
 12 13  1  0
 13 14  1  0
 14 12  1  0
 12 15  1  0
 13 16  1  0
 13 17  1  0
 14 18  1  0
 14 19  1  0
  7 12  1  0
M  ISO  3   9  14  10  14  11  14
M  END
>  <DihAtoms>  (1) 
7,6,11,12

>  <DihDeg>  (1) 
32.41649647972647

$$$$
