
     RDKit          3D

 36 38  0  0  0  0  0  0  0  0999 V2000
   37.1320   30.9597   49.0161 C   0  0  0  0  0  0  0  0  0  0  0  0
   36.9130   31.9295   50.0094 C   0  0  0  0  0  0  0  0  0  0  0  0
   37.5597   33.1612   49.9801 C   0  0  0  0  0  0  0  0  0  0  0  0
   38.4517   33.4640   48.9498 C   0  0  0  0  0  0  0  0  0  0  0  0
   38.6476   32.4989   47.9922 C   0  0  0  0  0  0  0  0  0  0  0  0
   37.9974   31.2786   48.0346 C   0  0  0  0  0  0  0  0  0  0  0  0
   36.4174   29.7029   49.1225 C   0  0  0  0  0  0  0  0  0  0  0  0
   36.9275   28.8668   49.9506 O   0  0  0  0  0  0  0  0  0  0  0  0
   33.6263   30.1862   46.8505 C   0  0  0  0  0  0  0  0  0  0  0  0
   32.9645   28.9584   46.8763 C   0  0  0  0  0  0  0  0  0  0  0  0
   33.4753   27.9574   47.6766 C   0  0  0  0  0  0  0  0  0  0  0  0
   34.5942   28.1861   48.4106 N   0  0  0  0  0  0  0  0  0  0  0  0
   35.2109   29.3590   48.3745 C   0  0  0  0  0  0  0  0  0  0  0  0
   34.7114   30.3464   47.5883 N   0  0  0  0  0  0  0  0  0  0  0  0
   38.3310   30.3951   46.9530 C   0  0  0  0  0  0  0  0  0  0  0  0
   38.8026   30.6917   45.7631 C   0  0  0  0  0  0  0  0  0  0  0  0
   39.1965   29.9153   44.5978 C   0  0  0  0  0  0  0  0  0  0  0  0
   36.2204   31.6885   50.8050 H   0  0  0  0  0  0  0  0  0  0  0  0
   37.3636   33.8853   50.7674 H   0  0  0  0  0  0  0  0  0  0  0  0
   38.9322   34.4335   48.9667 H   0  0  0  0  0  0  0  0  0  0  0  0
   39.3520   32.8013   47.2236 H   0  0  0  0  0  0  0  0  0  0  0  0
   33.2794   31.0102   46.2464 H   0  0  0  0  0  0  0  0  0  0  0  0
   32.0888   28.9045   46.2491 H   0  0  0  0  0  0  0  0  0  0  0  0
   32.9485   27.0288   47.6765 H   0  0  0  0  0  0  0  0  0  0  0  0
   38.2037   29.3245   47.0409 H   0  0  0  0  0  0  0  0  0  0  0  0
   38.9820   31.7528   45.5146 H   0  0  0  0  0  0  0  0  0  0  0  0
   38.5674   30.1865   43.7132 H   0  0  0  0  0  0  0  0  0  0  0  0
   40.2522   30.0999   44.3148 H   0  0  0  0  0  0  0  0  0  0  0  0
   39.0465   28.4446   44.8870 C   0  0  0  0  0  0  0  0  0  0  0  0
   40.2082   27.5544   44.4344 C   0  0  0  0  0  0  0  0  0  0  0  0
   38.8646   27.4376   43.8159 C   0  0  0  0  0  0  0  0  0  0  0  0
   38.7310   28.2430   45.9299 H   0  0  0  0  0  0  0  0  0  0  0  0
   40.5831   26.7733   45.1334 H   0  0  0  0  0  0  0  0  0  0  0  0
   41.0190   28.0254   43.8412 H   0  0  0  0  0  0  0  0  0  0  0  0
   38.2974   26.5184   44.1027 H   0  0  0  0  0  0  0  0  0  0  0  0
   38.7186   27.7746   42.7905 H   0  0  0  0  0  0  0  0  0  0  0  0
  1  7  1  0
  1  2  2  0
  3  2  1  0
  4  3  2  0
  5  6  2  0
  5  4  1  0
  6  1  1  0
  7  8  2  0
  9 10  2  0
  9 14  1  0
 10 11  1  0
 11 12  2  0
 13 12  1  0
 13  7  1  0
 14 13  2  0
 15  6  1  0
 16 15  2  0
 17 16  1  0
  2 18  1  0
  3 19  1  0
  4 20  1  0
  5 21  1  0
  9 22  1  0
 10 23  1  0
 11 24  1  0
 15 25  1  0
 16 26  1  0
 17 27  1  0
 17 28  1  0
 29 30  1  0
 30 31  1  0
 31 29  1  0
 29 32  1  0
 30 33  1  0
 30 34  1  0
 31 35  1  0
 31 36  1  0
 17 29  1  0
M  ISO  8  18  14  19  14  20  14  21  14  22  14  23  14  24  14  27   8
M  ISO  1  28   8
M  END
>  <DihAtoms>  (1) 
15,16,28,29

>  <DihDeg>  (1) 
-60.52170485877097

$$$$
