
     RDKit          3D

 35 38  0  0  1  0  0  0  0  0999 V2000
   35.8360   29.3710   49.0970 C   0  0  0  0  0  0  0  0  0  0  0  0
   34.8570   28.8040   49.8820 C   0  0  0  0  0  0  0  0  0  0  0  0
   33.7310   28.6020   49.0610 C   0  0  0  0  0  0  0  0  0  0  0  0
   34.1120   29.0670   47.8190 C   0  0  0  0  0  0  0  0  0  0  0  0
   35.3500   29.5070   47.8860 O   0  0  0  0  0  0  0  0  0  0  0  0
   37.1460   29.7170   49.6250 C   0  0  0  0  0  0  0  0  0  0  0  0
   37.6230   29.0440   50.5510 O   0  0  0  0  0  0  0  0  0  0  0  0
   37.8180   30.8440   49.0210 C   0  0  0  0  0  0  0  0  0  0  0  0
   37.8460   32.0170   49.7550 C   0  0  0  0  0  0  0  0  0  0  0  0
   38.4870   33.1300   49.1990 C   0  0  0  0  0  0  0  0  0  0  0  0
   39.0500   32.9920   47.9560 N   0  0  0  0  0  0  0  0  0  0  0  0
   38.9980   31.8420   47.2810 C   0  0  0  0  0  0  0  0  0  0  0  0
   38.3880   30.7730   47.8040 N   0  0  0  0  0  0  0  0  0  0  0  0
   33.2710   29.0650   46.6200 C   0  0  0  0  0  0  0  0  0  0  0  0
   32.4370   29.9970   46.4550 O   0  0  0  0  0  0  0  0  0  0  0  0
   33.3890   27.9810   45.6130 C   0  0  1  0  0  0  0  0  0  0  0  0
   33.8210   26.6210   46.2870 C   0  0  0  0  0  0  0  0  0  0  0  0
   32.5140   26.8120   45.5860 C   0  0  1  0  0  0  0  0  0  0  0  0
   31.2530   26.7640   46.3650 C   0  0  0  0  0  0  0  0  0  0  0  0
   31.1140   26.2220   47.7250 C   0  0  0  0  0  0  0  0  0  0  0  0
   30.5610   25.4170   46.5140 C   0  0  0  0  0  0  0  0  0  0  0  0
   34.9392   28.5554   50.9504 H   0  0  0  0  0  0  0  0  0  0  0  0
   32.7611   28.1688   49.3468 H   0  0  0  0  0  0  0  0  0  0  0  0
   37.3771   32.0730   50.7485 H   0  0  0  0  0  0  0  0  0  0  0  0
   38.5377   34.0854   49.7418 H   0  0  0  0  0  0  0  0  0  0  0  0
   39.4610   31.7728   46.2856 H   0  0  0  0  0  0  0  0  0  0  0  0
   33.6883   28.6699   44.8094 H   0  0  0  0  0  0  0  0  0  0  0  0
   34.6107   26.0007   45.8380 H   0  0  0  0  0  0  0  0  0  0  0  0
   34.1499   26.2953   47.2849 H   0  0  0  0  0  0  0  0  0  0  0  0
   32.0066   26.2903   44.7611 H   0  0  0  0  0  0  0  0  0  0  0  0
   31.0082   27.7572   45.9605 H   0  0  0  0  0  0  0  0  0  0  0  0
   32.0013   25.8607   48.2655 H   0  0  0  0  0  0  0  0  0  0  0  0
   30.6889   26.5938   48.6690 H   0  0  0  0  0  0  0  0  0  0  0  0
   29.4767   25.3260   46.3529 H   0  0  0  0  0  0  0  0  0  0  0  0
   30.6956   24.4050   46.1045 H   0  0  0  0  0  0  0  0  0  0  0  0
  1  6  1  0
  1  2  2  0
  3  2  1  0
  4  5  1  0
  4  3  2  0
  5  1  1  0
  6  7  2  0
  8  6  1  0
  8  9  2  0
 10  9  1  0
 11 10  2  0
 12 13  2  0
 12 11  1  0
 13  8  1  0
 14  4  1  0
 15 14  2  0
 16 17  1  0
 16 14  1  0
 18 16  1  0
 18 17  1  0
 18 19  1  0
 19 21  1  0
 19 20  1  0
 21 20  1  0
  2 22  1  0
  3 23  1  0
  9 24  1  0
 10 25  1  0
 12 26  1  0
 16 27  1  6
 17 28  1  0
 17 29  1  0
 18 30  1  6
 19 31  1  0
 20 32  1  0
 20 33  1  0
 21 34  1  0
 21 35  1  0
M  ISO  8  22  14  23  14  24  14  25  14  26  14  27  13  28  13  29  13
M  ISO  6  30  13  31  13  32  13  33  13  34  13  35  13
M  END
>  <minimizedAffinity>  (1) 
-5.00785685

>  <minimizedRMSD>  (1) 
1.35125113

$$$$
