
     RDKit          3D

 27 29  0  0  0  0  0  0  0  0999 V2000
   37.3682   31.3682   49.2053 C   0  0  0  0  0  0  0  0  0  0  0  0
   37.7035   32.6648   49.6001 C   0  0  0  0  0  0  0  0  0  0  0  0
   38.5802   33.3381   48.7779 C   0  0  0  0  0  0  0  0  0  0  0  0
   39.0654   32.7260   47.6499 N   0  0  0  0  0  0  0  0  0  0  0  0
   38.7044   31.4507   47.3067 C   0  0  0  0  0  0  0  0  0  0  0  0
   37.8325   30.7569   48.1094 N   0  0  0  0  0  0  0  0  0  0  0  0
   36.3862   30.6164   50.0660 C   0  0  0  0  0  0  0  0  0  0  0  0
   36.2553   29.1817   50.0432 C   0  0  0  0  0  0  0  0  0  0  0  0
   37.0731   29.7919   51.1677 C   0  0  0  0  0  0  0  0  0  0  0  0
   39.1983   30.7772   46.0978 C   0  0  0  0  0  0  0  0  0  0  0  0
   37.2957   33.1071   50.4980 H   0  0  0  0  0  0  0  0  0  0  0  0
   38.8993   34.3480   49.0013 H   0  0  0  0  0  0  0  0  0  0  0  0
   35.5394   31.2640   50.4453 H   0  0  0  0  0  0  0  0  0  0  0  0
   35.2589   28.7558   50.2980 H   0  0  0  0  0  0  0  0  0  0  0  0
   36.8253   28.5506   49.3329 H   0  0  0  0  0  0  0  0  0  0  0  0
   36.5988   29.8004   52.1769 H   0  0  0  0  0  0  0  0  0  0  0  0
   38.1649   29.7166   51.1684 H   0  0  0  0  0  0  0  0  0  0  0  0
   40.2447   31.0546   45.8624 H   0  0  0  0  0  0  0  0  0  0  0  0
   39.2092   29.6812   46.2715 H   0  0  0  0  0  0  0  0  0  0  0  0
   38.2786   31.0413   44.9284 C   0  0  0  0  0  0  0  0  0  0  0  0
   37.5986   29.9450   44.2174 C   0  0  0  0  0  0  0  0  0  0  0  0
   36.8187   30.9524   45.0860 C   0  0  0  0  0  0  0  0  0  0  0  0
   38.6390   31.8823   44.2679 H   0  0  0  0  0  0  0  0  0  0  0  0
   37.5864   28.8938   44.5477 H   0  0  0  0  0  0  0  0  0  0  0  0
   37.4000   30.0565   43.1191 H   0  0  0  0  0  0  0  0  0  0  0  0
   36.1330   31.6620   44.5624 H   0  0  0  0  0  0  0  0  0  0  0  0
   36.3233   30.5035   45.9696 H   0  0  0  0  0  0  0  0  0  0  0  0
  1  2  2  0
  1  7  1  0
  3  2  1  0
  4  3  2  0
  5  4  1  0
  5  6  2  0
  6  1  1  0
  7  9  1  0
  8  7  1  0
  8  9  1  0
 10  5  1  0
  2 11  1  0
  3 12  1  0
  7 13  1  0
  8 14  1  0
  8 15  1  0
  9 16  1  0
  9 17  1  0
 10 18  1  0
 10 19  1  0
 20 21  1  0
 21 22  1  0
 22 20  1  0
 20 23  1  0
 21 24  1  0
 21 25  1  0
 22 26  1  0
 22 27  1  0
 10 20  1  0
M  ISO  8  11  14  12  14  13  13  14  13  15  13  16  13  17  13  18   8
M  ISO  1  19   8
M  END
>  <DihAtoms>  (1) 
4,9,19,20

>  <DihDeg>  (1) 
60.00119742410353

$$$$
