
     RDKit          3D

 28 30  0  0  0  0  0  0  0  0999 V2000
   36.7620   30.6290   49.0240 C   0  0  0  0  0  0  0  0  0  0  0  0
   37.8410   30.8250   48.1830 C   0  0  0  0  0  0  0  0  0  0  0  0
   37.6900   30.7420   46.8120 C   0  0  0  0  0  0  0  0  0  0  0  0
   36.4670   30.4670   46.3430 N   0  0  0  0  0  0  0  0  0  0  0  0
   35.4090   30.2750   47.1810 C   0  0  0  0  0  0  0  0  0  0  0  0
   35.5530   30.3540   48.4930 N   0  0  0  0  0  0  0  0  0  0  0  0
   38.8060   30.9420   45.8990 C   0  0  0  0  0  0  0  0  0  0  0  0
   40.0230   31.4560   46.2440 C   0  0  0  0  0  0  0  0  0  0  0  0
   40.7520   31.4560   45.0590 C   0  0  0  0  0  0  0  0  0  0  0  0
   39.9900   30.9620   44.0550 N   0  0  0  0  0  0  0  0  0  0  0  0
   38.8040   30.6520   44.5810 N   0  0  0  0  0  0  0  0  0  0  0  0
   40.3280   30.7750   42.6600 C   0  0  0  0  0  0  0  0  0  0  0  0
   41.1700   29.5270   42.3520 C   0  0  0  0  0  0  0  0  0  0  0  0
   39.7300   29.6300   41.9260 C   0  0  0  0  0  0  0  0  0  0  0  0
   37.0840   30.7480   50.3670 O   0  0  0  0  0  0  0  0  0  0  0  0
   37.0070   29.6940   51.2860 C   0  0  0  0  0  0  0  0  0  0  0  0
   35.6920   29.3070   51.5380 F   0  0  0  0  0  0  0  0  0  0  0  0
   37.6330   30.0650   52.4470 F   0  0  0  0  0  0  0  0  0  0  0  0
   37.7000   28.6200   50.7620 F   0  0  0  0  0  0  0  0  0  0  0  0
   38.8299   31.0493   48.6093 H   0  0  0  0  0  0  0  0  0  0  0  0
   34.4185   30.0505   46.7584 H   0  0  0  0  0  0  0  0  0  0  0  0
   40.3533   31.7945   47.2371 H   0  0  0  0  0  0  0  0  0  0  0  0
   41.7900   31.8045   44.9538 H   0  0  0  0  0  0  0  0  0  0  0  0
   40.3934   31.8547   42.4600 H   0  0  0  0  0  0  0  0  0  0  0  0
   41.9742   29.5721   41.6028 H   0  0  0  0  0  0  0  0  0  0  0  0
   41.7671   28.8157   42.9415 H   0  0  0  0  0  0  0  0  0  0  0  0
   39.4836   29.7356   40.8592 H   0  0  0  0  0  0  0  0  0  0  0  0
   38.8387   29.0033   42.0774 H   0  0  0  0  0  0  0  0  0  0  0  0
  1 15  1  0
  2  1  2  0
  3  2  1  0
  4  3  2  0
  4  5  1  0
  5  6  2  0
  6  1  1  0
  7  8  1  0
  7  3  1  0
  9  8  2  0
 10 11  1  0
 10  9  1  0
 11  7  2  0
 12 10  1  0
 13 12  1  0
 14 13  1  0
 14 12  1  0
 15 16  1  0
 16 17  1  0
 16 18  1  0
 19 16  1  0
  2 20  1  0
  5 21  1  0
  8 22  1  0
  9 23  1  0
 12 24  1  0
 13 25  1  0
 13 26  1  0
 14 27  1  0
 14 28  1  0
M  ISO  8  20  14  21  14  22  14  23  14  24  13  25  13  26  13  27  13
M  ISO  1  28  13
M  END
>  <minimizedAffinity>  (1) 
-5.72268534

>  <minimizedRMSD>  (1) 
2.38392091

$$$$
