
     RDKit          3D

 39 42  0  0  0  0  0  0  0  0999 V2000
   38.4317   31.1240   48.1699 C   0  0  2  0  0  0  0  0  0  0  0  0
   38.6946   32.5793   48.0848 C   0  0  0  0  0  0  0  0  0  0  0  0
   38.0697   31.7401   46.9349 C   0  0  1  0  0  0  0  0  0  0  0  0
   35.0877   30.2506   49.4930 C   0  0  0  0  0  0  0  0  0  0  0  0
   35.4209   29.5505   50.6879 C   0  0  0  0  0  0  0  0  0  0  0  0
   36.8187   29.3966   51.0301 C   0  0  0  0  0  0  0  0  0  0  0  0
   37.7668   29.9279   50.1945 N   0  0  0  0  0  0  0  0  0  0  0  0
   37.3654   30.5841   49.0688 C   0  0  0  0  0  0  0  0  0  0  0  0
   36.0409   30.7652   48.6865 N   0  0  0  0  0  0  0  0  0  0  0  0
   38.3755   31.9124   44.4946 C   0  0  0  0  0  0  0  0  0  0  0  0
   37.2580   32.4787   44.3850 O   0  0  0  0  0  0  0  0  0  0  0  0
   38.9403   31.6235   45.7869 N   0  0  0  0  0  0  0  0  0  0  0  0
   39.1392   31.5276   43.3003 C   0  0  0  0  0  0  0  0  0  0  0  0
   40.1379   30.6025   43.4267 C   0  0  0  0  0  0  0  0  0  0  0  0
   40.8511   30.2154   42.3063 C   0  0  0  0  0  0  0  0  0  0  0  0
   40.5082   30.7924   41.1216 C   0  0  0  0  0  0  0  0  0  0  0  0
   39.5016   31.7344   40.9639 C   0  0  0  0  0  0  0  0  0  0  0  0
   38.8418   32.0686   42.0997 N   0  0  0  0  0  0  0  0  0  0  0  0
   39.2009   32.3255   39.6555 C   0  0  0  0  0  0  0  0  0  0  0  0
   38.8009   33.5360   39.6441 O   0  0  0  0  0  0  0  0  0  0  0  0
   39.3720   30.5185   48.2478 H   0  0  0  0  0  0  0  0  0  0  0  0
   37.9899   33.2416   48.6366 H   0  0  0  0  0  0  0  0  0  0  0  0
   39.7144   32.9471   47.9498 H   0  0  0  0  0  0  0  0  0  0  0  0
   36.9897   32.0085   46.7350 H   0  0  0  0  0  0  0  0  0  0  0  0
   34.0305   30.3364   49.2858 H   0  0  0  0  0  0  0  0  0  0  0  0
   34.6515   29.1572   51.3017 H   0  0  0  0  0  0  0  0  0  0  0  0
   37.0599   28.8694   51.9301 H   0  0  0  0  0  0  0  0  0  0  0  0
   39.9320   31.3375   45.9401 H   0  0  0  0  0  0  0  0  0  0  0  0
   40.4294   30.1269   44.3728 H   0  0  0  0  0  0  0  0  0  0  0  0
   41.6499   29.4956   42.3137 H   0  0  0  0  0  0  0  0  0  0  0  0
   41.0372   30.5234   40.2069 H   0  0  0  0  0  0  0  0  0  0  0  0
   39.3985   31.4351   38.4681 C   0  0  0  0  0  0  0  0  0  0  0  0
   40.1507   32.1531   37.3280 C   0  0  0  0  0  0  0  0  0  0  0  0
   38.7317   31.8032   37.1769 C   0  0  0  0  0  0  0  0  0  0  0  0
   39.7535   30.3950   38.6163 H   0  0  0  0  0  0  0  0  0  0  0  0
   40.3873   33.2145   37.4257 H   0  0  0  0  0  0  0  0  0  0  0  0
   40.8961   31.5790   36.7486 H   0  0  0  0  0  0  0  0  0  0  0  0
   37.9712   32.6231   37.2019 H   0  0  0  0  0  0  0  0  0  0  0  0
   38.4592   31.0151   36.4740 H   0  0  0  0  0  0  0  0  0  0  0  0
  1  8  1  0
  2  1  1  0
  3  2  1  0
  3  1  1  0
  4  5  2  0
  5  6  1  0
  7  6  2  0
  8  7  1  0
  9  8  2  0
  9  4  1  0
 10 12  1  0
 11 10  2  0
 12  3  1  0
 13 14  2  0
 13 10  1  0
 15 14  1  0
 16 15  2  0
 17 16  1  0
 17 18  2  0
 18 13  1  0
 19 17  1  0
 20 19  2  0
  1 21  1  6
  2 22  1  0
  2 23  1  0
  3 24  1  6
  4 25  1  0
  5 26  1  0
  6 27  1  0
 12 28  1  0
 14 29  1  0
 15 30  1  0
 16 31  1  0
 32 33  1  0
 33 34  1  0
 34 32  1  0
 32 35  1  0
 33 36  1  0
 33 37  1  0
 34 38  1  0
 34 39  1  0
 19 32  1  0
M  ISO  8  21  13  22  13  23  13  24  13  25  14  26  14  27  14  29  14
M  ISO  2  30  14  31  14
M  END
>  <DihAtoms>  (1) 
16,18,31,32

>  <DihDeg>  (1) 
-134.3406509866253

$$$$
