
     RDKit          3D

 42 45  0  0  1  0  0  0  0  0999 V2000
   38.2550   30.9980   47.5070 C   0  0  1  0  0  0  0  0  0  0  0  0
   37.2380   29.8870   47.6950 C   0  0  2  0  0  0  0  0  0  0  0  0
   36.1560   30.2250   46.8650 O   0  0  0  0  0  0  0  0  0  0  0  0
   36.8050   30.7560   45.7730 C   0  0  0  0  0  0  0  0  0  0  0  0
   37.6270   31.8990   46.5780 C   0  0  2  0  0  0  0  0  0  0  0  0
   37.1660   29.5230   51.4320 C   0  0  0  0  0  0  0  0  0  0  0  0
   37.7240   29.6780   50.1250 C   0  0  0  0  0  0  0  0  0  0  0  0
   36.7740   29.7260   49.0790 C   0  0  0  0  0  0  0  0  0  0  0  0
   35.4090   29.6260   49.3460 N   0  0  0  0  0  0  0  0  0  0  0  0
   34.9750   29.4810   50.6100 C   0  0  0  0  0  0  0  0  0  0  0  0
   35.8350   29.4300   51.6410 N   0  0  0  0  0  0  0  0  0  0  0  0
   38.8190   31.4610   48.6230 O   0  0  0  0  0  0  0  0  0  0  0  0
   38.5390   32.4740   45.7520 O   0  0  0  0  0  0  0  0  0  0  0  0
   39.3300   31.3310   43.7910 C   0  0  1  0  0  0  0  0  0  0  0  0
   39.4980   31.8060   45.1870 C   0  0  1  0  0  0  0  0  0  0  0  0
   40.6280   32.8480   45.0070 C   0  0  0  0  0  0  0  0  0  0  0  0
   40.2170   33.4990   43.8300 O   0  0  0  0  0  0  0  0  0  0  0  0
   39.6610   32.5500   42.9810 C   0  0  0  0  0  0  0  0  0  0  0  0
   40.2040   30.3130   43.5370 O   0  0  0  0  0  0  0  0  0  0  0  0
   40.3450   29.8520   42.2740 C   0  0  0  0  0  0  0  0  0  0  0  0
   41.6220   29.0990   41.9030 C   0  0  0  0  0  0  0  0  0  0  0  0
   40.3820   28.3100   42.1950 C   0  0  0  0  0  0  0  0  0  0  0  0
   39.2062   30.6618   47.0687 H   0  0  0  0  0  0  0  0  0  0  0  0
   37.7028   28.9231   47.4405 H   0  0  0  0  0  0  0  0  0  0  0  0
   36.1094   31.1786   45.0331 H   0  0  0  0  0  0  0  0  0  0  0  0
   37.3967   30.0588   45.1616 H   0  0  0  0  0  0  0  0  0  0  0  0
   37.0673   32.7442   47.0051 H   0  0  0  0  0  0  0  0  0  0  0  0
   37.8439   29.4779   52.2971 H   0  0  0  0  0  0  0  0  0  0  0  0
   38.8069   29.7539   49.9472 H   0  0  0  0  0  0  0  0  0  0  0  0
   33.8951   29.4026   50.8039 H   0  0  0  0  0  0  0  0  0  0  0  0
   38.3548   31.0799   49.4100 H   0  0  0  0  0  0  0  0  0  0  0  0
   38.3286   30.9331   43.5701 H   0  0  0  0  0  0  0  0  0  0  0  0
   39.6227   30.9175   45.8235 H   0  0  0  0  0  0  0  0  0  0  0  0
   40.6732   33.5441   45.8575 H   0  0  0  0  0  0  0  0  0  0  0  0
   41.6371   32.4136   44.9529 H   0  0  0  0  0  0  0  0  0  0  0  0
   40.3818   32.2883   42.1924 H   0  0  0  0  0  0  0  0  0  0  0  0
   38.7518   32.9499   42.5084 H   0  0  0  0  0  0  0  0  0  0  0  0
   39.7976   30.6856   41.8099 H   0  0  0  0  0  0  0  0  0  0  0  0
   42.4651   29.0725   42.6090 H   0  0  0  0  0  0  0  0  0  0  0  0
   42.3243   29.1443   41.0576 H   0  0  0  0  0  0  0  0  0  0  0  0
   39.8579   27.7890   41.3802 H   0  0  0  0  0  0  0  0  0  0  0  0
   40.1272   27.4911   42.8839 H   0  0  0  0  0  0  0  0  0  0  0  0
  1  2  1  0
  1 12  1  0
  2  8  1  0
  3  2  1  0
  4  5  1  0
  4  3  1  0
  5  1  1  0
  6 11  2  0
  7  6  1  0
  8  9  1  0
  8  7  2  0
  9 10  2  0
 10 11  1  0
 13  5  1  0
 14 15  1  0
 15 13  1  0
 16 15  1  0
 17 16  1  0
 18 14  1  0
 18 17  1  0
 19 14  1  0
 20 19  1  0
 21 22  1  0
 21 20  1  0
 22 20  1  0
  1 23  1  6
  2 24  1  6
  4 25  1  0
  4 26  1  0
  5 27  1  1
  6 28  1  0
  7 29  1  0
 10 30  1  0
 12 31  1  0
 14 32  1  1
 15 33  1  1
 16 34  1  0
 16 35  1  0
 18 36  1  0
 18 37  1  0
 20 38  1  0
 21 39  1  0
 21 40  1  0
 22 41  1  0
 22 42  1  0
M  ISO  8  23  13  24  13  25  13  26  13  27  13  28  14  29  14  30  14
M  ISO  8  31   3  32  13  33  13  34  13  35  13  36  13  37  13  38  13
M  ISO  4  39  13  40  13  41  13  42  13
M  END
>  <minimizedAffinity>  (1) 
-5.06715679

>  <minimizedRMSD>  (1) 
1.9229399

$$$$
