
     RDKit          3D

 38 41  0  0  0  0  0  0  0  0999 V2000
   35.8510   30.1770   48.4790 C   0  0  0  0  0  0  0  0  0  0  0  0
   35.7750   29.1850   49.3980 C   0  0  0  0  0  0  0  0  0  0  0  0
   34.7250   28.3540   49.4590 C   0  0  0  0  0  0  0  0  0  0  0  0
   33.7260   28.5300   48.5710 N   0  0  0  0  0  0  0  0  0  0  0  0
   33.7890   29.4930   47.6650 C   0  0  0  0  0  0  0  0  0  0  0  0
   34.8410   30.3230   47.6070 N   0  0  0  0  0  0  0  0  0  0  0  0
   31.8340   28.4800   46.6170 C   0  0  0  0  0  0  0  0  0  0  0  0
   32.6960   29.5780   46.7200 C   0  0  0  0  0  0  0  0  0  0  0  0
   32.5670   30.7390   45.9750 C   0  0  0  0  0  0  0  0  0  0  0  0
   31.5320   30.8580   45.0640 C   0  0  0  0  0  0  0  0  0  0  0  0
   30.6340   29.8330   44.8960 C   0  0  0  0  0  0  0  0  0  0  0  0
   30.8480   28.7360   45.6750 C   0  0  0  0  0  0  0  0  0  0  0  0
   31.9210   27.0680   47.4840 S   0  0  0  0  0  0  0  0  0  0  0  0
   30.8950   26.2740   46.6860 O   0  0  0  0  0  0  0  0  0  0  0  0
   31.3560   27.2330   48.8880 O   0  0  0  0  0  0  0  0  0  0  0  0
   32.7400   25.6050   47.4730 C   0  0  0  0  0  0  0  0  0  0  0  0
   33.0200   24.9330   46.1020 C   0  0  0  0  0  0  0  0  0  0  0  0
   34.0900   25.7020   46.6290 C   0  0  0  0  0  0  0  0  0  0  0  0
   38.1330   32.9280   49.3240 C   0  0  0  0  0  0  0  0  0  0  0  0
   39.0550   32.8830   48.2460 C   0  0  0  0  0  0  0  0  0  0  0  0
   38.8670   31.9010   47.2550 C   0  0  0  0  0  0  0  0  0  0  0  0
   37.8130   31.0460   47.3800 N   0  0  0  0  0  0  0  0  0  0  0  0
   36.9620   31.1120   48.4040 C   0  0  0  0  0  0  0  0  0  0  0  0
   37.1260   32.0590   49.3790 N   0  0  0  0  0  0  0  0  0  0  0  0
   36.5991   29.0575   50.1154 H   0  0  0  0  0  0  0  0  0  0  0  0
   34.6798   27.5525   50.2110 H   0  0  0  0  0  0  0  0  0  0  0  0
   33.2841   31.5626   46.1070 H   0  0  0  0  0  0  0  0  0  0  0  0
   31.4282   31.7788   44.4713 H   0  0  0  0  0  0  0  0  0  0  0  0
   29.7995   29.8934   44.1818 H   0  0  0  0  0  0  0  0  0  0  0  0
   30.1219   27.9218   45.5345 H   0  0  0  0  0  0  0  0  0  0  0  0
   32.3667   25.2580   48.4478 H   0  0  0  0  0  0  0  0  0  0  0  0
   32.4887   25.2943   45.2091 H   0  0  0  0  0  0  0  0  0  0  0  0
   32.9477   23.8937   45.7488 H   0  0  0  0  0  0  0  0  0  0  0  0
   34.9974   25.1971   46.9918 H   0  0  0  0  0  0  0  0  0  0  0  0
   34.6983   26.5349   46.2465 H   0  0  0  0  0  0  0  0  0  0  0  0
   38.2507   33.6825   50.1157 H   0  0  0  0  0  0  0  0  0  0  0  0
   39.8918   33.5945   48.1866 H   0  0  0  0  0  0  0  0  0  0  0  0
   39.5547   31.8255   46.3998 H   0  0  0  0  0  0  0  0  0  0  0  0
  1  2  2  0
  2  3  1  0
  4  3  2  0
  5  4  1  0
  6  5  2  0
  6  1  1  0
  7  8  1  0
  7 13  1  0
  8  5  1  0
  9  8  2  0
 10  9  1  0
 11 10  2  0
 11 12  1  0
 12  7  2  0
 13 15  2  0
 14 13  2  0
 16 13  1  0
 17 18  1  0
 17 16  1  0
 18 16  1  0
 19 24  2  0
 20 19  1  0
 21 22  1  0
 21 20  2  0
 22 23  2  0
 23  1  1  0
 23 24  1  0
  2 25  1  0
  3 26  1  0
  9 27  1  0
 10 28  1  0
 11 29  1  0
 12 30  1  0
 16 31  1  0
 17 32  1  0
 17 33  1  0
 18 34  1  0
 18 35  1  0
 19 36  1  0
 20 37  1  0
 21 38  1  0
M  ISO  8  25  14  26  14  27  14  28  14  29  14  30  14  31  13  32  13
M  ISO  6  33  13  34  13  35  13  36  14  37  14  38  14
M  END
>  <minimizedAffinity>  (1) 
-5.26386118

>  <minimizedRMSD>  (1) 
0.938303292

$$$$
