
     RDKit          3D

 39 42  0  0  1  0  0  0  0  0999 V2000
   32.6490   28.0740   48.1590 N   0  0  0  0  0  0  0  0  0  0  0  0
   33.5360   27.9570   47.0120 C   0  0  0  0  0  0  0  0  0  0  0  0
   34.7510   28.7240   47.4400 C   0  0  0  0  0  0  0  0  0  0  0  0
   34.3240   29.4290   48.8110 C   0  0  1  0  0  0  0  0  0  0  0  0
   33.4600   28.3770   49.3550 C   0  0  0  0  0  0  0  0  0  0  0  0
   36.3520   31.1010   47.7410 F   0  0  0  0  0  0  0  0  0  0  0  0
   36.4280   30.5880   48.9870 C   0  0  0  0  0  0  0  0  0  0  0  0
   35.5450   29.7170   49.5690 C   0  0  0  0  0  0  0  0  0  0  0  0
   35.8160   29.2600   50.8720 C   0  0  0  0  0  0  0  0  0  0  0  0
   36.9370   29.6700   51.5630 C   0  0  0  0  0  0  0  0  0  0  0  0
   37.8220   30.5570   50.9510 C   0  0  0  0  0  0  0  0  0  0  0  0
   37.5540   31.0120   49.6510 C   0  0  0  0  0  0  0  0  0  0  0  0
   38.5810   31.9500   49.1440 C   0  0  0  0  0  0  0  0  0  0  0  0
   38.3300   33.4220   49.1880 C   0  0  0  0  0  0  0  0  0  0  0  0
   38.5080   32.6300   47.8520 C   0  0  0  0  0  0  0  0  0  0  0  0
   31.2460   27.9370   48.1650 C   0  0  0  0  0  0  0  0  0  0  0  0
   30.5780   28.4140   47.0280 C   0  0  0  0  0  0  0  0  0  0  0  0
   29.1780   28.3130   46.9780 C   0  0  0  0  0  0  0  0  0  0  0  0
   28.5580   27.7400   48.0730 N   0  0  0  0  0  0  0  0  0  0  0  0
   29.2410   27.2960   49.1440 C   0  0  0  0  0  0  0  0  0  0  0  0
   30.5830   27.3960   49.1840 N   0  0  0  0  0  0  0  0  0  0  0  0
   33.0825   28.4044   46.1152 H   0  0  0  0  0  0  0  0  0  0  0  0
   33.7570   26.9139   46.7418 H   0  0  0  0  0  0  0  0  0  0  0  0
   35.6014   28.0452   47.6013 H   0  0  0  0  0  0  0  0  0  0  0  0
   35.0728   29.4517   46.6804 H   0  0  0  0  0  0  0  0  0  0  0  0
   33.8084   30.4002   48.7795 H   0  0  0  0  0  0  0  0  0  0  0  0
   32.8410   28.7453   50.1864 H   0  0  0  0  0  0  0  0  0  0  0  0
   33.9911   27.5161   49.7872 H   0  0  0  0  0  0  0  0  0  0  0  0
   35.1169   28.5588   51.3511 H   0  0  0  0  0  0  0  0  0  0  0  0
   37.1301   29.3028   52.5818 H   0  0  0  0  0  0  0  0  0  0  0  0
   38.7227   30.8972   51.4829 H   0  0  0  0  0  0  0  0  0  0  0  0
   39.3368   31.2728   49.5684 H   0  0  0  0  0  0  0  0  0  0  0  0
   37.3431   33.8112   49.4786 H   0  0  0  0  0  0  0  0  0  0  0  0
   38.8018   34.2946   49.6633 H   0  0  0  0  0  0  0  0  0  0  0  0
   39.4164   32.7649   47.2465 H   0  0  0  0  0  0  0  0  0  0  0  0
   37.9181   32.5029   46.9323 H   0  0  0  0  0  0  0  0  0  0  0  0
   31.1389   28.8581   46.1925 H   0  0  0  0  0  0  0  0  0  0  0  0
   28.6036   28.6718   46.1112 H   0  0  0  0  0  0  0  0  0  0  0  0
   28.7001   26.8491   49.9912 H   0  0  0  0  0  0  0  0  0  0  0  0
  1 16  1  0
  1  5  1  0
  2  3  1  0
  2  1  1  0
  3  4  1  0
  4  5  1  0
  4  8  1  0
  6  7  1  0
  7  8  2  0
  7 12  1  0
  8  9  1  0
  9 10  2  0
 11 10  1  0
 12 11  2  0
 13 14  1  0
 13 12  1  0
 15 13  1  0
 15 14  1  0
 16 21  1  0
 17 16  2  0
 18 17  1  0
 18 19  2  0
 19 20  1  0
 20 21  2  0
  2 22  1  0
  2 23  1  0
  3 24  1  0
  3 25  1  0
  4 26  1  6
  5 27  1  0
  5 28  1  0
  9 29  1  0
 10 30  1  0
 11 31  1  0
 13 32  1  0
 14 33  1  0
 14 34  1  0
 15 35  1  0
 15 36  1  0
 17 37  1  0
 18 38  1  0
 20 39  1  0
M  ISO  8  22  13  23  13  24  13  25  13  26  13  27  13  28  13  29  14
M  ISO  8  30  14  31  14  32  13  33  13  34  13  35  13  36  13  37  14
M  ISO  2  38  14  39  14
M  END
>  <minimizedAffinity>  (1) 
-6.74447966

>  <minimizedRMSD>  (1) 
2.53907704

$$$$
