
     RDKit          3D

 35 38  0  0  0  0  0  0  0  0999 V2000
   37.3670   29.2220   50.8820 Br  0  0  0  0  0  0  0  0  0  0  0  0
   35.9790   29.2800   49.5780 C   0  0  0  0  0  0  0  0  0  0  0  0
   35.9750   30.2510   48.5810 C   0  0  0  0  0  0  0  0  0  0  0  0
   34.9420   30.2290   47.6770 C   0  0  0  0  0  0  0  0  0  0  0  0
   33.9210   29.3070   47.7070 C   0  0  0  0  0  0  0  0  0  0  0  0
   33.9510   28.3610   48.7020 C   0  0  0  0  0  0  0  0  0  0  0  0
   34.9700   28.3600   49.6160 C   0  0  0  0  0  0  0  0  0  0  0  0
   37.9910   33.1690   49.4580 C   0  0  0  0  0  0  0  0  0  0  0  0
   39.0100   33.1750   48.4600 C   0  0  0  0  0  0  0  0  0  0  0  0
   38.9800   32.1730   47.5080 C   0  0  0  0  0  0  0  0  0  0  0  0
   37.9910   31.2200   47.5460 N   0  0  0  0  0  0  0  0  0  0  0  0
   37.0400   31.2500   48.5110 C   0  0  0  0  0  0  0  0  0  0  0  0
   37.0450   32.2230   49.4600 N   0  0  0  0  0  0  0  0  0  0  0  0
   32.8250   29.2850   46.7470 C   0  0  0  0  0  0  0  0  0  0  0  0
   31.9660   28.2300   46.5580 C   0  0  0  0  0  0  0  0  0  0  0  0
   30.9350   28.2550   45.6310 C   0  0  0  0  0  0  0  0  0  0  0  0
   30.7610   29.3450   44.8840 N   0  0  0  0  0  0  0  0  0  0  0  0
   31.6000   30.3980   45.0560 C   0  0  0  0  0  0  0  0  0  0  0  0
   32.5790   30.3450   45.9530 N   0  0  0  0  0  0  0  0  0  0  0  0
   31.4340   31.6360   44.2350 C   0  0  0  0  0  0  0  0  0  0  0  0
   31.5940   32.9680   44.8740 C   0  0  0  0  0  0  0  0  0  0  0  0
   30.2450   32.5240   44.4380 C   0  0  0  0  0  0  0  0  0  0  0  0
   34.9298   30.9913   46.8841 H   0  0  0  0  0  0  0  0  0  0  0  0
   33.1557   27.6036   48.7646 H   0  0  0  0  0  0  0  0  0  0  0  0
   34.9765   27.5944   50.4058 H   0  0  0  0  0  0  0  0  0  0  0  0
   37.9829   33.9494   50.2332 H   0  0  0  0  0  0  0  0  0  0  0  0
   39.7915   33.9490   48.4482 H   0  0  0  0  0  0  0  0  0  0  0  0
   39.7474   32.1387   46.7206 H   0  0  0  0  0  0  0  0  0  0  0  0
   32.1019   27.3254   47.1689 H   0  0  0  0  0  0  0  0  0  0  0  0
   30.2697   27.3869   45.5137 H   0  0  0  0  0  0  0  0  0  0  0  0
   31.8802   31.1232   43.3701 H   0  0  0  0  0  0  0  0  0  0  0  0
   31.8286   33.0372   45.9464 H   0  0  0  0  0  0  0  0  0  0  0  0
   32.2198   33.8511   44.6779 H   0  0  0  0  0  0  0  0  0  0  0  0
   29.7606   33.0019   43.5737 H   0  0  0  0  0  0  0  0  0  0  0  0
   29.2651   32.4149   44.9257 H   0  0  0  0  0  0  0  0  0  0  0  0
  2  7  2  0
  2  1  1  0
  3  2  1  0
  4  5  1  0
  4  3  2  0
  5  6  2  0
  6  7  1  0
  8 13  2  0
  9  8  1  0
 10 11  1  0
 10  9  2  0
 11 12  2  0
 12  3  1  0
 12 13  1  0
 14  5  1  0
 15 14  2  0
 16 15  1  0
 17 18  1  0
 17 16  2  0
 18 19  2  0
 19 14  1  0
 20 22  1  0
 20 21  1  0
 20 18  1  0
 22 21  1  0
  4 23  1  0
  6 24  1  0
  7 25  1  0
  8 26  1  0
  9 27  1  0
 10 28  1  0
 15 29  1  0
 16 30  1  0
 20 31  1  0
 21 32  1  0
 21 33  1  0
 22 34  1  0
 22 35  1  0
M  ISO  8  23  14  24  14  25  14  26  14  27  14  28  14  29  14  30  14
M  ISO  5  31  13  32  13  33  13  34  13  35  13
M  END
>  <minimizedAffinity>  (1) 
-6.07865477

>  <minimizedRMSD>  (1) 
0.319853395

$$$$
