
     RDKit          3D

 24 26  0  0  0  0  0  0  0  0999 V2000
   37.3990   31.3830   49.2090 C   0  0  0  0  0  0  0  0  0  0  0  0
   37.7580   32.6650   49.6630 C   0  0  0  0  0  0  0  0  0  0  0  0
   38.6430   33.3660   48.8620 C   0  0  0  0  0  0  0  0  0  0  0  0
   39.1160   32.8130   47.7080 N   0  0  0  0  0  0  0  0  0  0  0  0
   38.7500   31.5780   47.3020 C   0  0  0  0  0  0  0  0  0  0  0  0
   37.8790   30.8540   48.0640 N   0  0  0  0  0  0  0  0  0  0  0  0
   36.4170   30.5980   50.0370 C   0  0  0  0  0  0  0  0  0  0  0  0
   36.3740   29.1430   49.9760 C   0  0  0  0  0  0  0  0  0  0  0  0
   37.0880   29.7840   51.1320 C   0  0  0  0  0  0  0  0  0  0  0  0
   39.2430   30.9440   46.0510 C   0  0  0  0  0  0  0  0  0  0  0  0
   40.7330   31.2110   45.6770 C   0  0  0  0  0  0  0  0  0  0  0  0
   39.6340   31.8020   44.8920 C   0  0  0  0  0  0  0  0  0  0  0  0
   37.3595   33.0852   50.5982 H   0  0  0  0  0  0  0  0  0  0  0  0
   38.9668   34.3748   49.1577 H   0  0  0  0  0  0  0  0  0  0  0  0
   35.6231   31.3534   49.9413 H   0  0  0  0  0  0  0  0  0  0  0  0
   35.4223   28.6183   50.1465 H   0  0  0  0  0  0  0  0  0  0  0  0
   36.6569   28.3984   49.2173 H   0  0  0  0  0  0  0  0  0  0  0  0
   38.1850   29.7417   51.2010 H   0  0  0  0  0  0  0  0  0  0  0  0
   37.0259   29.7300   52.2289 H   0  0  0  0  0  0  0  0  0  0  0  0
   38.5844   30.0725   46.1804 H   0  0  0  0  0  0  0  0  0  0  0  0
   41.3586   31.8482   46.3192 H   0  0  0  0  0  0  0  0  0  0  0  0
   41.6091   30.5851   45.4517 H   0  0  0  0  0  0  0  0  0  0  0  0
   39.4587   32.8869   44.9393 H   0  0  0  0  0  0  0  0  0  0  0  0
   39.3772   31.7932   43.8224 H   0  0  0  0  0  0  0  0  0  0  0  0
  1  2  2  0
  1  7  1  0
  3  2  1  0
  4  3  2  0
  5  4  1  0
  5  6  2  0
  6  1  1  0
  7  9  1  0
  8  7  1  0
  8  9  1  0
 10  5  1  0
 11 10  1  0
 12 11  1  0
 12 10  1  0
  2 13  1  0
  3 14  1  0
  7 15  1  0
  8 16  1  0
  8 17  1  0
  9 18  1  0
  9 19  1  0
 10 20  1  0
 11 21  1  0
 11 22  1  0
 12 23  1  0
 12 24  1  0
M  ISO  8  13  14  14  14  15  13  16  13  17  13  18  13  19  13  20  13
M  ISO  4  21  13  22  13  23  13  24  13
M  END
>  <minimizedAffinity>  (1) 
-4.9435029

>  <minimizedRMSD>  (1) 
0.572696328

$$$$
