
     RDKit          3D

 42 46  0  0  1  0  0  0  0  0999 V2000
   38.1590   32.3480   48.7620 C   0  0  0  0  0  0  0  0  0  0  0  0
   38.7550   33.4280   49.3730 C   0  0  0  0  0  0  0  0  0  0  0  0
   39.6590   34.1400   48.5790 C   0  0  0  0  0  0  0  0  0  0  0  0
   39.9040   33.7590   47.2930 N   0  0  0  0  0  0  0  0  0  0  0  0
   39.3010   32.6900   46.7220 C   0  0  0  0  0  0  0  0  0  0  0  0
   38.4170   31.9830   47.4770 N   0  0  0  0  0  0  0  0  0  0  0  0
   39.1500   33.1290   44.3350 C   0  0  0  0  0  0  0  0  0  0  0  0
   39.5750   32.2910   45.3410 C   0  0  0  0  0  0  0  0  0  0  0  0
   40.2340   31.1180   45.0190 C   0  0  0  0  0  0  0  0  0  0  0  0
   40.4960   30.7330   43.7170 C   0  0  0  0  0  0  0  0  0  0  0  0
   41.1010   29.6660   43.1510 N   0  0  0  0  0  0  0  0  0  0  0  0
   41.0320   29.8810   41.8160 C   0  0  0  0  0  0  0  0  0  0  0  0
   40.4050   31.0390   41.5560 N   0  0  0  0  0  0  0  0  0  0  0  0
   40.0490   31.6110   42.7290 C   0  0  0  0  0  0  0  0  0  0  0  0
   39.3930   32.7800   43.0190 C   0  0  0  0  0  0  0  0  0  0  0  0
   37.1840   31.5400   49.5880 C   0  0  1  0  0  0  0  0  0  0  0  0
   36.1320   30.7740   48.9640 C   0  0  2  0  0  0  0  0  0  0  0  0
   37.4120   30.0410   49.4260 C   0  0  2  0  0  0  0  0  0  0  0  0
   37.4510   29.2750   50.7010 C   0  0  0  0  0  0  0  0  0  0  0  0
   37.3870   29.9470   52.0200 C   0  0  0  0  0  0  0  0  0  0  0  0
   36.1340   29.3140   51.4610 C   0  0  0  0  0  0  0  0  0  0  0  0
   35.9870   30.8070   47.6190 O   0  0  0  0  0  0  0  0  0  0  0  0
   35.0990   30.4320   46.7050 C   0  0  0  0  0  0  0  0  0  0  0  0
   35.5970   29.9860   45.6240 O   0  0  0  0  0  0  0  0  0  0  0  0
   33.7790   30.5780   47.0510 N   0  0  0  0  0  0  0  0  0  0  0  0
   38.5354   33.7110   50.4130 H   0  0  0  0  0  0  0  0  0  0  0  0
   40.1776   35.0160   48.9958 H   0  0  0  0  0  0  0  0  0  0  0  0
   38.6236   34.0646   44.5748 H   0  0  0  0  0  0  0  0  0  0  0  0
   40.5650   30.4610   45.8368 H   0  0  0  0  0  0  0  0  0  0  0  0
   41.5247   28.8602   43.6326 H   0  0  0  0  0  0  0  0  0  0  0  0
   41.4340   29.2009   41.0506 H   0  0  0  0  0  0  0  0  0  0  0  0
   39.0600   33.4402   42.2046 H   0  0  0  0  0  0  0  0  0  0  0  0
   37.1348   32.2763   50.4037 H   0  0  0  0  0  0  0  0  0  0  0  0
   35.0512   30.7137   49.1598 H   0  0  0  0  0  0  0  0  0  0  0  0
   38.1121   29.3475   48.9372 H   0  0  0  0  0  0  0  0  0  0  0  0
   38.1532   28.5288   50.3009 H   0  0  0  0  0  0  0  0  0  0  0  0
   37.8873   29.4949   52.8891 H   0  0  0  0  0  0  0  0  0  0  0  0
   37.6461   30.9508   52.3877 H   0  0  0  0  0  0  0  0  0  0  0  0
   35.3066   29.9447   51.1038 H   0  0  0  0  0  0  0  0  0  0  0  0
   35.4060   28.5677   51.8119 H   0  0  0  0  0  0  0  0  0  0  0  0
   33.0396   30.3060   46.3875 H   0  0  0  0  0  0  0  0  0  0  0  0
   33.5277   30.9596   47.9741 H   0  0  0  0  0  0  0  0  0  0  0  0
  1  2  2  0
  1 16  1  0
  3  2  1  0
  4  3  2  0
  5  4  1  0
  5  6  2  0
  6  1  1  0
  7  8  2  0
  8  5  1  0
  9  8  1  0
 10  9  2  0
 11 10  1  0
 12 11  1  0
 13 12  2  0
 13 14  1  0
 14 15  2  0
 14 10  1  0
 15  7  1  0
 17 18  1  0
 17 16  1  0
 18 16  1  0
 18 19  1  0
 19 21  1  0
 19 20  1  0
 21 20  1  0
 22 17  1  0
 23 25  1  0
 23 22  1  0
 24 23  2  0
  2 26  1  0
  3 27  1  0
  7 28  1  0
  9 29  1  0
 11 30  1  0
 12 31  1  0
 15 32  1  0
 16 33  1  1
 17 34  1  1
 18 35  1  6
 19 36  1  0
 20 37  1  0
 20 38  1  0
 21 39  1  0
 21 40  1  0
 25 41  1  0
 25 42  1  0
M  ISO  8  26  14  27  14  28  14  29  14  30   9  31  14  32  14  33  13
M  ISO  7  34  13  35  13  36  13  37  13  38  13  39  13  40  13
M  END
>  <minimizedAffinity>  (1) 
-7.39249325

>  <minimizedRMSD>  (1) 
1.70957017

$$$$
