
     RDKit          3D

 43 47  0  0  0  0  0  0  0  0999 V2000
   35.8367   28.9097   49.3987 C   0  0  0  0  0  0  0  0  0  0  0  0
   35.8851   30.0748   48.5861 C   0  0  0  0  0  0  0  0  0  0  0  0
   34.8013   30.2973   47.6707 C   0  0  0  0  0  0  0  0  0  0  0  0
   33.7892   29.3970   47.6078 N   0  0  0  0  0  0  0  0  0  0  0  0
   33.8120   28.2971   48.4121 C   0  0  0  0  0  0  0  0  0  0  0  0
   34.8089   28.0592   49.2877 N   0  0  0  0  0  0  0  0  0  0  0  0
   32.7281   27.3499   48.2676 N   0  0  0  0  0  0  0  0  0  0  0  0
   31.3561   27.6631   48.5180 C   0  0  0  0  0  0  0  0  0  0  0  0
   30.6093   26.4508   48.0476 C   0  0  0  0  0  0  0  0  0  0  0  0
   31.5942   25.6226   47.2357 C   0  0  0  0  0  0  0  0  0  0  0  0
   32.8963   25.9455   47.8414 C   0  0  0  0  0  0  0  0  0  0  0  0
   36.8723   31.0882   48.5731 C   0  0  0  0  0  0  0  0  0  0  0  0
   36.7990   31.9838   49.5766 N   0  0  0  0  0  0  0  0  0  0  0  0
   37.6585   33.0244   49.5975 C   0  0  0  0  0  0  0  0  0  0  0  0
   38.6230   33.2522   48.6585 N   0  0  0  0  0  0  0  0  0  0  0  0
   38.7110   32.3634   47.6453 C   0  0  0  0  0  0  0  0  0  0  0  0
   39.6360   32.5124   46.6255 C   0  0  0  0  0  0  0  0  0  0  0  0
   39.6858   31.5833   45.5750 C   0  0  0  0  0  0  0  0  0  0  0  0
   38.7934   30.5113   45.5781 C   0  0  0  0  0  0  0  0  0  0  0  0
   37.8964   30.3946   46.5999 C   0  0  0  0  0  0  0  0  0  0  0  0
   37.8482   31.3056   47.6173 C   0  0  0  0  0  0  0  0  0  0  0  0
   36.6772   28.8082   50.0687 H   0  0  0  0  0  0  0  0  0  0  0  0
   34.7630   31.1486   47.0357 H   0  0  0  0  0  0  0  0  0  0  0  0
   31.1233   27.9700   49.5531 H   0  0  0  0  0  0  0  0  0  0  0  0
   31.0486   28.4929   47.8178 H   0  0  0  0  0  0  0  0  0  0  0  0
   30.3450   25.8447   48.9402 H   0  0  0  0  0  0  0  0  0  0  0  0
   29.6934   26.6827   47.4897 H   0  0  0  0  0  0  0  0  0  0  0  0
   31.3118   24.5505   47.2416 H   0  0  0  0  0  0  0  0  0  0  0  0
   31.5879   26.0037   46.1893 H   0  0  0  0  0  0  0  0  0  0  0  0
   33.1422   25.3466   48.7409 H   0  0  0  0  0  0  0  0  0  0  0  0
   33.7185   25.9006   47.0890 H   0  0  0  0  0  0  0  0  0  0  0  0
   37.6089   33.7506   50.4021 H   0  0  0  0  0  0  0  0  0  0  0  0
   40.2719   33.3793   46.7368 H   0  0  0  0  0  0  0  0  0  0  0  0
   40.4429   31.8328   44.8689 H   0  0  0  0  0  0  0  0  0  0  0  0
   39.0306   29.9741   44.6774 H   0  0  0  0  0  0  0  0  0  0  0  0
   37.0840   29.1305   46.4519 C   0  0  0  0  0  0  0  0  0  0  0  0
   35.9845   28.8639   47.5564 C   0  0  0  0  0  0  0  0  0  0  0  0
   37.1597   28.0550   47.3982 C   0  0  0  0  0  0  0  0  0  0  0  0
   36.3844   29.2856   45.5752 H   0  0  0  0  0  0  0  0  0  0  0  0
   35.0349   28.3566   47.2396 H   0  0  0  0  0  0  0  0  0  0  0  0
   35.7587   29.6877   48.2055 H   0  0  0  0  0  0  0  0  0  0  0  0
   37.9829   28.1304   48.1416 H   0  0  0  0  0  0  0  0  0  0  0  0
   37.0853   27.0113   47.0108 H   0  0  0  0  0  0  0  0  0  0  0  0
  2  1  2  0
  3  2  1  0
  4  3  2  0
  4  5  1  0
  5  6  2  0
  6  1  1  0
  7  5  1  0
  7  8  1  0
  9  8  1  0
 10 11  1  0
 10  9  1  0
 11  7  1  0
 12  2  1  0
 12 13  2  0
 13 14  1  0
 15 14  2  0
 16 15  1  0
 17 16  2  0
 18 17  1  0
 19 18  2  0
 19 20  1  0
 20 21  2  0
 21 16  1  0
 21 12  1  0
  1 22  1  0
  3 23  1  0
  8 24  1  0
  8 25  1  0
  9 26  1  0
  9 27  1  0
 10 28  1  0
 10 29  1  0
 11 30  1  0
 11 31  1  0
 14 32  1  0
 17 33  1  0
 18 34  1  0
 19 35  1  0
 36 37  1  0
 37 38  1  0
 38 36  1  0
 36 39  1  0
 37 40  1  0
 37 41  1  0
 38 42  1  0
 38 43  1  0
 20 36  1  0
M  ISO  8  22  14  23  14  24  13  25  13  26  13  27  13  28  13  29  13
M  ISO  6  30  13  31  13  32  14  33  14  34  14  35  14
M  END
>  <DihAtoms>  (1) 
18,19,35,36

>  <DihDeg>  (1) 
15.73086861568384

$$$$
