
     RDKit          3D

 44 48  0  0  0  0  0  0  0  0999 V2000
   36.2362   30.1822   46.8571 C   0  0  0  0  0  0  0  0  0  0  0  0
   37.0807   30.7516   47.8073 C   0  0  0  0  0  0  0  0  0  0  0  0
   38.0649   31.6664   47.4383 C   0  0  0  0  0  0  0  0  0  0  0  0
   38.1546   31.9748   46.0839 C   0  0  0  0  0  0  0  0  0  0  0  0
   39.0237   32.8343   45.4769 N   0  0  0  0  0  0  0  0  0  0  0  0
   38.7330   32.8080   44.1674 C   0  0  0  0  0  0  0  0  0  0  0  0
   37.7325   31.9762   43.9495 N   0  0  0  0  0  0  0  0  0  0  0  0
   37.3392   31.4339   45.1136 C   0  0  0  0  0  0  0  0  0  0  0  0
   36.3594   30.5166   45.5189 C   0  0  0  0  0  0  0  0  0  0  0  0
   37.5129   30.1484   51.4901 C   0  0  0  0  0  0  0  0  0  0  0  0
   37.8096   30.5792   50.2070 C   0  0  0  0  0  0  0  0  0  0  0  0
   36.8933   30.3539   49.1864 C   0  0  0  0  0  0  0  0  0  0  0  0
   35.7359   29.7097   49.5186 N   0  0  0  0  0  0  0  0  0  0  0  0
   35.4559   29.2946   50.7681 C   0  0  0  0  0  0  0  0  0  0  0  0
   36.3251   29.5097   51.7300 N   0  0  0  0  0  0  0  0  0  0  0  0
   39.4312   33.5772   43.2348 O   0  0  0  0  0  0  0  0  0  0  0  0
   39.5783   31.8641   41.7121 N   0  0  0  0  0  0  0  0  0  0  0  0
   39.2012   33.2432   41.8754 C   0  0  1  0  0  0  0  0  0  0  0  0
   37.8039   33.4439   41.5144 C   0  0  0  0  0  0  0  0  0  0  0  0
   37.6438   33.1286   40.1543 O   0  0  0  0  0  0  0  0  0  0  0  0
   38.0652   31.8842   39.7883 C   0  0  0  0  0  0  0  0  0  0  0  0
   39.4446   31.5563   40.3176 C   0  0  1  0  0  0  0  0  0  0  0  0
   35.4665   29.4751   47.0970 H   0  0  0  0  0  0  0  0  0  0  0  0
   38.7089   32.0983   48.1763 H   0  0  0  0  0  0  0  0  0  0  0  0
   39.7545   33.3881   45.9450 H   0  0  0  0  0  0  0  0  0  0  0  0
   35.7162   30.0885   44.7618 H   0  0  0  0  0  0  0  0  0  0  0  0
   38.2179   30.3177   52.2935 H   0  0  0  0  0  0  0  0  0  0  0  0
   38.7331   31.0910   49.9515 H   0  0  0  0  0  0  0  0  0  0  0  0
   34.5116   28.7823   50.9798 H   0  0  0  0  0  0  0  0  0  0  0  0
   39.3043   31.1772   42.3689 H   0  0  0  0  0  0  0  0  0  0  0  0
   39.8593   33.8561   41.2398 H   0  0  0  0  0  0  0  0  0  0  0  0
   36.9802   32.9683   41.9750 H   0  0  0  0  0  0  0  0  0  0  0  0
   37.5970   34.5562   41.5493 H   0  0  0  0  0  0  0  0  0  0  0  0
   38.1595   31.8757   38.6868 H   0  0  0  0  0  0  0  0  0  0  0  0
   37.3302   31.1275   40.1645 H   0  0  0  0  0  0  0  0  0  0  0  0
   39.6044   30.4734   40.1891 H   0  0  0  0  0  0  0  0  0  0  0  0
   40.4728   32.2790   39.4811 C   0  0  0  0  0  0  0  0  0  0  0  0
   41.4541   33.1788   40.1589 C   0  0  0  0  0  0  0  0  0  0  0  0
   41.9228   31.8639   39.6505 C   0  0  0  0  0  0  0  0  0  0  0  0
   40.1791   32.5046   38.4169 H   0  0  0  0  0  0  0  0  0  0  0  0
   41.3956   33.2695   41.2612 H   0  0  0  0  0  0  0  0  0  0  0  0
   41.8016   34.0840   39.5947 H   0  0  0  0  0  0  0  0  0  0  0  0
   42.5534   31.8296   38.7210 H   0  0  0  0  0  0  0  0  0  0  0  0
   42.1428   31.0212   40.3509 H   0  0  0  0  0  0  0  0  0  0  0  0
  1  2  2  0
  2 12  1  0
  3  2  1  0
  4  3  2  0
  5  4  1  0
  6  5  1  0
  7  6  2  0
  7  8  1  0
  8  9  2  0
  8  4  1  0
  9  1  1  0
 10 15  2  0
 11 10  1  0
 12 13  1  0
 12 11  2  0
 13 14  2  0
 14 15  1  0
 16  6  1  0
 17 18  1  0
 18 16  1  0
 19 18  1  0
 20 19  1  0
 21 20  1  0
 21 22  1  0
 22 17  1  0
  1 23  1  0
  3 24  1  0
  5 25  1  0
  9 26  1  0
 10 27  1  0
 11 28  1  0
 14 29  1  0
 17 30  1  0
 18 31  1  6
 19 32  1  0
 19 33  1  0
 21 34  1  0
 21 35  1  0
 22 36  1  1
 37 38  1  0
 38 39  1  0
 39 37  1  0
 37 40  1  0
 38 41  1  0
 38 42  1  0
 39 43  1  0
 39 44  1  0
 22 37  1  0
M  ISO  8  23  14  24  14  25   9  26  14  27  14  28  14  29  14  30   5
M  ISO  6  31  13  32  13  33  13  34  13  35  13  36  13
M  END
>  <DihAtoms>  (1) 
20,21,36,37

>  <DihDeg>  (1) 
-175.38637163058246

$$$$
