
     RDKit          3D

 26 28  0  0  0  0  0  0  0  0999 V2000
   37.5260   31.2700   49.5230 C   0  0  0  0  0  0  0  0  0  0  0  0
   37.8980   30.7280   50.7460 C   0  0  0  0  0  0  0  0  0  0  0  0
   37.1070   29.7890   51.3830 C   0  0  0  0  0  0  0  0  0  0  0  0
   35.9490   29.4340   50.7320 C   0  0  0  0  0  0  0  0  0  0  0  0
   35.5570   29.9610   49.5090 C   0  0  0  0  0  0  0  0  0  0  0  0
   36.3900   30.8840   48.9420 N   0  0  0  0  0  0  0  0  0  0  0  0
   39.5650   34.2590   48.9760 C   0  0  0  0  0  0  0  0  0  0  0  0
   40.0300   34.1010   47.6720 C   0  0  0  0  0  0  0  0  0  0  0  0
   39.6310   32.9440   46.9740 C   0  0  0  0  0  0  0  0  0  0  0  0
   38.8190   32.0670   47.6330 N   0  0  0  0  0  0  0  0  0  0  0  0
   38.3910   32.2530   48.8920 C   0  0  0  0  0  0  0  0  0  0  0  0
   38.7750   33.3500   49.5430 N   0  0  0  0  0  0  0  0  0  0  0  0
   34.2850   29.5320   48.8550 C   0  0  0  0  0  0  0  0  0  0  0  0
   34.3520   28.4310   47.8230 C   0  0  0  0  0  0  0  0  0  0  0  0
   33.6920   28.2250   49.1410 C   0  0  0  0  0  0  0  0  0  0  0  0
   38.8383   31.0511   51.2166 H   0  0  0  0  0  0  0  0  0  0  0  0
   37.3876   29.3522   52.3528 H   0  0  0  0  0  0  0  0  0  0  0  0
   35.2949   28.6887   51.2082 H   0  0  0  0  0  0  0  0  0  0  0  0
   39.8564   35.1523   49.5480 H   0  0  0  0  0  0  0  0  0  0  0  0
   40.6843   34.8518   47.2049 H   0  0  0  0  0  0  0  0  0  0  0  0
   39.9601   32.7555   45.9414 H   0  0  0  0  0  0  0  0  0  0  0  0
   33.9055   30.5637   48.8935 H   0  0  0  0  0  0  0  0  0  0  0  0
   33.7492   28.4942   46.9050 H   0  0  0  0  0  0  0  0  0  0  0  0
   35.1513   27.9310   47.2564 H   0  0  0  0  0  0  0  0  0  0  0  0
   34.1586   27.5657   49.8878 H   0  0  0  0  0  0  0  0  0  0  0  0
   32.6941   27.8862   49.4562 H   0  0  0  0  0  0  0  0  0  0  0  0
  1  2  2  0
  2  3  1  0
  4  3  2  0
  5  4  1  0
  6  5  2  0
  6  1  1  0
  7 12  2  0
  8  7  1  0
  9 10  1  0
  9  8  2  0
 10 11  2  0
 11  1  1  0
 11 12  1  0
 13 15  1  0
 13  5  1  0
 14 13  1  0
 14 15  1  0
  2 16  1  0
  3 17  1  0
  4 18  1  0
  7 19  1  0
  8 20  1  0
  9 21  1  0
 13 22  1  0
 14 23  1  0
 14 24  1  0
 15 25  1  0
 15 26  1  0
M  ISO  8  16  14  17  14  18  14  19  14  20  14  21  14  22  13  23  13
M  ISO  3  24  13  25  13  26  13
M  END
>  <minimizedAffinity>  (1) 
-5.54171038

>  <minimizedRMSD>  (1) 
2.35726357

$$$$
