
     RDKit          3D

 41 44  0  0  0  0  0  0  0  0999 V2000
   31.7360   26.7900   47.7810 C   0  0  0  0  0  0  0  0  0  0  0  0
   31.6040   25.4150   47.7670 C   0  0  0  0  0  0  0  0  0  0  0  0
   32.6250   24.5430   47.3820 C   0  0  0  0  0  0  0  0  0  0  0  0
   33.8630   25.1000   46.9830 C   0  0  0  0  0  0  0  0  0  0  0  0
   33.9640   26.4600   47.0060 C   0  0  0  0  0  0  0  0  0  0  0  0
   32.9710   27.3110   47.3840 C   0  0  0  0  0  0  0  0  0  0  0  0
   30.3930   27.7260   49.5600 C   0  0  0  0  0  0  0  0  0  0  0  0
   30.5780   27.5430   48.1840 C   0  0  0  0  0  0  0  0  0  0  0  0
   29.6350   28.1010   47.3110 C   0  0  0  0  0  0  0  0  0  0  0  0
   28.5850   28.7900   47.8280 N   0  0  0  0  0  0  0  0  0  0  0  0
   28.4260   28.9560   49.1740 C   0  0  0  0  0  0  0  0  0  0  0  0
   29.3350   28.4190   50.0350 N   0  0  0  0  0  0  0  0  0  0  0  0
   29.7000   27.9850   45.8230 C   0  0  0  0  0  0  0  0  0  0  0  0
   28.5450   28.5570   45.2590 F   0  0  0  0  0  0  0  0  0  0  0  0
   30.7830   28.5300   45.2360 F   0  0  0  0  0  0  0  0  0  0  0  0
   29.6100   26.6480   45.4530 F   0  0  0  0  0  0  0  0  0  0  0  0
   33.1420   29.0460   47.4340 S   0  0  0  0  0  0  0  0  0  0  0  0
   34.7650   28.6890   50.0650 Cl  0  0  0  0  0  0  0  0  0  0  0  0
   35.4940   29.4300   48.6590 C   0  0  0  0  0  0  0  0  0  0  0  0
   34.8170   29.6210   47.4700 C   0  0  0  0  0  0  0  0  0  0  0  0
   35.4290   30.2070   46.3940 C   0  0  0  0  0  0  0  0  0  0  0  0
   36.7580   30.6020   46.5330 C   0  0  0  0  0  0  0  0  0  0  0  0
   37.4440   30.4110   47.7320 C   0  0  0  0  0  0  0  0  0  0  0  0
   36.8110   29.8180   48.8160 C   0  0  0  0  0  0  0  0  0  0  0  0
   37.6880   29.7220   50.0000 C   0  0  0  0  0  0  0  0  0  0  0  0
   38.3690   30.9390   50.5700 C   0  0  0  0  0  0  0  0  0  0  0  0
   37.1680   30.3970   51.2410 C   0  0  0  0  0  0  0  0  0  0  0  0
   30.6410   24.9826   48.0763 H   0  0  0  0  0  0  0  0  0  0  0  0
   32.4709   23.4539   47.3888 H   0  0  0  0  0  0  0  0  0  0  0  0
   34.7049   24.4656   46.6688 H   0  0  0  0  0  0  0  0  0  0  0  0
   34.9215   26.9033   46.6952 H   0  0  0  0  0  0  0  0  0  0  0  0
   31.1208   27.2986   50.2654 H   0  0  0  0  0  0  0  0  0  0  0  0
   27.5662   29.5218   49.5621 H   0  0  0  0  0  0  0  0  0  0  0  0
   34.8878   30.3611   45.4488 H   0  0  0  0  0  0  0  0  0  0  0  0
   37.2744   31.0721   45.6831 H   0  0  0  0  0  0  0  0  0  0  0  0
   38.4925   30.7320   47.8194 H   0  0  0  0  0  0  0  0  0  0  0  0
   38.0541   28.7294   49.6988 H   0  0  0  0  0  0  0  0  0  0  0  0
   39.3550   30.8423   51.0481 H   0  0  0  0  0  0  0  0  0  0  0  0
   38.6560   31.9236   50.1722 H   0  0  0  0  0  0  0  0  0  0  0  0
   36.2211   30.9556   51.2054 H   0  0  0  0  0  0  0  0  0  0  0  0
   36.9364   30.0646   52.2637 H   0  0  0  0  0  0  0  0  0  0  0  0
  1  8  1  0
  2  1  2  0
  3  2  1  0
  4  5  1  0
  4  3  2  0
  5  6  2  0
  6 17  1  0
  6  1  1  0
  7 12  2  0
  8  7  1  0
  9 10  1  0
  9  8  2  0
 10 11  2  0
 11 12  1  0
 13  9  1  0
 14 13  1  0
 15 13  1  0
 16 13  1  0
 17 20  1  0
 19 24  2  0
 19 18  1  0
 20 19  1  0
 21 22  1  0
 21 20  2  0
 22 23  2  0
 23 24  1  0
 24 25  1  0
 25 26  1  0
 25 27  1  0
 26 27  1  0
  2 28  1  0
  3 29  1  0
  4 30  1  0
  5 31  1  0
  7 32  1  0
 11 33  1  0
 21 34  1  0
 22 35  1  0
 23 36  1  0
 25 37  1  0
 26 38  1  0
 26 39  1  0
 27 40  1  0
 27 41  1  0
M  ISO  8  28  14  29  14  30  14  31  14  32  14  33  14  34  14  35  14
M  ISO  6  36  14  37  13  38  13  39  13  40  13  41  13
M  END
>  <minimizedAffinity>  (1) 
-6.23769426

>  <minimizedRMSD>  (1) 
3.34553099

$$$$
