
     RDKit          3D

 41 44  0  0  1  0  0  0  0  0999 V2000
   38.2340   31.6880   43.4870 N   0  0  0  0  0  0  0  0  0  0  0  0
   37.3120   31.4410   44.5920 C   0  0  0  0  0  0  0  0  0  0  0  0
   37.9260   31.4900   45.9170 C   0  0  2  0  0  0  0  0  0  0  0  0
   39.2390   30.7840   45.9640 N   0  0  0  0  0  0  0  0  0  0  0  0
   40.0740   31.3750   44.9010 C   0  0  0  0  0  0  0  0  0  0  0  0
   39.4010   30.8890   43.6340 C   0  0  0  0  0  0  0  0  0  0  0  0
   38.6920   31.9370   48.7560 Cl  0  0  0  0  0  0  0  0  0  0  0  0
   37.2570   31.0480   48.2480 C   0  0  0  0  0  0  0  0  0  0  0  0
   37.0390   30.8950   46.9030 C   0  0  0  0  0  0  0  0  0  0  0  0
   35.9430   30.2170   46.3580 C   0  0  0  0  0  0  0  0  0  0  0  0
   35.0470   29.6780   47.2910 C   0  0  0  0  0  0  0  0  0  0  0  0
   35.2580   29.8230   48.6600 C   0  0  0  0  0  0  0  0  0  0  0  0
   36.3720   30.5140   49.1290 C   0  0  0  0  0  0  0  0  0  0  0  0
   36.5270   30.6060   50.6020 C   0  0  0  0  0  0  0  0  0  0  0  0
   36.0390   29.4910   51.4840 C   0  0  0  0  0  0  0  0  0  0  0  0
   37.4980   29.6280   51.2940 C   0  0  0  0  0  0  0  0  0  0  0  0
   37.9440   32.5940   42.4390 C   0  0  0  0  0  0  0  0  0  0  0  0
   38.9180   33.0330   41.5430 C   0  0  0  0  0  0  0  0  0  0  0  0
   38.5470   33.9160   40.5390 C   0  0  0  0  0  0  0  0  0  0  0  0
   37.2260   34.3180   40.4740 N   0  0  0  0  0  0  0  0  0  0  0  0
   36.3150   33.8620   41.3710 C   0  0  0  0  0  0  0  0  0  0  0  0
   36.6560   33.0190   42.3340 N   0  0  0  0  0  0  0  0  0  0  0  0
   36.5179   32.2012   44.5532 H   0  0  0  0  0  0  0  0  0  0  0  0
   36.9340   30.4164   44.4605 H   0  0  0  0  0  0  0  0  0  0  0  0
   38.1000   32.5519   46.1453 H   0  0  0  0  0  0  0  0  0  0  0  0
   39.6837   30.9214   46.8829 H   0  0  0  0  0  0  0  0  0  0  0  0
   40.0669   32.4736   44.9567 H   0  0  0  0  0  0  0  0  0  0  0  0
   41.1332   31.0862   44.9690 H   0  0  0  0  0  0  0  0  0  0  0  0
   39.1295   29.8271   43.7271 H   0  0  0  0  0  0  0  0  0  0  0  0
   40.0657   30.9771   42.7620 H   0  0  0  0  0  0  0  0  0  0  0  0
   35.7950   30.1143   45.2729 H   0  0  0  0  0  0  0  0  0  0  0  0
   34.1614   29.1307   46.9358 H   0  0  0  0  0  0  0  0  0  0  0  0
   34.5416   29.3898   49.3736 H   0  0  0  0  0  0  0  0  0  0  0  0
   36.3751   31.6950   50.5695 H   0  0  0  0  0  0  0  0  0  0  0  0
   35.5937   29.7267   52.4618 H   0  0  0  0  0  0  0  0  0  0  0  0
   35.3249   28.6655   51.3474 H   0  0  0  0  0  0  0  0  0  0  0  0
   38.0483   28.8845   50.6988 H   0  0  0  0  0  0  0  0  0  0  0  0
   38.3651   29.7324   51.9628 H   0  0  0  0  0  0  0  0  0  0  0  0
   39.9584   32.6867   41.6302 H   0  0  0  0  0  0  0  0  0  0  0  0
   39.2855   34.2868   39.8130 H   0  0  0  0  0  0  0  0  0  0  0  0
   35.2708   34.1999   41.2965 H   0  0  0  0  0  0  0  0  0  0  0  0
  1  6  1  0
  1  2  1  0
  2  3  1  0
  3  4  1  0
  3  9  1  0
  5  4  1  0
  6  5  1  0
  8  7  1  0
  8 13  2  0
  9  8  1  0
 10  9  2  0
 10 11  1  0
 11 12  2  0
 12 13  1  0
 13 14  1  0
 14 16  1  0
 14 15  1  0
 16 15  1  0
 17  1  1  0
 18 17  2  0
 19 18  1  0
 20 19  2  0
 20 21  1  0
 21 22  2  0
 22 17  1  0
  2 23  1  0
  2 24  1  0
  3 25  1  1
  4 26  1  0
  5 27  1  0
  5 28  1  0
  6 29  1  0
  6 30  1  0
 10 31  1  0
 11 32  1  0
 12 33  1  0
 14 34  1  0
 15 35  1  0
 15 36  1  0
 16 37  1  0
 16 38  1  0
 18 39  1  0
 19 40  1  0
 21 41  1  0
M  ISO  8  23  13  24  13  25  13  26   5  27  13  28  13  29  13  30  13
M  ISO  8  31  14  32  14  33  14  34  13  35  13  36  13  37  13  38  13
M  ISO  3  39  14  40  14  41  14
M  END
>  <minimizedAffinity>  (1) 
-6.06072521

>  <minimizedRMSD>  (1) 
4.65918255

$$$$
