
     RDKit          3D

 29 31  0  0  0  0  0  0  0  0999 V2000
   37.8000   30.4690   50.1620 C   0  0  0  0  0  0  0  0  0  0  0  0
   37.2830   30.6810   48.8710 C   0  0  0  0  0  0  0  0  0  0  0  0
   35.9820   30.2880   48.5970 C   0  0  0  0  0  0  0  0  0  0  0  0
   35.2510   29.7130   49.5820 N   0  0  0  0  0  0  0  0  0  0  0  0
   35.7830   29.5180   50.8330 C   0  0  0  0  0  0  0  0  0  0  0  0
   37.0510   29.8980   51.1120 N   0  0  0  0  0  0  0  0  0  0  0  0
   34.9740   28.9110   51.8330 N   0  0  0  0  0  0  0  0  0  0  0  0
   38.1990   33.5640   49.1980 Cl  0  0  0  0  0  0  0  0  0  0  0  0
   38.6940   32.5850   47.8510 C   0  0  0  0  0  0  0  0  0  0  0  0
   38.1770   31.3170   47.8800 C   0  0  0  0  0  0  0  0  0  0  0  0
   38.5190   30.4420   46.8310 C   0  0  0  0  0  0  0  0  0  0  0  0
   39.3310   30.8200   45.8110 C   0  0  0  0  0  0  0  0  0  0  0  0
   39.8360   32.1110   45.8120 C   0  0  0  0  0  0  0  0  0  0  0  0
   40.8830   32.6360   44.5210 Cl  0  0  0  0  0  0  0  0  0  0  0  0
   39.5130   32.9520   46.8140 C   0  0  0  0  0  0  0  0  0  0  0  0
   35.4520   30.5130   47.2490 C   0  0  0  0  0  0  0  0  0  0  0  0
   34.8530   29.4220   46.4470 C   0  0  0  0  0  0  0  0  0  0  0  0
   33.9080   30.3300   47.1450 C   0  0  0  0  0  0  0  0  0  0  0  0
   38.8308   30.7759   50.3927 H   0  0  0  0  0  0  0  0  0  0  0  0
   35.3533   28.7555   52.7779 H   0  0  0  0  0  0  0  0  0  0  0  0
   34.0089   28.6270   51.6123 H   0  0  0  0  0  0  0  0  0  0  0  0
   38.1150   29.4189   46.8384 H   0  0  0  0  0  0  0  0  0  0  0  0
   39.5825   30.1181   45.0023 H   0  0  0  0  0  0  0  0  0  0  0  0
   39.9223   33.9729   46.7997 H   0  0  0  0  0  0  0  0  0  0  0  0
   36.2220   31.2636   47.0172 H   0  0  0  0  0  0  0  0  0  0  0  0
   34.9548   28.3815   46.7889 H   0  0  0  0  0  0  0  0  0  0  0  0
   34.9633   29.1034   45.3999 H   0  0  0  0  0  0  0  0  0  0  0  0
   33.3015   31.0468   46.5720 H   0  0  0  0  0  0  0  0  0  0  0  0
   33.0787   30.2085   47.8574 H   0  0  0  0  0  0  0  0  0  0  0  0
  1  6  2  0
  2  1  1  0
  3  2  2  0
  3  4  1  0
  4  5  2  0
  5  6  1  0
  5  7  1  0
  9 10  2  0
  9  8  1  0
 10  2  1  0
 11 10  1  0
 12 13  1  0
 12 11  2  0
 13 15  2  0
 14 13  1  0
 15  9  1  0
 16  3  1  0
 17 18  1  0
 17 16  1  0
 18 16  1  0
  1 19  1  0
  7 20  1  0
  7 21  1  0
 11 22  1  0
 12 23  1  0
 15 24  1  0
 16 25  1  0
 17 26  1  0
 17 27  1  0
 18 28  1  0
 18 29  1  0
M  ISO  8  19  14  22  14  23  14  24  14  25  13  26  13  27  13  28  13
M  ISO  1  29  13
M  END
>  <minimizedAffinity>  (1) 
-5.53297424

>  <minimizedRMSD>  (1) 
0.736847222

$$$$
