
     RDKit          3D

 24 25  0  0  0  0  0  0  0  0999 V2000
   37.3245   30.2227   51.4131 C   0  0  0  0  0  0  0  0  0  0  0  0
   38.0428   30.6680   50.3070 C   0  0  0  0  0  0  0  0  0  0  0  0
   37.6183   30.2880   49.0366 C   0  0  0  0  0  0  0  0  0  0  0  0
   36.5021   29.4884   48.9817 N   0  0  0  0  0  0  0  0  0  0  0  0
   35.8336   29.0769   50.0598 C   0  0  0  0  0  0  0  0  0  0  0  0
   36.2493   29.4483   51.2922 N   0  0  0  0  0  0  0  0  0  0  0  0
   34.7595   28.2915   49.7440 O   0  0  0  0  0  0  0  0  0  0  0  0
   34.2055   28.4061   48.4370 C   0  0  0  0  0  0  0  0  0  0  0  0
   33.8194   27.0412   47.9307 C   0  0  0  0  0  0  0  0  0  0  0  0
   37.6012   30.4822   52.4369 H   0  0  0  0  0  0  0  0  0  0  0  0
   38.9135   31.2986   50.4622 H   0  0  0  0  0  0  0  0  0  0  0  0
   38.1514   30.6151   48.1595 H   0  0  0  0  0  0  0  0  0  0  0  0
   33.3389   29.0890   48.4354 H   0  0  0  0  0  0  0  0  0  0  0  0
   34.9449   28.8462   47.7360 H   0  0  0  0  0  0  0  0  0  0  0  0
   34.6970   26.4047   47.8228 H   0  0  0  0  0  0  0  0  0  0  0  0
   33.0289   26.6181   48.5697 H   0  0  0  0  0  0  0  0  0  0  0  0
   33.2378   27.2555   46.5321 C   0  0  0  0  0  0  0  0  0  0  0  0
   31.8780   27.8244   46.4024 C   0  0  0  0  0  0  0  0  0  0  0  0
   33.0496   28.6975   46.0872 C   0  0  0  0  0  0  0  0  0  0  0  0
   33.5599   26.5656   45.7164 H   0  0  0  0  0  0  0  0  0  0  0  0
   31.2992   27.9509   47.3488 H   0  0  0  0  0  0  0  0  0  0  0  0
   31.2557   27.4845   45.5443 H   0  0  0  0  0  0  0  0  0  0  0  0
   33.2522   29.4936   46.8457 H   0  0  0  0  0  0  0  0  0  0  0  0
   33.2443   28.9407   45.0269 H   0  0  0  0  0  0  0  0  0  0  0  0
  2  1  2  0
  3  2  1  0
  4  3  2  0
  4  5  1  0
  5  6  2  0
  6  1  1  0
  7  5  1  0
  8  7  1  0
  9  8  1  0
  1 10  1  0
  2 11  1  0
  3 12  1  0
  8 13  1  0
  8 14  1  0
  9 15  1  0
  9 16  1  0
 17 18  1  0
 18 19  1  0
 19 17  1  0
 17 20  1  0
 18 21  1  0
 18 22  1  0
 19 23  1  0
 19 24  1  0
  9 17  1  0
M  ISO  7  10  14  11  14  12  14  13   8  14   8  15   8  16   8
M  END
>  <DihAtoms>  (1) 
7,8,16,17

>  <DihDeg>  (1) 
-179.9999499810715

$$$$
