
     RDKit          3D

 29 31  0  0  0  0  0  0  0  0999 V2000
   38.3880   32.2270   48.8690 C   0  0  0  0  0  0  0  0  0  0  0  0
   38.7480   33.3390   49.5780 C   0  0  0  0  0  0  0  0  0  0  0  0
   39.5750   34.3070   48.9850 C   0  0  0  0  0  0  0  0  0  0  0  0
   40.0240   34.1200   47.6640 C   0  0  0  0  0  0  0  0  0  0  0  0
   39.6540   32.9830   46.9450 C   0  0  0  0  0  0  0  0  0  0  0  0
   38.8460   32.0870   47.5950 C   0  0  0  0  0  0  0  0  0  0  0  0
   37.1590   29.4080   51.0610 C   0  0  0  0  0  0  0  0  0  0  0  0
   38.0540   30.3020   50.4640 C   0  0  0  0  0  0  0  0  0  0  0  0
   37.5570   31.2500   49.5400 C   0  0  0  0  0  0  0  0  0  0  0  0
   36.2360   31.2230   49.2980 N   0  0  0  0  0  0  0  0  0  0  0  0
   35.3970   30.3500   49.8890 C   0  0  0  0  0  0  0  0  0  0  0  0
   35.8620   29.4390   50.7740 N   0  0  0  0  0  0  0  0  0  0  0  0
   34.0340   30.4920   49.4970 N   0  0  0  0  0  0  0  0  0  0  0  0
   38.4930   30.9510   46.6830 C   0  0  0  0  0  0  0  0  0  0  0  0
   39.5690   30.5500   45.6430 C   0  0  0  0  0  0  0  0  0  0  0  0
   38.3170   31.1960   45.2350 C   0  0  0  0  0  0  0  0  0  0  0  0
   38.3911   33.4752   50.6096 H   0  0  0  0  0  0  0  0  0  0  0  0
   39.8696   35.2045   49.5486 H   0  0  0  0  0  0  0  0  0  0  0  0
   40.6713   34.8758   47.1952 H   0  0  0  0  0  0  0  0  0  0  0  0
   39.9926   32.8148   45.9120 H   0  0  0  0  0  0  0  0  0  0  0  0
   37.5355   28.6663   51.7807 H   0  0  0  0  0  0  0  0  0  0  0  0
   39.1258   30.2681   50.7091 H   0  0  0  0  0  0  0  0  0  0  0  0
   33.3162   29.8696   49.8948 H   0  0  0  0  0  0  0  0  0  0  0  0
   33.7669   31.2171   48.8160 H   0  0  0  0  0  0  0  0  0  0  0  0
   37.8895   30.4564   47.4583 H   0  0  0  0  0  0  0  0  0  0  0  0
   40.5195   31.1010   45.5891 H   0  0  0  0  0  0  0  0  0  0  0  0
   40.0975   29.6227   45.3771 H   0  0  0  0  0  0  0  0  0  0  0  0
   38.3405   32.2280   44.8550 H   0  0  0  0  0  0  0  0  0  0  0  0
   37.5299   30.9330   44.5130 H   0  0  0  0  0  0  0  0  0  0  0  0
  1  9  1  0
  1  2  2  0
  3  2  1  0
  4  3  2  0
  5  6  2  0
  5  4  1  0
  6  1  1  0
  8  7  2  0
  9  8  1  0
 10  9  2  0
 10 11  1  0
 11 12  2  0
 12  7  1  0
 13 11  1  0
 14  6  1  0
 15 14  1  0
 16 15  1  0
 16 14  1  0
  2 17  1  0
  3 18  1  0
  4 19  1  0
  5 20  1  0
  7 21  1  0
  8 22  1  0
 13 23  1  0
 13 24  1  0
 14 25  1  0
 15 26  1  0
 15 27  1  0
 16 28  1  0
 16 29  1  0
M  ISO  8  17  14  18  14  19  14  20  14  21  14  22  14  25  13  26  13
M  ISO  3  27  13  28  13  29  13
M  END
>  <minimizedAffinity>  (1) 
-6.19090223

>  <minimizedRMSD>  (1) 
1.85264707

$$$$
