
     RDKit          3D

 33 35  0  0  1  0  0  0  0  0999 V2000
   38.4430   32.2320   45.9840 C   0  0  1  0  0  0  0  0  0  0  0  0
   39.6050   33.0500   45.6360 C   0  0  0  0  0  0  0  0  0  0  0  0
   40.8190   32.3250   45.1270 C   0  0  0  0  0  0  0  0  0  0  0  0
   40.5680   31.1240   44.3070 C   0  0  0  0  0  0  0  0  0  0  0  0
   39.4420   30.2740   44.6930 C   0  0  0  0  0  0  0  0  0  0  0  0
   38.2120   31.0690   45.0630 C   0  0  2  0  0  0  0  0  0  0  0  0
   38.7330   32.7020   48.4810 C   0  0  0  0  0  0  0  0  0  0  0  0
   38.3490   31.8450   47.4140 C   0  0  0  0  0  0  0  0  0  0  0  0
   37.8790   30.5980   47.7690 C   0  0  0  0  0  0  0  0  0  0  0  0
   37.8020   30.2420   49.0770 N   0  0  0  0  0  0  0  0  0  0  0  0
   38.1820   31.1000   50.0610 C   0  0  0  0  0  0  0  0  0  0  0  0
   38.6490   32.3350   49.7510 N   0  0  0  0  0  0  0  0  0  0  0  0
   37.4680   31.3380   43.8080 C   0  0  0  0  0  0  0  0  0  0  0  0
   36.0400   31.0990   43.5620 C   0  0  0  0  0  0  0  0  0  0  0  0
   37.1340   30.3110   42.8110 C   0  0  0  0  0  0  0  0  0  0  0  0
   37.6039   32.9244   45.8211 H   0  0  0  0  0  0  0  0  0  0  0  0
   39.2905   33.7595   44.8564 H   0  0  0  0  0  0  0  0  0  0  0  0
   39.9231   33.5132   46.5816 H   0  0  0  0  0  0  0  0  0  0  0  0
   41.4000   33.0320   44.5166 H   0  0  0  0  0  0  0  0  0  0  0  0
   41.3419   31.9630   46.0245 H   0  0  0  0  0  0  0  0  0  0  0  0
   41.4766   30.5048   44.3403 H   0  0  0  0  0  0  0  0  0  0  0  0
   40.3031   31.5106   43.3118 H   0  0  0  0  0  0  0  0  0  0  0  0
   39.1937   29.6139   43.8488 H   0  0  0  0  0  0  0  0  0  0  0  0
   39.7471   29.7011   45.5811 H   0  0  0  0  0  0  0  0  0  0  0  0
   37.5655   30.4737   45.7245 H   0  0  0  0  0  0  0  0  0  0  0  0
   39.1137   33.7063   48.2435 H   0  0  0  0  0  0  0  0  0  0  0  0
   37.5651   29.8887   46.9890 H   0  0  0  0  0  0  0  0  0  0  0  0
   38.1103   30.7908   51.1142 H   0  0  0  0  0  0  0  0  0  0  0  0
   38.0799   32.2521   43.8079 H   0  0  0  0  0  0  0  0  0  0  0  0
   35.4219   30.6010   44.3236 H   0  0  0  0  0  0  0  0  0  0  0  0
   35.1765   31.7166   43.2741 H   0  0  0  0  0  0  0  0  0  0  0  0
   37.3024   29.2469   43.0330 H   0  0  0  0  0  0  0  0  0  0  0  0
   37.3874   30.1244   41.7570 H   0  0  0  0  0  0  0  0  0  0  0  0
  1  8  1  0
  2  1  1  0
  3  2  1  0
  4  5  1  0
  4  3  1  0
  5  6  1  0
  6  1  1  0
  7 12  2  0
  8  9  2  0
  8  7  1  0
  9 10  1  0
 10 11  2  0
 12 11  1  0
 13  6  1  0
 14 13  1  0
 15 14  1  0
 15 13  1  0
  1 16  1  6
  2 17  1  0
  2 18  1  0
  3 19  1  0
  3 20  1  0
  4 21  1  0
  4 22  1  0
  5 23  1  0
  5 24  1  0
  6 25  1  1
  7 26  1  0
  9 27  1  0
 11 28  1  0
 13 29  1  0
 14 30  1  0
 14 31  1  0
 15 32  1  0
 15 33  1  0
M  ISO  8  16  13  17  13  18  13  19  13  20  13  21  13  22  13  23  13
M  ISO  8  24  13  25  13  26  14  27  14  28  14  29  13  30  13  31  13
M  ISO  2  32  13  33  13
M  END
>  <minimizedAffinity>  (1) 
-4.89862585

>  <minimizedRMSD>  (1) 
6.12744427

$$$$
