
     RDKit          3D

 25 26  0  0  1  0  0  0  0  0999 V2000
   35.6980   29.6540   48.8620 N   0  0  0  0  0  0  0  0  0  0  0  0
   36.5060   28.8680   49.7710 C   0  0  0  0  0  0  0  0  0  0  0  0
   37.0530   29.6310   50.9280 C   0  0  0  0  0  0  0  0  0  0  0  0
   37.3220   31.0160   50.7270 N   0  0  0  0  0  0  0  0  0  0  0  0
   36.3260   31.6800   49.8900 C   0  0  0  0  0  0  0  0  0  0  0  0
   36.3260   30.9130   48.5900 C   0  0  1  0  0  0  0  0  0  0  0  0
   34.4570   29.2000   48.3380 C   0  0  0  0  0  0  0  0  0  0  0  0
   33.9520   29.6350   47.0960 C   0  0  0  0  0  0  0  0  0  0  0  0
   32.7280   29.1340   46.6660 C   0  0  0  0  0  0  0  0  0  0  0  0
   32.0750   28.2450   47.4680 N   0  0  0  0  0  0  0  0  0  0  0  0
   32.5970   27.8530   48.6580 C   0  0  0  0  0  0  0  0  0  0  0  0
   33.7680   28.3110   49.1050 N   0  0  0  0  0  0  0  0  0  0  0  0
   38.0810   30.7490   48.1280 S   0  0  0  0  0  0  0  0  0  0  0  0
   35.8848   28.0488   50.1623 H   0  0  0  0  0  0  0  0  0  0  0  0
   37.3717   28.5126   49.1929 H   0  0  0  0  0  0  0  0  0  0  0  0
   36.3266   29.5510   51.7501 H   0  0  0  0  0  0  0  0  0  0  0  0
   38.0353   29.1777   51.1273 H   0  0  0  0  0  0  0  0  0  0  0  0
   37.3414   31.4823   51.6452 H   0  0  0  0  0  0  0  0  0  0  0  0
   35.3339   31.6368   50.3633 H   0  0  0  0  0  0  0  0  0  0  0  0
   36.5596   32.7443   49.7392 H   0  0  0  0  0  0  0  0  0  0  0  0
   35.7813   31.3908   47.7624 H   0  0  0  0  0  0  0  0  0  0  0  0
   34.5131   30.3541   46.4811 H   0  0  0  0  0  0  0  0  0  0  0  0
   32.2974   29.4469   45.7033 H   0  0  0  0  0  0  0  0  0  0  0  0
   32.0365   27.1344   49.2740 H   0  0  0  0  0  0  0  0  0  0  0  0
   38.8469   30.6774   49.2617 H   0  0  0  0  0  0  0  0  0  0  0  0
  1  2  1  0
  2  3  1  0
  4  3  1  0
  5  4  1  0
  6  1  1  0
  6  5  1  0
  7  1  1  0
  7 12  1  0
  8  7  2  0
  9  8  1  0
  9 10  2  0
 10 11  1  0
 11 12  2  0
 13  6  1  0
  2 14  1  0
  2 15  1  0
  3 16  1  0
  3 17  1  0
  4 18  1  0
  5 19  1  0
  5 20  1  0
  6 21  1  6
  8 22  1  0
  9 23  1  0
 11 24  1  0
 13 25  1  0
M  ISO  8  14  13  15  13  16  13  17  13  18   5  19  13  20  13  21  13
M  ISO  4  22  14  23  14  24  14  25  11
M  END
>  <minimizedAffinity>  (1) 
-3.77788281

>  <minimizedRMSD>  (1) 
1.20965862

$$$$
