
     RDKit          3D

 18 18  0  0  0  0  0  0  0  0999 V2000
   37.3470   30.2420   51.4350 C   0  0  0  0  0  0  0  0  0  0  0  0
   38.0870   30.7390   50.3640 C   0  0  0  0  0  0  0  0  0  0  0  0
   37.7120   30.3790   49.0590 C   0  0  0  0  0  0  0  0  0  0  0  0
   36.6340   29.5560   48.9420 N   0  0  0  0  0  0  0  0  0  0  0  0
   35.9430   29.0940   49.9850 C   0  0  0  0  0  0  0  0  0  0  0  0
   36.3200   29.4510   51.2230 N   0  0  0  0  0  0  0  0  0  0  0  0
   34.8880   28.2730   49.6250 O   0  0  0  0  0  0  0  0  0  0  0  0
   34.4150   28.3360   48.3040 C   0  0  0  0  0  0  0  0  0  0  0  0
   33.5600   27.1350   47.9690 C   0  0  0  0  0  0  0  0  0  0  0  0
   31.8470   27.5190   48.4120 S   0  0  0  0  0  0  0  0  0  0  0  0
   37.6245   30.5137   52.4642 H   0  0  0  0  0  0  0  0  0  0  0  0
   38.9485   31.4007   50.5372 H   0  0  0  0  0  0  0  0  0  0  0  0
   38.2607   30.7430   48.1778 H   0  0  0  0  0  0  0  0  0  0  0  0
   33.8139   29.2491   48.1818 H   0  0  0  0  0  0  0  0  0  0  0  0
   35.2806   28.3462   47.6253 H   0  0  0  0  0  0  0  0  0  0  0  0
   33.6268   26.9190   46.8925 H   0  0  0  0  0  0  0  0  0  0  0  0
   33.9082   26.2532   48.5268 H   0  0  0  0  0  0  0  0  0  0  0  0
   31.7233   27.5467   49.7761 H   0  0  0  0  0  0  0  0  0  0  0  0
  2  1  2  0
  3  2  1  0
  4  3  2  0
  4  5  1  0
  5  6  2  0
  6  1  1  0
  7  5  1  0
  8  7  1  0
  9  8  1  0
  9 10  1  0
  1 11  1  0
  2 12  1  0
  3 13  1  0
  8 14  1  0
  8 15  1  0
  9 16  1  0
  9 17  1  0
 10 18  1  0
M  ISO  8  11  14  12  14  13  14  14   8  15   8  16   8  17   8  18  11
M  END
>  <minimizedAffinity>  (1) 
-3.42638898

>  <minimizedRMSD>  (1) 
0.553422749

$$$$
