
     RDKit          3D

 15 15  0  0  0  0  0  0  0  0999 V2000
   37.7680   30.5170   49.3410 C   0  0  0  0  0  0  0  0  0  0  0  0
   38.2390   31.7290   49.8420 C   0  0  0  0  0  0  0  0  0  0  0  0
   38.6270   32.7040   48.9180 C   0  0  0  0  0  0  0  0  0  0  0  0
   38.5270   32.4260   47.5730 N   0  0  0  0  0  0  0  0  0  0  0  0
   38.0610   31.2310   47.1590 C   0  0  0  0  0  0  0  0  0  0  0  0
   37.6900   30.2960   48.0220 N   0  0  0  0  0  0  0  0  0  0  0  0
   37.2890   29.3380   50.5890 S   0  0  0  0  0  0  0  0  0  0  0  0
   35.4980   29.3390   50.7320 C   0  0  0  0  0  0  0  0  0  0  0  0
   34.6850   28.4040   49.3960 S   0  0  0  0  0  0  0  0  0  0  0  0
   38.3032   31.9120   50.9248 H   0  0  0  0  0  0  0  0  0  0  0  0
   39.0063   33.6782   49.2602 H   0  0  0  0  0  0  0  0  0  0  0  0
   37.9869   31.0271   46.0806 H   0  0  0  0  0  0  0  0  0  0  0  0
   35.2218   28.8872   51.6962 H   0  0  0  0  0  0  0  0  0  0  0  0
   35.1597   30.3832   50.6601 H   0  0  0  0  0  0  0  0  0  0  0  0
   33.8598   27.4550   49.9395 H   0  0  0  0  0  0  0  0  0  0  0  0
  1  2  2  0
  1  7  1  0
  3  2  1  0
  4  3  2  0
  5  4  1  0
  5  6  2  0
  6  1  1  0
  7  8  1  0
  9  8  1  0
  2 10  1  0
  3 11  1  0
  5 12  1  0
  8 13  1  0
  8 14  1  0
  9 15  1  0
M  ISO  6  10  14  11  14  12  14  13   8  14   8  15  11
M  END
>  <minimizedAffinity>  (1) 
-3.38347507

>  <minimizedRMSD>  (1) 
1.83172262

$$$$
