
     RDKit          3D

 21 22  0  0  0  0  0  0  0  0999 V2000
   38.5060   30.8340   49.7880 Cl  0  0  0  0  0  0  0  0  0  0  0  0
   37.1430   30.3940   48.8260 C   0  0  0  0  0  0  0  0  0  0  0  0
   37.1390   30.6570   47.4720 C   0  0  0  0  0  0  0  0  0  0  0  0
   36.0820   30.3280   46.6620 C   0  0  0  0  0  0  0  0  0  0  0  0
   34.9650   29.7080   47.2000 C   0  0  0  0  0  0  0  0  0  0  0  0
   34.9210   29.4240   48.5480 C   0  0  0  0  0  0  0  0  0  0  0  0
   33.5730   28.6440   49.3610 Cl  0  0  0  0  0  0  0  0  0  0  0  0
   36.0080   29.7750   49.3120 C   0  0  0  0  0  0  0  0  0  0  0  0
   39.6500   33.1780   46.5630 C   0  0  0  0  0  0  0  0  0  0  0  0
   40.5170   32.4840   45.7190 C   0  0  0  0  0  0  0  0  0  0  0  0
   40.2120   31.1260   45.4750 C   0  0  0  0  0  0  0  0  0  0  0  0
   39.1220   30.5870   46.0580 N   0  0  0  0  0  0  0  0  0  0  0  0
   38.2970   31.3070   46.8790 C   0  0  0  0  0  0  0  0  0  0  0  0
   38.5780   32.6080   47.1220 N   0  0  0  0  0  0  0  0  0  0  0  0
   36.0280   29.4360   51.0890 S   0  0  0  0  0  0  0  0  0  0  0  0
   36.1207   30.5559   45.5866 H   0  0  0  0  0  0  0  0  0  0  0  0
   34.1159   29.4433   46.5527 H   0  0  0  0  0  0  0  0  0  0  0  0
   39.8568   34.2369   46.7771 H   0  0  0  0  0  0  0  0  0  0  0  0
   41.3941   32.9695   45.2661 H   0  0  0  0  0  0  0  0  0  0  0  0
   40.8535   30.5182   44.8199 H   0  0  0  0  0  0  0  0  0  0  0  0
   35.9583   30.6169   51.7800 H   0  0  0  0  0  0  0  0  0  0  0  0
  2  8  2  0
  2  1  1  0
  3  2  1  0
  4  5  1  0
  4  3  2  0
  5  6  2  0
  6  8  1  0
  6  7  1  0
  8 15  1  0
  9 14  2  0
 10  9  1  0
 11 10  2  0
 11 12  1  0
 12 13  2  0
 13 14  1  0
 13  3  1  0
  4 16  1  0
  5 17  1  0
  9 18  1  0
 10 19  1  0
 11 20  1  0
 15 21  1  0
M  ISO  6  16  14  17  14  18  14  19  14  20  14  21  11
M  END
>  <minimizedAffinity>  (1) 
-4.99408913

>  <minimizedRMSD>  (1) 
2.27508307

$$$$
