
     RDKit          3D

 28 30  0  0  0  0  0  0  0  0999 V2000
   38.4221   31.2999   48.2673 Br  0  0  0  0  0  0  0  0  0  0  0  0
   37.2239   30.7933   46.8618 C   0  0  0  0  0  0  0  0  0  0  0  0
   36.0367   30.1525   47.1615 C   0  0  0  0  0  0  0  0  0  0  0  0
   35.1970   29.8117   46.0997 C   0  0  0  0  0  0  0  0  0  0  0  0
   35.5632   30.1155   44.8058 C   0  0  0  0  0  0  0  0  0  0  0  0
   36.7577   30.7599   44.5055 C   0  0  0  0  0  0  0  0  0  0  0  0
   37.5908   31.0981   45.5570 C   0  0  0  0  0  0  0  0  0  0  0  0
   36.3730   29.0955   50.7661 C   0  0  0  0  0  0  0  0  0  0  0  0
   36.6737   29.3297   49.4180 C   0  0  0  0  0  0  0  0  0  0  0  0
   35.7504   29.8859   48.5677 C   0  0  0  0  0  0  0  0  0  0  0  0
   34.5207   30.2008   49.0950 N   0  0  0  0  0  0  0  0  0  0  0  0
   34.2369   29.9714   50.3973 C   0  0  0  0  0  0  0  0  0  0  0  0
   35.1419   29.4285   51.2259 N   0  0  0  0  0  0  0  0  0  0  0  0
   38.8530   31.7706   45.3020 C   0  0  0  0  0  0  0  0  0  0  0  0
   39.0236   33.0637   44.8930 C   0  0  0  0  0  0  0  0  0  0  0  0
   40.3228   33.3523   44.7563 N   0  0  0  0  0  0  0  0  0  0  0  0
   41.0029   32.2369   45.0793 C   0  0  0  0  0  0  0  0  0  0  0  0
   40.1217   31.2557   45.4168 N   0  0  0  0  0  0  0  0  0  0  0  0
   34.2713   29.3104   46.3498 H   0  0  0  0  0  0  0  0  0  0  0  0
   34.8975   29.8423   44.0006 H   0  0  0  0  0  0  0  0  0  0  0  0
   37.0679   31.0084   43.5090 H   0  0  0  0  0  0  0  0  0  0  0  0
   37.0740   28.6604   51.4659 H   0  0  0  0  0  0  0  0  0  0  0  0
   37.6550   29.0287   49.1255 H   0  0  0  0  0  0  0  0  0  0  0  0
   33.2393   30.2569   50.7069 H   0  0  0  0  0  0  0  0  0  0  0  0
   38.2080   33.7762   44.7004 H   0  0  0  0  0  0  0  0  0  0  0  0
   40.7903   34.2316   44.4656 H   0  0  0  0  0  0  0  0  0  0  0  0
   42.7744   32.0326   45.0792 S   0  0  0  0  0  0  0  0  0  0  0  0
   43.1647   31.3628   43.9044 H   0  0  0  0  0  0  0  0  0  0  0  0
  2  3  2  0
  2  1  1  0
  3 10  1  0
  4  3  1  0
  5  4  2  0
  6  5  1  0
  6  7  2  0
  7  2  1  0
  8 13  2  0
  9  8  1  0
 10 11  1  0
 10  9  2  0
 11 12  2  0
 12 13  1  0
 14 18  1  0
 14  7  1  0
 15 14  2  0
 16 15  1  0
 16 17  1  0
 17 18  2  0
  4 19  1  0
  5 20  1  0
  6 21  1  0
  8 22  1  0
  9 23  1  0
 12 24  1  0
 15 25  1  0
 16 26  1  0
 27 28  1  0
 17 27  1  0
M  ISO  8  19  14  20  14  21  14  22  14  23  14  24  14  25  14  26   9
M  ISO  1  28  11
M  END
>  <DihAtoms>  (1) 
15,16,26,27

>  <DihDeg>  (1) 
34.56209037251596

$$$$
