
     RDKit          3D

 20 21  0  0  0  0  0  0  0  0999 V2000
   38.0950   31.1720   48.1380 C   0  0  0  0  0  0  0  0  0  0  0  0
   38.7420   32.3980   48.2200 C   0  0  0  0  0  0  0  0  0  0  0  0
   39.3580   33.0180   47.1590 C   0  0  0  0  0  0  0  0  0  0  0  0
   39.3500   32.4160   45.9260 C   0  0  0  0  0  0  0  0  0  0  0  0
   38.7070   31.2050   45.8610 C   0  0  0  0  0  0  0  0  0  0  0  0
   38.1090   30.6140   46.9110 N   0  0  0  0  0  0  0  0  0  0  0  0
   37.8330   30.7620   50.5980 C   0  0  0  0  0  0  0  0  0  0  0  0
   37.4530   30.5350   49.2650 C   0  0  0  0  0  0  0  0  0  0  0  0
   36.4130   29.6560   49.0240 C   0  0  0  0  0  0  0  0  0  0  0  0
   35.8020   29.0500   50.0850 N   0  0  0  0  0  0  0  0  0  0  0  0
   36.1940   29.2920   51.3560 C   0  0  0  0  0  0  0  0  0  0  0  0
   37.2090   30.1470   51.6220 N   0  0  0  0  0  0  0  0  0  0  0  0
   40.1440   33.2140   44.5540 S   0  0  0  0  0  0  0  0  0  0  0  0
   38.7629   32.9052   49.1959 H   0  0  0  0  0  0  0  0  0  0  0  0
   39.8539   33.9900   47.2975 H   0  0  0  0  0  0  0  0  0  0  0  0
   38.6790   30.6863   44.8914 H   0  0  0  0  0  0  0  0  0  0  0  0
   38.6584   31.4573   50.8109 H   0  0  0  0  0  0  0  0  0  0  0  0
   36.0833   29.4483   47.9953 H   0  0  0  0  0  0  0  0  0  0  0  0
   35.6802   28.7863   52.1868 H   0  0  0  0  0  0  0  0  0  0  0  0
   41.0526   34.1272   45.0203 H   0  0  0  0  0  0  0  0  0  0  0  0
  1  2  2  0
  1  8  1  0
  3  2  1  0
  4  3  2  0
  5  4  1  0
  5  6  2  0
  6  1  1  0
  7 12  2  0
  8  7  1  0
  9  8  2  0
  9 10  1  0
 10 11  2  0
 11 12  1  0
 13  4  1  0
  2 14  1  0
  3 15  1  0
  5 16  1  0
  7 17  1  0
  9 18  1  0
 11 19  1  0
 13 20  1  0
M  ISO  7  14  14  15  14  16  14  17  14  18  14  19  14  20  11
M  END
>  <minimizedAffinity>  (1) 
-4.73259974

>  <minimizedRMSD>  (1) 
1.58139169

$$$$
