
     RDKit          3D

 33 35  0  0  1  0  0  0  0  0999 V2000
   38.9910   32.4550   47.6610 C   0  0  2  0  0  0  0  0  0  0  0  0
   37.9840   32.6490   48.8340 C   0  0  2  0  0  0  0  0  0  0  0  0
   38.8040   33.3740   49.7930 C   0  0  0  0  0  0  0  0  0  0  0  0
   39.6240   34.2400   49.0740 O   0  0  0  0  0  0  0  0  0  0  0  0
   39.6160   33.8690   47.7760 C   0  0  0  0  0  0  0  0  0  0  0  0
   37.3460   29.3850   50.6020 C   0  0  0  0  0  0  0  0  0  0  0  0
   37.9900   30.6050   50.2530 C   0  0  0  0  0  0  0  0  0  0  0  0
   37.3810   31.4010   49.2460 C   0  0  0  0  0  0  0  0  0  0  0  0
   36.2120   30.9660   48.6590 N   0  0  0  0  0  0  0  0  0  0  0  0
   35.6480   29.8110   49.0220 C   0  0  0  0  0  0  0  0  0  0  0  0
   36.1920   29.0180   49.9790 N   0  0  0  0  0  0  0  0  0  0  0  0
   38.3620   32.3440   46.4650 O   0  0  0  0  0  0  0  0  0  0  0  0
   40.9310   31.9050   44.8180 Cl  0  0  0  0  0  0  0  0  0  0  0  0
   39.3780   31.1360   44.5190 C   0  0  0  0  0  0  0  0  0  0  0  0
   38.3830   31.5090   45.4130 C   0  0  0  0  0  0  0  0  0  0  0  0
   37.1620   30.9020   45.1800 C   0  0  0  0  0  0  0  0  0  0  0  0
   36.9590   30.0070   44.1480 C   0  0  0  0  0  0  0  0  0  0  0  0
   37.9980   29.6900   43.3030 C   0  0  0  0  0  0  0  0  0  0  0  0
   39.2420   30.2560   43.4760 C   0  0  0  0  0  0  0  0  0  0  0  0
   40.6730   29.9340   42.4570 S   0  0  0  0  0  0  0  0  0  0  0  0
   39.6449   31.5720   47.7119 H   0  0  0  0  0  0  0  0  0  0  0  0
   37.0671   33.2150   48.6130 H   0  0  0  0  0  0  0  0  0  0  0  0
   38.1621   33.9471   50.4782 H   0  0  0  0  0  0  0  0  0  0  0  0
   39.4083   32.6761   50.3910 H   0  0  0  0  0  0  0  0  0  0  0  0
   40.6464   33.8496   47.3913 H   0  0  0  0  0  0  0  0  0  0  0  0
   39.0253   34.5863   47.1873 H   0  0  0  0  0  0  0  0  0  0  0  0
   37.7813   28.7368   51.3768 H   0  0  0  0  0  0  0  0  0  0  0  0
   38.9229   30.9195   50.7437 H   0  0  0  0  0  0  0  0  0  0  0  0
   34.7161   29.4938   48.5312 H   0  0  0  0  0  0  0  0  0  0  0  0
   36.3183   31.1420   45.8438 H   0  0  0  0  0  0  0  0  0  0  0  0
   35.9697   29.5488   44.0018 H   0  0  0  0  0  0  0  0  0  0  0  0
   37.8335   28.9775   42.4812 H   0  0  0  0  0  0  0  0  0  0  0  0
   41.7579   29.6899   43.2572 H   0  0  0  0  0  0  0  0  0  0  0  0
  1  5  1  0
  1  2  1  0
  2  8  1  0
  2  3  1  0
  4  3  1  0
  5  4  1  0
  7  6  2  0
  8  7  1  0
  9 10  1  0
  9  8  2  0
 10 11  2  0
 11  6  1  0
 12  1  1  0
 14 13  1  0
 14 15  2  0
 15 12  1  0
 16 15  1  0
 17 16  2  0
 18 19  2  0
 18 17  1  0
 19 14  1  0
 20 19  1  0
  1 21  1  1
  2 22  1  6
  3 23  1  0
  3 24  1  0
  5 25  1  0
  5 26  1  0
  6 27  1  0
  7 28  1  0
 10 29  1  0
 16 30  1  0
 17 31  1  0
 18 32  1  0
 20 33  1  0
M  ISO  8  21  13  22  13  23  13  24  13  25  13  26  13  27  14  28  14
M  ISO  5  29  14  30  14  31  14  32  14  33  11
M  END
>  <minimizedAffinity>  (1) 
-5.68044186

>  <minimizedRMSD>  (1) 
0.493942589

$$$$
