
     RDKit          3D

 33 35  0  0  0  0  0  0  0  0999 V2000
   38.9582   32.3646   47.7954 C   0  0  2  0  0  0  0  0  0  0  0  0
   38.0079   32.7448   48.9686 C   0  0  2  0  0  0  0  0  0  0  0  0
   38.8930   33.5469   49.8011 C   0  0  0  0  0  0  0  0  0  0  0  0
   39.7150   34.2809   48.9508 O   0  0  0  0  0  0  0  0  0  0  0  0
   39.6400   33.7542   47.7099 C   0  0  0  0  0  0  0  0  0  0  0  0
   37.3614   29.6969   51.0857 C   0  0  0  0  0  0  0  0  0  0  0  0
   38.0393   30.8317   50.5609 C   0  0  0  0  0  0  0  0  0  0  0  0
   37.3751   31.5843   49.5550 C   0  0  0  0  0  0  0  0  0  0  0  0
   36.1216   31.1891   49.1368 N   0  0  0  0  0  0  0  0  0  0  0  0
   35.5283   30.1145   49.6624 C   0  0  0  0  0  0  0  0  0  0  0  0
   36.1225   29.3658   50.6238 N   0  0  0  0  0  0  0  0  0  0  0  0
   38.2770   32.1344   46.6455 O   0  0  0  0  0  0  0  0  0  0  0  0
   40.9455   31.2640   45.3713 Cl  0  0  0  0  0  0  0  0  0  0  0  0
   39.3510   30.6941   44.8987 C   0  0  0  0  0  0  0  0  0  0  0  0
   38.3126   31.2457   45.6378 C   0  0  0  0  0  0  0  0  0  0  0  0
   37.0585   30.7958   45.2686 C   0  0  0  0  0  0  0  0  0  0  0  0
   36.8636   29.8794   44.2538 C   0  0  0  0  0  0  0  0  0  0  0  0
   37.9471   29.3788   43.5670 C   0  0  0  0  0  0  0  0  0  0  0  0
   39.2261   29.7828   43.8818 C   0  0  0  0  0  0  0  0  0  0  0  0
   39.6869   31.6138   48.0879 H   0  0  0  0  0  0  0  0  0  0  0  0
   37.2224   33.3599   48.4743 H   0  0  0  0  0  0  0  0  0  0  0  0
   38.2956   34.3099   50.3823 H   0  0  0  0  0  0  0  0  0  0  0  0
   39.4900   33.0145   50.5495 H   0  0  0  0  0  0  0  0  0  0  0  0
   40.6969   33.5133   47.3936 H   0  0  0  0  0  0  0  0  0  0  0  0
   39.2106   34.3621   46.9151 H   0  0  0  0  0  0  0  0  0  0  0  0
   37.8621   29.1235   51.8490 H   0  0  0  0  0  0  0  0  0  0  0  0
   39.0174   31.0860   50.9298 H   0  0  0  0  0  0  0  0  0  0  0  0
   34.5518   29.8881   49.2702 H   0  0  0  0  0  0  0  0  0  0  0  0
   36.1335   31.1091   45.7259 H   0  0  0  0  0  0  0  0  0  0  0  0
   35.8914   29.5147   43.9494 H   0  0  0  0  0  0  0  0  0  0  0  0
   37.8466   28.6602   42.7654 H   0  0  0  0  0  0  0  0  0  0  0  0
   40.7147   29.2145   43.0736 S   0  0  0  0  0  0  0  0  0  0  0  0
   41.2588   28.1092   43.7936 H   0  0  0  0  0  0  0  0  0  0  0  0
  1  2  1  0
  2  8  1  0
  2  3  1  0
  4  3  1  0
  5  1  1  0
  5  4  1  0
  7  6  2  0
  8  7  1  0
  9  8  2  0
  9 10  1  0
 10 11  2  0
 11  6  1  0
 12  1  1  0
 14 13  1  0
 14 15  2  0
 15 12  1  0
 16 15  1  0
 17 16  2  0
 18 19  2  0
 18 17  1  0
 19 14  1  0
  1 20  1  1
  2 21  1  6
  3 22  1  0
  3 23  1  0
  5 24  1  0
  5 25  1  0
  6 26  1  0
  7 27  1  0
 10 28  1  0
 16 29  1  0
 17 30  1  0
 18 31  1  0
 32 33  1  0
 19 32  1  0
M  ISO  8  20  13  21  13  22  13  23  13  24  13  25  13  26  14  27  14
M  ISO  5  28  14  29  14  30  14  31  14  33  11
M  END
>  <DihAtoms>  (1) 
17,18,31,32

>  <DihDeg>  (1) 
101.39446263586235

$$$$
