
     RDKit          3D

 30 31  0  0  1  0  0  0  0  0999 V2000
   35.2950   28.5980   50.0340 O   0  0  0  0  0  0  0  0  0  0  0  0
   35.0970   28.9870   48.8760 C   0  0  0  0  0  0  0  0  0  0  0  0
   35.7810   30.1390   48.3310 C   0  0  2  0  0  0  0  0  0  0  0  0
   35.3320   30.0900   46.8440 C   0  0  0  0  0  0  0  0  0  0  0  0
   34.0270   29.3640   46.8930 C   0  0  0  0  0  0  0  0  0  0  0  0
   34.1940   28.3710   47.9470 N   0  0  0  0  0  0  0  0  0  0  0  0
   33.5740   27.0560   48.0190 C   0  0  0  0  0  0  0  0  0  0  0  0
   31.8060   27.3030   48.2970 S   0  0  0  0  0  0  0  0  0  0  0  0
   37.2020   30.0360   48.3250 O   0  0  0  0  0  0  0  0  0  0  0  0
   37.9370   31.2190   48.2830 C   0  0  0  0  0  0  0  0  0  0  0  0
   38.0980   31.9000   49.4740 C   0  0  0  0  0  0  0  0  0  0  0  0
   38.8270   33.0810   49.4590 C   0  0  0  0  0  0  0  0  0  0  0  0
   39.3480   33.5150   48.2790 N   0  0  0  0  0  0  0  0  0  0  0  0
   39.1810   32.8400   47.1300 C   0  0  0  0  0  0  0  0  0  0  0  0
   38.4850   31.7130   47.1520 N   0  0  0  0  0  0  0  0  0  0  0  0
   40.6480   32.4040   45.3210 C   0  0  0  0  0  0  0  0  0  0  0  0
   40.9990   31.2710   45.7440 O   0  0  0  0  0  0  0  0  0  0  0  0
   39.7360   33.3210   45.9080 N   0  0  0  0  0  0  0  0  0  0  0  0
   35.5452   31.0403   48.9159 H   0  0  0  0  0  0  0  0  0  0  0  0
   36.0630   29.5423   46.2312 H   0  0  0  0  0  0  0  0  0  0  0  0
   35.2480   31.0886   46.3905 H   0  0  0  0  0  0  0  0  0  0  0  0
   33.2075   30.0556   47.1382 H   0  0  0  0  0  0  0  0  0  0  0  0
   33.7699   28.9054   45.9268 H   0  0  0  0  0  0  0  0  0  0  0  0
   33.7335   26.5135   47.0755 H   0  0  0  0  0  0  0  0  0  0  0  0
   34.0152   26.4640   48.8344 H   0  0  0  0  0  0  0  0  0  0  0  0
   31.5560   27.3379   49.6435 H   0  0  0  0  0  0  0  0  0  0  0  0
   37.6608   31.5171   50.4079 H   0  0  0  0  0  0  0  0  0  0  0  0
   38.9809   33.6558   50.3842 H   0  0  0  0  0  0  0  0  0  0  0  0
   41.1072   32.7250   44.3744 H   0  0  0  0  0  0  0  0  0  0  0  0
   39.5009   34.2350   45.4954 H   0  0  0  0  0  0  0  0  0  0  0  0
  2  1  2  0
  3  2  1  0
  4  5  1  0
  4  3  1  0
  5  6  1  0
  6  7  1  0
  6  2  1  0
  7  8  1  0
  9  3  1  0
 10  9  1  0
 10 11  2  0
 12 11  1  0
 13 12  2  0
 14 15  2  0
 14 13  1  0
 15 10  1  0
 16 17  2  0
 16 18  1  0
 18 14  1  0
  3 19  1  1
  4 20  1  0
  4 21  1  0
  5 22  1  0
  5 23  1  0
  7 24  1  0
  7 25  1  0
  8 26  1  0
 11 27  1  0
 12 28  1  0
 16 29  1  0
 18 30  1  0
M  ISO  8  19  13  20  13  21  13  22  13  23  13  24   8  25   8  26  11
M  ISO  3  27  14  28  14  29   6
M  END
>  <minimizedAffinity>  (1) 
-5.35039425

>  <minimizedRMSD>  (1) 
0.247941807

$$$$
