
     RDKit          3D

 28 29  0  0  0  0  0  0  0  0999 V2000
   37.2613   30.1772   51.4448 C   0  0  0  0  0  0  0  0  0  0  0  0
   38.0925   30.7529   50.4478 C   0  0  0  0  0  0  0  0  0  0  0  0
   37.8017   30.4929   49.0907 C   0  0  0  0  0  0  0  0  0  0  0  0
   36.7406   29.7049   48.8216 N   0  0  0  0  0  0  0  0  0  0  0  0
   35.9745   29.1757   49.7818 C   0  0  0  0  0  0  0  0  0  0  0  0
   36.2167   29.3978   51.0696 N   0  0  0  0  0  0  0  0  0  0  0  0
   34.8251   28.3199   49.5133 C   0  0  0  0  0  0  0  0  0  0  0  0
   33.6377   28.7116   49.5493 O   0  0  0  0  0  0  0  0  0  0  0  0
   37.5490   30.4230   52.4575 H   0  0  0  0  0  0  0  0  0  0  0  0
   38.9360   31.3807   50.7027 H   0  0  0  0  0  0  0  0  0  0  0  0
   38.4303   30.9280   48.3253 H   0  0  0  0  0  0  0  0  0  0  0  0
   35.1072   26.9022   49.1794 C   0  0  0  0  0  0  0  0  0  0  0  0
   34.5938   26.5195   47.8178 C   0  0  0  0  0  0  0  0  0  0  0  0
   34.5315   25.0147   47.7608 C   0  0  0  0  0  0  0  0  0  0  0  0
   35.6872   24.3858   48.4612 C   0  0  0  0  0  0  0  0  0  0  0  0
   36.8844   25.2800   48.5938 C   0  0  0  0  0  0  0  0  0  0  0  0
   36.5980   26.6153   49.1774 C   0  0  0  0  0  0  0  0  0  0  0  0
   34.6590   26.1910   49.9014 H   0  0  0  0  0  0  0  0  0  0  0  0
   33.6312   26.9950   47.5748 H   0  0  0  0  0  0  0  0  0  0  0  0
   35.3931   26.8129   47.0780 H   0  0  0  0  0  0  0  0  0  0  0  0
   34.3700   24.6284   46.7377 H   0  0  0  0  0  0  0  0  0  0  0  0
   33.6214   24.7210   48.3500 H   0  0  0  0  0  0  0  0  0  0  0  0
   35.4408   23.9617   49.4485 H   0  0  0  0  0  0  0  0  0  0  0  0
   36.0257   23.5189   47.8314 H   0  0  0  0  0  0  0  0  0  0  0  0
   37.5757   24.7439   49.3081 H   0  0  0  0  0  0  0  0  0  0  0  0
   37.4339   25.2889   47.6262 H   0  0  0  0  0  0  0  0  0  0  0  0
   36.9564   26.7222   50.2228 H   0  0  0  0  0  0  0  0  0  0  0  0
   37.1118   27.3822   48.5380 H   0  0  0  0  0  0  0  0  0  0  0  0
  2  1  2  0
  3  2  1  0
  4  3  2  0
  4  5  1  0
  5  6  2  0
  6  1  1  0
  7  8  2  0
  7  5  1  0
  1  9  1  0
  2 10  1  0
  3 11  1  0
 12 13  1  0
 13 14  1  0
 14 15  1  0
 15 16  1  0
 16 17  1  0
 17 12  1  0
 12 18  1  0
 13 19  1  0
 13 20  1  0
 14 21  1  0
 14 22  1  0
 15 23  1  0
 15 24  1  0
 16 25  1  0
 16 26  1  0
 17 27  1  0
 17 28  1  0
  7 12  1  0
M  ISO  3   9  14  10  14  11  14
M  END
>  <DihAtoms>  (1) 
7,6,11,12

>  <DihDeg>  (1) 
119.99403310228196

$$$$
