
     RDKit          3D

 28 29  0  0  0  0  0  0  0  0999 V2000
   37.2613   30.1772   51.4448 C   0  0  0  0  0  0  0  0  0  0  0  0
   38.0925   30.7529   50.4478 C   0  0  0  0  0  0  0  0  0  0  0  0
   37.8017   30.4929   49.0907 C   0  0  0  0  0  0  0  0  0  0  0  0
   36.7406   29.7049   48.8216 N   0  0  0  0  0  0  0  0  0  0  0  0
   35.9745   29.1757   49.7818 C   0  0  0  0  0  0  0  0  0  0  0  0
   36.2167   29.3978   51.0696 N   0  0  0  0  0  0  0  0  0  0  0  0
   34.8251   28.3199   49.5133 C   0  0  0  0  0  0  0  0  0  0  0  0
   33.6377   28.7116   49.5493 O   0  0  0  0  0  0  0  0  0  0  0  0
   37.5490   30.4230   52.4575 H   0  0  0  0  0  0  0  0  0  0  0  0
   38.9360   31.3807   50.7027 H   0  0  0  0  0  0  0  0  0  0  0  0
   38.4303   30.9280   48.3253 H   0  0  0  0  0  0  0  0  0  0  0  0
   35.1072   26.9022   49.1794 C   0  0  0  0  0  0  0  0  0  0  0  0
   35.9574   26.7606   47.9461 C   0  0  0  0  0  0  0  0  0  0  0  0
   35.8170   25.3422   47.4563 C   0  0  0  0  0  0  0  0  0  0  0  0
   35.7556   24.3703   48.5847 C   0  0  0  0  0  0  0  0  0  0  0  0
   36.3562   24.8760   49.8630 C   0  0  0  0  0  0  0  0  0  0  0  0
   35.8513   26.2018   50.3021 C   0  0  0  0  0  0  0  0  0  0  0  0
   34.1880   26.3087   49.0037 H   0  0  0  0  0  0  0  0  0  0  0  0
   35.7146   27.5045   47.1718 H   0  0  0  0  0  0  0  0  0  0  0  0
   37.0301   26.8551   48.2818 H   0  0  0  0  0  0  0  0  0  0  0  0
   36.5618   25.0773   46.6835 H   0  0  0  0  0  0  0  0  0  0  0  0
   34.8147   25.2877   46.9521 H   0  0  0  0  0  0  0  0  0  0  0  0
   34.7456   23.9786   48.7892 H   0  0  0  0  0  0  0  0  0  0  0  0
   36.3754   23.4803   48.2908 H   0  0  0  0  0  0  0  0  0  0  0  0
   36.0521   24.1248   50.6496 H   0  0  0  0  0  0  0  0  0  0  0  0
   37.4633   24.7827   49.8001 H   0  0  0  0  0  0  0  0  0  0  0  0
   35.1605   26.1419   51.1693 H   0  0  0  0  0  0  0  0  0  0  0  0
   36.7401   26.8251   50.5893 H   0  0  0  0  0  0  0  0  0  0  0  0
  2  1  2  0
  3  2  1  0
  4  3  2  0
  4  5  1  0
  5  6  2  0
  6  1  1  0
  7  8  2  0
  7  5  1  0
  1  9  1  0
  2 10  1  0
  3 11  1  0
 12 13  1  0
 13 14  1  0
 14 15  1  0
 15 16  1  0
 16 17  1  0
 17 12  1  0
 12 18  1  0
 13 19  1  0
 13 20  1  0
 14 21  1  0
 14 22  1  0
 15 23  1  0
 15 24  1  0
 16 25  1  0
 16 26  1  0
 17 27  1  0
 17 28  1  0
  7 12  1  0
M  ISO  3   9  14  10  14  11  14
M  END
>  <DihAtoms>  (1) 
7,6,11,12

>  <DihDeg>  (1) 
119.99403310228196

$$$$
