
     RDKit          3D

 28 29  0  0  0  0  0  0  0  0999 V2000
   37.2613   30.1772   51.4448 C   0  0  0  0  0  0  0  0  0  0  0  0
   38.0925   30.7529   50.4478 C   0  0  0  0  0  0  0  0  0  0  0  0
   37.8017   30.4929   49.0907 C   0  0  0  0  0  0  0  0  0  0  0  0
   36.7406   29.7049   48.8216 N   0  0  0  0  0  0  0  0  0  0  0  0
   35.9745   29.1757   49.7818 C   0  0  0  0  0  0  0  0  0  0  0  0
   36.2167   29.3978   51.0696 N   0  0  0  0  0  0  0  0  0  0  0  0
   34.8251   28.3199   49.5133 C   0  0  0  0  0  0  0  0  0  0  0  0
   33.6377   28.7116   49.5493 O   0  0  0  0  0  0  0  0  0  0  0  0
   37.5490   30.4230   52.4575 H   0  0  0  0  0  0  0  0  0  0  0  0
   38.9360   31.3807   50.7027 H   0  0  0  0  0  0  0  0  0  0  0  0
   38.4303   30.9280   48.3253 H   0  0  0  0  0  0  0  0  0  0  0  0
   35.1072   26.9022   49.1794 C   0  0  0  0  0  0  0  0  0  0  0  0
   36.1324   26.2894   50.0945 C   0  0  0  0  0  0  0  0  0  0  0  0
   36.6569   25.0460   49.4235 C   0  0  0  0  0  0  0  0  0  0  0  0
   35.5786   24.3059   48.7084 C   0  0  0  0  0  0  0  0  0  0  0  0
   34.1960   24.5997   49.2110 C   0  0  0  0  0  0  0  0  0  0  0  0
   33.8597   26.0441   49.2890 C   0  0  0  0  0  0  0  0  0  0  0  0
   35.4816   26.7683   48.1450 H   0  0  0  0  0  0  0  0  0  0  0  0
   36.9321   26.9929   50.3725 H   0  0  0  0  0  0  0  0  0  0  0  0
   35.5746   25.9242   51.0044 H   0  0  0  0  0  0  0  0  0  0  0  0
   37.2560   24.4105   50.1012 H   0  0  0  0  0  0  0  0  0  0  0  0
   37.3638   25.4007   48.6258 H   0  0  0  0  0  0  0  0  0  0  0  0
   35.5986   24.4254   47.6127 H   0  0  0  0  0  0  0  0  0  0  0  0
   35.7436   23.2111   48.9001 H   0  0  0  0  0  0  0  0  0  0  0  0
   33.5009   24.1347   48.4520 H   0  0  0  0  0  0  0  0  0  0  0  0
   34.0224   24.0172   50.1432 H   0  0  0  0  0  0  0  0  0  0  0  0
   33.1604   26.3744   48.4922 H   0  0  0  0  0  0  0  0  0  0  0  0
   33.3825   26.2278   50.2887 H   0  0  0  0  0  0  0  0  0  0  0  0
  2  1  2  0
  3  2  1  0
  4  3  2  0
  4  5  1  0
  5  6  2  0
  6  1  1  0
  7  8  2  0
  7  5  1  0
  1  9  1  0
  2 10  1  0
  3 11  1  0
 12 13  1  0
 13 14  1  0
 14 15  1  0
 15 16  1  0
 16 17  1  0
 17 12  1  0
 12 18  1  0
 13 19  1  0
 13 20  1  0
 14 21  1  0
 14 22  1  0
 15 23  1  0
 15 24  1  0
 16 25  1  0
 16 26  1  0
 17 27  1  0
 17 28  1  0
  7 12  1  0
M  ISO  3   9  14  10  14  11  14
M  END
>  <DihAtoms>  (1) 
7,6,11,12

>  <DihDeg>  (1) 
119.99403310228196

$$$$
