
     RDKit          3D

 28 29  0  0  0  0  0  0  0  0999 V2000
   37.2613   30.1772   51.4448 C   0  0  0  0  0  0  0  0  0  0  0  0
   38.0925   30.7529   50.4478 C   0  0  0  0  0  0  0  0  0  0  0  0
   37.8017   30.4929   49.0907 C   0  0  0  0  0  0  0  0  0  0  0  0
   36.7406   29.7049   48.8216 N   0  0  0  0  0  0  0  0  0  0  0  0
   35.9745   29.1757   49.7818 C   0  0  0  0  0  0  0  0  0  0  0  0
   36.2167   29.3978   51.0696 N   0  0  0  0  0  0  0  0  0  0  0  0
   34.8251   28.3199   49.5133 C   0  0  0  0  0  0  0  0  0  0  0  0
   33.6377   28.7116   49.5493 O   0  0  0  0  0  0  0  0  0  0  0  0
   37.5490   30.4230   52.4575 H   0  0  0  0  0  0  0  0  0  0  0  0
   38.9360   31.3807   50.7027 H   0  0  0  0  0  0  0  0  0  0  0  0
   38.4303   30.9280   48.3253 H   0  0  0  0  0  0  0  0  0  0  0  0
   35.1072   26.9022   49.1794 C   0  0  0  0  0  0  0  0  0  0  0  0
   36.5159   26.5003   49.5230 C   0  0  0  0  0  0  0  0  0  0  0  0
   36.8260   25.2345   48.7661 C   0  0  0  0  0  0  0  0  0  0  0  0
   35.6508   24.3194   48.7124 C   0  0  0  0  0  0  0  0  0  0  0  0
   34.6437   24.5500   49.8002 C   0  0  0  0  0  0  0  0  0  0  0  0
   34.1899   25.9576   49.9351 C   0  0  0  0  0  0  0  0  0  0  0  0
   34.9633   26.6748   48.1044 H   0  0  0  0  0  0  0  0  0  0  0  0
   37.2473   27.3006   49.3323 H   0  0  0  0  0  0  0  0  0  0  0  0
   36.5096   26.2029   50.6111 H   0  0  0  0  0  0  0  0  0  0  0  0
   37.7547   24.7432   49.1100 H   0  0  0  0  0  0  0  0  0  0  0  0
   37.0166   25.5486   47.7046 H   0  0  0  0  0  0  0  0  0  0  0  0
   35.1346   24.3035   47.7385 H   0  0  0  0  0  0  0  0  0  0  0  0
   36.0348   23.2755   48.8724 H   0  0  0  0  0  0  0  0  0  0  0  0
   33.7437   23.9351   49.5046 H   0  0  0  0  0  0  0  0  0  0  0  0
   35.0123   24.0745   50.7363 H   0  0  0  0  0  0  0  0  0  0  0  0
   33.1597   26.1238   49.5559 H   0  0  0  0  0  0  0  0  0  0  0  0
   34.2212   26.2210   51.0263 H   0  0  0  0  0  0  0  0  0  0  0  0
  2  1  2  0
  3  2  1  0
  4  3  2  0
  4  5  1  0
  5  6  2  0
  6  1  1  0
  7  8  2  0
  7  5  1  0
  1  9  1  0
  2 10  1  0
  3 11  1  0
 12 13  1  0
 13 14  1  0
 14 15  1  0
 15 16  1  0
 16 17  1  0
 17 12  1  0
 12 18  1  0
 13 19  1  0
 13 20  1  0
 14 21  1  0
 14 22  1  0
 15 23  1  0
 15 24  1  0
 16 25  1  0
 16 26  1  0
 17 27  1  0
 17 28  1  0
  7 12  1  0
M  ISO  3   9  14  10  14  11  14
M  END
>  <DihAtoms>  (1) 
7,6,11,12

>  <DihDeg>  (1) 
119.99403310228196

$$$$
