
     RDKit          3D

 45 47  0  0  0  0  0  0  0  0999 V2000
   38.1647   31.2423   44.9280 C   0  0  0  0  0  0  0  0  0  0  0  0
   37.3495   30.9341   45.9708 C   0  0  0  0  0  0  0  0  0  0  0  0
   36.1144   30.3408   45.7310 C   0  0  0  0  0  0  0  0  0  0  0  0
   35.6727   30.0497   44.4529 C   0  0  0  0  0  0  0  0  0  0  0  0
   36.4660   30.3504   43.3843 C   0  0  0  0  0  0  0  0  0  0  0  0
   37.6733   30.9307   43.6537 C   0  0  0  0  0  0  0  0  0  0  0  0
   38.6825   32.7809   48.8586 C   0  0  0  0  0  0  0  0  0  0  0  0
   38.3131   32.4425   47.5668 C   0  0  0  0  0  0  0  0  0  0  0  0
   37.7043   31.2464   47.3125 C   0  0  0  0  0  0  0  0  0  0  0  0
   37.4816   30.4277   48.3760 N   0  0  0  0  0  0  0  0  0  0  0  0
   37.8333   30.7528   49.6257 C   0  0  0  0  0  0  0  0  0  0  0  0
   38.4324   31.9244   49.8560 N   0  0  0  0  0  0  0  0  0  0  0  0
   37.4646   29.7911   50.6970 C   0  0  0  0  0  0  0  0  0  0  0  0
   37.7158   30.2965   51.9566 F   0  0  0  0  0  0  0  0  0  0  0  0
   36.0243   29.6425   50.7074 F   0  0  0  0  0  0  0  0  0  0  0  0
   37.8960   28.5565   50.5740 F   0  0  0  0  0  0  0  0  0  0  0  0
   39.7282   31.9362   45.0998 S   0  0  0  0  0  0  0  0  0  0  0  0
   39.6878   33.4034   44.8892 O   0  0  0  0  0  0  0  0  0  0  0  0
   40.2736   31.5851   43.7319 O   0  0  0  0  0  0  0  0  0  0  0  0
   41.1180   31.2240   45.7368 C   0  0  0  0  0  0  0  0  0  0  0  0
   35.4778   30.1003   46.5958 H   0  0  0  0  0  0  0  0  0  0  0  0
   34.7021   29.5895   44.3868 H   0  0  0  0  0  0  0  0  0  0  0  0
   36.0694   30.1039   42.4326 H   0  0  0  0  0  0  0  0  0  0  0  0
   38.2130   31.1259   42.7169 H   0  0  0  0  0  0  0  0  0  0  0  0
   39.1648   33.6630   49.2322 H   0  0  0  0  0  0  0  0  0  0  0  0
   38.5843   33.2925   46.9893 H   0  0  0  0  0  0  0  0  0  0  0  0
   41.2201   30.1459   45.5047 H   0  0  0  0  0  0  0  0  0  0  0  0
   40.8912   31.1254   46.8744 H   0  0  0  0  0  0  0  0  0  0  0  0
   42.3787   31.9909   45.7655 C   0  0  0  0  0  0  0  0  0  0  0  0
   41.9454   33.4533   45.9056 C   0  0  0  0  0  0  0  0  0  0  0  0
   43.0673   34.3979   45.7067 C   0  0  0  0  0  0  0  0  0  0  0  0
   43.8521   34.1238   44.4438 C   0  0  0  0  0  0  0  0  0  0  0  0
   44.3673   32.7260   44.4158 C   0  0  0  0  0  0  0  0  0  0  0  0
   43.1633   31.7799   44.4955 C   0  0  0  0  0  0  0  0  0  0  0  0
   43.0223   31.6696   46.6094 H   0  0  0  0  0  0  0  0  0  0  0  0
   41.1510   33.6145   45.1445 H   0  0  0  0  0  0  0  0  0  0  0  0
   41.5254   33.5616   46.9130 H   0  0  0  0  0  0  0  0  0  0  0  0
   43.6948   34.5230   46.6068 H   0  0  0  0  0  0  0  0  0  0  0  0
   42.6049   35.4139   45.5395 H   0  0  0  0  0  0  0  0  0  0  0  0
   44.6904   34.8553   44.4053 H   0  0  0  0  0  0  0  0  0  0  0  0
   43.2023   34.3075   43.5834 H   0  0  0  0  0  0  0  0  0  0  0  0
   44.8636   32.5620   43.4575 H   0  0  0  0  0  0  0  0  0  0  0  0
   45.0278   32.4866   45.2588 H   0  0  0  0  0  0  0  0  0  0  0  0
   42.5550   31.8327   43.5927 H   0  0  0  0  0  0  0  0  0  0  0  0
   43.6277   30.7742   44.5547 H   0  0  0  0  0  0  0  0  0  0  0  0
  1 17  1  0
  1  2  1  0
  2  9  1  0
  3  2  2  0
  4  3  1  0
  5  6  1  0
  5  4  2  0
  6  1  2  0
  7 12  2  0
  8  7  1  0
  9  8  2  0
  9 10  1  0
 10 11  2  0
 11 12  1  0
 11 13  1  0
 13 15  1  0
 13 14  1  0
 16 13  1  0
 17 20  1  0
 18 17  2  0
 19 17  2  0
  3 21  1  0
  4 22  1  0
  5 23  1  0
  6 24  1  0
  7 25  1  0
  8 26  1  0
 20 27  1  0
 20 28  1  0
 29 30  1  0
 30 31  1  0
 31 32  1  0
 32 33  1  0
 33 34  1  0
 34 29  1  0
 29 35  1  0
 30 36  1  0
 30 37  1  0
 31 38  1  0
 31 39  1  0
 32 40  1  0
 32 41  1  0
 33 42  1  0
 33 43  1  0
 34 44  1  0
 34 45  1  0
 20 29  1  0
M  ISO  8  21  14  22  14  23  14  24  14  25  14  26  14  27   8  28   8
M  END
>  <DihAtoms>  (1) 
16,19,28,29

>  <DihDeg>  (1) 
-179.84989336874213

$$$$
