
     RDKit          3D

 45 47  0  0  0  0  0  0  0  0999 V2000
   38.1647   31.2423   44.9280 C   0  0  0  0  0  0  0  0  0  0  0  0
   37.3495   30.9341   45.9708 C   0  0  0  0  0  0  0  0  0  0  0  0
   36.1144   30.3408   45.7310 C   0  0  0  0  0  0  0  0  0  0  0  0
   35.6727   30.0497   44.4529 C   0  0  0  0  0  0  0  0  0  0  0  0
   36.4660   30.3504   43.3843 C   0  0  0  0  0  0  0  0  0  0  0  0
   37.6733   30.9307   43.6537 C   0  0  0  0  0  0  0  0  0  0  0  0
   38.6825   32.7809   48.8586 C   0  0  0  0  0  0  0  0  0  0  0  0
   38.3131   32.4425   47.5668 C   0  0  0  0  0  0  0  0  0  0  0  0
   37.7043   31.2464   47.3125 C   0  0  0  0  0  0  0  0  0  0  0  0
   37.4816   30.4277   48.3760 N   0  0  0  0  0  0  0  0  0  0  0  0
   37.8333   30.7528   49.6257 C   0  0  0  0  0  0  0  0  0  0  0  0
   38.4324   31.9244   49.8560 N   0  0  0  0  0  0  0  0  0  0  0  0
   37.4646   29.7911   50.6970 C   0  0  0  0  0  0  0  0  0  0  0  0
   37.7158   30.2965   51.9566 F   0  0  0  0  0  0  0  0  0  0  0  0
   36.0243   29.6425   50.7074 F   0  0  0  0  0  0  0  0  0  0  0  0
   37.8960   28.5565   50.5740 F   0  0  0  0  0  0  0  0  0  0  0  0
   39.7282   31.9362   45.0998 S   0  0  0  0  0  0  0  0  0  0  0  0
   39.6878   33.4034   44.8892 O   0  0  0  0  0  0  0  0  0  0  0  0
   40.2736   31.5851   43.7319 O   0  0  0  0  0  0  0  0  0  0  0  0
   41.1180   31.2240   45.7368 C   0  0  0  0  0  0  0  0  0  0  0  0
   35.4778   30.1003   46.5958 H   0  0  0  0  0  0  0  0  0  0  0  0
   34.7021   29.5895   44.3868 H   0  0  0  0  0  0  0  0  0  0  0  0
   36.0694   30.1039   42.4326 H   0  0  0  0  0  0  0  0  0  0  0  0
   38.2130   31.1259   42.7169 H   0  0  0  0  0  0  0  0  0  0  0  0
   39.1648   33.6630   49.2322 H   0  0  0  0  0  0  0  0  0  0  0  0
   38.5843   33.2925   46.9893 H   0  0  0  0  0  0  0  0  0  0  0  0
   41.2201   30.1459   45.5047 H   0  0  0  0  0  0  0  0  0  0  0  0
   40.8912   31.1254   46.8744 H   0  0  0  0  0  0  0  0  0  0  0  0
   42.3787   31.9909   45.7655 C   0  0  0  0  0  0  0  0  0  0  0  0
   42.4722   32.6443   44.3834 C   0  0  0  0  0  0  0  0  0  0  0  0
   43.7951   33.2602   44.1364 C   0  0  0  0  0  0  0  0  0  0  0  0
   44.9457   32.3265   44.4369 C   0  0  0  0  0  0  0  0  0  0  0  0
   44.8852   31.8213   45.8374 C   0  0  0  0  0  0  0  0  0  0  0  0
   43.5545   31.0800   46.0124 C   0  0  0  0  0  0  0  0  0  0  0  0
   42.3684   32.7457   46.5778 H   0  0  0  0  0  0  0  0  0  0  0  0
   42.2657   31.8382   43.6458 H   0  0  0  0  0  0  0  0  0  0  0  0
   41.6808   33.4024   44.3399 H   0  0  0  0  0  0  0  0  0  0  0  0
   43.8997   34.2617   44.5900 H   0  0  0  0  0  0  0  0  0  0  0  0
   43.8605   33.4438   43.0246 H   0  0  0  0  0  0  0  0  0  0  0  0
   45.8892   32.8900   44.2598 H   0  0  0  0  0  0  0  0  0  0  0  0
   44.9112   31.4928   43.7295 H   0  0  0  0  0  0  0  0  0  0  0  0
   45.6942   31.1022   45.9784 H   0  0  0  0  0  0  0  0  0  0  0  0
   44.9174   32.6183   46.5911 H   0  0  0  0  0  0  0  0  0  0  0  0
   43.5284   30.1640   45.4225 H   0  0  0  0  0  0  0  0  0  0  0  0
   43.5471   30.8119   47.0888 H   0  0  0  0  0  0  0  0  0  0  0  0
  1 17  1  0
  1  2  1  0
  2  9  1  0
  3  2  2  0
  4  3  1  0
  5  6  1  0
  5  4  2  0
  6  1  2  0
  7 12  2  0
  8  7  1  0
  9  8  2  0
  9 10  1  0
 10 11  2  0
 11 12  1  0
 11 13  1  0
 13 15  1  0
 13 14  1  0
 16 13  1  0
 17 20  1  0
 18 17  2  0
 19 17  2  0
  3 21  1  0
  4 22  1  0
  5 23  1  0
  6 24  1  0
  7 25  1  0
  8 26  1  0
 20 27  1  0
 20 28  1  0
 29 30  1  0
 30 31  1  0
 31 32  1  0
 32 33  1  0
 33 34  1  0
 34 29  1  0
 29 35  1  0
 30 36  1  0
 30 37  1  0
 31 38  1  0
 31 39  1  0
 32 40  1  0
 32 41  1  0
 33 42  1  0
 33 43  1  0
 34 44  1  0
 34 45  1  0
 20 29  1  0
M  ISO  8  21  14  22  14  23  14  24  14  25  14  26  14  27   8  28   8
M  END
>  <DihAtoms>  (1) 
16,19,28,29

>  <DihDeg>  (1) 
-179.84989336874213

$$$$
