
     RDKit          3D

 45 48  0  0  0  0  0  0  0  0999 V2000
   37.6763   31.2979   48.2023 C   0  0  0  0  0  0  0  0  0  0  0  0
   38.5362   32.3100   48.0870 C   0  0  0  0  0  0  0  0  0  0  0  0
   38.9251   32.7086   46.8678 C   0  0  0  0  0  0  0  0  0  0  0  0
   38.4103   32.0442   45.7809 C   0  0  0  0  0  0  0  0  0  0  0  0
   37.3247   30.7993   46.5746 S   0  0  0  0  0  0  0  0  0  0  0  0
   41.1542   31.2360   44.7221 Cl  0  0  0  0  0  0  0  0  0  0  0  0
   39.7859   31.8269   43.8095 C   0  0  0  0  0  0  0  0  0  0  0  0
   38.5795   32.1721   44.3533 C   0  0  0  0  0  0  0  0  0  0  0  0
   37.5090   32.6277   43.6910 C   0  0  0  0  0  0  0  0  0  0  0  0
   37.6085   32.7750   42.2985 C   0  0  0  0  0  0  0  0  0  0  0  0
   38.7748   32.4529   41.6836 C   0  0  0  0  0  0  0  0  0  0  0  0
   38.9523   32.6175   39.9512 Cl  0  0  0  0  0  0  0  0  0  0  0  0
   39.8613   31.9822   42.4192 C   0  0  0  0  0  0  0  0  0  0  0  0
   37.1591   29.9213   51.6765 C   0  0  0  0  0  0  0  0  0  0  0  0
   37.7887   30.5546   50.5925 C   0  0  0  0  0  0  0  0  0  0  0  0
   37.0739   30.6446   49.3826 C   0  0  0  0  0  0  0  0  0  0  0  0
   35.8545   30.1329   49.3256 N   0  0  0  0  0  0  0  0  0  0  0  0
   35.2695   29.5324   50.3693 C   0  0  0  0  0  0  0  0  0  0  0  0
   35.9185   29.4308   51.5277 N   0  0  0  0  0  0  0  0  0  0  0  0
   33.9276   29.0051   50.1983 C   0  0  0  0  0  0  0  0  0  0  0  0
   33.6533   28.3111   49.1936 O   0  0  0  0  0  0  0  0  0  0  0  0
   38.8920   32.7775   49.0007 H   0  0  0  0  0  0  0  0  0  0  0  0
   39.6123   33.5097   46.6222 H   0  0  0  0  0  0  0  0  0  0  0  0
   36.5520   32.9027   44.1129 H   0  0  0  0  0  0  0  0  0  0  0  0
   36.8085   33.1304   41.6890 H   0  0  0  0  0  0  0  0  0  0  0  0
   40.7734   31.7372   41.8855 H   0  0  0  0  0  0  0  0  0  0  0  0
   37.7482   29.8785   52.5791 H   0  0  0  0  0  0  0  0  0  0  0  0
   38.7920   30.9807   50.6239 H   0  0  0  0  0  0  0  0  0  0  0  0
   32.8916   29.2977   51.2234 C   0  0  0  0  0  0  0  0  0  0  0  0
   33.1270   28.4572   52.4754 C   0  0  0  0  0  0  0  0  0  0  0  0
   31.8871   28.7002   53.3442 C   0  0  0  0  0  0  0  0  0  0  0  0
   31.9797   30.1256   53.8033 C   0  0  0  0  0  0  0  0  0  0  0  0
   32.0570   31.1349   52.7058 C   0  0  0  0  0  0  0  0  0  0  0  0
   32.9495   30.7652   51.5631 C   0  0  0  0  0  0  0  0  0  0  0  0
   31.8848   29.0467   50.8821 H   0  0  0  0  0  0  0  0  0  0  0  0
   33.9692   28.8401   53.0859 H   0  0  0  0  0  0  0  0  0  0  0  0
   33.2283   27.4098   52.1885 H   0  0  0  0  0  0  0  0  0  0  0  0
   31.8916   28.0624   54.2415 H   0  0  0  0  0  0  0  0  0  0  0  0
   30.9822   28.5837   52.7087 H   0  0  0  0  0  0  0  0  0  0  0  0
   31.0284   30.3365   54.3597 H   0  0  0  0  0  0  0  0  0  0  0  0
   32.7838   30.2374   54.5584 H   0  0  0  0  0  0  0  0  0  0  0  0
   31.0419   31.4108   52.3428 H   0  0  0  0  0  0  0  0  0  0  0  0
   32.4587   32.0728   53.1611 H   0  0  0  0  0  0  0  0  0  0  0  0
   32.6076   31.3250   50.6681 H   0  0  0  0  0  0  0  0  0  0  0  0
   33.9760   31.1145   51.7679 H   0  0  0  0  0  0  0  0  0  0  0  0
  1 16  1  0
  2  1  2  0
  3  2  1  0
  4  5  1  0
  4  3  2  0
  5  1  1  0
  7  8  2  0
  7  6  1  0
  8  4  1  0
  9  8  1  0
 10  9  2  0
 11 10  1  0
 11 13  2  0
 12 11  1  0
 13  7  1  0
 15 14  2  0
 16 15  1  0
 17 16  2  0
 17 18  1  0
 18 19  2  0
 19 14  1  0
 20 18  1  0
 21 20  2  0
  2 22  1  0
  3 23  1  0
  9 24  1  0
 10 25  1  0
 13 26  1  0
 14 27  1  0
 15 28  1  0
 29 30  1  0
 30 31  1  0
 31 32  1  0
 32 33  1  0
 33 34  1  0
 34 29  1  0
 29 35  1  0
 30 36  1  0
 30 37  1  0
 31 38  1  0
 31 39  1  0
 32 40  1  0
 32 41  1  0
 33 42  1  0
 33 43  1  0
 34 44  1  0
 34 45  1  0
 20 29  1  0
M  ISO  7  22  14  23  14  24  14  25  14  26  14  27  14  28  14
M  END
>  <DihAtoms>  (1) 
17,19,28,29

>  <DihDeg>  (1) 
-60.00575073300773

$$$$
