
     RDKit          3D

 28 29  0  0  0  0  0  0  0  0999 V2000
   37.2613   30.1772   51.4448 C   0  0  0  0  0  0  0  0  0  0  0  0
   38.0925   30.7529   50.4478 C   0  0  0  0  0  0  0  0  0  0  0  0
   37.8017   30.4929   49.0907 C   0  0  0  0  0  0  0  0  0  0  0  0
   36.7406   29.7049   48.8216 N   0  0  0  0  0  0  0  0  0  0  0  0
   35.9745   29.1757   49.7818 C   0  0  0  0  0  0  0  0  0  0  0  0
   36.2167   29.3978   51.0696 N   0  0  0  0  0  0  0  0  0  0  0  0
   34.8251   28.3199   49.5133 C   0  0  0  0  0  0  0  0  0  0  0  0
   33.6377   28.7116   49.5493 O   0  0  0  0  0  0  0  0  0  0  0  0
   37.5490   30.4230   52.4575 H   0  0  0  0  0  0  0  0  0  0  0  0
   38.9360   31.3807   50.7027 H   0  0  0  0  0  0  0  0  0  0  0  0
   38.4303   30.9280   48.3253 H   0  0  0  0  0  0  0  0  0  0  0  0
   35.1072   26.9022   49.1794 C   0  0  0  0  0  0  0  0  0  0  0  0
   33.8529   26.1120   48.9219 C   0  0  0  0  0  0  0  0  0  0  0  0
   34.2047   24.6506   49.0307 C   0  0  0  0  0  0  0  0  0  0  0  0
   35.5478   24.3599   48.4535 C   0  0  0  0  0  0  0  0  0  0  0  0
   36.0194   25.3760   47.4557 C   0  0  0  0  0  0  0  0  0  0  0  0
   35.9599   26.7823   47.9291 C   0  0  0  0  0  0  0  0  0  0  0  0
   35.6603   26.3718   49.9799 H   0  0  0  0  0  0  0  0  0  0  0  0
   33.0223   26.4006   49.5843 H   0  0  0  0  0  0  0  0  0  0  0  0
   33.5868   26.2745   47.8379 H   0  0  0  0  0  0  0  0  0  0  0  0
   33.4066   23.9857   48.6524 H   0  0  0  0  0  0  0  0  0  0  0  0
   34.2921   24.4353   50.1297 H   0  0  0  0  0  0  0  0  0  0  0  0
   36.3373   24.1973   49.2055 H   0  0  0  0  0  0  0  0  0  0  0  0
   35.4632   23.3944   47.8848 H   0  0  0  0  0  0  0  0  0  0  0  0
   37.1066   25.1295   47.2746 H   0  0  0  0  0  0  0  0  0  0  0  0
   35.5214   25.1782   46.4803 H   0  0  0  0  0  0  0  0  0  0  0  0
   36.9579   27.2064   48.1679 H   0  0  0  0  0  0  0  0  0  0  0  0
   35.4915   27.3954   47.1132 H   0  0  0  0  0  0  0  0  0  0  0  0
  2  1  2  0
  3  2  1  0
  4  3  2  0
  4  5  1  0
  5  6  2  0
  6  1  1  0
  7  8  2  0
  7  5  1  0
  1  9  1  0
  2 10  1  0
  3 11  1  0
 12 13  1  0
 13 14  1  0
 14 15  1  0
 15 16  1  0
 16 17  1  0
 17 12  1  0
 12 18  1  0
 13 19  1  0
 13 20  1  0
 14 21  1  0
 14 22  1  0
 15 23  1  0
 15 24  1  0
 16 25  1  0
 16 26  1  0
 17 27  1  0
 17 28  1  0
  7 12  1  0
M  ISO  3   9  14  10  14  11  14
M  END
>  <DihAtoms>  (1) 
7,6,11,12

>  <DihDeg>  (1) 
119.99403310228196

$$$$
