
     RDKit          3D

 28 29  0  0  0  0  0  0  0  0999 V2000
   37.2613   30.1772   51.4448 C   0  0  0  0  0  0  0  0  0  0  0  0
   38.0925   30.7529   50.4478 C   0  0  0  0  0  0  0  0  0  0  0  0
   37.8017   30.4929   49.0907 C   0  0  0  0  0  0  0  0  0  0  0  0
   36.7406   29.7049   48.8216 N   0  0  0  0  0  0  0  0  0  0  0  0
   35.9745   29.1757   49.7818 C   0  0  0  0  0  0  0  0  0  0  0  0
   36.2167   29.3978   51.0696 N   0  0  0  0  0  0  0  0  0  0  0  0
   34.8251   28.3199   49.5133 C   0  0  0  0  0  0  0  0  0  0  0  0
   33.6377   28.7116   49.5493 O   0  0  0  0  0  0  0  0  0  0  0  0
   37.5490   30.4230   52.4575 H   0  0  0  0  0  0  0  0  0  0  0  0
   38.9360   31.3807   50.7027 H   0  0  0  0  0  0  0  0  0  0  0  0
   38.4303   30.9280   48.3253 H   0  0  0  0  0  0  0  0  0  0  0  0
   35.1072   26.9022   49.1794 C   0  0  0  0  0  0  0  0  0  0  0  0
   34.2040   25.9484   49.9132 C   0  0  0  0  0  0  0  0  0  0  0  0
   34.8391   24.5829   49.8541 C   0  0  0  0  0  0  0  0  0  0  0  0
   35.4819   24.3278   48.5338 C   0  0  0  0  0  0  0  0  0  0  0  0
   34.9429   25.1710   47.4162 C   0  0  0  0  0  0  0  0  0  0  0  0
   34.9155   26.6288   47.6985 C   0  0  0  0  0  0  0  0  0  0  0  0
   36.1477   26.6019   49.4145 H   0  0  0  0  0  0  0  0  0  0  0  0
   33.9859   26.2725   50.9424 H   0  0  0  0  0  0  0  0  0  0  0  0
   33.2596   25.8645   49.3022 H   0  0  0  0  0  0  0  0  0  0  0  0
   34.1566   23.7757   50.1779 H   0  0  0  0  0  0  0  0  0  0  0  0
   35.6764   24.5993   50.6028 H   0  0  0  0  0  0  0  0  0  0  0  0
   36.5818   24.4015   48.5450 H   0  0  0  0  0  0  0  0  0  0  0  0
   35.2491   23.2657   48.2505 H   0  0  0  0  0  0  0  0  0  0  0  0
   35.6554   25.0103   46.5548 H   0  0  0  0  0  0  0  0  0  0  0  0
   33.9807   24.7330   47.0689 H   0  0  0  0  0  0  0  0  0  0  0  0
   35.7000   27.1950   47.1537 H   0  0  0  0  0  0  0  0  0  0  0  0
   33.9080   27.0155   47.3880 H   0  0  0  0  0  0  0  0  0  0  0  0
  2  1  2  0
  3  2  1  0
  4  3  2  0
  4  5  1  0
  5  6  2  0
  6  1  1  0
  7  8  2  0
  7  5  1  0
  1  9  1  0
  2 10  1  0
  3 11  1  0
 12 13  1  0
 13 14  1  0
 14 15  1  0
 15 16  1  0
 16 17  1  0
 17 12  1  0
 12 18  1  0
 13 19  1  0
 13 20  1  0
 14 21  1  0
 14 22  1  0
 15 23  1  0
 15 24  1  0
 16 25  1  0
 16 26  1  0
 17 27  1  0
 17 28  1  0
  7 12  1  0
M  ISO  3   9  14  10  14  11  14
M  END
>  <DihAtoms>  (1) 
7,6,11,12

>  <DihDeg>  (1) 
119.99403310228196

$$$$
