
     RDKit          3D

 45 47  0  0  0  0  0  0  0  0999 V2000
   35.5800   29.1390   50.3540 C   0  0  0  0  0  0  0  0  0  0  0  0
   36.3730   30.1480   49.7390 C   0  0  0  0  0  0  0  0  0  0  0  0
   36.2370   30.3550   48.3770 C   0  0  0  0  0  0  0  0  0  0  0  0
   35.3410   29.5710   47.6970 N   0  0  0  0  0  0  0  0  0  0  0  0
   34.6140   28.6450   48.2660 C   0  0  0  0  0  0  0  0  0  0  0  0
   34.7170   28.4110   49.5980 N   0  0  0  0  0  0  0  0  0  0  0  0
   32.7340   30.2410   46.5200 Cl  0  0  0  0  0  0  0  0  0  0  0  0
   32.7640   28.4860   46.6160 C   0  0  0  0  0  0  0  0  0  0  0  0
   33.6720   27.8470   47.4540 C   0  0  0  0  0  0  0  0  0  0  0  0
   33.7390   26.4650   47.5690 C   0  0  0  0  0  0  0  0  0  0  0  0
   32.8320   25.7440   46.7850 C   0  0  0  0  0  0  0  0  0  0  0  0
   31.9290   26.3390   45.9530 C   0  0  0  0  0  0  0  0  0  0  0  0
   30.8490   25.3310   45.0250 Cl  0  0  0  0  0  0  0  0  0  0  0  0
   31.8970   27.7240   45.8690 C   0  0  0  0  0  0  0  0  0  0  0  0
   30.9330   28.3900   44.9800 C   0  0  0  0  0  0  0  0  0  0  0  0
   29.9730   27.4680   44.5310 F   0  0  0  0  0  0  0  0  0  0  0  0
   31.5180   29.0330   43.9390 F   0  0  0  0  0  0  0  0  0  0  0  0
   30.2100   29.3340   45.6880 F   0  0  0  0  0  0  0  0  0  0  0  0
   37.3100   30.9290   50.5990 C   0  0  0  0  0  0  0  0  0  0  0  0
   38.6210   30.8040   50.1270 F   0  0  0  0  0  0  0  0  0  0  0  0
   36.9600   32.2480   50.5230 F   0  0  0  0  0  0  0  0  0  0  0  0
   37.2750   30.5440   51.9160 F   0  0  0  0  0  0  0  0  0  0  0  0
   37.0510   31.3960   47.7230 C   0  0  0  0  0  0  0  0  0  0  0  0
   38.0760   30.6830   46.8410 C   0  0  0  0  0  0  0  0  0  0  0  0
   39.4370   31.3280   46.9920 C   0  0  0  0  0  0  0  0  0  0  0  0
   39.8910   31.9990   45.7170 C   0  0  0  0  0  0  0  0  0  0  0  0
   39.9020   31.0540   44.5450 C   0  0  0  0  0  0  0  0  0  0  0  0
   38.8070   30.0190   44.6350 C   0  0  0  0  0  0  0  0  0  0  0  0
   37.6240   30.6020   45.3990 C   0  0  0  0  0  0  0  0  0  0  0  0
   35.6651   28.9497   51.4342 H   0  0  0  0  0  0  0  0  0  0  0  0
   34.4600   25.9681   48.2348 H   0  0  0  0  0  0  0  0  0  0  0  0
   32.8476   24.6456   46.8420 H   0  0  0  0  0  0  0  0  0  0  0  0
   36.4099   32.0437   47.1070 H   0  0  0  0  0  0  0  0  0  0  0  0
   37.5526   32.0264   48.4720 H   0  0  0  0  0  0  0  0  0  0  0  0
   38.1629   29.6414   47.1838 H   0  0  0  0  0  0  0  0  0  0  0  0
   39.3857   32.0821   47.7911 H   0  0  0  0  0  0  0  0  0  0  0  0
   40.1619   30.5375   47.2361 H   0  0  0  0  0  0  0  0  0  0  0  0
   39.2080   32.8317   45.4932 H   0  0  0  0  0  0  0  0  0  0  0  0
   40.9206   32.3536   45.8723 H   0  0  0  0  0  0  0  0  0  0  0  0
   40.8738   30.5395   44.5143 H   0  0  0  0  0  0  0  0  0  0  0  0
   39.7324   31.6457   43.6333 H   0  0  0  0  0  0  0  0  0  0  0  0
   38.4860   29.7347   43.6220 H   0  0  0  0  0  0  0  0  0  0  0  0
   39.1833   29.1295   45.1615 H   0  0  0  0  0  0  0  0  0  0  0  0
   37.3751   31.6031   45.0171 H   0  0  0  0  0  0  0  0  0  0  0  0
   36.7211   29.9837   45.2879 H   0  0  0  0  0  0  0  0  0  0  0  0
  2  1  2  0
  2 19  1  0
  3  2  1  0
  4  5  1  0
  4  3  2  0
  5  6  2  0
  6  1  1  0
  7  8  1  0
  8  9  2  0
  9 10  1  0
  9  5  1  0
 11 10  2  0
 12 11  1  0
 13 12  1  0
 14 12  2  0
 14  8  1  0
 15 18  1  0
 15 14  1  0
 16 15  1  0
 17 15  1  0
 19 22  1  0
 20 19  1  0
 21 19  1  0
 23  3  1  0
 24 25  1  0
 24 23  1  0
 26 25  1  0
 27 28  1  0
 27 26  1  0
 28 29  1  0
 29 24  1  0
  1 30  1  0
 10 31  1  0
 11 32  1  0
 23 33  1  0
 23 34  1  0
 24 35  1  0
 25 36  1  0
 25 37  1  0
 26 38  1  0
 26 39  1  0
 27 40  1  0
 27 41  1  0
 28 42  1  0
 28 43  1  0
 29 44  1  0
 29 45  1  0
M  ISO  8  30  14  31  14  32  14  33   8  34   8  35  13  36  13  37  13
M  ISO  8  38  13  39  13  40  13  41  13  42  13  43  13  44  13  45  13
M  END
>  <minimizedAffinity>  (1) 
-6.51357889

>  <minimizedRMSD>  (1) 
1.24068773

$$$$
