
     RDKit          3D

 45 47  0  0  0  0  0  0  0  0999 V2000
   37.1334   30.9680   49.0192 C   0  0  0  0  0  0  0  0  0  0  0  0
   36.9118   31.9293   50.0065 C   0  0  0  0  0  0  0  0  0  0  0  0
   37.5584   33.1604   49.9795 C   0  0  0  0  0  0  0  0  0  0  0  0
   38.4501   33.4566   48.9513 C   0  0  0  0  0  0  0  0  0  0  0  0
   38.6505   32.4960   47.9940 C   0  0  0  0  0  0  0  0  0  0  0  0
   38.0005   31.2804   48.0367 C   0  0  0  0  0  0  0  0  0  0  0  0
   36.4175   29.7078   49.1220 C   0  0  0  0  0  0  0  0  0  0  0  0
   36.9261   28.8635   49.9488 O   0  0  0  0  0  0  0  0  0  0  0  0
   33.6288   30.1815   46.8500 C   0  0  0  0  0  0  0  0  0  0  0  0
   32.9618   28.9564   46.8746 C   0  0  0  0  0  0  0  0  0  0  0  0
   33.4713   27.9519   47.6804 C   0  0  0  0  0  0  0  0  0  0  0  0
   34.5944   28.1932   48.4130 N   0  0  0  0  0  0  0  0  0  0  0  0
   35.2102   29.3674   48.3718 C   0  0  0  0  0  0  0  0  0  0  0  0
   34.7130   30.3406   47.5886 N   0  0  0  0  0  0  0  0  0  0  0  0
   38.3316   30.3880   46.9502 C   0  0  0  0  0  0  0  0  0  0  0  0
   38.8057   30.6982   45.7635 C   0  0  0  0  0  0  0  0  0  0  0  0
   39.1940   29.9179   44.5957 C   0  0  0  0  0  0  0  0  0  0  0  0
   36.2280   31.7230   50.8096 H   0  0  0  0  0  0  0  0  0  0  0  0
   37.3404   33.8608   50.7773 H   0  0  0  0  0  0  0  0  0  0  0  0
   38.9250   34.4196   48.9730 H   0  0  0  0  0  0  0  0  0  0  0  0
   39.3593   32.8075   47.2311 H   0  0  0  0  0  0  0  0  0  0  0  0
   33.2310   30.9603   46.2232 H   0  0  0  0  0  0  0  0  0  0  0  0
   32.0631   28.7586   46.2904 H   0  0  0  0  0  0  0  0  0  0  0  0
   32.9911   26.9853   47.7341 H   0  0  0  0  0  0  0  0  0  0  0  0
   38.2019   29.3161   47.0293 H   0  0  0  0  0  0  0  0  0  0  0  0
   38.9878   31.7617   45.5238 H   0  0  0  0  0  0  0  0  0  0  0  0
   38.7043   30.2737   43.6655 H   0  0  0  0  0  0  0  0  0  0  0  0
   40.2954   30.0865   44.4128 H   0  0  0  0  0  0  0  0  0  0  0  0
   39.0789   28.4164   44.7546 C   0  0  0  0  0  0  0  0  0  0  0  0
   37.6764   28.0477   44.3237 C   0  0  0  0  0  0  0  0  0  0  0  0
   37.4909   26.5522   44.2039 C   0  0  0  0  0  0  0  0  0  0  0  0
   38.6358   25.9080   43.4491 C   0  0  0  0  0  0  0  0  0  0  0  0
   39.4081   27.0259   42.7372 C   0  0  0  0  0  0  0  0  0  0  0  0
   40.1216   27.7957   43.8507 C   0  0  0  0  0  0  0  0  0  0  0  0
   39.2475   28.1461   45.7935 H   0  0  0  0  0  0  0  0  0  0  0  0
   36.9901   28.3862   45.1279 H   0  0  0  0  0  0  0  0  0  0  0  0
   37.3686   28.5728   43.3992 H   0  0  0  0  0  0  0  0  0  0  0  0
   37.3459   26.0615   45.1812 H   0  0  0  0  0  0  0  0  0  0  0  0
   36.5758   26.3838   43.5995 H   0  0  0  0  0  0  0  0  0  0  0  0
   39.3365   25.4858   44.2002 H   0  0  0  0  0  0  0  0  0  0  0  0
   38.3336   25.1167   42.7616 H   0  0  0  0  0  0  0  0  0  0  0  0
   40.2105   26.5722   42.1250 H   0  0  0  0  0  0  0  0  0  0  0  0
   38.7297   27.6551   42.1509 H   0  0  0  0  0  0  0  0  0  0  0  0
   40.6554   27.0213   44.4359 H   0  0  0  0  0  0  0  0  0  0  0  0
   40.7807   28.5537   43.3874 H   0  0  0  0  0  0  0  0  0  0  0  0
  1  7  1  0
  1  2  2  0
  3  2  1  0
  4  3  2  0
  5  6  2  0
  5  4  1  0
  6  1  1  0
  7  8  2  0
  9 10  2  0
  9 14  1  0
 10 11  1  0
 11 12  2  0
 13 12  1  0
 13  7  1  0
 14 13  2  0
 15  6  1  0
 16 15  2  0
 17 16  1  0
  2 18  1  0
  3 19  1  0
  4 20  1  0
  5 21  1  0
  9 22  1  0
 10 23  1  0
 11 24  1  0
 15 25  1  0
 16 26  1  0
 17 27  1  0
 17 28  1  0
 29 30  1  0
 30 31  1  0
 31 32  1  0
 32 33  1  0
 33 34  1  0
 34 29  1  0
 29 35  1  0
 30 36  1  0
 30 37  1  0
 31 38  1  0
 31 39  1  0
 32 40  1  0
 32 41  1  0
 33 42  1  0
 33 43  1  0
 34 44  1  0
 34 45  1  0
 17 29  1  0
M  ISO  8  18  14  19  14  20  14  21  14  22  14  23  14  24  14  27   8
M  ISO  1  28   8
M  END
>  <DihAtoms>  (1) 
15,16,28,29

>  <DihDeg>  (1) 
179.42689412995526

$$$$
