
     RDKit          3D

 40 42  0  0  0  0  0  0  0  0999 V2000
   39.4586   31.8949   46.6956 C   0  0  0  0  0  0  0  0  0  0  0  0
   39.5928   30.7055   46.0240 C   0  0  0  0  0  0  0  0  0  0  0  0
   39.9102   30.7017   44.7125 C   0  0  0  0  0  0  0  0  0  0  0  0
   40.0940   31.9208   44.0703 C   0  0  0  0  0  0  0  0  0  0  0  0
   39.9557   33.1156   44.7594 C   0  0  0  0  0  0  0  0  0  0  0  0
   39.6373   33.0661   46.0719 N   0  0  0  0  0  0  0  0  0  0  0  0
   40.1604   34.4222   44.0426 C   0  0  0  0  0  0  0  0  0  0  0  0
   39.1355   32.0882   48.0489 O   0  0  0  0  0  0  0  0  0  0  0  0
   38.1602   31.0306   49.8828 C   0  0  0  0  0  0  0  0  0  0  0  0
   38.0526   31.4319   48.5351 C   0  0  0  0  0  0  0  0  0  0  0  0
   36.8829   31.1237   47.8626 C   0  0  0  0  0  0  0  0  0  0  0  0
   35.9215   30.4609   48.5360 N   0  0  0  0  0  0  0  0  0  0  0  0
   36.0468   30.0956   49.7999 C   0  0  0  0  0  0  0  0  0  0  0  0
   37.1819   30.3673   50.5341 N   0  0  0  0  0  0  0  0  0  0  0  0
   34.6007   29.2290   50.4264 S   0  0  0  0  0  0  0  0  0  0  0  0
   39.4250   29.8276   46.6338 H   0  0  0  0  0  0  0  0  0  0  0  0
   40.0117   29.7540   44.2024 H   0  0  0  0  0  0  0  0  0  0  0  0
   40.3473   31.9025   43.0159 H   0  0  0  0  0  0  0  0  0  0  0  0
   39.3577   34.6522   43.3359 H   0  0  0  0  0  0  0  0  0  0  0  0
   41.1063   34.2884   43.4519 H   0  0  0  0  0  0  0  0  0  0  0  0
   40.3591   35.1874   44.8109 H   0  0  0  0  0  0  0  0  0  0  0  0
   39.0408   31.2374   50.4691 H   0  0  0  0  0  0  0  0  0  0  0  0
   36.8204   31.4321   46.8515 H   0  0  0  0  0  0  0  0  0  0  0  0
   34.9214   28.7923   52.1755 C   0  0  0  0  0  0  0  0  0  0  0  0
   35.3723   27.3666   52.3000 C   0  0  0  0  0  0  0  0  0  0  0  0
   35.4943   27.0367   53.7718 C   0  0  0  0  0  0  0  0  0  0  0  0
   35.9184   28.2009   54.6146 C   0  0  0  0  0  0  0  0  0  0  0  0
   36.7353   29.2298   53.8678 C   0  0  0  0  0  0  0  0  0  0  0  0
   36.0671   29.6819   52.6090 C   0  0  0  0  0  0  0  0  0  0  0  0
   34.0225   28.9184   52.7981 H   0  0  0  0  0  0  0  0  0  0  0  0
   34.5866   26.6754   51.8829 H   0  0  0  0  0  0  0  0  0  0  0  0
   36.3505   27.1859   51.7835 H   0  0  0  0  0  0  0  0  0  0  0  0
   36.1464   26.1514   53.9435 H   0  0  0  0  0  0  0  0  0  0  0  0
   34.4765   26.7078   54.1299 H   0  0  0  0  0  0  0  0  0  0  0  0
   36.6011   27.8241   55.4292 H   0  0  0  0  0  0  0  0  0  0  0  0
   35.0588   28.6484   55.1471 H   0  0  0  0  0  0  0  0  0  0  0  0
   36.8170   30.1134   54.5363 H   0  0  0  0  0  0  0  0  0  0  0  0
   37.7421   28.8442   53.6727 H   0  0  0  0  0  0  0  0  0  0  0  0
   36.8136   29.6788   51.7816 H   0  0  0  0  0  0  0  0  0  0  0  0
   35.6581   30.7051   52.6699 H   0  0  0  0  0  0  0  0  0  0  0  0
  1  8  1  0
  2  1  2  0
  3  2  1  0
  4  3  2  0
  4  5  1  0
  5  6  2  0
  6  1  1  0
  7  5  1  0
  8 10  1  0
  9 14  2  0
 10  9  1  0
 11 10  2  0
 11 12  1  0
 12 13  2  0
 13 15  1  0
 13 14  1  0
  2 16  1  0
  3 17  1  0
  4 18  1  0
  7 19  1  0
  7 20  1  0
  7 21  1  0
  9 22  1  0
 11 23  1  0
 24 25  1  0
 25 26  1  0
 26 27  1  0
 27 28  1  0
 28 29  1  0
 29 24  1  0
 24 30  1  0
 25 31  1  0
 25 32  1  0
 26 33  1  0
 26 34  1  0
 27 35  1  0
 27 36  1  0
 28 37  1  0
 28 38  1  0
 29 39  1  0
 29 40  1  0
 15 24  1  0
M  ISO  8  16  14  17  14  18  14  19   8  20   8  21   8  22  14  23  14
M  END
>  <DihAtoms>  (1) 
12,14,23,24

>  <DihDeg>  (1) 
66.25225943163973

$$$$
