
     RDKit          3D

 28 29  0  0  0  0  0  0  0  0999 V2000
   35.1570   30.2290   46.6750 C   0  0  0  0  0  0  0  0  0  0  0  0
   35.4270   29.9880   45.3290 C   0  0  0  0  0  0  0  0  0  0  0  0
   34.3520   29.8530   44.4480 C   0  0  0  0  0  0  0  0  0  0  0  0
   33.0910   29.9670   44.9600 N   0  0  0  0  0  0  0  0  0  0  0  0
   32.8560   30.1980   46.2540 C   0  0  0  0  0  0  0  0  0  0  0  0
   33.8990   30.3240   47.0840 N   0  0  0  0  0  0  0  0  0  0  0  0
   36.2830   30.3680   47.5840 C   0  0  0  0  0  0  0  0  0  0  0  0
   37.4800   30.4520   47.1620 O   0  0  0  0  0  0  0  0  0  0  0  0
   35.9420   30.4060   49.0520 C   0  0  0  0  0  0  0  0  0  0  0  0
   36.6900   31.5110   49.6750 C   0  0  0  0  0  0  0  0  0  0  0  0
   37.4080   31.2290   50.9430 C   0  0  0  0  0  0  0  0  0  0  0  0
   37.0740   29.8990   51.5750 C   0  0  0  0  0  0  0  0  0  0  0  0
   37.3510   28.8710   50.4740 C   0  0  0  0  0  0  0  0  0  0  0  0
   36.1240   29.0330   49.5670 C   0  0  0  0  0  0  0  0  0  0  0  0
   36.4632   29.9060   44.9690 H   0  0  0  0  0  0  0  0  0  0  0  0
   34.5154   29.6612   43.3772 H   0  0  0  0  0  0  0  0  0  0  0  0
   31.8260   30.2831   46.6306 H   0  0  0  0  0  0  0  0  0  0  0  0
   34.8990   30.6542   49.2980 H   0  0  0  0  0  0  0  0  0  0  0  0
   37.4365   31.8556   48.9443 H   0  0  0  0  0  0  0  0  0  0  0  0
   35.9208   32.2481   49.9489 H   0  0  0  0  0  0  0  0  0  0  0  0
   38.4883   31.2486   50.7367 H   0  0  0  0  0  0  0  0  0  0  0  0
   37.0899   32.0015   51.6585 H   0  0  0  0  0  0  0  0  0  0  0  0
   37.7135   29.7130   52.4505 H   0  0  0  0  0  0  0  0  0  0  0  0
   36.0357   29.8562   51.9356 H   0  0  0  0  0  0  0  0  0  0  0  0
   38.2804   29.1049   49.9340 H   0  0  0  0  0  0  0  0  0  0  0  0
   37.4914   27.8468   50.8499 H   0  0  0  0  0  0  0  0  0  0  0  0
   35.2282   28.7565   50.1423 H   0  0  0  0  0  0  0  0  0  0  0  0
   36.2811   28.3812   48.6949 H   0  0  0  0  0  0  0  0  0  0  0  0
  1  6  1  0
  1  7  1  0
  2  1  2  0
  3  4  2  0
  3  2  1  0
  4  5  1  0
  5  6  2  0
  7  9  1  0
  8  7  2  0
  9 14  1  0
  9 10  1  0
 10 11  1  0
 11 12  1  0
 13 12  1  0
 14 13  1  0
  2 15  1  0
  3 16  1  0
  5 17  1  0
  9 18  1  0
 10 19  1  0
 10 20  1  0
 11 21  1  0
 11 22  1  0
 12 23  1  0
 12 24  1  0
 13 25  1  0
 13 26  1  0
 14 27  1  0
 14 28  1  0
M  ISO  8  15  14  16  14  17  14  18  13  19  13  20  13  21  13  22  13
M  ISO  6  23  13  24  13  25  13  26  13  27  13  28  13
M  END
>  <minimizedAffinity>  (1) 
-4.38931036

>  <minimizedRMSD>  (1) 
4.5744586

$$$$
