
     RDKit          3D

 28 29  0  0  0  0  0  0  0  0999 V2000
   37.2613   30.1772   51.4448 C   0  0  0  0  0  0  0  0  0  0  0  0
   38.0925   30.7529   50.4478 C   0  0  0  0  0  0  0  0  0  0  0  0
   37.8017   30.4929   49.0907 C   0  0  0  0  0  0  0  0  0  0  0  0
   36.7406   29.7049   48.8216 N   0  0  0  0  0  0  0  0  0  0  0  0
   35.9745   29.1757   49.7818 C   0  0  0  0  0  0  0  0  0  0  0  0
   36.2167   29.3978   51.0696 N   0  0  0  0  0  0  0  0  0  0  0  0
   34.8251   28.3199   49.5133 C   0  0  0  0  0  0  0  0  0  0  0  0
   33.6377   28.7116   49.5493 O   0  0  0  0  0  0  0  0  0  0  0  0
   37.5490   30.4230   52.4575 H   0  0  0  0  0  0  0  0  0  0  0  0
   38.9360   31.3807   50.7027 H   0  0  0  0  0  0  0  0  0  0  0  0
   38.4303   30.9280   48.3253 H   0  0  0  0  0  0  0  0  0  0  0  0
   35.1072   26.9022   49.1794 C   0  0  0  0  0  0  0  0  0  0  0  0
   35.1482   26.0219   50.3989 C   0  0  0  0  0  0  0  0  0  0  0  0
   35.8548   24.7467   50.0168 C   0  0  0  0  0  0  0  0  0  0  0  0
   35.4946   24.3055   48.6394 C   0  0  0  0  0  0  0  0  0  0  0  0
   34.1876   24.8495   48.1433 C   0  0  0  0  0  0  0  0  0  0  0  0
   34.0455   26.3230   48.2617 C   0  0  0  0  0  0  0  0  0  0  0  0
   36.0736   26.7662   48.6545 H   0  0  0  0  0  0  0  0  0  0  0  0
   35.6054   26.5178   51.2689 H   0  0  0  0  0  0  0  0  0  0  0  0
   34.0830   25.7194   50.6138 H   0  0  0  0  0  0  0  0  0  0  0  0
   35.7511   23.9516   50.7779 H   0  0  0  0  0  0  0  0  0  0  0  0
   36.9487   24.9992   49.9798 H   0  0  0  0  0  0  0  0  0  0  0  0
   36.2758   24.4960   47.8852 H   0  0  0  0  0  0  0  0  0  0  0  0
   35.3652   23.1898   48.6710 H   0  0  0  0  0  0  0  0  0  0  0  0
   34.1619   24.5982   47.0425 H   0  0  0  0  0  0  0  0  0  0  0  0
   33.3597   24.2521   48.5861 H   0  0  0  0  0  0  0  0  0  0  0  0
   34.1271   26.8504   47.2880 H   0  0  0  0  0  0  0  0  0  0  0  0
   33.0344   26.5319   48.7033 H   0  0  0  0  0  0  0  0  0  0  0  0
  2  1  2  0
  3  2  1  0
  4  3  2  0
  4  5  1  0
  5  6  2  0
  6  1  1  0
  7  8  2  0
  7  5  1  0
  1  9  1  0
  2 10  1  0
  3 11  1  0
 12 13  1  0
 13 14  1  0
 14 15  1  0
 15 16  1  0
 16 17  1  0
 17 12  1  0
 12 18  1  0
 13 19  1  0
 13 20  1  0
 14 21  1  0
 14 22  1  0
 15 23  1  0
 15 24  1  0
 16 25  1  0
 16 26  1  0
 17 27  1  0
 17 28  1  0
  7 12  1  0
M  ISO  3   9  14  10  14  11  14
M  END
>  <DihAtoms>  (1) 
7,6,11,12

>  <DihDeg>  (1) 
119.99403310228196

$$$$
