
     RDKit          3D

 55 59  0  0  0  0  0  0  0  0999 V2000
   36.9459   31.3848   47.3900 C   0  0  1  0  0  0  0  0  0  0  0  0
   38.1287   32.0033   48.0461 C   0  0  0  0  0  0  0  0  0  0  0  0
   38.4452   30.9013   47.1634 C   0  0  2  0  0  0  0  0  0  0  0  0
   39.1152   31.3719   45.9067 C   0  0  0  0  0  0  0  0  0  0  0  0
   39.6075   32.6739   46.0920 C   0  0  0  0  0  0  0  0  0  0  0  0
   40.3600   33.2653   45.1124 C   0  0  0  0  0  0  0  0  0  0  0  0
   40.6572   32.5997   43.9147 C   0  0  0  0  0  0  0  0  0  0  0  0
   40.1514   31.3155   43.7729 C   0  0  0  0  0  0  0  0  0  0  0  0
   40.3604   30.5696   42.6459 C   0  0  0  0  0  0  0  0  0  0  0  0
   39.8554   29.2954   42.4751 C   0  0  0  0  0  0  0  0  0  0  0  0
   39.0971   28.7456   43.5016 C   0  0  0  0  0  0  0  0  0  0  0  0
   38.8898   29.4983   44.6338 C   0  0  0  0  0  0  0  0  0  0  0  0
   39.4136   30.7641   44.7585 C   0  0  0  0  0  0  0  0  0  0  0  0
   34.4282   28.7604   48.3858 C   0  0  0  0  0  0  0  0  0  0  0  0
   35.1760   29.6822   47.5898 C   0  0  0  0  0  0  0  0  0  0  0  0
   36.1627   30.4097   48.1878 C   0  0  0  0  0  0  0  0  0  0  0  0
   36.3593   30.1893   49.5368 N   0  0  0  0  0  0  0  0  0  0  0  0
   35.6516   29.3242   50.2659 C   0  0  0  0  0  0  0  0  0  0  0  0
   34.6776   28.5969   49.7082 N   0  0  0  0  0  0  0  0  0  0  0  0
   35.9916   29.2021   51.7295 C   0  0  0  0  0  0  0  0  0  0  0  0
   37.3476   29.9045   51.9360 C   0  0  0  0  0  0  0  0  0  0  0  0
   36.5208   31.6990   46.4491 H   0  0  0  0  0  0  0  0  0  0  0  0
   38.1637   31.8063   49.1807 H   0  0  0  0  0  0  0  0  0  0  0  0
   38.1097   33.0788   47.8798 H   0  0  0  0  0  0  0  0  0  0  0  0
   38.4827   29.8420   47.3796 H   0  0  0  0  0  0  0  0  0  0  0  0
   39.5766   33.4181   46.8610 H   0  0  0  0  0  0  0  0  0  0  0  0
   40.8173   34.2468   45.0774 H   0  0  0  0  0  0  0  0  0  0  0  0
   41.2331   32.9419   43.0661 H   0  0  0  0  0  0  0  0  0  0  0  0
   40.9434   30.9509   41.8183 H   0  0  0  0  0  0  0  0  0  0  0  0
   40.0369   28.7280   41.5716 H   0  0  0  0  0  0  0  0  0  0  0  0
   38.6708   27.7551   43.4362 H   0  0  0  0  0  0  0  0  0  0  0  0
   38.2851   29.0409   45.4368 H   0  0  0  0  0  0  0  0  0  0  0  0
   33.6465   28.1890   47.8954 H   0  0  0  0  0  0  0  0  0  0  0  0
   34.9088   29.7442   46.5542 H   0  0  0  0  0  0  0  0  0  0  0  0
   35.2240   29.8261   52.2626 H   0  0  0  0  0  0  0  0  0  0  0  0
   36.0275   28.1671   52.0688 H   0  0  0  0  0  0  0  0  0  0  0  0
   38.0823   29.3674   51.3049 H   0  0  0  0  0  0  0  0  0  0  0  0
   37.2547   30.9400   51.5715 H   0  0  0  0  0  0  0  0  0  0  0  0
   37.7607   29.8245   53.3906 C   0  0  0  0  0  0  0  0  0  0  0  0
   37.2004   28.5668   53.9860 C   0  0  0  0  0  0  0  0  0  0  0  0
   37.8824   28.1103   55.2335 C   0  0  0  0  0  0  0  0  0  0  0  0
   38.8113   29.1967   55.7917 C   0  0  0  0  0  0  0  0  0  0  0  0
   39.8647   29.4016   54.7170 C   0  0  0  0  0  0  0  0  0  0  0  0
   39.2834   29.6958   53.3732 C   0  0  0  0  0  0  0  0  0  0  0  0
   37.4677   30.7410   53.9354 H   0  0  0  0  0  0  0  0  0  0  0  0
   37.3018   27.7753   53.2155 H   0  0  0  0  0  0  0  0  0  0  0  0
   36.1152   28.6648   54.2365 H   0  0  0  0  0  0  0  0  0  0  0  0
   38.5587   27.2591   55.0124 H   0  0  0  0  0  0  0  0  0  0  0  0
   37.1946   27.7393   56.0238 H   0  0  0  0  0  0  0  0  0  0  0  0
   38.1999   30.0778   55.9801 H   0  0  0  0  0  0  0  0  0  0  0  0
   39.3328   28.8378   56.6873 H   0  0  0  0  0  0  0  0  0  0  0  0
   40.5538   30.2317   54.9909 H   0  0  0  0  0  0  0  0  0  0  0  0
   40.4636   28.4782   54.6985 H   0  0  0  0  0  0  0  0  0  0  0  0
   39.6588   30.6578   52.9652 H   0  0  0  0  0  0  0  0  0  0  0  0
   39.5914   28.8981   52.6675 H   0  0  0  0  0  0  0  0  0  0  0  0
  1  2  1  0
  1 16  1  0
  3  1  1  0
  3  2  1  0
  4  5  2  0
  4  3  1  0
  6  5  1  0
  7  6  2  0
  8  7  1  0
  8 13  2  0
  9  8  1  0
 10  9  2  0
 10 11  1  0
 11 12  2  0
 12 13  1  0
 13  4  1  0
 14 19  2  0
 15 16  2  0
 15 14  1  0
 16 17  1  0
 17 18  2  0
 18 20  1  0
 19 18  1  0
 20 21  1  0
  1 22  1  6
  2 23  1  0
  2 24  1  0
  3 25  1  1
  5 26  1  0
  6 27  1  0
  7 28  1  0
  9 29  1  0
 10 30  1  0
 11 31  1  0
 12 32  1  0
 14 33  1  0
 15 34  1  0
 20 35  1  0
 20 36  1  0
 21 37  1  0
 21 38  1  0
 39 40  1  0
 40 41  1  0
 41 42  1  0
 42 43  1  0
 43 44  1  0
 44 39  1  0
 39 45  1  0
 40 46  1  0
 40 47  1  0
 41 48  1  0
 41 49  1  0
 42 50  1  0
 42 51  1  0
 43 52  1  0
 43 53  1  0
 44 54  1  0
 44 55  1  0
 21 39  1  0
M  ISO  8  22  13  23  13  24  13  25  13  26  14  27  14  28  14  29  14
M  ISO  8  30  14  31  14  32  14  33  14  34  14  35   8  36   8  37   8
M  ISO  1  38   8
M  END
>  <DihAtoms>  (1) 
19,20,38,39

>  <DihDeg>  (1) 
59.997534070513076

$$$$
