
     RDKit          3D

 32 33  0  0  0  0  0  0  0  0999 V2000
   35.5440   30.0970   46.4220 O   0  0  0  0  0  0  0  0  0  0  0  0
   34.3570   29.8130   47.3190 P   0  0  1  0  0  0  0  0  0  0  0  0
   34.2440   28.1440   47.6610 O   0  0  0  0  0  0  0  0  0  0  0  0
   34.5040   30.5710   48.8600 O   0  0  0  0  0  0  0  0  0  0  0  0
   35.6660   30.4770   49.6210 C   0  0  0  0  0  0  0  0  0  0  0  0
   35.8920   29.5240   50.6340 C   0  0  0  0  0  0  0  0  0  0  0  0
   37.1060   29.5670   51.2990 C   0  0  0  0  0  0  0  0  0  0  0  0
   38.0190   30.5120   50.9550 N   0  0  0  0  0  0  0  0  0  0  0  0
   37.7690   31.4170   49.9730 C   0  0  0  0  0  0  0  0  0  0  0  0
   36.5880   31.3950   49.3080 N   0  0  0  0  0  0  0  0  0  0  0  0
   32.9880   30.3800   46.5490 O   0  0  0  0  0  0  0  0  0  0  0  0
   32.1680   29.4390   45.9850 C   0  0  0  0  0  0  0  0  0  0  0  0
   32.5830   29.0950   44.5970 C   0  0  0  0  0  0  0  0  0  0  0  0
   31.4640   28.8390   43.6360 C   0  0  0  0  0  0  0  0  0  0  0  0
   30.2240   28.2710   44.2120 C   0  0  0  0  0  0  0  0  0  0  0  0
   29.9920   28.5030   45.6690 C   0  0  0  0  0  0  0  0  0  0  0  0
   30.7090   29.8250   45.9830 C   0  0  0  0  0  0  0  0  0  0  0  0
   34.2348   28.0080   48.6416 H   0  0  0  0  0  0  0  0  0  0  0  0
   35.1305   28.7719   50.8878 H   0  0  0  0  0  0  0  0  0  0  0  0
   37.3285   28.8436   52.0972 H   0  0  0  0  0  0  0  0  0  0  0  0
   38.5281   32.1707   49.7165 H   0  0  0  0  0  0  0  0  0  0  0  0
   32.2788   28.5563   46.6320 H   0  0  0  0  0  0  0  0  0  0  0  0
   33.1821   29.9302   44.2053 H   0  0  0  0  0  0  0  0  0  0  0  0
   33.1390   28.1489   44.6731 H   0  0  0  0  0  0  0  0  0  0  0  0
   31.8313   28.1374   42.8726 H   0  0  0  0  0  0  0  0  0  0  0  0
   31.1807   29.8272   43.2445 H   0  0  0  0  0  0  0  0  0  0  0  0
   29.3737   28.7056   43.6660 H   0  0  0  0  0  0  0  0  0  0  0  0
   30.3300   27.1812   44.1068 H   0  0  0  0  0  0  0  0  0  0  0  0
   28.9158   28.5878   45.8800 H   0  0  0  0  0  0  0  0  0  0  0  0
   30.3701   27.6729   46.2838 H   0  0  0  0  0  0  0  0  0  0  0  0
   30.5022   30.5786   45.2088 H   0  0  0  0  0  0  0  0  0  0  0  0
   30.3826   30.2761   46.9317 H   0  0  0  0  0  0  0  0  0  0  0  0
  2  1  2  0
  2  3  1  0
  2  4  1  0
  4  5  1  0
  5  6  2  0
  6  7  1  0
  8  7  2  0
  9  8  1  0
 10  5  1  0
 10  9  2  0
 11  2  1  0
 12 11  1  0
 13 12  1  0
 14 15  1  0
 14 13  1  0
 15 16  1  0
 16 17  1  0
 17 12  1  0
  3 18  1  0
  6 19  1  0
  7 20  1  0
  9 21  1  0
 12 22  1  0
 13 23  1  0
 13 24  1  0
 14 25  1  0
 14 26  1  0
 15 27  1  0
 15 28  1  0
 16 29  1  0
 16 30  1  0
 17 31  1  0
 17 32  1  0
M  ISO  8  18   3  19  14  20  14  21  14  22  13  23  13  24  13  25  13
M  ISO  7  26  13  27  13  28  13  29  13  30  13  31  13  32  13
M  END
>  <minimizedAffinity>  (1) 
-3.76488566

>  <minimizedRMSD>  (1) 
2.38875461

$$$$
