
     RDKit          3D

 45 47  0  0  0  0  0  0  0  0999 V2000
   38.1647   31.2423   44.9280 C   0  0  0  0  0  0  0  0  0  0  0  0
   37.3495   30.9341   45.9708 C   0  0  0  0  0  0  0  0  0  0  0  0
   36.1144   30.3408   45.7310 C   0  0  0  0  0  0  0  0  0  0  0  0
   35.6727   30.0497   44.4529 C   0  0  0  0  0  0  0  0  0  0  0  0
   36.4660   30.3504   43.3843 C   0  0  0  0  0  0  0  0  0  0  0  0
   37.6733   30.9307   43.6537 C   0  0  0  0  0  0  0  0  0  0  0  0
   38.6825   32.7809   48.8586 C   0  0  0  0  0  0  0  0  0  0  0  0
   38.3131   32.4425   47.5668 C   0  0  0  0  0  0  0  0  0  0  0  0
   37.7043   31.2464   47.3125 C   0  0  0  0  0  0  0  0  0  0  0  0
   37.4816   30.4277   48.3760 N   0  0  0  0  0  0  0  0  0  0  0  0
   37.8333   30.7528   49.6257 C   0  0  0  0  0  0  0  0  0  0  0  0
   38.4324   31.9244   49.8560 N   0  0  0  0  0  0  0  0  0  0  0  0
   37.4646   29.7911   50.6970 C   0  0  0  0  0  0  0  0  0  0  0  0
   37.7158   30.2965   51.9566 F   0  0  0  0  0  0  0  0  0  0  0  0
   36.0243   29.6425   50.7074 F   0  0  0  0  0  0  0  0  0  0  0  0
   37.8960   28.5565   50.5740 F   0  0  0  0  0  0  0  0  0  0  0  0
   39.7282   31.9362   45.0998 S   0  0  0  0  0  0  0  0  0  0  0  0
   39.6878   33.4034   44.8892 O   0  0  0  0  0  0  0  0  0  0  0  0
   40.2736   31.5851   43.7319 O   0  0  0  0  0  0  0  0  0  0  0  0
   41.1180   31.2240   45.7368 C   0  0  0  0  0  0  0  0  0  0  0  0
   35.4778   30.1003   46.5958 H   0  0  0  0  0  0  0  0  0  0  0  0
   34.7021   29.5895   44.3868 H   0  0  0  0  0  0  0  0  0  0  0  0
   36.0694   30.1039   42.4326 H   0  0  0  0  0  0  0  0  0  0  0  0
   38.2130   31.1259   42.7169 H   0  0  0  0  0  0  0  0  0  0  0  0
   39.1648   33.6630   49.2322 H   0  0  0  0  0  0  0  0  0  0  0  0
   38.5843   33.2925   46.9893 H   0  0  0  0  0  0  0  0  0  0  0  0
   41.2201   30.1459   45.5047 H   0  0  0  0  0  0  0  0  0  0  0  0
   40.8912   31.1254   46.8744 H   0  0  0  0  0  0  0  0  0  0  0  0
   42.3787   31.9909   45.7655 C   0  0  0  0  0  0  0  0  0  0  0  0
   41.9601   33.4435   45.5195 C   0  0  0  0  0  0  0  0  0  0  0  0
   43.1173   34.3320   45.2704 C   0  0  0  0  0  0  0  0  0  0  0  0
   44.0586   33.7930   44.2170 C   0  0  0  0  0  0  0  0  0  0  0  0
   44.5445   32.4289   44.5680 C   0  0  0  0  0  0  0  0  0  0  0  0
   43.3219   31.5118   44.6913 C   0  0  0  0  0  0  0  0  0  0  0  0
   42.8968   31.8709   46.7385 H   0  0  0  0  0  0  0  0  0  0  0  0
   41.2782   33.4243   44.6414 H   0  0  0  0  0  0  0  0  0  0  0  0
   41.4112   33.7680   46.4120 H   0  0  0  0  0  0  0  0  0  0  0  0
   43.6210   34.6596   46.1970 H   0  0  0  0  0  0  0  0  0  0  0  0
   42.7020   35.2810   44.8221 H   0  0  0  0  0  0  0  0  0  0  0  0
   44.9090   34.5062   44.1315 H   0  0  0  0  0  0  0  0  0  0  0  0
   43.5336   33.7751   43.2576 H   0  0  0  0  0  0  0  0  0  0  0  0
   45.1613   32.0618   43.7456 H   0  0  0  0  0  0  0  0  0  0  0  0
   45.0813   32.3888   45.5244 H   0  0  0  0  0  0  0  0  0  0  0  0
   42.8412   31.3573   43.7255 H   0  0  0  0  0  0  0  0  0  0  0  0
   43.7538   30.5490   45.0332 H   0  0  0  0  0  0  0  0  0  0  0  0
  1 17  1  0
  1  2  1  0
  2  9  1  0
  3  2  2  0
  4  3  1  0
  5  6  1  0
  5  4  2  0
  6  1  2  0
  7 12  2  0
  8  7  1  0
  9  8  2  0
  9 10  1  0
 10 11  2  0
 11 12  1  0
 11 13  1  0
 13 15  1  0
 13 14  1  0
 16 13  1  0
 17 20  1  0
 18 17  2  0
 19 17  2  0
  3 21  1  0
  4 22  1  0
  5 23  1  0
  6 24  1  0
  7 25  1  0
  8 26  1  0
 20 27  1  0
 20 28  1  0
 29 30  1  0
 30 31  1  0
 31 32  1  0
 32 33  1  0
 33 34  1  0
 34 29  1  0
 29 35  1  0
 30 36  1  0
 30 37  1  0
 31 38  1  0
 31 39  1  0
 32 40  1  0
 32 41  1  0
 33 42  1  0
 33 43  1  0
 34 44  1  0
 34 45  1  0
 20 29  1  0
M  ISO  8  21  14  22  14  23  14  24  14  25  14  26  14  27   8  28   8
M  END
>  <DihAtoms>  (1) 
16,19,28,29

>  <DihDeg>  (1) 
-179.84989336874213

$$$$
