
     RDKit          3D

 36 38  0  0  0  0  0  0  0  0999 V2000
   37.5617   31.6764   48.9407 C   0  0  0  0  0  0  0  0  0  0  0  0
   38.1829   32.7471   49.5073 C   0  0  0  0  0  0  0  0  0  0  0  0
   39.0554   33.5582   48.8238 C   0  0  0  0  0  0  0  0  0  0  0  0
   39.3574   33.3372   47.5161 C   0  0  0  0  0  0  0  0  0  0  0  0
   38.7104   32.2339   46.9507 C   0  0  0  0  0  0  0  0  0  0  0  0
   37.8533   31.4419   47.6319 N   0  0  0  0  0  0  0  0  0  0  0  0
   36.9543   30.1634   50.8671 C   0  0  0  0  0  0  0  0  0  0  0  0
   36.6387   30.8043   49.6462 C   0  0  0  0  0  0  0  0  0  0  0  0
   35.3878   30.5733   49.1187 C   0  0  0  0  0  0  0  0  0  0  0  0
   34.5270   29.7493   49.7906 N   0  0  0  0  0  0  0  0  0  0  0  0
   34.8642   29.1628   50.9423 C   0  0  0  0  0  0  0  0  0  0  0  0
   36.0704   29.3622   51.4871 N   0  0  0  0  0  0  0  0  0  0  0  0
   40.2035   34.0451   46.6884 O   0  0  0  0  0  0  0  0  0  0  0  0
   37.9759   32.9675   50.5508 H   0  0  0  0  0  0  0  0  0  0  0  0
   39.5320   34.3993   49.3001 H   0  0  0  0  0  0  0  0  0  0  0  0
   38.8839   31.9726   45.9119 H   0  0  0  0  0  0  0  0  0  0  0  0
   37.9458   30.3678   51.2521 H   0  0  0  0  0  0  0  0  0  0  0  0
   35.1105   31.0394   48.1969 H   0  0  0  0  0  0  0  0  0  0  0  0
   34.2148   28.5039   51.5069 H   0  0  0  0  0  0  0  0  0  0  0  0
   40.9383   35.1653   47.0491 C   0  0  0  0  0  0  0  0  0  0  0  0
   41.1678   36.1092   45.8609 C   0  0  0  0  0  0  0  0  0  0  0  0
   41.6964   37.3894   46.4339 C   0  0  0  0  0  0  0  0  0  0  0  0
   42.9879   37.2104   47.1891 C   0  0  0  0  0  0  0  0  0  0  0  0
   42.9851   36.0115   48.0983 C   0  0  0  0  0  0  0  0  0  0  0  0
   42.3613   34.7990   47.4911 C   0  0  0  0  0  0  0  0  0  0  0  0
   40.4309   35.7392   47.8284 H   0  0  0  0  0  0  0  0  0  0  0  0
   41.9586   35.7033   45.1814 H   0  0  0  0  0  0  0  0  0  0  0  0
   40.2310   36.3356   45.3319 H   0  0  0  0  0  0  0  0  0  0  0  0
   40.9496   37.8100   47.1374 H   0  0  0  0  0  0  0  0  0  0  0  0
   41.8913   38.1398   45.6382 H   0  0  0  0  0  0  0  0  0  0  0  0
   43.1147   38.1103   47.8326 H   0  0  0  0  0  0  0  0  0  0  0  0
   43.8697   37.1941   46.5132 H   0  0  0  0  0  0  0  0  0  0  0  0
   42.4824   36.2516   49.0488 H   0  0  0  0  0  0  0  0  0  0  0  0
   44.0439   35.7694   48.3277 H   0  0  0  0  0  0  0  0  0  0  0  0
   42.8987   34.5097   46.5859 H   0  0  0  0  0  0  0  0  0  0  0  0
   42.2863   34.0204   48.2561 H   0  0  0  0  0  0  0  0  0  0  0  0
  1  2  2  0
  1  8  1  0
  3  2  1  0
  4  3  2  0
  5  4  1  0
  5  6  2  0
  6  1  1  0
  7 12  2  0
  8  7  1  0
  9  8  2  0
  9 10  1  0
 10 11  2  0
 11 12  1  0
 13  4  1  0
  2 14  1  0
  3 15  1  0
  5 16  1  0
  7 17  1  0
  9 18  1  0
 11 19  1  0
 20 21  1  0
 21 22  1  0
 22 23  1  0
 23 24  1  0
 24 25  1  0
 25 20  1  0
 20 26  1  0
 21 27  1  0
 21 28  1  0
 22 29  1  0
 22 30  1  0
 23 31  1  0
 23 32  1  0
 24 33  1  0
 24 34  1  0
 25 35  1  0
 25 36  1  0
 13 20  1  0
M  ISO  6  14  14  15  14  16  14  17  14  18  14  19  14
M  END
>  <DihAtoms>  (1) 
3,12,19,20

>  <DihDeg>  (1) 
-120.20839623057962

$$$$
