
     RDKit          3D

 45 48  0  0  0  0  0  0  0  0999 V2000
   37.6763   31.2979   48.2023 C   0  0  0  0  0  0  0  0  0  0  0  0
   38.5362   32.3100   48.0870 C   0  0  0  0  0  0  0  0  0  0  0  0
   38.9251   32.7086   46.8678 C   0  0  0  0  0  0  0  0  0  0  0  0
   38.4103   32.0442   45.7809 C   0  0  0  0  0  0  0  0  0  0  0  0
   37.3247   30.7993   46.5746 S   0  0  0  0  0  0  0  0  0  0  0  0
   41.1542   31.2360   44.7221 Cl  0  0  0  0  0  0  0  0  0  0  0  0
   39.7859   31.8269   43.8095 C   0  0  0  0  0  0  0  0  0  0  0  0
   38.5795   32.1721   44.3533 C   0  0  0  0  0  0  0  0  0  0  0  0
   37.5090   32.6277   43.6910 C   0  0  0  0  0  0  0  0  0  0  0  0
   37.6085   32.7750   42.2985 C   0  0  0  0  0  0  0  0  0  0  0  0
   38.7748   32.4529   41.6836 C   0  0  0  0  0  0  0  0  0  0  0  0
   38.9523   32.6175   39.9512 Cl  0  0  0  0  0  0  0  0  0  0  0  0
   39.8613   31.9822   42.4192 C   0  0  0  0  0  0  0  0  0  0  0  0
   37.1591   29.9213   51.6765 C   0  0  0  0  0  0  0  0  0  0  0  0
   37.7887   30.5546   50.5925 C   0  0  0  0  0  0  0  0  0  0  0  0
   37.0739   30.6446   49.3826 C   0  0  0  0  0  0  0  0  0  0  0  0
   35.8545   30.1329   49.3256 N   0  0  0  0  0  0  0  0  0  0  0  0
   35.2695   29.5324   50.3693 C   0  0  0  0  0  0  0  0  0  0  0  0
   35.9185   29.4308   51.5277 N   0  0  0  0  0  0  0  0  0  0  0  0
   33.9276   29.0051   50.1983 C   0  0  0  0  0  0  0  0  0  0  0  0
   33.6533   28.3111   49.1936 O   0  0  0  0  0  0  0  0  0  0  0  0
   38.8920   32.7775   49.0007 H   0  0  0  0  0  0  0  0  0  0  0  0
   39.6123   33.5097   46.6222 H   0  0  0  0  0  0  0  0  0  0  0  0
   36.5520   32.9027   44.1129 H   0  0  0  0  0  0  0  0  0  0  0  0
   36.8085   33.1304   41.6890 H   0  0  0  0  0  0  0  0  0  0  0  0
   40.7734   31.7372   41.8855 H   0  0  0  0  0  0  0  0  0  0  0  0
   37.7482   29.8785   52.5791 H   0  0  0  0  0  0  0  0  0  0  0  0
   38.7920   30.9807   50.6239 H   0  0  0  0  0  0  0  0  0  0  0  0
   32.8916   29.2977   51.2234 C   0  0  0  0  0  0  0  0  0  0  0  0
   32.6326   28.0665   52.0873 C   0  0  0  0  0  0  0  0  0  0  0  0
   31.4160   28.4415   52.9419 C   0  0  0  0  0  0  0  0  0  0  0  0
   31.8927   29.4981   53.8946 C   0  0  0  0  0  0  0  0  0  0  0  0
   32.4729   30.7118   53.2468 C   0  0  0  0  0  0  0  0  0  0  0  0
   33.3692   30.4429   52.0792 C   0  0  0  0  0  0  0  0  0  0  0  0
   31.9278   29.5574   50.7798 H   0  0  0  0  0  0  0  0  0  0  0  0
   33.4423   27.8925   52.8239 H   0  0  0  0  0  0  0  0  0  0  0  0
   32.4317   27.2119   51.4400 H   0  0  0  0  0  0  0  0  0  0  0  0
   31.0659   27.5878   53.5425 H   0  0  0  0  0  0  0  0  0  0  0  0
   30.6389   28.8785   52.2776 H   0  0  0  0  0  0  0  0  0  0  0  0
   30.9853   29.8436   54.4568 H   0  0  0  0  0  0  0  0  0  0  0  0
   32.5550   29.0540   54.6649 H   0  0  0  0  0  0  0  0  0  0  0  0
   31.6769   31.4407   52.9759 H   0  0  0  0  0  0  0  0  0  0  0  0
   33.0789   31.2326   54.0277 H   0  0  0  0  0  0  0  0  0  0  0  0
   33.3793   31.3504   51.4408 H   0  0  0  0  0  0  0  0  0  0  0  0
   34.4057   30.3068   52.4327 H   0  0  0  0  0  0  0  0  0  0  0  0
  1 16  1  0
  2  1  2  0
  3  2  1  0
  4  5  1  0
  4  3  2  0
  5  1  1  0
  7  8  2  0
  7  6  1  0
  8  4  1  0
  9  8  1  0
 10  9  2  0
 11 10  1  0
 11 13  2  0
 12 11  1  0
 13  7  1  0
 15 14  2  0
 16 15  1  0
 17 16  2  0
 17 18  1  0
 18 19  2  0
 19 14  1  0
 20 18  1  0
 21 20  2  0
  2 22  1  0
  3 23  1  0
  9 24  1  0
 10 25  1  0
 13 26  1  0
 14 27  1  0
 15 28  1  0
 29 30  1  0
 30 31  1  0
 31 32  1  0
 32 33  1  0
 33 34  1  0
 34 29  1  0
 29 35  1  0
 30 36  1  0
 30 37  1  0
 31 38  1  0
 31 39  1  0
 32 40  1  0
 32 41  1  0
 33 42  1  0
 33 43  1  0
 34 44  1  0
 34 45  1  0
 20 29  1  0
M  ISO  7  22  14  23  14  24  14  25  14  26  14  27  14  28  14
M  END
>  <DihAtoms>  (1) 
17,19,28,29

>  <DihDeg>  (1) 
-60.00575073300773

$$$$
