
     RDKit          3D

 28 29  0  0  0  0  0  0  0  0999 V2000
   37.2613   30.1772   51.4448 C   0  0  0  0  0  0  0  0  0  0  0  0
   38.0925   30.7529   50.4478 C   0  0  0  0  0  0  0  0  0  0  0  0
   37.8017   30.4929   49.0907 C   0  0  0  0  0  0  0  0  0  0  0  0
   36.7406   29.7049   48.8216 N   0  0  0  0  0  0  0  0  0  0  0  0
   35.9745   29.1757   49.7818 C   0  0  0  0  0  0  0  0  0  0  0  0
   36.2167   29.3978   51.0696 N   0  0  0  0  0  0  0  0  0  0  0  0
   34.8251   28.3199   49.5133 C   0  0  0  0  0  0  0  0  0  0  0  0
   33.6377   28.7116   49.5493 O   0  0  0  0  0  0  0  0  0  0  0  0
   37.5490   30.4230   52.4575 H   0  0  0  0  0  0  0  0  0  0  0  0
   38.9360   31.3807   50.7027 H   0  0  0  0  0  0  0  0  0  0  0  0
   38.4303   30.9280   48.3253 H   0  0  0  0  0  0  0  0  0  0  0  0
   35.1072   26.9022   49.1794 C   0  0  0  0  0  0  0  0  0  0  0  0
   35.8391   26.1868   50.2823 C   0  0  0  0  0  0  0  0  0  0  0  0
   36.4486   24.9414   49.6916 C   0  0  0  0  0  0  0  0  0  0  0  0
   35.5451   24.3030   48.6928 C   0  0  0  0  0  0  0  0  0  0  0  0
   34.0982   24.6639   48.8558 C   0  0  0  0  0  0  0  0  0  0  0  0
   33.8287   26.1225   48.9302 C   0  0  0  0  0  0  0  0  0  0  0  0
   35.7197   26.7879   48.2630 H   0  0  0  0  0  0  0  0  0  0  0  0
   36.5801   26.8251   50.7877 H   0  0  0  0  0  0  0  0  0  0  0  0
   35.0543   25.8206   51.0050 H   0  0  0  0  0  0  0  0  0  0  0  0
   36.8264   24.2408   50.4588 H   0  0  0  0  0  0  0  0  0  0  0  0
   37.3492   25.2829   49.1137 H   0  0  0  0  0  0  0  0  0  0  0  0
   35.8433   24.4667   47.6442 H   0  0  0  0  0  0  0  0  0  0  0  0
   35.6001   23.1927   48.8569 H   0  0  0  0  0  0  0  0  0  0  0  0
   33.5905   24.2769   47.9241 H   0  0  0  0  0  0  0  0  0  0  0  0
   33.6681   24.0553   49.6821 H   0  0  0  0  0  0  0  0  0  0  0  0
   33.3679   26.5302   48.0060 H   0  0  0  0  0  0  0  0  0  0  0  0
   33.1280   26.2944   49.7907 H   0  0  0  0  0  0  0  0  0  0  0  0
  2  1  2  0
  3  2  1  0
  4  3  2  0
  4  5  1  0
  5  6  2  0
  6  1  1  0
  7  8  2  0
  7  5  1  0
  1  9  1  0
  2 10  1  0
  3 11  1  0
 12 13  1  0
 13 14  1  0
 14 15  1  0
 15 16  1  0
 16 17  1  0
 17 12  1  0
 12 18  1  0
 13 19  1  0
 13 20  1  0
 14 21  1  0
 14 22  1  0
 15 23  1  0
 15 24  1  0
 16 25  1  0
 16 26  1  0
 17 27  1  0
 17 28  1  0
  7 12  1  0
M  ISO  3   9  14  10  14  11  14
M  END
>  <DihAtoms>  (1) 
7,6,11,12

>  <DihDeg>  (1) 
119.99403310228196

$$$$
