
     RDKit          3D

 37 39  0  0  0  0  0  0  0  0999 V2000
   35.8240   29.1300   49.8010 C   0  0  0  0  0  0  0  0  0  0  0  0
   34.8240   29.6440   50.5680 C   0  0  0  0  0  0  0  0  0  0  0  0
   33.6200   29.0930   50.1000 C   0  0  0  0  0  0  0  0  0  0  0  0
   33.9880   28.2530   49.0420 C   0  0  0  0  0  0  0  0  0  0  0  0
   35.2730   28.3250   48.9280 O   0  0  0  0  0  0  0  0  0  0  0  0
   37.2130   29.4760   49.9960 C   0  0  0  0  0  0  0  0  0  0  0  0
   37.8620   28.8460   50.8600 O   0  0  0  0  0  0  0  0  0  0  0  0
   37.7710   30.5300   49.1810 C   0  0  0  0  0  0  0  0  0  0  0  0
   38.1290   31.7090   49.8200 C   0  0  0  0  0  0  0  0  0  0  0  0
   38.6670   32.7340   49.0570 C   0  0  0  0  0  0  0  0  0  0  0  0
   38.8180   32.5380   47.7220 N   0  0  0  0  0  0  0  0  0  0  0  0
   38.4640   31.3870   47.1230 C   0  0  0  0  0  0  0  0  0  0  0  0
   37.9450   30.3920   47.8500 N   0  0  0  0  0  0  0  0  0  0  0  0
   33.0450   27.4600   48.2450 C   0  0  0  0  0  0  0  0  0  0  0  0
   33.4570   26.4400   47.6120 O   0  0  0  0  0  0  0  0  0  0  0  0
   31.6210   27.8910   48.2100 C   0  0  0  0  0  0  0  0  0  0  0  0
   30.7230   26.7420   48.5610 C   0  0  0  0  0  0  0  0  0  0  0  0
   29.2970   26.9370   48.1220 C   0  0  0  0  0  0  0  0  0  0  0  0
   29.1810   27.4310   46.7070 C   0  0  0  0  0  0  0  0  0  0  0  0
   29.8790   28.7880   46.6950 C   0  0  0  0  0  0  0  0  0  0  0  0
   31.3600   28.4890   46.8750 C   0  0  0  0  0  0  0  0  0  0  0  0
   34.9375   30.3568   51.3981 H   0  0  0  0  0  0  0  0  0  0  0  0
   32.6059   29.2809   50.4824 H   0  0  0  0  0  0  0  0  0  0  0  0
   37.9894   31.8272   50.9047 H   0  0  0  0  0  0  0  0  0  0  0  0
   38.9649   33.6849   49.5229 H   0  0  0  0  0  0  0  0  0  0  0  0
   38.6010   31.2646   46.0385 H   0  0  0  0  0  0  0  0  0  0  0  0
   31.4058   28.6610   48.9655 H   0  0  0  0  0  0  0  0  0  0  0  0
   31.1146   25.8344   48.0784 H   0  0  0  0  0  0  0  0  0  0  0  0
   30.7151   26.6618   49.6580 H   0  0  0  0  0  0  0  0  0  0  0  0
   28.7709   25.9743   48.2015 H   0  0  0  0  0  0  0  0  0  0  0  0
   28.8530   27.7024   48.7755 H   0  0  0  0  0  0  0  0  0  0  0  0
   29.6782   26.7360   46.0144 H   0  0  0  0  0  0  0  0  0  0  0  0
   28.1322   27.5067   46.3840 H   0  0  0  0  0  0  0  0  0  0  0  0
   29.7046   29.3009   45.7376 H   0  0  0  0  0  0  0  0  0  0  0  0
   29.4981   29.4482   47.4881 H   0  0  0  0  0  0  0  0  0  0  0  0
   31.6826   27.7837   46.0950 H   0  0  0  0  0  0  0  0  0  0  0  0
   31.9213   29.4317   46.7960 H   0  0  0  0  0  0  0  0  0  0  0  0
  1  6  1  0
  1  2  2  0
  3  2  1  0
  4  3  2  0
  5  4  1  0
  5  1  1  0
  6  7  2  0
  8  9  2  0
  8  6  1  0
 10  9  1  0
 11 10  2  0
 12 11  1  0
 12 13  2  0
 13  8  1  0
 14  4  1  0
 15 14  2  0
 16 14  1  0
 16 17  1  0
 18 17  1  0
 19 18  1  0
 20 19  1  0
 20 21  1  0
 21 16  1  0
  2 22  1  0
  3 23  1  0
  9 24  1  0
 10 25  1  0
 12 26  1  0
 16 27  1  0
 17 28  1  0
 17 29  1  0
 18 30  1  0
 18 31  1  0
 19 32  1  0
 19 33  1  0
 20 34  1  0
 20 35  1  0
 21 36  1  0
 21 37  1  0
M  ISO  8  22  14  23  14  24  14  25  14  26  14  27  13  28  13  29  13
M  ISO  8  30  13  31  13  32  13  33  13  34  13  35  13  36  13  37  13
M  END
>  <minimizedAffinity>  (1) 
-5.42728519

>  <minimizedRMSD>  (1) 
3.2043829

$$$$
