
     RDKit          3D

 36 38  0  0  0  0  0  0  0  0999 V2000
   37.9198   30.8738   46.7310 C   0  0  0  0  0  0  0  0  0  0  0  0
   38.0525   31.0304   48.1378 C   0  0  0  0  0  0  0  0  0  0  0  0
   36.9338   30.8110   48.9278 C   0  0  0  0  0  0  0  0  0  0  0  0
   35.7740   30.4591   48.3152 N   0  0  0  0  0  0  0  0  0  0  0  0
   35.6663   30.3154   46.9833 C   0  0  0  0  0  0  0  0  0  0  0  0
   36.7558   30.5281   46.2035 N   0  0  0  0  0  0  0  0  0  0  0  0
   39.0932   31.1043   45.9079 C   0  0  0  0  0  0  0  0  0  0  0  0
   39.9060   32.2160   45.9020 C   0  0  0  0  0  0  0  0  0  0  0  0
   40.9339   32.0386   44.9560 C   0  0  0  0  0  0  0  0  0  0  0  0
   40.6868   30.7984   44.4228 N   0  0  0  0  0  0  0  0  0  0  0  0
   39.6147   30.2647   44.9835 N   0  0  0  0  0  0  0  0  0  0  0  0
   37.0562   30.9712   50.4055 C   0  0  0  0  0  0  0  0  0  0  0  0
   36.5504   32.2355   50.6784 F   0  0  0  0  0  0  0  0  0  0  0  0
   36.3054   30.0576   51.1053 F   0  0  0  0  0  0  0  0  0  0  0  0
   38.3751   30.9500   50.8289 F   0  0  0  0  0  0  0  0  0  0  0  0
   39.0193   31.3164   48.5636 H   0  0  0  0  0  0  0  0  0  0  0  0
   34.7293   30.0345   46.5286 H   0  0  0  0  0  0  0  0  0  0  0  0
   39.8182   33.1055   46.5012 H   0  0  0  0  0  0  0  0  0  0  0  0
   41.7410   32.7234   44.7017 H   0  0  0  0  0  0  0  0  0  0  0  0
   41.5289   30.2439   43.4052 C   0  0  0  0  0  0  0  0  0  0  0  0
   42.9709   30.4309   43.7447 C   0  0  0  0  0  0  0  0  0  0  0  0
   43.8792   30.3524   42.5438 C   0  0  0  0  0  0  0  0  0  0  0  0
   43.3186   29.5990   41.3824 C   0  0  0  0  0  0  0  0  0  0  0  0
   41.9049   29.9673   41.0163 C   0  0  0  0  0  0  0  0  0  0  0  0
   41.2886   30.8976   42.0454 C   0  0  0  0  0  0  0  0  0  0  0  0
   41.3650   29.1415   43.2981 H   0  0  0  0  0  0  0  0  0  0  0  0
   43.2759   29.6812   44.5151 H   0  0  0  0  0  0  0  0  0  0  0  0
   43.0957   31.4295   44.2121 H   0  0  0  0  0  0  0  0  0  0  0  0
   44.7982   29.8153   42.8574 H   0  0  0  0  0  0  0  0  0  0  0  0
   44.1888   31.3710   42.2252 H   0  0  0  0  0  0  0  0  0  0  0  0
   43.4648   28.4966   41.4879 H   0  0  0  0  0  0  0  0  0  0  0  0
   43.9499   29.8720   40.4957 H   0  0  0  0  0  0  0  0  0  0  0  0
   41.8042   30.3597   39.9905 H   0  0  0  0  0  0  0  0  0  0  0  0
   41.2816   29.0372   41.0437 H   0  0  0  0  0  0  0  0  0  0  0  0
   41.8511   31.8583   41.9703 H   0  0  0  0  0  0  0  0  0  0  0  0
   40.2172   31.0000   41.8256 H   0  0  0  0  0  0  0  0  0  0  0  0
  1  2  2  0
  2  3  1  0
  3 12  1  0
  4  3  2  0
  5  4  1  0
  6  1  1  0
  6  5  2  0
  7  1  1  0
  8  7  1  0
  9  8  2  0
 10  9  1  0
 10 11  1  0
 11  7  2  0
 12 13  1  0
 12 15  1  0
 12 14  1  0
  2 16  1  0
  5 17  1  0
  8 18  1  0
  9 19  1  0
 20 21  1  0
 21 22  1  0
 22 23  1  0
 23 24  1  0
 24 25  1  0
 25 20  1  0
 20 26  1  0
 21 27  1  0
 21 28  1  0
 22 29  1  0
 22 30  1  0
 23 31  1  0
 23 32  1  0
 24 33  1  0
 24 34  1  0
 25 35  1  0
 25 36  1  0
 10 20  1  0
M  ISO  4  16  14  17  14  18  14  19  14
M  END
>  <DihAtoms>  (1) 
8,9,19,20

>  <DihDeg>  (1) 
-89.72970187134267

$$$$
