
     RDKit          3D

 28 29  0  0  0  0  0  0  0  0999 V2000
   37.2613   30.1772   51.4448 C   0  0  0  0  0  0  0  0  0  0  0  0
   38.0925   30.7529   50.4478 C   0  0  0  0  0  0  0  0  0  0  0  0
   37.8017   30.4929   49.0907 C   0  0  0  0  0  0  0  0  0  0  0  0
   36.7406   29.7049   48.8216 N   0  0  0  0  0  0  0  0  0  0  0  0
   35.9745   29.1757   49.7818 C   0  0  0  0  0  0  0  0  0  0  0  0
   36.2167   29.3978   51.0696 N   0  0  0  0  0  0  0  0  0  0  0  0
   34.8251   28.3199   49.5133 C   0  0  0  0  0  0  0  0  0  0  0  0
   33.6377   28.7116   49.5493 O   0  0  0  0  0  0  0  0  0  0  0  0
   37.5490   30.4230   52.4575 H   0  0  0  0  0  0  0  0  0  0  0  0
   38.9360   31.3807   50.7027 H   0  0  0  0  0  0  0  0  0  0  0  0
   38.4303   30.9280   48.3253 H   0  0  0  0  0  0  0  0  0  0  0  0
   35.1072   26.9022   49.1794 C   0  0  0  0  0  0  0  0  0  0  0  0
   34.7976   25.9708   50.3198 C   0  0  0  0  0  0  0  0  0  0  0  0
   35.5097   24.6698   50.0517 C   0  0  0  0  0  0  0  0  0  0  0  0
   35.4811   24.3108   48.6053 C   0  0  0  0  0  0  0  0  0  0  0  0
   34.3687   24.9582   47.8346 C   0  0  0  0  0  0  0  0  0  0  0  0
   34.2785   26.4316   47.9976 C   0  0  0  0  0  0  0  0  0  0  0  0
   36.1654   26.7263   48.9014 H   0  0  0  0  0  0  0  0  0  0  0  0
   35.0492   26.3993   51.3021 H   0  0  0  0  0  0  0  0  0  0  0  0
   33.6982   25.7289   50.2487 H   0  0  0  0  0  0  0  0  0  0  0  0
   35.1786   23.8519   50.7177 H   0  0  0  0  0  0  0  0  0  0  0  0
   36.5900   24.8527   50.2991 H   0  0  0  0  0  0  0  0  0  0  0  0
   36.4342   24.4820   48.0783 H   0  0  0  0  0  0  0  0  0  0  0  0
   35.2900   23.2054   48.5410 H   0  0  0  0  0  0  0  0  0  0  0  0
   34.6046   24.7555   46.7489 H   0  0  0  0  0  0  0  0  0  0  0  0
   33.4268   24.3974   48.0258 H   0  0  0  0  0  0  0  0  0  0  0  0
   34.6271   26.9929   47.1053 H   0  0  0  0  0  0  0  0  0  0  0  0
   33.2017   26.6865   48.1882 H   0  0  0  0  0  0  0  0  0  0  0  0
  2  1  2  0
  3  2  1  0
  4  3  2  0
  4  5  1  0
  5  6  2  0
  6  1  1  0
  7  8  2  0
  7  5  1  0
  1  9  1  0
  2 10  1  0
  3 11  1  0
 12 13  1  0
 13 14  1  0
 14 15  1  0
 15 16  1  0
 16 17  1  0
 17 12  1  0
 12 18  1  0
 13 19  1  0
 13 20  1  0
 14 21  1  0
 14 22  1  0
 15 23  1  0
 15 24  1  0
 16 25  1  0
 16 26  1  0
 17 27  1  0
 17 28  1  0
  7 12  1  0
M  ISO  3   9  14  10  14  11  14
M  END
>  <DihAtoms>  (1) 
7,6,11,12

>  <DihDeg>  (1) 
119.99403310228196

$$$$
