
     RDKit          3D

 36 38  0  0  0  0  0  0  0  0999 V2000
   38.8920   30.9180   45.8370 C   0  0  0  0  0  0  0  0  0  0  0  0
   40.0610   31.5910   46.1180 C   0  0  0  0  0  0  0  0  0  0  0  0
   40.9150   31.5310   45.0000 C   0  0  0  0  0  0  0  0  0  0  0  0
   40.2040   30.8070   44.0750 N   0  0  0  0  0  0  0  0  0  0  0  0
   39.0310   30.4570   44.5720 N   0  0  0  0  0  0  0  0  0  0  0  0
   37.7470   30.7380   46.7110 C   0  0  0  0  0  0  0  0  0  0  0  0
   37.9390   30.9230   48.1070 C   0  0  0  0  0  0  0  0  0  0  0  0
   36.8470   30.7520   48.9450 C   0  0  0  0  0  0  0  0  0  0  0  0
   35.6550   30.4160   48.3860 N   0  0  0  0  0  0  0  0  0  0  0  0
   35.4910   30.2440   47.0630 C   0  0  0  0  0  0  0  0  0  0  0  0
   36.5550   30.4100   46.2370 N   0  0  0  0  0  0  0  0  0  0  0  0
   37.0310   30.9420   50.4130 C   0  0  0  0  0  0  0  0  0  0  0  0
   36.5330   32.2110   50.6800 F   0  0  0  0  0  0  0  0  0  0  0  0
   36.3140   30.0420   51.1620 F   0  0  0  0  0  0  0  0  0  0  0  0
   38.3670   30.9330   50.7800 F   0  0  0  0  0  0  0  0  0  0  0  0
   40.7430   30.5230   42.7790 C   0  0  0  0  0  0  0  0  0  0  0  0
   40.0690   31.3440   41.7290 C   0  0  0  0  0  0  0  0  0  0  0  0
   40.2000   30.7610   40.3450 C   0  0  0  0  0  0  0  0  0  0  0  0
   41.3610   29.8390   40.1590 C   0  0  0  0  0  0  0  0  0  0  0  0
   41.5220   28.8050   41.2410 C   0  0  0  0  0  0  0  0  0  0  0  0
   40.5700   29.0550   42.3960 C   0  0  0  0  0  0  0  0  0  0  0  0
   40.2912   32.0963   47.0675 H   0  0  0  0  0  0  0  0  0  0  0  0
   41.9203   31.9644   44.8924 H   0  0  0  0  0  0  0  0  0  0  0  0
   38.9254   31.1941   48.5113 H   0  0  0  0  0  0  0  0  0  0  0  0
   34.5064   29.9720   46.6548 H   0  0  0  0  0  0  0  0  0  0  0  0
   41.8144   30.7660   42.8346 H   0  0  0  0  0  0  0  0  0  0  0  0
   39.0000   31.4196   41.9769 H   0  0  0  0  0  0  0  0  0  0  0  0
   40.5608   32.3279   41.7174 H   0  0  0  0  0  0  0  0  0  0  0  0
   39.2798   30.2014   40.1212 H   0  0  0  0  0  0  0  0  0  0  0  0
   40.3683   31.6104   39.6667 H   0  0  0  0  0  0  0  0  0  0  0  0
   41.2323   29.3149   39.2005 H   0  0  0  0  0  0  0  0  0  0  0  0
   42.2642   30.4660   40.1912 H   0  0  0  0  0  0  0  0  0  0  0  0
   41.3173   27.8104   40.8181 H   0  0  0  0  0  0  0  0  0  0  0  0
   42.5516   28.8638   41.6238 H   0  0  0  0  0  0  0  0  0  0  0  0
   39.5329   28.8617   42.0843 H   0  0  0  0  0  0  0  0  0  0  0  0
   40.7864   28.3904   43.2454 H   0  0  0  0  0  0  0  0  0  0  0  0
  1  2  1  0
  1  6  1  0
  3  2  2  0
  4  5  1  0
  4  3  1  0
  5  1  2  0
  6  7  2  0
  7  8  1  0
  8 12  1  0
  9  8  2  0
 10  9  1  0
 11  6  1  0
 11 10  2  0
 12 13  1  0
 12 15  1  0
 12 14  1  0
 16  4  1  0
 17 16  1  0
 18 17  1  0
 19 18  1  0
 19 20  1  0
 20 21  1  0
 21 16  1  0
  2 22  1  0
  3 23  1  0
  7 24  1  0
 10 25  1  0
 16 26  1  0
 17 27  1  0
 17 28  1  0
 18 29  1  0
 18 30  1  0
 19 31  1  0
 19 32  1  0
 20 33  1  0
 20 34  1  0
 21 35  1  0
 21 36  1  0
M  ISO  8  22  14  23  14  24  14  25  14  26  13  27  13  28  13  29  13
M  ISO  7  30  13  31  13  32  13  33  13  34  13  35  13  36  13
M  END
>  <minimizedAffinity>  (1) 
-6.07025719

>  <minimizedRMSD>  (1) 
1.14268172

$$$$
