
     RDKit          3D

 28 29  0  0  0  0  0  0  0  0999 V2000
   37.2613   30.1772   51.4448 C   0  0  0  0  0  0  0  0  0  0  0  0
   38.0925   30.7529   50.4478 C   0  0  0  0  0  0  0  0  0  0  0  0
   37.8017   30.4929   49.0907 C   0  0  0  0  0  0  0  0  0  0  0  0
   36.7406   29.7049   48.8216 N   0  0  0  0  0  0  0  0  0  0  0  0
   35.9745   29.1757   49.7818 C   0  0  0  0  0  0  0  0  0  0  0  0
   36.2167   29.3978   51.0696 N   0  0  0  0  0  0  0  0  0  0  0  0
   34.8251   28.3199   49.5133 C   0  0  0  0  0  0  0  0  0  0  0  0
   33.6377   28.7116   49.5493 O   0  0  0  0  0  0  0  0  0  0  0  0
   37.5490   30.4230   52.4575 H   0  0  0  0  0  0  0  0  0  0  0  0
   38.9360   31.3807   50.7027 H   0  0  0  0  0  0  0  0  0  0  0  0
   38.4303   30.9280   48.3253 H   0  0  0  0  0  0  0  0  0  0  0  0
   35.1072   26.9022   49.1794 C   0  0  0  0  0  0  0  0  0  0  0  0
   36.5512   26.6718   48.8248 C   0  0  0  0  0  0  0  0  0  0  0  0
   36.6373   25.3543   48.0980 C   0  0  0  0  0  0  0  0  0  0  0  0
   35.7137   24.3395   48.6801 C   0  0  0  0  0  0  0  0  0  0  0  0
   35.3186   24.6134   50.1012 C   0  0  0  0  0  0  0  0  0  0  0  0
   34.7944   25.9814   50.3451 C   0  0  0  0  0  0  0  0  0  0  0  0
   34.5055   26.5315   48.3258 H   0  0  0  0  0  0  0  0  0  0  0  0
   36.9886   27.5037   48.2516 H   0  0  0  0  0  0  0  0  0  0  0  0
   37.1001   26.5121   49.7972 H   0  0  0  0  0  0  0  0  0  0  0  0
   37.6756   24.9932   47.9817 H   0  0  0  0  0  0  0  0  0  0  0  0
   36.2591   25.5500   47.0586 H   0  0  0  0  0  0  0  0  0  0  0  0
   34.8065   24.1576   48.0807 H   0  0  0  0  0  0  0  0  0  0  0  0
   36.2665   23.3615   48.7032 H   0  0  0  0  0  0  0  0  0  0  0  0
   34.4794   23.8897   50.3191 H   0  0  0  0  0  0  0  0  0  0  0  0
   36.1466   24.2919   50.7715 H   0  0  0  0  0  0  0  0  0  0  0  0
   33.6955   26.0077   50.5013 H   0  0  0  0  0  0  0  0  0  0  0  0
   35.3007   26.3796   51.2649 H   0  0  0  0  0  0  0  0  0  0  0  0
  2  1  2  0
  3  2  1  0
  4  3  2  0
  4  5  1  0
  5  6  2  0
  6  1  1  0
  7  8  2  0
  7  5  1  0
  1  9  1  0
  2 10  1  0
  3 11  1  0
 12 13  1  0
 13 14  1  0
 14 15  1  0
 15 16  1  0
 16 17  1  0
 17 12  1  0
 12 18  1  0
 13 19  1  0
 13 20  1  0
 14 21  1  0
 14 22  1  0
 15 23  1  0
 15 24  1  0
 16 25  1  0
 16 26  1  0
 17 27  1  0
 17 28  1  0
  7 12  1  0
M  ISO  3   9  14  10  14  11  14
M  END
>  <DihAtoms>  (1) 
7,6,11,12

>  <DihDeg>  (1) 
119.99403310228196

$$$$
