
     RDKit          3D

 33 34  0  0  0  0  0  0  0  0999 V2000
   37.0621   29.4066   51.1644 C   0  0  0  0  0  0  0  0  0  0  0  0
   37.6844   30.0098   50.0725 C   0  0  0  0  0  0  0  0  0  0  0  0
   36.9070   30.4854   49.0360 C   0  0  0  0  0  0  0  0  0  0  0  0
   35.5386   30.3306   49.1489 N   0  0  0  0  0  0  0  0  0  0  0  0
   34.9858   29.7478   50.2108 C   0  0  0  0  0  0  0  0  0  0  0  0
   35.7170   29.2769   51.2310 N   0  0  0  0  0  0  0  0  0  0  0  0
   37.4529   31.1352   47.8417 C   0  0  0  0  0  0  0  0  0  0  0  0
   38.7593   31.8555   48.1755 C   0  0  0  0  0  0  0  0  0  0  0  0
   38.4460   33.3554   49.0963 S   0  0  0  0  0  0  0  0  0  0  0  0
   37.7248   29.0536   51.9449 H   0  0  0  0  0  0  0  0  0  0  0  0
   38.7386   30.1007   50.0443 H   0  0  0  0  0  0  0  0  0  0  0  0
   33.9101   29.6267   50.2983 H   0  0  0  0  0  0  0  0  0  0  0  0
   37.6821   30.3593   47.0854 H   0  0  0  0  0  0  0  0  0  0  0  0
   36.7770   31.9190   47.4441 H   0  0  0  0  0  0  0  0  0  0  0  0
   39.5476   31.2061   48.5468 H   0  0  0  0  0  0  0  0  0  0  0  0
   39.1193   32.1911   47.1553 H   0  0  0  0  0  0  0  0  0  0  0  0
   39.5210   34.7283   48.6443 C   0  0  0  0  0  0  0  0  0  0  0  0
   39.1937   35.1548   47.2345 C   0  0  0  0  0  0  0  0  0  0  0  0
   40.4455   35.6518   46.5255 C   0  0  0  0  0  0  0  0  0  0  0  0
   41.3489   36.3343   47.5256 C   0  0  0  0  0  0  0  0  0  0  0  0
   41.9363   35.3569   48.5109 C   0  0  0  0  0  0  0  0  0  0  0  0
   40.9488   34.2281   48.6967 C   0  0  0  0  0  0  0  0  0  0  0  0
   39.4501   35.5758   49.3636 H   0  0  0  0  0  0  0  0  0  0  0  0
   38.3936   35.9028   47.1752 H   0  0  0  0  0  0  0  0  0  0  0  0
   38.8266   34.2385   46.6989 H   0  0  0  0  0  0  0  0  0  0  0  0
   40.1727   36.3869   45.7637 H   0  0  0  0  0  0  0  0  0  0  0  0
   40.9502   34.8185   46.0234 H   0  0  0  0  0  0  0  0  0  0  0  0
   40.7155   37.0324   48.1146 H   0  0  0  0  0  0  0  0  0  0  0  0
   42.1670   36.8272   46.9833 H   0  0  0  0  0  0  0  0  0  0  0  0
   42.0623   35.8382   49.5178 H   0  0  0  0  0  0  0  0  0  0  0  0
   42.9287   34.9694   48.2100 H   0  0  0  0  0  0  0  0  0  0  0  0
   41.0484   33.4204   47.9431 H   0  0  0  0  0  0  0  0  0  0  0  0
   41.0722   33.7361   49.7028 H   0  0  0  0  0  0  0  0  0  0  0  0
  1  6  2  0
  2  1  1  0
  3  4  1  0
  3  2  2  0
  4  5  2  0
  5  6  1  0
  7  8  1  0
  7  3  1  0
  8  9  1  0
  1 10  1  0
  2 11  1  0
  5 12  1  0
  7 13  1  0
  7 14  1  0
  8 15  1  0
  8 16  1  0
 17 18  1  0
 18 19  1  0
 19 20  1  0
 20 21  1  0
 21 22  1  0
 22 17  1  0
 17 23  1  0
 18 24  1  0
 18 25  1  0
 19 26  1  0
 19 27  1  0
 20 28  1  0
 20 29  1  0
 21 30  1  0
 21 31  1  0
 22 32  1  0
 22 33  1  0
  9 17  1  0
M  ISO  7  10  14  11  14  12  14  13   8  14   8  15   8  16   8
M  END
>  <DihAtoms>  (1) 
7,8,16,17

>  <DihDeg>  (1) 
-67.83904292588649

$$$$
