
     RDKit          3D

 28 29  0  0  0  0  0  0  0  0999 V2000
   37.2613   30.1772   51.4448 C   0  0  0  0  0  0  0  0  0  0  0  0
   38.0925   30.7529   50.4478 C   0  0  0  0  0  0  0  0  0  0  0  0
   37.8017   30.4929   49.0907 C   0  0  0  0  0  0  0  0  0  0  0  0
   36.7406   29.7049   48.8216 N   0  0  0  0  0  0  0  0  0  0  0  0
   35.9745   29.1757   49.7818 C   0  0  0  0  0  0  0  0  0  0  0  0
   36.2167   29.3978   51.0696 N   0  0  0  0  0  0  0  0  0  0  0  0
   34.8251   28.3199   49.5133 C   0  0  0  0  0  0  0  0  0  0  0  0
   33.6377   28.7116   49.5493 O   0  0  0  0  0  0  0  0  0  0  0  0
   37.5490   30.4230   52.4575 H   0  0  0  0  0  0  0  0  0  0  0  0
   38.9360   31.3807   50.7027 H   0  0  0  0  0  0  0  0  0  0  0  0
   38.4303   30.9280   48.3253 H   0  0  0  0  0  0  0  0  0  0  0  0
   35.1072   26.9022   49.1794 C   0  0  0  0  0  0  0  0  0  0  0  0
   33.8817   26.0345   49.2754 C   0  0  0  0  0  0  0  0  0  0  0  0
   34.3429   24.6018   49.3544 C   0  0  0  0  0  0  0  0  0  0  0  0
   35.5187   24.3493   48.4738 C   0  0  0  0  0  0  0  0  0  0  0  0
   35.6640   25.3305   47.3484 C   0  0  0  0  0  0  0  0  0  0  0  0
   35.6322   26.7564   47.7624 C   0  0  0  0  0  0  0  0  0  0  0  0
   35.8732   26.4474   49.8386 H   0  0  0  0  0  0  0  0  0  0  0  0
   33.2227   26.3164   50.1109 H   0  0  0  0  0  0  0  0  0  0  0  0
   33.3473   26.1213   48.2858 H   0  0  0  0  0  0  0  0  0  0  0  0
   33.5208   23.8760   49.2147 H   0  0  0  0  0  0  0  0  0  0  0  0
   34.7115   24.4539   50.4051 H   0  0  0  0  0  0  0  0  0  0  0  0
   36.4776   24.2708   49.0120 H   0  0  0  0  0  0  0  0  0  0  0  0
   35.3592   23.3501   47.9850 H   0  0  0  0  0  0  0  0  0  0  0  0
   36.6869   25.1311   46.9130 H   0  0  0  0  0  0  0  0  0  0  0  0
   34.9553   25.0522   46.5368 H   0  0  0  0  0  0  0  0  0  0  0  0
   36.6288   27.2447   47.7275 H   0  0  0  0  0  0  0  0  0  0  0  0
   34.9391   27.2971   47.0638 H   0  0  0  0  0  0  0  0  0  0  0  0
  2  1  2  0
  3  2  1  0
  4  3  2  0
  4  5  1  0
  5  6  2  0
  6  1  1  0
  7  8  2  0
  7  5  1  0
  1  9  1  0
  2 10  1  0
  3 11  1  0
 12 13  1  0
 13 14  1  0
 14 15  1  0
 15 16  1  0
 16 17  1  0
 17 12  1  0
 12 18  1  0
 13 19  1  0
 13 20  1  0
 14 21  1  0
 14 22  1  0
 15 23  1  0
 15 24  1  0
 16 25  1  0
 16 26  1  0
 17 27  1  0
 17 28  1  0
  7 12  1  0
M  ISO  3   9  14  10  14  11  14
M  END
>  <DihAtoms>  (1) 
7,6,11,12

>  <DihDeg>  (1) 
119.99403310228196

$$$$
