
     RDKit          3D

 45 47  0  0  0  0  0  0  0  0999 V2000
   35.0930   29.8750   45.3900 C   0  0  0  0  0  0  0  0  0  0  0  0
   34.9760   29.7330   46.7370 C   0  0  0  0  0  0  0  0  0  0  0  0
   33.8200   29.1780   47.2760 C   0  0  0  0  0  0  0  0  0  0  0  0
   32.7660   28.7610   46.4850 C   0  0  0  0  0  0  0  0  0  0  0  0
   32.8490   28.8930   45.1300 C   0  0  0  0  0  0  0  0  0  0  0  0
   33.9980   29.4410   44.6320 C   0  0  0  0  0  0  0  0  0  0  0  0
   37.7900   31.6900   48.0710 C   0  0  0  0  0  0  0  0  0  0  0  0
   36.7840   31.2280   47.2390 C   0  0  0  0  0  0  0  0  0  0  0  0
   35.9920   30.1820   47.6250 C   0  0  0  0  0  0  0  0  0  0  0  0
   36.2400   29.6390   48.8470 N   0  0  0  0  0  0  0  0  0  0  0  0
   37.2090   30.0860   49.6560 C   0  0  0  0  0  0  0  0  0  0  0  0
   37.9760   31.1050   49.2600 N   0  0  0  0  0  0  0  0  0  0  0  0
   37.3180   29.4410   50.9900 C   0  0  0  0  0  0  0  0  0  0  0  0
   37.7810   30.3170   51.9530 F   0  0  0  0  0  0  0  0  0  0  0  0
   35.9840   29.1380   51.4660 F   0  0  0  0  0  0  0  0  0  0  0  0
   37.9330   28.2820   51.0520 F   0  0  0  0  0  0  0  0  0  0  0  0
   36.4860   30.5060   44.6050 S   0  0  0  0  0  0  0  0  0  0  0  0
   36.1930   31.8070   43.9590 O   0  0  0  0  0  0  0  0  0  0  0  0
   36.4200   29.6730   43.3420 O   0  0  0  0  0  0  0  0  0  0  0  0
   38.0860   29.9910   44.7520 C   0  0  0  0  0  0  0  0  0  0  0  0
   39.1820   30.9310   44.4470 C   0  0  0  0  0  0  0  0  0  0  0  0
   40.2040   30.7190   45.5680 C   0  0  0  0  0  0  0  0  0  0  0  0
   41.2660   31.7500   45.5680 C   0  0  0  0  0  0  0  0  0  0  0  0
   40.7210   33.1590   45.5130 C   0  0  0  0  0  0  0  0  0  0  0  0
   39.8370   33.3540   44.3290 C   0  0  0  0  0  0  0  0  0  0  0  0
   38.6810   32.3530   44.4360 C   0  0  0  0  0  0  0  0  0  0  0  0
   33.7421   29.0673   48.3676 H   0  0  0  0  0  0  0  0  0  0  0  0
   31.8666   28.3258   46.9450 H   0  0  0  0  0  0  0  0  0  0  0  0
   32.0298   28.5735   44.4690 H   0  0  0  0  0  0  0  0  0  0  0  0
   34.0689   29.5508   43.5398 H   0  0  0  0  0  0  0  0  0  0  0  0
   38.4292   32.5287   47.7579 H   0  0  0  0  0  0  0  0  0  0  0  0
   36.6209   31.7053   46.2615 H   0  0  0  0  0  0  0  0  0  0  0  0
   38.2234   29.6664   45.7940 H   0  0  0  0  0  0  0  0  0  0  0  0
   38.1822   29.2200   43.9734 H   0  0  0  0  0  0  0  0  0  0  0  0
   39.6173   30.7519   43.4528 H   0  0  0  0  0  0  0  0  0  0  0  0
   39.6798   30.7523   46.5345 H   0  0  0  0  0  0  0  0  0  0  0  0
   40.6846   29.7435   45.4026 H   0  0  0  0  0  0  0  0  0  0  0  0
   41.8614   31.6400   46.4864 H   0  0  0  0  0  0  0  0  0  0  0  0
   41.8737   31.5966   44.6640 H   0  0  0  0  0  0  0  0  0  0  0  0
   40.1425   33.3550   46.4278 H   0  0  0  0  0  0  0  0  0  0  0  0
   41.5686   33.8552   45.4307 H   0  0  0  0  0  0  0  0  0  0  0  0
   40.4047   33.1723   43.4045 H   0  0  0  0  0  0  0  0  0  0  0  0
   39.4516   34.3840   44.3032 H   0  0  0  0  0  0  0  0  0  0  0  0
   38.1273   32.5443   45.3670 H   0  0  0  0  0  0  0  0  0  0  0  0
   38.0291   32.4829   43.5596 H   0  0  0  0  0  0  0  0  0  0  0  0
  1  2  1  0
  2  3  2  0
  2  9  1  0
  4  3  1  0
  5  4  2  0
  6  5  1  0
  6  1  2  0
  7 12  2  0
  8  9  2  0
  8  7  1  0
  9 10  1  0
 10 11  2  0
 11 13  1  0
 12 11  1  0
 13 16  1  0
 13 15  1  0
 13 14  1  0
 17 20  1  0
 17  1  1  0
 18 17  2  0
 19 17  2  0
 21 20  1  0
 21 22  1  0
 23 22  1  0
 24 23  1  0
 25 26  1  0
 25 24  1  0
 26 21  1  0
  3 27  1  0
  4 28  1  0
  5 29  1  0
  6 30  1  0
  7 31  1  0
  8 32  1  0
 20 33  1  0
 20 34  1  0
 21 35  1  0
 22 36  1  0
 22 37  1  0
 23 38  1  0
 23 39  1  0
 24 40  1  0
 24 41  1  0
 25 42  1  0
 25 43  1  0
 26 44  1  0
 26 45  1  0
M  ISO  8  27  14  28  14  29  14  30  14  31  14  32  14  33   8  34   8
M  ISO  8  35  13  36  13  37  13  38  13  39  13  40  13  41  13  42  13
M  ISO  3  43  13  44  13  45  13
M  END
>  <minimizedAffinity>  (1) 
-5.92146587

>  <minimizedRMSD>  (1) 
3.04459023

$$$$
