
     RDKit          3D

 39 42  0  0  0  0  0  0  0  0999 V2000
   37.0622   30.7098   46.7743 C   0  0  0  0  0  0  0  0  0  0  0  0
   37.7028   31.1401   47.9194 C   0  0  0  0  0  0  0  0  0  0  0  0
   38.7107   32.0622   47.8313 C   0  0  0  0  0  0  0  0  0  0  0  0
   39.0641   32.5448   46.5722 C   0  0  0  0  0  0  0  0  0  0  0  0
   40.0236   33.4530   46.2530 N   0  0  0  0  0  0  0  0  0  0  0  0
   39.9847   33.5904   44.9221 C   0  0  0  0  0  0  0  0  0  0  0  0
   39.0401   32.8062   44.3872 N   0  0  0  0  0  0  0  0  0  0  0  0
   38.4414   32.1344   45.3972 C   0  0  0  0  0  0  0  0  0  0  0  0
   37.4232   31.1985   45.5202 C   0  0  0  0  0  0  0  0  0  0  0  0
   37.3897   30.1558   51.5349 C   0  0  0  0  0  0  0  0  0  0  0  0
   37.9109   30.7479   50.3852 C   0  0  0  0  0  0  0  0  0  0  0  0
   37.2581   30.5749   49.1802 C   0  0  0  0  0  0  0  0  0  0  0  0
   36.1221   29.8222   49.1844 N   0  0  0  0  0  0  0  0  0  0  0  0
   35.6236   29.2513   50.3059 C   0  0  0  0  0  0  0  0  0  0  0  0
   36.2537   29.4186   51.4675 N   0  0  0  0  0  0  0  0  0  0  0  0
   36.2607   29.9860   46.7711 H   0  0  0  0  0  0  0  0  0  0  0  0
   39.2235   32.4107   48.7173 H   0  0  0  0  0  0  0  0  0  0  0  0
   40.6663   33.9526   46.8787 H   0  0  0  0  0  0  0  0  0  0  0  0
   36.9282   30.8683   44.6174 H   0  0  0  0  0  0  0  0  0  0  0  0
   37.9357   30.3224   52.4407 H   0  0  0  0  0  0  0  0  0  0  0  0
   38.8125   31.3403   50.4046 H   0  0  0  0  0  0  0  0  0  0  0  0
   34.7251   28.6652   50.2658 H   0  0  0  0  0  0  0  0  0  0  0  0
   40.8321   34.4686   44.0537 C   0  0  0  0  0  0  0  0  0  0  0  0
   40.0337   34.7473   42.8134 C   0  0  0  0  0  0  0  0  0  0  0  0
   40.3001   33.6554   41.8119 C   0  0  0  0  0  0  0  0  0  0  0  0
   41.7405   33.8699   41.3817 C   0  0  0  0  0  0  0  0  0  0  0  0
   42.7069   33.6920   42.5069 C   0  0  0  0  0  0  0  0  0  0  0  0
   42.1910   33.9231   43.8670 C   0  0  0  0  0  0  0  0  0  0  0  0
   40.8402   35.4557   44.6023 H   0  0  0  0  0  0  0  0  0  0  0  0
   38.9583   34.7274   43.0582 H   0  0  0  0  0  0  0  0  0  0  0  0
   40.3334   35.7387   42.4208 H   0  0  0  0  0  0  0  0  0  0  0  0
   40.1025   32.6810   42.2555 H   0  0  0  0  0  0  0  0  0  0  0  0
   39.6987   33.7816   40.8811 H   0  0  0  0  0  0  0  0  0  0  0  0
   41.8011   34.9125   41.0032 H   0  0  0  0  0  0  0  0  0  0  0  0
   41.9699   33.2049   40.5208 H   0  0  0  0  0  0  0  0  0  0  0  0
   43.5983   34.3147   42.2567 H   0  0  0  0  0  0  0  0  0  0  0  0
   43.0894   32.6452   42.4090 H   0  0  0  0  0  0  0  0  0  0  0  0
   42.9205   34.6118   44.3866 H   0  0  0  0  0  0  0  0  0  0  0  0
   42.2781   32.9867   44.4902 H   0  0  0  0  0  0  0  0  0  0  0  0
  1  2  2  0
  2 12  1  0
  3  2  1  0
  4  3  2  0
  5  4  1  0
  6  5  1  0
  7  6  2  0
  7  8  1  0
  8  9  2  0
  8  4  1  0
  9  1  1  0
 11 10  2  0
 12 11  1  0
 13 12  2  0
 13 14  1  0
 14 15  2  0
 15 10  1  0
  1 16  1  0
  3 17  1  0
  5 18  1  0
  9 19  1  0
 10 20  1  0
 11 21  1  0
 14 22  1  0
 23 24  1  0
 24 25  1  0
 25 26  1  0
 26 27  1  0
 27 28  1  0
 28 23  1  0
 23 29  1  0
 24 30  1  0
 24 31  1  0
 25 32  1  0
 25 33  1  0
 26 34  1  0
 26 35  1  0
 27 36  1  0
 27 37  1  0
 28 38  1  0
 28 39  1  0
  6 23  1  0
M  ISO  7  16  14  17  14  18   9  19  14  20  14  21  14  22  14
M  END
>  <DihAtoms>  (1) 
4,5,22,23

>  <DihDeg>  (1) 
-109.46537911468083

$$$$
