
     RDKit          3D

 47 50  0  0  0  0  0  0  0  0999 V2000
   36.4160   30.8940   45.7070 Cl  0  0  0  0  0  0  0  0  0  0  0  0
   36.6930   30.7840   47.4240 C   0  0  0  0  0  0  0  0  0  0  0  0
   37.9520   31.1270   47.8820 C   0  0  0  0  0  0  0  0  0  0  0  0
   38.1850   31.0410   49.2500 C   0  0  0  0  0  0  0  0  0  0  0  0
   37.1740   30.6290   50.0890 C   0  0  0  0  0  0  0  0  0  0  0  0
   35.9380   30.3030   49.5520 C   0  0  0  0  0  0  0  0  0  0  0  0
   35.6400   30.3630   48.2150 C   0  0  0  0  0  0  0  0  0  0  0  0
   40.2270   33.3260   46.0880 C   0  0  0  0  0  0  0  0  0  0  0  0
   40.9370   32.4760   45.2290 C   0  0  0  0  0  0  0  0  0  0  0  0
   40.6130   31.1080   45.2800 C   0  0  0  0  0  0  0  0  0  0  0  0
   39.6410   30.6960   46.1490 N   0  0  0  0  0  0  0  0  0  0  0  0
   39.0010   31.5630   46.9420 C   0  0  0  0  0  0  0  0  0  0  0  0
   39.2830   32.8660   46.9210 N   0  0  0  0  0  0  0  0  0  0  0  0
   34.0720   29.9510   47.5230 S   0  0  0  0  0  0  0  0  0  0  0  0
   34.0040   29.1430   44.4820 Cl  0  0  0  0  0  0  0  0  0  0  0  0
   33.9310   27.9340   45.7430 C   0  0  0  0  0  0  0  0  0  0  0  0
   33.9560   28.2100   47.1180 C   0  0  0  0  0  0  0  0  0  0  0  0
   33.8930   27.1760   48.0130 C   0  0  0  0  0  0  0  0  0  0  0  0
   33.8050   25.8770   47.5860 C   0  0  0  0  0  0  0  0  0  0  0  0
   33.7780   25.5640   46.2330 C   0  0  0  0  0  0  0  0  0  0  0  0
   33.8420   26.5990   45.3440 C   0  0  0  0  0  0  0  0  0  0  0  0
   33.8120   26.2640   43.8950 C   0  0  0  0  0  0  0  0  0  0  0  0
   32.8100   25.1990   43.5770 C   0  0  0  0  0  0  0  0  0  0  0  0
   32.7480   24.9830   42.0990 C   0  0  0  0  0  0  0  0  0  0  0  0
   33.7540   25.8130   41.3400 C   0  0  0  0  0  0  0  0  0  0  0  0
   35.1400   25.7240   41.8950 C   0  0  0  0  0  0  0  0  0  0  0  0
   35.1740   25.8380   43.4020 C   0  0  0  0  0  0  0  0  0  0  0  0
   39.1721   31.3008   49.6600 H   0  0  0  0  0  0  0  0  0  0  0  0
   37.3450   30.5593   51.1734 H   0  0  0  0  0  0  0  0  0  0  0  0
   35.1465   29.9756   50.2422 H   0  0  0  0  0  0  0  0  0  0  0  0
   40.4512   34.4029   46.0783 H   0  0  0  0  0  0  0  0  0  0  0  0
   41.7104   32.8602   44.5477 H   0  0  0  0  0  0  0  0  0  0  0  0
   41.1312   30.3843   44.6337 H   0  0  0  0  0  0  0  0  0  0  0  0
   33.9133   27.3913   49.0915 H   0  0  0  0  0  0  0  0  0  0  0  0
   33.7548   25.0670   48.3285 H   0  0  0  0  0  0  0  0  0  0  0  0
   33.7077   24.5212   45.8901 H   0  0  0  0  0  0  0  0  0  0  0  0
   33.5094   27.1844   43.3740 H   0  0  0  0  0  0  0  0  0  0  0  0
   33.1054   24.2613   44.0705 H   0  0  0  0  0  0  0  0  0  0  0  0
   31.8200   25.5139   43.9386 H   0  0  0  0  0  0  0  0  0  0  0  0
   32.9421   23.9203   41.8914 H   0  0  0  0  0  0  0  0  0  0  0  0
   31.7467   25.2903   41.7629 H   0  0  0  0  0  0  0  0  0  0  0  0
   33.4329   26.8646   41.3719 H   0  0  0  0  0  0  0  0  0  0  0  0
   33.7903   25.4192   40.3135 H   0  0  0  0  0  0  0  0  0  0  0  0
   35.5733   24.7552   41.6056 H   0  0  0  0  0  0  0  0  0  0  0  0
   35.7165   26.5665   41.4852 H   0  0  0  0  0  0  0  0  0  0  0  0
   35.4361   24.8634   43.8395 H   0  0  0  0  0  0  0  0  0  0  0  0
   35.9264   26.5827   43.7009 H   0  0  0  0  0  0  0  0  0  0  0  0
  1  2  1  0
  2  3  2  0
  2  7  1  0
  3  4  1  0
  4  5  2  0
  6  5  1  0
  7  6  2  0
  8 13  2  0
  9 10  2  0
  9  8  1  0
 10 11  1  0
 11 12  2  0
 12  3  1  0
 13 12  1  0
 14  7  1  0
 15 16  1  0
 16 17  2  0
 17 14  1  0
 17 18  1  0
 19 18  2  0
 20 19  1  0
 21 16  1  0
 21 20  2  0
 22 21  1  0
 23 22  1  0
 24 23  1  0
 25 26  1  0
 25 24  1  0
 26 27  1  0
 27 22  1  0
  4 28  1  0
  5 29  1  0
  6 30  1  0
  8 31  1  0
  9 32  1  0
 10 33  1  0
 18 34  1  0
 19 35  1  0
 20 36  1  0
 22 37  1  0
 23 38  1  0
 23 39  1  0
 24 40  1  0
 24 41  1  0
 25 42  1  0
 25 43  1  0
 26 44  1  0
 26 45  1  0
 27 46  1  0
 27 47  1  0
M  ISO  8  28  14  29  14  30  14  31  14  32  14  33  14  34  14  35  14
M  ISO  8  36  14  37  13  38  13  39  13  40  13  41  13  42  13  43  13
M  ISO  4  44  13  45  13  46  13  47  13
M  END
>  <minimizedAffinity>  (1) 
-5.74825048

>  <minimizedRMSD>  (1) 
0.525708914

$$$$
