
     RDKit          3D

 39 41  0  0  0  0  0  0  0  0999 V2000
   38.4687   30.7924   49.8484 Cl  0  0  0  0  0  0  0  0  0  0  0  0
   37.0818   30.3574   48.8774 C   0  0  0  0  0  0  0  0  0  0  0  0
   37.0898   30.6246   47.5336 C   0  0  0  0  0  0  0  0  0  0  0  0
   36.0296   30.2919   46.7255 C   0  0  0  0  0  0  0  0  0  0  0  0
   34.9254   29.6750   47.2612 C   0  0  0  0  0  0  0  0  0  0  0  0
   34.8890   29.3922   48.6186 C   0  0  0  0  0  0  0  0  0  0  0  0
   33.5399   28.5954   49.3898 Cl  0  0  0  0  0  0  0  0  0  0  0  0
   35.9906   29.7504   49.3989 C   0  0  0  0  0  0  0  0  0  0  0  0
   39.6051   33.1546   46.6509 C   0  0  0  0  0  0  0  0  0  0  0  0
   40.4578   32.4717   45.8005 C   0  0  0  0  0  0  0  0  0  0  0  0
   40.1630   31.1107   45.5240 C   0  0  0  0  0  0  0  0  0  0  0  0
   39.0621   30.5832   46.1189 N   0  0  0  0  0  0  0  0  0  0  0  0
   38.2507   31.2805   46.9453 C   0  0  0  0  0  0  0  0  0  0  0  0
   38.5382   32.5709   47.2017 N   0  0  0  0  0  0  0  0  0  0  0  0
   35.9573   29.4591   50.8573 C   0  0  0  0  0  0  0  0  0  0  0  0
   36.0168   30.4929   45.6723 H   0  0  0  0  0  0  0  0  0  0  0  0
   34.0708   29.4000   46.6472 H   0  0  0  0  0  0  0  0  0  0  0  0
   39.7910   34.1935   46.8892 H   0  0  0  0  0  0  0  0  0  0  0  0
   41.3232   32.9564   45.3586 H   0  0  0  0  0  0  0  0  0  0  0  0
   40.7973   30.5504   44.8720 H   0  0  0  0  0  0  0  0  0  0  0  0
   36.9268   28.9841   51.1216 H   0  0  0  0  0  0  0  0  0  0  0  0
   35.1800   28.6784   51.0895 H   0  0  0  0  0  0  0  0  0  0  0  0
   35.6950   30.6353   51.7258 C   0  0  0  0  0  0  0  0  0  0  0  0
   34.9897   30.3634   53.0081 C   0  0  0  0  0  0  0  0  0  0  0  0
   34.3533   31.7008   53.4135 C   0  0  0  0  0  0  0  0  0  0  0  0
   35.3377   32.8059   53.1166 C   0  0  0  0  0  0  0  0  0  0  0  0
   36.7656   32.2994   53.1702 C   0  0  0  0  0  0  0  0  0  0  0  0
   37.0267   31.2612   52.1015 C   0  0  0  0  0  0  0  0  0  0  0  0
   35.1669   31.4113   51.1133 H   0  0  0  0  0  0  0  0  0  0  0  0
   34.2849   29.5361   53.0229 H   0  0  0  0  0  0  0  0  0  0  0  0
   35.7350   30.1441   53.8297 H   0  0  0  0  0  0  0  0  0  0  0  0
   33.4674   31.9059   52.7622 H   0  0  0  0  0  0  0  0  0  0  0  0
   34.0464   31.6915   54.4733 H   0  0  0  0  0  0  0  0  0  0  0  0
   35.1787   33.2825   52.1470 H   0  0  0  0  0  0  0  0  0  0  0  0
   35.2372   33.5691   53.9100 H   0  0  0  0  0  0  0  0  0  0  0  0
   37.4119   33.1716   52.9571 H   0  0  0  0  0  0  0  0  0  0  0  0
   37.0008   31.9512   54.1899 H   0  0  0  0  0  0  0  0  0  0  0  0
   37.6055   31.6150   51.2470 H   0  0  0  0  0  0  0  0  0  0  0  0
   37.5846   30.4224   52.6145 H   0  0  0  0  0  0  0  0  0  0  0  0
  2  8  2  0
  2  1  1  0
  3  2  1  0
  4  5  1  0
  4  3  2  0
  5  6  2  0
  6  8  1  0
  6  7  1  0
  8 15  1  0
  9 14  2  0
 10  9  1  0
 11 10  2  0
 11 12  1  0
 12 13  2  0
 13 14  1  0
 13  3  1  0
  4 16  1  0
  5 17  1  0
  9 18  1  0
 10 19  1  0
 11 20  1  0
 15 21  1  0
 15 22  1  0
 23 24  1  0
 24 25  1  0
 25 26  1  0
 26 27  1  0
 27 28  1  0
 28 23  1  0
 23 29  1  0
 24 30  1  0
 24 31  1  0
 25 32  1  0
 25 33  1  0
 26 34  1  0
 26 35  1  0
 27 36  1  0
 27 37  1  0
 28 38  1  0
 28 39  1  0
 15 23  1  0
M  ISO  7  16  14  17  14  18  14  19  14  20  14  21   8  22   8
M  END
>  <DihAtoms>  (1) 
7,14,22,23

>  <DihDeg>  (1) 
60.01627010247724

$$$$
