
     RDKit          3D

 42 44  0  0  0  0  0  0  0  0999 V2000
   39.4530   32.4812   47.1011 O   0  0  0  0  0  0  0  0  0  0  0  0
   38.3051   31.8252   46.4032 P   0  0  2  0  0  0  0  0  0  0  0  0
   37.7285   32.8508   45.1698 O   0  0  0  0  0  0  0  0  0  0  0  0
   37.0254   31.3975   47.4258 O   0  0  0  0  0  0  0  0  0  0  0  0
   37.6022   30.5385   50.9776 C   0  0  0  0  0  0  0  0  0  0  0  0
   37.6905   31.2976   49.8099 C   0  0  0  0  0  0  0  0  0  0  0  0
   37.0700   30.8359   48.6520 C   0  0  0  0  0  0  0  0  0  0  0  0
   36.3968   29.6401   48.7313 N   0  0  0  0  0  0  0  0  0  0  0  0
   36.3342   28.9357   49.8784 C   0  0  0  0  0  0  0  0  0  0  0  0
   36.9349   29.3870   50.9911 N   0  0  0  0  0  0  0  0  0  0  0  0
   38.8725   30.4466   45.6136 O   0  0  0  0  0  0  0  0  0  0  0  0
   36.6187   29.4430   44.0465 Cl  0  0  0  0  0  0  0  0  0  0  0  0
   38.2650   29.8312   43.4857 C   0  0  0  0  0  0  0  0  0  0  0  0
   39.2803   30.3086   44.3168 C   0  0  0  0  0  0  0  0  0  0  0  0
   40.5023   30.5641   43.7389 C   0  0  0  0  0  0  0  0  0  0  0  0
   40.7172   30.3585   42.3981 C   0  0  0  0  0  0  0  0  0  0  0  0
   39.7308   29.8899   41.5675 C   0  0  0  0  0  0  0  0  0  0  0  0
   38.5126   29.6296   42.1157 C   0  0  0  0  0  0  0  0  0  0  0  0
   37.4955   32.3685   44.3470 H   0  0  0  0  0  0  0  0  0  0  0  0
   38.1162   30.9717   51.8389 H   0  0  0  0  0  0  0  0  0  0  0  0
   38.1941   32.2361   49.6658 H   0  0  0  0  0  0  0  0  0  0  0  0
   35.7857   27.9819   49.9037 H   0  0  0  0  0  0  0  0  0  0  0  0
   41.2397   30.9308   44.4413 H   0  0  0  0  0  0  0  0  0  0  0  0
   41.6973   30.5755   41.9944 H   0  0  0  0  0  0  0  0  0  0  0  0
   39.9104   29.7301   40.5061 H   0  0  0  0  0  0  0  0  0  0  0  0
   37.4195   29.1171   41.2284 C   0  0  0  0  0  0  0  0  0  0  0  0
   36.1336   29.6338   41.8536 C   0  0  0  0  0  0  0  0  0  0  0  0
   34.9722   29.0729   41.0976 C   0  0  0  0  0  0  0  0  0  0  0  0
   35.3773   28.4368   39.7905 C   0  0  0  0  0  0  0  0  0  0  0  0
   36.3914   27.3301   39.9881 C   0  0  0  0  0  0  0  0  0  0  0  0
   37.3730   27.6357   41.1089 C   0  0  0  0  0  0  0  0  0  0  0  0
   37.5429   29.5700   40.2167 H   0  0  0  0  0  0  0  0  0  0  0  0
   36.1928   30.7471   41.7946 H   0  0  0  0  0  0  0  0  0  0  0  0
   36.1312   29.3518   42.9394 H   0  0  0  0  0  0  0  0  0  0  0  0
   34.3083   29.9243   40.8463 H   0  0  0  0  0  0  0  0  0  0  0  0
   34.4048   28.3489   41.6891 H   0  0  0  0  0  0  0  0  0  0  0  0
   34.4499   28.0268   39.3419 H   0  0  0  0  0  0  0  0  0  0  0  0
   35.7444   29.2340   39.0962 H   0  0  0  0  0  0  0  0  0  0  0  0
   36.9967   27.3048   39.0475 H   0  0  0  0  0  0  0  0  0  0  0  0
   35.9011   26.3431   40.1272 H   0  0  0  0  0  0  0  0  0  0  0  0
   36.8964   27.2326   42.0470 H   0  0  0  0  0  0  0  0  0  0  0  0
   38.3528   27.1775   40.9237 H   0  0  0  0  0  0  0  0  0  0  0  0
  2  1  2  0
  2  4  1  1
  3  2  1  0
  4  7  1  0
  5 10  2  0
  6  5  1  0
  7  8  1  0
  7  6  2  0
  8  9  2  0
  9 10  1  0
 11  2  1  0
 13 12  1  0
 13 14  2  0
 14 11  1  0
 15 14  1  0
 16 15  2  0
 17 18  2  0
 17 16  1  0
 18 13  1  0
  3 19  1  0
  5 20  1  0
  6 21  1  0
  9 22  1  0
 15 23  1  0
 16 24  1  0
 17 25  1  0
 26 27  1  0
 27 28  1  0
 28 29  1  0
 29 30  1  0
 30 31  1  0
 31 26  1  0
 26 32  1  0
 27 33  1  0
 27 34  1  0
 28 35  1  0
 28 36  1  0
 29 37  1  0
 29 38  1  0
 30 39  1  0
 30 40  1  0
 31 41  1  0
 31 42  1  0
 18 26  1  0
M  ISO  7  19   3  20  14  21  14  22  14  23  14  24  14  25  14
M  END
>  <DihAtoms>  (1) 
16,17,25,26

>  <DihDeg>  (1) 
89.99495546537722

$$$$
