
     RDKit          3D

 47 50  0  0  0  0  0  0  0  0999 V2000
   34.5490   28.3460   48.5370 C   0  0  0  0  0  0  0  0  0  0  0  0
   34.6000   29.6610   48.0110 C   0  0  0  0  0  0  0  0  0  0  0  0
   33.5740   30.0550   47.1660 C   0  0  0  0  0  0  0  0  0  0  0  0
   32.5820   29.1670   46.8910 N   0  0  0  0  0  0  0  0  0  0  0  0
   32.5500   27.9320   47.3940 C   0  0  0  0  0  0  0  0  0  0  0  0
   33.5410   27.5100   48.2280 N   0  0  0  0  0  0  0  0  0  0  0  0
   35.6930   30.4830   48.3820 N   0  0  0  0  0  0  0  0  0  0  0  0
   35.8490   30.9380   49.6310 C   0  0  0  0  0  0  0  0  0  0  0  0
   36.9450   31.7420   49.9280 C   0  0  0  0  0  0  0  0  0  0  0  0
   37.7860   31.9970   48.8740 C   0  0  0  0  0  0  0  0  0  0  0  0
   38.7950   32.7320   49.1310 O   0  0  0  0  0  0  0  0  0  0  0  0
   37.6620   31.5660   47.6360 N   0  0  0  0  0  0  0  0  0  0  0  0
   36.5790   30.7800   47.3740 C   0  0  0  0  0  0  0  0  0  0  0  0
   36.4400   30.3550   46.1930 O   0  0  0  0  0  0  0  0  0  0  0  0
   31.5300   27.0110   47.1150 O   0  0  0  0  0  0  0  0  0  0  0  0
   30.3810   27.1530   47.8910 C   0  0  0  0  0  0  0  0  0  0  0  0
   30.6500   27.5570   49.1990 C   0  0  0  0  0  0  0  0  0  0  0  0
   29.6250   27.7450   50.1030 C   0  0  0  0  0  0  0  0  0  0  0  0
   28.3170   27.5280   49.6950 C   0  0  0  0  0  0  0  0  0  0  0  0
   28.0790   27.1310   48.4030 C   0  0  0  0  0  0  0  0  0  0  0  0
   29.0810   26.9330   47.4740 C   0  0  0  0  0  0  0  0  0  0  0  0
   28.8560   26.4980   46.1020 C   0  0  0  0  0  0  0  0  0  0  0  0
   28.5800   24.9920   45.9980 C   0  0  0  0  0  0  0  0  0  0  0  0
   28.7710   24.6340   44.5430 C   0  0  0  0  0  0  0  0  0  0  0  0
   28.4450   25.7500   43.6140 C   0  0  0  0  0  0  0  0  0  0  0  0
   27.3740   26.6970   44.1000 C   0  0  0  0  0  0  0  0  0  0  0  0
   27.6280   27.1610   45.5150 C   0  0  0  0  0  0  0  0  0  0  0  0
   35.3482   28.0025   49.2103 H   0  0  0  0  0  0  0  0  0  0  0  0
   33.5628   31.0639   46.7277 H   0  0  0  0  0  0  0  0  0  0  0  0
   35.1198   30.6795   50.4130 H   0  0  0  0  0  0  0  0  0  0  0  0
   37.1246   32.1445   50.9358 H   0  0  0  0  0  0  0  0  0  0  0  0
   38.3459   31.8093   46.9052 H   0  0  0  0  0  0  0  0  0  0  0  0
   31.6904   27.7274   49.5128 H   0  0  0  0  0  0  0  0  0  0  0  0
   29.8420   28.0627   51.1335 H   0  0  0  0  0  0  0  0  0  0  0  0
   27.4825   27.6721   50.3970 H   0  0  0  0  0  0  0  0  0  0  0  0
   27.0375   26.9620   48.0919 H   0  0  0  0  0  0  0  0  0  0  0  0
   29.7779   26.7678   45.5660 H   0  0  0  0  0  0  0  0  0  0  0  0
   29.2865   24.4295   46.6261 H   0  0  0  0  0  0  0  0  0  0  0  0
   27.5662   24.7430   46.3448 H   0  0  0  0  0  0  0  0  0  0  0  0
   29.8218   24.3474   44.3891 H   0  0  0  0  0  0  0  0  0  0  0  0
   28.0788   23.8095   44.3170 H   0  0  0  0  0  0  0  0  0  0  0  0
   28.1074   25.3135   42.6624 H   0  0  0  0  0  0  0  0  0  0  0  0
   29.3632   26.3485   43.5207 H   0  0  0  0  0  0  0  0  0  0  0  0
   27.3490   27.5748   43.4376 H   0  0  0  0  0  0  0  0  0  0  0  0
   26.4140   26.1601   44.0858 H   0  0  0  0  0  0  0  0  0  0  0  0
   27.7763   28.2510   45.5130 H   0  0  0  0  0  0  0  0  0  0  0  0
   26.7588   26.8863   46.1306 H   0  0  0  0  0  0  0  0  0  0  0  0
  2  7  1  0
  2  1  2  0
  3  2  1  0
  4  3  2  0
  4  5  1  0
  5  6  2  0
  6  1  1  0
  7  8  1  0
  8  9  2  0
 10 11  2  0
 10  9  1  0
 12 10  1  0
 13 12  1  0
 13  7  1  0
 14 13  2  0
 15  5  1  0
 15 16  1  0
 16 17  2  0
 17 18  1  0
 19 18  2  0
 20 19  1  0
 21 16  1  0
 21 20  2  0
 22 21  1  0
 23 22  1  0
 24 23  1  0
 25 26  1  0
 25 24  1  0
 26 27  1  0
 27 22  1  0
  1 28  1  0
  3 29  1  0
  8 30  1  0
  9 31  1  0
 12 32  1  0
 17 33  1  0
 18 34  1  0
 19 35  1  0
 20 36  1  0
 22 37  1  0
 23 38  1  0
 23 39  1  0
 24 40  1  0
 24 41  1  0
 25 42  1  0
 25 43  1  0
 26 44  1  0
 26 45  1  0
 27 46  1  0
 27 47  1  0
M  ISO  8  28  14  29  14  30  14  31  14  32   9  33  14  34  14  35  14
M  ISO  8  36  14  37  13  38  13  39  13  40  13  41  13  42  13  43  13
M  ISO  4  44  13  45  13  46  13  47  13
M  END
>  <minimizedAffinity>  (1) 
-6.22513151

>  <minimizedRMSD>  (1) 
2.03657579

$$$$
