
     RDKit          3D

 54 58  0  0  0  0  0  0  0  0999 V2000
   38.1620   31.4410   47.9500 C   0  0  0  0  0  0  0  0  0  0  0  0
   37.2610   31.6030   48.9880 C   0  0  0  0  0  0  0  0  0  0  0  0
   37.4070   32.7990   49.6930 C   0  0  0  0  0  0  0  0  0  0  0  0
   38.3810   33.7430   49.3710 C   0  0  0  0  0  0  0  0  0  0  0  0
   39.2570   33.4800   48.2860 C   0  0  0  0  0  0  0  0  0  0  0  0
   39.1290   32.3030   47.5760 C   0  0  0  0  0  0  0  0  0  0  0  0
   35.1800   30.4240   48.4700 C   0  0  0  0  0  0  0  0  0  0  0  0
   36.2560   30.6440   49.3310 C   0  0  0  0  0  0  0  0  0  0  0  0
   36.3000   29.8980   50.5120 C   0  0  0  0  0  0  0  0  0  0  0  0
   35.3190   29.0130   50.7680 N   0  0  0  0  0  0  0  0  0  0  0  0
   34.2810   28.8300   49.8950 C   0  0  0  0  0  0  0  0  0  0  0  0
   34.2190   29.5350   48.7540 N   0  0  0  0  0  0  0  0  0  0  0  0
   37.4240   30.0930   51.4620 C   0  0  0  0  0  0  0  0  0  0  0  0
   38.0980   30.2750   47.1820 O   0  0  0  0  0  0  0  0  0  0  0  0
   40.0140   32.1180   46.5390 O   0  0  0  0  0  0  0  0  0  0  0  0
   40.2120   30.8570   44.3990 C   0  0  0  0  0  0  0  0  0  0  0  0
   39.7110   31.8280   45.2420 C   0  0  0  0  0  0  0  0  0  0  0  0
   38.7240   32.6910   44.7520 C   0  0  0  0  0  0  0  0  0  0  0  0
   38.2660   32.5650   43.4360 C   0  0  0  0  0  0  0  0  0  0  0  0
   37.3510   33.2230   42.6850 N   0  0  0  0  0  0  0  0  0  0  0  0
   37.2910   32.6910   41.4500 C   0  0  0  0  0  0  0  0  0  0  0  0
   38.1950   31.6710   41.4290 N   0  0  0  0  0  0  0  0  0  0  0  0
   38.7920   31.5870   42.6300 C   0  0  0  0  0  0  0  0  0  0  0  0
   39.7570   30.7330   43.0940 C   0  0  0  0  0  0  0  0  0  0  0  0
   40.3760   29.6530   42.2930 C   0  0  0  0  0  0  0  0  0  0  0  0
   39.3380   28.5960   41.9310 C   0  0  0  0  0  0  0  0  0  0  0  0
   40.1100   27.4120   41.3950 C   0  0  0  0  0  0  0  0  0  0  0  0
   40.9250   27.7750   40.1760 C   0  0  0  0  0  0  0  0  0  0  0  0
   41.7790   28.9990   40.4100 C   0  0  0  0  0  0  0  0  0  0  0  0
   40.9580   30.1360   40.9820 C   0  0  0  0  0  0  0  0  0  0  0  0
   36.7282   33.0042   50.5339 H   0  0  0  0  0  0  0  0  0  0  0  0
   38.4690   34.6754   49.9479 H   0  0  0  0  0  0  0  0  0  0  0  0
   40.0334   34.2096   48.0123 H   0  0  0  0  0  0  0  0  0  0  0  0
   35.1193   30.9962   47.5325 H   0  0  0  0  0  0  0  0  0  0  0  0
   33.4921   28.1003   50.1297 H   0  0  0  0  0  0  0  0  0  0  0  0
   37.0477   30.0277   52.4936 H   0  0  0  0  0  0  0  0  0  0  0  0
   38.1821   29.3130   51.2982 H   0  0  0  0  0  0  0  0  0  0  0  0
   37.8750   31.0828   51.2982 H   0  0  0  0  0  0  0  0  0  0  0  0
   38.7330   30.1390   46.4348 H   0  0  0  0  0  0  0  0  0  0  0  0
   40.9864   30.1686   44.7684 H   0  0  0  0  0  0  0  0  0  0  0  0
   38.3065   33.4719   45.4046 H   0  0  0  0  0  0  0  0  0  0  0  0
   36.7823   34.0170   43.0121 H   0  0  0  0  0  0  0  0  0  0  0  0
   36.6421   33.0147   40.6229 H   0  0  0  0  0  0  0  0  0  0  0  0
   41.1808   29.2523   42.9268 H   0  0  0  0  0  0  0  0  0  0  0  0
   38.7637   28.3045   42.8228 H   0  0  0  0  0  0  0  0  0  0  0  0
   38.6212   28.9763   41.1883 H   0  0  0  0  0  0  0  0  0  0  0  0
   40.7881   27.0451   42.1796 H   0  0  0  0  0  0  0  0  0  0  0  0
   39.3858   26.6376   41.1022 H   0  0  0  0  0  0  0  0  0  0  0  0
   40.2409   27.9742   39.3379 H   0  0  0  0  0  0  0  0  0  0  0  0
   41.5945   26.9316   39.9514 H   0  0  0  0  0  0  0  0  0  0  0  0
   42.5834   28.7460   41.1164 H   0  0  0  0  0  0  0  0  0  0  0  0
   42.1983   29.3218   39.4456 H   0  0  0  0  0  0  0  0  0  0  0  0
   41.5984   31.0135   41.1546 H   0  0  0  0  0  0  0  0  0  0  0  0
   40.1593   30.4298   40.2851 H   0  0  0  0  0  0  0  0  0  0  0  0
  1  2  2  0
  2  8  1  0
  2  3  1  0
  4  3  2  0
  5  4  1  0
  6  1  1  0
  6  5  2  0
  7 12  2  0
  7  8  1  0
  8  9  2  0
  9 10  1  0
  9 13  1  0
 11 10  2  0
 12 11  1  0
 14  1  1  0
 15  6  1  0
 16 17  2  0
 17 15  1  0
 18 17  1  0
 19 18  2  0
 20 19  1  0
 21 20  1  0
 22 21  2  0
 22 23  1  0
 23 24  2  0
 23 19  1  0
 24 16  1  0
 25 24  1  0
 26 25  1  0
 27 26  1  0
 28 29  1  0
 28 27  1  0
 29 30  1  0
 30 25  1  0
  3 31  1  0
  4 32  1  0
  5 33  1  0
  7 34  1  0
 11 35  1  0
 13 36  1  0
 13 37  1  0
 13 38  1  0
 14 39  1  0
 16 40  1  0
 18 41  1  0
 20 42  1  0
 21 43  1  0
 25 44  1  0
 26 45  1  0
 26 46  1  0
 27 47  1  0
 27 48  1  0
 28 49  1  0
 28 50  1  0
 29 51  1  0
 29 52  1  0
 30 53  1  0
 30 54  1  0
M  ISO  8  31  14  32  14  33  14  34  14  35  14  36   8  37   8  38   8
M  ISO  8  39   3  40  14  41  14  42   9  43  14  44  13  45  13  46  13
M  ISO  8  47  13  48  13  49  13  50  13  51  13  52  13  53  13  54  13
M  END
>  <minimizedAffinity>  (1) 
-7.65244818

>  <minimizedRMSD>  (1) 
0.974038005

$$$$
