
     RDKit          3D

 39 41  0  0  0  0  0  0  0  0999 V2000
   38.4687   30.7924   49.8484 Cl  0  0  0  0  0  0  0  0  0  0  0  0
   37.0818   30.3574   48.8774 C   0  0  0  0  0  0  0  0  0  0  0  0
   37.0898   30.6246   47.5336 C   0  0  0  0  0  0  0  0  0  0  0  0
   36.0296   30.2919   46.7255 C   0  0  0  0  0  0  0  0  0  0  0  0
   34.9254   29.6750   47.2612 C   0  0  0  0  0  0  0  0  0  0  0  0
   34.8890   29.3922   48.6186 C   0  0  0  0  0  0  0  0  0  0  0  0
   33.5399   28.5954   49.3898 Cl  0  0  0  0  0  0  0  0  0  0  0  0
   35.9906   29.7504   49.3989 C   0  0  0  0  0  0  0  0  0  0  0  0
   39.6051   33.1546   46.6509 C   0  0  0  0  0  0  0  0  0  0  0  0
   40.4578   32.4717   45.8005 C   0  0  0  0  0  0  0  0  0  0  0  0
   40.1630   31.1107   45.5240 C   0  0  0  0  0  0  0  0  0  0  0  0
   39.0621   30.5832   46.1189 N   0  0  0  0  0  0  0  0  0  0  0  0
   38.2507   31.2805   46.9453 C   0  0  0  0  0  0  0  0  0  0  0  0
   38.5382   32.5709   47.2017 N   0  0  0  0  0  0  0  0  0  0  0  0
   35.9573   29.4591   50.8573 C   0  0  0  0  0  0  0  0  0  0  0  0
   36.0168   30.4929   45.6723 H   0  0  0  0  0  0  0  0  0  0  0  0
   34.0708   29.4000   46.6472 H   0  0  0  0  0  0  0  0  0  0  0  0
   39.7910   34.1935   46.8892 H   0  0  0  0  0  0  0  0  0  0  0  0
   41.3232   32.9564   45.3586 H   0  0  0  0  0  0  0  0  0  0  0  0
   40.7973   30.5504   44.8720 H   0  0  0  0  0  0  0  0  0  0  0  0
   36.9268   28.9841   51.1216 H   0  0  0  0  0  0  0  0  0  0  0  0
   35.1800   28.6784   51.0895 H   0  0  0  0  0  0  0  0  0  0  0  0
   35.6950   30.6353   51.7258 C   0  0  0  0  0  0  0  0  0  0  0  0
   35.9926   30.4644   53.1742 C   0  0  0  0  0  0  0  0  0  0  0  0
   35.1438   31.5242   53.8914 C   0  0  0  0  0  0  0  0  0  0  0  0
   35.1895   32.7979   53.0827 C   0  0  0  0  0  0  0  0  0  0  0  0
   36.4708   32.8925   52.2778 C   0  0  0  0  0  0  0  0  0  0  0  0
   36.5634   31.7867   51.2499 C   0  0  0  0  0  0  0  0  0  0  0  0
   34.6397   30.9703   51.5513 H   0  0  0  0  0  0  0  0  0  0  0  0
   35.8715   29.4688   53.5932 H   0  0  0  0  0  0  0  0  0  0  0  0
   37.0612   30.7607   53.3953 H   0  0  0  0  0  0  0  0  0  0  0  0
   34.0711   31.2073   53.8907 H   0  0  0  0  0  0  0  0  0  0  0  0
   35.4895   31.6776   54.9279 H   0  0  0  0  0  0  0  0  0  0  0  0
   34.3455   32.9106   52.3989 H   0  0  0  0  0  0  0  0  0  0  0  0
   35.1910   33.6469   53.7907 H   0  0  0  0  0  0  0  0  0  0  0  0
   36.4244   33.8547   51.7338 H   0  0  0  0  0  0  0  0  0  0  0  0
   37.3375   32.9355   52.9584 H   0  0  0  0  0  0  0  0  0  0  0  0
   36.3646   32.0949   50.2224 H   0  0  0  0  0  0  0  0  0  0  0  0
   37.6159   31.3810   51.3257 H   0  0  0  0  0  0  0  0  0  0  0  0
  2  8  2  0
  2  1  1  0
  3  2  1  0
  4  5  1  0
  4  3  2  0
  5  6  2  0
  6  8  1  0
  6  7  1  0
  8 15  1  0
  9 14  2  0
 10  9  1  0
 11 10  2  0
 11 12  1  0
 12 13  2  0
 13 14  1  0
 13  3  1  0
  4 16  1  0
  5 17  1  0
  9 18  1  0
 10 19  1  0
 11 20  1  0
 15 21  1  0
 15 22  1  0
 23 24  1  0
 24 25  1  0
 25 26  1  0
 26 27  1  0
 27 28  1  0
 28 23  1  0
 23 29  1  0
 24 30  1  0
 24 31  1  0
 25 32  1  0
 25 33  1  0
 26 34  1  0
 26 35  1  0
 27 36  1  0
 27 37  1  0
 28 38  1  0
 28 39  1  0
 15 23  1  0
M  ISO  7  16  14  17  14  18  14  19  14  20  14  21   8  22   8
M  END
>  <DihAtoms>  (1) 
7,14,22,23

>  <DihDeg>  (1) 
60.01627010247724

$$$$
