
     RDKit          3D

 36 38  0  0  0  0  0  0  0  0999 V2000
   37.2610   29.3220   51.0200 Br  0  0  0  0  0  0  0  0  0  0  0  0
   35.9470   29.3040   49.6380 C   0  0  0  0  0  0  0  0  0  0  0  0
   35.9980   30.2270   48.6040 C   0  0  0  0  0  0  0  0  0  0  0  0
   35.0080   30.1430   47.6440 C   0  0  0  0  0  0  0  0  0  0  0  0
   33.9870   29.2140   47.6510 C   0  0  0  0  0  0  0  0  0  0  0  0
   33.9790   28.3110   48.7080 C   0  0  0  0  0  0  0  0  0  0  0  0
   34.9620   28.3700   49.6890 C   0  0  0  0  0  0  0  0  0  0  0  0
   37.9710   33.1640   49.4580 C   0  0  0  0  0  0  0  0  0  0  0  0
   39.0100   33.1740   48.5020 C   0  0  0  0  0  0  0  0  0  0  0  0
   39.0090   32.1440   47.5610 C   0  0  0  0  0  0  0  0  0  0  0  0
   38.0270   31.1840   47.5950 N   0  0  0  0  0  0  0  0  0  0  0  0
   37.0470   31.2260   48.5450 C   0  0  0  0  0  0  0  0  0  0  0  0
   37.0200   32.2180   49.4760 N   0  0  0  0  0  0  0  0  0  0  0  0
   32.9520   29.1810   46.5850 C   0  0  0  0  0  0  0  0  0  0  0  0
   32.6680   30.5880   46.1460 C   0  0  0  0  0  0  0  0  0  0  0  0
   31.4940   30.7050   45.2260 C   0  0  0  0  0  0  0  0  0  0  0  0
   30.6460   29.4630   45.1730 C   0  0  0  0  0  0  0  0  0  0  0  0
   30.4430   28.9090   46.5580 C   0  0  0  0  0  0  0  0  0  0  0  0
   31.7500   28.4280   47.0880 C   0  0  0  0  0  0  0  0  0  0  0  0
   35.0353   30.8670   46.8163 H   0  0  0  0  0  0  0  0  0  0  0  0
   33.1909   27.5460   48.7683 H   0  0  0  0  0  0  0  0  0  0  0  0
   34.9419   27.6491   50.5196 H   0  0  0  0  0  0  0  0  0  0  0  0
   37.9402   33.9609   50.2156 H   0  0  0  0  0  0  0  0  0  0  0  0
   39.7832   33.9564   48.4993 H   0  0  0  0  0  0  0  0  0  0  0  0
   39.7944   32.1006   46.7920 H   0  0  0  0  0  0  0  0  0  0  0  0
   33.2954   28.6401   45.6909 H   0  0  0  0  0  0  0  0  0  0  0  0
   32.4708   31.1977   47.0401 H   0  0  0  0  0  0  0  0  0  0  0  0
   33.5500   30.9351   45.5878 H   0  0  0  0  0  0  0  0  0  0  0  0
   30.8660   31.5409   45.5677 H   0  0  0  0  0  0  0  0  0  0  0  0
   31.8917   30.8683   44.2135 H   0  0  0  0  0  0  0  0  0  0  0  0
   29.6681   29.7099   44.7341 H   0  0  0  0  0  0  0  0  0  0  0  0
   31.1560   28.7078   44.5569 H   0  0  0  0  0  0  0  0  0  0  0  0
   30.0466   29.6969   47.2153 H   0  0  0  0  0  0  0  0  0  0  0  0
   29.7282   28.0737   46.5216 H   0  0  0  0  0  0  0  0  0  0  0  0
   31.8656   27.3712   46.8053 H   0  0  0  0  0  0  0  0  0  0  0  0
   31.7193   28.5861   48.1762 H   0  0  0  0  0  0  0  0  0  0  0  0
  2  7  2  0
  2  1  1  0
  3  2  1  0
  4  5  1  0
  4  3  2  0
  5  6  2  0
  6  7  1  0
  8 13  2  0
  9  8  1  0
 10 11  1  0
 10  9  2  0
 11 12  2  0
 12  3  1  0
 12 13  1  0
 14 19  1  0
 14  5  1  0
 15 14  1  0
 16 15  1  0
 17 16  1  0
 17 18  1  0
 18 19  1  0
  4 20  1  0
  6 21  1  0
  7 22  1  0
  8 23  1  0
  9 24  1  0
 10 25  1  0
 14 26  1  0
 15 27  1  0
 15 28  1  0
 16 29  1  0
 16 30  1  0
 17 31  1  0
 17 32  1  0
 18 33  1  0
 18 34  1  0
 19 35  1  0
 19 36  1  0
M  ISO  8  20  14  21  14  22  14  23  14  24  14  25  14  26  13  27  13
M  ISO  8  28  13  29  13  30  13  31  13  32  13  33  13  34  13  35  13
M  ISO  1  36  13
M  END
>  <minimizedAffinity>  (1) 
-6.16430759

>  <minimizedRMSD>  (1) 
0.0991789103

$$$$
