
     RDKit          3D

 36 38  0  0  0  0  0  0  0  0999 V2000
   37.3710   31.3516   49.2064 C   0  0  0  0  0  0  0  0  0  0  0  0
   37.7089   32.6554   49.6005 C   0  0  0  0  0  0  0  0  0  0  0  0
   38.5920   33.3393   48.7658 C   0  0  0  0  0  0  0  0  0  0  0  0
   39.0643   32.7234   47.6468 N   0  0  0  0  0  0  0  0  0  0  0  0
   38.7072   31.4598   47.3081 C   0  0  0  0  0  0  0  0  0  0  0  0
   37.8380   30.7527   48.1085 N   0  0  0  0  0  0  0  0  0  0  0  0
   36.3896   30.6099   50.0544 C   0  0  0  0  0  0  0  0  0  0  0  0
   36.2640   29.1730   50.0489 C   0  0  0  0  0  0  0  0  0  0  0  0
   37.0474   29.8090   51.1827 C   0  0  0  0  0  0  0  0  0  0  0  0
   39.1847   30.7980   46.1019 C   0  0  0  0  0  0  0  0  0  0  0  0
   37.3152   33.1074   50.4905 H   0  0  0  0  0  0  0  0  0  0  0  0
   38.8982   34.3454   49.0035 H   0  0  0  0  0  0  0  0  0  0  0  0
   35.5183   31.2396   50.3593 H   0  0  0  0  0  0  0  0  0  0  0  0
   36.8770   28.4850   49.4373 H   0  0  0  0  0  0  0  0  0  0  0  0
   35.2656   28.7354   50.2688 H   0  0  0  0  0  0  0  0  0  0  0  0
   38.1377   29.7306   51.2247 H   0  0  0  0  0  0  0  0  0  0  0  0
   36.5428   29.9468   52.1571 H   0  0  0  0  0  0  0  0  0  0  0  0
   39.3643   31.6090   45.3407 H   0  0  0  0  0  0  0  0  0  0  0  0
   38.4349   30.1160   45.6378 H   0  0  0  0  0  0  0  0  0  0  0  0
   40.4512   30.0185   46.2301 C   0  0  0  0  0  0  0  0  0  0  0  0
   40.7316   29.4325   44.8490 C   0  0  0  0  0  0  0  0  0  0  0  0
   41.3531   30.4689   43.9289 C   0  0  0  0  0  0  0  0  0  0  0  0
   42.7867   30.6626   44.3787 C   0  0  0  0  0  0  0  0  0  0  0  0
   42.8577   30.3594   45.8464 C   0  0  0  0  0  0  0  0  0  0  0  0
   41.6467   30.8364   46.6218 C   0  0  0  0  0  0  0  0  0  0  0  0
   40.2935   29.1521   46.9041 H   0  0  0  0  0  0  0  0  0  0  0  0
   39.7484   29.1001   44.4691 H   0  0  0  0  0  0  0  0  0  0  0  0
   41.3808   28.5528   44.8778 H   0  0  0  0  0  0  0  0  0  0  0  0
   41.2879   30.0825   42.8952 H   0  0  0  0  0  0  0  0  0  0  0  0
   40.8314   31.4282   43.9349 H   0  0  0  0  0  0  0  0  0  0  0  0
   43.0678   31.7067   44.1853 H   0  0  0  0  0  0  0  0  0  0  0  0
   43.4264   29.9815   43.8077 H   0  0  0  0  0  0  0  0  0  0  0  0
   42.9715   29.2605   45.9593 H   0  0  0  0  0  0  0  0  0  0  0  0
   43.7768   30.8344   46.2416 H   0  0  0  0  0  0  0  0  0  0  0  0
   41.5004   31.9067   46.4438 H   0  0  0  0  0  0  0  0  0  0  0  0
   41.8693   30.6114   47.6926 H   0  0  0  0  0  0  0  0  0  0  0  0
  1  2  2  0
  1  7  1  0
  3  2  1  0
  4  3  2  0
  5  4  1  0
  5  6  2  0
  6  1  1  0
  7  9  1  0
  8  7  1  0
  8  9  1  0
 10  5  1  0
  2 11  1  0
  3 12  1  0
  7 13  1  0
  8 14  1  0
  8 15  1  0
  9 16  1  0
  9 17  1  0
 10 18  1  0
 10 19  1  0
 20 21  1  0
 21 22  1  0
 22 23  1  0
 23 24  1  0
 24 25  1  0
 25 20  1  0
 20 26  1  0
 21 27  1  0
 21 28  1  0
 22 29  1  0
 22 30  1  0
 23 31  1  0
 23 32  1  0
 24 33  1  0
 24 34  1  0
 25 35  1  0
 25 36  1  0
 10 20  1  0
M  ISO  8  11  14  12  14  13  13  14  13  15  13  16  13  17  13  18   8
M  ISO  1  19   8
M  END
>  <DihAtoms>  (1) 
4,9,19,20

>  <DihDeg>  (1) 
179.99908557787938

$$$$
