
     RDKit          3D

 27 28  0  0  1  0  0  0  0  0999 V2000
   36.7360   29.9200   49.5870 C   0  0  0  0  0  0  0  0  0  0  0  0
   37.8910   30.3370   48.9120 C   0  0  0  0  0  0  0  0  0  0  0  0
   37.7900   30.7030   47.5720 C   0  0  0  0  0  0  0  0  0  0  0  0
   36.5460   30.6300   46.9920 N   0  0  0  0  0  0  0  0  0  0  0  0
   35.4640   30.2260   47.6720 C   0  0  0  0  0  0  0  0  0  0  0  0
   35.5520   29.8730   48.9570 N   0  0  0  0  0  0  0  0  0  0  0  0
   38.9750   31.1560   46.7950 C   0  0  2  0  0  0  0  0  0  0  0  0
   38.8930   32.6180   46.4210 C   0  0  0  0  0  0  0  0  0  0  0  0
   40.2610   32.9800   45.9360 C   0  0  0  0  0  0  0  0  0  0  0  0
   40.6130   32.2140   44.7180 C   0  0  0  0  0  0  0  0  0  0  0  0
   39.9870   30.9010   44.5000 C   0  0  0  0  0  0  0  0  0  0  0  0
   39.1090   30.3310   45.5480 C   0  0  0  0  0  0  0  0  0  0  0  0
   36.8570   29.5280   51.0280 C   0  0  0  0  0  0  0  0  0  0  0  0
   35.6070   29.1620   51.5190 F   0  0  0  0  0  0  0  0  0  0  0  0
   37.7810   28.5310   51.1190 F   0  0  0  0  0  0  0  0  0  0  0  0
   37.2520   30.6640   51.7320 F   0  0  0  0  0  0  0  0  0  0  0  0
   38.8601   30.3746   49.4311 H   0  0  0  0  0  0  0  0  0  0  0  0
   34.4891   30.1846   47.1642 H   0  0  0  0  0  0  0  0  0  0  0  0
   39.8572   31.0247   47.4389 H   0  0  0  0  0  0  0  0  0  0  0  0
   38.1493   32.7707   45.6250 H   0  0  0  0  0  0  0  0  0  0  0  0
   38.5818   33.2416   47.2720 H   0  0  0  0  0  0  0  0  0  0  0  0
   40.2878   34.0551   45.7049 H   0  0  0  0  0  0  0  0  0  0  0  0
   40.9880   32.7368   46.7249 H   0  0  0  0  0  0  0  0  0  0  0  0
   41.3300   32.6200   43.9893 H   0  0  0  0  0  0  0  0  0  0  0  0
   40.1692   30.3473   43.5671 H   0  0  0  0  0  0  0  0  0  0  0  0
   38.1053   30.2024   45.1167 H   0  0  0  0  0  0  0  0  0  0  0  0
   39.5812   29.3872   45.8584 H   0  0  0  0  0  0  0  0  0  0  0  0
  1 13  1  0
  2  1  2  0
  3  2  1  0
  4  3  2  0
  4  5  1  0
  5  6  2  0
  6  1  1  0
  7  3  1  0
  8  7  1  0
  9  8  1  0
 10  9  1  0
 11 10  2  0
 11 12  1  0
 12  7  1  0
 13 15  1  0
 13 14  1  0
 13 16  1  0
  2 17  1  0
  5 18  1  0
  7 19  1  1
  8 20  1  0
  8 21  1  0
  9 22  1  0
  9 23  1  0
 10 24  1  0
 11 25  1  0
 12 26  1  0
 12 27  1  0
M  ISO  8  17  14  18  14  19  13  20  13  21  13  22  13  23  13  24  13
M  ISO  3  25  13  26  13  27  13
M  END
>  <minimizedAffinity>  (1) 
-6.13913727

>  <minimizedRMSD>  (1) 
2.52593136

$$$$
