
     RDKit          3D

 35 37  0  0  0  0  0  0  0  0999 V2000
   34.2010   28.1120   49.1820 C   0  0  0  0  0  0  0  0  0  0  0  0
   34.8930   29.2180   48.6580 C   0  0  0  0  0  0  0  0  0  0  0  0
   34.3510   29.8070   47.5250 C   0  0  0  0  0  0  0  0  0  0  0  0
   33.2070   29.2980   46.9930 N   0  0  0  0  0  0  0  0  0  0  0  0
   32.5740   28.2380   47.5250 C   0  0  0  0  0  0  0  0  0  0  0  0
   33.0730   27.6390   48.6280 N   0  0  0  0  0  0  0  0  0  0  0  0
   31.3550   27.7310   46.9200 C   0  0  0  0  0  0  0  0  0  0  0  0
   30.9340   26.4330   47.1800 C   0  0  0  0  0  0  0  0  0  0  0  0
   29.7800   25.9280   46.6170 C   0  0  0  0  0  0  0  0  0  0  0  0
   29.0820   26.7850   45.7940 C   0  0  0  0  0  0  0  0  0  0  0  0
   29.4770   28.0870   45.5150 C   0  0  0  0  0  0  0  0  0  0  0  0
   30.6290   28.5120   46.1100 N   0  0  0  0  0  0  0  0  0  0  0  0
   36.1250   29.6700   49.3320 C   0  0  0  0  0  0  0  0  0  0  0  0
   36.3890   31.1160   48.9920 C   0  0  0  0  0  0  0  0  0  0  0  0
   37.4410   31.7280   49.8860 C   0  0  0  0  0  0  0  0  0  0  0  0
   38.1770   30.6410   50.6220 C   0  0  0  0  0  0  0  0  0  0  0  0
   37.2330   29.9110   51.5430 C   0  0  0  0  0  0  0  0  0  0  0  0
   35.9780   29.4580   50.8210 C   0  0  0  0  0  0  0  0  0  0  0  0
   34.5986   27.6155   50.0795 H   0  0  0  0  0  0  0  0  0  0  0  0
   34.8409   30.6762   47.0618 H   0  0  0  0  0  0  0  0  0  0  0  0
   31.5322   25.7955   47.8476 H   0  0  0  0  0  0  0  0  0  0  0  0
   29.4372   24.9014   46.8136 H   0  0  0  0  0  0  0  0  0  0  0  0
   28.1557   26.4155   45.3298 H   0  0  0  0  0  0  0  0  0  0  0  0
   28.8927   28.7402   44.8503 H   0  0  0  0  0  0  0  0  0  0  0  0
   36.9901   29.0854   48.9858 H   0  0  0  0  0  0  0  0  0  0  0  0
   36.7310   31.1780   47.9483 H   0  0  0  0  0  0  0  0  0  0  0  0
   35.4530   31.6746   49.1398 H   0  0  0  0  0  0  0  0  0  0  0  0
   38.1526   32.3013   49.2736 H   0  0  0  0  0  0  0  0  0  0  0  0
   36.9567   32.3964   50.6131 H   0  0  0  0  0  0  0  0  0  0  0  0
   38.5991   29.9308   49.8957 H   0  0  0  0  0  0  0  0  0  0  0  0
   38.9853   31.0914   51.2168 H   0  0  0  0  0  0  0  0  0  0  0  0
   37.7464   29.0284   51.9522 H   0  0  0  0  0  0  0  0  0  0  0  0
   36.9350   30.6026   52.3448 H   0  0  0  0  0  0  0  0  0  0  0  0
   35.1188   30.0390   51.1873 H   0  0  0  0  0  0  0  0  0  0  0  0
   35.8192   28.3872   51.0163 H   0  0  0  0  0  0  0  0  0  0  0  0
  2  1  2  0
  2 13  1  0
  3  2  1  0
  4  3  2  0
  4  5  1  0
  5  6  2  0
  6  1  1  0
  7  8  2  0
  7  5  1  0
  9  8  1  0
 10  9  2  0
 11 10  1  0
 11 12  2  0
 12  7  1  0
 13 18  1  0
 14 13  1  0
 14 15  1  0
 15 16  1  0
 16 17  1  0
 18 17  1  0
  1 19  1  0
  3 20  1  0
  8 21  1  0
  9 22  1  0
 10 23  1  0
 11 24  1  0
 13 25  1  0
 14 26  1  0
 14 27  1  0
 15 28  1  0
 15 29  1  0
 16 30  1  0
 16 31  1  0
 17 32  1  0
 17 33  1  0
 18 34  1  0
 18 35  1  0
M  ISO  8  19  14  20  14  21  14  22  14  23  14  24  14  25  13  26  13
M  ISO  8  27  13  28  13  29  13  30  13  31  13  32  13  33  13  34  13
M  ISO  1  35  13
M  END
>  <minimizedAffinity>  (1) 
-5.53558636

>  <minimizedRMSD>  (1) 
5.92276239

$$$$
