
     RDKit          3D

 36 38  0  0  0  0  0  0  0  0999 V2000
   37.3710   31.3516   49.2064 C   0  0  0  0  0  0  0  0  0  0  0  0
   37.7089   32.6554   49.6005 C   0  0  0  0  0  0  0  0  0  0  0  0
   38.5920   33.3393   48.7658 C   0  0  0  0  0  0  0  0  0  0  0  0
   39.0643   32.7234   47.6468 N   0  0  0  0  0  0  0  0  0  0  0  0
   38.7072   31.4598   47.3081 C   0  0  0  0  0  0  0  0  0  0  0  0
   37.8380   30.7527   48.1085 N   0  0  0  0  0  0  0  0  0  0  0  0
   36.3896   30.6099   50.0544 C   0  0  0  0  0  0  0  0  0  0  0  0
   36.2640   29.1730   50.0489 C   0  0  0  0  0  0  0  0  0  0  0  0
   37.0474   29.8090   51.1827 C   0  0  0  0  0  0  0  0  0  0  0  0
   39.1847   30.7980   46.1019 C   0  0  0  0  0  0  0  0  0  0  0  0
   37.3152   33.1074   50.4905 H   0  0  0  0  0  0  0  0  0  0  0  0
   38.8982   34.3454   49.0035 H   0  0  0  0  0  0  0  0  0  0  0  0
   35.5183   31.2396   50.3593 H   0  0  0  0  0  0  0  0  0  0  0  0
   36.8770   28.4850   49.4373 H   0  0  0  0  0  0  0  0  0  0  0  0
   35.2656   28.7354   50.2688 H   0  0  0  0  0  0  0  0  0  0  0  0
   38.1377   29.7306   51.2247 H   0  0  0  0  0  0  0  0  0  0  0  0
   36.5428   29.9468   52.1571 H   0  0  0  0  0  0  0  0  0  0  0  0
   39.3643   31.6090   45.3407 H   0  0  0  0  0  0  0  0  0  0  0  0
   38.4349   30.1160   45.6378 H   0  0  0  0  0  0  0  0  0  0  0  0
   40.4512   30.0185   46.2301 C   0  0  0  0  0  0  0  0  0  0  0  0
   41.5836   30.9923   45.9159 C   0  0  0  0  0  0  0  0  0  0  0  0
   41.8963   31.8749   47.1118 C   0  0  0  0  0  0  0  0  0  0  0  0
   42.6237   31.0138   48.1239 C   0  0  0  0  0  0  0  0  0  0  0  0
   42.1757   29.5946   47.9333 C   0  0  0  0  0  0  0  0  0  0  0  0
   40.7032   29.4646   47.6017 C   0  0  0  0  0  0  0  0  0  0  0  0
   40.4931   29.2365   45.4450 H   0  0  0  0  0  0  0  0  0  0  0  0
   41.2224   31.5923   45.0609 H   0  0  0  0  0  0  0  0  0  0  0  0
   42.5034   30.4948   45.5955 H   0  0  0  0  0  0  0  0  0  0  0  0
   42.5182   32.7162   46.7549 H   0  0  0  0  0  0  0  0  0  0  0  0
   41.0105   32.3175   47.5723 H   0  0  0  0  0  0  0  0  0  0  0  0
   42.3607   31.3709   49.1289 H   0  0  0  0  0  0  0  0  0  0  0  0
   43.7011   31.1096   47.9531 H   0  0  0  0  0  0  0  0  0  0  0  0
   42.7882   29.1534   47.1188 H   0  0  0  0  0  0  0  0  0  0  0  0
   42.4086   29.0428   48.8649 H   0  0  0  0  0  0  0  0  0  0  0  0
   40.1117   29.9677   48.3734 H   0  0  0  0  0  0  0  0  0  0  0  0
   40.5013   28.3671   47.5612 H   0  0  0  0  0  0  0  0  0  0  0  0
  1  2  2  0
  1  7  1  0
  3  2  1  0
  4  3  2  0
  5  4  1  0
  5  6  2  0
  6  1  1  0
  7  9  1  0
  8  7  1  0
  8  9  1  0
 10  5  1  0
  2 11  1  0
  3 12  1  0
  7 13  1  0
  8 14  1  0
  8 15  1  0
  9 16  1  0
  9 17  1  0
 10 18  1  0
 10 19  1  0
 20 21  1  0
 21 22  1  0
 22 23  1  0
 23 24  1  0
 24 25  1  0
 25 20  1  0
 20 26  1  0
 21 27  1  0
 21 28  1  0
 22 29  1  0
 22 30  1  0
 23 31  1  0
 23 32  1  0
 24 33  1  0
 24 34  1  0
 25 35  1  0
 25 36  1  0
 10 20  1  0
M  ISO  8  11  14  12  14  13  13  14  13  15  13  16  13  17  13  18   8
M  ISO  1  19   8
M  END
>  <DihAtoms>  (1) 
4,9,19,20

>  <DihDeg>  (1) 
179.99908557787938

$$$$
