
     RDKit          3D

 38 40  0  0  0  0  0  0  0  0999 V2000
   36.7730   30.8860   47.3510 C   0  0  0  0  0  0  0  0  0  0  0  0
   37.0530   30.9650   45.9750 C   0  0  0  0  0  0  0  0  0  0  0  0
   36.1930   30.2970   45.0760 C   0  0  0  0  0  0  0  0  0  0  0  0
   35.1420   29.6140   45.5940 N   0  0  0  0  0  0  0  0  0  0  0  0
   34.9020   29.5570   46.9110 C   0  0  0  0  0  0  0  0  0  0  0  0
   35.7050   30.1850   47.8010 N   0  0  0  0  0  0  0  0  0  0  0  0
   33.7660   28.8110   47.3790 N   0  0  0  0  0  0  0  0  0  0  0  0
   32.3960   29.1100   46.9950 C   0  0  0  0  0  0  0  0  0  0  0  0
   31.6010   27.9390   47.4520 C   0  0  0  0  0  0  0  0  0  0  0  0
   32.5960   26.9010   47.9440 C   0  0  0  0  0  0  0  0  0  0  0  0
   33.8230   27.6690   48.2920 C   0  0  0  0  0  0  0  0  0  0  0  0
   38.2300   31.7400   45.5210 C   0  0  0  0  0  0  0  0  0  0  0  0
   39.0100   32.2150   46.7120 C   0  0  0  0  0  0  0  0  0  0  0  0
   40.0290   33.2160   46.2150 C   0  0  0  0  0  0  0  0  0  0  0  0
   40.9660   32.5720   45.2540 C   0  0  0  0  0  0  0  0  0  0  0  0
   40.5870   31.2190   44.7700 C   0  0  0  0  0  0  0  0  0  0  0  0
   39.1350   30.9490   44.6130 C   0  0  0  0  0  0  0  0  0  0  0  0
   37.4287   31.3993   48.0698 H   0  0  0  0  0  0  0  0  0  0  0  0
   36.3698   30.3295   43.9908 H   0  0  0  0  0  0  0  0  0  0  0  0
   32.0484   30.0293   47.4890 H   0  0  0  0  0  0  0  0  0  0  0  0
   32.2986   29.2769   45.9121 H   0  0  0  0  0  0  0  0  0  0  0  0
   30.9262   28.2344   48.2689 H   0  0  0  0  0  0  0  0  0  0  0  0
   30.9820   27.5381   46.6358 H   0  0  0  0  0  0  0  0  0  0  0  0
   32.2033   26.3798   48.8295 H   0  0  0  0  0  0  0  0  0  0  0  0
   32.7953   26.1307   47.1844 H   0  0  0  0  0  0  0  0  0  0  0  0
   34.7280   27.0684   48.1180 H   0  0  0  0  0  0  0  0  0  0  0  0
   33.8651   27.9624   49.3513 H   0  0  0  0  0  0  0  0  0  0  0  0
   37.8503   32.5939   44.9408 H   0  0  0  0  0  0  0  0  0  0  0  0
   38.3352   32.6937   47.4369 H   0  0  0  0  0  0  0  0  0  0  0  0
   39.5068   31.3710   47.2128 H   0  0  0  0  0  0  0  0  0  0  0  0
   39.5078   34.0443   45.7127 H   0  0  0  0  0  0  0  0  0  0  0  0
   40.6037   33.5948   47.0730 H   0  0  0  0  0  0  0  0  0  0  0  0
   41.0507   33.2301   44.3766 H   0  0  0  0  0  0  0  0  0  0  0  0
   41.9050   32.4320   45.8096 H   0  0  0  0  0  0  0  0  0  0  0  0
   41.0615   31.0711   43.7887 H   0  0  0  0  0  0  0  0  0  0  0  0
   40.9267   30.5261   45.5539 H   0  0  0  0  0  0  0  0  0  0  0  0
   38.8575   31.1780   43.5735 H   0  0  0  0  0  0  0  0  0  0  0  0
   38.9913   29.8931   44.8859 H   0  0  0  0  0  0  0  0  0  0  0  0
  1  6  2  0
  2  1  1  0
  3  4  1  0
  3  2  2  0
  4  5  2  0
  5  7  1  0
  5  6  1  0
  7 11  1  0
  8  7  1  0
  8  9  1  0
  9 10  1  0
 10 11  1  0
 12  2  1  0
 12 13  1  0
 14 13  1  0
 15 14  1  0
 16 15  1  0
 17 16  1  0
 17 12  1  0
  1 18  1  0
  3 19  1  0
  8 20  1  0
  8 21  1  0
  9 22  1  0
  9 23  1  0
 10 24  1  0
 10 25  1  0
 11 26  1  0
 11 27  1  0
 12 28  1  0
 13 29  1  0
 13 30  1  0
 14 31  1  0
 14 32  1  0
 15 33  1  0
 15 34  1  0
 16 35  1  0
 16 36  1  0
 17 37  1  0
 17 38  1  0
M  ISO  8  18  14  19  14  20  13  21  13  22  13  23  13  24  13  25  13
M  ISO  8  26  13  27  13  28  13  29  13  30  13  31  13  32  13  33  13
M  ISO  5  34  13  35  13  36  13  37  13  38  13
M  END
>  <minimizedAffinity>  (1) 
-4.73573208

>  <minimizedRMSD>  (1) 
3.60118032

$$$$
