
     RDKit          3D

 33 35  0  0  0  0  0  0  0  0999 V2000
   36.0430   30.1990   48.5910 C   0  0  0  0  0  0  0  0  0  0  0  0
   35.8880   29.1830   49.4450 C   0  0  0  0  0  0  0  0  0  0  0  0
   34.8430   28.3160   49.3250 C   0  0  0  0  0  0  0  0  0  0  0  0
   33.9860   28.5630   48.2880 C   0  0  0  0  0  0  0  0  0  0  0  0
   34.7060   30.0500   47.4980 S   0  0  0  0  0  0  0  0  0  0  0  0
   38.0090   33.1230   49.5190 C   0  0  0  0  0  0  0  0  0  0  0  0
   38.9790   33.1830   48.4820 C   0  0  0  0  0  0  0  0  0  0  0  0
   38.9410   32.2070   47.4690 C   0  0  0  0  0  0  0  0  0  0  0  0
   37.9700   31.2510   47.5380 N   0  0  0  0  0  0  0  0  0  0  0  0
   37.0770   31.2330   48.5340 C   0  0  0  0  0  0  0  0  0  0  0  0
   37.0760   32.1450   49.5210 N   0  0  0  0  0  0  0  0  0  0  0  0
   32.7550   27.8470   47.8500 C   0  0  0  0  0  0  0  0  0  0  0  0
   32.1100   28.5700   46.7160 C   0  0  0  0  0  0  0  0  0  0  0  0
   30.6030   28.5060   46.7680 C   0  0  0  0  0  0  0  0  0  0  0  0
   30.1540   27.1600   47.2900 C   0  0  0  0  0  0  0  0  0  0  0  0
   30.6910   26.8210   48.6430 C   0  0  0  0  0  0  0  0  0  0  0  0
   31.8170   27.7700   49.0090 C   0  0  0  0  0  0  0  0  0  0  0  0
   36.6156   29.0440   50.2582 H   0  0  0  0  0  0  0  0  0  0  0  0
   34.6984   27.4730   50.0167 H   0  0  0  0  0  0  0  0  0  0  0  0
   38.0176   33.8745   50.3222 H   0  0  0  0  0  0  0  0  0  0  0  0
   39.7425   33.9748   48.4715 H   0  0  0  0  0  0  0  0  0  0  0  0
   39.6717   32.2146   46.6468 H   0  0  0  0  0  0  0  0  0  0  0  0
   33.0148   26.8348   47.5066 H   0  0  0  0  0  0  0  0  0  0  0  0
   32.4493   28.1186   45.7720 H   0  0  0  0  0  0  0  0  0  0  0  0
   32.4009   29.6284   46.7876 H   0  0  0  0  0  0  0  0  0  0  0  0
   30.2287   29.2971   47.4344 H   0  0  0  0  0  0  0  0  0  0  0  0
   30.2030   28.6484   45.7532 H   0  0  0  0  0  0  0  0  0  0  0  0
   29.0553   27.1593   47.3441 H   0  0  0  0  0  0  0  0  0  0  0  0
   30.5452   26.4030   46.5943 H   0  0  0  0  0  0  0  0  0  0  0  0
   29.8852   26.9083   49.3867 H   0  0  0  0  0  0  0  0  0  0  0  0
   31.0776   25.7913   48.6296 H   0  0  0  0  0  0  0  0  0  0  0  0
   32.3492   27.3929   49.8948 H   0  0  0  0  0  0  0  0  0  0  0  0
   31.4145   28.7673   49.2399 H   0  0  0  0  0  0  0  0  0  0  0  0
  1  2  2  0
  3  2  1  0
  4  3  2  0
  5  4  1  0
  5  1  1  0
  6 11  2  0
  7  6  1  0
  8  9  1  0
  8  7  2  0
  9 10  2  0
 10  1  1  0
 10 11  1  0
 12  4  1  0
 12 17  1  0
 13 14  1  0
 13 12  1  0
 14 15  1  0
 15 16  1  0
 16 17  1  0
  2 18  1  0
  3 19  1  0
  6 20  1  0
  7 21  1  0
  8 22  1  0
 12 23  1  0
 13 24  1  0
 13 25  1  0
 14 26  1  0
 14 27  1  0
 15 28  1  0
 15 29  1  0
 16 30  1  0
 16 31  1  0
 17 32  1  0
 17 33  1  0
M  ISO  8  18  14  19  14  20  14  21  14  22  14  23  13  24  13  25  13
M  ISO  8  26  13  27  13  28  13  29  13  30  13  31  13  32  13  33  13
M  END
>  <minimizedAffinity>  (1) 
-5.36949682

>  <minimizedRMSD>  (1) 
0.252550244

$$$$
