
     RDKit          3D

 53 57  0  0  0  0  0  0  0  0999 V2000
   36.2411   30.1841   46.8666 C   0  0  0  0  0  0  0  0  0  0  0  0
   37.0813   30.7698   47.8111 C   0  0  0  0  0  0  0  0  0  0  0  0
   38.0642   31.6894   47.4401 C   0  0  0  0  0  0  0  0  0  0  0  0
   38.1479   31.9768   46.0838 C   0  0  0  0  0  0  0  0  0  0  0  0
   39.0238   32.8356   45.4794 N   0  0  0  0  0  0  0  0  0  0  0  0
   38.7397   32.7911   44.1650 C   0  0  0  0  0  0  0  0  0  0  0  0
   37.7476   31.9600   43.9336 N   0  0  0  0  0  0  0  0  0  0  0  0
   37.3389   31.4214   45.1136 C   0  0  0  0  0  0  0  0  0  0  0  0
   36.3632   30.5038   45.5198 C   0  0  0  0  0  0  0  0  0  0  0  0
   37.4977   30.1372   51.4773 C   0  0  0  0  0  0  0  0  0  0  0  0
   37.8139   30.5878   50.2127 C   0  0  0  0  0  0  0  0  0  0  0  0
   36.8913   30.3651   49.1959 C   0  0  0  0  0  0  0  0  0  0  0  0
   35.7393   29.7179   49.5192 N   0  0  0  0  0  0  0  0  0  0  0  0
   35.4471   29.2850   50.7594 C   0  0  0  0  0  0  0  0  0  0  0  0
   36.3330   29.5010   51.7254 N   0  0  0  0  0  0  0  0  0  0  0  0
   39.4559   33.5624   43.2356 O   0  0  0  0  0  0  0  0  0  0  0  0
   39.5586   31.8504   41.7281 N   0  0  0  0  0  0  0  0  0  0  0  0
   39.2028   33.2786   41.8641 C   0  0  1  0  0  0  0  0  0  0  0  0
   37.7963   33.4423   41.5180 C   0  0  0  0  0  0  0  0  0  0  0  0
   37.6299   33.1264   40.1570 O   0  0  0  0  0  0  0  0  0  0  0  0
   38.0691   31.8881   39.7893 C   0  0  0  0  0  0  0  0  0  0  0  0
   39.4427   31.5627   40.3148 C   0  0  2  0  0  0  0  0  0  0  0  0
   35.4890   29.4818   47.1472 H   0  0  0  0  0  0  0  0  0  0  0  0
   38.6980   32.1277   48.1804 H   0  0  0  0  0  0  0  0  0  0  0  0
   39.7579   33.4026   45.9580 H   0  0  0  0  0  0  0  0  0  0  0  0
   35.7386   30.0780   44.7569 H   0  0  0  0  0  0  0  0  0  0  0  0
   38.2388   30.3262   52.2499 H   0  0  0  0  0  0  0  0  0  0  0  0
   38.7216   31.0966   49.9646 H   0  0  0  0  0  0  0  0  0  0  0  0
   34.5213   28.7787   50.9597 H   0  0  0  0  0  0  0  0  0  0  0  0
   40.5715   31.8152   41.9890 H   0  0  0  0  0  0  0  0  0  0  0  0
   39.8234   33.8935   41.1934 H   0  0  0  0  0  0  0  0  0  0  0  0
   36.9850   32.9659   41.9936 H   0  0  0  0  0  0  0  0  0  0  0  0
   37.5765   34.5543   41.5442 H   0  0  0  0  0  0  0  0  0  0  0  0
   38.1163   31.8804   38.6822 H   0  0  0  0  0  0  0  0  0  0  0  0
   37.3541   31.0682   40.0583 H   0  0  0  0  0  0  0  0  0  0  0  0
   40.2116   32.1631   39.8006 H   0  0  0  0  0  0  0  0  0  0  0  0
   39.6885   30.0764   40.1372 C   0  0  0  0  0  0  0  0  0  0  0  0
   39.6090   29.3252   41.4389 C   0  0  0  0  0  0  0  0  0  0  0  0
   38.6370   28.1721   41.4177 C   0  0  0  0  0  0  0  0  0  0  0  0
   38.9072   27.2070   40.2880 C   0  0  0  0  0  0  0  0  0  0  0  0
   39.0866   27.9987   39.0137 C   0  0  0  0  0  0  0  0  0  0  0  0
   38.6884   29.4489   39.2040 C   0  0  0  0  0  0  0  0  0  0  0  0
   40.6906   29.9542   39.6702 H   0  0  0  0  0  0  0  0  0  0  0  0
   39.3230   29.9477   42.3089 H   0  0  0  0  0  0  0  0  0  0  0  0
   40.6069   28.9040   41.6852 H   0  0  0  0  0  0  0  0  0  0  0  0
   38.8406   27.5936   42.3564 H   0  0  0  0  0  0  0  0  0  0  0  0
   37.5852   28.4748   41.4772 H   0  0  0  0  0  0  0  0  0  0  0  0
   39.7541   26.5412   40.4919 H   0  0  0  0  0  0  0  0  0  0  0  0
   37.9965   26.5748   40.1938 H   0  0  0  0  0  0  0  0  0  0  0  0
   38.4671   27.5616   38.1834 H   0  0  0  0  0  0  0  0  0  0  0  0
   40.1455   27.9726   38.7031 H   0  0  0  0  0  0  0  0  0  0  0  0
   38.6813   29.8851   38.1847 H   0  0  0  0  0  0  0  0  0  0  0  0
   37.6534   29.5349   39.5929 H   0  0  0  0  0  0  0  0  0  0  0  0
  1  2  2  0
  2 12  1  0
  3  2  1  0
  4  3  2  0
  5  4  1  0
  6  5  1  0
  7  6  2  0
  7  8  1  0
  8  9  2  0
  8  4  1  0
  9  1  1  0
 10 15  2  0
 11 10  1  0
 12 13  1  0
 12 11  2  0
 13 14  2  0
 14 15  1  0
 16  6  1  0
 17 18  1  0
 18 16  1  0
 19 18  1  0
 20 19  1  0
 21 20  1  0
 21 22  1  0
 22 17  1  0
  1 23  1  0
  3 24  1  0
  5 25  1  0
  9 26  1  0
 10 27  1  0
 11 28  1  0
 14 29  1  0
 17 30  1  0
 18 31  1  6
 19 32  1  0
 19 33  1  0
 21 34  1  0
 21 35  1  0
 22 36  1  6
 37 38  1  0
 38 39  1  0
 39 40  1  0
 40 41  1  0
 41 42  1  0
 42 37  1  0
 37 43  1  0
 38 44  1  0
 38 45  1  0
 39 46  1  0
 39 47  1  0
 40 48  1  0
 40 49  1  0
 41 50  1  0
 41 51  1  0
 42 52  1  0
 42 53  1  0
 22 37  1  0
M  ISO  8  23  14  24  14  25   9  26  14  27  14  28  14  29  14  30   5
M  ISO  6  31  13  32  13  33  13  34  13  35  13  36  13
M  END
>  <DihAtoms>  (1) 
20,21,36,37

>  <DihDeg>  (1) 
59.07905898858965

$$$$
