
     RDKit          3D

 36 38  0  0  0  0  0  0  0  0999 V2000
   38.0098   33.1081   49.4730 C   0  0  0  0  0  0  0  0  0  0  0  0
   38.9672   33.2141   48.4684 C   0  0  0  0  0  0  0  0  0  0  0  0
   38.9451   32.2247   47.4700 C   0  0  0  0  0  0  0  0  0  0  0  0
   38.0169   31.2384   47.5293 N   0  0  0  0  0  0  0  0  0  0  0  0
   37.0988   31.1716   48.5286 C   0  0  0  0  0  0  0  0  0  0  0  0
   37.1256   32.1176   49.4767 N   0  0  0  0  0  0  0  0  0  0  0  0
   36.0908   30.1278   48.6176 C   0  0  0  0  0  0  0  0  0  0  0  0
   35.2835   29.9663   47.5038 C   0  0  0  0  0  0  0  0  0  0  0  0
   34.2954   28.9821   47.5060 C   0  0  0  0  0  0  0  0  0  0  0  0
   34.1489   28.1954   48.6187 C   0  0  0  0  0  0  0  0  0  0  0  0
   34.9623   28.3571   49.7430 C   0  0  0  0  0  0  0  0  0  0  0  0
   35.9409   29.3330   49.7390 C   0  0  0  0  0  0  0  0  0  0  0  0
   38.0694   33.8980   50.2213 H   0  0  0  0  0  0  0  0  0  0  0  0
   39.7339   33.9413   48.3290 H   0  0  0  0  0  0  0  0  0  0  0  0
   39.6097   32.1504   46.6195 H   0  0  0  0  0  0  0  0  0  0  0  0
   35.3575   30.5583   46.6041 H   0  0  0  0  0  0  0  0  0  0  0  0
   33.6587   28.8479   46.6392 H   0  0  0  0  0  0  0  0  0  0  0  0
   33.3660   27.4465   48.5664 H   0  0  0  0  0  0  0  0  0  0  0  0
   34.7395   27.6852   50.5287 H   0  0  0  0  0  0  0  0  0  0  0  0
   36.7813   29.4945   50.9411 C   0  0  0  0  0  0  0  0  0  0  0  0
   36.5111   30.7448   51.7047 C   0  0  0  0  0  0  0  0  0  0  0  0
   37.5829   30.8279   52.7980 C   0  0  0  0  0  0  0  0  0  0  0  0
   37.2308   29.7206   53.7703 C   0  0  0  0  0  0  0  0  0  0  0  0
   37.4393   28.4079   53.1046 C   0  0  0  0  0  0  0  0  0  0  0  0
   36.7349   28.2494   51.7825 C   0  0  0  0  0  0  0  0  0  0  0  0
   37.8479   29.5815   50.5730 H   0  0  0  0  0  0  0  0  0  0  0  0
   36.5113   31.6014   51.0387 H   0  0  0  0  0  0  0  0  0  0  0  0
   35.5618   30.6690   52.3092 H   0  0  0  0  0  0  0  0  0  0  0  0
   37.4811   31.8331   53.2830 H   0  0  0  0  0  0  0  0  0  0  0  0
   38.5857   30.6497   52.3928 H   0  0  0  0  0  0  0  0  0  0  0  0
   36.2074   29.8600   54.1753 H   0  0  0  0  0  0  0  0  0  0  0  0
   37.9025   29.7629   54.6433 H   0  0  0  0  0  0  0  0  0  0  0  0
   38.5293   28.2259   53.0333 H   0  0  0  0  0  0  0  0  0  0  0  0
   36.9855   27.6181   53.7702 H   0  0  0  0  0  0  0  0  0  0  0  0
   37.2794   27.4621   51.2185 H   0  0  0  0  0  0  0  0  0  0  0  0
   35.7072   27.9159   51.9162 H   0  0  0  0  0  0  0  0  0  0  0  0
  1  6  2  0
  2  1  1  0
  3  4  1  0
  3  2  2  0
  4  5  2  0
  5  7  1  0
  5  6  1  0
  7 12  1  0
  8  7  2  0
  9  8  1  0
  9 10  2  0
 10 11  1  0
 12 11  2  0
  1 13  1  0
  2 14  1  0
  3 15  1  0
  8 16  1  0
  9 17  1  0
 10 18  1  0
 11 19  1  0
 20 21  1  0
 21 22  1  0
 22 23  1  0
 23 24  1  0
 24 25  1  0
 25 20  1  0
 20 26  1  0
 21 27  1  0
 21 28  1  0
 22 29  1  0
 22 30  1  0
 23 31  1  0
 23 32  1  0
 24 33  1  0
 24 34  1  0
 25 35  1  0
 25 36  1  0
 12 20  1  0
M  ISO  7  13  14  14  14  15  14  16  14  17  14  18  14  19  14
M  END
>  <DihAtoms>  (1) 
6,11,19,20

>  <DihDeg>  (1) 
99.92789822332723

$$$$
