
     RDKit          3D

 36 38  0  0  0  0  0  0  0  0999 V2000
   38.0098   33.1081   49.4730 C   0  0  0  0  0  0  0  0  0  0  0  0
   38.9672   33.2141   48.4684 C   0  0  0  0  0  0  0  0  0  0  0  0
   38.9451   32.2247   47.4700 C   0  0  0  0  0  0  0  0  0  0  0  0
   38.0169   31.2384   47.5293 N   0  0  0  0  0  0  0  0  0  0  0  0
   37.0988   31.1716   48.5286 C   0  0  0  0  0  0  0  0  0  0  0  0
   37.1256   32.1176   49.4767 N   0  0  0  0  0  0  0  0  0  0  0  0
   36.0908   30.1278   48.6176 C   0  0  0  0  0  0  0  0  0  0  0  0
   35.2835   29.9663   47.5038 C   0  0  0  0  0  0  0  0  0  0  0  0
   34.2954   28.9821   47.5060 C   0  0  0  0  0  0  0  0  0  0  0  0
   34.1489   28.1954   48.6187 C   0  0  0  0  0  0  0  0  0  0  0  0
   34.9623   28.3571   49.7430 C   0  0  0  0  0  0  0  0  0  0  0  0
   35.9409   29.3330   49.7390 C   0  0  0  0  0  0  0  0  0  0  0  0
   38.0694   33.8980   50.2213 H   0  0  0  0  0  0  0  0  0  0  0  0
   39.7339   33.9413   48.3290 H   0  0  0  0  0  0  0  0  0  0  0  0
   39.6097   32.1504   46.6195 H   0  0  0  0  0  0  0  0  0  0  0  0
   35.3575   30.5583   46.6041 H   0  0  0  0  0  0  0  0  0  0  0  0
   33.6587   28.8479   46.6392 H   0  0  0  0  0  0  0  0  0  0  0  0
   33.3660   27.4465   48.5664 H   0  0  0  0  0  0  0  0  0  0  0  0
   34.7395   27.6852   50.5287 H   0  0  0  0  0  0  0  0  0  0  0  0
   36.7813   29.4945   50.9411 C   0  0  0  0  0  0  0  0  0  0  0  0
   36.1259   30.2586   52.0393 C   0  0  0  0  0  0  0  0  0  0  0  0
   37.1954   30.4780   53.1160 C   0  0  0  0  0  0  0  0  0  0  0  0
   37.4306   29.1056   53.7132 C   0  0  0  0  0  0  0  0  0  0  0  0
   38.0662   28.2350   52.6896 C   0  0  0  0  0  0  0  0  0  0  0  0
   37.3343   28.1654   51.3748 C   0  0  0  0  0  0  0  0  0  0  0  0
   37.6736   30.1138   50.6233 H   0  0  0  0  0  0  0  0  0  0  0  0
   35.7065   31.1836   51.6575 H   0  0  0  0  0  0  0  0  0  0  0  0
   35.3635   29.6333   52.5870 H   0  0  0  0  0  0  0  0  0  0  0  0
   36.7584   31.1754   53.8766 H   0  0  0  0  0  0  0  0  0  0  0  0
   38.1311   30.8508   52.6836 H   0  0  0  0  0  0  0  0  0  0  0  0
   36.4916   28.6906   54.1337 H   0  0  0  0  0  0  0  0  0  0  0  0
   38.1267   29.1834   54.5644 H   0  0  0  0  0  0  0  0  0  0  0  0
   39.1218   28.5497   52.5756 H   0  0  0  0  0  0  0  0  0  0  0  0
   38.0464   27.1795   53.0874 H   0  0  0  0  0  0  0  0  0  0  0  0
   38.0777   27.8626   50.6066 H   0  0  0  0  0  0  0  0  0  0  0  0
   36.5483   27.4124   51.3958 H   0  0  0  0  0  0  0  0  0  0  0  0
  1  6  2  0
  2  1  1  0
  3  4  1  0
  3  2  2  0
  4  5  2  0
  5  7  1  0
  5  6  1  0
  7 12  1  0
  8  7  2  0
  9  8  1  0
  9 10  2  0
 10 11  1  0
 12 11  2  0
  1 13  1  0
  2 14  1  0
  3 15  1  0
  8 16  1  0
  9 17  1  0
 10 18  1  0
 11 19  1  0
 20 21  1  0
 21 22  1  0
 22 23  1  0
 23 24  1  0
 24 25  1  0
 25 20  1  0
 20 26  1  0
 21 27  1  0
 21 28  1  0
 22 29  1  0
 22 30  1  0
 23 31  1  0
 23 32  1  0
 24 33  1  0
 24 34  1  0
 25 35  1  0
 25 36  1  0
 12 20  1  0
M  ISO  7  13  14  14  14  15  14  16  14  17  14  18  14  19  14
M  END
>  <DihAtoms>  (1) 
6,11,19,20

>  <DihDeg>  (1) 
99.92789822332723

$$$$
