
     RDKit          3D

 39 42  0  0  0  0  0  0  0  0999 V2000
   37.0622   30.7098   46.7743 C   0  0  0  0  0  0  0  0  0  0  0  0
   37.7028   31.1401   47.9194 C   0  0  0  0  0  0  0  0  0  0  0  0
   38.7107   32.0622   47.8313 C   0  0  0  0  0  0  0  0  0  0  0  0
   39.0641   32.5448   46.5722 C   0  0  0  0  0  0  0  0  0  0  0  0
   40.0236   33.4530   46.2530 N   0  0  0  0  0  0  0  0  0  0  0  0
   39.9847   33.5904   44.9221 C   0  0  0  0  0  0  0  0  0  0  0  0
   39.0401   32.8062   44.3872 N   0  0  0  0  0  0  0  0  0  0  0  0
   38.4414   32.1344   45.3972 C   0  0  0  0  0  0  0  0  0  0  0  0
   37.4232   31.1985   45.5202 C   0  0  0  0  0  0  0  0  0  0  0  0
   37.3897   30.1558   51.5349 C   0  0  0  0  0  0  0  0  0  0  0  0
   37.9109   30.7479   50.3852 C   0  0  0  0  0  0  0  0  0  0  0  0
   37.2581   30.5749   49.1802 C   0  0  0  0  0  0  0  0  0  0  0  0
   36.1221   29.8222   49.1844 N   0  0  0  0  0  0  0  0  0  0  0  0
   35.6236   29.2513   50.3059 C   0  0  0  0  0  0  0  0  0  0  0  0
   36.2537   29.4186   51.4675 N   0  0  0  0  0  0  0  0  0  0  0  0
   36.2607   29.9860   46.7711 H   0  0  0  0  0  0  0  0  0  0  0  0
   39.2235   32.4107   48.7173 H   0  0  0  0  0  0  0  0  0  0  0  0
   40.6663   33.9526   46.8787 H   0  0  0  0  0  0  0  0  0  0  0  0
   36.9282   30.8683   44.6174 H   0  0  0  0  0  0  0  0  0  0  0  0
   37.9357   30.3224   52.4407 H   0  0  0  0  0  0  0  0  0  0  0  0
   38.8125   31.3403   50.4046 H   0  0  0  0  0  0  0  0  0  0  0  0
   34.7251   28.6652   50.2658 H   0  0  0  0  0  0  0  0  0  0  0  0
   40.8321   34.4686   44.0537 C   0  0  0  0  0  0  0  0  0  0  0  0
   42.0868   33.6996   43.7572 C   0  0  0  0  0  0  0  0  0  0  0  0
   43.0877   33.9688   44.8489 C   0  0  0  0  0  0  0  0  0  0  0  0
   43.4882   35.4206   44.6554 C   0  0  0  0  0  0  0  0  0  0  0  0
   42.3449   36.3615   44.8531 C   0  0  0  0  0  0  0  0  0  0  0  0
   40.9943   35.8223   44.6197 C   0  0  0  0  0  0  0  0  0  0  0  0
   40.2790   34.4812   43.0691 H   0  0  0  0  0  0  0  0  0  0  0  0
   41.8635   32.6193   43.7612 H   0  0  0  0  0  0  0  0  0  0  0  0
   42.4688   34.0225   42.7691 H   0  0  0  0  0  0  0  0  0  0  0  0
   42.6525   33.7471   45.8220 H   0  0  0  0  0  0  0  0  0  0  0  0
   44.0296   33.3881   44.7094 H   0  0  0  0  0  0  0  0  0  0  0  0
   43.8607   35.5051   43.6123 H   0  0  0  0  0  0  0  0  0  0  0  0
   44.3474   35.6567   45.3203 H   0  0  0  0  0  0  0  0  0  0  0  0
   42.5744   37.2673   44.2436 H   0  0  0  0  0  0  0  0  0  0  0  0
   42.4398   36.7294   45.9055 H   0  0  0  0  0  0  0  0  0  0  0  0
   40.4571   36.5520   43.9448 H   0  0  0  0  0  0  0  0  0  0  0  0
   40.3736   35.8823   45.5600 H   0  0  0  0  0  0  0  0  0  0  0  0
  1  2  2  0
  2 12  1  0
  3  2  1  0
  4  3  2  0
  5  4  1  0
  6  5  1  0
  7  6  2  0
  7  8  1  0
  8  9  2  0
  8  4  1  0
  9  1  1  0
 11 10  2  0
 12 11  1  0
 13 12  2  0
 13 14  1  0
 14 15  2  0
 15 10  1  0
  1 16  1  0
  3 17  1  0
  5 18  1  0
  9 19  1  0
 10 20  1  0
 11 21  1  0
 14 22  1  0
 23 24  1  0
 24 25  1  0
 25 26  1  0
 26 27  1  0
 27 28  1  0
 28 23  1  0
 23 29  1  0
 24 30  1  0
 24 31  1  0
 25 32  1  0
 25 33  1  0
 26 34  1  0
 26 35  1  0
 27 36  1  0
 27 37  1  0
 28 38  1  0
 28 39  1  0
  6 23  1  0
M  ISO  7  16  14  17  14  18   9  19  14  20  14  21  14  22  14
M  END
>  <DihAtoms>  (1) 
4,5,22,23

>  <DihDeg>  (1) 
-109.46537911468083

$$$$
