
     RDKit          3D

 39 41  0  0  0  0  0  0  0  0999 V2000
   38.4687   30.7924   49.8484 Cl  0  0  0  0  0  0  0  0  0  0  0  0
   37.0818   30.3574   48.8774 C   0  0  0  0  0  0  0  0  0  0  0  0
   37.0898   30.6246   47.5336 C   0  0  0  0  0  0  0  0  0  0  0  0
   36.0296   30.2919   46.7255 C   0  0  0  0  0  0  0  0  0  0  0  0
   34.9254   29.6750   47.2612 C   0  0  0  0  0  0  0  0  0  0  0  0
   34.8890   29.3922   48.6186 C   0  0  0  0  0  0  0  0  0  0  0  0
   33.5399   28.5954   49.3898 Cl  0  0  0  0  0  0  0  0  0  0  0  0
   35.9906   29.7504   49.3989 C   0  0  0  0  0  0  0  0  0  0  0  0
   39.6051   33.1546   46.6509 C   0  0  0  0  0  0  0  0  0  0  0  0
   40.4578   32.4717   45.8005 C   0  0  0  0  0  0  0  0  0  0  0  0
   40.1630   31.1107   45.5240 C   0  0  0  0  0  0  0  0  0  0  0  0
   39.0621   30.5832   46.1189 N   0  0  0  0  0  0  0  0  0  0  0  0
   38.2507   31.2805   46.9453 C   0  0  0  0  0  0  0  0  0  0  0  0
   38.5382   32.5709   47.2017 N   0  0  0  0  0  0  0  0  0  0  0  0
   35.9573   29.4591   50.8573 C   0  0  0  0  0  0  0  0  0  0  0  0
   36.0168   30.4929   45.6723 H   0  0  0  0  0  0  0  0  0  0  0  0
   34.0708   29.4000   46.6472 H   0  0  0  0  0  0  0  0  0  0  0  0
   39.7910   34.1935   46.8892 H   0  0  0  0  0  0  0  0  0  0  0  0
   41.3232   32.9564   45.3586 H   0  0  0  0  0  0  0  0  0  0  0  0
   40.7973   30.5504   44.8720 H   0  0  0  0  0  0  0  0  0  0  0  0
   36.9268   28.9841   51.1216 H   0  0  0  0  0  0  0  0  0  0  0  0
   35.1800   28.6784   51.0895 H   0  0  0  0  0  0  0  0  0  0  0  0
   35.6950   30.6353   51.7258 C   0  0  0  0  0  0  0  0  0  0  0  0
   35.6558   30.3767   53.1912 C   0  0  0  0  0  0  0  0  0  0  0  0
   34.8408   31.5342   53.7864 C   0  0  0  0  0  0  0  0  0  0  0  0
   35.2402   32.8087   53.0834 C   0  0  0  0  0  0  0  0  0  0  0  0
   36.6609   32.7262   52.5605 C   0  0  0  0  0  0  0  0  0  0  0  0
   36.8027   31.6508   51.5063 C   0  0  0  0  0  0  0  0  0  0  0  0
   34.7601   31.1360   51.3633 H   0  0  0  0  0  0  0  0  0  0  0  0
   35.3054   29.4002   53.5151 H   0  0  0  0  0  0  0  0  0  0  0  0
   36.6864   30.4958   53.6407 H   0  0  0  0  0  0  0  0  0  0  0  0
   33.7573   31.3887   53.5502 H   0  0  0  0  0  0  0  0  0  0  0  0
   34.9816   31.6006   54.8788 H   0  0  0  0  0  0  0  0  0  0  0  0
   34.5832   33.0722   52.2519 H   0  0  0  0  0  0  0  0  0  0  0  0
   35.2186   33.6255   53.8280 H   0  0  0  0  0  0  0  0  0  0  0  0
   36.8705   33.6997   52.0785 H   0  0  0  0  0  0  0  0  0  0  0  0
   37.3635   32.6130   53.4030 H   0  0  0  0  0  0  0  0  0  0  0  0
   36.8698   32.0168   50.4807 H   0  0  0  0  0  0  0  0  0  0  0  0
   37.7451   31.0837   51.7674 H   0  0  0  0  0  0  0  0  0  0  0  0
  2  8  2  0
  2  1  1  0
  3  2  1  0
  4  5  1  0
  4  3  2  0
  5  6  2  0
  6  8  1  0
  6  7  1  0
  8 15  1  0
  9 14  2  0
 10  9  1  0
 11 10  2  0
 11 12  1  0
 12 13  2  0
 13 14  1  0
 13  3  1  0
  4 16  1  0
  5 17  1  0
  9 18  1  0
 10 19  1  0
 11 20  1  0
 15 21  1  0
 15 22  1  0
 23 24  1  0
 24 25  1  0
 25 26  1  0
 26 27  1  0
 27 28  1  0
 28 23  1  0
 23 29  1  0
 24 30  1  0
 24 31  1  0
 25 32  1  0
 25 33  1  0
 26 34  1  0
 26 35  1  0
 27 36  1  0
 27 37  1  0
 28 38  1  0
 28 39  1  0
 15 23  1  0
M  ISO  7  16  14  17  14  18  14  19  14  20  14  21   8  22   8
M  END
>  <DihAtoms>  (1) 
7,14,22,23

>  <DihDeg>  (1) 
60.01627010247724

$$$$
