
     RDKit          3D

 45 47  0  0  0  0  0  0  0  0999 V2000
   37.5677   30.8099   49.5042 C   0  0  0  0  0  0  0  0  0  0  0  0
   37.4840   32.1388   49.9190 C   0  0  0  0  0  0  0  0  0  0  0  0
   37.9276   33.1354   49.0118 C   0  0  0  0  0  0  0  0  0  0  0  0
   38.3990   32.7029   47.8080 N   0  0  0  0  0  0  0  0  0  0  0  0
   38.4615   31.4296   47.4529 C   0  0  0  0  0  0  0  0  0  0  0  0
   38.0454   30.4724   48.3003 N   0  0  0  0  0  0  0  0  0  0  0  0
   38.9765   31.1268   46.1669 N   0  0  0  0  0  0  0  0  0  0  0  0
   40.3851   30.8723   46.0097 C   0  0  0  0  0  0  0  0  0  0  0  0
   40.9262   31.5472   44.7544 C   0  0  0  0  0  0  0  0  0  0  0  0
   40.1037   31.3062   43.6202 N   0  0  0  0  0  0  0  0  0  0  0  0
   38.9427   30.4749   43.8526 C   0  0  0  0  0  0  0  0  0  0  0  0
   38.1234   31.0637   45.0031 C   0  0  2  0  0  0  0  0  0  0  0  0
   37.1024   29.7476   50.4553 C   0  0  0  0  0  0  0  0  0  0  0  0
   35.8043   29.3650   50.1344 F   0  0  0  0  0  0  0  0  0  0  0  0
   38.0091   28.7356   50.4367 F   0  0  0  0  0  0  0  0  0  0  0  0
   37.0267   30.3481   51.7291 F   0  0  0  0  0  0  0  0  0  0  0  0
   37.4527   32.3177   44.6602 C   0  0  0  0  0  0  0  0  0  0  0  0
   37.4519   32.6449   43.4791 O   0  0  0  0  0  0  0  0  0  0  0  0
   37.0974   32.4103   50.8931 H   0  0  0  0  0  0  0  0  0  0  0  0
   37.8814   34.1771   49.2900 H   0  0  0  0  0  0  0  0  0  0  0  0
   40.6417   29.7949   46.0595 H   0  0  0  0  0  0  0  0  0  0  0  0
   40.9313   31.3508   46.8528 H   0  0  0  0  0  0  0  0  0  0  0  0
   41.9323   31.1336   44.5589 H   0  0  0  0  0  0  0  0  0  0  0  0
   40.9819   32.6214   44.9290 H   0  0  0  0  0  0  0  0  0  0  0  0
   39.7875   32.1623   43.1100 H   0  0  0  0  0  0  0  0  0  0  0  0
   39.2108   29.4586   44.1866 H   0  0  0  0  0  0  0  0  0  0  0  0
   38.3533   30.4591   42.9278 H   0  0  0  0  0  0  0  0  0  0  0  0
   37.3670   30.2521   45.2391 H   0  0  0  0  0  0  0  0  0  0  0  0
   36.7488   33.5981   44.4164 C   0  0  0  0  0  0  0  0  0  0  0  0
   35.7451   33.8747   45.4979 C   0  0  0  0  0  0  0  0  0  0  0  0
   35.0427   35.2095   45.2331 C   0  0  0  0  0  0  0  0  0  0  0  0
   34.3243   35.1611   43.9005 C   0  0  0  0  0  0  0  0  0  0  0  0
   35.3274   34.8693   42.8312 C   0  0  0  0  0  0  0  0  0  0  0  0
   35.9558   33.5074   43.1245 C   0  0  0  0  0  0  0  0  0  0  0  0
   37.4509   34.4687   44.3873 H   0  0  0  0  0  0  0  0  0  0  0  0
   34.9019   33.1295   45.4750 H   0  0  0  0  0  0  0  0  0  0  0  0
   36.1452   33.9656   46.5157 H   0  0  0  0  0  0  0  0  0  0  0  0
   35.7314   36.0624   45.2447 H   0  0  0  0  0  0  0  0  0  0  0  0
   34.2990   35.3390   46.0280 H   0  0  0  0  0  0  0  0  0  0  0  0
   33.4607   34.4872   43.9021 H   0  0  0  0  0  0  0  0  0  0  0  0
   33.9641   36.2127   43.7264 H   0  0  0  0  0  0  0  0  0  0  0  0
   36.1542   35.6073   42.9288 H   0  0  0  0  0  0  0  0  0  0  0  0
   34.8955   34.8184   41.8196 H   0  0  0  0  0  0  0  0  0  0  0  0
   36.5428   33.2655   42.2411 H   0  0  0  0  0  0  0  0  0  0  0  0
   35.1974   32.7151   43.2650 H   0  0  0  0  0  0  0  0  0  0  0  0
  1  2  2  0
  1 13  1  0
  3  2  1  0
  4  3  2  0
  5  4  1  0
  5  6  2  0
  6  1  1  0
  7  5  1  0
  8  7  1  0
  9  8  1  0
 10 11  1  0
 10  9  1  0
 11 12  1  0
 12  7  1  0
 13 16  1  0
 14 13  1  0
 15 13  1  0
 17 12  1  0
 18 17  2  0
  2 19  1  0
  3 20  1  0
  8 21  1  0
  8 22  1  0
  9 23  1  0
  9 24  1  0
 10 25  1  0
 11 26  1  0
 11 27  1  0
 12 28  1  1
 29 30  1  0
 30 31  1  0
 31 32  1  0
 32 33  1  0
 33 34  1  0
 34 29  1  0
 29 35  1  0
 30 36  1  0
 30 37  1  0
 31 38  1  0
 31 39  1  0
 32 40  1  0
 32 41  1  0
 33 42  1  0
 33 43  1  0
 34 44  1  0
 34 45  1  0
 17 29  1  0
M  ISO  8  19  14  20  14  21  13  22  13  23  13  24  13  25   5  26  13
M  ISO  2  27  13  28  13
M  END
>  <DihAtoms>  (1) 
11,16,28,29

>  <DihDeg>  (1) 
-173.2421770086577

$$$$
