
     RDKit          3D

 19 20  0  0  0  0  0  0  0  0999 V2000
   37.3227   30.2290   51.4201 C   0  0  0  0  0  0  0  0  0  0  0  0
   38.0744   30.7335   50.3439 C   0  0  0  0  0  0  0  0  0  0  0  0
   37.7014   30.3752   49.0378 C   0  0  0  0  0  0  0  0  0  0  0  0
   36.6116   29.5439   48.8963 N   0  0  0  0  0  0  0  0  0  0  0  0
   35.9298   29.0914   49.9601 C   0  0  0  0  0  0  0  0  0  0  0  0
   36.2711   29.4235   51.2267 N   0  0  0  0  0  0  0  0  0  0  0  0
   34.8810   28.2784   49.6041 O   0  0  0  0  0  0  0  0  0  0  0  0
   37.6656   30.5454   52.3987 H   0  0  0  0  0  0  0  0  0  0  0  0
   38.9236   31.3787   50.4083 H   0  0  0  0  0  0  0  0  0  0  0  0
   38.2427   30.7338   48.1822 H   0  0  0  0  0  0  0  0  0  0  0  0
   34.0909   27.7405   50.6036 C   0  0  0  0  0  0  0  0  0  0  0  0
   34.1638   26.4246   50.9942 C   0  0  0  0  0  0  0  0  0  0  0  0
   33.4031   25.8352   51.9819 C   0  0  0  0  0  0  0  0  0  0  0  0
   33.5105   24.7917   52.2408 H   0  0  0  0  0  0  0  0  0  0  0  0
   32.5090   26.6276   52.6178 N   0  0  0  0  0  0  0  0  0  0  0  0
   32.4209   27.9379   52.2448 C   0  0  0  0  0  0  0  0  0  0  0  0
   33.1811   28.5062   51.2651 N   0  0  0  0  0  0  0  0  0  0  0  0
   34.8781   25.7855   50.4883 H   0  0  0  0  0  0  0  0  0  0  0  0
   31.6703   28.4800   52.8222 H   0  0  0  0  0  0  0  0  0  0  0  0
  2  1  2  0
  3  2  1  0
  4  3  2  0
  4  5  1  0
  5  6  2  0
  6  1  1  0
  7  5  1  0
  1  8  1  0
  2  9  1  0
  3 10  1  0
 11 12  2  0
 12 13  1  0
 13 14  1  0
 13 15  2  0
 15 16  1  0
 16 17  2  0
 17 11  1  0
 12 18  1  0
 16 19  1  0
  7 11  1  0
M  ISO  4   8  14   9  14  10  14  14  14
M  END
>  <DihAtoms>  (1) 
4,6,10,11

>  <DihDeg>  (1) 
-179.99998467102878

$$$$
