
     RDKit          3D

 33 35  0  0  0  0  0  0  0  0999 V2000
   34.6800   28.1590   49.7000 O   0  0  0  0  0  0  0  0  0  0  0  0
   37.1690   30.1230   51.4400 C   0  0  0  0  0  0  0  0  0  0  0  0
   37.7670   30.7920   50.3420 C   0  0  0  0  0  0  0  0  0  0  0  0
   37.2740   30.5230   49.0780 C   0  0  0  0  0  0  0  0  0  0  0  0
   36.2490   29.6370   48.9570 N   0  0  0  0  0  0  0  0  0  0  0  0
   35.7050   29.0190   50.0250 C   0  0  0  0  0  0  0  0  0  0  0  0
   36.1740   29.2680   51.2800 N   0  0  0  0  0  0  0  0  0  0  0  0
   37.7860   31.1330   47.8560 C   0  0  0  0  0  0  0  0  0  0  0  0
   37.2140   30.9230   46.6310 C   0  0  0  0  0  0  0  0  0  0  0  0
   37.7140   31.5090   45.4910 C   0  0  0  0  0  0  0  0  0  0  0  0
   38.7810   32.3040   45.5630 N   0  0  0  0  0  0  0  0  0  0  0  0
   39.3530   32.5180   46.7600 C   0  0  0  0  0  0  0  0  0  0  0  0
   38.8580   31.9430   47.8570 N   0  0  0  0  0  0  0  0  0  0  0  0
   33.7320   28.6090   48.7310 C   0  0  0  0  0  0  0  0  0  0  0  0
   32.8290   27.4660   48.3320 C   0  0  0  0  0  0  0  0  0  0  0  0
   31.3960   27.8670   48.3330 C   0  0  0  0  0  0  0  0  0  0  0  0
   30.7100   27.7310   49.5190 C   0  0  0  0  0  0  0  0  0  0  0  0
   29.3730   28.0700   49.6470 C   0  0  0  0  0  0  0  0  0  0  0  0
   28.7270   28.5420   48.5890 N   0  0  0  0  0  0  0  0  0  0  0  0
   29.3960   28.6780   47.4180 C   0  0  0  0  0  0  0  0  0  0  0  0
   30.7000   28.3530   47.2740 N   0  0  0  0  0  0  0  0  0  0  0  0
   37.5443   30.3215   52.4548 H   0  0  0  0  0  0  0  0  0  0  0  0
   38.5949   31.5009   50.4905 H   0  0  0  0  0  0  0  0  0  0  0  0
   36.3324   30.2694   46.5557 H   0  0  0  0  0  0  0  0  0  0  0  0
   37.2328   31.3212   44.5198 H   0  0  0  0  0  0  0  0  0  0  0  0
   40.2347   33.1713   46.8356 H   0  0  0  0  0  0  0  0  0  0  0  0
   33.1264   29.4201   49.1614 H   0  0  0  0  0  0  0  0  0  0  0  0
   34.2664   28.9777   47.8430 H   0  0  0  0  0  0  0  0  0  0  0  0
   32.9675   26.6381   49.0429 H   0  0  0  0  0  0  0  0  0  0  0  0
   33.0973   27.1592   47.3103 H   0  0  0  0  0  0  0  0  0  0  0  0
   31.2434   27.3386   50.3974 H   0  0  0  0  0  0  0  0  0  0  0  0
   28.8555   27.9498   50.6102 H   0  0  0  0  0  0  0  0  0  0  0  0
   28.8531   29.0706   46.5455 H   0  0  0  0  0  0  0  0  0  0  0  0
  1  6  1  0
  3  2  2  0
  4  3  1  0
  5  4  2  0
  5  6  1  0
  6  7  2  0
  7  2  1  0
  8 13  1  0
  8  4  1  0
  9  8  2  0
 10 11  2  0
 10  9  1  0
 11 12  1  0
 12 13  2  0
 14  1  1  0
 15 16  1  0
 15 14  1  0
 16 17  2  0
 17 18  1  0
 19 18  2  0
 20 19  1  0
 21 20  2  0
 21 16  1  0
  2 22  1  0
  3 23  1  0
  9 24  1  0
 10 25  1  0
 12 26  1  0
 14 27  1  0
 14 28  1  0
 15 29  1  0
 15 30  1  0
 17 31  1  0
 18 32  1  0
 20 33  1  0
M  ISO  8  22  14  23  14  24  14  25  14  26  14  27   8  28   8  29   8
M  ISO  4  30   8  31  14  32  14  33  14
M  END
>  <minimizedAffinity>  (1) 
-5.67557096

>  <minimizedRMSD>  (1) 
0.539275408

$$$$
