
     RDKit          3D

 19 20  0  0  0  0  0  0  0  0999 V2000
   37.3227   30.2290   51.4201 C   0  0  0  0  0  0  0  0  0  0  0  0
   38.0744   30.7335   50.3439 C   0  0  0  0  0  0  0  0  0  0  0  0
   37.7014   30.3752   49.0378 C   0  0  0  0  0  0  0  0  0  0  0  0
   36.6116   29.5439   48.8963 N   0  0  0  0  0  0  0  0  0  0  0  0
   35.9298   29.0914   49.9601 C   0  0  0  0  0  0  0  0  0  0  0  0
   36.2711   29.4235   51.2267 N   0  0  0  0  0  0  0  0  0  0  0  0
   34.8810   28.2784   49.6041 O   0  0  0  0  0  0  0  0  0  0  0  0
   37.6656   30.5454   52.3987 H   0  0  0  0  0  0  0  0  0  0  0  0
   38.9236   31.3787   50.4083 H   0  0  0  0  0  0  0  0  0  0  0  0
   38.2427   30.7338   48.1822 H   0  0  0  0  0  0  0  0  0  0  0  0
   34.0909   27.7405   50.6036 C   0  0  0  0  0  0  0  0  0  0  0  0
   32.7590   27.4462   50.4335 C   0  0  0  0  0  0  0  0  0  0  0  0
   31.9248   26.9102   51.3918 C   0  0  0  0  0  0  0  0  0  0  0  0
   30.8834   26.7021   51.1923 H   0  0  0  0  0  0  0  0  0  0  0  0
   32.4720   26.6542   52.6028 N   0  0  0  0  0  0  0  0  0  0  0  0
   33.7935   26.9393   52.7924 C   0  0  0  0  0  0  0  0  0  0  0  0
   34.6059   27.4697   51.8336 N   0  0  0  0  0  0  0  0  0  0  0  0
   32.3155   27.6493   49.4656 H   0  0  0  0  0  0  0  0  0  0  0  0
   34.1263   26.6933   53.8021 H   0  0  0  0  0  0  0  0  0  0  0  0
  2  1  2  0
  3  2  1  0
  4  3  2  0
  4  5  1  0
  5  6  2  0
  6  1  1  0
  7  5  1  0
  1  8  1  0
  2  9  1  0
  3 10  1  0
 11 12  2  0
 12 13  1  0
 13 14  1  0
 13 15  2  0
 15 16  1  0
 16 17  2  0
 17 11  1  0
 12 18  1  0
 16 19  1  0
  7 11  1  0
M  ISO  4   8  14   9  14  10  14  14  14
M  END
>  <DihAtoms>  (1) 
4,6,10,11

>  <DihDeg>  (1) 
-179.99998467102878

$$$$
