
     RDKit          3D

 34 36  0  0  1  0  0  0  0  0999 V2000
   36.3900   29.7400   48.6690 N   0  0  0  0  0  0  0  0  0  0  0  0
   37.5330   30.4890   48.2610 C   0  0  0  0  0  0  0  0  0  0  0  0
   37.9970   31.1400   49.5480 C   0  0  2  0  0  0  0  0  0  0  0  0
   36.9840   30.7480   50.6120 C   0  0  0  0  0  0  0  0  0  0  0  0
   36.6130   29.3780   50.0560 C   0  0  0  0  0  0  0  0  0  0  0  0
   35.2360   29.3950   47.8980 C   0  0  0  0  0  0  0  0  0  0  0  0
   35.0940   30.0380   46.6720 C   0  0  0  0  0  0  0  0  0  0  0  0
   33.9690   29.7140   45.9000 C   0  0  0  0  0  0  0  0  0  0  0  0
   33.1010   28.7910   46.4130 N   0  0  0  0  0  0  0  0  0  0  0  0
   33.2590   28.1860   47.5980 C   0  0  0  0  0  0  0  0  0  0  0  0
   34.3450   28.4950   48.3490 N   0  0  0  0  0  0  0  0  0  0  0  0
   32.0970   27.0010   48.2060 S   0  0  0  0  0  0  0  0  0  0  0  0
   30.5300   27.8480   48.4630 C   0  0  0  0  0  0  0  0  0  0  0  0
   30.0350   27.8370   49.7570 C   0  0  0  0  0  0  0  0  0  0  0  0
   28.8160   28.5050   49.9130 C   0  0  0  0  0  0  0  0  0  0  0  0
   28.1510   29.1170   48.9180 N   0  0  0  0  0  0  0  0  0  0  0  0
   28.6830   29.0920   47.6840 C   0  0  0  0  0  0  0  0  0  0  0  0
   29.8480   28.4680   47.4740 N   0  0  0  0  0  0  0  0  0  0  0  0
   38.1660   32.6290   49.4360 C   0  0  0  0  0  0  0  0  0  0  0  0
   37.0110   33.1920   49.9580 F   0  0  0  0  0  0  0  0  0  0  0  0
   38.1930   32.9390   48.0940 F   0  0  0  0  0  0  0  0  0  0  0  0
   39.2970   33.1000   50.0320 F   0  0  0  0  0  0  0  0  0  0  0  0
   38.3110   29.8290   47.8499 H   0  0  0  0  0  0  0  0  0  0  0  0
   37.3114   31.2155   47.4653 H   0  0  0  0  0  0  0  0  0  0  0  0
   39.0044   30.7847   49.8106 H   0  0  0  0  0  0  0  0  0  0  0  0
   37.4350   30.6833   51.6132 H   0  0  0  0  0  0  0  0  0  0  0  0
   36.1501   31.4486   50.7665 H   0  0  0  0  0  0  0  0  0  0  0  0
   35.7041   28.9755   50.5271 H   0  0  0  0  0  0  0  0  0  0  0  0
   37.3585   28.5862   50.2211 H   0  0  0  0  0  0  0  0  0  0  0  0
   35.8352   30.7717   46.3222 H   0  0  0  0  0  0  0  0  0  0  0  0
   33.7922   30.1837   44.9211 H   0  0  0  0  0  0  0  0  0  0  0  0
   30.5565   27.3446   50.5911 H   0  0  0  0  0  0  0  0  0  0  0  0
   28.3712   28.5313   50.9187 H   0  0  0  0  0  0  0  0  0  0  0  0
   28.1621   29.5832   46.8489 H   0  0  0  0  0  0  0  0  0  0  0  0
  1  5  1  0
  2  1  1  0
  2  3  1  0
  3  4  1  0
  5  4  1  0
  6 11  1  0
  6  1  1  0
  7  6  2  0
  8  9  2  0
  8  7  1  0
  9 10  1  0
 10 12  1  0
 10 11  2  0
 12 13  1  0
 13 14  2  0
 14 15  1  0
 16 15  2  0
 17 16  1  0
 18 17  2  0
 18 13  1  0
 19  3  1  0
 19 20  1  0
 19 22  1  0
 21 19  1  0
  2 23  1  0
  2 24  1  0
  3 25  1  1
  4 26  1  0
  4 27  1  0
  5 28  1  0
  5 29  1  0
  7 30  1  0
  8 31  1  0
 14 32  1  0
 15 33  1  0
 17 34  1  0
M  ISO  8  23  13  24  13  25  13  26  13  27  13  28  13  29  13  30  14
M  ISO  4  31  14  32  14  33  14  34  14
M  END
>  <minimizedAffinity>  (1) 
-6.38021231

>  <minimizedRMSD>  (1) 
1.7681917

$$$$
