
     RDKit          3D

 46 50  0  0  1  0  0  0  0  0999 V2000
   32.7160   28.1260   47.3840 N   0  0  0  0  0  0  0  0  0  0  0  0
   33.3700   27.6140   48.5410 C   0  0  0  0  0  0  0  0  0  0  0  0
   34.5320   28.3840   49.0410 C   0  0  0  0  0  0  0  0  0  0  0  0
   35.4210   28.9630   48.0330 C   0  0  0  0  0  0  0  0  0  0  0  0
   34.6550   29.4320   46.7810 C   0  0  0  0  0  0  0  0  0  0  0  0
   33.7210   28.2790   46.3700 C   0  0  0  0  0  0  0  0  0  0  0  0
   35.9020   30.6430   49.7530 C   0  0  0  0  0  0  0  0  0  0  0  0
   36.1770   30.1560   48.4860 C   0  0  0  0  0  0  0  0  0  0  0  0
   37.0820   30.7240   47.6310 C   0  0  0  0  0  0  0  0  0  0  0  0
   37.7640   31.8600   48.0660 C   0  0  0  0  0  0  0  0  0  0  0  0
   37.4920   32.3460   49.3200 C   0  0  0  0  0  0  0  0  0  0  0  0
   36.5720   31.7700   50.1930 C   0  0  0  0  0  0  0  0  0  0  0  0
   38.2730   33.4870   49.5740 O   0  0  0  0  0  0  0  0  0  0  0  0
   39.2700   33.4700   48.5600 C   0  0  0  0  0  0  0  0  0  0  0  0
   38.7290   32.7000   47.5150 O   0  0  0  0  0  0  0  0  0  0  0  0
   31.3270   28.4360   47.2240 C   0  0  0  0  0  0  0  0  0  0  0  0
   30.7450   29.0010   46.0930 C   0  0  0  0  0  0  0  0  0  0  0  0
   29.3720   29.2300   46.1300 C   0  0  0  0  0  0  0  0  0  0  0  0
   28.6810   28.8950   47.2470 N   0  0  0  0  0  0  0  0  0  0  0  0
   29.2700   28.3500   48.3260 C   0  0  0  0  0  0  0  0  0  0  0  0
   30.5820   28.1240   48.3090 N   0  0  0  0  0  0  0  0  0  0  0  0
   28.4260   28.0290   49.4740 C   0  0  0  0  0  0  0  0  0  0  0  0
   28.8940   27.2870   50.5410 C   0  0  0  0  0  0  0  0  0  0  0  0
   28.0390   27.0140   51.6080 C   0  0  0  0  0  0  0  0  0  0  0  0
   26.7700   27.4710   51.5970 N   0  0  0  0  0  0  0  0  0  0  0  0
   26.3390   28.1830   50.5650 C   0  0  0  0  0  0  0  0  0  0  0  0
   27.1680   28.4490   49.5270 N   0  0  0  0  0  0  0  0  0  0  0  0
   32.6272   27.5671   49.3510 H   0  0  0  0  0  0  0  0  0  0  0  0
   33.7776   26.6389   48.2361 H   0  0  0  0  0  0  0  0  0  0  0  0
   34.1448   29.2090   49.6570 H   0  0  0  0  0  0  0  0  0  0  0  0
   35.1493   27.6541   49.5851 H   0  0  0  0  0  0  0  0  0  0  0  0
   36.1126   28.1341   47.8218 H   0  0  0  0  0  0  0  0  0  0  0  0
   34.0660   30.3316   47.0128 H   0  0  0  0  0  0  0  0  0  0  0  0
   35.3495   29.6855   45.9665 H   0  0  0  0  0  0  0  0  0  0  0  0
   33.2441   28.5127   45.4067 H   0  0  0  0  0  0  0  0  0  0  0  0
   34.2955   27.3470   46.2638 H   0  0  0  0  0  0  0  0  0  0  0  0
   35.1643   30.1426   50.3975 H   0  0  0  0  0  0  0  0  0  0  0  0
   37.2655   30.2985   46.6334 H   0  0  0  0  0  0  0  0  0  0  0  0
   36.3861   32.1939   51.1909 H   0  0  0  0  0  0  0  0  0  0  0  0
   39.4838   34.4920   48.2138 H   0  0  0  0  0  0  0  0  0  0  0  0
   40.2187   33.0512   48.9270 H   0  0  0  0  0  0  0  0  0  0  0  0
   31.3447   29.2560   45.2068 H   0  0  0  0  0  0  0  0  0  0  0  0
   28.8564   29.6756   45.2666 H   0  0  0  0  0  0  0  0  0  0  0  0
   29.9294   26.9157   50.5488 H   0  0  0  0  0  0  0  0  0  0  0  0
   28.4009   26.4234   52.4625 H   0  0  0  0  0  0  0  0  0  0  0  0
   25.3053   28.5589   50.5515 H   0  0  0  0  0  0  0  0  0  0  0  0
  1  2  1  0
  2  3  1  0
  4  8  1  0
  4  3  1  0
  5  4  1  0
  6  5  1  0
  6  1  1  0
  7 12  2  0
  8  7  1  0
  9 10  1  0
  9  8  2  0
 10 11  2  0
 11 13  1  0
 11 12  1  0
 14 13  1  0
 15 10  1  0
 15 14  1  0
 16  1  1  0
 16 21  2  0
 17 18  2  0
 17 16  1  0
 18 19  1  0
 19 20  2  0
 20 22  1  0
 21 20  1  0
 22 27  1  0
 22 23  2  0
 23 24  1  0
 25 24  2  0
 26 25  1  0
 27 26  2  0
  2 28  1  0
  2 29  1  0
  3 30  1  0
  3 31  1  0
  4 32  1  0
  5 33  1  0
  5 34  1  0
  6 35  1  0
  6 36  1  0
  7 37  1  0
  9 38  1  0
 12 39  1  0
 14 40  1  0
 14 41  1  0
 17 42  1  0
 18 43  1  0
 23 44  1  0
 24 45  1  0
 26 46  1  0
M  ISO  8  28  13  29  13  30  13  31  13  32  13  33  13  34  13  35  13
M  ISO  8  36  13  37  14  38  14  39  14  40  13  41  13  42  14  43  14
M  ISO  3  44  14  45  14  46  14
M  END
>  <minimizedAffinity>  (1) 
-7.64746571

>  <minimizedRMSD>  (1) 
0.506442487

$$$$
