
     RDKit          3D

 33 35  0  0  1  0  0  0  0  0999 V2000
   36.3930   29.7260   48.7740 N   0  0  0  0  0  0  0  0  0  0  0  0
   37.4860   30.4980   48.2770 C   0  0  0  0  0  0  0  0  0  0  0  0
   38.0320   31.1600   49.5360 C   0  0  2  0  0  0  0  0  0  0  0  0
   37.0610   30.7680   50.6580 C   0  0  0  0  0  0  0  0  0  0  0  0
   36.7150   29.3740   50.1330 C   0  0  0  0  0  0  0  0  0  0  0  0
   35.1960   29.3630   48.0630 C   0  0  0  0  0  0  0  0  0  0  0  0
   34.4800   30.4020   47.4810 C   0  0  0  0  0  0  0  0  0  0  0  0
   33.3050   30.0330   46.7850 C   0  0  0  0  0  0  0  0  0  0  0  0
   32.9710   28.7140   46.7390 N   0  0  0  0  0  0  0  0  0  0  0  0
   33.6920   27.7430   47.3140 C   0  0  0  0  0  0  0  0  0  0  0  0
   34.8060   28.0870   47.9760 N   0  0  0  0  0  0  0  0  0  0  0  0
   33.3100   26.3360   47.2490 C   0  0  0  0  0  0  0  0  0  0  0  0
   34.1260   25.4020   46.6450 C   0  0  0  0  0  0  0  0  0  0  0  0
   33.7690   24.0540   46.5770 C   0  0  0  0  0  0  0  0  0  0  0  0
   32.6150   23.6730   47.1110 N   0  0  0  0  0  0  0  0  0  0  0  0
   31.8100   24.5700   47.7020 C   0  0  0  0  0  0  0  0  0  0  0  0
   32.1460   25.8920   47.7750 N   0  0  0  0  0  0  0  0  0  0  0  0
   38.1670   32.6450   49.4060 C   0  0  0  0  0  0  0  0  0  0  0  0
   37.0200   33.1950   49.9340 F   0  0  0  0  0  0  0  0  0  0  0  0
   38.1740   32.9270   48.0450 F   0  0  0  0  0  0  0  0  0  0  0  0
   39.2850   33.1580   49.9940 F   0  0  0  0  0  0  0  0  0  0  0  0
   38.2443   29.8544   47.8071 H   0  0  0  0  0  0  0  0  0  0  0  0
   37.1923   31.2179   47.4989 H   0  0  0  0  0  0  0  0  0  0  0  0
   39.0562   30.8164   49.7430 H   0  0  0  0  0  0  0  0  0  0  0  0
   37.5485   30.7366   51.6436 H   0  0  0  0  0  0  0  0  0  0  0  0
   36.2157   31.4492   50.8355 H   0  0  0  0  0  0  0  0  0  0  0  0
   35.8559   28.9346   50.6611 H   0  0  0  0  0  0  0  0  0  0  0  0
   37.4990   28.6120   50.2540 H   0  0  0  0  0  0  0  0  0  0  0  0
   34.8075   31.4494   47.5570 H   0  0  0  0  0  0  0  0  0  0  0  0
   32.6778   30.7917   46.2940 H   0  0  0  0  0  0  0  0  0  0  0  0
   35.0809   25.7271   46.2064 H   0  0  0  0  0  0  0  0  0  0  0  0
   34.4308   23.3223   46.0906 H   0  0  0  0  0  0  0  0  0  0  0  0
   30.8579   24.2327   48.1375 H   0  0  0  0  0  0  0  0  0  0  0  0
  1  5  1  0
  2  1  1  0
  2  3  1  0
  3  4  1  0
  5  4  1  0
  6  1  1  0
  7  6  2  0
  8  7  1  0
  9  8  2  0
  9 10  1  0
 10 11  2  0
 11  6  1  0
 12 10  1  0
 12 17  1  0
 13 12  2  0
 14 13  1  0
 14 15  2  0
 15 16  1  0
 16 17  2  0
 18  3  1  0
 18 19  1  0
 18 21  1  0
 20 18  1  0
  2 22  1  0
  2 23  1  0
  3 24  1  1
  4 25  1  0
  4 26  1  0
  5 27  1  0
  5 28  1  0
  7 29  1  0
  8 30  1  0
 13 31  1  0
 14 32  1  0
 16 33  1  0
M  ISO  8  22  13  23  13  24  13  25  13  26  13  27  13  28  13  29  14
M  ISO  4  30  14  31  14  32  14  33  14
M  END
>  <minimizedAffinity>  (1) 
-5.43465042

>  <minimizedRMSD>  (1) 
1.64209294

$$$$
