
     RDKit          3D

 30 32  0  0  0  0  0  0  0  0999 V2000
   35.9970   29.1330   49.0790 C   0  0  0  0  0  0  0  0  0  0  0  0
   35.8970   30.2730   48.2770 C   0  0  0  0  0  0  0  0  0  0  0  0
   34.7670   30.4140   47.4740 C   0  0  0  0  0  0  0  0  0  0  0  0
   33.8300   29.4360   47.5170 N   0  0  0  0  0  0  0  0  0  0  0  0
   33.9420   28.3470   48.2930 C   0  0  0  0  0  0  0  0  0  0  0  0
   35.0230   28.1740   49.0870 N   0  0  0  0  0  0  0  0  0  0  0  0
   32.8970   27.3620   48.2730 N   0  0  0  0  0  0  0  0  0  0  0  0
   31.5200   27.6850   48.6540 C   0  0  0  0  0  0  0  0  0  0  0  0
   30.7460   26.4720   48.2700 C   0  0  0  0  0  0  0  0  0  0  0  0
   31.6790   25.5990   47.4610 C   0  0  0  0  0  0  0  0  0  0  0  0
   33.0530   25.9790   47.8920 C   0  0  0  0  0  0  0  0  0  0  0  0
   36.9850   31.2400   48.3360 C   0  0  0  0  0  0  0  0  0  0  0  0
   37.9030   31.3940   47.3200 C   0  0  0  0  0  0  0  0  0  0  0  0
   38.9240   32.3290   47.4180 C   0  0  0  0  0  0  0  0  0  0  0  0
   38.9940   33.0700   48.5150 N   0  0  0  0  0  0  0  0  0  0  0  0
   38.0890   32.9040   49.4940 C   0  0  0  0  0  0  0  0  0  0  0  0
   37.0680   31.9980   49.4420 N   0  0  0  0  0  0  0  0  0  0  0  0
   36.8817   29.0042   49.7199 H   0  0  0  0  0  0  0  0  0  0  0  0
   34.6394   31.2927   46.8247 H   0  0  0  0  0  0  0  0  0  0  0  0
   31.4467   27.8693   49.7360 H   0  0  0  0  0  0  0  0  0  0  0  0
   31.1481   28.5971   48.1644 H   0  0  0  0  0  0  0  0  0  0  0  0
   30.4103   25.9359   49.1699 H   0  0  0  0  0  0  0  0  0  0  0  0
   29.8520   26.7409   47.6883 H   0  0  0  0  0  0  0  0  0  0  0  0
   31.5472   25.7887   46.3855 H   0  0  0  0  0  0  0  0  0  0  0  0
   31.4812   24.5293   47.6242 H   0  0  0  0  0  0  0  0  0  0  0  0
   33.3841   25.3680   48.7447 H   0  0  0  0  0  0  0  0  0  0  0  0
   33.8126   25.8251   47.1114 H   0  0  0  0  0  0  0  0  0  0  0  0
   37.8256   30.7675   46.4192 H   0  0  0  0  0  0  0  0  0  0  0  0
   39.6562   32.4520   46.6064 H   0  0  0  0  0  0  0  0  0  0  0  0
   38.1753   33.5352   50.3907 H   0  0  0  0  0  0  0  0  0  0  0  0
  1  6  2  0
  2 12  1  0
  2  1  1  0
  3  4  1  0
  3  2  2  0
  4  5  2  0
  5  6  1  0
  7  5  1  0
  7  8  1  0
  9  8  1  0
 10 11  1  0
 10  9  1  0
 11  7  1  0
 12 17  2  0
 13 14  2  0
 13 12  1  0
 14 15  1  0
 15 16  2  0
 17 16  1  0
  1 18  1  0
  3 19  1  0
  8 20  1  0
  8 21  1  0
  9 22  1  0
  9 23  1  0
 10 24  1  0
 10 25  1  0
 11 26  1  0
 11 27  1  0
 13 28  1  0
 14 29  1  0
 16 30  1  0
M  ISO  8  18  14  19  14  20  13  21  13  22  13  23  13  24  13  25  13
M  ISO  5  26  13  27  13  28  14  29  14  30  14
M  END
>  <minimizedAffinity>  (1) 
-5.09750223

>  <minimizedRMSD>  (1) 
4.30070496

$$$$
