
     RDKit          3D

 42 44  0  0  0  0  0  0  0  0999 V2000
   35.2900   30.4750   49.4330 C   0  0  0  0  0  0  0  0  0  0  0  0
   38.1990   31.6270   48.9670 Br  0  0  0  0  0  0  0  0  0  0  0  0
   36.9720   30.9780   47.6330 C   0  0  0  0  0  0  0  0  0  0  0  0
   37.3210   30.9800   46.3030 C   0  0  0  0  0  0  0  0  0  0  0  0
   36.4080   30.5160   45.4020 C   0  0  0  0  0  0  0  0  0  0  0  0
   35.1570   30.0490   45.7790 C   0  0  0  0  0  0  0  0  0  0  0  0
   34.8380   30.0630   47.1420 C   0  0  0  0  0  0  0  0  0  0  0  0
   35.7490   30.5260   48.0500 C   0  0  0  0  0  0  0  0  0  0  0  0
   39.8810   33.2630   45.0520 C   0  0  0  0  0  0  0  0  0  0  0  0
   41.0670   32.4550   45.0330 C   0  0  0  0  0  0  0  0  0  0  0  0
   40.9410   31.1580   45.4500 C   0  0  0  0  0  0  0  0  0  0  0  0
   39.7200   30.6720   45.8650 N   0  0  0  0  0  0  0  0  0  0  0  0
   38.6350   31.4700   45.8660 C   0  0  0  0  0  0  0  0  0  0  0  0
   38.7300   32.7460   45.4610 N   0  0  0  0  0  0  0  0  0  0  0  0
   34.2220   29.4970   49.7590 C   0  0  0  0  0  0  0  0  0  0  0  0
   34.7140   28.1800   49.5750 N   0  0  0  0  0  0  0  0  0  0  0  0
   33.9590   27.3180   48.7440 C   0  0  0  0  0  0  0  0  0  0  0  0
   32.5470   27.7890   48.7040 C   0  0  0  0  0  0  0  0  0  0  0  0
   31.8510   26.7370   47.8260 C   0  0  0  0  0  0  0  0  0  0  0  0
   32.5130   25.5610   47.5200 C   0  0  0  0  0  0  0  0  0  0  0  0
   31.8540   24.6380   46.7280 C   0  0  0  0  0  0  0  0  0  0  0  0
   30.6110   24.8640   46.2620 N   0  0  0  0  0  0  0  0  0  0  0  0
   29.9920   26.0200   46.5780 C   0  0  0  0  0  0  0  0  0  0  0  0
   30.5940   26.9440   47.3450 N   0  0  0  0  0  0  0  0  0  0  0  0
   34.9132   31.4751   49.6934 H   0  0  0  0  0  0  0  0  0  0  0  0
   36.1652   30.1408   50.0094 H   0  0  0  0  0  0  0  0  0  0  0  0
   36.6740   30.5119   44.3346 H   0  0  0  0  0  0  0  0  0  0  0  0
   34.4395   29.6799   45.0314 H   0  0  0  0  0  0  0  0  0  0  0  0
   33.8560   29.7021   47.4818 H   0  0  0  0  0  0  0  0  0  0  0  0
   39.9266   34.3128   44.7268 H   0  0  0  0  0  0  0  0  0  0  0  0
   42.0334   32.8601   44.6984 H   0  0  0  0  0  0  0  0  0  0  0  0
   41.8210   30.4981   45.4540 H   0  0  0  0  0  0  0  0  0  0  0  0
   33.9110   29.6292   50.8058 H   0  0  0  0  0  0  0  0  0  0  0  0
   33.3596   29.6618   49.0963 H   0  0  0  0  0  0  0  0  0  0  0  0
   35.6571   28.2555   49.1678 H   0  0  0  0  0  0  0  0  0  0  0  0
   34.3786   27.3266   47.7272 H   0  0  0  0  0  0  0  0  0  0  0  0
   33.9957   26.2938   49.1437 H   0  0  0  0  0  0  0  0  0  0  0  0
   32.1101   27.8121   49.7132 H   0  0  0  0  0  0  0  0  0  0  0  0
   32.4444   28.8125   48.3143 H   0  0  0  0  0  0  0  0  0  0  0  0
   33.5291   25.3667   47.8940 H   0  0  0  0  0  0  0  0  0  0  0  0
   32.3586   23.6946   46.4721 H   0  0  0  0  0  0  0  0  0  0  0  0
   28.9762   26.2095   46.2009 H   0  0  0  0  0  0  0  0  0  0  0  0
  1 15  1  0
  3  8  2  0
  3  2  1  0
  4  3  1  0
  5  6  1  0
  5  4  2  0
  6  7  2  0
  7  8  1  0
  8  1  1  0
  9 14  2  0
 10  9  1  0
 10 11  2  0
 11 12  1  0
 12 13  2  0
 13  4  1  0
 14 13  1  0
 16 15  1  0
 17 16  1  0
 18 17  1  0
 19 18  1  0
 20 19  2  0
 21 20  1  0
 22 23  1  0
 22 21  2  0
 23 24  2  0
 24 19  1  0
  1 25  1  0
  1 26  1  0
  5 27  1  0
  6 28  1  0
  7 29  1  0
  9 30  1  0
 10 31  1  0
 11 32  1  0
 15 33  1  0
 15 34  1  0
 16 35  1  0
 17 36  1  0
 17 37  1  0
 18 38  1  0
 18 39  1  0
 20 40  1  0
 21 41  1  0
 23 42  1  0
M  ISO  8  25   8  26   8  27  14  28  14  29  14  30  14  31  14  32  14
M  ISO  8  33   8  34   8  35   5  36   8  37   8  38   8  39   8  40  14
M  ISO  2  41  14  42  14
M  END
>  <minimizedAffinity>  (1) 
-5.25331497

>  <minimizedRMSD>  (1) 
0.338463783

$$$$
