
     RDKit          3D

 24 25  0  0  0  0  0  0  0  0999 V2000
   39.0810   32.7670   48.1360 O   0  0  0  0  0  0  0  0  0  0  0  0
   38.6430   31.7280   47.1400 P   0  0  0  0  0  0  0  0  0  0  0  0
   37.4930   32.4080   46.0840 O   0  0  0  0  0  0  0  0  0  0  0  0
   38.0560   30.3040   47.8210 O   0  0  0  0  0  0  0  0  0  0  0  0
   37.3040   30.2160   51.4370 C   0  0  0  0  0  0  0  0  0  0  0  0
   38.0330   30.5320   50.2980 C   0  0  0  0  0  0  0  0  0  0  0  0
   37.5370   30.1220   49.0690 C   0  0  0  0  0  0  0  0  0  0  0  0
   36.3630   29.4310   49.0470 N   0  0  0  0  0  0  0  0  0  0  0  0
   35.6840   29.1450   50.1860 C   0  0  0  0  0  0  0  0  0  0  0  0
   36.1580   29.5380   51.3730 N   0  0  0  0  0  0  0  0  0  0  0  0
   39.9860   31.3550   46.1700 O   0  0  0  0  0  0  0  0  0  0  0  0
   39.9440   30.8550   44.8910 C   0  0  0  0  0  0  0  0  0  0  0  0
   40.6270   31.2700   43.7740 C   0  0  0  0  0  0  0  0  0  0  0  0
   40.4570   30.6370   42.5550 C   0  0  0  0  0  0  0  0  0  0  0  0
   39.6020   29.5870   42.4570 N   0  0  0  0  0  0  0  0  0  0  0  0
   38.9480   29.2010   43.5580 C   0  0  0  0  0  0  0  0  0  0  0  0
   39.0970   29.8050   44.7650 N   0  0  0  0  0  0  0  0  0  0  0  0
   36.7719   32.8344   46.6116 H   0  0  0  0  0  0  0  0  0  0  0  0
   37.6828   30.5341   52.4195 H   0  0  0  0  0  0  0  0  0  0  0  0
   38.9773   31.0917   50.3683 H   0  0  0  0  0  0  0  0  0  0  0  0
   34.7378   28.5865   50.1328 H   0  0  0  0  0  0  0  0  0  0  0  0
   41.3210   32.1201   43.8495 H   0  0  0  0  0  0  0  0  0  0  0  0
   41.0117   30.9828   41.6703 H   0  0  0  0  0  0  0  0  0  0  0  0
   38.2541   28.3509   43.4818 H   0  0  0  0  0  0  0  0  0  0  0  0
  2  4  1  0
  2  1  2  0
  3  2  1  0
  4  7  1  0
  6  5  2  0
  7  6  1  0
  8  7  2  0
  8  9  1  0
  9 10  2  0
 10  5  1  0
 11  2  1  0
 12 11  1  0
 13 12  2  0
 14 13  1  0
 15 14  2  0
 15 16  1  0
 16 17  2  0
 17 12  1  0
  3 18  1  0
  5 19  1  0
  6 20  1  0
  9 21  1  0
 13 22  1  0
 14 23  1  0
 16 24  1  0
M  ISO  7  18   3  19  14  20  14  21  14  22  14  23  14  24  14
M  END
>  <minimizedAffinity>  (1) 
-5.15258837

>  <minimizedRMSD>  (1) 
1.32810652

$$$$
