
     RDKit          3D

 21 22  0  0  0  0  0  0  0  0999 V2000
   38.3057   31.2412   50.1194 C   0  0  0  0  0  0  0  0  0  0  0  0
   38.2986   31.6154   48.7641 C   0  0  0  0  0  0  0  0  0  0  0  0
   37.2063   31.2189   48.0079 C   0  0  0  0  0  0  0  0  0  0  0  0
   36.2113   30.5041   48.5866 N   0  0  0  0  0  0  0  0  0  0  0  0
   36.2575   30.1645   49.8962 C   0  0  0  0  0  0  0  0  0  0  0  0
   37.2965   30.5307   50.6543 N   0  0  0  0  0  0  0  0  0  0  0  0
   35.1258   29.3806   50.4494 C   0  0  0  0  0  0  0  0  0  0  0  0
   35.2700   29.1262   51.8068 F   0  0  0  0  0  0  0  0  0  0  0  0
   33.9278   30.0596   50.2993 F   0  0  0  0  0  0  0  0  0  0  0  0
   34.9496   28.1709   49.8200 F   0  0  0  0  0  0  0  0  0  0  0  0
   39.1409   31.5310   50.7455 H   0  0  0  0  0  0  0  0  0  0  0  0
   39.1199   32.1872   48.3517 H   0  0  0  0  0  0  0  0  0  0  0  0
   37.1345   31.5735   46.5941 C   0  0  0  0  0  0  0  0  0  0  0  0
   38.2965   31.7183   45.8635 C   0  0  0  0  0  0  0  0  0  0  0  0
   38.1538   32.0546   44.5323 C   0  0  0  0  0  0  0  0  0  0  0  0
   39.0410   32.1730   43.9430 H   0  0  0  0  0  0  0  0  0  0  0  0
   36.9246   32.2214   44.0208 N   0  0  0  0  0  0  0  0  0  0  0  0
   35.7929   32.0844   44.7159 C   0  0  0  0  0  0  0  0  0  0  0  0
   35.9312   31.7536   46.0255 N   0  0  0  0  0  0  0  0  0  0  0  0
   39.2576   31.5695   46.3376 H   0  0  0  0  0  0  0  0  0  0  0  0
   34.8280   32.2315   44.2494 H   0  0  0  0  0  0  0  0  0  0  0  0
  1  6  2  0
  2  1  1  0
  3  4  1  0
  3  2  2  0
  4  5  2  0
  5  7  1  0
  5  6  1  0
  7  8  1  0
  9  7  1  0
 10  7  1  0
  1 11  1  0
  2 12  1  0
 13 14  2  0
 14 15  1  0
 15 16  1  0
 15 17  2  0
 17 18  1  0
 18 19  2  0
 19 13  1  0
 14 20  1  0
 18 21  1  0
  3 13  1  0
M  ISO  3  11  14  12  14  16  14
M  END
>  <DihAtoms>  (1) 
3,2,12,13

>  <DihDeg>  (1) 
-0.003248112503828782

$$$$
