
     RDKit          3D

 28 30  0  0  0  0  0  0  0  0999 V2000
   38.9450   30.9280   45.7150 C   0  0  0  0  0  0  0  0  0  0  0  0
   40.1480   31.5170   45.9960 C   0  0  0  0  0  0  0  0  0  0  0  0
   40.9750   31.4670   44.8800 C   0  0  0  0  0  0  0  0  0  0  0  0
   40.2250   30.8360   43.9450 N   0  0  0  0  0  0  0  0  0  0  0  0
   39.0470   30.5240   44.4350 N   0  0  0  0  0  0  0  0  0  0  0  0
   37.7860   30.7570   46.5880 C   0  0  0  0  0  0  0  0  0  0  0  0
   37.9870   30.9960   47.9820 C   0  0  0  0  0  0  0  0  0  0  0  0
   36.8880   30.8350   48.8250 C   0  0  0  0  0  0  0  0  0  0  0  0
   35.7040   30.4650   48.2790 N   0  0  0  0  0  0  0  0  0  0  0  0
   35.5440   30.2460   46.9530 C   0  0  0  0  0  0  0  0  0  0  0  0
   36.6010   30.3980   46.1310 N   0  0  0  0  0  0  0  0  0  0  0  0
   37.0660   31.0770   50.2840 C   0  0  0  0  0  0  0  0  0  0  0  0
   36.5650   32.3390   50.5100 F   0  0  0  0  0  0  0  0  0  0  0  0
   36.3780   30.1670   51.0630 F   0  0  0  0  0  0  0  0  0  0  0  0
   38.4100   31.0970   50.6490 F   0  0  0  0  0  0  0  0  0  0  0  0
   40.5470   30.4990   42.6010 C   0  0  0  0  0  0  0  0  0  0  0  0
   41.2740   29.3390   42.3150 C   0  0  0  0  0  0  0  0  0  0  0  0
   41.6350   28.9230   41.0490 C   0  0  0  0  0  0  0  0  0  0  0  0
   41.2410   29.7200   40.0400 N   0  0  0  0  0  0  0  0  0  0  0  0
   40.5390   30.8510   40.2690 C   0  0  0  0  0  0  0  0  0  0  0  0
   40.1970   31.2330   41.5320 N   0  0  0  0  0  0  0  0  0  0  0  0
   40.4205   31.9644   46.9633 H   0  0  0  0  0  0  0  0  0  0  0  0
   42.0009   31.8509   44.7794 H   0  0  0  0  0  0  0  0  0  0  0  0
   38.9699   31.2952   48.3749 H   0  0  0  0  0  0  0  0  0  0  0  0
   34.5642   29.9479   46.5516 H   0  0  0  0  0  0  0  0  0  0  0  0
   41.5817   28.7101   43.1634 H   0  0  0  0  0  0  0  0  0  0  0  0
   42.2076   27.9997   40.8768 H   0  0  0  0  0  0  0  0  0  0  0  0
   40.2365   31.4778   39.4172 H   0  0  0  0  0  0  0  0  0  0  0  0
  1  2  1  0
  1  6  1  0
  3  2  2  0
  4  5  1  0
  4  3  1  0
  5  1  2  0
  6  7  2  0
  7  8  1  0
  8 12  1  0
  9  8  2  0
 10  9  1  0
 11  6  1  0
 11 10  2  0
 12 13  1  0
 12 15  1  0
 12 14  1  0
 16  4  1  0
 17 16  2  0
 18 17  1  0
 19 20  1  0
 19 18  2  0
 20 21  2  0
 21 16  1  0
  2 22  1  0
  3 23  1  0
  7 24  1  0
 10 25  1  0
 17 26  1  0
 18 27  1  0
 20 28  1  0
M  ISO  7  22  14  23  14  24  14  25  14  26  14  27  14  28  14
M  END
>  <minimizedAffinity>  (1) 
-6.1669879

>  <minimizedRMSD>  (1) 
1.18541825

$$$$
