
     RDKit          3D

 31 33  0  0  0  0  0  0  0  0999 V2000
   37.3960   31.0710   47.1440 N   0  0  0  0  0  0  0  0  0  0  0  0
   36.7930   30.7240   45.9730 C   0  0  0  0  0  0  0  0  0  0  0  0
   37.2490   31.1980   44.7520 C   0  0  0  0  0  0  0  0  0  0  0  0
   38.3570   32.0490   44.7610 C   0  0  0  0  0  0  0  0  0  0  0  0
   38.8040   32.4990   43.6810 O   0  0  0  0  0  0  0  0  0  0  0  0
   38.9590   32.3920   45.9430 N   0  0  0  0  0  0  0  0  0  0  0  0
   38.4340   31.8770   47.0560 C   0  0  0  0  0  0  0  0  0  0  0  0
   39.0060   32.2120   48.1110 O   0  0  0  0  0  0  0  0  0  0  0  0
   37.2950   29.5320   50.5260 C   0  0  0  0  0  0  0  0  0  0  0  0
   37.7710   30.0100   49.2960 C   0  0  0  0  0  0  0  0  0  0  0  0
   36.9260   30.5870   48.3670 C   0  0  0  0  0  0  0  0  0  0  0  0
   35.6040   30.6720   48.6960 N   0  0  0  0  0  0  0  0  0  0  0  0
   35.1190   30.2150   49.8800 C   0  0  0  0  0  0  0  0  0  0  0  0
   35.9560   29.6530   50.7830 N   0  0  0  0  0  0  0  0  0  0  0  0
   36.6450   30.8620   43.4710 C   0  0  0  0  0  0  0  0  0  0  0  0
   37.0000   29.7530   42.7390 C   0  0  0  0  0  0  0  0  0  0  0  0
   36.4300   29.4290   41.5240 C   0  0  0  0  0  0  0  0  0  0  0  0
   35.4750   30.2280   41.0090 N   0  0  0  0  0  0  0  0  0  0  0  0
   35.1380   31.3230   41.7500 C   0  0  0  0  0  0  0  0  0  0  0  0
   35.6930   31.6370   42.9350 N   0  0  0  0  0  0  0  0  0  0  0  0
   40.1030   33.2680   45.9420 C   0  0  0  0  0  0  0  0  0  0  0  0
   39.9730   34.2400   45.0060 F   0  0  0  0  0  0  0  0  0  0  0  0
   41.2950   32.6130   45.6710 F   0  0  0  0  0  0  0  0  0  0  0  0
   40.1920   33.8980   47.1950 F   0  0  0  0  0  0  0  0  0  0  0  0
   35.9230   30.0513   45.9963 H   0  0  0  0  0  0  0  0  0  0  0  0
   37.9753   29.0750   51.2597 H   0  0  0  0  0  0  0  0  0  0  0  0
   38.8430   29.9234   49.0653 H   0  0  0  0  0  0  0  0  0  0  0  0
   34.0457   30.3018   50.1048 H   0  0  0  0  0  0  0  0  0  0  0  0
   37.7789   29.0894   43.1428 H   0  0  0  0  0  0  0  0  0  0  0  0
   36.7522   28.5277   40.9819 H   0  0  0  0  0  0  0  0  0  0  0  0
   34.3615   31.9932   41.3526 H   0  0  0  0  0  0  0  0  0  0  0  0
  1 11  1  0
  2  1  1  0
  3  4  1  0
  3  2  2  0
  4  6  1  0
  5  4  2  0
  6  7  1  0
  7  1  1  0
  7  8  2  0
  9 14  2  0
 10  9  1  0
 11 12  1  0
 11 10  2  0
 12 13  2  0
 13 14  1  0
 15  3  1  0
 16 15  2  0
 17 16  1  0
 18 17  2  0
 18 19  1  0
 19 20  2  0
 20 15  1  0
 21  6  1  0
 21 24  1  0
 22 21  1  0
 23 21  1  0
  2 25  1  0
  9 26  1  0
 10 27  1  0
 13 28  1  0
 16 29  1  0
 17 30  1  0
 19 31  1  0
M  ISO  7  25  14  26  14  27  14  28  14  29  14  30  14  31  14
M  END
>  <minimizedAffinity>  (1) 
-6.08858538

>  <minimizedRMSD>  (1) 
0.323642612

$$$$
