
     RDKit          3D

 28 30  0  0  0  0  0  0  0  0999 V2000
   38.0114   33.1008   49.4742 C   0  0  0  0  0  0  0  0  0  0  0  0
   38.9710   33.2111   48.4692 C   0  0  0  0  0  0  0  0  0  0  0  0
   38.9464   32.2260   47.4665 C   0  0  0  0  0  0  0  0  0  0  0  0
   38.0129   31.2458   47.5304 N   0  0  0  0  0  0  0  0  0  0  0  0
   37.1096   31.1792   48.5152 C   0  0  0  0  0  0  0  0  0  0  0  0
   37.1122   32.1179   49.4949 N   0  0  0  0  0  0  0  0  0  0  0  0
   36.1000   30.1357   48.6016 C   0  0  0  0  0  0  0  0  0  0  0  0
   35.2839   29.9460   47.5192 C   0  0  0  0  0  0  0  0  0  0  0  0
   34.2985   28.9804   47.5091 C   0  0  0  0  0  0  0  0  0  0  0  0
   34.1476   28.1979   48.6251 C   0  0  0  0  0  0  0  0  0  0  0  0
   34.9533   28.3576   49.7423 C   0  0  0  0  0  0  0  0  0  0  0  0
   35.9383   29.3376   49.7263 C   0  0  0  0  0  0  0  0  0  0  0  0
   38.0701   33.8935   50.2349 H   0  0  0  0  0  0  0  0  0  0  0  0
   39.7309   33.9602   48.3661 H   0  0  0  0  0  0  0  0  0  0  0  0
   39.6277   32.1610   46.6034 H   0  0  0  0  0  0  0  0  0  0  0  0
   35.3746   30.5514   46.6114 H   0  0  0  0  0  0  0  0  0  0  0  0
   33.6625   28.8479   46.6376 H   0  0  0  0  0  0  0  0  0  0  0  0
   33.3643   27.4523   48.5781 H   0  0  0  0  0  0  0  0  0  0  0  0
   34.7953   27.7172   50.5958 H   0  0  0  0  0  0  0  0  0  0  0  0
   36.8067   29.5387   50.8806 C   0  0  0  0  0  0  0  0  0  0  0  0
   37.9775   28.8107   50.9474 C   0  0  0  0  0  0  0  0  0  0  0  0
   38.7937   28.9915   52.0201 C   0  0  0  0  0  0  0  0  0  0  0  0
   39.7445   28.5043   52.2293 H   0  0  0  0  0  0  0  0  0  0  0  0
   38.4785   29.8518   52.9923 N   0  0  0  0  0  0  0  0  0  0  0  0
   37.3271   30.5841   52.9510 C   0  0  0  0  0  0  0  0  0  0  0  0
   36.5552   30.3770   51.8828 N   0  0  0  0  0  0  0  0  0  0  0  0
   38.3193   28.0956   50.2177 H   0  0  0  0  0  0  0  0  0  0  0  0
   37.0821   31.2820   53.7507 H   0  0  0  0  0  0  0  0  0  0  0  0
  1  6  2  0
  2  1  1  0
  3  4  1  0
  3  2  2  0
  4  5  2  0
  5  7  1  0
  5  6  1  0
  7 12  1  0
  8  7  2  0
  9  8  1  0
  9 10  2  0
 10 11  1  0
 12 11  2  0
  1 13  1  0
  2 14  1  0
  3 15  1  0
  8 16  1  0
  9 17  1  0
 10 18  1  0
 11 19  1  0
 20 21  2  0
 21 22  1  0
 22 23  1  0
 22 24  2  0
 24 25  1  0
 25 26  2  0
 26 20  1  0
 21 27  1  0
 25 28  1  0
 12 20  1  0
M  ISO  8  13  14  14  14  15  14  16  14  17  14  18  14  19  14  23  14
M  END
>  <DihAtoms>  (1) 
6,11,19,20

>  <DihDeg>  (1) 
119.121287633121

$$$$
