
     RDKit          3D

 32 34  0  0  0  0  0  0  0  0999 V2000
   36.9480   31.1360   48.3870 C   0  0  0  0  0  0  0  0  0  0  0  0
   37.2360   32.1050   49.3290 C   0  0  0  0  0  0  0  0  0  0  0  0
   38.1950   33.0690   49.0530 C   0  0  0  0  0  0  0  0  0  0  0  0
   38.8600   33.0540   47.8340 C   0  0  0  0  0  0  0  0  0  0  0  0
   38.5440   32.0730   46.9250 C   0  0  0  0  0  0  0  0  0  0  0  0
   37.6110   31.1430   47.2060 N   0  0  0  0  0  0  0  0  0  0  0  0
   35.0980   28.5720   50.4150 C   0  0  0  0  0  0  0  0  0  0  0  0
   36.1270   29.4650   50.0030 C   0  0  0  0  0  0  0  0  0  0  0  0
   35.9210   30.2090   48.8460 C   0  0  0  0  0  0  0  0  0  0  0  0
   34.7440   30.0480   48.1630 N   0  0  0  0  0  0  0  0  0  0  0  0
   33.7970   29.1760   48.6090 C   0  0  0  0  0  0  0  0  0  0  0  0
   33.9560   28.4490   49.7070 N   0  0  0  0  0  0  0  0  0  0  0  0
   32.6660   29.1650   47.7340 N   0  0  0  0  0  0  0  0  0  0  0  0
   37.3620   29.5600   50.8180 C   0  0  0  0  0  0  0  0  0  0  0  0
   38.4830   29.7910   50.0200 F   0  0  0  0  0  0  0  0  0  0  0  0
   37.2270   30.5990   51.6840 F   0  0  0  0  0  0  0  0  0  0  0  0
   37.6170   28.4170   51.5550 F   0  0  0  0  0  0  0  0  0  0  0  0
   39.2150   32.0170   45.6310 C   0  0  0  0  0  0  0  0  0  0  0  0
   40.1170   31.0230   45.3350 C   0  0  0  0  0  0  0  0  0  0  0  0
   40.6820   31.0800   44.0780 C   0  0  0  0  0  0  0  0  0  0  0  0
   40.3790   32.0440   43.1900 N   0  0  0  0  0  0  0  0  0  0  0  0
   39.4840   33.0160   43.5080 C   0  0  0  0  0  0  0  0  0  0  0  0
   38.9390   32.9630   44.7150 N   0  0  0  0  0  0  0  0  0  0  0  0
   36.7073   32.1121   50.2936 H   0  0  0  0  0  0  0  0  0  0  0  0
   38.4281   33.8437   49.7984 H   0  0  0  0  0  0  0  0  0  0  0  0
   39.6233   33.8111   47.6010 H   0  0  0  0  0  0  0  0  0  0  0  0
   35.2362   27.9718   51.3264 H   0  0  0  0  0  0  0  0  0  0  0  0
   31.8630   28.5531   47.9380 H   0  0  0  0  0  0  0  0  0  0  0  0
   32.6544   29.7690   46.8998 H   0  0  0  0  0  0  0  0  0  0  0  0
   40.3722   30.2318   46.0553 H   0  0  0  0  0  0  0  0  0  0  0  0
   41.4092   30.3065   43.7902 H   0  0  0  0  0  0  0  0  0  0  0  0
   39.2233   33.8119   42.7949 H   0  0  0  0  0  0  0  0  0  0  0  0
  1  9  1  0
  1  2  2  0
  3  2  1  0
  4  3  2  0
  5  6  2  0
  5  4  1  0
  6  1  1  0
  8  7  2  0
  8 14  1  0
  9  8  1  0
 10 11  1  0
 10  9  2  0
 11 12  2  0
 12  7  1  0
 13 11  1  0
 14 17  1  0
 14 16  1  0
 15 14  1  0
 18  5  1  0
 19 18  2  0
 20 19  1  0
 21 22  1  0
 21 20  2  0
 22 23  2  0
 23 18  1  0
  2 24  1  0
  3 25  1  0
  4 26  1  0
  7 27  1  0
 13 28  1  0
 13 29  1  0
 19 30  1  0
 20 31  1  0
 22 32  1  0
M  ISO  7  24  14  25  14  26  14  27  14  30  14  31  14  32  14
M  END
>  <minimizedAffinity>  (1) 
-7.03439188

>  <minimizedRMSD>  (1) 
1.0714761

$$$$
