
     RDKit          3D

 37 39  0  0  0  0  0  0  0  0999 V2000
   38.1648   31.2395   44.9272 C   0  0  0  0  0  0  0  0  0  0  0  0
   37.3426   30.9433   45.9699 C   0  0  0  0  0  0  0  0  0  0  0  0
   36.1059   30.3557   45.7279 C   0  0  0  0  0  0  0  0  0  0  0  0
   35.6646   30.0559   44.4541 C   0  0  0  0  0  0  0  0  0  0  0  0
   36.4644   30.3430   43.3802 C   0  0  0  0  0  0  0  0  0  0  0  0
   37.6788   30.9212   43.6535 C   0  0  0  0  0  0  0  0  0  0  0  0
   38.6780   32.7810   48.8587 C   0  0  0  0  0  0  0  0  0  0  0  0
   38.3050   32.4444   47.5657 C   0  0  0  0  0  0  0  0  0  0  0  0
   37.6984   31.2531   47.3120 C   0  0  0  0  0  0  0  0  0  0  0  0
   37.4776   30.4300   48.3740 N   0  0  0  0  0  0  0  0  0  0  0  0
   37.8325   30.7527   49.6246 C   0  0  0  0  0  0  0  0  0  0  0  0
   38.4315   31.9236   49.8566 N   0  0  0  0  0  0  0  0  0  0  0  0
   37.4682   29.7880   50.6962 C   0  0  0  0  0  0  0  0  0  0  0  0
   37.7255   30.2908   51.9565 F   0  0  0  0  0  0  0  0  0  0  0  0
   36.0284   29.6394   50.7079 F   0  0  0  0  0  0  0  0  0  0  0  0
   37.9040   28.5548   50.5715 F   0  0  0  0  0  0  0  0  0  0  0  0
   39.7156   31.9297   45.0966 S   0  0  0  0  0  0  0  0  0  0  0  0
   39.6986   33.3964   44.8890 O   0  0  0  0  0  0  0  0  0  0  0  0
   40.2859   31.5713   43.7386 O   0  0  0  0  0  0  0  0  0  0  0  0
   41.1256   31.2443   45.7485 C   0  0  0  0  0  0  0  0  0  0  0  0
   35.4640   30.1258   46.5911 H   0  0  0  0  0  0  0  0  0  0  0  0
   34.6917   29.6008   44.3846 H   0  0  0  0  0  0  0  0  0  0  0  0
   36.0732   30.0922   42.4279 H   0  0  0  0  0  0  0  0  0  0  0  0
   38.2206   31.1037   42.7165 H   0  0  0  0  0  0  0  0  0  0  0  0
   39.1640   33.6709   49.2285 H   0  0  0  0  0  0  0  0  0  0  0  0
   38.5747   33.2958   46.9886 H   0  0  0  0  0  0  0  0  0  0  0  0
   40.9051   31.1868   46.8858 H   0  0  0  0  0  0  0  0  0  0  0  0
   41.2602   30.1639   45.5546 H   0  0  0  0  0  0  0  0  0  0  0  0
   42.3253   32.0654   45.7385 C   0  0  0  0  0  0  0  0  0  0  0  0
   43.2598   31.7133   44.7851 C   0  0  0  0  0  0  0  0  0  0  0  0
   44.4730   32.3849   44.6237 C   0  0  0  0  0  0  0  0  0  0  0  0
   45.2028   32.1060   43.8754 H   0  0  0  0  0  0  0  0  0  0  0  0
   44.7588   33.4403   45.4412 N   0  0  0  0  0  0  0  0  0  0  0  0
   43.8197   33.7473   46.3546 C   0  0  0  0  0  0  0  0  0  0  0  0
   42.6276   33.1070   46.5320 N   0  0  0  0  0  0  0  0  0  0  0  0
   43.1304   30.8932   44.0885 H   0  0  0  0  0  0  0  0  0  0  0  0
   44.0160   34.5873   47.0260 H   0  0  0  0  0  0  0  0  0  0  0  0
  1 17  1  0
  1  2  1  0
  2  9  1  0
  3  2  2  0
  4  3  1  0
  5  6  1  0
  5  4  2  0
  6  1  2  0
  7 12  2  0
  8  7  1  0
  9  8  2  0
  9 10  1  0
 10 11  2  0
 11 12  1  0
 11 13  1  0
 13 15  1  0
 13 14  1  0
 16 13  1  0
 17 20  1  0
 18 17  2  0
 19 17  2  0
  3 21  1  0
  4 22  1  0
  5 23  1  0
  6 24  1  0
  7 25  1  0
  8 26  1  0
 20 27  1  0
 20 28  1  0
 29 30  2  0
 30 31  1  0
 31 32  1  0
 31 33  2  0
 33 34  1  0
 34 35  2  0
 35 29  1  0
 30 36  1  0
 34 37  1  0
 20 29  1  0
M  ISO  8  21  14  22  14  23  14  24  14  25  14  26  14  27   8  28   8
M  ISO  1  32  14
M  END
>  <DihAtoms>  (1) 
16,19,28,29

>  <DihDeg>  (1) 
-90.00148447998505

$$$$
