
     RDKit          3D

 25 26  0  0  0  0  0  0  0  0999 V2000
   37.0585   29.4249   51.1635 C   0  0  0  0  0  0  0  0  0  0  0  0
   37.7041   30.0222   50.0978 C   0  0  0  0  0  0  0  0  0  0  0  0
   36.9108   30.4826   49.0520 C   0  0  0  0  0  0  0  0  0  0  0  0
   35.5492   30.3171   49.1417 N   0  0  0  0  0  0  0  0  0  0  0  0
   34.9546   29.7284   50.1988 C   0  0  0  0  0  0  0  0  0  0  0  0
   35.7206   29.2751   51.2261 N   0  0  0  0  0  0  0  0  0  0  0  0
   37.4374   31.1486   47.8422 C   0  0  0  0  0  0  0  0  0  0  0  0
   38.7417   31.8472   48.1373 C   0  0  0  0  0  0  0  0  0  0  0  0
   38.4762   33.3571   49.1175 S   0  0  0  0  0  0  0  0  0  0  0  0
   37.7332   29.0853   51.9517 H   0  0  0  0  0  0  0  0  0  0  0  0
   38.7510   30.1462   50.0369 H   0  0  0  0  0  0  0  0  0  0  0  0
   33.8882   29.6127   50.2423 H   0  0  0  0  0  0  0  0  0  0  0  0
   37.5596   30.4678   46.9965 H   0  0  0  0  0  0  0  0  0  0  0  0
   36.7423   31.9733   47.5088 H   0  0  0  0  0  0  0  0  0  0  0  0
   39.5485   31.2237   48.5011 H   0  0  0  0  0  0  0  0  0  0  0  0
   39.1046   32.2311   47.1414 H   0  0  0  0  0  0  0  0  0  0  0  0
   37.5718   34.4744   48.0380 C   0  0  0  0  0  0  0  0  0  0  0  0
   37.6757   34.5003   46.6762 C   0  0  0  0  0  0  0  0  0  0  0  0
   36.9055   35.4262   46.0015 C   0  0  0  0  0  0  0  0  0  0  0  0
   37.0029   35.4311   44.9147 H   0  0  0  0  0  0  0  0  0  0  0  0
   36.0903   36.2616   46.6803 N   0  0  0  0  0  0  0  0  0  0  0  0
   35.9906   36.2323   48.0291 C   0  0  0  0  0  0  0  0  0  0  0  0
   36.7446   35.3240   48.7071 N   0  0  0  0  0  0  0  0  0  0  0  0
   38.3615   33.7842   46.2451 H   0  0  0  0  0  0  0  0  0  0  0  0
   35.3438   36.8939   48.5747 H   0  0  0  0  0  0  0  0  0  0  0  0
  1  6  2  0
  2  1  1  0
  3  4  1  0
  3  2  2  0
  4  5  2  0
  5  6  1  0
  7  8  1  0
  7  3  1  0
  8  9  1  0
  1 10  1  0
  2 11  1  0
  5 12  1  0
  7 13  1  0
  7 14  1  0
  8 15  1  0
  8 16  1  0
 17 18  2  0
 18 19  1  0
 19 20  1  0
 19 21  2  0
 21 22  1  0
 22 23  2  0
 23 17  1  0
 18 24  1  0
 22 25  1  0
  9 17  1  0
M  ISO  8  10  14  11  14  12  14  13   8  14   8  15   8  16   8  20  14
M  END
>  <DihAtoms>  (1) 
7,8,16,17

>  <DihDeg>  (1) 
-90.05085760718171

$$$$
