
     RDKit          3D

 28 30  0  0  0  0  0  0  0  0999 V2000
   37.7240   32.5820   49.4810 C   0  0  0  0  0  0  0  0  0  0  0  0
   38.5510   32.7500   48.3560 C   0  0  0  0  0  0  0  0  0  0  0  0
   38.2740   31.9500   47.2400 C   0  0  0  0  0  0  0  0  0  0  0  0
   37.2480   31.0850   47.3210 N   0  0  0  0  0  0  0  0  0  0  0  0
   36.4720   30.9470   48.4160 C   0  0  0  0  0  0  0  0  0  0  0  0
   36.7150   31.7000   49.4970 N   0  0  0  0  0  0  0  0  0  0  0  0
   36.6960   28.7910   50.4380 Cl  0  0  0  0  0  0  0  0  0  0  0  0
   35.3890   28.9360   49.2950 C   0  0  0  0  0  0  0  0  0  0  0  0
   35.3810   29.9750   48.3970 C   0  0  0  0  0  0  0  0  0  0  0  0
   34.3670   30.1220   47.4810 C   0  0  0  0  0  0  0  0  0  0  0  0
   33.3250   29.2050   47.4530 C   0  0  0  0  0  0  0  0  0  0  0  0
   33.3050   28.1530   48.3410 C   0  0  0  0  0  0  0  0  0  0  0  0
   32.0470   26.9390   48.4010 Cl  0  0  0  0  0  0  0  0  0  0  0  0
   34.3450   28.0490   49.2410 C   0  0  0  0  0  0  0  0  0  0  0  0
   39.0330   32.0010   45.9990 C   0  0  0  0  0  0  0  0  0  0  0  0
   40.1590   31.2490   45.7560 C   0  0  0  0  0  0  0  0  0  0  0  0
   40.8960   31.2760   44.5930 C   0  0  0  0  0  0  0  0  0  0  0  0
   40.4770   32.1100   43.6150 N   0  0  0  0  0  0  0  0  0  0  0  0
   39.3660   32.8660   43.8300 C   0  0  0  0  0  0  0  0  0  0  0  0
   38.6740   32.8090   44.9810 N   0  0  0  0  0  0  0  0  0  0  0  0
   37.9111   33.1937   50.3759 H   0  0  0  0  0  0  0  0  0  0  0  0
   39.3773   33.4761   48.3526 H   0  0  0  0  0  0  0  0  0  0  0  0
   34.3810   30.9633   46.7725 H   0  0  0  0  0  0  0  0  0  0  0  0
   32.5133   29.3192   46.7195 H   0  0  0  0  0  0  0  0  0  0  0  0
   34.3363   27.2104   49.9528 H   0  0  0  0  0  0  0  0  0  0  0  0
   40.4977   30.5722   46.5543 H   0  0  0  0  0  0  0  0  0  0  0  0
   41.7882   30.6454   44.4652 H   0  0  0  0  0  0  0  0  0  0  0  0
   39.0231   33.5458   43.0361 H   0  0  0  0  0  0  0  0  0  0  0  0
  1  6  2  0
  2  1  1  0
  3  4  1  0
  3  2  2  0
  4  5  2  0
  5  6  1  0
  8  7  1  0
  9  5  1  0
  9  8  2  0
 10  9  1  0
 11 10  2  0
 11 12  1  0
 12 13  1  0
 12 14  2  0
 14  8  1  0
 15  3  1  0
 16 15  2  0
 17 16  1  0
 18 19  1  0
 18 17  2  0
 19 20  2  0
 20 15  1  0
  1 21  1  0
  2 22  1  0
 10 23  1  0
 11 24  1  0
 14 25  1  0
 16 26  1  0
 17 27  1  0
 19 28  1  0
M  ISO  8  21  14  22  14  23  14  24  14  25  14  26  14  27  14  28  14
M  END
>  <minimizedAffinity>  (1) 
-6.4765749

>  <minimizedRMSD>  (1) 
1.03946996

$$$$
