
     RDKit          3D

 34 36  0  0  1  0  0  0  0  0999 V2000
   35.4060   30.1780   49.9390 C   0  0  2  0  0  0  0  0  0  0  0  0
   36.2510   31.2330   49.2590 C   0  0  0  0  0  0  0  0  0  0  0  0
   37.7190   30.9360   49.3510 C   0  0  2  0  0  0  0  0  0  0  0  0
   38.1930   30.7290   50.7670 C   0  0  0  0  0  0  0  0  0  0  0  0
   37.2500   29.9200   51.6010 C   0  0  0  0  0  0  0  0  0  0  0  0
   36.1920   29.2210   50.7660 C   0  0  0  0  0  0  0  0  0  0  0  0
   34.6540   29.3960   48.9200 C   0  0  0  0  0  0  0  0  0  0  0  0
   34.3270   30.0590   47.7220 C   0  0  0  0  0  0  0  0  0  0  0  0
   33.6180   29.3390   46.7680 C   0  0  0  0  0  0  0  0  0  0  0  0
   33.2670   28.0290   47.0240 N   0  0  0  0  0  0  0  0  0  0  0  0
   33.6060   27.4240   48.2040 C   0  0  0  0  0  0  0  0  0  0  0  0
   34.2900   28.1150   49.1280 N   0  0  0  0  0  0  0  0  0  0  0  0
   38.4950   32.0180   48.7460 C   0  0  0  0  0  0  0  0  0  0  0  0
   38.7880   33.1960   49.4030 C   0  0  0  0  0  0  0  0  0  0  0  0
   39.5260   34.2120   48.8120 C   0  0  0  0  0  0  0  0  0  0  0  0
   39.9860   34.0640   47.5410 N   0  0  0  0  0  0  0  0  0  0  0  0
   39.6930   32.9120   46.9140 C   0  0  0  0  0  0  0  0  0  0  0  0
   38.9780   31.9230   47.4800 N   0  0  0  0  0  0  0  0  0  0  0  0
   34.7301   30.7257   50.6122 H   0  0  0  0  0  0  0  0  0  0  0  0
   36.0563   32.2042   49.7375 H   0  0  0  0  0  0  0  0  0  0  0  0
   35.9775   31.2468   48.1936 H   0  0  0  0  0  0  0  0  0  0  0  0
   37.8758   29.9942   48.8047 H   0  0  0  0  0  0  0  0  0  0  0  0
   39.1630   30.2111   50.7370 H   0  0  0  0  0  0  0  0  0  0  0  0
   38.2644   31.7231   51.2324 H   0  0  0  0  0  0  0  0  0  0  0  0
   37.8263   29.1601   52.1491 H   0  0  0  0  0  0  0  0  0  0  0  0
   36.7347   30.6081   52.2873 H   0  0  0  0  0  0  0  0  0  0  0  0
   35.5051   28.6870   51.4391 H   0  0  0  0  0  0  0  0  0  0  0  0
   36.7042   28.5264   50.0839 H   0  0  0  0  0  0  0  0  0  0  0  0
   34.6208   31.1047   47.5481 H   0  0  0  0  0  0  0  0  0  0  0  0
   33.3382   29.8104   45.8144 H   0  0  0  0  0  0  0  0  0  0  0  0
   33.3196   26.3789   48.3932 H   0  0  0  0  0  0  0  0  0  0  0  0
   38.4236   33.3345   50.4316 H   0  0  0  0  0  0  0  0  0  0  0  0
   39.7384   35.1354   49.3708 H   0  0  0  0  0  0  0  0  0  0  0  0
   40.0564   32.7705   45.8854 H   0  0  0  0  0  0  0  0  0  0  0  0
  1  6  1  0
  2  3  1  0
  2  1  1  0
  3  4  1  0
  4  5  1  0
  6  5  1  0
  7 12  1  0
  7  1  1  0
  8  7  2  0
  9 10  2  0
  9  8  1  0
 10 11  1  0
 11 12  2  0
 13  3  1  0
 13 14  2  0
 15 14  1  0
 16 15  2  0
 17 18  2  0
 17 16  1  0
 18 13  1  0
  1 19  1  1
  2 20  1  0
  2 21  1  0
  3 22  1  6
  4 23  1  0
  4 24  1  0
  5 25  1  0
  5 26  1  0
  6 27  1  0
  6 28  1  0
  8 29  1  0
  9 30  1  0
 11 31  1  0
 14 32  1  0
 15 33  1  0
 17 34  1  0
M  ISO  8  19  13  20  13  21  13  22  13  23  13  24  13  25  13  26  13
M  ISO  8  27  13  28  13  29  14  30  14  31  14  32  14  33  14  34  14
M  END
>  <minimizedAffinity>  (1) 
-6.32516718

>  <minimizedRMSD>  (1) 
0.56657511

$$$$
