
     RDKit          3D

 34 36  0  0  0  0  0  0  0  0999 V2000
   34.7572   29.4285   48.8020 C   0  0  0  0  0  0  0  0  0  0  0  0
   34.2223   30.0524   47.6572 C   0  0  0  0  0  0  0  0  0  0  0  0
   33.4987   29.2580   46.7770 C   0  0  0  0  0  0  0  0  0  0  0  0
   33.3384   27.9162   47.0594 N   0  0  0  0  0  0  0  0  0  0  0  0
   33.8728   27.3535   48.1795 C   0  0  0  0  0  0  0  0  0  0  0  0
   34.5709   28.1071   49.0326 N   0  0  0  0  0  0  0  0  0  0  0  0
   35.5245   30.3132   49.7353 C   0  0  2  0  0  0  0  0  0  0  0  0
   36.4860   31.1722   48.9463 C   0  0  0  0  0  0  0  0  0  0  0  0
   37.9187   30.7839   49.1601 C   0  0  0  0  0  0  0  0  0  0  0  0
   38.2922   30.8198   50.6225 C   0  0  0  0  0  0  0  0  0  0  0  0
   37.3211   30.0872   51.4800 C   0  0  0  0  0  0  0  0  0  0  0  0
   36.1823   29.4371   50.7392 C   0  0  1  0  0  0  0  0  0  0  0  0
   34.2949   31.0661   47.3713 H   0  0  0  0  0  0  0  0  0  0  0  0
   33.0450   29.6401   45.8649 H   0  0  0  0  0  0  0  0  0  0  0  0
   33.7152   26.3003   48.3488 H   0  0  0  0  0  0  0  0  0  0  0  0
   34.7659   30.9887   50.1752 H   0  0  0  0  0  0  0  0  0  0  0  0
   36.3981   32.2311   49.2671 H   0  0  0  0  0  0  0  0  0  0  0  0
   36.2366   31.0811   47.8886 H   0  0  0  0  0  0  0  0  0  0  0  0
   38.5333   31.5534   48.6416 H   0  0  0  0  0  0  0  0  0  0  0  0
   38.0657   29.7875   48.6992 H   0  0  0  0  0  0  0  0  0  0  0  0
   38.2229   31.9005   50.9280 H   0  0  0  0  0  0  0  0  0  0  0  0
   39.3324   30.5291   50.7462 H   0  0  0  0  0  0  0  0  0  0  0  0
   37.8954   29.2234   51.9291 H   0  0  0  0  0  0  0  0  0  0  0  0
   36.9903   30.6611   52.3649 H   0  0  0  0  0  0  0  0  0  0  0  0
   36.4506   28.4488   50.3194 H   0  0  0  0  0  0  0  0  0  0  0  0
   35.1459   29.2101   51.8125 C   0  0  0  0  0  0  0  0  0  0  0  0
   35.4762   29.6266   53.0872 C   0  0  0  0  0  0  0  0  0  0  0  0
   34.5340   29.4227   54.0746 C   0  0  0  0  0  0  0  0  0  0  0  0
   34.7671   29.7431   55.0985 H   0  0  0  0  0  0  0  0  0  0  0  0
   33.3332   28.8362   53.7983 N   0  0  0  0  0  0  0  0  0  0  0  0
   33.0624   28.4461   52.5249 C   0  0  0  0  0  0  0  0  0  0  0  0
   33.9830   28.6400   51.5352 N   0  0  0  0  0  0  0  0  0  0  0  0
   36.4201   30.1053   53.3874 H   0  0  0  0  0  0  0  0  0  0  0  0
   32.1022   27.9827   52.3307 H   0  0  0  0  0  0  0  0  0  0  0  0
  1  6  1  0
  1  7  1  0
  2  1  2  0
  3  4  2  0
  3  2  1  0
  4  5  1  0
  5  6  2  0
  7 12  1  0
  8  9  1  0
  8  7  1  0
  9 10  1  0
 10 11  1  0
 12 11  1  0
  2 13  1  0
  3 14  1  0
  5 15  1  0
  7 16  1  1
  8 17  1  0
  8 18  1  0
  9 19  1  0
  9 20  1  0
 10 21  1  0
 10 22  1  0
 11 23  1  0
 11 24  1  0
 12 25  1  6
 26 27  2  0
 27 28  1  0
 28 29  1  0
 28 30  2  0
 30 31  1  0
 31 32  2  0
 32 26  1  0
 27 33  1  0
 31 34  1  0
 12 26  1  0
M  ISO  8  13  14  14  14  15  14  16  13  17  13  18  13  19  13  20  13
M  ISO  6  21  13  22  13  23  13  24  13  25  13  29  14
M  END
>  <DihAtoms>  (1) 
6,11,25,26

>  <DihDeg>  (1) 
-60.143565567638475

$$$$
