
     RDKit          3D

 32 34  0  0  1  0  0  0  0  0999 V2000
   37.2420   29.3020   50.4000 C   0  0  0  0  0  0  0  0  0  0  0  0
   36.5370   29.1950   49.1970 C   0  0  0  0  0  0  0  0  0  0  0  0
   36.0820   30.3450   48.5520 C   0  0  0  0  0  0  0  0  0  0  0  0
   36.3580   31.5290   49.1470 N   0  0  0  0  0  0  0  0  0  0  0  0
   37.0370   31.6410   50.3060 C   0  0  0  0  0  0  0  0  0  0  0  0
   37.4780   30.5180   50.9290 N   0  0  0  0  0  0  0  0  0  0  0  0
   35.3660   30.2400   47.3330 N   0  0  0  0  0  0  0  0  0  0  0  0
   33.9490   30.4870   47.3990 C   0  0  0  0  0  0  0  0  0  0  0  0
   33.2550   30.4910   46.0810 C   0  0  0  0  0  0  0  0  0  0  0  0
   34.0310   30.4200   44.9220 N   0  0  0  0  0  0  0  0  0  0  0  0
   35.2470   29.7030   44.9330 C   0  0  0  0  0  0  0  0  0  0  0  0
   36.0990   29.9010   46.1440 C   0  0  1  0  0  0  0  0  0  0  0  0
   37.2700   30.7850   45.9040 C   0  0  0  0  0  0  0  0  0  0  0  0
   38.4960   30.5600   46.5180 C   0  0  0  0  0  0  0  0  0  0  0  0
   39.6230   31.3360   46.3450 C   0  0  0  0  0  0  0  0  0  0  0  0
   39.4870   32.3940   45.4980 N   0  0  0  0  0  0  0  0  0  0  0  0
   38.2930   32.6270   44.8880 C   0  0  0  0  0  0  0  0  0  0  0  0
   37.2450   31.8410   45.0990 N   0  0  0  0  0  0  0  0  0  0  0  0
   37.6021   28.3974   50.9118 H   0  0  0  0  0  0  0  0  0  0  0  0
   36.3415   28.2047   48.7598 H   0  0  0  0  0  0  0  0  0  0  0  0
   37.2318   32.6317   50.7425 H   0  0  0  0  0  0  0  0  0  0  0  0
   33.4936   29.7042   48.0234 H   0  0  0  0  0  0  0  0  0  0  0  0
   33.8293   31.4979   47.8158 H   0  0  0  0  0  0  0  0  0  0  0  0
   32.5735   29.6276   46.0696 H   0  0  0  0  0  0  0  0  0  0  0  0
   32.7800   31.4817   46.0283 H   0  0  0  0  0  0  0  0  0  0  0  0
   34.2587   31.3887   44.6561 H   0  0  0  0  0  0  0  0  0  0  0  0
   35.0095   28.6316   44.8571 H   0  0  0  0  0  0  0  0  0  0  0  0
   35.8326   30.0883   44.0853 H   0  0  0  0  0  0  0  0  0  0  0  0
   36.5168   28.9047   46.3508 H   0  0  0  0  0  0  0  0  0  0  0  0
   38.5737   29.6961   47.1944 H   0  0  0  0  0  0  0  0  0  0  0  0
   40.5706   31.1147   46.8580 H   0  0  0  0  0  0  0  0  0  0  0  0
   38.1947   33.4845   44.2061 H   0  0  0  0  0  0  0  0  0  0  0  0
  1  6  2  0
  2  1  1  0
  3  4  1  0
  3  2  2  0
  4  5  2  0
  5  6  1  0
  7  8  1  0
  7  3  1  0
  9  8  1  0
 10 11  1  0
 10  9  1  0
 11 12  1  0
 12  7  1  0
 13 12  1  0
 13 14  2  0
 15 14  1  0
 16 15  2  0
 17 18  2  0
 17 16  1  0
 18 13  1  0
  1 19  1  0
  2 20  1  0
  5 21  1  0
  8 22  1  0
  8 23  1  0
  9 24  1  0
  9 25  1  0
 10 26  1  0
 11 27  1  0
 11 28  1  0
 12 29  1  1
 14 30  1  0
 15 31  1  0
 17 32  1  0
M  ISO  8  19  14  20  14  21  14  22  13  23  13  24  13  25  13  26   5
M  ISO  6  27  13  28  13  29  13  30  14  31  14  32  14
M  END
>  <minimizedAffinity>  (1) 
-4.75042582

>  <minimizedRMSD>  (1) 
5.07575512

$$$$
