
     RDKit          3D

 44 47  0  0  0  0  0  0  0  0999 V2000
   36.3803   30.5409   46.3941 Cl  0  0  0  0  0  0  0  0  0  0  0  0
   36.7814   30.5942   48.0877 C   0  0  0  0  0  0  0  0  0  0  0  0
   38.0231   31.1074   48.3512 C   0  0  0  0  0  0  0  0  0  0  0  0
   38.4003   31.2252   49.6836 C   0  0  0  0  0  0  0  0  0  0  0  0
   37.5016   30.8197   50.6622 C   0  0  0  0  0  0  0  0  0  0  0  0
   36.2641   30.3124   50.2949 C   0  0  0  0  0  0  0  0  0  0  0  0
   35.8636   30.1823   49.0102 C   0  0  0  0  0  0  0  0  0  0  0  0
   40.0430   33.3073   46.2447 C   0  0  0  0  0  0  0  0  0  0  0  0
   40.5737   32.4726   45.2631 C   0  0  0  0  0  0  0  0  0  0  0  0
   40.2222   31.1207   45.3486 C   0  0  0  0  0  0  0  0  0  0  0  0
   39.4028   30.7039   46.3583 N   0  0  0  0  0  0  0  0  0  0  0  0
   38.9220   31.5553   47.2749 C   0  0  0  0  0  0  0  0  0  0  0  0
   39.2428   32.8620   47.2190 N   0  0  0  0  0  0  0  0  0  0  0  0
   34.5648   29.5567   48.6100 C   0  0  1  0  0  0  0  0  0  0  0  0
   34.1684   30.0132   47.2907 C   0  0  0  0  0  0  0  0  0  0  0  0
   32.8606   29.2590   47.0357 C   0  0  0  0  0  0  0  0  0  0  0  0
   33.3454   27.8546   46.6993 C   0  0  0  0  0  0  0  0  0  0  0  0
   34.1445   27.2317   47.7509 C   0  0  0  0  0  0  0  0  0  0  0  0
   34.6353   28.0549   48.8589 C   0  0  2  0  0  0  0  0  0  0  0  0
   39.3693   31.6225   49.9580 H   0  0  0  0  0  0  0  0  0  0  0  0
   37.7742   30.9027   51.7064 H   0  0  0  0  0  0  0  0  0  0  0  0
   35.6075   30.0136   51.1137 H   0  0  0  0  0  0  0  0  0  0  0  0
   40.2997   34.3614   46.2024 H   0  0  0  0  0  0  0  0  0  0  0  0
   41.2220   32.8137   44.4674 H   0  0  0  0  0  0  0  0  0  0  0  0
   40.5851   30.3915   44.6307 H   0  0  0  0  0  0  0  0  0  0  0  0
   33.8621   29.8527   49.4152 H   0  0  0  0  0  0  0  0  0  0  0  0
   33.9448   31.0998   47.3043 H   0  0  0  0  0  0  0  0  0  0  0  0
   34.5338   29.6360   46.3549 H   0  0  0  0  0  0  0  0  0  0  0  0
   32.1878   29.2990   47.8814 H   0  0  0  0  0  0  0  0  0  0  0  0
   32.3147   29.6609   46.1618 H   0  0  0  0  0  0  0  0  0  0  0  0
   32.4738   27.3048   46.3587 H   0  0  0  0  0  0  0  0  0  0  0  0
   33.9719   28.0120   45.7702 H   0  0  0  0  0  0  0  0  0  0  0  0
   34.9101   26.5810   47.2294 H   0  0  0  0  0  0  0  0  0  0  0  0
   33.4820   26.4494   48.2246 H   0  0  0  0  0  0  0  0  0  0  0  0
   35.7380   27.8546   48.8725 H   0  0  0  0  0  0  0  0  0  0  0  0
   34.2008   27.6581   50.2212 C   0  0  0  0  0  0  0  0  0  0  0  0
   33.3393   28.4442   50.9552 C   0  0  0  0  0  0  0  0  0  0  0  0
   32.8954   28.1246   52.2400 C   0  0  0  0  0  0  0  0  0  0  0  0
   32.2237   28.7507   52.7956 H   0  0  0  0  0  0  0  0  0  0  0  0
   33.3266   26.9827   52.8094 N   0  0  0  0  0  0  0  0  0  0  0  0
   34.1659   26.2092   52.1038 C   0  0  0  0  0  0  0  0  0  0  0  0
   34.5928   26.5180   50.8664 N   0  0  0  0  0  0  0  0  0  0  0  0
   32.9464   29.3626   50.5887 H   0  0  0  0  0  0  0  0  0  0  0  0
   34.6342   25.2508   52.3693 H   0  0  0  0  0  0  0  0  0  0  0  0
  1  2  1  0
  2  3  2  0
  2  7  1  0
  3  4  1  0
  4  5  2  0
  6  5  1  0
  7  6  2  0
  8 13  2  0
  9 10  2  0
  9  8  1  0
 10 11  1  0
 11 12  2  0
 12  3  1  0
 13 12  1  0
 14 19  1  0
 14  7  1  0
 15 14  1  0
 16 15  1  0
 17 16  1  0
 17 18  1  0
 18 19  1  0
  4 20  1  0
  5 21  1  0
  6 22  1  0
  8 23  1  0
  9 24  1  0
 10 25  1  0
 14 26  1  1
 15 27  1  0
 15 28  1  0
 16 29  1  0
 16 30  1  0
 17 31  1  0
 17 32  1  0
 18 33  1  0
 18 34  1  0
 19 35  1  1
 36 37  2  0
 37 38  1  0
 38 39  1  0
 38 40  2  0
 40 41  1  0
 41 42  2  0
 42 36  1  0
 37 43  1  0
 41 44  1  0
 19 36  1  0
M  ISO  8  20  14  21  14  22  14  23  14  24  14  25  14  26  13  27  13
M  ISO  8  28  13  29  13  30  13  31  13  32  13  33  13  34  13  35  13
M  ISO  1  39  14
M  END
>  <DihAtoms>  (1) 
13,18,35,36

>  <DihDeg>  (1) 
69.64002311688199

$$$$
