
     RDKit          3D

 42 45  0  0  0  0  0  0  0  0999 V2000
   32.1667   28.5249   47.4255 C   0  0  2  0  0  0  0  0  0  0  0  0
   33.4075   28.3647   48.2535 C   0  0  1  0  0  0  0  0  0  0  0  0
   33.8075   27.0659   48.1653 O   0  0  0  0  0  0  0  0  0  0  0  0
   33.1066   26.4353   47.1425 C   0  0  0  0  0  0  0  0  0  0  0  0
   32.5051   27.5206   46.2821 C   0  0  1  0  0  0  0  0  0  0  0  0
   32.0942   29.8261   46.8885 O   0  0  0  0  0  0  0  0  0  0  0  0
   34.7182   29.4093   47.4976 S   0  0  0  0  0  0  0  0  0  0  0  0
   37.1331   29.2921   50.6364 C   0  0  0  0  0  0  0  0  0  0  0  0
   37.6362   30.5864   50.7575 C   0  0  0  0  0  0  0  0  0  0  0  0
   37.2078   31.5434   49.8225 C   0  0  0  0  0  0  0  0  0  0  0  0
   36.3313   31.1594   48.8554 N   0  0  0  0  0  0  0  0  0  0  0  0
   35.8705   29.8918   48.7777 C   0  0  0  0  0  0  0  0  0  0  0  0
   36.2637   28.9410   49.6653 N   0  0  0  0  0  0  0  0  0  0  0  0
   31.3648   27.0437   45.6860 O   0  0  0  0  0  0  0  0  0  0  0  0
   29.8840   29.1170   44.2134 Cl  0  0  0  0  0  0  0  0  0  0  0  0
   29.3347   28.1261   45.5457 C   0  0  0  0  0  0  0  0  0  0  0  0
   30.1246   27.1733   46.1484 C   0  0  0  0  0  0  0  0  0  0  0  0
   29.5680   26.4224   47.1852 C   0  0  0  0  0  0  0  0  0  0  0  0
   28.2659   26.6363   47.5867 C   0  0  0  0  0  0  0  0  0  0  0  0
   27.4660   27.5925   46.9859 C   0  0  0  0  0  0  0  0  0  0  0  0
   28.0157   28.3357   45.9601 C   0  0  0  0  0  0  0  0  0  0  0  0
   31.2435   28.1817   47.8862 H   0  0  0  0  0  0  0  0  0  0  0  0
   33.2280   28.6807   49.3055 H   0  0  0  0  0  0  0  0  0  0  0  0
   32.4089   25.7618   47.6213 H   0  0  0  0  0  0  0  0  0  0  0  0
   33.8454   25.8345   46.5216 H   0  0  0  0  0  0  0  0  0  0  0  0
   33.2501   27.9874   45.6431 H   0  0  0  0  0  0  0  0  0  0  0  0
   32.4841   30.4685   47.5333 H   0  0  0  0  0  0  0  0  0  0  0  0
   37.4968   28.5987   51.3822 H   0  0  0  0  0  0  0  0  0  0  0  0
   38.3316   30.8458   51.5430 H   0  0  0  0  0  0  0  0  0  0  0  0
   37.5677   32.5608   49.8721 H   0  0  0  0  0  0  0  0  0  0  0  0
   30.1003   25.6519   47.7145 H   0  0  0  0  0  0  0  0  0  0  0  0
   27.8372   26.0546   48.3889 H   0  0  0  0  0  0  0  0  0  0  0  0
   26.4578   27.7116   47.3445 H   0  0  0  0  0  0  0  0  0  0  0  0
   27.2238   29.3583   45.2881 C   0  0  0  0  0  0  0  0  0  0  0  0
   26.6923   29.2058   44.0341 C   0  0  0  0  0  0  0  0  0  0  0  0
   25.9381   30.1705   43.3855 C   0  0  0  0  0  0  0  0  0  0  0  0
   25.5352   30.0197   42.4014 H   0  0  0  0  0  0  0  0  0  0  0  0
   25.7006   31.3426   44.0120 N   0  0  0  0  0  0  0  0  0  0  0  0
   26.2134   31.5133   45.2445 C   0  0  0  0  0  0  0  0  0  0  0  0
   26.9418   30.5560   45.8463 N   0  0  0  0  0  0  0  0  0  0  0  0
   26.8361   28.3099   43.4765 H   0  0  0  0  0  0  0  0  0  0  0  0
   26.1342   32.3847   45.9129 H   0  0  0  0  0  0  0  0  0  0  0  0
  1  2  1  0
  3  2  1  0
  4  3  1  0
  5  4  1  0
  5  1  1  0
  6  1  1  0
  7  2  1  0
  7 12  1  0
  8  9  2  0
 10  9  1  0
 11 10  2  0
 12 11  1  0
 12 13  2  0
 13  8  1  0
 14 17  1  0
 14  5  1  0
 15 16  1  0
 16 21  2  0
 16 17  1  0
 17 18  2  0
 18 19  1  0
 20 19  2  0
 21 20  1  0
  1 22  1  1
  2 23  1  1
  4 24  1  0
  4 25  1  0
  5 26  1  6
  6 27  1  0
  8 28  1  0
  9 29  1  0
 10 30  1  0
 18 31  1  0
 19 32  1  0
 20 33  1  0
 34 35  2  0
 35 36  1  0
 36 37  1  0
 36 38  2  0
 38 39  1  0
 39 40  2  0
 40 34  1  0
 35 41  1  0
 39 42  1  0
 21 34  1  0
M  ISO  8  22  13  23  13  24  13  25  13  26  13  27   3  28  14  29  14
M  ISO  5  30  14  31  14  32  14  33  14  37  14
M  END
>  <DihAtoms>  (1) 
15,20,33,34

>  <DihDeg>  (1) 
-179.99245329846121

$$$$
