
     RDKit          3D

 40 43  0  0  0  0  0  0  0  0999 V2000
   38.4338   31.1224   48.1666 C   0  0  2  0  0  0  0  0  0  0  0  0
   38.6886   32.5840   48.0851 C   0  0  0  0  0  0  0  0  0  0  0  0
   38.0748   31.7452   46.9344 C   0  0  1  0  0  0  0  0  0  0  0  0
   35.0847   30.2568   49.4946 C   0  0  0  0  0  0  0  0  0  0  0  0
   35.4170   29.5586   50.6962 C   0  0  0  0  0  0  0  0  0  0  0  0
   36.8143   29.4085   51.0298 C   0  0  0  0  0  0  0  0  0  0  0  0
   37.7700   29.9334   50.1944 N   0  0  0  0  0  0  0  0  0  0  0  0
   37.3744   30.5798   49.0768 C   0  0  0  0  0  0  0  0  0  0  0  0
   36.0487   30.7589   48.6990 N   0  0  0  0  0  0  0  0  0  0  0  0
   38.3548   31.8981   44.4857 C   0  0  0  0  0  0  0  0  0  0  0  0
   37.2329   32.4403   44.3816 O   0  0  0  0  0  0  0  0  0  0  0  0
   38.9487   31.6380   45.7904 N   0  0  0  0  0  0  0  0  0  0  0  0
   39.1414   31.4912   43.2973 C   0  0  0  0  0  0  0  0  0  0  0  0
   40.1423   30.5721   43.4398 C   0  0  0  0  0  0  0  0  0  0  0  0
   40.8434   30.2333   42.2952 C   0  0  0  0  0  0  0  0  0  0  0  0
   40.5105   30.8178   41.1090 C   0  0  0  0  0  0  0  0  0  0  0  0
   39.4980   31.7474   40.9650 C   0  0  0  0  0  0  0  0  0  0  0  0
   38.8440   32.0485   42.0942 N   0  0  0  0  0  0  0  0  0  0  0  0
   39.1792   32.3466   39.6676 C   0  0  0  0  0  0  0  0  0  0  0  0
   38.8505   33.5540   39.6324 O   0  0  0  0  0  0  0  0  0  0  0  0
   39.3736   30.5141   48.2441 H   0  0  0  0  0  0  0  0  0  0  0  0
   37.9862   33.2045   48.6858 H   0  0  0  0  0  0  0  0  0  0  0  0
   39.7057   32.9748   47.9549 H   0  0  0  0  0  0  0  0  0  0  0  0
   36.9957   32.0002   46.7458 H   0  0  0  0  0  0  0  0  0  0  0  0
   34.0232   30.3311   49.3085 H   0  0  0  0  0  0  0  0  0  0  0  0
   34.6829   29.1437   51.3572 H   0  0  0  0  0  0  0  0  0  0  0  0
   37.0642   28.8803   51.9392 H   0  0  0  0  0  0  0  0  0  0  0  0
   39.9354   31.3875   45.9366 H   0  0  0  0  0  0  0  0  0  0  0  0
   40.3897   30.1204   44.3910 H   0  0  0  0  0  0  0  0  0  0  0  0
   41.6429   29.5094   42.3679 H   0  0  0  0  0  0  0  0  0  0  0  0
   41.0981   30.5124   40.2368 H   0  0  0  0  0  0  0  0  0  0  0  0
   39.2291   31.5984   38.4234 C   0  0  0  0  0  0  0  0  0  0  0  0
   38.9065   32.2751   37.2657 C   0  0  0  0  0  0  0  0  0  0  0  0
   38.9432   31.5905   36.0543 C   0  0  0  0  0  0  0  0  0  0  0  0
   38.6943   32.0952   35.1224 H   0  0  0  0  0  0  0  0  0  0  0  0
   39.2965   30.2826   36.0694 N   0  0  0  0  0  0  0  0  0  0  0  0
   39.6078   29.6358   37.2007 C   0  0  0  0  0  0  0  0  0  0  0  0
   39.5732   30.2976   38.3790 N   0  0  0  0  0  0  0  0  0  0  0  0
   38.6194   33.3164   37.2055 H   0  0  0  0  0  0  0  0  0  0  0  0
   39.8831   28.5940   37.1623 H   0  0  0  0  0  0  0  0  0  0  0  0
  1  8  1  0
  2  1  1  0
  3  2  1  0
  3  1  1  0
  4  5  2  0
  5  6  1  0
  7  6  2  0
  8  7  1  0
  9  8  2  0
  9  4  1  0
 10 12  1  0
 11 10  2  0
 12  3  1  0
 13 14  2  0
 13 10  1  0
 15 14  1  0
 16 15  2  0
 17 16  1  0
 17 18  2  0
 18 13  1  0
 19 17  1  0
 20 19  2  0
  1 21  1  6
  2 22  1  0
  2 23  1  0
  3 24  1  6
  4 25  1  0
  5 26  1  0
  6 27  1  0
 12 28  1  0
 14 29  1  0
 15 30  1  0
 16 31  1  0
 32 33  2  0
 33 34  1  0
 34 35  1  0
 34 36  2  0
 36 37  1  0
 37 38  2  0
 38 32  1  0
 33 39  1  0
 37 40  1  0
 19 32  1  0
M  ISO  8  21  13  22  13  23  13  24  13  25  14  26  14  27  14  29  14
M  ISO  3  30  14  31  14  35  14
M  END
>  <DihAtoms>  (1) 
16,18,31,32

>  <DihDeg>  (1) 
179.99963475857143

$$$$
