
     RDKit          3D

 30 32  0  0  0  0  0  0  0  0999 V2000
   36.7368   31.8098   50.2337 Cl  0  0  0  0  0  0  0  0  0  0  0  0
   37.3871   31.7335   48.6278 C   0  0  0  0  0  0  0  0  0  0  0  0
   36.7333   30.8573   47.8086 C   0  0  0  0  0  0  0  0  0  0  0  0
   37.1777   30.7302   46.4751 C   0  0  0  0  0  0  0  0  0  0  0  0
   38.2286   31.4560   46.0061 C   0  0  0  0  0  0  0  0  0  0  0  0
   38.8718   32.3358   46.8605 C   0  0  0  0  0  0  0  0  0  0  0  0
   40.2205   33.2800   46.2698 Cl  0  0  0  0  0  0  0  0  0  0  0  0
   38.4394   32.4578   48.1560 C   0  0  0  0  0  0  0  0  0  0  0  0
   35.7759   28.9890   49.1047 C   0  0  0  0  0  0  0  0  0  0  0  0
   35.5950   29.9758   48.0900 C   0  0  0  0  0  0  0  0  0  0  0  0
   34.3722   30.0233   47.4552 C   0  0  0  0  0  0  0  0  0  0  0  0
   33.4206   29.1305   47.8351 N   0  0  0  0  0  0  0  0  0  0  0  0
   33.6141   28.2115   48.7922 C   0  0  0  0  0  0  0  0  0  0  0  0
   34.7967   28.1428   49.4274 N   0  0  0  0  0  0  0  0  0  0  0  0
   39.1064   33.3579   49.0896 C   0  0  0  0  0  0  0  0  0  0  0  0
   39.3720   34.5878   48.9261 O   0  0  0  0  0  0  0  0  0  0  0  0
   36.7268   30.0653   45.7513 H   0  0  0  0  0  0  0  0  0  0  0  0
   38.5905   31.3748   44.9771 H   0  0  0  0  0  0  0  0  0  0  0  0
   36.7192   28.9159   49.6286 H   0  0  0  0  0  0  0  0  0  0  0  0
   34.2448   30.7736   46.6884 H   0  0  0  0  0  0  0  0  0  0  0  0
   32.7844   27.5481   49.0154 H   0  0  0  0  0  0  0  0  0  0  0  0
   39.5623   32.8535   50.4086 C   0  0  0  0  0  0  0  0  0  0  0  0
   39.7120   31.4975   50.6040 C   0  0  0  0  0  0  0  0  0  0  0  0
   40.1220   30.9045   51.8031 C   0  0  0  0  0  0  0  0  0  0  0  0
   40.2315   29.8484   51.9324 H   0  0  0  0  0  0  0  0  0  0  0  0
   40.3844   31.7388   52.8291 N   0  0  0  0  0  0  0  0  0  0  0  0
   40.2368   33.0620   52.6331 C   0  0  0  0  0  0  0  0  0  0  0  0
   39.8416   33.5904   51.4680 N   0  0  0  0  0  0  0  0  0  0  0  0
   39.5211   30.7531   49.8280 H   0  0  0  0  0  0  0  0  0  0  0  0
   40.4307   33.8084   53.4188 H   0  0  0  0  0  0  0  0  0  0  0  0
  2  1  1  0
  3 10  1  0
  3  2  2  0
  4  3  1  0
  5  4  2  0
  5  6  1  0
  6  8  2  0
  7  6  1  0
  8  2  1  0
  8 15  1  0
  9 14  2  0
 10  9  1  0
 11 12  1  0
 11 10  2  0
 12 13  2  0
 13 14  1  0
 16 15  2  0
  4 17  1  0
  5 18  1  0
  9 19  1  0
 11 20  1  0
 13 21  1  0
 22 23  2  0
 23 24  1  0
 24 25  1  0
 24 26  2  0
 26 27  1  0
 27 28  2  0
 28 22  1  0
 23 29  1  0
 27 30  1  0
 15 22  1  0
M  ISO  6  17  14  18  14  19  14  20  14  21  14  25  14
M  END
>  <DihAtoms>  (1) 
7,14,21,22

>  <DihDeg>  (1) 
-176.35345699382026

$$$$
