
     RDKit          3D

 32 34  0  0  0  0  0  0  0  0999 V2000
   38.4040   30.3730   47.3420 F   0  0  0  0  0  0  0  0  0  0  0  0
   38.6960   31.6060   47.8140 C   0  0  0  0  0  0  0  0  0  0  0  0
   38.1370   32.0390   49.0010 C   0  0  0  0  0  0  0  0  0  0  0  0
   38.4730   33.2940   49.4210 C   0  0  0  0  0  0  0  0  0  0  0  0
   39.3230   34.1080   48.7190 C   0  0  0  0  0  0  0  0  0  0  0  0
   39.8730   33.6600   47.5340 C   0  0  0  0  0  0  0  0  0  0  0  0
   39.5490   32.3820   47.0760 C   0  0  0  0  0  0  0  0  0  0  0  0
   36.7380   29.5730   51.5070 C   0  0  0  0  0  0  0  0  0  0  0  0
   37.6170   30.4420   50.8570 C   0  0  0  0  0  0  0  0  0  0  0  0
   37.2380   31.1220   49.7030 C   0  0  0  0  0  0  0  0  0  0  0  0
   35.9750   30.8930   49.2490 N   0  0  0  0  0  0  0  0  0  0  0  0
   35.1430   30.0510   49.8910 C   0  0  0  0  0  0  0  0  0  0  0  0
   35.4980   29.4040   50.9850 N   0  0  0  0  0  0  0  0  0  0  0  0
   39.2500   32.0890   44.7190 C   0  0  0  0  0  0  0  0  0  0  0  0
   38.1600   32.6890   44.9570 O   0  0  0  0  0  0  0  0  0  0  0  0
   40.0990   31.8770   45.8500 N   0  0  0  0  0  0  0  0  0  0  0  0
   39.6430   31.6320   43.3900 C   0  0  0  0  0  0  0  0  0  0  0  0
   40.4750   30.5360   43.3030 C   0  0  0  0  0  0  0  0  0  0  0  0
   40.8320   30.1230   42.0440 C   0  0  0  0  0  0  0  0  0  0  0  0
   40.3740   30.7790   40.9700 N   0  0  0  0  0  0  0  0  0  0  0  0
   39.5570   31.8560   41.0390 C   0  0  0  0  0  0  0  0  0  0  0  0
   39.2260   32.2350   42.2860 N   0  0  0  0  0  0  0  0  0  0  0  0
   38.0434   33.6673   50.3623 H   0  0  0  0  0  0  0  0  0  0  0  0
   39.5658   35.1121   49.0970 H   0  0  0  0  0  0  0  0  0  0  0  0
   40.5570   34.3016   46.9591 H   0  0  0  0  0  0  0  0  0  0  0  0
   37.0437   29.0393   52.4190 H   0  0  0  0  0  0  0  0  0  0  0  0
   38.6277   30.5919   51.2645 H   0  0  0  0  0  0  0  0  0  0  0  0
   34.1308   29.8969   49.4889 H   0  0  0  0  0  0  0  0  0  0  0  0
   41.0143   31.4084   45.7908 H   0  0  0  0  0  0  0  0  0  0  0  0
   40.8364   30.0160   44.2024 H   0  0  0  0  0  0  0  0  0  0  0  0
   41.4939   29.2537   41.9170 H   0  0  0  0  0  0  0  0  0  0  0  0
   39.1919   32.3808   40.1439 H   0  0  0  0  0  0  0  0  0  0  0  0
  1  2  1  0
  2  3  2  0
  3  4  1  0
  3 10  1  0
  5  4  2  0
  6  5  1  0
  7  6  2  0
  7  2  1  0
  9  8  2  0
 10  9  1  0
 11 10  2  0
 11 12  1  0
 12 13  2  0
 13  8  1  0
 14 15  2  0
 14 16  1  0
 16  7  1  0
 17 14  1  0
 18 17  2  0
 19 18  1  0
 20 21  1  0
 20 19  2  0
 21 22  2  0
 22 17  1  0
  4 23  1  0
  5 24  1  0
  6 25  1  0
  8 26  1  0
  9 27  1  0
 12 28  1  0
 16 29  1  0
 18 30  1  0
 19 31  1  0
 21 32  1  0
M  ISO  8  23  14  24  14  25  14  26  14  27  14  28  14  30  14  31  14
M  ISO  1  32  14
M  END
>  <minimizedAffinity>  (1) 
-6.67537785

>  <minimizedRMSD>  (1) 
0.191366225

$$$$
