
     RDKit          3D

 32 34  0  0  1  0  0  0  0  0999 V2000
   37.2170   30.7930   48.7400 N   0  0  0  0  0  0  0  0  0  0  0  0
   37.6330   31.7960   47.8250 C   0  0  1  0  0  0  0  0  0  0  0  0
   38.3640   32.8180   48.6570 C   0  0  0  0  0  0  0  0  0  0  0  0
   38.3090   32.2280   50.0940 C   0  0  0  0  0  0  0  0  0  0  0  0
   38.2090   30.7700   49.7800 C   0  0  0  0  0  0  0  0  0  0  0  0
   36.0460   29.9920   48.6320 C   0  0  0  0  0  0  0  0  0  0  0  0
   35.1030   30.3130   47.6440 C   0  0  0  0  0  0  0  0  0  0  0  0
   33.9520   29.5330   47.5270 C   0  0  0  0  0  0  0  0  0  0  0  0
   33.8260   28.4830   48.4120 N   0  0  0  0  0  0  0  0  0  0  0  0
   34.7580   28.2050   49.3530 C   0  0  0  0  0  0  0  0  0  0  0  0
   35.8820   28.9610   49.4710 N   0  0  0  0  0  0  0  0  0  0  0  0
   38.2710   31.3820   46.6010 C   0  0  0  0  0  0  0  0  0  0  0  0
   38.6360   30.2330   46.4620 O   0  0  0  0  0  0  0  0  0  0  0  0
   38.6330   32.1090   45.3610 C   0  0  0  0  0  0  0  0  0  0  0  0
   37.9500   32.0490   44.1890 C   0  0  0  0  0  0  0  0  0  0  0  0
   38.2820   32.7040   43.0410 C   0  0  0  0  0  0  0  0  0  0  0  0
   39.3810   33.4780   43.0700 N   0  0  0  0  0  0  0  0  0  0  0  0
   40.0740   33.5560   44.2180 C   0  0  0  0  0  0  0  0  0  0  0  0
   39.7040   32.8950   45.3050 N   0  0  0  0  0  0  0  0  0  0  0  0
   36.7483   32.2357   47.3413 H   0  0  0  0  0  0  0  0  0  0  0  0
   39.4045   32.9289   48.3177 H   0  0  0  0  0  0  0  0  0  0  0  0
   37.9180   33.8213   48.5900 H   0  0  0  0  0  0  0  0  0  0  0  0
   39.2205   32.4600   50.6644 H   0  0  0  0  0  0  0  0  0  0  0  0
   37.4959   32.6207   50.7223 H   0  0  0  0  0  0  0  0  0  0  0  0
   37.8708   30.1894   50.6509 H   0  0  0  0  0  0  0  0  0  0  0  0
   39.1601   30.2963   49.4956 H   0  0  0  0  0  0  0  0  0  0  0  0
   35.2687   31.1674   46.9712 H   0  0  0  0  0  0  0  0  0  0  0  0
   33.1846   29.7448   46.7679 H   0  0  0  0  0  0  0  0  0  0  0  0
   34.6039   27.3542   50.0330 H   0  0  0  0  0  0  0  0  0  0  0  0
   37.0503   31.4166   44.1640 H   0  0  0  0  0  0  0  0  0  0  0  0
   37.6760   32.6036   42.1285 H   0  0  0  0  0  0  0  0  0  0  0  0
   40.9744   34.1867   44.2568 H   0  0  0  0  0  0  0  0  0  0  0  0
  1  5  1  0
  2  3  1  0
  2  1  1  0
  3  4  1  0
  5  4  1  0
  6  1  1  0
  6 11  1  0
  7  6  2  0
  8  7  1  0
  8  9  2  0
  9 10  1  0
 10 11  2  0
 12  2  1  0
 13 12  2  0
 14 12  1  0
 15 14  2  0
 16 17  2  0
 16 15  1  0
 17 18  1  0
 18 19  2  0
 19 14  1  0
  2 20  1  6
  3 21  1  0
  3 22  1  0
  4 23  1  0
  4 24  1  0
  5 25  1  0
  5 26  1  0
  7 27  1  0
  8 28  1  0
 10 29  1  0
 15 30  1  0
 16 31  1  0
 18 32  1  0
M  ISO  8  20  13  21  13  22  13  23  13  24  13  25  13  26  13  27  14
M  ISO  5  28  14  29  14  30  14  31  14  32  14
M  END
>  <minimizedAffinity>  (1) 
-5.18127251

>  <minimizedRMSD>  (1) 
2.80751896

$$$$
