
     RDKit          3D

 28 30  0  0  0  0  0  0  0  0999 V2000
   37.5613   31.6666   48.9336 C   0  0  0  0  0  0  0  0  0  0  0  0
   38.1865   32.7315   49.5066 C   0  0  0  0  0  0  0  0  0  0  0  0
   39.0630   33.5575   48.8365 C   0  0  0  0  0  0  0  0  0  0  0  0
   39.3607   33.3479   47.5269 C   0  0  0  0  0  0  0  0  0  0  0  0
   38.7083   32.2497   46.9570 C   0  0  0  0  0  0  0  0  0  0  0  0
   37.8487   31.4433   47.6220 N   0  0  0  0  0  0  0  0  0  0  0  0
   36.9392   30.1674   50.8650 C   0  0  0  0  0  0  0  0  0  0  0  0
   36.6413   30.7996   49.6448 C   0  0  0  0  0  0  0  0  0  0  0  0
   35.3922   30.5643   49.1124 C   0  0  0  0  0  0  0  0  0  0  0  0
   34.5264   29.7450   49.7856 N   0  0  0  0  0  0  0  0  0  0  0  0
   34.8601   29.1686   50.9432 C   0  0  0  0  0  0  0  0  0  0  0  0
   36.0810   29.3737   51.5031 N   0  0  0  0  0  0  0  0  0  0  0  0
   40.1984   34.0398   46.6744 O   0  0  0  0  0  0  0  0  0  0  0  0
   37.9855   32.9446   50.5494 H   0  0  0  0  0  0  0  0  0  0  0  0
   39.5500   34.3977   49.3063 H   0  0  0  0  0  0  0  0  0  0  0  0
   38.8485   31.9632   45.9245 H   0  0  0  0  0  0  0  0  0  0  0  0
   37.9274   30.3639   51.2698 H   0  0  0  0  0  0  0  0  0  0  0  0
   35.0934   31.0177   48.1755 H   0  0  0  0  0  0  0  0  0  0  0  0
   34.1291   28.5330   51.4224 H   0  0  0  0  0  0  0  0  0  0  0  0
   40.8921   35.1375   47.1286 C   0  0  0  0  0  0  0  0  0  0  0  0
   40.1034   35.7161   48.1346 C   0  0  0  0  0  0  0  0  0  0  0  0
   40.5037   36.8675   48.8285 C   0  0  0  0  0  0  0  0  0  0  0  0
   39.9784   37.3781   49.6030 H   0  0  0  0  0  0  0  0  0  0  0  0
   41.6988   37.4154   48.4913 N   0  0  0  0  0  0  0  0  0  0  0  0
   42.4633   36.8686   47.5277 C   0  0  0  0  0  0  0  0  0  0  0  0
   42.0381   35.7748   46.8984 N   0  0  0  0  0  0  0  0  0  0  0  0
   39.1266   35.4153   48.5328 H   0  0  0  0  0  0  0  0  0  0  0  0
   43.4156   37.2095   47.1793 H   0  0  0  0  0  0  0  0  0  0  0  0
  1  2  2  0
  1  8  1  0
  3  2  1  0
  4  3  2  0
  5  4  1  0
  5  6  2  0
  6  1  1  0
  7 12  2  0
  8  7  1  0
  9  8  2  0
  9 10  1  0
 10 11  2  0
 11 12  1  0
 13  4  1  0
  2 14  1  0
  3 15  1  0
  5 16  1  0
  7 17  1  0
  9 18  1  0
 11 19  1  0
 20 21  2  0
 21 22  1  0
 22 23  1  0
 22 24  2  0
 24 25  1  0
 25 26  2  0
 26 20  1  0
 21 27  1  0
 25 28  1  0
 13 20  1  0
M  ISO  7  14  14  15  14  16  14  17  14  18  14  19  14  23  14
M  END
>  <DihAtoms>  (1) 
3,12,19,20

>  <DihDeg>  (1) 
-179.9994404207913

$$$$
