
     RDKit          3D

 18 18  0  0  0  0  0  0  0  0999 V2000
   37.3770   30.2290   51.3750 C   0  0  0  0  0  0  0  0  0  0  0  0
   38.0110   30.7050   50.2170 C   0  0  0  0  0  0  0  0  0  0  0  0
   37.5290   30.3580   48.9660 C   0  0  0  0  0  0  0  0  0  0  0  0
   36.4470   29.5580   48.9060 N   0  0  0  0  0  0  0  0  0  0  0  0
   35.8420   29.1030   50.0210 C   0  0  0  0  0  0  0  0  0  0  0  0
   36.2890   29.4240   51.2480 N   0  0  0  0  0  0  0  0  0  0  0  0
   38.2070   30.8670   47.8190 C   0  0  0  0  0  0  0  0  0  0  0  0
   38.7820   32.0370   47.7730 C   0  0  0  0  0  0  0  0  0  0  0  0
   39.4920   32.5720   46.5740 C   0  0  0  0  0  0  0  0  0  0  0  0
   38.6130   32.8990   45.5520 O   0  0  0  0  0  0  0  0  0  0  0  0
   37.7550   30.5033   52.3709 H   0  0  0  0  0  0  0  0  0  0  0  0
   38.8936   31.3558   50.3033 H   0  0  0  0  0  0  0  0  0  0  0  0
   34.9601   28.4525   49.9250 H   0  0  0  0  0  0  0  0  0  0  0  0
   38.2474   30.2352   46.9195 H   0  0  0  0  0  0  0  0  0  0  0  0
   38.7411   32.6681   48.6731 H   0  0  0  0  0  0  0  0  0  0  0  0
   40.0497   33.4744   46.8649 H   0  0  0  0  0  0  0  0  0  0  0  0
   40.1686   31.7884   46.2022 H   0  0  0  0  0  0  0  0  0  0  0  0
   37.7593   33.2166   45.9399 H   0  0  0  0  0  0  0  0  0  0  0  0
  2  1  2  0
  3  2  1  0
  4  3  2  0
  4  5  1  0
  5  6  2  0
  6  1  1  0
  7  3  1  0
  8  7  2  0
  9  8  1  0
 10  9  1  0
  1 11  1  0
  2 12  1  0
  5 13  1  0
  7 14  1  0
  8 15  1  0
  9 16  1  0
  9 17  1  0
 10 18  1  0
M  ISO  6  11  14  12  14  13  14  16   8  17   8  18   3
M  END
>  <minimizedAffinity>  (1) 
-4.21132755

>  <minimizedRMSD>  (1) 
0.317519188

$$$$
