
     RDKit          3D

 21 22  0  0  0  0  0  0  0  0999 V2000
   37.4280   31.3640   49.2440 C   0  0  0  0  0  0  0  0  0  0  0  0
   37.8180   32.6590   49.6170 C   0  0  0  0  0  0  0  0  0  0  0  0
   38.6720   33.3060   48.7430 C   0  0  0  0  0  0  0  0  0  0  0  0
   39.0820   32.6720   47.5930 N   0  0  0  0  0  0  0  0  0  0  0  0
   38.6730   31.4130   47.2750 C   0  0  0  0  0  0  0  0  0  0  0  0
   37.8250   30.7460   48.1280 N   0  0  0  0  0  0  0  0  0  0  0  0
   36.4680   30.6470   50.1410 C   0  0  0  0  0  0  0  0  0  0  0  0
   36.3650   29.2080   50.1880 C   0  0  0  0  0  0  0  0  0  0  0  0
   37.1530   29.8920   51.2840 C   0  0  0  0  0  0  0  0  0  0  0  0
   39.0820   30.7340   46.0510 C   0  0  0  0  0  0  0  0  0  0  0  0
   38.1320   31.0080   45.0540 O   0  0  0  0  0  0  0  0  0  0  0  0
   37.4664   33.1302   50.5467 H   0  0  0  0  0  0  0  0  0  0  0  0
   39.0225   34.3244   48.9665 H   0  0  0  0  0  0  0  0  0  0  0  0
   35.6938   31.4163   50.0043 H   0  0  0  0  0  0  0  0  0  0  0  0
   35.3982   28.7399   50.4250 H   0  0  0  0  0  0  0  0  0  0  0  0
   36.5908   28.4024   49.4739 H   0  0  0  0  0  0  0  0  0  0  0  0
   38.2491   29.8076   51.3207 H   0  0  0  0  0  0  0  0  0  0  0  0
   37.1312   29.9193   52.3834 H   0  0  0  0  0  0  0  0  0  0  0  0
   40.0694   31.1013   45.7345 H   0  0  0  0  0  0  0  0  0  0  0  0
   39.1468   29.6496   46.2237 H   0  0  0  0  0  0  0  0  0  0  0  0
   37.2719   31.2561   45.4769 H   0  0  0  0  0  0  0  0  0  0  0  0
  1  2  2  0
  1  7  1  0
  3  2  1  0
  4  3  2  0
  5  4  1  0
  5  6  2  0
  6  1  1  0
  7  8  1  0
  7  9  1  0
  8  9  1  0
 10  5  1  0
 11 10  1  0
  2 12  1  0
  3 13  1  0
  7 14  1  0
  8 15  1  0
  8 16  1  0
  9 17  1  0
  9 18  1  0
 10 19  1  0
 10 20  1  0
 11 21  1  0
M  ISO  8  12  14  13  14  14  13  15  13  16  13  17  13  18  13  19   8
M  ISO  2  20   8  21   3
M  END
>  <minimizedAffinity>  (1) 
-4.29543209

>  <minimizedRMSD>  (1) 
0.121119551

$$$$
