
     RDKit          3D

 21 22  0  0  0  0  0  0  0  0999 V2000
   38.0151   33.1032   49.4796 C   0  0  0  0  0  0  0  0  0  0  0  0
   38.9738   33.2049   48.4746 C   0  0  0  0  0  0  0  0  0  0  0  0
   38.9490   32.2233   47.4691 C   0  0  0  0  0  0  0  0  0  0  0  0
   38.0101   31.2336   47.5155 N   0  0  0  0  0  0  0  0  0  0  0  0
   37.0983   31.1821   48.5189 C   0  0  0  0  0  0  0  0  0  0  0  0
   37.1091   32.1266   49.5016 N   0  0  0  0  0  0  0  0  0  0  0  0
   36.0858   30.1351   48.5903 C   0  0  0  0  0  0  0  0  0  0  0  0
   35.2820   29.9560   47.5042 C   0  0  0  0  0  0  0  0  0  0  0  0
   34.2983   28.9773   47.5061 C   0  0  0  0  0  0  0  0  0  0  0  0
   34.1534   28.1941   48.6263 C   0  0  0  0  0  0  0  0  0  0  0  0
   34.9588   28.3560   49.7453 C   0  0  0  0  0  0  0  0  0  0  0  0
   35.9513   29.3439   49.7426 C   0  0  0  0  0  0  0  0  0  0  0  0
   37.9959   33.8353   50.2732 H   0  0  0  0  0  0  0  0  0  0  0  0
   39.7031   33.9912   48.4570 H   0  0  0  0  0  0  0  0  0  0  0  0
   39.6655   32.2368   46.6521 H   0  0  0  0  0  0  0  0  0  0  0  0
   35.3910   30.5716   46.6151 H   0  0  0  0  0  0  0  0  0  0  0  0
   33.6387   28.7902   46.6852 H   0  0  0  0  0  0  0  0  0  0  0  0
   33.3996   27.4258   48.6597 H   0  0  0  0  0  0  0  0  0  0  0  0
   34.8535   27.7464   50.6301 H   0  0  0  0  0  0  0  0  0  0  0  0
   36.7683   29.5340   50.8324 O   0  0  0  0  0  0  0  0  0  0  0  0
   36.6104   30.2839   51.5155 H   0  0  0  0  0  0  0  0  0  0  0  0
  1  6  2  0
  2  1  1  0
  3  4  1  0
  3  2  2  0
  4  5  2  0
  5  7  1  0
  5  6  1  0
  7 12  1  0
  8  7  2  0
  9  8  1  0
  9 10  2  0
 10 11  1  0
 12 11  2  0
  1 13  1  0
  2 14  1  0
  3 15  1  0
  8 16  1  0
  9 17  1  0
 10 18  1  0
 11 19  1  0
 20 21  1  0
 12 20  1  0
M  ISO  8  13  14  14  14  15  14  16  14  17  14  18  14  19  14  21   3
M  END
>  <DihAtoms>  (1) 
6,11,19,20

>  <DihDeg>  (1) 
-130.16558049949066

$$$$
