
     RDKit          3D

 31 32  0  0  0  0  0  0  0  0999 V2000
   36.0804   30.6861   49.0662 C   0  0  2  0  0  0  0  0  0  0  0  0
   37.0168   31.6434   49.7404 C   0  0  0  0  0  0  0  0  0  0  0  0
   38.0429   30.9493   50.6085 C   0  0  0  0  0  0  0  0  0  0  0  0
   37.3600   30.0641   51.6475 C   0  0  0  0  0  0  0  0  0  0  0  0
   36.1091   29.3872   51.1476 C   0  0  0  0  0  0  0  0  0  0  0  0
   36.1955   29.3027   49.6113 C   0  0  1  0  0  0  0  0  0  0  0  0
   36.3218   30.6477   47.6000 C   0  0  0  0  0  0  0  0  0  0  0  0
   37.5826   31.1091   47.1791 C   0  0  0  0  0  0  0  0  0  0  0  0
   37.8305   31.0763   45.8016 C   0  0  0  0  0  0  0  0  0  0  0  0
   36.8488   30.6043   44.9584 N   0  0  0  0  0  0  0  0  0  0  0  0
   35.6358   30.1655   45.4248 C   0  0  0  0  0  0  0  0  0  0  0  0
   35.3951   30.1966   46.7466 N   0  0  0  0  0  0  0  0  0  0  0  0
   33.9356   28.1995   49.2355 C   0  0  0  0  0  0  0  0  0  0  0  0
   33.1200   28.8577   49.9454 O   0  0  0  0  0  0  0  0  0  0  0  0
   35.3331   28.3475   49.0151 N   0  0  0  0  0  0  0  0  0  0  0  0
   34.9959   30.9756   49.1676 H   0  0  0  0  0  0  0  0  0  0  0  0
   36.3619   32.1941   50.4977 H   0  0  0  0  0  0  0  0  0  0  0  0
   37.4498   32.4182   49.1397 H   0  0  0  0  0  0  0  0  0  0  0  0
   38.7905   30.3709   50.0589 H   0  0  0  0  0  0  0  0  0  0  0  0
   38.5659   31.7431   51.1754 H   0  0  0  0  0  0  0  0  0  0  0  0
   37.1729   30.6054   52.5893 H   0  0  0  0  0  0  0  0  0  0  0  0
   38.0859   29.2533   51.9014 H   0  0  0  0  0  0  0  0  0  0  0  0
   35.2308   29.9974   51.4397 H   0  0  0  0  0  0  0  0  0  0  0  0
   35.9973   28.3858   51.5689 H   0  0  0  0  0  0  0  0  0  0  0  0
   37.1819   28.9182   49.5080 H   0  0  0  0  0  0  0  0  0  0  0  0
   38.4246   31.4871   47.7257 H   0  0  0  0  0  0  0  0  0  0  0  0
   38.7450   31.3963   45.3337 H   0  0  0  0  0  0  0  0  0  0  0  0
   34.9158   29.8103   44.7171 H   0  0  0  0  0  0  0  0  0  0  0  0
   35.7159   27.6344   48.3118 H   0  0  0  0  0  0  0  0  0  0  0  0
   33.1946   27.1908   48.6260 O   0  0  0  0  0  0  0  0  0  0  0  0
   32.4356   26.6812   49.0130 H   0  0  0  0  0  0  0  0  0  0  0  0
  1  6  1  0
  1  2  1  0
  2  3  1  0
  3  4  1  0
  5  4  1  0
  6  5  1  0
  7  1  1  0
  8  7  2  0
  9  8  1  0
 10 11  1  0
 10  9  2  0
 11 12  2  0
 12  7  1  0
 13 14  2  0
 15 13  1  0
 15  6  1  0
  1 16  1  6
  2 17  1  0
  2 18  1  0
  3 19  1  0
  3 20  1  0
  4 21  1  0
  4 22  1  0
  5 23  1  0
  5 24  1  0
  6 25  1  1
  8 26  1  0
  9 27  1  0
 11 28  1  0
 15 29  1  0
 30 31  1  0
 13 30  1  0
M  ISO  8  16  13  17  13  18  13  19  13  20  13  21  13  22  13  23  13
M  ISO  6  24  13  25  13  26  14  27  14  28  14  31   3
M  END
>  <DihAtoms>  (1) 
13,12,29,30

>  <DihDeg>  (1) 
-21.30724607395484

$$$$
