
     RDKit          3D

 44 46  0  0  0  0  0  0  0  0999 V2000
   33.9137   28.3972   47.9478 C   0  0  0  0  0  0  0  0  0  0  0  0
   35.2058   30.6136   46.8845 F   0  0  0  0  0  0  0  0  0  0  0  0
   35.5842   30.0869   48.1024 C   0  0  0  0  0  0  0  0  0  0  0  0
   34.9602   28.9782   48.6984 C   0  0  0  0  0  0  0  0  0  0  0  0
   35.4722   28.6410   49.8711 C   0  0  0  0  0  0  0  0  0  0  0  0
   36.5072   29.2719   50.4917 C   0  0  0  0  0  0  0  0  0  0  0  0
   37.1320   30.3708   49.9071 C   0  0  0  0  0  0  0  0  0  0  0  0
   36.6137   30.7094   48.7227 C   0  0  0  0  0  0  0  0  0  0  0  0
   38.2463   31.0444   50.5724 C   0  0  0  0  0  0  0  0  0  0  0  0
   37.2685   31.8470   48.1057 O   0  0  0  0  0  0  0  0  0  0  0  0
   38.3705   31.5635   47.3772 C   0  0  0  0  0  0  0  0  0  0  0  0
   39.2339   32.5041   47.3738 O   0  0  0  0  0  0  0  0  0  0  0  0
   38.7946   30.4751   46.6174 N   0  0  0  0  0  0  0  0  0  0  0  0
   32.7455   27.8751   48.7263 C   0  0  0  0  0  0  0  0  0  0  0  0
   30.4234   27.2099   48.3814 C   0  0  0  0  0  0  0  0  0  0  0  0
   31.7346   27.2076   47.9556 C   0  0  0  0  0  0  0  0  0  0  0  0
   31.9593   26.5740   46.7990 C   0  0  0  0  0  0  0  0  0  0  0  0
   30.9700   25.9815   46.1018 N   0  0  0  0  0  0  0  0  0  0  0  0
   29.6859   25.9684   46.4906 C   0  0  0  0  0  0  0  0  0  0  0  0
   29.4008   26.5832   47.6348 N   0  0  0  0  0  0  0  0  0  0  0  0
   29.9870   27.7900   49.6863 C   0  0  1  0  0  0  0  0  0  0  0  0
   28.9132   28.7585   49.6949 C   0  0  0  0  0  0  0  0  0  0  0  0
   28.6394   27.2864   50.1219 C   0  0  2  0  0  0  0  0  0  0  0  0
   28.3257   27.1750   51.5515 C   0  0  0  0  0  0  0  0  0  0  0  0
   27.2313   26.6992   51.8208 O   0  0  0  0  0  0  0  0  0  0  0  0
   33.4749   29.0319   47.1495 H   0  0  0  0  0  0  0  0  0  0  0  0
   34.3449   27.5065   47.3979 H   0  0  0  0  0  0  0  0  0  0  0  0
   35.0110   27.7668   50.3851 H   0  0  0  0  0  0  0  0  0  0  0  0
   36.8351   28.8863   51.4703 H   0  0  0  0  0  0  0  0  0  0  0  0
   38.0947   31.0818   51.6640 H   0  0  0  0  0  0  0  0  0  0  0  0
   39.2179   30.5390   50.3313 H   0  0  0  0  0  0  0  0  0  0  0  0
   38.3040   32.1111   50.2098 H   0  0  0  0  0  0  0  0  0  0  0  0
   39.7895   30.1730   46.4808 H   0  0  0  0  0  0  0  0  0  0  0  0
   39.1180   29.6585   46.0478 H   0  0  0  0  0  0  0  0  0  0  0  0
   33.1333   27.2417   49.5496 H   0  0  0  0  0  0  0  0  0  0  0  0
   32.2761   28.7718   49.2297 H   0  0  0  0  0  0  0  0  0  0  0  0
   32.9381   26.4930   46.3465 H   0  0  0  0  0  0  0  0  0  0  0  0
   28.8601   25.5199   45.9876 H   0  0  0  0  0  0  0  0  0  0  0  0
   30.7965   28.0291   50.3953 H   0  0  0  0  0  0  0  0  0  0  0  0
   28.8582   29.5352   50.4763 H   0  0  0  0  0  0  0  0  0  0  0  0
   28.5141   29.0983   48.7248 H   0  0  0  0  0  0  0  0  0  0  0  0
   27.9340   26.8191   49.3763 H   0  0  0  0  0  0  0  0  0  0  0  0
   29.2419   27.5950   52.5068 O   0  0  0  0  0  0  0  0  0  0  0  0
   29.5676   26.9522   53.2476 H   0  0  0  0  0  0  0  0  0  0  0  0
  1  4  1  0
  1 14  1  0
  2  3  1  0
  3  4  2  0
  3  8  1  0
  4  5  1  0
  5  6  2  0
  7  6  1  0
  7  9  1  0
  8  7  2  0
 10  8  1  0
 11 10  1  0
 12 11  2  0
 13 11  1  0
 15 21  1  0
 16 15  1  0
 16 14  1  0
 17 16  2  0
 18 19  2  0
 18 17  1  0
 19 20  1  0
 20 15  2  0
 21 22  1  0
 21 23  1  0
 22 23  1  0
 23 24  1  0
 24 25  2  0
  1 26  1  0
  1 27  1  0
  5 28  1  0
  6 29  1  0
  9 30  1  0
  9 31  1  0
  9 32  1  0
 13 33  1  0
 13 34  1  0
 14 35  1  0
 14 36  1  0
 17 37  1  0
 19 38  1  0
 21 39  1  1
 22 40  1  0
 22 41  1  0
 23 42  1  6
 43 44  1  0
 24 43  1  0
M  ISO  8  26   8  27   8  28  14  29  14  30   8  31   8  32   8  35   8
M  ISO  8  36   8  37  14  38  14  39  13  40  13  41  13  42  13  44   3
M  END
>  <DihAtoms>  (1) 
22,23,42,43

>  <DihDeg>  (1) 
175.59190258381923

$$$$
