
     RDKit          3D

 34 36  0  0  0  0  0  0  0  0999 V2000
   37.1201   30.2688   50.3361 C   0  0  0  0  0  0  0  0  0  0  0  0
   37.5099   30.1323   51.4991 O   0  0  0  0  0  0  0  0  0  0  0  0
   37.7991   31.0891   49.3348 C   0  0  0  0  0  0  0  0  0  0  0  0
   38.1217   32.3892   49.7140 C   0  0  0  0  0  0  0  0  0  0  0  0
   38.7695   33.1885   48.7741 C   0  0  0  0  0  0  0  0  0  0  0  0
   39.0533   32.6728   47.5494 N   0  0  0  0  0  0  0  0  0  0  0  0
   38.7230   31.4023   47.2181 C   0  0  0  0  0  0  0  0  0  0  0  0
   38.1042   30.6280   48.1058 N   0  0  0  0  0  0  0  0  0  0  0  0
   35.9152   29.5823   49.9127 C   0  0  0  0  0  0  0  0  0  0  0  0
   34.6850   29.8878   50.3848 C   0  0  0  0  0  0  0  0  0  0  0  0
   33.7560   29.0415   49.7735 C   0  0  0  0  0  0  0  0  0  0  0  0
   34.5166   28.2361   48.9275 C   0  0  0  0  0  0  0  0  0  0  0  0
   35.7429   28.6163   49.0722 O   0  0  0  0  0  0  0  0  0  0  0  0
   33.9892   27.1718   48.0557 C   0  0  0  0  0  0  0  0  0  0  0  0
   32.7492   26.8852   48.1382 O   0  0  0  0  0  0  0  0  0  0  0  0
   37.9249   32.8545   50.6643 H   0  0  0  0  0  0  0  0  0  0  0  0
   39.0585   34.2086   48.9780 H   0  0  0  0  0  0  0  0  0  0  0  0
   38.9347   30.9607   46.2513 H   0  0  0  0  0  0  0  0  0  0  0  0
   34.3229   30.6171   51.0984 H   0  0  0  0  0  0  0  0  0  0  0  0
   32.6793   28.9847   49.8953 H   0  0  0  0  0  0  0  0  0  0  0  0
   34.9020   26.5285   47.1730 N   0  0  0  0  0  0  0  0  0  0  0  0
   35.1606   25.0988   47.2336 C   0  0  2  0  0  0  0  0  0  0  0  0
   34.3390   24.5003   46.8095 H   0  0  0  0  0  0  0  0  0  0  0  0
   36.4119   24.8215   46.3911 C   0  0  2  0  0  0  0  0  0  0  0  0
   36.5893   23.7456   46.3346 H   0  0  0  0  0  0  0  0  0  0  0  0
   36.1192   25.3053   45.1240 O   0  0  0  0  0  0  0  0  0  0  0  0
   36.3262   26.6650   45.1560 C   0  0  0  0  0  0  0  0  0  0  0  0
   35.5603   27.4045   46.2027 C   0  0  0  0  0  0  0  0  0  0  0  0
   35.4641   24.7604   48.2575 H   0  0  0  0  0  0  0  0  0  0  0  0
   37.2212   25.3939   46.8646 H   0  0  0  0  0  0  0  0  0  0  0  0
   37.4312   26.8550   45.2895 H   0  0  0  0  0  0  0  0  0  0  0  0
   36.1079   27.0631   44.1223 H   0  0  0  0  0  0  0  0  0  0  0  0
   34.7852   28.0272   45.6781 H   0  0  0  0  0  0  0  0  0  0  0  0
   36.2094   28.1091   46.7769 H   0  0  0  0  0  0  0  0  0  0  0  0
  1  2  2  0
  3  4  2  0
  3  1  1  0
  5  4  1  0
  6  5  2  0
  7  6  1  0
  7  8  2  0
  8  3  1  0
  9  1  1  0
  9 10  2  0
 11 10  1  0
 12 13  1  0
 12 11  2  0
 13  9  1  0
 14 15  2  0
 14 12  1  0
  4 16  1  0
  5 17  1  0
  7 18  1  0
 10 19  1  0
 11 20  1  0
 21 22  1  0
 22 23  1  6
 22 24  1  0
 24 25  1  6
 24 26  1  0
 26 27  1  0
 27 28  1  0
 28 21  1  0
 22 29  1  0
 24 30  1  0
 27 31  1  0
 27 32  1  0
 28 33  1  0
 28 34  1  0
 14 21  1  0
M  ISO  7  16  14  17  14  18  14  19  14  20  14  23   8  25  15
M  END
>  <DihAtoms>  (1) 
14,13,20,21

>  <DihDeg>  (1) 
179.9994058437476

$$$$
