
     RDKit          3D

 35 37  0  0  0  0  0  0  0  0999 V2000
   36.7501   31.7949   50.2349 Cl  0  0  0  0  0  0  0  0  0  0  0  0
   37.3948   31.7342   48.6264 C   0  0  0  0  0  0  0  0  0  0  0  0
   36.7372   30.8557   47.8137 C   0  0  0  0  0  0  0  0  0  0  0  0
   37.1748   30.7247   46.4771 C   0  0  0  0  0  0  0  0  0  0  0  0
   38.2346   31.4601   46.0025 C   0  0  0  0  0  0  0  0  0  0  0  0
   38.8703   32.3332   46.8514 C   0  0  0  0  0  0  0  0  0  0  0  0
   40.2189   33.2803   46.2730 Cl  0  0  0  0  0  0  0  0  0  0  0  0
   38.4439   32.4578   48.1458 C   0  0  0  0  0  0  0  0  0  0  0  0
   35.7737   28.9900   49.1121 C   0  0  0  0  0  0  0  0  0  0  0  0
   35.5952   29.9726   48.0947 C   0  0  0  0  0  0  0  0  0  0  0  0
   34.3747   30.0213   47.4539 C   0  0  0  0  0  0  0  0  0  0  0  0
   33.4128   29.1335   47.8257 N   0  0  0  0  0  0  0  0  0  0  0  0
   33.6104   28.2189   48.7879 C   0  0  0  0  0  0  0  0  0  0  0  0
   34.7963   28.1444   49.4363 N   0  0  0  0  0  0  0  0  0  0  0  0
   39.0941   33.3706   49.0841 C   0  0  0  0  0  0  0  0  0  0  0  0
   39.3663   34.5869   48.9383 O   0  0  0  0  0  0  0  0  0  0  0  0
   36.7302   30.0649   45.7549 H   0  0  0  0  0  0  0  0  0  0  0  0
   38.6016   31.3905   44.9874 H   0  0  0  0  0  0  0  0  0  0  0  0
   36.7381   28.9314   49.6376 H   0  0  0  0  0  0  0  0  0  0  0  0
   34.2550   30.7715   46.6852 H   0  0  0  0  0  0  0  0  0  0  0  0
   32.7720   27.5547   49.0082 H   0  0  0  0  0  0  0  0  0  0  0  0
   39.5948   33.1363   50.4113 N   0  0  0  0  0  0  0  0  0  0  0  0
   38.4351   33.0522   51.2791 C   0  0  1  0  0  0  0  0  0  0  0  0
   38.0091   34.0714   51.3646 H   0  0  0  0  0  0  0  0  0  0  0  0
   38.9230   32.6309   52.6468 C   0  0  1  0  0  0  0  0  0  0  0  0
   38.0823   32.4480   53.3267 H   0  0  0  0  0  0  0  0  0  0  0  0
   39.8115   33.5693   53.1476 O   0  0  0  0  0  0  0  0  0  0  0  0
   40.8255   33.8868   52.2864 C   0  0  0  0  0  0  0  0  0  0  0  0
   40.8951   32.9758   51.0564 C   0  0  0  0  0  0  0  0  0  0  0  0
   37.6453   32.3738   50.9103 H   0  0  0  0  0  0  0  0  0  0  0  0
   39.4690   31.6718   52.5434 H   0  0  0  0  0  0  0  0  0  0  0  0
   41.7963   33.7340   52.8227 H   0  0  0  0  0  0  0  0  0  0  0  0
   40.8170   34.9575   51.9757 H   0  0  0  0  0  0  0  0  0  0  0  0
   41.6662   33.4374   50.3899 H   0  0  0  0  0  0  0  0  0  0  0  0
   41.1117   31.9558   51.3717 H   0  0  0  0  0  0  0  0  0  0  0  0
  2  1  1  0
  3 10  1  0
  3  2  2  0
  4  3  1  0
  5  4  2  0
  5  6  1  0
  6  8  2  0
  7  6  1  0
  8  2  1  0
  8 15  1  0
  9 14  2  0
 10  9  1  0
 11 12  1  0
 11 10  2  0
 12 13  2  0
 13 14  1  0
 16 15  2  0
  4 17  1  0
  5 18  1  0
  9 19  1  0
 11 20  1  0
 13 21  1  0
 22 23  1  0
 23 24  1  1
 23 25  1  0
 25 26  1  1
 25 27  1  0
 27 28  1  0
 28 29  1  0
 29 22  1  0
 23 30  1  0
 25 31  1  0
 28 32  1  0
 28 33  1  0
 29 34  1  0
 29 35  1  0
 15 22  1  0
M  ISO  7  17  14  18  14  19  14  20  14  21  14  24   8  26  15
M  END
>  <DihAtoms>  (1) 
7,14,21,22

>  <DihDeg>  (1) 
-179.9045058489987

$$$$
