
     RDKit          3D

 37 39  0  0  0  0  0  0  0  0999 V2000
   36.5340   29.7968   49.1985 N   0  0  0  0  0  0  0  0  0  0  0  0
   37.2332   30.9918   48.7542 C   0  0  1  0  0  0  0  0  0  0  0  0
   38.0057   31.3550   50.0182 C   0  0  0  0  0  0  0  0  0  0  0  0
   37.5350   30.4070   51.1128 C   0  0  0  0  0  0  0  0  0  0  0  0
   37.2518   29.1709   50.2858 C   0  0  0  0  0  0  0  0  0  0  0  0
   35.3146   29.3229   48.6366 C   0  0  0  0  0  0  0  0  0  0  0  0
   34.7340   30.0635   47.5968 C   0  0  0  0  0  0  0  0  0  0  0  0
   33.5428   29.6417   47.0143 C   0  0  0  0  0  0  0  0  0  0  0  0
   32.9969   28.4734   47.5265 N   0  0  0  0  0  0  0  0  0  0  0  0
   33.5729   27.7925   48.5152 C   0  0  0  0  0  0  0  0  0  0  0  0
   34.7396   28.2164   49.0771 N   0  0  0  0  0  0  0  0  0  0  0  0
   38.1386   30.7412   47.6232 C   0  0  0  0  0  0  0  0  0  0  0  0
   39.0079   31.5538   47.3978 O   0  0  0  0  0  0  0  0  0  0  0  0
   36.5075   31.8065   48.5321 H   0  0  0  0  0  0  0  0  0  0  0  0
   37.7195   32.3698   50.3558 H   0  0  0  0  0  0  0  0  0  0  0  0
   39.0943   31.3079   49.8603 H   0  0  0  0  0  0  0  0  0  0  0  0
   38.3955   30.1839   51.7702 H   0  0  0  0  0  0  0  0  0  0  0  0
   36.6384   30.7757   51.6241 H   0  0  0  0  0  0  0  0  0  0  0  0
   38.1871   28.6981   49.9856 H   0  0  0  0  0  0  0  0  0  0  0  0
   36.5873   28.4717   50.8302 H   0  0  0  0  0  0  0  0  0  0  0  0
   35.1604   30.9777   47.1954 H   0  0  0  0  0  0  0  0  0  0  0  0
   33.0879   30.2061   46.2120 H   0  0  0  0  0  0  0  0  0  0  0  0
   33.0961   26.9065   48.8552 H   0  0  0  0  0  0  0  0  0  0  0  0
   38.4483   29.8411   46.5622 N   0  0  0  0  0  0  0  0  0  0  0  0
   38.0433   28.5459   47.0882 C   0  0  2  0  0  0  0  0  0  0  0  0
   36.9583   28.5427   47.1917 H   0  0  0  0  0  0  0  0  0  0  0  0
   38.4449   27.5388   46.0148 C   0  0  1  0  0  0  0  0  0  0  0  0
   38.1875   26.5390   46.4432 H   0  0  0  0  0  0  0  0  0  0  0  0
   39.8021   27.6468   45.7911 O   0  0  0  0  0  0  0  0  0  0  0  0
   40.1115   28.8338   45.1699 C   0  0  0  0  0  0  0  0  0  0  0  0
   39.0058   29.8651   45.2217 C   0  0  0  0  0  0  0  0  0  0  0  0
   38.5763   28.2669   48.0205 H   0  0  0  0  0  0  0  0  0  0  0  0
   37.8727   27.7519   45.1035 H   0  0  0  0  0  0  0  0  0  0  0  0
   40.9665   29.2828   45.7487 H   0  0  0  0  0  0  0  0  0  0  0  0
   40.4107   28.6922   44.0942 H   0  0  0  0  0  0  0  0  0  0  0  0
   38.2092   29.6526   44.4615 H   0  0  0  0  0  0  0  0  0  0  0  0
   39.3972   30.8890   45.0508 H   0  0  0  0  0  0  0  0  0  0  0  0
  1  5  1  0
  2  1  1  0
  2  3  1  0
  3  4  1  0
  5  4  1  0
  6 11  1  0
  6  1  1  0
  7  6  2  0
  8  9  2  0
  8  7  1  0
  9 10  1  0
 10 11  2  0
 12  2  1  0
 13 12  2  0
  2 14  1  6
  3 15  1  0
  3 16  1  0
  4 17  1  0
  4 18  1  0
  5 19  1  0
  5 20  1  0
  7 21  1  0
  8 22  1  0
 10 23  1  0
 24 25  1  0
 25 26  1  1
 25 27  1  0
 27 28  1  1
 27 29  1  0
 29 30  1  0
 30 31  1  0
 31 24  1  0
 25 32  1  0
 27 33  1  0
 30 34  1  0
 30 35  1  0
 31 36  1  0
 31 37  1  0
 12 24  1  0
M  ISO  8  14  13  15  13  16  13  17  13  18  13  19  13  20  13  21  14
M  ISO  4  22  14  23  14  26   8  28  15
M  END
>  <DihAtoms>  (1) 
1,11,23,24

>  <DihDeg>  (1) 
179.530732044984

$$$$
