
     RDKit          3D

 44 46  0  0  1  0  0  0  0  0999 V2000
   36.7330   29.7990   49.4140 C   0  0  0  0  0  0  0  0  0  0  0  0
   37.7160   30.5000   48.6860 C   0  0  0  0  0  0  0  0  0  0  0  0
   37.4330   30.8180   47.3520 C   0  0  0  0  0  0  0  0  0  0  0  0
   36.2550   30.4430   46.8460 N   0  0  0  0  0  0  0  0  0  0  0  0
   35.3360   29.7740   47.5680 C   0  0  0  0  0  0  0  0  0  0  0  0
   35.5790   29.4560   48.8420 N   0  0  0  0  0  0  0  0  0  0  0  0
   38.3780   31.5170   46.5740 N   0  0  0  0  0  0  0  0  0  0  0  0
   39.3680   32.4720   47.0880 C   0  0  0  0  0  0  0  0  0  0  0  0
   39.9970   33.1190   45.9060 C   0  0  0  0  0  0  0  0  0  0  0  0
   39.0280   32.8590   44.8280 C   0  0  0  0  0  0  0  0  0  0  0  0
   38.5830   31.4590   45.1600 C   0  0  2  0  0  0  0  0  0  0  0  0
   37.4470   30.9900   44.3090 C   0  0  0  0  0  0  0  0  0  0  0  0
   36.3040   31.5920   44.8190 F   0  0  0  0  0  0  0  0  0  0  0  0
   37.2270   29.6470   44.2960 F   0  0  0  0  0  0  0  0  0  0  0  0
   37.6500   31.5360   43.0480 F   0  0  0  0  0  0  0  0  0  0  0  0
   39.7270   30.5310   44.9520 C   0  0  0  0  0  0  0  0  0  0  0  0
   40.2260   30.8190   43.8500 O   0  0  0  0  0  0  0  0  0  0  0  0
   40.5230   30.1800   42.6910 C   0  0  0  0  0  0  0  0  0  0  0  0
   40.4790   31.0170   41.7570 O   0  0  0  0  0  0  0  0  0  0  0  0
   40.8700   29.0180   41.9780 N   0  0  0  0  0  0  0  0  0  0  0  0
   40.1480   27.8020   42.2890 C   0  0  0  0  0  0  0  0  0  0  0  0
   39.3910   27.4140   41.0150 C   0  0  0  0  0  0  0  0  0  0  0  0
   40.3360   27.1400   40.0420 O   0  0  0  0  0  0  0  0  0  0  0  0
   41.0480   28.2970   39.7210 C   0  0  0  0  0  0  0  0  0  0  0  0
   41.8510   28.7400   40.9280 C   0  0  0  0  0  0  0  0  0  0  0  0
   36.9203   29.5324   50.4647 H   0  0  0  0  0  0  0  0  0  0  0  0
   38.6714   30.7870   49.1495 H   0  0  0  0  0  0  0  0  0  0  0  0
   34.3797   29.4879   47.1057 H   0  0  0  0  0  0  0  0  0  0  0  0
   38.8738   33.2286   47.7152 H   0  0  0  0  0  0  0  0  0  0  0  0
   40.1220   31.9633   47.7066 H   0  0  0  0  0  0  0  0  0  0  0  0
   40.1259   34.1992   46.0691 H   0  0  0  0  0  0  0  0  0  0  0  0
   41.0030   32.7324   45.6857 H   0  0  0  0  0  0  0  0  0  0  0  0
   39.5054   32.9054   43.8381 H   0  0  0  0  0  0  0  0  0  0  0  0
   38.2083   33.5906   44.7740 H   0  0  0  0  0  0  0  0  0  0  0  0
   40.4715   30.6623   45.7510 H   0  0  0  0  0  0  0  0  0  0  0  0
   39.3945   29.4827   44.9735 H   0  0  0  0  0  0  0  0  0  0  0  0
   40.8501   27.0042   42.5729 H   0  0  0  0  0  0  0  0  0  0  0  0
   39.4593   27.9507   43.1338 H   0  0  0  0  0  0  0  0  0  0  0  0
   38.7730   26.5232   41.2009 H   0  0  0  0  0  0  0  0  0  0  0  0
   38.7262   28.2293   40.6935 H   0  0  0  0  0  0  0  0  0  0  0  0
   41.7289   28.0891   38.8824 H   0  0  0  0  0  0  0  0  0  0  0  0
   40.3469   29.0936   39.4313 H   0  0  0  0  0  0  0  0  0  0  0  0
   42.5370   27.9411   41.2462 H   0  0  0  0  0  0  0  0  0  0  0  0
   42.4659   29.6240   40.7035 H   0  0  0  0  0  0  0  0  0  0  0  0
  2  1  2  0
  3  2  1  0
  4  3  2  0
  4  5  1  0
  5  6  2  0
  6  1  1  0
  7  8  1  0
  7  3  1  0
  9  8  1  0
 10 11  1  0
 10  9  1  0
 11 12  1  6
 11  7  1  0
 12 13  1  0
 14 12  1  0
 15 12  1  0
 16 11  1  0
 17 16  1  0
 18 17  1  0
 19 18  2  0
 20 21  1  0
 20 18  1  0
 22 21  1  0
 23 22  1  0
 24 23  1  0
 24 25  1  0
 25 20  1  0
  1 26  1  0
  2 27  1  0
  5 28  1  0
  8 29  1  0
  8 30  1  0
  9 31  1  0
  9 32  1  0
 10 33  1  0
 10 34  1  0
 16 35  1  0
 16 36  1  0
 21 37  1  0
 21 38  1  0
 22 39  1  0
 22 40  1  0
 24 41  1  0
 24 42  1  0
 25 43  1  0
 25 44  1  0
M  ISO  8  26  14  27  14  28  14  29  13  30  13  31  13  32  13  33  13
M  ISO  8  34  13  35   8  36   8  37  13  38  13  39  13  40  13  41  13
M  ISO  3  42  13  43  13  44  13
M  END
>  <minimizedAffinity>  (1) 
-5.43407917

>  <minimizedRMSD>  (1) 
0.705922008

$$$$
