
     RDKit          3D

 35 37  0  0  0  0  0  0  0  0999 V2000
   36.7501   31.7949   50.2349 Cl  0  0  0  0  0  0  0  0  0  0  0  0
   37.3948   31.7342   48.6264 C   0  0  0  0  0  0  0  0  0  0  0  0
   36.7372   30.8557   47.8137 C   0  0  0  0  0  0  0  0  0  0  0  0
   37.1748   30.7247   46.4771 C   0  0  0  0  0  0  0  0  0  0  0  0
   38.2346   31.4601   46.0025 C   0  0  0  0  0  0  0  0  0  0  0  0
   38.8703   32.3332   46.8514 C   0  0  0  0  0  0  0  0  0  0  0  0
   40.2189   33.2803   46.2730 Cl  0  0  0  0  0  0  0  0  0  0  0  0
   38.4439   32.4578   48.1458 C   0  0  0  0  0  0  0  0  0  0  0  0
   35.7737   28.9900   49.1121 C   0  0  0  0  0  0  0  0  0  0  0  0
   35.5952   29.9726   48.0947 C   0  0  0  0  0  0  0  0  0  0  0  0
   34.3747   30.0213   47.4539 C   0  0  0  0  0  0  0  0  0  0  0  0
   33.4128   29.1335   47.8257 N   0  0  0  0  0  0  0  0  0  0  0  0
   33.6104   28.2189   48.7879 C   0  0  0  0  0  0  0  0  0  0  0  0
   34.7963   28.1444   49.4363 N   0  0  0  0  0  0  0  0  0  0  0  0
   39.0941   33.3706   49.0841 C   0  0  0  0  0  0  0  0  0  0  0  0
   39.3663   34.5869   48.9383 O   0  0  0  0  0  0  0  0  0  0  0  0
   36.7302   30.0649   45.7549 H   0  0  0  0  0  0  0  0  0  0  0  0
   38.6016   31.3905   44.9874 H   0  0  0  0  0  0  0  0  0  0  0  0
   36.7381   28.9314   49.6376 H   0  0  0  0  0  0  0  0  0  0  0  0
   34.2550   30.7715   46.6852 H   0  0  0  0  0  0  0  0  0  0  0  0
   32.7720   27.5547   49.0082 H   0  0  0  0  0  0  0  0  0  0  0  0
   39.5948   33.1363   50.4113 N   0  0  0  0  0  0  0  0  0  0  0  0
   39.8017   34.4421   51.0089 C   0  0  1  0  0  0  0  0  0  0  0  0
   40.6745   34.9035   50.5060 H   0  0  0  0  0  0  0  0  0  0  0  0
   40.1585   34.2234   52.4619 C   0  0  1  0  0  0  0  0  0  0  0  0
   40.2274   35.1768   52.9992 H   0  0  0  0  0  0  0  0  0  0  0  0
   41.3218   33.4768   52.5615 O   0  0  0  0  0  0  0  0  0  0  0  0
   41.3027   32.3212   51.8300 C   0  0  0  0  0  0  0  0  0  0  0  0
   39.9260   31.9856   51.2472 C   0  0  0  0  0  0  0  0  0  0  0  0
   38.9395   35.1251   50.9077 H   0  0  0  0  0  0  0  0  0  0  0  0
   39.3436   33.6424   52.9386 H   0  0  0  0  0  0  0  0  0  0  0  0
   41.5478   31.4720   52.5171 H   0  0  0  0  0  0  0  0  0  0  0  0
   42.0787   32.2965   51.0299 H   0  0  0  0  0  0  0  0  0  0  0  0
   40.0965   31.1104   50.5712 H   0  0  0  0  0  0  0  0  0  0  0  0
   39.2213   31.8085   52.0589 H   0  0  0  0  0  0  0  0  0  0  0  0
  2  1  1  0
  3 10  1  0
  3  2  2  0
  4  3  1  0
  5  4  2  0
  5  6  1  0
  6  8  2  0
  7  6  1  0
  8  2  1  0
  8 15  1  0
  9 14  2  0
 10  9  1  0
 11 12  1  0
 11 10  2  0
 12 13  2  0
 13 14  1  0
 16 15  2  0
  4 17  1  0
  5 18  1  0
  9 19  1  0
 11 20  1  0
 13 21  1  0
 22 23  1  0
 23 24  1  6
 23 25  1  0
 25 26  1  1
 25 27  1  0
 27 28  1  0
 28 29  1  0
 29 22  1  0
 23 30  1  0
 25 31  1  0
 28 32  1  0
 28 33  1  0
 29 34  1  0
 29 35  1  0
 15 22  1  0
M  ISO  7  17  14  18  14  19  14  20  14  21  14  24   8  26  15
M  END
>  <DihAtoms>  (1) 
7,14,21,22

>  <DihDeg>  (1) 
-179.9045058489987

$$$$
