
     RDKit          3D

 49 51  0  0  0  0  0  0  0  0999 V2000
   30.3684   26.2007   47.4462 O   0  0  0  0  0  0  0  0  0  0  0  0
   30.6119   27.7003   47.6699 P   0  0  2  0  0  0  0  0  0  0  0  0
   31.0794   28.4537   46.2259 O   0  0  0  0  0  0  0  0  0  0  0  0
   31.9221   27.7650   48.7480 O   0  0  0  0  0  0  0  0  0  0  0  0
   33.0762   27.3198   48.0790 C   0  0  0  0  0  0  0  0  0  0  0  0
   34.5525   28.4399   49.7101 C   0  0  0  0  0  0  0  0  0  0  0  0
   34.2769   28.0910   48.4809 C   0  0  0  0  0  0  0  0  0  0  0  0
   37.3196   30.1723   51.3585 C   0  0  0  0  0  0  0  0  0  0  0  0
   38.0796   30.6279   50.2600 C   0  0  0  0  0  0  0  0  0  0  0  0
   37.6187   30.3268   48.9662 C   0  0  0  0  0  0  0  0  0  0  0  0
   36.4531   29.6058   48.9102 N   0  0  0  0  0  0  0  0  0  0  0  0
   35.7695   29.1966   49.9597 C   0  0  0  0  0  0  0  0  0  0  0  0
   36.2128   29.4860   51.1789 N   0  0  0  0  0  0  0  0  0  0  0  0
   29.2364   28.4339   48.3147 O   0  0  0  0  0  0  0  0  0  0  0  0
   27.1935   28.4232   49.3682 C   0  0  0  0  0  0  0  0  0  0  0  0
   28.5464   28.0541   49.4396 C   0  0  0  0  0  0  0  0  0  0  0  0
   29.0628   27.3950   50.5264 C   0  0  0  0  0  0  0  0  0  0  0  0
   28.2354   27.0857   51.5766 C   0  0  0  0  0  0  0  0  0  0  0  0
   26.9218   27.4371   51.5203 C   0  0  0  0  0  0  0  0  0  0  0  0
   26.3652   28.0945   50.4566 C   0  0  0  0  0  0  0  0  0  0  0  0
   26.4603   29.2410   48.0179 S   0  0  0  0  0  0  0  0  0  0  0  0
   27.1810   30.5173   47.7169 O   0  0  0  0  0  0  0  0  0  0  0  0
   26.5223   28.3005   46.8062 O   0  0  0  0  0  0  0  0  0  0  0  0
   30.6568   27.9930   45.4543 H   0  0  0  0  0  0  0  0  0  0  0  0
   33.2588   26.2355   48.3316 H   0  0  0  0  0  0  0  0  0  0  0  0
   32.8830   27.3807   47.0103 H   0  0  0  0  0  0  0  0  0  0  0  0
   33.8825   28.1652   50.5153 H   0  0  0  0  0  0  0  0  0  0  0  0
   34.9475   28.3605   47.6469 H   0  0  0  0  0  0  0  0  0  0  0  0
   37.7443   30.4469   52.3162 H   0  0  0  0  0  0  0  0  0  0  0  0
   38.9988   31.1965   50.3084 H   0  0  0  0  0  0  0  0  0  0  0  0
   38.1241   30.6278   48.0719 H   0  0  0  0  0  0  0  0  0  0  0  0
   30.1228   27.1470   50.4985 H   0  0  0  0  0  0  0  0  0  0  0  0
   28.7229   26.5677   52.3905 H   0  0  0  0  0  0  0  0  0  0  0  0
   26.3410   27.1485   52.4032 H   0  0  0  0  0  0  0  0  0  0  0  0
   25.3218   28.2979   50.5436 H   0  0  0  0  0  0  0  0  0  0  0  0
   25.3189   30.4644   50.1921 H   0  0  0  0  0  0  0  0  0  0  0  0
   24.7599   30.7298   49.3739 N   0  0  0  0  0  0  0  0  0  0  0  0
   24.7786   29.6644   48.3591 C   0  0  2  0  0  0  0  0  0  0  0  0
   24.0893   28.4476   48.9239 C   0  0  2  0  0  0  0  0  0  0  0  0
   24.6165   28.2541   49.9092 H   0  0  0  0  0  0  0  0  0  0  0  0
   22.7613   28.7151   49.2576 O   0  0  0  0  0  0  0  0  0  0  0  0
   22.8451   29.6499   50.3173 C   0  0  0  0  0  0  0  0  0  0  0  0
   23.3527   30.9371   49.7052 C   0  0  0  0  0  0  0  0  0  0  0  0
   24.2683   30.1207   47.4901 H   0  0  0  0  0  0  0  0  0  0  0  0
   24.2530   27.5542   48.3386 H   0  0  0  0  0  0  0  0  0  0  0  0
   23.6301   29.2230   51.0066 H   0  0  0  0  0  0  0  0  0  0  0  0
   21.8757   29.7566   50.8118 H   0  0  0  0  0  0  0  0  0  0  0  0
   23.2161   31.8033   50.3801 H   0  0  0  0  0  0  0  0  0  0  0  0
   22.7904   31.0739   48.7575 H   0  0  0  0  0  0  0  0  0  0  0  0
  2  1  2  0
  2 14  1  1
  2  4  1  0
  3  2  1  0
  5  7  1  0
  5  4  1  0
  6 12  1  0
  7  6  2  0
  9  8  2  0
 10  9  1  0
 11 10  2  0
 11 12  1  0
 12 13  2  0
 13  8  1  0
 14 16  1  0
 15 16  1  0
 15 20  2  0
 16 17  2  0
 17 18  1  0
 19 18  2  0
 20 19  1  0
 21 15  1  0
 22 21  2  0
 23 21  2  0
  3 24  1  0
  5 25  1  0
  5 26  1  0
  6 27  1  0
  7 28  1  0
  8 29  1  0
  9 30  1  0
 10 31  1  0
 17 32  1  0
 18 33  1  0
 19 34  1  0
 20 35  1  0
 36 37  1  0
 37 38  1  0
 38 39  1  0
 39 40  1  1
 39 41  1  0
 41 42  1  0
 42 43  1  0
 43 37  1  0
 38 44  1  6
 39 45  1  0
 42 46  1  0
 42 47  1  0
 43 48  1  0
 43 49  1  0
 21 38  1  0
M  ISO  8  24   3  25   8  26   8  29  14  30  14  31  14  32  14  33  14
M  ISO  4  34  14  35  14  36   5  40  15
M  END
>  <DihAtoms>  (1) 
14,20,37,36

>  <DihDeg>  (1) 
-170.2295928964135

$$$$
