
     RDKit          3D

 49 51  0  0  1  0  0  0  0  0999 V2000
   27.1340   28.1530   49.5160 C   0  0  0  0  0  0  0  0  0  0  0  0
   28.5120   27.8920   49.4730 C   0  0  0  0  0  0  0  0  0  0  0  0
   29.1810   27.3400   50.5350 C   0  0  0  0  0  0  0  0  0  0  0  0
   28.4840   27.0330   51.6780 C   0  0  0  0  0  0  0  0  0  0  0  0
   27.1480   27.2800   51.7330 C   0  0  0  0  0  0  0  0  0  0  0  0
   26.4410   27.8290   50.6970 C   0  0  0  0  0  0  0  0  0  0  0  0
   26.2120   28.8310   48.2040 S   0  0  0  0  0  0  0  0  0  0  0  0
   26.4080   28.0350   46.9530 O   0  0  0  0  0  0  0  0  0  0  0  0
   24.7310   28.8170   48.6120 O   0  0  0  0  0  0  0  0  0  0  0  0
   25.6340   31.4010   48.2390 N   0  0  0  0  0  0  0  0  0  0  0  0
   26.7180   30.4860   47.8500 C   0  0  2  0  0  0  0  0  0  0  0  0
   26.9400   30.6060   46.3630 C   0  0  0  0  0  0  0  0  0  0  0  0
   27.3040   31.9010   45.9980 O   0  0  0  0  0  0  0  0  0  0  0  0
   26.1630   32.6850   46.2910 C   0  0  0  0  0  0  0  0  0  0  0  0
   26.0580   32.7280   47.8000 C   0  0  0  0  0  0  0  0  0  0  0  0
   29.0590   28.2550   48.2660 O   0  0  0  0  0  0  0  0  0  0  0  0
   30.4000   26.1710   47.3270 O   0  0  0  0  0  0  0  0  0  0  0  0
   30.4940   27.6810   47.5870 P   0  0  1  0  0  0  0  0  0  0  0  0
   30.8620   28.5140   46.1580 O   0  0  0  0  0  0  0  0  0  0  0  0
   31.8050   27.8520   48.6520 O   0  0  0  0  0  0  0  0  0  0  0  0
   32.9650   27.3750   48.0150 C   0  0  0  0  0  0  0  0  0  0  0  0
   34.5040   28.3870   49.6600 C   0  0  0  0  0  0  0  0  0  0  0  0
   34.1690   28.1400   48.4210 C   0  0  0  0  0  0  0  0  0  0  0  0
   37.2520   30.1430   51.3140 C   0  0  0  0  0  0  0  0  0  0  0  0
   38.0170   30.5950   50.2170 C   0  0  0  0  0  0  0  0  0  0  0  0
   37.5660   30.2830   48.9230 C   0  0  0  0  0  0  0  0  0  0  0  0
   36.4030   29.5560   48.8640 N   0  0  0  0  0  0  0  0  0  0  0  0
   35.7160   29.1510   49.9130 C   0  0  0  0  0  0  0  0  0  0  0  0
   36.1490   29.4510   51.1320 N   0  0  0  0  0  0  0  0  0  0  0  0
   30.2619   27.1456   50.4724 H   0  0  0  0  0  0  0  0  0  0  0  0
   29.0023   26.5910   52.5417 H   0  0  0  0  0  0  0  0  0  0  0  0
   26.6077   27.0258   52.6569 H   0  0  0  0  0  0  0  0  0  0  0  0
   25.3599   28.0119   50.7855 H   0  0  0  0  0  0  0  0  0  0  0  0
   24.7545   31.1334   47.7745 H   0  0  0  0  0  0  0  0  0  0  0  0
   27.6392   30.7334   48.3978 H   0  0  0  0  0  0  0  0  0  0  0  0
   27.7411   29.9134   46.0653 H   0  0  0  0  0  0  0  0  0  0  0  0
   25.9961   30.3595   45.8548 H   0  0  0  0  0  0  0  0  0  0  0  0
   26.2846   33.7012   45.8879 H   0  0  0  0  0  0  0  0  0  0  0  0
   25.2560   32.2588   45.8376 H   0  0  0  0  0  0  0  0  0  0  0  0
   27.0354   32.9764   48.2393 H   0  0  0  0  0  0  0  0  0  0  0  0
   25.3378   33.4951   48.1206 H   0  0  0  0  0  0  0  0  0  0  0  0
   31.2517   29.3962   46.3813 H   0  0  0  0  0  0  0  0  0  0  0  0
   32.8362   27.4649   46.9263 H   0  0  0  0  0  0  0  0  0  0  0  0
   33.1106   26.3253   48.3100 H   0  0  0  0  0  0  0  0  0  0  0  0
   33.8833   28.0252   50.4930 H   0  0  0  0  0  0  0  0  0  0  0  0
   34.8241   28.5254   47.6259 H   0  0  0  0  0  0  0  0  0  0  0  0
   37.5840   30.3734   52.3371 H   0  0  0  0  0  0  0  0  0  0  0  0
   38.9393   31.1745   50.3706 H   0  0  0  0  0  0  0  0  0  0  0  0
   38.1077   30.5996   48.0195 H   0  0  0  0  0  0  0  0  0  0  0  0
  1  6  2  0
  2  1  1  0
  2  3  2  0
  3  4  1  0
  4  5  2  0
  6  5  1  0
  7  9  2  0
  7  1  1  0
  8  7  2  0
 11  7  1  0
 11 10  1  0
 12 11  1  0
 13 14  1  0
 13 12  1  0
 14 15  1  0
 15 10  1  0
 16  2  1  0
 18 17  2  0
 18 16  1  0
 18 20  1  0
 19 18  1  0
 21 23  1  0
 21 20  1  0
 22 28  1  0
 23 22  2  0
 25 24  2  0
 26 25  1  0
 27 26  2  0
 27 28  1  0
 28 29  2  0
 29 24  1  0
  3 30  1  0
  4 31  1  0
  5 32  1  0
  6 33  1  0
 10 34  1  0
 11 35  1  1
 12 36  1  0
 12 37  1  0
 14 38  1  0
 14 39  1  0
 15 40  1  0
 15 41  1  0
 19 42  1  0
 21 43  1  0
 21 44  1  0
 22 45  1  0
 23 46  1  0
 24 47  1  0
 25 48  1  0
 26 49  1  0
M  ISO  8  30  14  31  14  32  14  33  14  34   5  35  13  36  13  37  13
M  ISO  8  38  13  39  13  40  13  41  13  42   3  43   8  44   8  47  14
M  ISO  2  48  14  49  14
M  END
>  <minimizedAffinity>  (1) 
-7.01811409

>  <minimizedRMSD>  (1) 
1.8297137

$$$$
