
     RDKit          3D

 39 41  0  0  0  0  0  0  0  0999 V2000
   37.9305   31.5854   49.8480 C   0  0  0  0  0  0  0  0  0  0  0  0
   37.9336   31.6215   48.4506 C   0  0  0  0  0  0  0  0  0  0  0  0
   37.0700   30.8252   47.7704 C   0  0  0  0  0  0  0  0  0  0  0  0
   36.2279   30.0372   48.4978 N   0  0  0  0  0  0  0  0  0  0  0  0
   36.2224   30.0146   49.8422 C   0  0  0  0  0  0  0  0  0  0  0  0
   37.0822   30.7882   50.5031 N   0  0  0  0  0  0  0  0  0  0  0  0
   38.2223   31.2172   45.6575 C   0  0  0  0  0  0  0  0  0  0  0  0
   37.0998   30.8009   46.3356 C   0  0  0  0  0  0  0  0  0  0  0  0
   35.9739   30.4366   45.6280 C   0  0  0  0  0  0  0  0  0  0  0  0
   35.9048   30.4730   44.2550 C   0  0  0  0  0  0  0  0  0  0  0  0
   36.9974   30.8910   43.5401 C   0  0  0  0  0  0  0  0  0  0  0  0
   38.0969   31.2415   44.2639 C   0  0  0  0  0  0  0  0  0  0  0  0
   39.7078   31.6529   46.4225 S   0  0  0  0  0  0  0  0  0  0  0  0
   40.0820   33.0701   46.0316 O   0  0  0  0  0  0  0  0  0  0  0  0
   40.6334   30.9154   45.4901 O   0  0  0  0  0  0  0  0  0  0  0  0
   35.1617   29.2166   50.4921 C   0  0  0  0  0  0  0  0  0  0  0  0
   35.3578   29.1019   51.8545 F   0  0  0  0  0  0  0  0  0  0  0  0
   33.8924   29.8824   50.3894 F   0  0  0  0  0  0  0  0  0  0  0  0
   34.9352   28.0183   49.9585 F   0  0  0  0  0  0  0  0  0  0  0  0
   38.5420   32.1310   50.5760 H   0  0  0  0  0  0  0  0  0  0  0  0
   38.6247   32.3925   48.2203 H   0  0  0  0  0  0  0  0  0  0  0  0
   35.1039   30.1044   46.2244 H   0  0  0  0  0  0  0  0  0  0  0  0
   34.9825   30.1643   43.8340 H   0  0  0  0  0  0  0  0  0  0  0  0
   36.9649   30.9311   42.4767 H   0  0  0  0  0  0  0  0  0  0  0  0
   38.9954   31.5837   43.7183 H   0  0  0  0  0  0  0  0  0  0  0  0
   39.0865   29.5457   47.9870 H   0  0  0  0  0  0  0  0  0  0  0  0
   40.0699   29.4164   47.6500 N   0  0  0  0  0  0  0  0  0  0  0  0
   40.6319   30.8433   47.5969 C   0  0  2  0  0  0  0  0  0  0  0  0
   40.4621   31.1886   49.0460 C   0  0  1  0  0  0  0  0  0  0  0  0
   40.6003   32.2598   49.2704 H   0  0  0  0  0  0  0  0  0  0  0  0
   41.2899   30.4923   49.8884 O   0  0  0  0  0  0  0  0  0  0  0  0
   40.7076   29.2063   49.9911 C   0  0  0  0  0  0  0  0  0  0  0  0
   40.8121   28.6666   48.5844 C   0  0  0  0  0  0  0  0  0  0  0  0
   41.6190   30.3837   47.3942 H   0  0  0  0  0  0  0  0  0  0  0  0
   39.4115   30.9697   49.3296 H   0  0  0  0  0  0  0  0  0  0  0  0
   41.2227   28.5537   50.6953 H   0  0  0  0  0  0  0  0  0  0  0  0
   39.6334   29.3501   50.2722 H   0  0  0  0  0  0  0  0  0  0  0  0
   40.5511   27.6095   48.5068 H   0  0  0  0  0  0  0  0  0  0  0  0
   41.9001   28.7832   48.3129 H   0  0  0  0  0  0  0  0  0  0  0  0
  1  6  2  0
  2  1  1  0
  3  2  2  0
  3  4  1  0
  4  5  2  0
  5 16  1  0
  5  6  1  0
  7  8  1  0
  7 13  1  0
  8  3  1  0
  9  8  2  0
 10  9  1  0
 11 12  1  0
 11 10  2  0
 12  7  2  0
 14 13  2  0
 15 13  2  0
 16 17  1  0
 18 16  1  0
 19 16  1  0
  1 20  1  0
  2 21  1  0
  9 22  1  0
 10 23  1  0
 11 24  1  0
 12 25  1  0
 26 27  1  0
 27 28  1  0
 28 29  1  0
 29 30  1  6
 29 31  1  0
 31 32  1  0
 32 33  1  0
 33 27  1  0
 28 34  1  6
 29 35  1  0
 32 36  1  0
 32 37  1  0
 33 38  1  0
 33 39  1  0
 13 28  1  0
M  ISO  8  20  14  21  14  22  14  23  14  24  14  25  14  26   5  30  15
M  END
>  <DihAtoms>  (1) 
6,12,27,26

>  <DihDeg>  (1) 
-151.6224640805287

$$$$
