
     RDKit          3D

 39 41  0  0  0  0  0  0  0  0999 V2000
   37.9305   31.5854   49.8480 C   0  0  0  0  0  0  0  0  0  0  0  0
   37.9336   31.6215   48.4506 C   0  0  0  0  0  0  0  0  0  0  0  0
   37.0700   30.8252   47.7704 C   0  0  0  0  0  0  0  0  0  0  0  0
   36.2279   30.0372   48.4978 N   0  0  0  0  0  0  0  0  0  0  0  0
   36.2224   30.0146   49.8422 C   0  0  0  0  0  0  0  0  0  0  0  0
   37.0822   30.7882   50.5031 N   0  0  0  0  0  0  0  0  0  0  0  0
   38.2223   31.2172   45.6575 C   0  0  0  0  0  0  0  0  0  0  0  0
   37.0998   30.8009   46.3356 C   0  0  0  0  0  0  0  0  0  0  0  0
   35.9739   30.4366   45.6280 C   0  0  0  0  0  0  0  0  0  0  0  0
   35.9048   30.4730   44.2550 C   0  0  0  0  0  0  0  0  0  0  0  0
   36.9974   30.8910   43.5401 C   0  0  0  0  0  0  0  0  0  0  0  0
   38.0969   31.2415   44.2639 C   0  0  0  0  0  0  0  0  0  0  0  0
   39.7078   31.6529   46.4225 S   0  0  0  0  0  0  0  0  0  0  0  0
   40.0820   33.0701   46.0316 O   0  0  0  0  0  0  0  0  0  0  0  0
   40.6334   30.9154   45.4901 O   0  0  0  0  0  0  0  0  0  0  0  0
   35.1617   29.2166   50.4921 C   0  0  0  0  0  0  0  0  0  0  0  0
   35.3578   29.1019   51.8545 F   0  0  0  0  0  0  0  0  0  0  0  0
   33.8924   29.8824   50.3894 F   0  0  0  0  0  0  0  0  0  0  0  0
   34.9352   28.0183   49.9585 F   0  0  0  0  0  0  0  0  0  0  0  0
   38.5420   32.1310   50.5760 H   0  0  0  0  0  0  0  0  0  0  0  0
   38.6247   32.3925   48.2203 H   0  0  0  0  0  0  0  0  0  0  0  0
   35.1039   30.1044   46.2244 H   0  0  0  0  0  0  0  0  0  0  0  0
   34.9825   30.1643   43.8340 H   0  0  0  0  0  0  0  0  0  0  0  0
   36.9649   30.9311   42.4767 H   0  0  0  0  0  0  0  0  0  0  0  0
   38.9954   31.5837   43.7183 H   0  0  0  0  0  0  0  0  0  0  0  0
   40.9376   29.2544   46.3296 H   0  0  0  0  0  0  0  0  0  0  0  0
   41.5799   29.9260   46.8131 N   0  0  0  0  0  0  0  0  0  0  0  0
   40.6319   30.8433   47.5969 C   0  0  2  0  0  0  0  0  0  0  0  0
   39.9908   29.7954   48.4565 C   0  0  1  0  0  0  0  0  0  0  0  0
   39.0955   30.1460   48.9973 H   0  0  0  0  0  0  0  0  0  0  0  0
   40.8317   29.2438   49.3882 O   0  0  0  0  0  0  0  0  0  0  0  0
   41.6400   28.3388   48.6594 C   0  0  0  0  0  0  0  0  0  0  0  0
   42.4093   29.2400   47.7229 C   0  0  0  0  0  0  0  0  0  0  0  0
   41.5355   31.2723   48.0725 H   0  0  0  0  0  0  0  0  0  0  0  0
   39.6253   28.9843   47.7927 H   0  0  0  0  0  0  0  0  0  0  0  0
   42.3191   27.7634   49.2877 H   0  0  0  0  0  0  0  0  0  0  0  0
   40.9519   27.6733   48.0786 H   0  0  0  0  0  0  0  0  0  0  0  0
   43.2071   28.7242   47.1853 H   0  0  0  0  0  0  0  0  0  0  0  0
   42.8784   30.0159   48.3929 H   0  0  0  0  0  0  0  0  0  0  0  0
  1  6  2  0
  2  1  1  0
  3  2  2  0
  3  4  1  0
  4  5  2  0
  5 16  1  0
  5  6  1  0
  7  8  1  0
  7 13  1  0
  8  3  1  0
  9  8  2  0
 10  9  1  0
 11 12  1  0
 11 10  2  0
 12  7  2  0
 14 13  2  0
 15 13  2  0
 16 17  1  0
 18 16  1  0
 19 16  1  0
  1 20  1  0
  2 21  1  0
  9 22  1  0
 10 23  1  0
 11 24  1  0
 12 25  1  0
 26 27  1  0
 27 28  1  0
 28 29  1  0
 29 30  1  1
 29 31  1  0
 31 32  1  0
 32 33  1  0
 33 27  1  0
 28 34  1  1
 29 35  1  0
 32 36  1  0
 32 37  1  0
 33 38  1  0
 33 39  1  0
 13 28  1  0
M  ISO  8  20  14  21  14  22  14  23  14  24  14  25  14  26   5  30  15
M  END
>  <DihAtoms>  (1) 
6,12,27,26

>  <DihDeg>  (1) 
-151.6224640805287

$$$$
