
     RDKit          3D

 49 53  0  0  0  0  0  0  0  0999 V2000
   35.8425   28.9220   49.3773 C   0  0  0  0  0  0  0  0  0  0  0  0
   35.8488   30.1012   48.5801 C   0  0  0  0  0  0  0  0  0  0  0  0
   34.7643   30.3217   47.7024 C   0  0  0  0  0  0  0  0  0  0  0  0
   33.7603   29.4091   47.6393 N   0  0  0  0  0  0  0  0  0  0  0  0
   33.8056   28.3003   48.4166 C   0  0  0  0  0  0  0  0  0  0  0  0
   34.8239   28.0504   49.2775 N   0  0  0  0  0  0  0  0  0  0  0  0
   32.7313   27.3429   48.2689 N   0  0  0  0  0  0  0  0  0  0  0  0
   31.3552   27.6457   48.5091 C   0  0  0  0  0  0  0  0  0  0  0  0
   30.6245   26.4242   48.0428 C   0  0  0  0  0  0  0  0  0  0  0  0
   31.6080   25.6047   47.2401 C   0  0  0  0  0  0  0  0  0  0  0  0
   32.9140   25.9393   47.8460 C   0  0  0  0  0  0  0  0  0  0  0  0
   36.8359   31.1198   48.5382 C   0  0  0  0  0  0  0  0  0  0  0  0
   36.7936   32.0087   49.5651 N   0  0  0  0  0  0  0  0  0  0  0  0
   37.6841   33.0138   49.6102 C   0  0  0  0  0  0  0  0  0  0  0  0
   38.6605   33.2214   48.6767 N   0  0  0  0  0  0  0  0  0  0  0  0
   38.7263   32.3520   47.6434 C   0  0  0  0  0  0  0  0  0  0  0  0
   39.6763   32.4622   46.6387 C   0  0  0  0  0  0  0  0  0  0  0  0
   39.7230   31.5568   45.5937 C   0  0  0  0  0  0  0  0  0  0  0  0
   38.7909   30.5143   45.5587 C   0  0  0  0  0  0  0  0  0  0  0  0
   37.8541   30.4393   46.5865 C   0  0  0  0  0  0  0  0  0  0  0  0
   37.8176   31.3362   47.6087 C   0  0  0  0  0  0  0  0  0  0  0  0
   36.7001   28.8252   50.0259 H   0  0  0  0  0  0  0  0  0  0  0  0
   34.6694   31.1703   47.0690 H   0  0  0  0  0  0  0  0  0  0  0  0
   31.1112   27.9803   49.5278 H   0  0  0  0  0  0  0  0  0  0  0  0
   31.0894   28.4662   47.7921 H   0  0  0  0  0  0  0  0  0  0  0  0
   30.3979   25.8220   48.9693 H   0  0  0  0  0  0  0  0  0  0  0  0
   29.6904   26.6388   47.4923 H   0  0  0  0  0  0  0  0  0  0  0  0
   31.5850   25.9713   46.1871 H   0  0  0  0  0  0  0  0  0  0  0  0
   31.3551   24.5247   47.2250 H   0  0  0  0  0  0  0  0  0  0  0  0
   33.1442   25.2803   48.6905 H   0  0  0  0  0  0  0  0  0  0  0  0
   33.7593   25.9164   47.1292 H   0  0  0  0  0  0  0  0  0  0  0  0
   37.6737   33.7444   50.4256 H   0  0  0  0  0  0  0  0  0  0  0  0
   40.3429   33.2997   46.7667 H   0  0  0  0  0  0  0  0  0  0  0  0
   40.5078   31.7592   44.8821 H   0  0  0  0  0  0  0  0  0  0  0  0
   39.0020   29.9335   44.6736 H   0  0  0  0  0  0  0  0  0  0  0  0
   37.1593   29.2626   46.2174 N   0  0  0  0  0  0  0  0  0  0  0  0
   37.3555   27.9767   45.5879 C   0  0  1  0  0  0  0  0  0  0  0  0
   38.3818   27.8281   45.2065 H   0  0  0  0  0  0  0  0  0  0  0  0
   36.4664   27.8743   44.3305 C   0  0  2  0  0  0  0  0  0  0  0  0
   36.8622   27.0069   43.7652 H   0  0  0  0  0  0  0  0  0  0  0  0
   35.2170   27.5448   44.7869 O   0  0  0  0  0  0  0  0  0  0  0  0
   35.0447   27.9644   46.0823 C   0  0  0  0  0  0  0  0  0  0  0  0
   35.6907   29.2472   46.4549 C   0  0  0  0  0  0  0  0  0  0  0  0
   37.0901   27.1060   46.1547 H   0  0  0  0  0  0  0  0  0  0  0  0
   36.5035   28.7844   43.7177 H   0  0  0  0  0  0  0  0  0  0  0  0
   33.9257   28.1578   46.1753 H   0  0  0  0  0  0  0  0  0  0  0  0
   35.2195   27.1840   46.8519 H   0  0  0  0  0  0  0  0  0  0  0  0
   35.2541   30.1248   45.8794 H   0  0  0  0  0  0  0  0  0  0  0  0
   35.4418   29.4921   47.5026 H   0  0  0  0  0  0  0  0  0  0  0  0
  2  1  2  0
  3  2  1  0
  4  3  2  0
  4  5  1  0
  5  6  2  0
  6  1  1  0
  7  5  1  0
  7  8  1  0
  9  8  1  0
 10 11  1  0
 10  9  1  0
 11  7  1  0
 12  2  1  0
 12 13  2  0
 13 14  1  0
 15 14  2  0
 16 15  1  0
 17 16  2  0
 18 17  1  0
 19 18  2  0
 19 20  1  0
 20 21  2  0
 21 16  1  0
 21 12  1  0
  1 22  1  0
  3 23  1  0
  8 24  1  0
  8 25  1  0
  9 26  1  0
  9 27  1  0
 10 28  1  0
 10 29  1  0
 11 30  1  0
 11 31  1  0
 14 32  1  0
 17 33  1  0
 18 34  1  0
 19 35  1  0
 36 37  1  0
 37 38  1  6
 37 39  1  0
 39 40  1  6
 39 41  1  0
 41 42  1  0
 42 43  1  0
 43 36  1  0
 37 44  1  0
 39 45  1  0
 42 46  1  0
 42 47  1  0
 43 48  1  0
 43 49  1  0
 20 36  1  0
M  ISO  8  22  14  23  14  24  13  25  13  26  13  27  13  28  13  29  13
M  ISO  8  30  13  31  13  32  14  33  14  34  14  35  14  38   8  40  15
M  END
>  <DihAtoms>  (1) 
18,19,35,36

>  <DihDeg>  (1) 
108.11113743892948

$$$$
