
     RDKit          3D

 36 38  0  0  0  0  0  0  0  0999 V2000
   37.4400   31.1150   46.9880 N   0  0  0  0  0  0  0  0  0  0  0  0
   36.8670   30.7710   45.8030 C   0  0  0  0  0  0  0  0  0  0  0  0
   37.3380   31.2410   44.5920 C   0  0  0  0  0  0  0  0  0  0  0  0
   38.4490   32.1030   44.6220 C   0  0  0  0  0  0  0  0  0  0  0  0
   38.9080   32.5510   43.5490 O   0  0  0  0  0  0  0  0  0  0  0  0
   39.0230   32.4460   45.8170 N   0  0  0  0  0  0  0  0  0  0  0  0
   38.4740   31.9260   46.9190 C   0  0  0  0  0  0  0  0  0  0  0  0
   39.0280   32.2690   47.9820 O   0  0  0  0  0  0  0  0  0  0  0  0
   37.2480   29.6070   50.3780 C   0  0  0  0  0  0  0  0  0  0  0  0
   37.7630   30.0620   49.1570 C   0  0  0  0  0  0  0  0  0  0  0  0
   36.9540   30.6370   48.2140 C   0  0  0  0  0  0  0  0  0  0  0  0
   35.6250   30.7540   48.4970 N   0  0  0  0  0  0  0  0  0  0  0  0
   35.1000   30.3160   49.6830 C   0  0  0  0  0  0  0  0  0  0  0  0
   35.9280   29.7450   50.6110 N   0  0  0  0  0  0  0  0  0  0  0  0
   36.7410   30.8850   43.3490 N   0  0  0  0  0  0  0  0  0  0  0  0
   35.5590   31.6240   42.9450 C   0  0  0  0  0  0  0  0  0  0  0  0
   34.8750   30.9080   41.8170 C   0  0  0  0  0  0  0  0  0  0  0  0
   35.6880   30.7270   40.7110 O   0  0  0  0  0  0  0  0  0  0  0  0
   37.0000   30.4460   41.0220 C   0  0  0  0  0  0  0  0  0  0  0  0
   37.1650   29.8520   42.4040 C   0  0  0  0  0  0  0  0  0  0  0  0
   40.1690   33.3280   45.8460 C   0  0  0  0  0  0  0  0  0  0  0  0
   40.0390   34.2920   44.8980 F   0  0  0  0  0  0  0  0  0  0  0  0
   41.3630   32.6790   45.5770 F   0  0  0  0  0  0  0  0  0  0  0  0
   40.2310   33.9430   47.0910 F   0  0  0  0  0  0  0  0  0  0  0  0
   35.9989   30.0955   45.8091 H   0  0  0  0  0  0  0  0  0  0  0  0
   37.9066   29.1474   51.1297 H   0  0  0  0  0  0  0  0  0  0  0  0
   38.8384   29.9551   48.9520 H   0  0  0  0  0  0  0  0  0  0  0  0
   34.0244   30.4219   49.8878 H   0  0  0  0  0  0  0  0  0  0  0  0
   34.8693   31.7052   43.7981 H   0  0  0  0  0  0  0  0  0  0  0  0
   35.8547   32.6297   42.6117 H   0  0  0  0  0  0  0  0  0  0  0  0
   34.5493   29.9207   42.1764 H   0  0  0  0  0  0  0  0  0  0  0  0
   34.0275   31.5335   41.4999 H   0  0  0  0  0  0  0  0  0  0  0  0
   37.3898   29.7298   40.2836 H   0  0  0  0  0  0  0  0  0  0  0  0
   37.5537   31.3963   41.0036 H   0  0  0  0  0  0  0  0  0  0  0  0
   36.5354   28.9564   42.5111 H   0  0  0  0  0  0  0  0  0  0  0  0
   38.2061   29.5470   42.5861 H   0  0  0  0  0  0  0  0  0  0  0  0
  1 11  1  0
  2  1  1  0
  3  4  1  0
  3  2  2  0
  4  6  1  0
  5  4  2  0
  6 21  1  0
  6  7  1  0
  7  1  1  0
  7  8  2  0
  9 14  2  0
 10  9  1  0
 11 12  1  0
 11 10  2  0
 12 13  2  0
 13 14  1  0
 15  3  1  0
 16 15  1  0
 17 16  1  0
 18 19  1  0
 18 17  1  0
 19 20  1  0
 20 15  1  0
 21 24  1  0
 22 21  1  0
 23 21  1  0
  2 25  1  0
  9 26  1  0
 10 27  1  0
 13 28  1  0
 16 29  1  0
 16 30  1  0
 17 31  1  0
 17 32  1  0
 19 33  1  0
 19 34  1  0
 20 35  1  0
 20 36  1  0
M  ISO  8  25  14  26  14  27  14  28  14  29  13  30  13  31  13  32  13
M  ISO  4  33  13  34  13  35  13  36  13
M  END
>  <minimizedAffinity>  (1) 
-6.0522027

>  <minimizedRMSD>  (1) 
0.285058558

$$$$
