
     RDKit          3D

 44 47  0  0  1  0  0  0  0  0999 V2000
   36.9090   31.2660   48.5690 C   0  0  0  0  0  0  0  0  0  0  0  0
   37.1350   32.1880   49.5820 C   0  0  0  0  0  0  0  0  0  0  0  0
   38.0720   33.2030   49.3610 C   0  0  0  0  0  0  0  0  0  0  0  0
   38.7560   33.2850   48.1590 C   0  0  0  0  0  0  0  0  0  0  0  0
   38.5010   32.3480   47.1760 C   0  0  0  0  0  0  0  0  0  0  0  0
   37.6000   31.3910   47.4190 N   0  0  0  0  0  0  0  0  0  0  0  0
   35.1700   28.4810   50.3890 C   0  0  0  0  0  0  0  0  0  0  0  0
   36.1560   29.4500   50.0420 C   0  0  0  0  0  0  0  0  0  0  0  0
   35.9280   30.2810   48.9410 C   0  0  0  0  0  0  0  0  0  0  0  0
   34.7600   30.1090   48.2590 N   0  0  0  0  0  0  0  0  0  0  0  0
   33.8420   29.1700   48.6230 C   0  0  0  0  0  0  0  0  0  0  0  0
   34.0440   28.3680   49.6730 N   0  0  0  0  0  0  0  0  0  0  0  0
   32.7150   29.1920   47.7520 N   0  0  0  0  0  0  0  0  0  0  0  0
   37.3810   29.5260   50.8690 C   0  0  0  0  0  0  0  0  0  0  0  0
   38.5070   29.8130   50.0870 F   0  0  0  0  0  0  0  0  0  0  0  0
   37.2560   30.5040   51.7910 F   0  0  0  0  0  0  0  0  0  0  0  0
   37.6680   28.3370   51.5360 F   0  0  0  0  0  0  0  0  0  0  0  0
   39.1670   32.3640   45.8820 C   0  0  0  0  0  0  0  0  0  0  0  0
   40.4860   32.6780   45.6440 C   0  0  0  0  0  0  0  0  0  0  0  0
   40.7510   32.5780   44.2860 C   0  0  0  0  0  0  0  0  0  0  0  0
   39.5650   32.2020   43.7440 N   0  0  0  0  0  0  0  0  0  0  0  0
   38.6410   32.0770   44.6790 N   0  0  0  0  0  0  0  0  0  0  0  0
   38.0920   31.1970   42.1630 N   0  0  0  0  0  0  0  0  0  0  0  0
   39.3060   31.9620   42.3520 C   0  0  2  0  0  0  0  0  0  0  0  0
   40.4220   31.2280   41.6620 C   0  0  0  0  0  0  0  0  0  0  0  0
   40.5420   29.9120   42.0370 O   0  0  0  0  0  0  0  0  0  0  0  0
   39.6340   29.4680   42.9760 C   0  0  0  0  0  0  0  0  0  0  0  0
   38.2140   29.8830   42.7420 C   0  0  0  0  0  0  0  0  0  0  0  0
   36.5904   32.1220   50.5355 H   0  0  0  0  0  0  0  0  0  0  0  0
   38.2678   33.9440   50.1501 H   0  0  0  0  0  0  0  0  0  0  0  0
   39.4918   34.0849   47.9895 H   0  0  0  0  0  0  0  0  0  0  0  0
   35.3354   27.8201   51.2526 H   0  0  0  0  0  0  0  0  0  0  0  0
   31.9352   28.5361   47.9022 H   0  0  0  0  0  0  0  0  0  0  0  0
   32.6800   29.8638   46.9720 H   0  0  0  0  0  0  0  0  0  0  0  0
   41.2182   32.9645   46.4133 H   0  0  0  0  0  0  0  0  0  0  0  0
   41.7037   32.7614   43.7675 H   0  0  0  0  0  0  0  0  0  0  0  0
   37.3086   31.6918   42.6128 H   0  0  0  0  0  0  0  0  0  0  0  0
   39.2073   32.9622   41.9049 H   0  0  0  0  0  0  0  0  0  0  0  0
   41.3675   31.7408   41.8925 H   0  0  0  0  0  0  0  0  0  0  0  0
   40.1884   31.2322   40.5871 H   0  0  0  0  0  0  0  0  0  0  0  0
   39.6687   28.3686   42.9886 H   0  0  0  0  0  0  0  0  0  0  0  0
   39.9321   29.9302   43.9286 H   0  0  0  0  0  0  0  0  0  0  0  0
   37.6848   29.8759   43.7063 H   0  0  0  0  0  0  0  0  0  0  0  0
   37.7801   29.1699   42.0257 H   0  0  0  0  0  0  0  0  0  0  0  0
  1  9  1  0
  1  2  2  0
  3  2  1  0
  4  3  2  0
  5  6  2  0
  5  4  1  0
  6  1  1  0
  8  7  2  0
  8 14  1  0
  9  8  1  0
 10 11  1  0
 10  9  2  0
 11 12  2  0
 12  7  1  0
 13 11  1  0
 14 17  1  0
 14 16  1  0
 15 14  1  0
 18  5  1  0
 19 18  1  0
 20 19  2  0
 21 20  1  0
 21 22  1  0
 22 18  2  0
 23 24  1  0
 23 28  1  0
 24 21  1  0
 25 26  1  0
 25 24  1  0
 26 27  1  0
 28 27  1  0
  2 29  1  0
  3 30  1  0
  4 31  1  0
  7 32  1  0
 13 33  1  0
 13 34  1  0
 19 35  1  0
 20 36  1  0
 23 37  1  0
 24 38  1  6
 25 39  1  0
 25 40  1  0
 27 41  1  0
 27 42  1  0
 28 43  1  0
 28 44  1  0
M  ISO  8  29  14  30  14  31  14  32  14  35  14  36  14  37   5  38  13
M  ISO  6  39  13  40  13  41  13  42  13  43  13  44  13
M  END
>  <minimizedAffinity>  (1) 
-7.25984335

>  <minimizedRMSD>  (1) 
2.55998564

$$$$
