
     RDKit          3D

 45 49  0  0  0  0  0  0  0  0999 V2000
   35.6110   29.7490   49.6570 C   0  0  0  0  0  0  0  0  0  0  0  0
   36.5790   29.6650   50.6440 C   0  0  0  0  0  0  0  0  0  0  0  0
   37.7110   30.1970   50.0330 C   0  0  0  0  0  0  0  0  0  0  0  0
   37.4010   30.5640   48.7570 C   0  0  0  0  0  0  0  0  0  0  0  0
   36.1300   30.2780   48.5710 O   0  0  0  0  0  0  0  0  0  0  0  0
   38.7690   32.4410   47.9710 C   0  0  0  0  0  0  0  0  0  0  0  0
   38.2870   31.1620   47.7610 C   0  0  0  0  0  0  0  0  0  0  0  0
   38.6270   30.4410   46.6320 C   0  0  0  0  0  0  0  0  0  0  0  0
   39.4680   30.9980   45.6760 C   0  0  0  0  0  0  0  0  0  0  0  0
   39.9690   30.5520   44.4950 N   0  0  0  0  0  0  0  0  0  0  0  0
   40.7190   31.5250   44.0180 N   0  0  0  0  0  0  0  0  0  0  0  0
   40.7150   32.5820   44.8580 C   0  0  0  0  0  0  0  0  0  0  0  0
   39.9120   32.2670   45.9410 C   0  0  0  0  0  0  0  0  0  0  0  0
   39.6220   33.0400   47.0290 C   0  0  0  0  0  0  0  0  0  0  0  0
   34.2340   29.3110   49.8170 C   0  0  0  0  0  0  0  0  0  0  0  0
   33.6300   29.6020   50.8730 O   0  0  0  0  0  0  0  0  0  0  0  0
   31.8180   27.1770   48.0970 C   0  0  0  0  0  0  0  0  0  0  0  0
   32.3320   27.0920   46.8000 C   0  0  0  0  0  0  0  0  0  0  0  0
   33.4950   27.7610   46.5200 C   0  0  0  0  0  0  0  0  0  0  0  0
   34.1060   28.4710   47.4810 N   0  0  0  0  0  0  0  0  0  0  0  0
   33.5940   28.5470   48.7500 C   0  0  0  0  0  0  0  0  0  0  0  0
   32.4430   27.8920   49.0470 N   0  0  0  0  0  0  0  0  0  0  0  0
   34.0730   27.7180   45.2220 N   0  0  0  0  0  0  0  0  0  0  0  0
   34.7080   28.8560   44.6010 C   0  0  0  0  0  0  0  0  0  0  0  0
   34.5090   28.7220   43.0890 C   0  0  0  0  0  0  0  0  0  0  0  0
   35.0830   27.5710   42.5880 O   0  0  0  0  0  0  0  0  0  0  0  0
   35.2330   26.5480   43.4890 C   0  0  0  0  0  0  0  0  0  0  0  0
   34.0530   26.5000   44.4350 C   0  0  0  0  0  0  0  0  0  0  0  0
   36.4775   29.2719   51.6663 H   0  0  0  0  0  0  0  0  0  0  0  0
   38.6989   30.3043   50.5048 H   0  0  0  0  0  0  0  0  0  0  0  0
   38.4834   32.9917   48.8794 H   0  0  0  0  0  0  0  0  0  0  0  0
   38.2313   29.4245   46.4898 H   0  0  0  0  0  0  0  0  0  0  0  0
   39.7969   29.6350   44.0586 H   0  0  0  0  0  0  0  0  0  0  0  0
   41.2554   33.5283   44.7081 H   0  0  0  0  0  0  0  0  0  0  0  0
   40.0258   34.0550   47.1580 H   0  0  0  0  0  0  0  0  0  0  0  0
   30.8852   26.6490   48.3441 H   0  0  0  0  0  0  0  0  0  0  0  0
   31.8174   26.5045   46.0254 H   0  0  0  0  0  0  0  0  0  0  0  0
   34.2454   29.7872   44.9601 H   0  0  0  0  0  0  0  0  0  0  0  0
   35.7788   28.8877   44.8507 H   0  0  0  0  0  0  0  0  0  0  0  0
   33.4304   28.7027   42.8739 H   0  0  0  0  0  0  0  0  0  0  0  0
   34.9979   29.5811   42.6064 H   0  0  0  0  0  0  0  0  0  0  0  0
   35.3010   25.5939   42.9458 H   0  0  0  0  0  0  0  0  0  0  0  0
   36.1504   26.7178   44.0717 H   0  0  0  0  0  0  0  0  0  0  0  0
   33.1156   26.4384   43.8628 H   0  0  0  0  0  0  0  0  0  0  0  0
   34.1164   25.6169   45.0877 H   0  0  0  0  0  0  0  0  0  0  0  0
  1 15  1  0
  1  2  2  0
  3  2  1  0
  4  3  2  0
  5  4  1  0
  5  1  1  0
  7  6  2  0
  7  4  1  0
  8  7  1  0
  9 13  1  0
  9  8  2  0
 10  9  1  0
 11 10  1  0
 11 12  2  0
 12 13  1  0
 13 14  2  0
 14  6  1  0
 15 16  2  0
 17 22  2  0
 18 17  1  0
 19 18  2  0
 19 20  1  0
 20 21  2  0
 21 22  1  0
 21 15  1  0
 23 19  1  0
 24 23  1  0
 25 24  1  0
 26 25  1  0
 26 27  1  0
 27 28  1  0
 28 23  1  0
  2 29  1  0
  3 30  1  0
  6 31  1  0
  8 32  1  0
 10 33  1  0
 12 34  1  0
 14 35  1  0
 17 36  1  0
 18 37  1  0
 24 38  1  0
 24 39  1  0
 25 40  1  0
 25 41  1  0
 27 42  1  0
 27 43  1  0
 28 44  1  0
 28 45  1  0
M  ISO  8  29  14  30  14  31  14  32  14  33   9  34  14  35  14  36  14
M  ISO  8  37  14  38  13  39  13  40  13  41  13  42  13  43  13  44  13
M  ISO  1  45  13
M  END
>  <minimizedAffinity>  (1) 
-6.51696014

>  <minimizedRMSD>  (1) 
1.71314681

$$$$
