
     RDKit          3D

 50 54  0  0  1  0  0  0  0  0999 V2000
   37.7310   30.8640   50.6440 C   0  0  0  0  0  0  0  0  0  0  0  0
   38.4630   31.5170   49.6770 C   0  0  0  0  0  0  0  0  0  0  0  0
   38.1200   31.4820   48.3180 C   0  0  0  0  0  0  0  0  0  0  0  0
   37.0600   30.7990   47.9920 N   0  0  0  0  0  0  0  0  0  0  0  0
   36.3360   30.1510   48.9620 C   0  0  0  0  0  0  0  0  0  0  0  0
   36.6630   30.1810   50.2490 N   0  0  0  0  0  0  0  0  0  0  0  0
   35.1320   29.3960   48.6200 C   0  0  0  0  0  0  0  0  0  0  0  0
   34.5960   28.2500   49.1480 C   0  0  0  0  0  0  0  0  0  0  0  0
   33.4500   27.7400   48.6690 C   0  0  0  0  0  0  0  0  0  0  0  0
   32.8640   28.4660   47.6030 C   0  0  0  0  0  0  0  0  0  0  0  0
   34.0120   29.8760   47.3360 S   0  0  0  0  0  0  0  0  0  0  0  0
   31.6960   28.2490   46.8590 N   0  0  0  0  0  0  0  0  0  0  0  0
   30.9720   26.9990   46.7200 C   0  0  0  0  0  0  0  0  0  0  0  0
   29.4930   27.4100   46.7230 C   0  0  0  0  0  0  0  0  0  0  0  0
   29.2840   27.9930   45.4940 O   0  0  0  0  0  0  0  0  0  0  0  0
   30.0060   29.1330   45.2730 C   0  0  0  0  0  0  0  0  0  0  0  0
   31.1620   29.3850   46.1620 C   0  0  0  0  0  0  0  0  0  0  0  0
   39.0510   32.1320   47.4370 C   0  0  1  0  0  0  0  0  0  0  0  0
   39.1440   31.5770   46.0300 C   0  0  2  0  0  0  0  0  0  0  0  0
   40.6160   31.2390   45.7900 C   0  0  0  0  0  0  0  0  0  0  0  0
   39.8890   32.2800   45.0160 C   0  0  1  0  0  0  0  0  0  0  0  0
   39.8290   32.0090   43.5720 C   0  0  0  0  0  0  0  0  0  0  0  0
   39.1310   32.8880   42.7850 C   0  0  0  0  0  0  0  0  0  0  0  0
   39.1150   32.6250   41.4380 C   0  0  0  0  0  0  0  0  0  0  0  0
   39.7500   31.5490   40.8650 C   0  0  0  0  0  0  0  0  0  0  0  0
   40.4460   30.6810   41.6930 C   0  0  0  0  0  0  0  0  0  0  0  0
   40.4710   30.9260   43.0160 N   0  0  0  0  0  0  0  0  0  0  0  0
   39.3010   33.4090   47.5120 O   0  0  0  0  0  0  0  0  0  0  0  0
   38.0205   30.9068   51.7044 H   0  0  0  0  0  0  0  0  0  0  0  0
   39.3517   32.0885   49.9830 H   0  0  0  0  0  0  0  0  0  0  0  0
   35.1120   27.7412   49.9756 H   0  0  0  0  0  0  0  0  0  0  0  0
   32.9981   26.8232   49.0756 H   0  0  0  0  0  0  0  0  0  0  0  0
   31.1907   26.3271   47.5630 H   0  0  0  0  0  0  0  0  0  0  0  0
   31.2526   26.4520   45.8079 H   0  0  0  0  0  0  0  0  0  0  0  0
   28.8468   26.5286   46.8480 H   0  0  0  0  0  0  0  0  0  0  0  0
   29.2554   28.0940   47.5511 H   0  0  0  0  0  0  0  0  0  0  0  0
   30.3853   29.0896   44.2414 H   0  0  0  0  0  0  0  0  0  0  0  0
   29.3058   29.9561   45.4785 H   0  0  0  0  0  0  0  0  0  0  0  0
   31.9695   29.8094   45.5474 H   0  0  0  0  0  0  0  0  0  0  0  0
   30.7834   30.0558   46.9473 H   0  0  0  0  0  0  0  0  0  0  0  0
   39.9222   31.7761   48.0064 H   0  0  0  0  0  0  0  0  0  0  0  0
   38.1405   31.1291   45.9819 H   0  0  0  0  0  0  0  0  0  0  0  0
   41.3813   31.5243   46.5268 H   0  0  0  0  0  0  0  0  0  0  0  0
   41.1954   30.3339   45.5552 H   0  0  0  0  0  0  0  0  0  0  0  0
   39.9433   33.3620   44.8252 H   0  0  0  0  0  0  0  0  0  0  0  0
   38.6109   33.7587   43.2108 H   0  0  0  0  0  0  0  0  0  0  0  0
   38.5635   33.3134   40.7807 H   0  0  0  0  0  0  0  0  0  0  0  0
   39.7073   31.3809   39.7788 H   0  0  0  0  0  0  0  0  0  0  0  0
   40.9684   29.8076   41.2756 H   0  0  0  0  0  0  0  0  0  0  0  0
   39.3540   33.6796   48.4628 H   0  0  0  0  0  0  0  0  0  0  0  0
  2  1  2  0
  3  2  1  0
  4  3  2  0
  4  5  1  0
  5  6  2  0
  6  1  1  0
  7  5  1  0
  7  8  2  0
  9  8  1  0
 10  9  2  0
 11 10  1  0
 11  7  1  0
 12 10  1  0
 13 14  1  0
 13 12  1  0
 15 14  1  0
 16 15  1  0
 16 17  1  0
 17 12  1  0
 18 28  1  0
 18  3  1  0
 19 18  1  0
 20 19  1  0
 21 20  1  0
 21 19  1  0
 22 21  1  0
 23 22  2  0
 24 23  1  0
 25 24  2  0
 25 26  1  0
 26 27  2  0
 27 22  1  0
  1 29  1  0
  2 30  1  0
  8 31  1  0
  9 32  1  0
 13 33  1  0
 13 34  1  0
 14 35  1  0
 14 36  1  0
 16 37  1  0
 16 38  1  0
 17 39  1  0
 17 40  1  0
 18 41  1  1
 19 42  1  6
 20 43  1  0
 20 44  1  0
 21 45  1  6
 23 46  1  0
 24 47  1  0
 25 48  1  0
 26 49  1  0
 28 50  1  0
M  ISO  8  29  14  30  14  31  14  32  14  33  13  34  13  35  13  36  13
M  ISO  8  37  13  38  13  39  13  40  13  41   8  42  13  43  13  44  13
M  ISO  6  45  13  46  14  47  14  48  14  49  14  50   3
M  END
>  <minimizedAffinity>  (1) 
-6.71037912

>  <minimizedRMSD>  (1) 
0.274738103

$$$$
