
     RDKit          3D

 37 40  0  0  0  0  0  0  0  0999 V2000
   36.8513   30.5434   46.9119 C   0  0  0  0  0  0  0  0  0  0  0  0
   37.5141   31.0269   48.0251 C   0  0  0  0  0  0  0  0  0  0  0  0
   38.5137   31.9914   47.8967 C   0  0  0  0  0  0  0  0  0  0  0  0
   38.7989   32.4292   46.6113 C   0  0  0  0  0  0  0  0  0  0  0  0
   39.7283   33.3597   46.2325 N   0  0  0  0  0  0  0  0  0  0  0  0
   39.6369   33.4480   44.8897 C   0  0  0  0  0  0  0  0  0  0  0  0
   38.7057   32.6262   44.4194 N   0  0  0  0  0  0  0  0  0  0  0  0
   38.1634   31.9743   45.4773 C   0  0  0  0  0  0  0  0  0  0  0  0
   37.1636   31.0052   45.6391 C   0  0  0  0  0  0  0  0  0  0  0  0
   37.3856   30.0800   51.6617 C   0  0  0  0  0  0  0  0  0  0  0  0
   37.8767   30.6390   50.4853 C   0  0  0  0  0  0  0  0  0  0  0  0
   37.1429   30.5058   49.3242 C   0  0  0  0  0  0  0  0  0  0  0  0
   35.9593   29.8204   49.4072 N   0  0  0  0  0  0  0  0  0  0  0  0
   35.4918   29.2822   50.5524 C   0  0  0  0  0  0  0  0  0  0  0  0
   36.2010   29.4144   51.6605 N   0  0  0  0  0  0  0  0  0  0  0  0
   40.4630   34.3257   44.1638 O   0  0  0  0  0  0  0  0  0  0  0  0
   36.0727   29.7958   46.9840 H   0  0  0  0  0  0  0  0  0  0  0  0
   39.0272   32.3676   48.7460 H   0  0  0  0  0  0  0  0  0  0  0  0
   40.3749   33.8916   46.8560 H   0  0  0  0  0  0  0  0  0  0  0  0
   36.6584   30.6422   44.7496 H   0  0  0  0  0  0  0  0  0  0  0  0
   38.0371   30.2396   52.5210 H   0  0  0  0  0  0  0  0  0  0  0  0
   38.8026   31.1821   50.3917 H   0  0  0  0  0  0  0  0  0  0  0  0
   34.5522   28.7594   50.5303 H   0  0  0  0  0  0  0  0  0  0  0  0
   40.6288   32.3919   42.6403 H   0  0  0  0  0  0  0  0  0  0  0  0
   39.8298   33.0179   42.3868 N   0  0  0  0  0  0  0  0  0  0  0  0
   40.3064   34.3611   42.7526 C   0  0  1  0  0  0  0  0  0  0  0  0
   39.1691   35.2942   42.4148 C   0  0  1  0  0  0  0  0  0  0  0  0
   38.2505   34.9085   42.9113 H   0  0  0  0  0  0  0  0  0  0  0  0
   39.0082   35.3318   41.0318 O   0  0  0  0  0  0  0  0  0  0  0  0
   38.7883   34.1060   40.4501 C   0  0  0  0  0  0  0  0  0  0  0  0
   39.7333   33.0339   40.9402 C   0  0  0  0  0  0  0  0  0  0  0  0
   41.2349   34.6109   42.2299 H   0  0  0  0  0  0  0  0  0  0  0  0
   39.4603   36.3094   42.7150 H   0  0  0  0  0  0  0  0  0  0  0  0
   37.7203   33.7798   40.4978 H   0  0  0  0  0  0  0  0  0  0  0  0
   38.9885   34.2213   39.3571 H   0  0  0  0  0  0  0  0  0  0  0  0
   40.7327   33.1625   40.5125 H   0  0  0  0  0  0  0  0  0  0  0  0
   39.3334   32.0477   40.6272 H   0  0  0  0  0  0  0  0  0  0  0  0
  1  2  2  0
  2 12  1  0
  3  2  1  0
  4  3  2  0
  5  4  1  0
  6  5  1  0
  7  6  2  0
  7  8  1  0
  8  9  2  0
  8  4  1  0
  9  1  1  0
 10 15  2  0
 11 10  1  0
 12 13  1  0
 12 11  2  0
 13 14  2  0
 14 15  1  0
 16  6  1  0
  1 17  1  0
  3 18  1  0
  5 19  1  0
  9 20  1  0
 10 21  1  0
 11 22  1  0
 14 23  1  0
 24 25  1  0
 25 26  1  0
 26 27  1  0
 27 28  1  1
 27 29  1  0
 29 30  1  0
 30 31  1  0
 31 25  1  0
 26 32  1  6
 27 33  1  0
 30 34  1  0
 30 35  1  0
 31 36  1  0
 31 37  1  0
 16 26  1  0
M  ISO  8  17  14  18  14  19   9  20  14  21  14  22  14  23  14  24   5
M  ISO  1  28  15
M  END
>  <DihAtoms>  (1) 
5,15,25,24

>  <DihDeg>  (1) 
121.47778034208211

$$$$
