
     RDKit          3D

 37 40  0  0  0  0  0  0  0  0999 V2000
   36.8513   30.5434   46.9119 C   0  0  0  0  0  0  0  0  0  0  0  0
   37.5141   31.0269   48.0251 C   0  0  0  0  0  0  0  0  0  0  0  0
   38.5137   31.9914   47.8967 C   0  0  0  0  0  0  0  0  0  0  0  0
   38.7989   32.4292   46.6113 C   0  0  0  0  0  0  0  0  0  0  0  0
   39.7283   33.3597   46.2325 N   0  0  0  0  0  0  0  0  0  0  0  0
   39.6369   33.4480   44.8897 C   0  0  0  0  0  0  0  0  0  0  0  0
   38.7057   32.6262   44.4194 N   0  0  0  0  0  0  0  0  0  0  0  0
   38.1634   31.9743   45.4773 C   0  0  0  0  0  0  0  0  0  0  0  0
   37.1636   31.0052   45.6391 C   0  0  0  0  0  0  0  0  0  0  0  0
   37.3856   30.0800   51.6617 C   0  0  0  0  0  0  0  0  0  0  0  0
   37.8767   30.6390   50.4853 C   0  0  0  0  0  0  0  0  0  0  0  0
   37.1429   30.5058   49.3242 C   0  0  0  0  0  0  0  0  0  0  0  0
   35.9593   29.8204   49.4072 N   0  0  0  0  0  0  0  0  0  0  0  0
   35.4918   29.2822   50.5524 C   0  0  0  0  0  0  0  0  0  0  0  0
   36.2010   29.4144   51.6605 N   0  0  0  0  0  0  0  0  0  0  0  0
   40.4630   34.3257   44.1638 O   0  0  0  0  0  0  0  0  0  0  0  0
   36.0727   29.7958   46.9840 H   0  0  0  0  0  0  0  0  0  0  0  0
   39.0272   32.3676   48.7460 H   0  0  0  0  0  0  0  0  0  0  0  0
   40.3749   33.8916   46.8560 H   0  0  0  0  0  0  0  0  0  0  0  0
   36.6584   30.6422   44.7496 H   0  0  0  0  0  0  0  0  0  0  0  0
   38.0371   30.2396   52.5210 H   0  0  0  0  0  0  0  0  0  0  0  0
   38.8026   31.1821   50.3917 H   0  0  0  0  0  0  0  0  0  0  0  0
   34.5522   28.7594   50.5303 H   0  0  0  0  0  0  0  0  0  0  0  0
   39.0419   35.9014   42.9044 H   0  0  0  0  0  0  0  0  0  0  0  0
   39.9686   35.7587   42.4402 N   0  0  0  0  0  0  0  0  0  0  0  0
   40.3064   34.3611   42.7526 C   0  0  1  0  0  0  0  0  0  0  0  0
   41.6511   34.1219   42.1100 C   0  0  1  0  0  0  0  0  0  0  0  0
   42.3437   34.9210   42.4574 H   0  0  0  0  0  0  0  0  0  0  0  0
   41.5053   34.1578   40.7252 O   0  0  0  0  0  0  0  0  0  0  0  0
   40.9619   35.3232   40.2394 C   0  0  0  0  0  0  0  0  0  0  0  0
   39.7441   35.7804   41.0079 C   0  0  0  0  0  0  0  0  0  0  0  0
   39.5328   33.6744   42.3953 H   0  0  0  0  0  0  0  0  0  0  0  0
   41.9697   33.1005   42.3560 H   0  0  0  0  0  0  0  0  0  0  0  0
   41.7125   36.1418   40.1140 H   0  0  0  0  0  0  0  0  0  0  0  0
   40.6127   35.1132   39.1993 H   0  0  0  0  0  0  0  0  0  0  0  0
   38.8718   35.1638   40.7692 H   0  0  0  0  0  0  0  0  0  0  0  0
   39.5286   36.8313   40.7256 H   0  0  0  0  0  0  0  0  0  0  0  0
  1  2  2  0
  2 12  1  0
  3  2  1  0
  4  3  2  0
  5  4  1  0
  6  5  1  0
  7  6  2  0
  7  8  1  0
  8  9  2  0
  8  4  1  0
  9  1  1  0
 10 15  2  0
 11 10  1  0
 12 13  1  0
 12 11  2  0
 13 14  2  0
 14 15  1  0
 16  6  1  0
  1 17  1  0
  3 18  1  0
  5 19  1  0
  9 20  1  0
 10 21  1  0
 11 22  1  0
 14 23  1  0
 24 25  1  0
 25 26  1  0
 26 27  1  0
 27 28  1  1
 27 29  1  0
 29 30  1  0
 30 31  1  0
 31 25  1  0
 26 32  1  6
 27 33  1  0
 30 34  1  0
 30 35  1  0
 31 36  1  0
 31 37  1  0
 16 26  1  0
M  ISO  8  17  14  18  14  19   9  20  14  21  14  22  14  23  14  24   5
M  ISO  1  28  15
M  END
>  <DihAtoms>  (1) 
5,15,25,24

>  <DihDeg>  (1) 
121.47778034208211

$$$$
