
     RDKit          3D

 38 40  0  0  0  0  0  0  0  0999 V2000
   34.8590   28.1650   49.5870 O   0  0  0  0  0  0  0  0  0  0  0  0
   37.2930   30.2600   51.2510 C   0  0  0  0  0  0  0  0  0  0  0  0
   37.9160   30.8640   50.1290 C   0  0  0  0  0  0  0  0  0  0  0  0
   37.4410   30.4940   48.8890 C   0  0  0  0  0  0  0  0  0  0  0  0
   36.4260   29.5940   48.8010 N   0  0  0  0  0  0  0  0  0  0  0  0
   35.8580   29.0410   49.8920 C   0  0  0  0  0  0  0  0  0  0  0  0
   36.3000   29.3810   51.1320 N   0  0  0  0  0  0  0  0  0  0  0  0
   38.0420   31.0790   47.7410 N   0  0  0  0  0  0  0  0  0  0  0  0
   38.8700   32.2490   47.9480 C   0  0  0  0  0  0  0  0  0  0  0  0
   39.5210   32.5360   46.5900 C   0  0  0  0  0  0  0  0  0  0  0  0
   38.5680   32.7300   45.6200 O   0  0  0  0  0  0  0  0  0  0  0  0
   37.7620   31.6430   45.3730 C   0  0  0  0  0  0  0  0  0  0  0  0
   37.8620   30.5600   46.3980 C   0  0  0  0  0  0  0  0  0  0  0  0
   33.7830   28.6340   48.7680 C   0  0  0  0  0  0  0  0  0  0  0  0
   32.9010   27.4800   48.3690 C   0  0  0  0  0  0  0  0  0  0  0  0
   31.4700   27.8820   48.2830 C   0  0  0  0  0  0  0  0  0  0  0  0
   30.6980   27.7260   49.4290 C   0  0  0  0  0  0  0  0  0  0  0  0
   29.3640   28.0640   49.4680 C   0  0  0  0  0  0  0  0  0  0  0  0
   28.7930   28.5610   48.3620 N   0  0  0  0  0  0  0  0  0  0  0  0
   29.5480   28.7110   47.2440 C   0  0  0  0  0  0  0  0  0  0  0  0
   30.8580   28.3840   47.1920 N   0  0  0  0  0  0  0  0  0  0  0  0
   37.6438   30.5282   52.2585 H   0  0  0  0  0  0  0  0  0  0  0  0
   38.7351   31.5895   50.2424 H   0  0  0  0  0  0  0  0  0  0  0  0
   38.2552   33.1033   48.2677 H   0  0  0  0  0  0  0  0  0  0  0  0
   39.6217   32.0830   48.7338 H   0  0  0  0  0  0  0  0  0  0  0  0
   40.1407   33.4411   46.6720 H   0  0  0  0  0  0  0  0  0  0  0  0
   40.1390   31.6711   46.3071 H   0  0  0  0  0  0  0  0  0  0  0  0
   36.7183   31.9886   45.3372 H   0  0  0  0  0  0  0  0  0  0  0  0
   38.1004   31.2088   44.4207 H   0  0  0  0  0  0  0  0  0  0  0  0
   36.9383   29.9633   46.3716 H   0  0  0  0  0  0  0  0  0  0  0  0
   38.7450   29.9509   46.1546 H   0  0  0  0  0  0  0  0  0  0  0  0
   33.1893   29.3688   49.3316 H   0  0  0  0  0  0  0  0  0  0  0  0
   34.1953   29.1041   47.8630 H   0  0  0  0  0  0  0  0  0  0  0  0
   33.2257   27.1067   47.3865 H   0  0  0  0  0  0  0  0  0  0  0  0
   32.9911   26.6988   49.1381 H   0  0  0  0  0  0  0  0  0  0  0  0
   31.1694   27.3185   50.3355 H   0  0  0  0  0  0  0  0  0  0  0  0
   28.7781   27.9288   50.3891 H   0  0  0  0  0  0  0  0  0  0  0  0
   29.0718   29.1171   46.3394 H   0  0  0  0  0  0  0  0  0  0  0  0
  1  6  1  0
  3  2  2  0
  4  3  1  0
  5  4  2  0
  5  6  1  0
  6  7  2  0
  7  2  1  0
  8  9  1  0
  8  4  1  0
 10  9  1  0
 11 10  1  0
 12 11  1  0
 12 13  1  0
 13  8  1  0
 14  1  1  0
 15 14  1  0
 16 15  1  0
 16 17  2  0
 17 18  1  0
 19 18  2  0
 20 19  1  0
 21 20  2  0
 21 16  1  0
  2 22  1  0
  3 23  1  0
  9 24  1  0
  9 25  1  0
 10 26  1  0
 10 27  1  0
 12 28  1  0
 12 29  1  0
 13 30  1  0
 13 31  1  0
 14 32  1  0
 14 33  1  0
 15 34  1  0
 15 35  1  0
 17 36  1  0
 18 37  1  0
 20 38  1  0
M  ISO  8  22  14  23  14  24  13  25  13  26  13  27  13  28  13  29  13
M  ISO  8  30  13  31  13  32   8  33   8  34   8  35   8  36  14  37  14
M  ISO  1  38  14
M  END
>  <minimizedAffinity>  (1) 
-5.86714792

>  <minimizedRMSD>  (1) 
0.364259332

$$$$
