
     RDKit          3D

 26 27  0  0  0  0  0  0  0  0999 V2000
   38.3102   31.2428   50.1234 C   0  0  0  0  0  0  0  0  0  0  0  0
   38.2957   31.6090   48.7700 C   0  0  0  0  0  0  0  0  0  0  0  0
   37.2123   31.2235   47.9933 C   0  0  0  0  0  0  0  0  0  0  0  0
   36.2174   30.5062   48.5930 N   0  0  0  0  0  0  0  0  0  0  0  0
   36.2535   30.1661   49.8947 C   0  0  0  0  0  0  0  0  0  0  0  0
   37.2948   30.5364   50.6425 N   0  0  0  0  0  0  0  0  0  0  0  0
   35.1246   29.3853   50.4556 C   0  0  0  0  0  0  0  0  0  0  0  0
   35.2688   29.1143   51.8049 F   0  0  0  0  0  0  0  0  0  0  0  0
   33.9218   30.0588   50.3005 F   0  0  0  0  0  0  0  0  0  0  0  0
   34.9500   28.1695   49.8260 F   0  0  0  0  0  0  0  0  0  0  0  0
   39.1804   31.5727   50.6740 H   0  0  0  0  0  0  0  0  0  0  0  0
   39.0796   32.1743   48.2972 H   0  0  0  0  0  0  0  0  0  0  0  0
   37.0625   31.5223   46.6128 N   0  0  0  0  0  0  0  0  0  0  0  0
   37.5595   30.6412   45.5525 C   0  0  1  0  0  0  0  0  0  0  0  0
   38.5952   30.8890   45.3159 H   0  0  0  0  0  0  0  0  0  0  0  0
   36.6377   30.8975   44.3685 C   0  0  1  0  0  0  0  0  0  0  0  0
   36.7938   30.1812   43.5370 H   0  0  0  0  0  0  0  0  0  0  0  0
   36.9032   32.1599   43.8670 O   0  0  0  0  0  0  0  0  0  0  0  0
   36.9868   33.1360   44.8368 C   0  0  0  0  0  0  0  0  0  0  0  0
   36.4091   32.7165   46.1636 C   0  0  0  0  0  0  0  0  0  0  0  0
   37.4712   29.5936   45.9116 H   0  0  0  0  0  0  0  0  0  0  0  0
   35.6006   30.8530   44.7801 H   0  0  0  0  0  0  0  0  0  0  0  0
   36.4405   34.0282   44.4651 H   0  0  0  0  0  0  0  0  0  0  0  0
   38.0440   33.4576   44.9852 H   0  0  0  0  0  0  0  0  0  0  0  0
   36.6706   33.5597   46.8685 H   0  0  0  0  0  0  0  0  0  0  0  0
   35.3178   32.6734   46.1101 H   0  0  0  0  0  0  0  0  0  0  0  0
  1  6  2  0
  2  1  1  0
  3  4  1  0
  3  2  2  0
  4  5  2  0
  5  7  1  0
  5  6  1  0
  7  8  1  0
  9  7  1  0
 10  7  1  0
  1 11  1  0
  2 12  1  0
 13 14  1  0
 14 15  1  6
 14 16  1  0
 16 17  1  6
 16 18  1  0
 18 19  1  0
 19 20  1  0
 20 13  1  0
 14 21  1  0
 16 22  1  0
 19 23  1  0
 19 24  1  0
 20 25  1  0
 20 26  1  0
  3 13  1  0
M  ISO  4  11  14  12  14  15   8  17  15
M  END
>  <DihAtoms>  (1) 
3,2,12,13

>  <DihDeg>  (1) 
0.006113507110377807

$$$$
