
     RDKit          3D

 51 55  0  0  0  0  0  0  0  0999 V2000
   38.1500   31.3970   47.9270 C   0  0  0  0  0  0  0  0  0  0  0  0
   37.2700   31.5860   48.9770 C   0  0  0  0  0  0  0  0  0  0  0  0
   37.4500   32.7950   49.6530 C   0  0  0  0  0  0  0  0  0  0  0  0
   38.4430   33.7220   49.2810 C   0  0  0  0  0  0  0  0  0  0  0  0
   39.2860   33.4210   48.1900 C   0  0  0  0  0  0  0  0  0  0  0  0
   39.1240   32.2330   47.5120 C   0  0  0  0  0  0  0  0  0  0  0  0
   35.1630   30.4360   48.5330 C   0  0  0  0  0  0  0  0  0  0  0  0
   36.2610   30.6510   49.3590 C   0  0  0  0  0  0  0  0  0  0  0  0
   36.3390   29.9250   50.5630 C   0  0  0  0  0  0  0  0  0  0  0  0
   35.3340   29.0540   50.8480 N   0  0  0  0  0  0  0  0  0  0  0  0
   34.2840   28.8800   50.0110 C   0  0  0  0  0  0  0  0  0  0  0  0
   34.1990   29.5640   48.8640 N   0  0  0  0  0  0  0  0  0  0  0  0
   37.4850   30.1160   51.4780 C   0  0  0  0  0  0  0  0  0  0  0  0
   38.0520   30.2040   47.1770 O   0  0  0  0  0  0  0  0  0  0  0  0
   39.9800   32.0100   46.4620 O   0  0  0  0  0  0  0  0  0  0  0  0
   40.3230   31.2660   44.0990 C   0  0  0  0  0  0  0  0  0  0  0  0
   39.6590   31.8910   45.1320 C   0  0  0  0  0  0  0  0  0  0  0  0
   38.4520   32.5310   44.8590 C   0  0  0  0  0  0  0  0  0  0  0  0
   37.9220   32.5390   43.5580 C   0  0  0  0  0  0  0  0  0  0  0  0
   36.8130   33.0540   42.9890 N   0  0  0  0  0  0  0  0  0  0  0  0
   36.7810   32.7690   41.6770 C   0  0  0  0  0  0  0  0  0  0  0  0
   37.9140   32.0500   41.4190 N   0  0  0  0  0  0  0  0  0  0  0  0
   38.6190   31.9020   42.5600 C   0  0  0  0  0  0  0  0  0  0  0  0
   39.8130   31.2680   42.8260 C   0  0  0  0  0  0  0  0  0  0  0  0
   40.5570   30.6000   41.8120 N   0  0  0  0  0  0  0  0  0  0  0  0
   40.6220   30.9550   40.4100 C   0  0  0  0  0  0  0  0  0  0  0  0
   39.9490   29.8320   39.6560 C   0  0  0  0  0  0  0  0  0  0  0  0
   40.0710   28.6560   40.3760 O   0  0  0  0  0  0  0  0  0  0  0  0
   41.3210   28.5130   40.9650 C   0  0  0  0  0  0  0  0  0  0  0  0
   41.3590   29.4210   42.1800 C   0  0  0  0  0  0  0  0  0  0  0  0
   36.7944   33.0310   50.5042 H   0  0  0  0  0  0  0  0  0  0  0  0
   38.5597   34.6665   49.8326 H   0  0  0  0  0  0  0  0  0  0  0  0
   40.0680   34.1310   47.8828 H   0  0  0  0  0  0  0  0  0  0  0  0
   35.0834   30.9931   47.5878 H   0  0  0  0  0  0  0  0  0  0  0  0
   33.4901   28.1667   50.2775 H   0  0  0  0  0  0  0  0  0  0  0  0
   37.1362   30.0579   52.5196 H   0  0  0  0  0  0  0  0  0  0  0  0
   38.2333   29.3302   51.2975 H   0  0  0  0  0  0  0  0  0  0  0  0
   37.9380   31.1020   51.2975 H   0  0  0  0  0  0  0  0  0  0  0  0
   38.6694   30.0430   46.4201 H   0  0  0  0  0  0  0  0  0  0  0  0
   41.2776   30.7572   44.2987 H   0  0  0  0  0  0  0  0  0  0  0  0
   37.9080   33.0356   45.6711 H   0  0  0  0  0  0  0  0  0  0  0  0
   36.0913   33.5910   43.4907 H   0  0  0  0  0  0  0  0  0  0  0  0
   36.0011   33.0561   40.9564 H   0  0  0  0  0  0  0  0  0  0  0  0
   40.0935   31.9032   40.2324 H   0  0  0  0  0  0  0  0  0  0  0  0
   41.6625   31.0906   40.0800 H   0  0  0  0  0  0  0  0  0  0  0  0
   40.4277   29.7116   38.6729 H   0  0  0  0  0  0  0  0  0  0  0  0
   38.8838   30.0691   39.5180 H   0  0  0  0  0  0  0  0  0  0  0  0
   41.4741   27.4679   41.2722 H   0  0  0  0  0  0  0  0  0  0  0  0
   42.1170   28.7821   40.2551 H   0  0  0  0  0  0  0  0  0  0  0  0
   42.3940   29.7155   42.4082 H   0  0  0  0  0  0  0  0  0  0  0  0
   40.9641   28.9212   43.0768 H   0  0  0  0  0  0  0  0  0  0  0  0
  1  2  2  0
  2  8  1  0
  2  3  1  0
  4  3  2  0
  5  4  1  0
  6  1  1  0
  6  5  2  0
  7 12  2  0
  7  8  1  0
  8  9  2  0
  9 10  1  0
  9 13  1  0
 11 10  2  0
 12 11  1  0
 14  1  1  0
 15  6  1  0
 16 17  2  0
 17 15  1  0
 18 17  1  0
 19 18  2  0
 20 19  1  0
 21 20  1  0
 22 21  2  0
 22 23  1  0
 23 24  2  0
 23 19  1  0
 24 16  1  0
 25 30  1  0
 25 24  1  0
 26 25  1  0
 27 28  1  0
 27 26  1  0
 28 29  1  0
 29 30  1  0
  3 31  1  0
  4 32  1  0
  5 33  1  0
  7 34  1  0
 11 35  1  0
 13 36  1  0
 13 37  1  0
 13 38  1  0
 14 39  1  0
 16 40  1  0
 18 41  1  0
 20 42  1  0
 21 43  1  0
 26 44  1  0
 26 45  1  0
 27 46  1  0
 27 47  1  0
 29 48  1  0
 29 49  1  0
 30 50  1  0
 30 51  1  0
M  ISO  8  31  14  32  14  33  14  34  14  35  14  36   8  37   8  38   8
M  ISO  8  39   3  40  14  41  14  42   9  43  14  44  13  45  13  46  13
M  ISO  5  47  13  48  13  49  13  50  13  51  13
M  END
>  <minimizedAffinity>  (1) 
-7.83406448

>  <minimizedRMSD>  (1) 
0.933711648

$$$$
