
     RDKit          3D

 33 35  0  0  0  0  0  0  0  0999 V2000
   37.3670   31.3530   49.2039 C   0  0  0  0  0  0  0  0  0  0  0  0
   37.7103   32.6564   49.5929 C   0  0  0  0  0  0  0  0  0  0  0  0
   38.5923   33.3365   48.7655 C   0  0  0  0  0  0  0  0  0  0  0  0
   39.0653   32.7196   47.6487 N   0  0  0  0  0  0  0  0  0  0  0  0
   38.7050   31.4572   47.3118 C   0  0  0  0  0  0  0  0  0  0  0  0
   37.8341   30.7510   48.1073 N   0  0  0  0  0  0  0  0  0  0  0  0
   36.3881   30.6112   50.0564 C   0  0  0  0  0  0  0  0  0  0  0  0
   36.2633   29.1759   50.0535 C   0  0  0  0  0  0  0  0  0  0  0  0
   37.0524   29.8049   51.1802 C   0  0  0  0  0  0  0  0  0  0  0  0
   39.1890   30.8062   46.1036 C   0  0  0  0  0  0  0  0  0  0  0  0
   37.3442   33.1435   50.4630 H   0  0  0  0  0  0  0  0  0  0  0  0
   38.9480   34.3417   48.9330 H   0  0  0  0  0  0  0  0  0  0  0  0
   35.5282   31.2461   50.3632 H   0  0  0  0  0  0  0  0  0  0  0  0
   36.9170   28.5717   49.3618 H   0  0  0  0  0  0  0  0  0  0  0  0
   35.2985   28.6979   50.2531 H   0  0  0  0  0  0  0  0  0  0  0  0
   36.6081   29.9981   52.1610 H   0  0  0  0  0  0  0  0  0  0  0  0
   38.1557   29.7306   51.1804 H   0  0  0  0  0  0  0  0  0  0  0  0
   40.1801   31.2009   45.7507 H   0  0  0  0  0  0  0  0  0  0  0  0
   39.2881   29.7249   46.2664 H   0  0  0  0  0  0  0  0  0  0  0  0
   38.2311   31.1237   45.0528 N   0  0  0  0  0  0  0  0  0  0  0  0
   38.8114   31.8279   43.9581 C   0  0  1  0  0  0  0  0  0  0  0  0
   38.7445   32.9174   44.1839 H   0  0  0  0  0  0  0  0  0  0  0  0
   38.1104   31.6187   42.6479 C   0  0  2  0  0  0  0  0  0  0  0  0
   38.8090   31.9002   41.8326 H   0  0  0  0  0  0  0  0  0  0  0  0
   37.7145   30.3031   42.4226 O   0  0  0  0  0  0  0  0  0  0  0  0
   36.7761   30.0044   43.4184 C   0  0  0  0  0  0  0  0  0  0  0  0
   37.5350   29.9218   44.7197 C   0  0  0  0  0  0  0  0  0  0  0  0
   39.8988   31.6128   43.9010 H   0  0  0  0  0  0  0  0  0  0  0  0
   37.1870   32.2563   42.6010 H   0  0  0  0  0  0  0  0  0  0  0  0
   36.3338   28.9886   43.2572 H   0  0  0  0  0  0  0  0  0  0  0  0
   35.9851   30.7454   43.5280 H   0  0  0  0  0  0  0  0  0  0  0  0
   38.1850   29.0229   44.6661 H   0  0  0  0  0  0  0  0  0  0  0  0
   36.7897   29.7187   45.5175 H   0  0  0  0  0  0  0  0  0  0  0  0
  1  2  2  0
  1  7  1  0
  3  2  1  0
  4  3  2  0
  5  4  1  0
  5  6  2  0
  6  1  1  0
  7  9  1  0
  8  7  1  0
  8  9  1  0
 10  5  1  0
  2 11  1  0
  3 12  1  0
  7 13  1  0
  8 14  1  0
  8 15  1  0
  9 16  1  0
  9 17  1  0
 10 18  1  0
 10 19  1  0
 20 21  1  0
 21 22  1  1
 21 23  1  0
 23 24  1  6
 23 25  1  0
 25 26  1  0
 26 27  1  0
 27 20  1  0
 21 28  1  0
 23 29  1  0
 26 30  1  0
 26 31  1  0
 27 32  1  0
 27 33  1  0
 10 20  1  0
M  ISO  8  11  14  12  14  13  13  14  13  15  13  16  13  17  13  18   8
M  ISO  3  19   8  22   8  24  15
M  END
>  <DihAtoms>  (1) 
4,9,19,20

>  <DihDeg>  (1) 
179.99480937307993

$$$$
