
     RDKit          3D

 49 52  0  0  0  0  0  0  0  0999 V2000
   38.4169   32.2725   48.7678 C   0  0  0  0  0  0  0  0  0  0  0  0
   38.7927   33.2727   49.6544 C   0  0  0  0  0  0  0  0  0  0  0  0
   39.6243   34.3181   49.2285 C   0  0  0  0  0  0  0  0  0  0  0  0
   40.0441   34.3060   47.9103 C   0  0  0  0  0  0  0  0  0  0  0  0
   39.6780   33.3223   47.0286 C   0  0  0  0  0  0  0  0  0  0  0  0
   38.8410   32.2784   47.4751 C   0  0  0  0  0  0  0  0  0  0  0  0
   37.0148   29.2856   50.6068 C   0  0  0  0  0  0  0  0  0  0  0  0
   37.9666   30.2053   50.1233 C   0  0  0  0  0  0  0  0  0  0  0  0
   37.5389   31.2594   49.3191 C   0  0  0  0  0  0  0  0  0  0  0  0
   36.2188   31.3176   49.0610 N   0  0  0  0  0  0  0  0  0  0  0  0
   35.3118   30.4377   49.5242 C   0  0  0  0  0  0  0  0  0  0  0  0
   35.7152   29.4346   50.2891 N   0  0  0  0  0  0  0  0  0  0  0  0
   38.5497   31.2427   46.4827 C   0  0  1  0  0  0  0  0  0  0  0  0
   37.4199   31.6856   45.5137 C   0  0  0  0  0  0  0  0  0  0  0  0
   36.9762   30.3631   44.8575 C   0  0  0  0  0  0  0  0  0  0  0  0
   38.0800   29.9821   43.9279 C   0  0  0  0  0  0  0  0  0  0  0  0
   39.3592   29.7605   44.6997 C   0  0  0  0  0  0  0  0  0  0  0  0
   39.7068   30.9247   45.5835 C   0  0  2  0  0  0  0  0  0  0  0  0
   38.4708   33.2931   50.6880 H   0  0  0  0  0  0  0  0  0  0  0  0
   39.9349   35.1126   49.8955 H   0  0  0  0  0  0  0  0  0  0  0  0
   40.6920   35.1384   47.6144 H   0  0  0  0  0  0  0  0  0  0  0  0
   40.0740   33.4348   46.0341 H   0  0  0  0  0  0  0  0  0  0  0  0
   37.4160   28.4973   51.2216 H   0  0  0  0  0  0  0  0  0  0  0  0
   39.0208   30.1618   50.3270 H   0  0  0  0  0  0  0  0  0  0  0  0
   34.2909   30.5979   49.2445 H   0  0  0  0  0  0  0  0  0  0  0  0
   38.1054   30.3773   46.9983 H   0  0  0  0  0  0  0  0  0  0  0  0
   37.8825   32.3368   44.7448 H   0  0  0  0  0  0  0  0  0  0  0  0
   36.5963   32.1727   46.0553 H   0  0  0  0  0  0  0  0  0  0  0  0
   36.8690   29.6388   45.7004 H   0  0  0  0  0  0  0  0  0  0  0  0
   36.0340   30.5396   44.3347 H   0  0  0  0  0  0  0  0  0  0  0  0
   38.2062   30.8304   43.2174 H   0  0  0  0  0  0  0  0  0  0  0  0
   37.8534   29.0332   43.4178 H   0  0  0  0  0  0  0  0  0  0  0  0
   39.2475   28.8096   45.2315 H   0  0  0  0  0  0  0  0  0  0  0  0
   40.1534   29.6623   43.9314 H   0  0  0  0  0  0  0  0  0  0  0  0
   39.8583   31.7931   44.8917 H   0  0  0  0  0  0  0  0  0  0  0  0
   40.9312   30.7037   46.2634 N   0  0  0  0  0  0  0  0  0  0  0  0
   41.2680   29.3193   46.3005 C   0  0  1  0  0  0  0  0  0  0  0  0
   40.7941   28.7083   45.5345 H   0  0  0  0  0  0  0  0  0  0  0  0
   41.0962   28.7531   47.6898 C   0  0  2  0  0  0  0  0  0  0  0  0
   41.3387   27.6637   47.6511 H   0  0  0  0  0  0  0  0  0  0  0  0
   41.9999   29.3583   48.5535 O   0  0  0  0  0  0  0  0  0  0  0  0
   42.1037   30.7230   48.3975 C   0  0  0  0  0  0  0  0  0  0  0  0
   41.0400   31.3454   47.5421 C   0  0  0  0  0  0  0  0  0  0  0  0
   42.3761   29.2434   46.0977 H   0  0  0  0  0  0  0  0  0  0  0  0
   40.0966   28.8527   48.1115 H   0  0  0  0  0  0  0  0  0  0  0  0
   43.1254   31.0111   48.1202 H   0  0  0  0  0  0  0  0  0  0  0  0
   41.9525   31.1566   49.4283 H   0  0  0  0  0  0  0  0  0  0  0  0
   41.2844   32.4205   47.4577 H   0  0  0  0  0  0  0  0  0  0  0  0
   40.1080   31.3013   48.1391 H   0  0  0  0  0  0  0  0  0  0  0  0
  1  9  1  0
  1  2  2  0
  3  2  1  0
  4  3  2  0
  5  6  2  0
  5  4  1  0
  6  1  1  0
  8  7  2  0
  9  8  1  0
 10  9  2  0
 10 11  1  0
 11 12  2  0
 12  7  1  0
 13  6  1  0
 14 13  1  0
 15 14  1  0
 16 17  1  0
 16 15  1  0
 17 18  1  0
 18 13  1  0
  2 19  1  0
  3 20  1  0
  4 21  1  0
  5 22  1  0
  7 23  1  0
  8 24  1  0
 11 25  1  0
 13 26  1  1
 14 27  1  0
 14 28  1  0
 15 29  1  0
 15 30  1  0
 16 31  1  0
 16 32  1  0
 17 33  1  0
 17 34  1  0
 18 35  1  6
 36 37  1  0
 37 38  1  6
 37 39  1  0
 39 40  1  6
 39 41  1  0
 41 42  1  0
 42 43  1  0
 43 36  1  0
 37 44  1  0
 39 45  1  0
 42 46  1  0
 42 47  1  0
 43 48  1  0
 43 49  1  0
 18 36  1  0
M  ISO  8  19  14  20  14  21  14  22  14  23  14  24  14  25  14  26  13
M  ISO  8  27  13  28  13  29  13  30  13  31  13  32  13  33  13  34  13
M  ISO  3  35  13  38   8  40  15
M  END
>  <DihAtoms>  (1) 
16,17,35,36

>  <DihDeg>  (1) 
55.14049112425789

$$$$
