
     RDKit          3D

 49 51  0  0  1  0  0  0  0  0999 V2000
   37.5900   31.0970   48.8930 C   0  0  0  0  0  0  0  0  0  0  0  0
   37.5090   32.1010   49.8590 C   0  0  0  0  0  0  0  0  0  0  0  0
   38.1520   33.3220   49.7000 C   0  0  0  0  0  0  0  0  0  0  0  0
   38.8990   33.5570   48.5420 C   0  0  0  0  0  0  0  0  0  0  0  0
   38.9680   32.5640   47.6070 C   0  0  0  0  0  0  0  0  0  0  0  0
   38.3140   31.3570   47.8000 C   0  0  0  0  0  0  0  0  0  0  0  0
   36.9530   29.8110   49.0770 C   0  0  2  0  0  0  0  0  0  0  0  0
   33.9230   30.1530   47.1040 C   0  0  0  0  0  0  0  0  0  0  0  0
   33.2260   28.9840   47.3540 C   0  0  0  0  0  0  0  0  0  0  0  0
   33.7630   28.0880   48.2580 C   0  0  0  0  0  0  0  0  0  0  0  0
   34.9610   28.3840   48.8740 N   0  0  0  0  0  0  0  0  0  0  0  0
   35.5770   29.5130   48.5900 C   0  0  0  0  0  0  0  0  0  0  0  0
   35.0680   30.3980   47.7150 N   0  0  0  0  0  0  0  0  0  0  0  0
   37.4330   29.1610   50.0800 O   0  0  0  0  0  0  0  0  0  0  0  0
   38.4940   30.3860   46.7460 C   0  0  0  0  0  0  0  0  0  0  0  0
   39.0130   30.6760   45.5470 C   0  0  0  0  0  0  0  0  0  0  0  0
   39.2810   29.7590   44.4140 C   0  0  0  0  0  0  0  0  0  0  0  0
   40.3260   30.5830   43.2090 S   0  0  0  0  0  0  0  0  0  0  0  0
   41.2090   29.1690   41.1010 C   0  0  1  0  0  0  0  0  0  0  0  0
   40.0540   30.0620   41.5190 C   0  0  2  0  0  0  0  0  0  0  0  0
   39.9000   31.1390   40.6590 O   0  0  0  0  0  0  0  0  0  0  0  0
   39.8950   30.6540   39.3460 C   0  0  0  0  0  0  0  0  0  0  0  0
   41.3450   30.4170   38.9880 C   0  0  1  0  0  0  0  0  0  0  0  0
   42.1530   29.8910   40.1510 C   0  0  2  0  0  0  0  0  0  0  0  0
   41.9740   28.7980   42.2090 O   0  0  0  0  0  0  0  0  0  0  0  0
   41.4290   29.4830   37.9810 O   0  0  0  0  0  0  0  0  0  0  0  0
   43.1120   28.9630   39.7460 O   0  0  0  0  0  0  0  0  0  0  0  0
   36.9203   31.9206   50.7705 H   0  0  0  0  0  0  0  0  0  0  0  0
   38.0742   34.0962   50.4775 H   0  0  0  0  0  0  0  0  0  0  0  0
   39.4169   34.5152   48.3882 H   0  0  0  0  0  0  0  0  0  0  0  0
   39.5507   32.7241   46.6879 H   0  0  0  0  0  0  0  0  0  0  0  0
   37.2658   29.2908   48.1597 H   0  0  0  0  0  0  0  0  0  0  0  0
   33.5195   30.8854   46.3894 H   0  0  0  0  0  0  0  0  0  0  0  0
   32.2722   28.7743   46.8477 H   0  0  0  0  0  0  0  0  0  0  0  0
   33.2400   27.1472   48.4844 H   0  0  0  0  0  0  0  0  0  0  0  0
   37.1242   29.5792   50.9225 H   0  0  0  0  0  0  0  0  0  0  0  0
   38.1866   29.3478   46.9401 H   0  0  0  0  0  0  0  0  0  0  0  0
   39.2745   31.7315   45.3810 H   0  0  0  0  0  0  0  0  0  0  0  0
   39.7903   28.8574   44.7850 H   0  0  0  0  0  0  0  0  0  0  0  0
   38.3298   29.4750   43.9401 H   0  0  0  0  0  0  0  0  0  0  0  0
   40.7603   28.2918   40.6120 H   0  0  0  0  0  0  0  0  0  0  0  0
   39.1115   29.4979   41.4612 H   0  0  0  0  0  0  0  0  0  0  0  0
   39.3275   29.7135   39.2873 H   0  0  0  0  0  0  0  0  0  0  0  0
   39.4184   31.3641   38.6542 H   0  0  0  0  0  0  0  0  0  0  0  0
   41.7515   31.3917   38.6802 H   0  0  0  0  0  0  0  0  0  0  0  0
   42.6585   30.7469   40.6222 H   0  0  0  0  0  0  0  0  0  0  0  0
   41.4885   29.0335   43.0390 H   0  0  0  0  0  0  0  0  0  0  0  0
   41.5103   28.5787   38.3756 H   0  0  0  0  0  0  0  0  0  0  0  0
   43.5337   28.5549   40.5433 H   0  0  0  0  0  0  0  0  0  0  0  0
  1  7  1  0
  1  2  2  0
  3  2  1  0
  4  3  2  0
  5  6  2  0
  5  4  1  0
  6  1  1  0
  7 14  1  0
  8  9  2  0
  8 13  1  0
  9 10  1  0
 10 11  2  0
 12 11  1  0
 12  7  1  0
 13 12  2  0
 15  6  1  0
 16 15  2  0
 17 16  1  0
 18 17  1  0
 19 20  1  0
 19 25  1  0
 20 18  1  0
 21 20  1  0
 22 21  1  0
 23 26  1  0
 23 22  1  0
 23 24  1  0
 24 27  1  0
 24 19  1  0
  2 28  1  0
  3 29  1  0
  4 30  1  0
  5 31  1  0
  7 32  1  6
  8 33  1  0
  9 34  1  0
 10 35  1  0
 14 36  1  0
 15 37  1  0
 16 38  1  0
 17 39  1  0
 17 40  1  0
 19 41  1  6
 20 42  1  1
 22 43  1  0
 22 44  1  0
 23 45  1  6
 24 46  1  1
 25 47  1  0
 26 48  1  0
 27 49  1  0
M  ISO  8  28  14  29  14  30  14  31  14  32   8  33  14  34  14  35  14
M  ISO  8  36   3  39   8  40   8  41  13  42  13  43  13  44  13  45  13
M  ISO  4  46  13  47   3  48   3  49   3
M  END
>  <minimizedAffinity>  (1) 
-6.61872339

>  <minimizedRMSD>  (1) 
1.05845153

$$$$
