
     RDKit          3D

 41 43  0  0  0  0  0  0  0  0999 V2000
   39.4627   31.8964   46.7007 C   0  0  0  0  0  0  0  0  0  0  0  0
   39.5956   30.7157   46.0381 C   0  0  0  0  0  0  0  0  0  0  0  0
   39.9100   30.7050   44.7188 C   0  0  0  0  0  0  0  0  0  0  0  0
   40.0896   31.9261   44.0732 C   0  0  0  0  0  0  0  0  0  0  0  0
   39.9545   33.1116   44.7446 C   0  0  0  0  0  0  0  0  0  0  0  0
   39.6374   33.0582   46.0709 N   0  0  0  0  0  0  0  0  0  0  0  0
   40.1525   34.4212   44.0358 C   0  0  0  0  0  0  0  0  0  0  0  0
   39.1453   32.0894   48.0493 O   0  0  0  0  0  0  0  0  0  0  0  0
   38.1692   31.0237   49.8937 C   0  0  0  0  0  0  0  0  0  0  0  0
   38.0457   31.4260   48.5362 C   0  0  0  0  0  0  0  0  0  0  0  0
   36.8785   31.1254   47.8574 C   0  0  0  0  0  0  0  0  0  0  0  0
   35.9209   30.4610   48.5385 N   0  0  0  0  0  0  0  0  0  0  0  0
   36.0570   30.0999   49.7916 C   0  0  0  0  0  0  0  0  0  0  0  0
   37.1867   30.3612   50.5355 N   0  0  0  0  0  0  0  0  0  0  0  0
   34.5855   29.2333   50.4178 S   0  0  0  0  0  0  0  0  0  0  0  0
   39.4288   29.8352   46.6601 H   0  0  0  0  0  0  0  0  0  0  0  0
   40.0067   29.7507   44.2305 H   0  0  0  0  0  0  0  0  0  0  0  0
   40.3439   31.9190   43.0069 H   0  0  0  0  0  0  0  0  0  0  0  0
   40.9230   34.3013   43.2479 H   0  0  0  0  0  0  0  0  0  0  0  0
   39.1856   34.6541   43.5109 H   0  0  0  0  0  0  0  0  0  0  0  0
   40.3885   35.2357   44.7479 H   0  0  0  0  0  0  0  0  0  0  0  0
   39.0564   31.2326   50.4673 H   0  0  0  0  0  0  0  0  0  0  0  0
   36.8230   31.4424   46.8472 H   0  0  0  0  0  0  0  0  0  0  0  0
   34.7901   26.4762   51.6458 O   0  0  0  0  0  0  0  0  0  0  0  0
   35.6299   27.4841   52.1748 C   0  0  1  0  0  0  0  0  0  0  0  0
   34.8147   28.7561   52.1551 C   0  0  1  0  0  0  0  0  0  0  0  0
   35.4332   29.8093   52.7844 O   0  0  0  0  0  0  0  0  0  0  0  0
   36.2151   29.4519   53.8628 C   0  0  0  0  0  0  0  0  0  0  0  0
   35.7869   28.1702   54.5127 C   0  0  1  0  0  0  0  0  0  0  0  0
   34.4904   28.2155   54.9900 O   0  0  0  0  0  0  0  0  0  0  0  0
   36.0245   27.0432   53.5492 C   0  0  2  0  0  0  0  0  0  0  0  0
   37.4028   26.8022   53.5465 O   0  0  0  0  0  0  0  0  0  0  0  0
   34.0526   26.3334   52.3135 H   0  0  0  0  0  0  0  0  0  0  0  0
   36.4971   27.5075   51.4887 H   0  0  0  0  0  0  0  0  0  0  0  0
   33.7997   28.5300   52.5386 H   0  0  0  0  0  0  0  0  0  0  0  0
   37.2556   29.3012   53.4848 H   0  0  0  0  0  0  0  0  0  0  0  0
   36.2666   30.2361   54.6293 H   0  0  0  0  0  0  0  0  0  0  0  0
   36.4848   27.9991   55.3784 H   0  0  0  0  0  0  0  0  0  0  0  0
   34.2835   29.1423   55.3139 H   0  0  0  0  0  0  0  0  0  0  0  0
   35.4646   26.1305   53.8912 H   0  0  0  0  0  0  0  0  0  0  0  0
   37.7852   26.7429   54.4446 H   0  0  0  0  0  0  0  0  0  0  0  0
  1  8  1  0
  2  1  2  0
  3  2  1  0
  4  3  2  0
  4  5  1  0
  5  6  2  0
  6  1  1  0
  7  5  1  0
  8 10  1  0
  9 14  2  0
 10  9  1  0
 11 10  2  0
 11 12  1  0
 12 13  2  0
 13 15  1  0
 13 14  1  0
  2 16  1  0
  3 17  1  0
  4 18  1  0
  7 19  1  0
  7 20  1  0
  7 21  1  0
  9 22  1  0
 11 23  1  0
 24 25  1  0
 25 26  1  0
 26 27  1  0
 27 28  1  0
 28 29  1  0
 29 30  1  0
 29 31  1  0
 31 32  1  0
 31 25  1  0
 24 33  1  0
 25 34  1  6
 26 35  1  1
 28 36  1  0
 28 37  1  0
 29 38  1  1
 30 39  1  0
 31 40  1  1
 32 41  1  0
 15 26  1  0
M  ISO  8  16  14  17  14  18  14  19   8  20   8  21   8  22  14  23  14
M  END
>  <DihAtoms>  (1) 
12,14,25,24

>  <DihDeg>  (1) 
-66.1517538743066

$$$$
