
     RDKit          3D

 32 33  0  0  0  0  0  0  0  0999 V2000
   37.7680   30.5230   49.3394 C   0  0  0  0  0  0  0  0  0  0  0  0
   38.2383   31.7254   49.8396 C   0  0  0  0  0  0  0  0  0  0  0  0
   38.6223   32.6881   48.9164 C   0  0  0  0  0  0  0  0  0  0  0  0
   38.5293   32.4321   47.5742 N   0  0  0  0  0  0  0  0  0  0  0  0
   38.0590   31.2310   47.1534 C   0  0  0  0  0  0  0  0  0  0  0  0
   37.6879   30.3006   48.0324 N   0  0  0  0  0  0  0  0  0  0  0  0
   37.2904   29.3317   50.5876 S   0  0  0  0  0  0  0  0  0  0  0  0
   35.4913   29.3489   50.7371 C   0  0  0  0  0  0  0  0  0  0  0  0
   34.6976   28.4032   49.3918 S   0  0  0  0  0  0  0  0  0  0  0  0
   38.3133   31.9329   50.9120 H   0  0  0  0  0  0  0  0  0  0  0  0
   39.0030   33.6577   49.2076 H   0  0  0  0  0  0  0  0  0  0  0  0
   37.9879   31.0337   46.0951 H   0  0  0  0  0  0  0  0  0  0  0  0
   35.1762   28.9007   51.7030 H   0  0  0  0  0  0  0  0  0  0  0  0
   35.1286   30.3953   50.7322 H   0  0  0  0  0  0  0  0  0  0  0  0
   32.9659   25.6598   50.1365 O   0  0  0  0  0  0  0  0  0  0  0  0
   33.9253   25.7566   49.1469 C   0  0  1  0  0  0  0  0  0  0  0  0
   35.0902   26.6465   49.5212 C   0  0  2  0  0  0  0  0  0  0  0  0
   35.5096   26.2883   50.7816 O   0  0  0  0  0  0  0  0  0  0  0  0
   36.1661   25.0687   50.7056 C   0  0  0  0  0  0  0  0  0  0  0  0
   35.3483   23.9581   50.1044 C   0  0  1  0  0  0  0  0  0  0  0  0
   34.4880   23.3424   51.0029 O   0  0  0  0  0  0  0  0  0  0  0  0
   34.5632   24.3880   48.8772 C   0  0  2  0  0  0  0  0  0  0  0  0
   35.4454   24.5731   47.8048 O   0  0  0  0  0  0  0  0  0  0  0  0
   33.3090   25.3701   50.9959 H   0  0  0  0  0  0  0  0  0  0  0  0
   33.4946   26.1253   48.2131 H   0  0  0  0  0  0  0  0  0  0  0  0
   35.9067   26.4353   48.8050 H   0  0  0  0  0  0  0  0  0  0  0  0
   37.0686   25.1945   50.0492 H   0  0  0  0  0  0  0  0  0  0  0  0
   36.4935   24.7166   51.7115 H   0  0  0  0  0  0  0  0  0  0  0  0
   36.0856   23.1947   49.7261 H   0  0  0  0  0  0  0  0  0  0  0  0
   33.8188   22.8437   50.4480 H   0  0  0  0  0  0  0  0  0  0  0  0
   33.8460   23.6169   48.6148 H   0  0  0  0  0  0  0  0  0  0  0  0
   36.0372   23.7972   47.6650 H   0  0  0  0  0  0  0  0  0  0  0  0
  1  2  2  0
  1  7  1  0
  3  2  1  0
  4  3  2  0
  5  4  1  0
  5  6  2  0
  6  1  1  0
  7  8  1  0
  9  8  1  0
  2 10  1  0
  3 11  1  0
  5 12  1  0
  8 13  1  0
  8 14  1  0
 15 16  1  0
 16 17  1  0
 17 18  1  0
 18 19  1  0
 19 20  1  0
 20 21  1  0
 20 22  1  0
 22 23  1  0
 22 16  1  0
 15 24  1  0
 16 25  1  6
 17 26  1  6
 19 27  1  0
 19 28  1  0
 20 29  1  6
 21 30  1  0
 22 31  1  6
 23 32  1  0
  9 17  1  0
M  ISO  5  10  14  11  14  12  14  13   8  14   8
M  END
>  <DihAtoms>  (1) 
7,8,16,15

>  <DihDeg>  (1) 
67.51312599870579

$$$$
