
     RDKit          3D

 32 33  0  0  0  0  0  0  0  0999 V2000
   37.7680   30.5230   49.3394 C   0  0  0  0  0  0  0  0  0  0  0  0
   38.2383   31.7254   49.8396 C   0  0  0  0  0  0  0  0  0  0  0  0
   38.6223   32.6881   48.9164 C   0  0  0  0  0  0  0  0  0  0  0  0
   38.5293   32.4321   47.5742 N   0  0  0  0  0  0  0  0  0  0  0  0
   38.0590   31.2310   47.1534 C   0  0  0  0  0  0  0  0  0  0  0  0
   37.6879   30.3006   48.0324 N   0  0  0  0  0  0  0  0  0  0  0  0
   37.2904   29.3317   50.5876 S   0  0  0  0  0  0  0  0  0  0  0  0
   35.4913   29.3489   50.7371 C   0  0  0  0  0  0  0  0  0  0  0  0
   34.6976   28.4032   49.3918 S   0  0  0  0  0  0  0  0  0  0  0  0
   38.3133   31.9329   50.9120 H   0  0  0  0  0  0  0  0  0  0  0  0
   39.0030   33.6577   49.2076 H   0  0  0  0  0  0  0  0  0  0  0  0
   37.9879   31.0337   46.0951 H   0  0  0  0  0  0  0  0  0  0  0  0
   35.1762   28.9007   51.7030 H   0  0  0  0  0  0  0  0  0  0  0  0
   35.1286   30.3953   50.7322 H   0  0  0  0  0  0  0  0  0  0  0  0
   35.1381   26.2762   51.9140 O   0  0  0  0  0  0  0  0  0  0  0  0
   34.4696   25.9954   50.7378 C   0  0  0  0  0  0  0  0  0  0  0  0
   35.0902   26.6465   49.5212 C   0  0  0  0  0  0  0  0  0  0  0  0
   36.4445   26.4070   49.5565 O   0  0  0  0  0  0  0  0  0  0  0  0
   36.6721   25.0743   49.2462 C   0  0  0  0  0  0  0  0  0  0  0  0
   35.9569   24.0966   50.1387 C   0  0  0  0  0  0  0  0  0  0  0  0
   36.6133   23.8418   51.3348 O   0  0  0  0  0  0  0  0  0  0  0  0
   34.5204   24.4930   50.4329 C   0  0  0  0  0  0  0  0  0  0  0  0
   33.7427   24.3015   49.2835 O   0  0  0  0  0  0  0  0  0  0  0  0
   36.0823   26.0563   51.8969 H   0  0  0  0  0  0  0  0  0  0  0  0
   33.4219   26.2993   50.7960 H   0  0  0  0  0  0  0  0  0  0  0  0
   34.6670   26.1454   48.6302 H   0  0  0  0  0  0  0  0  0  0  0  0
   36.3015   24.8871   48.2028 H   0  0  0  0  0  0  0  0  0  0  0  0
   37.7566   24.8211   49.2985 H   0  0  0  0  0  0  0  0  0  0  0  0
   35.8805   23.1362   49.5545 H   0  0  0  0  0  0  0  0  0  0  0  0
   35.9322   23.4260   51.9412 H   0  0  0  0  0  0  0  0  0  0  0  0
   34.1275   23.8726   51.2320 H   0  0  0  0  0  0  0  0  0  0  0  0
   33.8516   23.3997   48.9004 H   0  0  0  0  0  0  0  0  0  0  0  0
  1  2  2  0
  1  7  1  0
  3  2  1  0
  4  3  2  0
  5  4  1  0
  5  6  2  0
  6  1  1  0
  7  8  1  0
  9  8  1  0
  2 10  1  0
  3 11  1  0
  5 12  1  0
  8 13  1  0
  8 14  1  0
 15 16  1  0
 16 17  1  0
 17 18  1  0
 18 19  1  0
 19 20  1  0
 20 21  1  0
 20 22  1  0
 22 23  1  0
 22 16  1  0
 15 24  1  0
 16 25  1  0
 17 26  1  0
 19 27  1  0
 19 28  1  0
 20 29  1  0
 21 30  1  0
 22 31  1  0
 23 32  1  0
  9 17  1  0
M  ISO  5  10  14  11  14  12  14  13   8  14   8
M  END
>  <DihAtoms>  (1) 
7,8,16,15

>  <DihDeg>  (1) 
67.51312599870579

$$$$
