
     RDKit          3D

 38 40  0  0  1  0  0  0  0  0999 V2000
   35.2670   28.9540   49.3250 C   0  0  0  0  0  0  0  0  0  0  0  0
   35.2600   30.0630   48.4590 C   0  0  0  0  0  0  0  0  0  0  0  0
   34.2030   30.2000   47.5580 C   0  0  0  0  0  0  0  0  0  0  0  0
   33.2260   29.2610   47.5550 N   0  0  0  0  0  0  0  0  0  0  0  0
   33.2480   28.2160   48.3820 C   0  0  0  0  0  0  0  0  0  0  0  0
   34.2700   28.0420   49.2850 N   0  0  0  0  0  0  0  0  0  0  0  0
   36.3410   30.9850   48.5540 N   0  0  0  0  0  0  0  0  0  0  0  0
   36.5960   31.6790   49.6840 C   0  0  0  0  0  0  0  0  0  0  0  0
   37.6700   32.5680   49.7210 C   0  0  0  0  0  0  0  0  0  0  0  0
   38.3870   32.6520   48.5560 C   0  0  0  0  0  0  0  0  0  0  0  0
   39.3590   33.4630   48.6030 O   0  0  0  0  0  0  0  0  0  0  0  0
   38.1600   31.9830   47.4310 N   0  0  0  0  0  0  0  0  0  0  0  0
   37.1080   31.1330   47.4460 C   0  0  0  0  0  0  0  0  0  0  0  0
   36.8800   30.4910   46.3850 O   0  0  0  0  0  0  0  0  0  0  0  0
   32.2630   27.2240   48.4170 O   0  0  0  0  0  0  0  0  0  0  0  0
   30.1260   27.6490   49.5220 C   0  0  2  0  0  0  0  0  0  0  0  0
   30.9320   27.7420   48.2680 C   0  0  2  0  0  0  0  0  0  0  0  0
   30.3350   26.9840   47.2650 O   0  0  0  0  0  0  0  0  0  0  0  0
   29.3440   27.7820   46.7000 C   0  0  0  0  0  0  0  0  0  0  0  0
   28.4450   28.3390   47.7720 C   0  0  2  0  0  0  0  0  0  0  0  0
   28.6680   27.6880   49.1150 C   0  0  1  0  0  0  0  0  0  0  0  0
   30.4410   28.7510   50.3300 O   0  0  0  0  0  0  0  0  0  0  0  0
   27.1360   28.0330   47.3830 O   0  0  0  0  0  0  0  0  0  0  0  0
   28.1800   26.3740   48.9910 O   0  0  0  0  0  0  0  0  0  0  0  0
   36.0919   28.8279   50.0416 H   0  0  0  0  0  0  0  0  0  0  0  0
   34.1638   31.0529   46.8644 H   0  0  0  0  0  0  0  0  0  0  0  0
   35.9597   31.5438   50.5710 H   0  0  0  0  0  0  0  0  0  0  0  0
   37.9220   33.1561   50.6158 H   0  0  0  0  0  0  0  0  0  0  0  0
   38.7507   32.1045   46.5960 H   0  0  0  0  0  0  0  0  0  0  0  0
   30.3356   26.7267   50.0837 H   0  0  0  0  0  0  0  0  0  0  0  0
   30.9782   28.8130   48.0215 H   0  0  0  0  0  0  0  0  0  0  0  0
   29.8149   28.6127   46.1539 H   0  0  0  0  0  0  0  0  0  0  0  0
   28.7424   27.1704   46.0115 H   0  0  0  0  0  0  0  0  0  0  0  0
   28.6461   29.4153   47.8774 H   0  0  0  0  0  0  0  0  0  0  0  0
   28.1532   28.2686   49.8947 H   0  0  0  0  0  0  0  0  0  0  0  0
   30.3673   28.4932   51.2830 H   0  0  0  0  0  0  0  0  0  0  0  0
   26.5747   27.9018   48.1879 H   0  0  0  0  0  0  0  0  0  0  0  0
   28.0369   25.9887   49.8917 H   0  0  0  0  0  0  0  0  0  0  0  0
  2  7  1  0
  2  1  2  0
  3  2  1  0
  4  3  2  0
  4  5  1  0
  5 15  1  0
  5  6  2  0
  6  1  1  0
  7  8  1  0
  8  9  2  0
 10 11  2  0
 10  9  1  0
 12 13  1  0
 12 10  1  0
 13  7  1  0
 14 13  2  0
 16 22  1  0
 17 15  1  0
 17 16  1  0
 18 17  1  0
 19 18  1  0
 19 20  1  0
 20 23  1  0
 20 21  1  0
 21 24  1  0
 21 16  1  0
  1 25  1  0
  3 26  1  0
  8 27  1  0
  9 28  1  0
 12 29  1  0
 16 30  1  1
 17 31  1  6
 19 32  1  0
 19 33  1  0
 20 34  1  1
 21 35  1  1
 22 36  1  0
 23 37  1  0
 24 38  1  0
M  ISO  8  25  14  26  14  27  14  28  14  29   9  30  13  31  13  32  13
M  ISO  6  33  13  34  13  35  13  36   3  37   3  38   3
M  END
>  <minimizedAffinity>  (1) 
-6.36488152

>  <minimizedRMSD>  (1) 
1.65572858

$$$$
