
     RDKit          3D

 28 29  0  0  0  0  0  0  0  0999 V2000
   37.3302   30.2348   51.4218 C   0  0  0  0  0  0  0  0  0  0  0  0
   38.0855   30.7423   50.3499 C   0  0  0  0  0  0  0  0  0  0  0  0
   37.6996   30.3744   49.0476 C   0  0  0  0  0  0  0  0  0  0  0  0
   36.6063   29.5398   48.8952 N   0  0  0  0  0  0  0  0  0  0  0  0
   35.9232   29.0865   49.9611 C   0  0  0  0  0  0  0  0  0  0  0  0
   36.2770   29.4273   51.2155 N   0  0  0  0  0  0  0  0  0  0  0  0
   34.8702   28.2699   49.5981 O   0  0  0  0  0  0  0  0  0  0  0  0
   37.5627   30.4709   52.4535 H   0  0  0  0  0  0  0  0  0  0  0  0
   38.9229   31.3862   50.5453 H   0  0  0  0  0  0  0  0  0  0  0  0
   38.2434   30.7359   48.2084 H   0  0  0  0  0  0  0  0  0  0  0  0
   32.4449   27.8432   48.7459 O   0  0  0  0  0  0  0  0  0  0  0  0
   32.6165   27.4610   50.0928 C   0  0  2  0  0  0  0  0  0  0  0  0
   34.0149   27.6812   50.5719 C   0  0  1  0  0  0  0  0  0  0  0  0
   34.6188   26.5458   51.0863 O   0  0  0  0  0  0  0  0  0  0  0  0
   34.5637   25.4458   50.2574 C   0  0  0  0  0  0  0  0  0  0  0  0
   33.1518   24.9979   49.9551 C   0  0  2  0  0  0  0  0  0  0  0  0
   33.0367   24.6477   48.5973 O   0  0  0  0  0  0  0  0  0  0  0  0
   32.1367   26.0303   50.2992 C   0  0  2  0  0  0  0  0  0  0  0  0
   31.0186   25.8098   49.4988 O   0  0  0  0  0  0  0  0  0  0  0  0
   33.2942   27.7934   48.2409 H   0  0  0  0  0  0  0  0  0  0  0  0
   31.9016   28.1008   50.6605 H   0  0  0  0  0  0  0  0  0  0  0  0
   34.0162   28.4196   51.4279 H   0  0  0  0  0  0  0  0  0  0  0  0
   35.0305   24.6092   50.8367 H   0  0  0  0  0  0  0  0  0  0  0  0
   35.1422   25.5391   49.3211 H   0  0  0  0  0  0  0  0  0  0  0  0
   32.8645   24.0649   50.5168 H   0  0  0  0  0  0  0  0  0  0  0  0
   33.4386   25.3784   48.0703 H   0  0  0  0  0  0  0  0  0  0  0  0
   31.9025   25.9475   51.3967 H   0  0  0  0  0  0  0  0  0  0  0  0
   30.9812   26.4383   48.7421 H   0  0  0  0  0  0  0  0  0  0  0  0
  2  1  2  0
  3  2  1  0
  4  3  2  0
  4  5  1  0
  5  6  2  0
  6  1  1  0
  7  5  1  0
  1  8  1  0
  2  9  1  0
  3 10  1  0
 11 12  1  0
 12 13  1  0
 13 14  1  0
 14 15  1  0
 15 16  1  0
 16 17  1  0
 16 18  1  0
 18 19  1  0
 18 12  1  0
 11 20  1  0
 12 21  1  1
 13 22  1  1
 15 23  1  0
 15 24  1  0
 16 25  1  1
 17 26  1  0
 18 27  1  1
 19 28  1  0
  7 13  1  0
M  ISO  3   8  14   9  14  10  14
M  END
>  <DihAtoms>  (1) 
4,6,12,11

>  <DihDeg>  (1) 
119.74823588195196

$$$$
