
     RDKit          3D

 32 33  0  0  0  0  0  0  0  0999 V2000
   37.7680   30.5230   49.3394 C   0  0  0  0  0  0  0  0  0  0  0  0
   38.2383   31.7254   49.8396 C   0  0  0  0  0  0  0  0  0  0  0  0
   38.6223   32.6881   48.9164 C   0  0  0  0  0  0  0  0  0  0  0  0
   38.5293   32.4321   47.5742 N   0  0  0  0  0  0  0  0  0  0  0  0
   38.0590   31.2310   47.1534 C   0  0  0  0  0  0  0  0  0  0  0  0
   37.6879   30.3006   48.0324 N   0  0  0  0  0  0  0  0  0  0  0  0
   37.2904   29.3317   50.5876 S   0  0  0  0  0  0  0  0  0  0  0  0
   35.4913   29.3489   50.7371 C   0  0  0  0  0  0  0  0  0  0  0  0
   34.6976   28.4032   49.3918 S   0  0  0  0  0  0  0  0  0  0  0  0
   38.3133   31.9329   50.9120 H   0  0  0  0  0  0  0  0  0  0  0  0
   39.0030   33.6577   49.2076 H   0  0  0  0  0  0  0  0  0  0  0  0
   37.9879   31.0337   46.0951 H   0  0  0  0  0  0  0  0  0  0  0  0
   35.1762   28.9007   51.7030 H   0  0  0  0  0  0  0  0  0  0  0  0
   35.1286   30.3953   50.7322 H   0  0  0  0  0  0  0  0  0  0  0  0
   35.8719   26.1000   47.2952 O   0  0  0  0  0  0  0  0  0  0  0  0
   36.2347   26.2340   48.6217 C   0  0  1  0  0  0  0  0  0  0  0  0
   35.0902   26.6465   49.5212 C   0  0  2  0  0  0  0  0  0  0  0  0
   34.0133   25.8399   49.2341 O   0  0  0  0  0  0  0  0  0  0  0  0
   34.2570   24.5708   49.7382 C   0  0  0  0  0  0  0  0  0  0  0  0
   35.5224   23.9328   49.2327 C   0  0  1  0  0  0  0  0  0  0  0  0
   35.3888   23.3220   47.9935 O   0  0  0  0  0  0  0  0  0  0  0  0
   36.7018   24.8892   49.1926 C   0  0  2  0  0  0  0  0  0  0  0  0
   37.1319   25.1486   50.5004 O   0  0  0  0  0  0  0  0  0  0  0  0
   35.1304   25.4935   47.1451 H   0  0  0  0  0  0  0  0  0  0  0  0
   37.0448   26.9575   48.7391 H   0  0  0  0  0  0  0  0  0  0  0  0
   35.4071   26.4532   50.5635 H   0  0  0  0  0  0  0  0  0  0  0  0
   34.3601   24.6485   50.8538 H   0  0  0  0  0  0  0  0  0  0  0  0
   33.4259   23.8679   49.4973 H   0  0  0  0  0  0  0  0  0  0  0  0
   35.8060   23.1519   49.9938 H   0  0  0  0  0  0  0  0  0  0  0  0
   36.3201   23.1962   47.6450 H   0  0  0  0  0  0  0  0  0  0  0  0
   37.5173   24.4390   48.6358 H   0  0  0  0  0  0  0  0  0  0  0  0
   37.2873   24.3234   51.0170 H   0  0  0  0  0  0  0  0  0  0  0  0
  1  2  2  0
  1  7  1  0
  3  2  1  0
  4  3  2  0
  5  4  1  0
  5  6  2  0
  6  1  1  0
  7  8  1  0
  9  8  1  0
  2 10  1  0
  3 11  1  0
  5 12  1  0
  8 13  1  0
  8 14  1  0
 15 16  1  0
 16 17  1  0
 17 18  1  0
 18 19  1  0
 19 20  1  0
 20 21  1  0
 20 22  1  0
 22 23  1  0
 22 16  1  0
 15 24  1  0
 16 25  1  6
 17 26  1  1
 19 27  1  0
 19 28  1  0
 20 29  1  1
 21 30  1  0
 22 31  1  6
 23 32  1  0
  9 17  1  0
M  ISO  5  10  14  11  14  12  14  13   8  14   8
M  END
>  <DihAtoms>  (1) 
7,8,16,15

>  <DihDeg>  (1) 
67.51312599870579

$$$$
