
     RDKit          3D

 41 44  0  0  0  0  0  0  0  0999 V2000
   36.8483   30.5549   46.9131 C   0  0  0  0  0  0  0  0  0  0  0  0
   37.5156   31.0385   48.0275 C   0  0  0  0  0  0  0  0  0  0  0  0
   38.5181   31.9977   47.9036 C   0  0  0  0  0  0  0  0  0  0  0  0
   38.8048   32.4340   46.6156 C   0  0  0  0  0  0  0  0  0  0  0  0
   39.7274   33.3531   46.2199 N   0  0  0  0  0  0  0  0  0  0  0  0
   39.6479   33.4495   44.8962 C   0  0  0  0  0  0  0  0  0  0  0  0
   38.7139   32.6303   44.4378 N   0  0  0  0  0  0  0  0  0  0  0  0
   38.1584   31.9734   45.4756 C   0  0  0  0  0  0  0  0  0  0  0  0
   37.1636   31.0169   45.6350 C   0  0  0  0  0  0  0  0  0  0  0  0
   37.3797   30.0861   51.6558 C   0  0  0  0  0  0  0  0  0  0  0  0
   37.8674   30.6509   50.4823 C   0  0  0  0  0  0  0  0  0  0  0  0
   37.1202   30.4992   49.3175 C   0  0  0  0  0  0  0  0  0  0  0  0
   35.9495   29.8027   49.3978 N   0  0  0  0  0  0  0  0  0  0  0  0
   35.5028   29.2647   50.5585 C   0  0  0  0  0  0  0  0  0  0  0  0
   36.2193   29.4108   51.6725 N   0  0  0  0  0  0  0  0  0  0  0  0
   40.4591   34.3093   44.1495 O   0  0  0  0  0  0  0  0  0  0  0  0
   36.0631   29.8111   46.9523 H   0  0  0  0  0  0  0  0  0  0  0  0
   39.0244   32.3626   48.7640 H   0  0  0  0  0  0  0  0  0  0  0  0
   40.3745   33.8765   46.8799 H   0  0  0  0  0  0  0  0  0  0  0  0
   36.6552   30.6537   44.7451 H   0  0  0  0  0  0  0  0  0  0  0  0
   37.9585   30.2010   52.5690 H   0  0  0  0  0  0  0  0  0  0  0  0
   38.7955   31.2005   50.4293 H   0  0  0  0  0  0  0  0  0  0  0  0
   34.5630   28.7396   50.4816 H   0  0  0  0  0  0  0  0  0  0  0  0
   38.6785   34.1818   41.1103 O   0  0  0  0  0  0  0  0  0  0  0  0
   39.0207   34.8765   42.2831 C   0  0  1  0  0  0  0  0  0  0  0  0
   40.3807   34.4159   42.7556 C   0  0  1  0  0  0  0  0  0  0  0  0
   41.3679   35.2888   42.3222 O   0  0  0  0  0  0  0  0  0  0  0  0
   41.1215   35.7518   41.0419 C   0  0  0  0  0  0  0  0  0  0  0  0
   40.0733   36.8184   41.1049 C   0  0  1  0  0  0  0  0  0  0  0  0
   39.5525   37.0312   39.8288 O   0  0  0  0  0  0  0  0  0  0  0  0
   38.9889   36.3831   42.0677 C   0  0  2  0  0  0  0  0  0  0  0  0
   39.1641   36.9663   43.3219 O   0  0  0  0  0  0  0  0  0  0  0  0
   39.1849   33.3388   41.1279 H   0  0  0  0  0  0  0  0  0  0  0  0
   38.2385   34.6514   43.0159 H   0  0  0  0  0  0  0  0  0  0  0  0
   40.6039   33.4034   42.3277 H   0  0  0  0  0  0  0  0  0  0  0  0
   42.0843   36.1606   40.6179 H   0  0  0  0  0  0  0  0  0  0  0  0
   40.8493   34.9153   40.3515 H   0  0  0  0  0  0  0  0  0  0  0  0
   40.5314   37.7391   41.5239 H   0  0  0  0  0  0  0  0  0  0  0  0
   38.5842   36.8974   39.8174 H   0  0  0  0  0  0  0  0  0  0  0  0
   38.0229   36.6369   41.6076 H   0  0  0  0  0  0  0  0  0  0  0  0
   38.2920   37.0734   43.7687 H   0  0  0  0  0  0  0  0  0  0  0  0
  1  2  2  0
  2 12  1  0
  3  2  1  0
  4  3  2  0
  5  4  1  0
  6  5  1  0
  7  6  2  0
  7  8  1  0
  8  9  2  0
  8  4  1  0
  9  1  1  0
 10 15  2  0
 11 10  1  0
 12 13  1  0
 12 11  2  0
 13 14  2  0
 14 15  1  0
 16  6  1  0
  1 17  1  0
  3 18  1  0
  5 19  1  0
  9 20  1  0
 10 21  1  0
 11 22  1  0
 14 23  1  0
 24 25  1  0
 25 26  1  0
 26 27  1  0
 27 28  1  0
 28 29  1  0
 29 30  1  0
 29 31  1  0
 31 32  1  0
 31 25  1  0
 24 33  1  0
 25 34  1  1
 26 35  1  6
 28 36  1  0
 28 37  1  0
 29 38  1  1
 30 39  1  0
 31 40  1  6
 32 41  1  0
 16 26  1  0
M  ISO  7  17  14  18  14  19   9  20  14  21  14  22  14  23  14
M  END
>  <DihAtoms>  (1) 
5,15,25,24

>  <DihDeg>  (1) 
120.75895933934348

$$$$
