
     RDKit          3D

 37 39  0  0  0  0  0  0  0  0999 V2000
   37.7768   30.6822   50.6067 C   0  0  0  0  0  0  0  0  0  0  0  0
   38.4559   31.6117   49.7795 C   0  0  0  0  0  0  0  0  0  0  0  0
   37.9255   31.8620   48.4975 C   0  0  0  0  0  0  0  0  0  0  0  0
   36.8069   31.1973   48.1489 N   0  0  0  0  0  0  0  0  0  0  0  0
   36.1828   30.3192   48.9562 C   0  0  0  0  0  0  0  0  0  0  0  0
   36.6606   30.0552   50.1872 N   0  0  0  0  0  0  0  0  0  0  0  0
   35.0013   29.6116   48.5988 N   0  0  0  0  0  0  0  0  0  0  0  0
   34.7537   29.4275   47.2922 C   0  0  0  0  0  0  0  0  0  0  0  0
   33.5912   28.7331   47.0133 C   0  0  0  0  0  0  0  0  0  0  0  0
   32.7226   28.2487   47.9862 C   0  0  0  0  0  0  0  0  0  0  0  0
   31.6730   27.6213   47.7163 O   0  0  0  0  0  0  0  0  0  0  0  0
   33.0384   28.4734   49.3064 N   0  0  0  0  0  0  0  0  0  0  0  0
   34.1743   29.1508   49.5425 C   0  0  0  0  0  0  0  0  0  0  0  0
   34.4960   29.3760   50.7593 O   0  0  0  0  0  0  0  0  0  0  0  0
   38.1616   30.4614   51.6144 H   0  0  0  0  0  0  0  0  0  0  0  0
   39.3352   32.1019   50.1175 H   0  0  0  0  0  0  0  0  0  0  0  0
   38.4029   32.5615   47.8251 H   0  0  0  0  0  0  0  0  0  0  0  0
   35.4062   29.7899   46.5093 H   0  0  0  0  0  0  0  0  0  0  0  0
   33.3390   28.5541   45.9738 H   0  0  0  0  0  0  0  0  0  0  0  0
   31.8481   30.2672   50.5944 O   0  0  0  0  0  0  0  0  0  0  0  0
   31.1408   29.0644   50.5901 C   0  0  1  0  0  0  0  0  0  0  0  0
   32.1527   27.9808   50.3451 C   0  0  2  0  0  0  0  0  0  0  0  0
   32.8870   27.7116   51.4726 O   0  0  0  0  0  0  0  0  0  0  0  0
   32.0988   27.2062   52.4786 C   0  0  0  0  0  0  0  0  0  0  0  0
   30.9826   28.1028   52.9209 C   0  0  1  0  0  0  0  0  0  0  0  0
   31.3979   28.8929   53.9925 O   0  0  0  0  0  0  0  0  0  0  0  0
   30.3416   28.9027   51.8359 C   0  0  2  0  0  0  0  0  0  0  0  0
   29.0775   28.4204   51.4996 O   0  0  0  0  0  0  0  0  0  0  0  0
   31.6212   30.8447   49.8221 H   0  0  0  0  0  0  0  0  0  0  0  0
   30.4692   29.0903   49.6919 H   0  0  0  0  0  0  0  0  0  0  0  0
   31.6553   27.0904   49.9115 H   0  0  0  0  0  0  0  0  0  0  0  0
   32.7724   27.0718   53.3707 H   0  0  0  0  0  0  0  0  0  0  0  0
   31.7307   26.1652   52.2717 H   0  0  0  0  0  0  0  0  0  0  0  0
   30.1881   27.4194   53.3351 H   0  0  0  0  0  0  0  0  0  0  0  0
   30.5876   29.0989   54.5273 H   0  0  0  0  0  0  0  0  0  0  0  0
   30.1669   29.9322   52.2559 H   0  0  0  0  0  0  0  0  0  0  0  0
   28.4219   28.5132   52.2331 H   0  0  0  0  0  0  0  0  0  0  0  0
  2  1  2  0
  3  2  1  0
  4  3  2  0
  4  5  1  0
  5  6  2  0
  6  1  1  0
  7  5  1  0
  7 13  1  0
  8  7  1  0
  9  8  2  0
  9 10  1  0
 10 12  1  0
 11 10  2  0
 12 13  1  0
 13 14  2  0
  1 15  1  0
  2 16  1  0
  3 17  1  0
  8 18  1  0
  9 19  1  0
 20 21  1  0
 21 22  1  0
 22 23  1  0
 23 24  1  0
 24 25  1  0
 25 26  1  0
 25 27  1  0
 27 28  1  0
 27 21  1  0
 20 29  1  0
 21 30  1  6
 22 31  1  6
 24 32  1  0
 24 33  1  0
 25 34  1  1
 26 35  1  0
 27 36  1  1
 28 37  1  0
 12 22  1  0
M  ISO  5  15  14  16  14  17  14  18  14  19  14
M  END
>  <DihAtoms>  (1) 
9,11,21,20

>  <DihDeg>  (1) 
-73.67277112876852

$$$$
