
     RDKit          3D

 46 48  0  0  0  0  0  0  0  0999 V2000
   37.1311   30.9545   49.0177 C   0  0  0  0  0  0  0  0  0  0  0  0
   36.9174   31.9300   50.0058 C   0  0  0  0  0  0  0  0  0  0  0  0
   37.5551   33.1629   49.9852 C   0  0  0  0  0  0  0  0  0  0  0  0
   38.4471   33.4667   48.9522 C   0  0  0  0  0  0  0  0  0  0  0  0
   38.6476   32.4976   47.9874 C   0  0  0  0  0  0  0  0  0  0  0  0
   37.9969   31.2772   48.0357 C   0  0  0  0  0  0  0  0  0  0  0  0
   36.4245   29.7061   49.1228 C   0  0  0  0  0  0  0  0  0  0  0  0
   36.9293   28.8650   49.9429 O   0  0  0  0  0  0  0  0  0  0  0  0
   33.6302   30.1852   46.8489 C   0  0  0  0  0  0  0  0  0  0  0  0
   32.9616   28.9634   46.8729 C   0  0  0  0  0  0  0  0  0  0  0  0
   33.4703   27.9538   47.6808 C   0  0  0  0  0  0  0  0  0  0  0  0
   34.5929   28.1899   48.4138 N   0  0  0  0  0  0  0  0  0  0  0  0
   35.2105   29.3599   48.3739 C   0  0  0  0  0  0  0  0  0  0  0  0
   34.7151   30.3455   47.5863 N   0  0  0  0  0  0  0  0  0  0  0  0
   38.3400   30.3896   46.9612 C   0  0  0  0  0  0  0  0  0  0  0  0
   38.7871   30.6986   45.7573 C   0  0  0  0  0  0  0  0  0  0  0  0
   39.2022   29.9113   44.6009 C   0  0  0  0  0  0  0  0  0  0  0  0
   36.2335   31.7337   50.8235 H   0  0  0  0  0  0  0  0  0  0  0  0
   37.3448   33.8682   50.7780 H   0  0  0  0  0  0  0  0  0  0  0  0
   38.9308   34.4364   48.9608 H   0  0  0  0  0  0  0  0  0  0  0  0
   39.3514   32.8203   47.2315 H   0  0  0  0  0  0  0  0  0  0  0  0
   33.1992   30.9415   46.2065 H   0  0  0  0  0  0  0  0  0  0  0  0
   32.0703   28.8233   46.2706 H   0  0  0  0  0  0  0  0  0  0  0  0
   32.9836   26.9875   47.7312 H   0  0  0  0  0  0  0  0  0  0  0  0
   38.2607   29.3141   47.0547 H   0  0  0  0  0  0  0  0  0  0  0  0
   38.9146   31.7759   45.5387 H   0  0  0  0  0  0  0  0  0  0  0  0
   38.6187   30.2700   43.7148 H   0  0  0  0  0  0  0  0  0  0  0  0
   40.2636   30.1389   44.3711 H   0  0  0  0  0  0  0  0  0  0  0  0
   40.1590   28.3256   42.5685 O   0  0  0  0  0  0  0  0  0  0  0  0
   39.5227   27.6145   43.5816 C   0  0  2  0  0  0  0  0  0  0  0  0
   39.0911   28.4223   44.7386 C   0  0  1  0  0  0  0  0  0  0  0  0
   39.7217   28.0342   45.9103 O   0  0  0  0  0  0  0  0  0  0  0  0
   41.0921   28.2263   45.9039 C   0  0  0  0  0  0  0  0  0  0  0  0
   41.6682   27.4889   44.7159 C   0  0  1  0  0  0  0  0  0  0  0  0
   42.7115   26.6904   45.1658 O   0  0  0  0  0  0  0  0  0  0  0  0
   40.5917   26.6278   44.0853 C   0  0  2  0  0  0  0  0  0  0  0  0
   41.0725   25.9104   43.0027 O   0  0  0  0  0  0  0  0  0  0  0  0
   40.0912   27.7185   41.7637 H   0  0  0  0  0  0  0  0  0  0  0  0
   38.7140   26.9686   43.2038 H   0  0  0  0  0  0  0  0  0  0  0  0
   37.9943   28.1776   44.9271 H   0  0  0  0  0  0  0  0  0  0  0  0
   41.4854   27.7962   46.8576 H   0  0  0  0  0  0  0  0  0  0  0  0
   41.3618   29.3109   45.8995 H   0  0  0  0  0  0  0  0  0  0  0  0
   42.0647   28.2448   44.0067 H   0  0  0  0  0  0  0  0  0  0  0  0
   43.2597   27.2429   45.7710 H   0  0  0  0  0  0  0  0  0  0  0  0
   40.1449   26.0007   44.8640 H   0  0  0  0  0  0  0  0  0  0  0  0
   42.0383   25.7482   43.1556 H   0  0  0  0  0  0  0  0  0  0  0  0
  1  7  1  0
  1  2  2  0
  3  2  1  0
  4  3  2  0
  5  6  2  0
  5  4  1  0
  6  1  1  0
  7  8  2  0
  9 10  2  0
  9 14  1  0
 10 11  1  0
 11 12  2  0
 13 12  1  0
 13  7  1  0
 14 13  2  0
 15  6  1  0
 16 15  2  0
 17 16  1  0
  2 18  1  0
  3 19  1  0
  4 20  1  0
  5 21  1  0
  9 22  1  0
 10 23  1  0
 11 24  1  0
 15 25  1  0
 16 26  1  0
 17 27  1  0
 17 28  1  0
 29 30  1  0
 30 31  1  0
 31 32  1  0
 32 33  1  0
 33 34  1  0
 34 35  1  0
 34 36  1  0
 36 37  1  0
 36 30  1  0
 29 38  1  0
 30 39  1  6
 31 40  1  1
 33 41  1  0
 33 42  1  0
 34 43  1  6
 35 44  1  0
 36 45  1  1
 37 46  1  0
 17 31  1  0
M  ISO  8  18  14  19  14  20  14  21  14  22  14  23  14  24  14  27   8
M  ISO  1  28   8
M  END
>  <DihAtoms>  (1) 
15,16,30,29

>  <DihDeg>  (1) 
60.69078374549521

$$$$
