
     RDKit          3D

 28 29  0  0  0  0  0  0  0  0999 V2000
   37.3302   30.2348   51.4218 C   0  0  0  0  0  0  0  0  0  0  0  0
   38.0855   30.7423   50.3499 C   0  0  0  0  0  0  0  0  0  0  0  0
   37.6996   30.3744   49.0476 C   0  0  0  0  0  0  0  0  0  0  0  0
   36.6063   29.5398   48.8952 N   0  0  0  0  0  0  0  0  0  0  0  0
   35.9232   29.0865   49.9611 C   0  0  0  0  0  0  0  0  0  0  0  0
   36.2770   29.4273   51.2155 N   0  0  0  0  0  0  0  0  0  0  0  0
   34.8702   28.2699   49.5981 O   0  0  0  0  0  0  0  0  0  0  0  0
   37.5627   30.4709   52.4535 H   0  0  0  0  0  0  0  0  0  0  0  0
   38.9229   31.3862   50.5453 H   0  0  0  0  0  0  0  0  0  0  0  0
   38.2434   30.7359   48.2084 H   0  0  0  0  0  0  0  0  0  0  0  0
   34.3969   25.7402   49.1891 O   0  0  0  0  0  0  0  0  0  0  0  0
   33.7210   26.2371   50.3231 C   0  0  2  0  0  0  0  0  0  0  0  0
   34.0149   27.6812   50.5719 C   0  0  1  0  0  0  0  0  0  0  0  0
   34.5117   27.9443   51.8377 O   0  0  0  0  0  0  0  0  0  0  0  0
   35.5906   27.1664   52.1995 C   0  0  0  0  0  0  0  0  0  0  0  0
   35.2738   25.6887   52.2364 C   0  0  2  0  0  0  0  0  0  0  0  0
   36.3361   24.9531   51.6798 O   0  0  0  0  0  0  0  0  0  0  0  0
   34.0051   25.3566   51.5330 C   0  0  2  0  0  0  0  0  0  0  0  0
   34.0851   24.0302   51.1164 O   0  0  0  0  0  0  0  0  0  0  0  0
   35.2233   26.2515   49.0031 H   0  0  0  0  0  0  0  0  0  0  0  0
   32.6401   26.0902   50.0936 H   0  0  0  0  0  0  0  0  0  0  0  0
   33.0609   28.2843   50.5071 H   0  0  0  0  0  0  0  0  0  0  0  0
   35.8272   27.4529   53.2556 H   0  0  0  0  0  0  0  0  0  0  0  0
   36.5099   27.3441   51.6136 H   0  0  0  0  0  0  0  0  0  0  0  0
   35.1717   25.2944   53.2865 H   0  0  0  0  0  0  0  0  0  0  0  0
   36.5705   25.3791   50.8215 H   0  0  0  0  0  0  0  0  0  0  0  0
   33.1485   25.5336   52.2408 H   0  0  0  0  0  0  0  0  0  0  0  0
   34.2987   23.9604   50.1579 H   0  0  0  0  0  0  0  0  0  0  0  0
  2  1  2  0
  3  2  1  0
  4  3  2  0
  4  5  1  0
  5  6  2  0
  6  1  1  0
  7  5  1  0
  1  8  1  0
  2  9  1  0
  3 10  1  0
 11 12  1  0
 12 13  1  0
 13 14  1  0
 14 15  1  0
 15 16  1  0
 16 17  1  0
 16 18  1  0
 18 19  1  0
 18 12  1  0
 11 20  1  0
 12 21  1  6
 13 22  1  1
 15 23  1  0
 15 24  1  0
 16 25  1  1
 17 26  1  0
 18 27  1  1
 19 28  1  0
  7 13  1  0
M  ISO  3   8  14   9  14  10  14
M  END
>  <DihAtoms>  (1) 
4,6,12,11

>  <DihDeg>  (1) 
119.74823588195196

$$$$
