
     RDKit          3D

 49 51  0  0  0  0  0  0  0  0999 V2000
   37.0786   30.9500   49.0260 C   0  0  0  0  0  0  0  0  0  0  0  0
   36.8063   31.8791   50.0310 C   0  0  0  0  0  0  0  0  0  0  0  0
   37.4228   33.1239   50.0626 C   0  0  0  0  0  0  0  0  0  0  0  0
   38.3396   33.4593   49.0633 C   0  0  0  0  0  0  0  0  0  0  0  0
   38.5947   32.5391   48.0873 C   0  0  0  0  0  0  0  0  0  0  0  0
   37.9619   31.3061   48.0874 C   0  0  0  0  0  0  0  0  0  0  0  0
   36.4656   29.6398   49.0148 C   0  0  1  0  0  0  0  0  0  0  0  0
   36.8621   28.9015   49.9931 O   0  0  0  0  0  0  0  0  0  0  0  0
   33.6152   30.1493   46.8218 C   0  0  0  0  0  0  0  0  0  0  0  0
   32.9547   28.9331   46.8426 C   0  0  0  0  0  0  0  0  0  0  0  0
   33.4493   27.9393   47.6652 C   0  0  0  0  0  0  0  0  0  0  0  0
   34.5705   28.1869   48.4277 N   0  0  0  0  0  0  0  0  0  0  0  0
   35.1558   29.3654   48.3615 C   0  0  0  0  0  0  0  0  0  0  0  0
   34.6872   30.3451   47.5688 N   0  0  0  0  0  0  0  0  0  0  0  0
   38.3449   30.4184   47.0138 C   0  0  0  0  0  0  0  0  0  0  0  0
   38.8249   30.8372   45.8374 C   0  0  0  0  0  0  0  0  0  0  0  0
   39.2857   30.0221   44.6888 C   0  0  0  0  0  0  0  0  0  0  0  0
   39.1732   30.9903   43.1808 S   0  0  0  0  0  0  0  0  0  0  0  0
   36.0850   31.6011   50.8052 H   0  0  0  0  0  0  0  0  0  0  0  0
   37.1381   33.7570   50.8821 H   0  0  0  0  0  0  0  0  0  0  0  0
   38.7637   34.4372   49.1659 H   0  0  0  0  0  0  0  0  0  0  0  0
   39.3284   32.9425   47.3853 H   0  0  0  0  0  0  0  0  0  0  0  0
   37.0074   29.0571   48.1739 H   0  0  0  0  0  0  0  0  0  0  0  0
   36.6922   29.3172   50.8973 H   0  0  0  0  0  0  0  0  0  0  0  0
   33.2021   30.9060   46.1681 H   0  0  0  0  0  0  0  0  0  0  0  0
   32.0717   28.6638   46.2740 H   0  0  0  0  0  0  0  0  0  0  0  0
   33.0322   26.9417   47.7809 H   0  0  0  0  0  0  0  0  0  0  0  0
   38.3589   29.3273   46.8954 H   0  0  0  0  0  0  0  0  0  0  0  0
   38.9250   31.9339   45.6940 H   0  0  0  0  0  0  0  0  0  0  0  0
   40.3501   29.6727   44.8125 H   0  0  0  0  0  0  0  0  0  0  0  0
   38.6730   29.1048   44.6160 H   0  0  0  0  0  0  0  0  0  0  0  0
   41.4771   31.6643   42.1134 O   0  0  0  0  0  0  0  0  0  0  0  0
   40.9473   30.7796   41.1722 C   0  0  1  0  0  0  0  0  0  0  0  0
   39.6879   30.1187   41.7061 C   0  0  2  0  0  0  0  0  0  0  0  0
   38.6849   30.0763   40.7488 O   0  0  0  0  0  0  0  0  0  0  0  0
   39.2293   29.5617   39.5667 C   0  0  0  0  0  0  0  0  0  0  0  0
   39.9694   30.7107   38.9186 C   0  0  2  0  0  0  0  0  0  0  0  0
   40.9444   30.2225   38.0784 O   0  0  0  0  0  0  0  0  0  0  0  0
   40.6560   31.6025   39.9265 C   0  0  2  0  0  0  0  0  0  0  0  0
   41.8809   32.0771   39.4575 O   0  0  0  0  0  0  0  0  0  0  0  0
   41.2173   31.4469   43.0444 H   0  0  0  0  0  0  0  0  0  0  0  0
   41.7472   30.0356   40.9786 H   0  0  0  0  0  0  0  0  0  0  0  0
   39.9656   29.0789   42.0241 H   0  0  0  0  0  0  0  0  0  0  0  0
   38.4136   29.2352   38.8942 H   0  0  0  0  0  0  0  0  0  0  0  0
   39.9340   28.7350   39.8281 H   0  0  0  0  0  0  0  0  0  0  0  0
   39.2321   31.3568   38.3845 H   0  0  0  0  0  0  0  0  0  0  0  0
   40.8794   29.2645   37.9303 H   0  0  0  0  0  0  0  0  0  0  0  0
   40.0312   32.4557   40.2413 H   0  0  0  0  0  0  0  0  0  0  0  0
   42.5605   31.3710   39.3902 H   0  0  0  0  0  0  0  0  0  0  0  0
  1  7  1  0
  1  2  2  0
  2  3  1  0
  4  3  2  0
  5  6  2  0
  5  4  1  0
  6  1  1  0
  7  8  1  0
  9 10  2  0
  9 14  1  0
 10 11  1  0
 11 12  2  0
 13 12  1  0
 13  7  1  0
 14 13  2  0
 15  6  1  0
 16 15  2  0
 17 16  1  0
 18 17  1  0
  2 19  1  0
  3 20  1  0
  4 21  1  0
  5 22  1  0
  7 23  1  6
  8 24  1  0
  9 25  1  0
 10 26  1  0
 11 27  1  0
 15 28  1  0
 16 29  1  0
 17 30  1  0
 17 31  1  0
 32 33  1  0
 33 34  1  0
 34 35  1  0
 35 36  1  0
 36 37  1  0
 37 38  1  0
 37 39  1  0
 39 40  1  0
 39 33  1  0
 32 41  1  0
 33 42  1  6
 34 43  1  1
 36 44  1  0
 36 45  1  0
 37 46  1  6
 38 47  1  0
 39 48  1  1
 40 49  1  0
 18 34  1  0
M  ISO  8  19  14  20  14  21  14  22  14  23   8  24   3  25  14  26  14
M  ISO  3  27  14  30   8  31   8
M  END
>  <DihAtoms>  (1) 
16,17,33,32

>  <DihDeg>  (1) 
66.29452536886336

$$$$
