
     RDKit          3D

 41 44  0  0  0  0  0  0  0  0999 V2000
   36.8483   30.5549   46.9131 C   0  0  0  0  0  0  0  0  0  0  0  0
   37.5156   31.0385   48.0275 C   0  0  0  0  0  0  0  0  0  0  0  0
   38.5181   31.9977   47.9036 C   0  0  0  0  0  0  0  0  0  0  0  0
   38.8048   32.4340   46.6156 C   0  0  0  0  0  0  0  0  0  0  0  0
   39.7274   33.3531   46.2199 N   0  0  0  0  0  0  0  0  0  0  0  0
   39.6479   33.4495   44.8962 C   0  0  0  0  0  0  0  0  0  0  0  0
   38.7139   32.6303   44.4378 N   0  0  0  0  0  0  0  0  0  0  0  0
   38.1584   31.9734   45.4756 C   0  0  0  0  0  0  0  0  0  0  0  0
   37.1636   31.0169   45.6350 C   0  0  0  0  0  0  0  0  0  0  0  0
   37.3797   30.0861   51.6558 C   0  0  0  0  0  0  0  0  0  0  0  0
   37.8674   30.6509   50.4823 C   0  0  0  0  0  0  0  0  0  0  0  0
   37.1202   30.4992   49.3175 C   0  0  0  0  0  0  0  0  0  0  0  0
   35.9495   29.8027   49.3978 N   0  0  0  0  0  0  0  0  0  0  0  0
   35.5028   29.2647   50.5585 C   0  0  0  0  0  0  0  0  0  0  0  0
   36.2193   29.4108   51.6725 N   0  0  0  0  0  0  0  0  0  0  0  0
   40.4591   34.3093   44.1495 O   0  0  0  0  0  0  0  0  0  0  0  0
   36.0631   29.8111   46.9523 H   0  0  0  0  0  0  0  0  0  0  0  0
   39.0244   32.3626   48.7640 H   0  0  0  0  0  0  0  0  0  0  0  0
   40.3745   33.8765   46.8799 H   0  0  0  0  0  0  0  0  0  0  0  0
   36.6552   30.6537   44.7451 H   0  0  0  0  0  0  0  0  0  0  0  0
   37.9585   30.2010   52.5690 H   0  0  0  0  0  0  0  0  0  0  0  0
   38.7955   31.2005   50.4293 H   0  0  0  0  0  0  0  0  0  0  0  0
   34.5630   28.7396   50.4816 H   0  0  0  0  0  0  0  0  0  0  0  0
   39.0728   33.4295   41.0306 O   0  0  0  0  0  0  0  0  0  0  0  0
   38.9872   34.1570   42.2300 C   0  0  1  0  0  0  0  0  0  0  0  0
   40.3807   34.4159   42.7556 C   0  0  1  0  0  0  0  0  0  0  0  0
   40.8143   35.6799   42.3832 O   0  0  0  0  0  0  0  0  0  0  0  0
   40.4093   36.0076   41.1015 C   0  0  0  0  0  0  0  0  0  0  0  0
   38.9676   36.4086   41.1357 C   0  0  1  0  0  0  0  0  0  0  0  0
   38.4494   36.3827   39.8412 O   0  0  0  0  0  0  0  0  0  0  0  0
   38.2155   35.4553   42.0403 C   0  0  2  0  0  0  0  0  0  0  0  0
   38.0383   36.0001   43.3113 O   0  0  0  0  0  0  0  0  0  0  0  0
   39.9312   32.9499   41.0561 H   0  0  0  0  0  0  0  0  0  0  0  0
   38.3993   33.5450   42.9222 H   0  0  0  0  0  0  0  0  0  0  0  0
   41.0918   33.6656   42.3203 H   0  0  0  0  0  0  0  0  0  0  0  0
   41.0527   36.8567   40.7292 H   0  0  0  0  0  0  0  0  0  0  0  0
   40.6114   35.1735   40.3847 H   0  0  0  0  0  0  0  0  0  0  0  0
   38.8929   37.4184   41.5916 H   0  0  0  0  0  0  0  0  0  0  0  0
   37.6774   35.7858   39.7834 H   0  0  0  0  0  0  0  0  0  0  0  0
   37.2661   35.2126   41.5413 H   0  0  0  0  0  0  0  0  0  0  0  0
   37.2156   35.6423   43.7198 H   0  0  0  0  0  0  0  0  0  0  0  0
  1  2  2  0
  2 12  1  0
  3  2  1  0
  4  3  2  0
  5  4  1  0
  6  5  1  0
  7  6  2  0
  7  8  1  0
  8  9  2  0
  8  4  1  0
  9  1  1  0
 10 15  2  0
 11 10  1  0
 12 13  1  0
 12 11  2  0
 13 14  2  0
 14 15  1  0
 16  6  1  0
  1 17  1  0
  3 18  1  0
  5 19  1  0
  9 20  1  0
 10 21  1  0
 11 22  1  0
 14 23  1  0
 24 25  1  0
 25 26  1  0
 26 27  1  0
 27 28  1  0
 28 29  1  0
 29 30  1  0
 29 31  1  0
 31 32  1  0
 31 25  1  0
 24 33  1  0
 25 34  1  1
 26 35  1  6
 28 36  1  0
 28 37  1  0
 29 38  1  1
 30 39  1  0
 31 40  1  6
 32 41  1  0
 16 26  1  0
M  ISO  7  17  14  18  14  19   9  20  14  21  14  22  14  23  14
M  END
>  <DihAtoms>  (1) 
5,15,25,24

>  <DihDeg>  (1) 
120.75895933934348

$$$$
