
     RDKit          3D

 41 43  0  0  0  0  0  0  0  0999 V2000
   39.4627   31.8964   46.7007 C   0  0  0  0  0  0  0  0  0  0  0  0
   39.5956   30.7157   46.0381 C   0  0  0  0  0  0  0  0  0  0  0  0
   39.9100   30.7050   44.7188 C   0  0  0  0  0  0  0  0  0  0  0  0
   40.0896   31.9261   44.0732 C   0  0  0  0  0  0  0  0  0  0  0  0
   39.9545   33.1116   44.7446 C   0  0  0  0  0  0  0  0  0  0  0  0
   39.6374   33.0582   46.0709 N   0  0  0  0  0  0  0  0  0  0  0  0
   40.1525   34.4212   44.0358 C   0  0  0  0  0  0  0  0  0  0  0  0
   39.1453   32.0894   48.0493 O   0  0  0  0  0  0  0  0  0  0  0  0
   38.1692   31.0237   49.8937 C   0  0  0  0  0  0  0  0  0  0  0  0
   38.0457   31.4260   48.5362 C   0  0  0  0  0  0  0  0  0  0  0  0
   36.8785   31.1254   47.8574 C   0  0  0  0  0  0  0  0  0  0  0  0
   35.9209   30.4610   48.5385 N   0  0  0  0  0  0  0  0  0  0  0  0
   36.0570   30.0999   49.7916 C   0  0  0  0  0  0  0  0  0  0  0  0
   37.1867   30.3612   50.5355 N   0  0  0  0  0  0  0  0  0  0  0  0
   34.5855   29.2333   50.4178 S   0  0  0  0  0  0  0  0  0  0  0  0
   39.4288   29.8352   46.6601 H   0  0  0  0  0  0  0  0  0  0  0  0
   40.0067   29.7507   44.2305 H   0  0  0  0  0  0  0  0  0  0  0  0
   40.3439   31.9190   43.0069 H   0  0  0  0  0  0  0  0  0  0  0  0
   40.9230   34.3013   43.2479 H   0  0  0  0  0  0  0  0  0  0  0  0
   39.1856   34.6541   43.5109 H   0  0  0  0  0  0  0  0  0  0  0  0
   40.3885   35.2357   44.7479 H   0  0  0  0  0  0  0  0  0  0  0  0
   39.0564   31.2326   50.4673 H   0  0  0  0  0  0  0  0  0  0  0  0
   36.8230   31.4424   46.8472 H   0  0  0  0  0  0  0  0  0  0  0  0
   35.9526   26.7982   51.5809 O   0  0  0  0  0  0  0  0  0  0  0  0
   36.1342   28.0271   52.2574 C   0  0  1  0  0  0  0  0  0  0  0  0
   34.8147   28.7561   52.1551 C   0  0  1  0  0  0  0  0  0  0  0  0
   34.7707   29.9101   52.8995 O   0  0  0  0  0  0  0  0  0  0  0  0
   35.4979   29.8635   54.0704 C   0  0  0  0  0  0  0  0  0  0  0  0
   35.6700   28.4758   54.6121 C   0  0  1  0  0  0  0  0  0  0  0  0
   34.4675   27.8550   54.8940 O   0  0  0  0  0  0  0  0  0  0  0  0
   36.5313   27.6952   53.6614 C   0  0  2  0  0  0  0  0  0  0  0  0
   37.8445   28.1377   53.8550 O   0  0  0  0  0  0  0  0  0  0  0  0
   35.3044   26.2591   52.1280 H   0  0  0  0  0  0  0  0  0  0  0  0
   36.9548   28.5249   51.7078 H   0  0  0  0  0  0  0  0  0  0  0  0
   33.9985   28.0401   52.3778 H   0  0  0  0  0  0  0  0  0  0  0  0
   36.5175   30.2611   53.8458 H   0  0  0  0  0  0  0  0  0  0  0  0
   35.0757   30.5001   54.8589 H   0  0  0  0  0  0  0  0  0  0  0  0
   36.2587   28.5729   55.5659 H   0  0  0  0  0  0  0  0  0  0  0  0
   33.8032   28.5367   55.2109 H   0  0  0  0  0  0  0  0  0  0  0  0
   36.4464   26.5979   53.8901 H   0  0  0  0  0  0  0  0  0  0  0  0
   38.1016   28.1799   54.7976 H   0  0  0  0  0  0  0  0  0  0  0  0
  1  8  1  0
  2  1  2  0
  3  2  1  0
  4  3  2  0
  4  5  1  0
  5  6  2  0
  6  1  1  0
  7  5  1  0
  8 10  1  0
  9 14  2  0
 10  9  1  0
 11 10  2  0
 11 12  1  0
 12 13  2  0
 13 15  1  0
 13 14  1  0
  2 16  1  0
  3 17  1  0
  4 18  1  0
  7 19  1  0
  7 20  1  0
  7 21  1  0
  9 22  1  0
 11 23  1  0
 24 25  1  0
 25 26  1  0
 26 27  1  0
 27 28  1  0
 28 29  1  0
 29 30  1  0
 29 31  1  0
 31 32  1  0
 31 25  1  0
 24 33  1  0
 25 34  1  6
 26 35  1  1
 28 36  1  0
 28 37  1  0
 29 38  1  1
 30 39  1  0
 31 40  1  1
 32 41  1  0
 15 26  1  0
M  ISO  8  16  14  17  14  18  14  19   8  20   8  21   8  22  14  23  14
M  END
>  <DihAtoms>  (1) 
12,14,25,24

>  <DihDeg>  (1) 
-66.1517538743066

$$$$
