
     RDKit          3D

 49 51  0  0  0  0  0  0  0  0999 V2000
   37.0786   30.9500   49.0260 C   0  0  0  0  0  0  0  0  0  0  0  0
   36.8063   31.8791   50.0310 C   0  0  0  0  0  0  0  0  0  0  0  0
   37.4228   33.1239   50.0626 C   0  0  0  0  0  0  0  0  0  0  0  0
   38.3396   33.4593   49.0633 C   0  0  0  0  0  0  0  0  0  0  0  0
   38.5947   32.5391   48.0873 C   0  0  0  0  0  0  0  0  0  0  0  0
   37.9619   31.3061   48.0874 C   0  0  0  0  0  0  0  0  0  0  0  0
   36.4656   29.6398   49.0148 C   0  0  1  0  0  0  0  0  0  0  0  0
   36.8621   28.9015   49.9931 O   0  0  0  0  0  0  0  0  0  0  0  0
   33.6152   30.1493   46.8218 C   0  0  0  0  0  0  0  0  0  0  0  0
   32.9547   28.9331   46.8426 C   0  0  0  0  0  0  0  0  0  0  0  0
   33.4493   27.9393   47.6652 C   0  0  0  0  0  0  0  0  0  0  0  0
   34.5705   28.1869   48.4277 N   0  0  0  0  0  0  0  0  0  0  0  0
   35.1558   29.3654   48.3615 C   0  0  0  0  0  0  0  0  0  0  0  0
   34.6872   30.3451   47.5688 N   0  0  0  0  0  0  0  0  0  0  0  0
   38.3449   30.4184   47.0138 C   0  0  0  0  0  0  0  0  0  0  0  0
   38.8249   30.8372   45.8374 C   0  0  0  0  0  0  0  0  0  0  0  0
   39.2857   30.0221   44.6888 C   0  0  0  0  0  0  0  0  0  0  0  0
   39.1732   30.9903   43.1808 S   0  0  0  0  0  0  0  0  0  0  0  0
   36.0850   31.6011   50.8052 H   0  0  0  0  0  0  0  0  0  0  0  0
   37.1381   33.7570   50.8821 H   0  0  0  0  0  0  0  0  0  0  0  0
   38.7637   34.4372   49.1659 H   0  0  0  0  0  0  0  0  0  0  0  0
   39.3284   32.9425   47.3853 H   0  0  0  0  0  0  0  0  0  0  0  0
   37.0074   29.0571   48.1739 H   0  0  0  0  0  0  0  0  0  0  0  0
   36.6922   29.3172   50.8973 H   0  0  0  0  0  0  0  0  0  0  0  0
   33.2021   30.9060   46.1681 H   0  0  0  0  0  0  0  0  0  0  0  0
   32.0717   28.6638   46.2740 H   0  0  0  0  0  0  0  0  0  0  0  0
   33.0322   26.9417   47.7809 H   0  0  0  0  0  0  0  0  0  0  0  0
   38.3589   29.3273   46.8954 H   0  0  0  0  0  0  0  0  0  0  0  0
   38.9250   31.9339   45.6940 H   0  0  0  0  0  0  0  0  0  0  0  0
   40.3501   29.6727   44.8125 H   0  0  0  0  0  0  0  0  0  0  0  0
   38.6730   29.1048   44.6160 H   0  0  0  0  0  0  0  0  0  0  0  0
   37.5683   29.1326   42.2455 O   0  0  0  0  0  0  0  0  0  0  0  0
   38.7051   28.9895   41.4476 C   0  0  0  0  0  0  0  0  0  0  0  0
   39.6879   30.1187   41.7061 C   0  0  0  0  0  0  0  0  0  0  0  0
   40.9909   29.6530   41.8038 O   0  0  0  0  0  0  0  0  0  0  0  0
   41.2419   28.8208   40.7071 C   0  0  0  0  0  0  0  0  0  0  0  0
   40.6096   27.4891   41.0461 C   0  0  0  0  0  0  0  0  0  0  0  0
   40.3317   26.7969   39.8892 O   0  0  0  0  0  0  0  0  0  0  0  0
   39.3084   27.6381   41.7992 C   0  0  0  0  0  0  0  0  0  0  0  0
   38.3758   26.6686   41.4308 O   0  0  0  0  0  0  0  0  0  0  0  0
   37.4043   30.0677   42.5288 H   0  0  0  0  0  0  0  0  0  0  0  0
   38.3381   29.0003   40.4007 H   0  0  0  0  0  0  0  0  0  0  0  0
   39.5969   30.8423   40.8531 H   0  0  0  0  0  0  0  0  0  0  0  0
   42.3332   28.6806   40.5900 H   0  0  0  0  0  0  0  0  0  0  0  0
   40.7617   29.2673   39.8024 H   0  0  0  0  0  0  0  0  0  0  0  0
   41.2971   26.9275   41.7231 H   0  0  0  0  0  0  0  0  0  0  0  0
   40.7249   27.1992   39.0970 H   0  0  0  0  0  0  0  0  0  0  0  0
   39.4411   27.6183   42.8944 H   0  0  0  0  0  0  0  0  0  0  0  0
   38.0387   26.7947   40.5168 H   0  0  0  0  0  0  0  0  0  0  0  0
  1  7  1  0
  1  2  2  0
  2  3  1  0
  4  3  2  0
  5  6  2  0
  5  4  1  0
  6  1  1  0
  7  8  1  0
  9 10  2  0
  9 14  1  0
 10 11  1  0
 11 12  2  0
 13 12  1  0
 13  7  1  0
 14 13  2  0
 15  6  1  0
 16 15  2  0
 17 16  1  0
 18 17  1  0
  2 19  1  0
  3 20  1  0
  4 21  1  0
  5 22  1  0
  7 23  1  6
  8 24  1  0
  9 25  1  0
 10 26  1  0
 11 27  1  0
 15 28  1  0
 16 29  1  0
 17 30  1  0
 17 31  1  0
 32 33  1  0
 33 34  1  0
 34 35  1  0
 35 36  1  0
 36 37  1  0
 37 38  1  0
 37 39  1  0
 39 40  1  0
 39 33  1  0
 32 41  1  0
 33 42  1  0
 34 43  1  0
 36 44  1  0
 36 45  1  0
 37 46  1  0
 38 47  1  0
 39 48  1  0
 40 49  1  0
 18 34  1  0
M  ISO  8  19  14  20  14  21  14  22  14  23   8  24   3  25  14  26  14
M  ISO  3  27  14  30   8  31   8
M  END
>  <DihAtoms>  (1) 
16,17,33,32

>  <DihDeg>  (1) 
66.29452536886336

$$$$
