
     RDKit          3D

 28 29  0  0  0  0  0  0  0  0999 V2000
   37.3302   30.2348   51.4218 C   0  0  0  0  0  0  0  0  0  0  0  0
   38.0855   30.7423   50.3499 C   0  0  0  0  0  0  0  0  0  0  0  0
   37.6996   30.3744   49.0476 C   0  0  0  0  0  0  0  0  0  0  0  0
   36.6063   29.5398   48.8952 N   0  0  0  0  0  0  0  0  0  0  0  0
   35.9232   29.0865   49.9611 C   0  0  0  0  0  0  0  0  0  0  0  0
   36.2770   29.4273   51.2155 N   0  0  0  0  0  0  0  0  0  0  0  0
   34.8702   28.2699   49.5981 O   0  0  0  0  0  0  0  0  0  0  0  0
   37.5627   30.4709   52.4535 H   0  0  0  0  0  0  0  0  0  0  0  0
   38.9229   31.3862   50.5453 H   0  0  0  0  0  0  0  0  0  0  0  0
   38.2434   30.7359   48.2084 H   0  0  0  0  0  0  0  0  0  0  0  0
   33.4259   26.3057   48.6781 O   0  0  0  0  0  0  0  0  0  0  0  0
   33.1665   26.5724   50.0387 C   0  0  2  0  0  0  0  0  0  0  0  0
   34.0149   27.6812   50.5719 C   0  0  1  0  0  0  0  0  0  0  0  0
   34.7600   27.3335   51.6865 O   0  0  0  0  0  0  0  0  0  0  0  0
   35.5095   26.1864   51.5358 C   0  0  0  0  0  0  0  0  0  0  0  0
   34.6707   24.9582   51.2651 C   0  0  2  0  0  0  0  0  0  0  0  0
   35.2815   24.1646   50.2768 O   0  0  0  0  0  0  0  0  0  0  0  0
   33.2792   25.2926   50.8568 C   0  0  2  0  0  0  0  0  0  0  0  0
   32.7914   24.2298   50.1007 O   0  0  0  0  0  0  0  0  0  0  0  0
   34.3453   26.5679   48.4232 H   0  0  0  0  0  0  0  0  0  0  0  0
   32.0881   26.8532   50.0701 H   0  0  0  0  0  0  0  0  0  0  0  0
   33.3591   28.5337   50.9199 H   0  0  0  0  0  0  0  0  0  0  0  0
   35.9935   26.0108   52.5298 H   0  0  0  0  0  0  0  0  0  0  0  0
   36.3278   26.2588   50.7976 H   0  0  0  0  0  0  0  0  0  0  0  0
   34.5886   24.2839   52.1636 H   0  0  0  0  0  0  0  0  0  0  0  0
   35.5255   24.7613   49.5302 H   0  0  0  0  0  0  0  0  0  0  0  0
   32.6698   25.4749   51.7850 H   0  0  0  0  0  0  0  0  0  0  0  0
   32.8151   24.4261   49.1363 H   0  0  0  0  0  0  0  0  0  0  0  0
  2  1  2  0
  3  2  1  0
  4  3  2  0
  4  5  1  0
  5  6  2  0
  6  1  1  0
  7  5  1  0
  1  8  1  0
  2  9  1  0
  3 10  1  0
 11 12  1  0
 12 13  1  0
 13 14  1  0
 14 15  1  0
 15 16  1  0
 16 17  1  0
 16 18  1  0
 18 19  1  0
 18 12  1  0
 11 20  1  0
 12 21  1  6
 13 22  1  1
 15 23  1  0
 15 24  1  0
 16 25  1  1
 17 26  1  0
 18 27  1  1
 19 28  1  0
  7 13  1  0
M  ISO  3   8  14   9  14  10  14
M  END
>  <DihAtoms>  (1) 
4,6,12,11

>  <DihDeg>  (1) 
119.74823588195196

$$$$
