
     RDKit          3D

 32 33  0  0  0  0  0  0  0  0999 V2000
   37.7680   30.5230   49.3394 C   0  0  0  0  0  0  0  0  0  0  0  0
   38.2383   31.7254   49.8396 C   0  0  0  0  0  0  0  0  0  0  0  0
   38.6223   32.6881   48.9164 C   0  0  0  0  0  0  0  0  0  0  0  0
   38.5293   32.4321   47.5742 N   0  0  0  0  0  0  0  0  0  0  0  0
   38.0590   31.2310   47.1534 C   0  0  0  0  0  0  0  0  0  0  0  0
   37.6879   30.3006   48.0324 N   0  0  0  0  0  0  0  0  0  0  0  0
   37.2904   29.3317   50.5876 S   0  0  0  0  0  0  0  0  0  0  0  0
   35.4913   29.3489   50.7371 C   0  0  0  0  0  0  0  0  0  0  0  0
   34.6976   28.4032   49.3918 S   0  0  0  0  0  0  0  0  0  0  0  0
   38.3133   31.9329   50.9120 H   0  0  0  0  0  0  0  0  0  0  0  0
   39.0030   33.6577   49.2076 H   0  0  0  0  0  0  0  0  0  0  0  0
   37.9879   31.0337   46.0951 H   0  0  0  0  0  0  0  0  0  0  0  0
   35.1762   28.9007   51.7030 H   0  0  0  0  0  0  0  0  0  0  0  0
   35.1286   30.3953   50.7322 H   0  0  0  0  0  0  0  0  0  0  0  0
   35.2784   25.9608   47.2062 O   0  0  0  0  0  0  0  0  0  0  0  0
   35.9658   26.1567   48.3887 C   0  0  1  0  0  0  0  0  0  0  0  0
   35.0902   26.6465   49.5212 C   0  0  2  0  0  0  0  0  0  0  0  0
   33.9666   25.8536   49.5619 O   0  0  0  0  0  0  0  0  0  0  0  0
   34.3153   24.6077   50.0622 C   0  0  0  0  0  0  0  0  0  0  0  0
   35.4047   23.9109   49.2930 C   0  0  1  0  0  0  0  0  0  0  0  0
   34.9557   23.2379   48.1653 O   0  0  0  0  0  0  0  0  0  0  0  0
   36.5466   24.8330   48.9017 C   0  0  2  0  0  0  0  0  0  0  0  0
   37.2959   25.1515   50.0418 O   0  0  0  0  0  0  0  0  0  0  0  0
   34.5161   25.3664   47.2832 H   0  0  0  0  0  0  0  0  0  0  0  0
   36.7874   26.8644   48.2560 H   0  0  0  0  0  0  0  0  0  0  0  0
   35.6578   26.5016   50.4598 H   0  0  0  0  0  0  0  0  0  0  0  0
   34.6975   24.7427   51.1094 H   0  0  0  0  0  0  0  0  0  0  0  0
   33.4423   23.9144   50.0796 H   0  0  0  0  0  0  0  0  0  0  0  0
   35.8624   23.1652   50.0029 H   0  0  0  0  0  0  0  0  0  0  0  0
   35.7674   23.0695   47.6019 H   0  0  0  0  0  0  0  0  0  0  0  0
   37.1900   24.3326   48.1852 H   0  0  0  0  0  0  0  0  0  0  0  0
   37.5673   24.3516   50.5502 H   0  0  0  0  0  0  0  0  0  0  0  0
  1  2  2  0
  1  7  1  0
  3  2  1  0
  4  3  2  0
  5  4  1  0
  5  6  2  0
  6  1  1  0
  7  8  1  0
  9  8  1  0
  2 10  1  0
  3 11  1  0
  5 12  1  0
  8 13  1  0
  8 14  1  0
 15 16  1  0
 16 17  1  0
 17 18  1  0
 18 19  1  0
 19 20  1  0
 20 21  1  0
 20 22  1  0
 22 23  1  0
 22 16  1  0
 15 24  1  0
 16 25  1  6
 17 26  1  1
 19 27  1  0
 19 28  1  0
 20 29  1  1
 21 30  1  0
 22 31  1  6
 23 32  1  0
  9 17  1  0
M  ISO  5  10  14  11  14  12  14  13   8  14   8
M  END
>  <DihAtoms>  (1) 
7,8,16,15

>  <DihDeg>  (1) 
67.51312599870579

$$$$
