
     RDKit          3D

 32 33  0  0  0  0  0  0  0  0999 V2000
   37.7680   30.5230   49.3394 C   0  0  0  0  0  0  0  0  0  0  0  0
   38.2383   31.7254   49.8396 C   0  0  0  0  0  0  0  0  0  0  0  0
   38.6223   32.6881   48.9164 C   0  0  0  0  0  0  0  0  0  0  0  0
   38.5293   32.4321   47.5742 N   0  0  0  0  0  0  0  0  0  0  0  0
   38.0590   31.2310   47.1534 C   0  0  0  0  0  0  0  0  0  0  0  0
   37.6879   30.3006   48.0324 N   0  0  0  0  0  0  0  0  0  0  0  0
   37.2904   29.3317   50.5876 S   0  0  0  0  0  0  0  0  0  0  0  0
   35.4913   29.3489   50.7371 C   0  0  0  0  0  0  0  0  0  0  0  0
   34.6976   28.4032   49.3918 S   0  0  0  0  0  0  0  0  0  0  0  0
   38.3133   31.9329   50.9120 H   0  0  0  0  0  0  0  0  0  0  0  0
   39.0030   33.6577   49.2076 H   0  0  0  0  0  0  0  0  0  0  0  0
   37.9879   31.0337   46.0951 H   0  0  0  0  0  0  0  0  0  0  0  0
   35.1762   28.9007   51.7030 H   0  0  0  0  0  0  0  0  0  0  0  0
   35.1286   30.3953   50.7322 H   0  0  0  0  0  0  0  0  0  0  0  0
   37.4142   26.6588   50.2022 O   0  0  0  0  0  0  0  0  0  0  0  0
   36.1228   26.3538   50.5876 C   0  0  1  0  0  0  0  0  0  0  0  0
   35.0902   26.6465   49.5212 C   0  0  2  0  0  0  0  0  0  0  0  0
   35.5429   26.1156   48.3355 O   0  0  0  0  0  0  0  0  0  0  0  0
   35.4313   24.7340   48.3916 C   0  0  0  0  0  0  0  0  0  0  0  0
   36.1563   24.0975   49.5462 C   0  0  1  0  0  0  0  0  0  0  0  0
   37.5100   23.8936   49.3175 O   0  0  0  0  0  0  0  0  0  0  0  0
   35.9793   24.8500   50.8537 C   0  0  2  0  0  0  0  0  0  0  0  0
   34.6735   24.6599   51.3242 O   0  0  0  0  0  0  0  0  0  0  0  0
   37.6947   26.2311   49.3784 H   0  0  0  0  0  0  0  0  0  0  0  0
   35.8437   26.8921   51.4963 H   0  0  0  0  0  0  0  0  0  0  0  0
   34.1617   26.1195   49.8114 H   0  0  0  0  0  0  0  0  0  0  0  0
   34.3457   24.4727   48.5107 H   0  0  0  0  0  0  0  0  0  0  0  0
   35.8220   24.2536   47.4645 H   0  0  0  0  0  0  0  0  0  0  0  0
   35.6620   23.0992   49.7152 H   0  0  0  0  0  0  0  0  0  0  0  0
   37.9234   23.7441   50.2182 H   0  0  0  0  0  0  0  0  0  0  0  0
   36.6788   24.4692   51.5910 H   0  0  0  0  0  0  0  0  0  0  0  0
   34.4200   23.7078   51.3586 H   0  0  0  0  0  0  0  0  0  0  0  0
  1  2  2  0
  1  7  1  0
  3  2  1  0
  4  3  2  0
  5  4  1  0
  5  6  2  0
  6  1  1  0
  7  8  1  0
  9  8  1  0
  2 10  1  0
  3 11  1  0
  5 12  1  0
  8 13  1  0
  8 14  1  0
 15 16  1  0
 16 17  1  0
 17 18  1  0
 18 19  1  0
 19 20  1  0
 20 21  1  0
 20 22  1  0
 22 23  1  0
 22 16  1  0
 15 24  1  0
 16 25  1  1
 17 26  1  1
 19 27  1  0
 19 28  1  0
 20 29  1  1
 21 30  1  0
 22 31  1  1
 23 32  1  0
  9 17  1  0
M  ISO  5  10  14  11  14  12  14  13   8  14   8
M  END
>  <DihAtoms>  (1) 
7,8,16,15

>  <DihDeg>  (1) 
67.51312599870579

$$$$
