
     RDKit          3D

 28 29  0  0  0  0  0  0  0  0999 V2000
   37.3302   30.2348   51.4218 C   0  0  0  0  0  0  0  0  0  0  0  0
   38.0855   30.7423   50.3499 C   0  0  0  0  0  0  0  0  0  0  0  0
   37.6996   30.3744   49.0476 C   0  0  0  0  0  0  0  0  0  0  0  0
   36.6063   29.5398   48.8952 N   0  0  0  0  0  0  0  0  0  0  0  0
   35.9232   29.0865   49.9611 C   0  0  0  0  0  0  0  0  0  0  0  0
   36.2770   29.4273   51.2155 N   0  0  0  0  0  0  0  0  0  0  0  0
   34.8702   28.2699   49.5981 O   0  0  0  0  0  0  0  0  0  0  0  0
   37.5627   30.4709   52.4535 H   0  0  0  0  0  0  0  0  0  0  0  0
   38.9229   31.3862   50.5453 H   0  0  0  0  0  0  0  0  0  0  0  0
   38.2434   30.7359   48.2084 H   0  0  0  0  0  0  0  0  0  0  0  0
   32.6728   27.2810   48.6062 O   0  0  0  0  0  0  0  0  0  0  0  0
   32.7420   27.1379   50.0078 C   0  0  2  0  0  0  0  0  0  0  0  0
   34.0149   27.6812   50.5719 C   0  0  1  0  0  0  0  0  0  0  0  0
   34.7348   26.7649   51.3207 O   0  0  0  0  0  0  0  0  0  0  0  0
   34.9667   25.5649   50.6833 C   0  0  0  0  0  0  0  0  0  0  0  0
   33.6977   24.8236   50.3291 C   0  0  2  0  0  0  0  0  0  0  0  0
   33.8085   24.2639   49.0430 O   0  0  0  0  0  0  0  0  0  0  0  0
   32.4889   25.6887   50.4021 C   0  0  2  0  0  0  0  0  0  0  0  0
   31.5292   25.1503   49.5486 O   0  0  0  0  0  0  0  0  0  0  0  0
   33.5731   27.3165   48.1976 H   0  0  0  0  0  0  0  0  0  0  0  0
   31.8661   27.7098   50.3930 H   0  0  0  0  0  0  0  0  0  0  0  0
   33.7880   28.5238   51.2906 H   0  0  0  0  0  0  0  0  0  0  0  0
   35.4942   24.9230   51.4337 H   0  0  0  0  0  0  0  0  0  0  0  0
   35.6302   25.6263   49.8024 H   0  0  0  0  0  0  0  0  0  0  0  0
   33.5059   23.9456   51.0080 H   0  0  0  0  0  0  0  0  0  0  0  0
   34.1422   24.9716   48.4424 H   0  0  0  0  0  0  0  0  0  0  0  0
   32.1409   25.7249   51.4715 H   0  0  0  0  0  0  0  0  0  0  0  0
   31.4783   25.6437   48.6983 H   0  0  0  0  0  0  0  0  0  0  0  0
  2  1  2  0
  3  2  1  0
  4  3  2  0
  4  5  1  0
  5  6  2  0
  6  1  1  0
  7  5  1  0
  1  8  1  0
  2  9  1  0
  3 10  1  0
 11 12  1  0
 12 13  1  0
 13 14  1  0
 14 15  1  0
 15 16  1  0
 16 17  1  0
 16 18  1  0
 18 19  1  0
 18 12  1  0
 11 20  1  0
 12 21  1  1
 13 22  1  1
 15 23  1  0
 15 24  1  0
 16 25  1  1
 17 26  1  0
 18 27  1  1
 19 28  1  0
  7 13  1  0
M  ISO  3   8  14   9  14  10  14
M  END
>  <DihAtoms>  (1) 
4,6,12,11

>  <DihDeg>  (1) 
119.74823588195196

$$$$
