
     RDKit          3D

 32 33  0  0  0  0  0  0  0  0999 V2000
   37.7680   30.5230   49.3394 C   0  0  0  0  0  0  0  0  0  0  0  0
   38.2383   31.7254   49.8396 C   0  0  0  0  0  0  0  0  0  0  0  0
   38.6223   32.6881   48.9164 C   0  0  0  0  0  0  0  0  0  0  0  0
   38.5293   32.4321   47.5742 N   0  0  0  0  0  0  0  0  0  0  0  0
   38.0590   31.2310   47.1534 C   0  0  0  0  0  0  0  0  0  0  0  0
   37.6879   30.3006   48.0324 N   0  0  0  0  0  0  0  0  0  0  0  0
   37.2904   29.3317   50.5876 S   0  0  0  0  0  0  0  0  0  0  0  0
   35.4913   29.3489   50.7371 C   0  0  0  0  0  0  0  0  0  0  0  0
   34.6976   28.4032   49.3918 S   0  0  0  0  0  0  0  0  0  0  0  0
   38.3133   31.9329   50.9120 H   0  0  0  0  0  0  0  0  0  0  0  0
   39.0030   33.6577   49.2076 H   0  0  0  0  0  0  0  0  0  0  0  0
   37.9879   31.0337   46.0951 H   0  0  0  0  0  0  0  0  0  0  0  0
   35.1762   28.9007   51.7030 H   0  0  0  0  0  0  0  0  0  0  0  0
   35.1286   30.3953   50.7322 H   0  0  0  0  0  0  0  0  0  0  0  0
   37.2374   26.4875   48.4126 O   0  0  0  0  0  0  0  0  0  0  0  0
   36.5769   26.3841   49.6218 C   0  0  1  0  0  0  0  0  0  0  0  0
   35.0902   26.6465   49.5212 C   0  0  2  0  0  0  0  0  0  0  0  0
   34.6010   25.9145   48.4640 O   0  0  0  0  0  0  0  0  0  0  0  0
   34.5751   24.5743   48.8208 C   0  0  0  0  0  0  0  0  0  0  0  0
   35.9050   24.0199   49.2542 C   0  0  1  0  0  0  0  0  0  0  0  0
   36.7248   23.6360   48.2021 O   0  0  0  0  0  0  0  0  0  0  0  0
   36.6749   24.9552   50.1706 C   0  0  2  0  0  0  0  0  0  0  0  0
   36.0616   24.9778   51.4299 O   0  0  0  0  0  0  0  0  0  0  0  0
   36.8737   25.9249   47.7116 H   0  0  0  0  0  0  0  0  0  0  0  0
   36.9991   27.0668   50.3628 H   0  0  0  0  0  0  0  0  0  0  0  0
   34.6278   26.2710   50.4535 H   0  0  0  0  0  0  0  0  0  0  0  0
   33.8779   24.4552   49.6931 H   0  0  0  0  0  0  0  0  0  0  0  0
   34.2199   23.9336   47.9804 H   0  0  0  0  0  0  0  0  0  0  0  0
   35.6770   23.1151   49.8859 H   0  0  0  0  0  0  0  0  0  0  0  0
   37.6487   23.5623   48.5837 H   0  0  0  0  0  0  0  0  0  0  0  0
   37.6943   24.5997   50.2811 H   0  0  0  0  0  0  0  0  0  0  0  0
   35.9134   24.0736   51.7936 H   0  0  0  0  0  0  0  0  0  0  0  0
  1  2  2  0
  1  7  1  0
  3  2  1  0
  4  3  2  0
  5  4  1  0
  5  6  2  0
  6  1  1  0
  7  8  1  0
  9  8  1  0
  2 10  1  0
  3 11  1  0
  5 12  1  0
  8 13  1  0
  8 14  1  0
 15 16  1  0
 16 17  1  0
 17 18  1  0
 18 19  1  0
 19 20  1  0
 20 21  1  0
 20 22  1  0
 22 23  1  0
 22 16  1  0
 15 24  1  0
 16 25  1  1
 17 26  1  1
 19 27  1  0
 19 28  1  0
 20 29  1  1
 21 30  1  0
 22 31  1  1
 23 32  1  0
  9 17  1  0
M  ISO  5  10  14  11  14  12  14  13   8  14   8
M  END
>  <DihAtoms>  (1) 
7,8,16,15

>  <DihDeg>  (1) 
67.51312599870579

$$$$
