
     RDKit          3D

 32 33  0  0  0  0  0  0  0  0999 V2000
   37.7680   30.5230   49.3394 C   0  0  0  0  0  0  0  0  0  0  0  0
   38.2383   31.7254   49.8396 C   0  0  0  0  0  0  0  0  0  0  0  0
   38.6223   32.6881   48.9164 C   0  0  0  0  0  0  0  0  0  0  0  0
   38.5293   32.4321   47.5742 N   0  0  0  0  0  0  0  0  0  0  0  0
   38.0590   31.2310   47.1534 C   0  0  0  0  0  0  0  0  0  0  0  0
   37.6879   30.3006   48.0324 N   0  0  0  0  0  0  0  0  0  0  0  0
   37.2904   29.3317   50.5876 S   0  0  0  0  0  0  0  0  0  0  0  0
   35.4913   29.3489   50.7371 C   0  0  0  0  0  0  0  0  0  0  0  0
   34.6976   28.4032   49.3918 S   0  0  0  0  0  0  0  0  0  0  0  0
   38.3133   31.9329   50.9120 H   0  0  0  0  0  0  0  0  0  0  0  0
   39.0030   33.6577   49.2076 H   0  0  0  0  0  0  0  0  0  0  0  0
   37.9879   31.0337   46.0951 H   0  0  0  0  0  0  0  0  0  0  0  0
   35.1762   28.9007   51.7030 H   0  0  0  0  0  0  0  0  0  0  0  0
   35.1286   30.3953   50.7322 H   0  0  0  0  0  0  0  0  0  0  0  0
   34.6800   25.8323   47.2776 O   0  0  0  0  0  0  0  0  0  0  0  0
   35.6459   26.0740   48.2357 C   0  0  1  0  0  0  0  0  0  0  0  0
   35.0902   26.6465   49.5212 C   0  0  2  0  0  0  0  0  0  0  0  0
   34.0044   25.8862   49.8895 O   0  0  0  0  0  0  0  0  0  0  0  0
   34.4539   24.6605   50.3583 C   0  0  0  0  0  0  0  0  0  0  0  0
   35.3059   23.8954   49.3822 C   0  0  1  0  0  0  0  0  0  0  0  0
   34.5791   23.1743   48.4451 O   0  0  0  0  0  0  0  0  0  0  0  0
   36.3223   24.7653   48.6630 C   0  0  2  0  0  0  0  0  0  0  0  0
   37.3388   25.1253   49.5574 O   0  0  0  0  0  0  0  0  0  0  0  0
   33.9552   25.2628   47.5786 H   0  0  0  0  0  0  0  0  0  0  0  0
   36.4154   26.7520   47.8594 H   0  0  0  0  0  0  0  0  0  0  0  0
   35.8747   26.5378   50.2938 H   0  0  0  0  0  0  0  0  0  0  0  0
   35.0897   24.8419   51.2660 H   0  0  0  0  0  0  0  0  0  0  0  0
   33.6058   23.9919   50.6352 H   0  0  0  0  0  0  0  0  0  0  0  0
   35.9195   23.1775   49.9967 H   0  0  0  0  0  0  0  0  0  0  0  0
   35.2203   22.9550   47.7066 H   0  0  0  0  0  0  0  0  0  0  0  0
   36.7583   24.2106   47.8384 H   0  0  0  0  0  0  0  0  0  0  0  0
   37.7206   24.3474   50.0273 H   0  0  0  0  0  0  0  0  0  0  0  0
  1  2  2  0
  1  7  1  0
  3  2  1  0
  4  3  2  0
  5  4  1  0
  5  6  2  0
  6  1  1  0
  7  8  1  0
  9  8  1  0
  2 10  1  0
  3 11  1  0
  5 12  1  0
  8 13  1  0
  8 14  1  0
 15 16  1  0
 16 17  1  0
 17 18  1  0
 18 19  1  0
 19 20  1  0
 20 21  1  0
 20 22  1  0
 22 23  1  0
 22 16  1  0
 15 24  1  0
 16 25  1  6
 17 26  1  1
 19 27  1  0
 19 28  1  0
 20 29  1  1
 21 30  1  0
 22 31  1  6
 23 32  1  0
  9 17  1  0
M  ISO  5  10  14  11  14  12  14  13   8  14   8
M  END
>  <DihAtoms>  (1) 
7,8,16,15

>  <DihDeg>  (1) 
67.51312599870579

$$$$
