
     RDKit          3D

 37 39  0  0  0  0  0  0  0  0999 V2000
   37.7768   30.6822   50.6067 C   0  0  0  0  0  0  0  0  0  0  0  0
   38.4559   31.6117   49.7795 C   0  0  0  0  0  0  0  0  0  0  0  0
   37.9255   31.8620   48.4975 C   0  0  0  0  0  0  0  0  0  0  0  0
   36.8069   31.1973   48.1489 N   0  0  0  0  0  0  0  0  0  0  0  0
   36.1828   30.3192   48.9562 C   0  0  0  0  0  0  0  0  0  0  0  0
   36.6606   30.0552   50.1872 N   0  0  0  0  0  0  0  0  0  0  0  0
   35.0013   29.6116   48.5988 N   0  0  0  0  0  0  0  0  0  0  0  0
   34.7537   29.4275   47.2922 C   0  0  0  0  0  0  0  0  0  0  0  0
   33.5912   28.7331   47.0133 C   0  0  0  0  0  0  0  0  0  0  0  0
   32.7226   28.2487   47.9862 C   0  0  0  0  0  0  0  0  0  0  0  0
   31.6730   27.6213   47.7163 O   0  0  0  0  0  0  0  0  0  0  0  0
   33.0384   28.4734   49.3064 N   0  0  0  0  0  0  0  0  0  0  0  0
   34.1743   29.1508   49.5425 C   0  0  0  0  0  0  0  0  0  0  0  0
   34.4960   29.3760   50.7593 O   0  0  0  0  0  0  0  0  0  0  0  0
   38.1616   30.4614   51.6144 H   0  0  0  0  0  0  0  0  0  0  0  0
   39.3352   32.1019   50.1175 H   0  0  0  0  0  0  0  0  0  0  0  0
   38.4029   32.5615   47.8251 H   0  0  0  0  0  0  0  0  0  0  0  0
   35.4062   29.7899   46.5093 H   0  0  0  0  0  0  0  0  0  0  0  0
   33.3390   28.5541   45.9738 H   0  0  0  0  0  0  0  0  0  0  0  0
   30.7939   29.5919   49.3752 O   0  0  0  0  0  0  0  0  0  0  0  0
   30.7539   28.2983   49.8970 C   0  0  1  0  0  0  0  0  0  0  0  0
   32.1527   27.9808   50.3451 C   0  0  2  0  0  0  0  0  0  0  0  0
   32.4571   28.6039   51.5292 O   0  0  0  0  0  0  0  0  0  0  0  0
   31.6687   28.1453   52.5572 C   0  0  0  0  0  0  0  0  0  0  0  0
   30.1955   28.3363   52.3605 C   0  0  1  0  0  0  0  0  0  0  0  0
   29.7882   29.5432   52.9284 O   0  0  0  0  0  0  0  0  0  0  0  0
   29.7153   28.1745   50.9565 C   0  0  2  0  0  0  0  0  0  0  0  0
   29.0221   26.9796   50.7691 O   0  0  0  0  0  0  0  0  0  0  0  0
   30.6357   29.6128   48.3975 H   0  0  0  0  0  0  0  0  0  0  0  0
   30.5248   27.6132   49.0388 H   0  0  0  0  0  0  0  0  0  0  0  0
   32.3029   26.8830   50.3653 H   0  0  0  0  0  0  0  0  0  0  0  0
   31.9501   28.7490   53.4650 H   0  0  0  0  0  0  0  0  0  0  0  0
   31.9080   27.0908   52.8620 H   0  0  0  0  0  0  0  0  0  0  0  0
   29.6990   27.5290   52.9700 H   0  0  0  0  0  0  0  0  0  0  0  0
   28.8383   29.4294   53.1924 H   0  0  0  0  0  0  0  0  0  0  0  0
   28.9596   28.9896   50.7794 H   0  0  0  0  0  0  0  0  0  0  0  0
   28.1757   26.9411   51.2776 H   0  0  0  0  0  0  0  0  0  0  0  0
  2  1  2  0
  3  2  1  0
  4  3  2  0
  4  5  1  0
  5  6  2  0
  6  1  1  0
  7  5  1  0
  7 13  1  0
  8  7  1  0
  9  8  2  0
  9 10  1  0
 10 12  1  0
 11 10  2  0
 12 13  1  0
 13 14  2  0
  1 15  1  0
  2 16  1  0
  3 17  1  0
  8 18  1  0
  9 19  1  0
 20 21  1  0
 21 22  1  0
 22 23  1  0
 23 24  1  0
 24 25  1  0
 25 26  1  0
 25 27  1  0
 27 28  1  0
 27 21  1  0
 20 29  1  0
 21 30  1  6
 22 31  1  1
 24 32  1  0
 24 33  1  0
 25 34  1  1
 26 35  1  0
 27 36  1  6
 28 37  1  0
 12 22  1  0
M  ISO  5  15  14  16  14  17  14  18  14  19  14
M  END
>  <DihAtoms>  (1) 
9,11,21,20

>  <DihDeg>  (1) 
-73.67277112876852

$$$$
