
     RDKit          3D

 28 29  0  0  0  0  0  0  0  0999 V2000
   37.3302   30.2348   51.4218 C   0  0  0  0  0  0  0  0  0  0  0  0
   38.0855   30.7423   50.3499 C   0  0  0  0  0  0  0  0  0  0  0  0
   37.6996   30.3744   49.0476 C   0  0  0  0  0  0  0  0  0  0  0  0
   36.6063   29.5398   48.8952 N   0  0  0  0  0  0  0  0  0  0  0  0
   35.9232   29.0865   49.9611 C   0  0  0  0  0  0  0  0  0  0  0  0
   36.2770   29.4273   51.2155 N   0  0  0  0  0  0  0  0  0  0  0  0
   34.8702   28.2699   49.5981 O   0  0  0  0  0  0  0  0  0  0  0  0
   37.5627   30.4709   52.4535 H   0  0  0  0  0  0  0  0  0  0  0  0
   38.9229   31.3862   50.5453 H   0  0  0  0  0  0  0  0  0  0  0  0
   38.2434   30.7359   48.2084 H   0  0  0  0  0  0  0  0  0  0  0  0
   35.6939   25.9512   50.4557 O   0  0  0  0  0  0  0  0  0  0  0  0
   34.4722   26.3391   51.0445 C   0  0  2  0  0  0  0  0  0  0  0  0
   34.0149   27.6812   50.5719 C   0  0  1  0  0  0  0  0  0  0  0  0
   33.7880   28.5898   51.5924 O   0  0  0  0  0  0  0  0  0  0  0  0
   34.8354   28.7249   52.4783 C   0  0  0  0  0  0  0  0  0  0  0  0
   35.1698   27.4423   53.2052 C   0  0  2  0  0  0  0  0  0  0  0  0
   36.5654   27.2861   53.2916 O   0  0  0  0  0  0  0  0  0  0  0  0
   34.5654   26.2442   52.5618 C   0  0  2  0  0  0  0  0  0  0  0  0
   35.3476   25.1419   52.8973 O   0  0  0  0  0  0  0  0  0  0  0  0
   36.2323   26.7346   50.1814 H   0  0  0  0  0  0  0  0  0  0  0  0
   33.7486   25.5479   50.7394 H   0  0  0  0  0  0  0  0  0  0  0  0
   33.0184   27.5848   50.0469 H   0  0  0  0  0  0  0  0  0  0  0  0
   34.4740   29.4347   53.2651 H   0  0  0  0  0  0  0  0  0  0  0  0
   35.7514   29.1707   52.0517 H   0  0  0  0  0  0  0  0  0  0  0  0
   34.8154   27.4461   54.2743 H   0  0  0  0  0  0  0  0  0  0  0  0
   36.9352   27.4455   52.3911 H   0  0  0  0  0  0  0  0  0  0  0  0
   33.5043   26.1436   52.9221 H   0  0  0  0  0  0  0  0  0  0  0  0
   35.9456   24.8802   52.1604 H   0  0  0  0  0  0  0  0  0  0  0  0
  2  1  2  0
  3  2  1  0
  4  3  2  0
  4  5  1  0
  5  6  2  0
  6  1  1  0
  7  5  1  0
  1  8  1  0
  2  9  1  0
  3 10  1  0
 11 12  1  0
 12 13  1  0
 13 14  1  0
 14 15  1  0
 15 16  1  0
 16 17  1  0
 16 18  1  0
 18 19  1  0
 18 12  1  0
 11 20  1  0
 12 21  1  6
 13 22  1  6
 15 23  1  0
 15 24  1  0
 16 25  1  1
 17 26  1  0
 18 27  1  1
 19 28  1  0
  7 13  1  0
M  ISO  3   8  14   9  14  10  14
M  END
>  <DihAtoms>  (1) 
4,6,12,11

>  <DihDeg>  (1) 
119.74823588195196

$$$$
