
     RDKit          3D

 28 29  0  0  0  0  0  0  0  0999 V2000
   37.3302   30.2348   51.4218 C   0  0  0  0  0  0  0  0  0  0  0  0
   38.0855   30.7423   50.3499 C   0  0  0  0  0  0  0  0  0  0  0  0
   37.6996   30.3744   49.0476 C   0  0  0  0  0  0  0  0  0  0  0  0
   36.6063   29.5398   48.8952 N   0  0  0  0  0  0  0  0  0  0  0  0
   35.9232   29.0865   49.9611 C   0  0  0  0  0  0  0  0  0  0  0  0
   36.2770   29.4273   51.2155 N   0  0  0  0  0  0  0  0  0  0  0  0
   34.8702   28.2699   49.5981 O   0  0  0  0  0  0  0  0  0  0  0  0
   37.5627   30.4709   52.4535 H   0  0  0  0  0  0  0  0  0  0  0  0
   38.9229   31.3862   50.5453 H   0  0  0  0  0  0  0  0  0  0  0  0
   38.2434   30.7359   48.2084 H   0  0  0  0  0  0  0  0  0  0  0  0
   35.4704   28.9141   52.0507 O   0  0  0  0  0  0  0  0  0  0  0  0
   34.3749   28.0284   51.9802 C   0  0  2  0  0  0  0  0  0  0  0  0
   34.0149   27.6812   50.5719 C   0  0  1  0  0  0  0  0  0  0  0  0
   32.6957   27.9495   50.2459 O   0  0  0  0  0  0  0  0  0  0  0  0
   32.2844   29.2310   50.5437 C   0  0  0  0  0  0  0  0  0  0  0  0
   32.3645   29.5546   52.0183 C   0  0  2  0  0  0  0  0  0  0  0  0
   32.8652   30.8568   52.2002 O   0  0  0  0  0  0  0  0  0  0  0  0
   33.1988   28.5815   52.7744 C   0  0  2  0  0  0  0  0  0  0  0  0
   33.6847   29.2291   53.9075 O   0  0  0  0  0  0  0  0  0  0  0  0
   35.5498   29.4630   51.2313 H   0  0  0  0  0  0  0  0  0  0  0  0
   34.7099   27.1213   52.5349 H   0  0  0  0  0  0  0  0  0  0  0  0
   34.1300   26.5685   50.4089 H   0  0  0  0  0  0  0  0  0  0  0  0
   31.1961   29.2654   50.2837 H   0  0  0  0  0  0  0  0  0  0  0  0
   32.7728   30.0258   49.9525 H   0  0  0  0  0  0  0  0  0  0  0  0
   31.3534   29.5646   52.5143 H   0  0  0  0  0  0  0  0  0  0  0  0
   33.6718   30.9426   51.6389 H   0  0  0  0  0  0  0  0  0  0  0  0
   32.5624   27.6892   53.0292 H   0  0  0  0  0  0  0  0  0  0  0  0
   34.6222   29.5076   53.7955 H   0  0  0  0  0  0  0  0  0  0  0  0
  2  1  2  0
  3  2  1  0
  4  3  2  0
  4  5  1  0
  5  6  2  0
  6  1  1  0
  7  5  1  0
  1  8  1  0
  2  9  1  0
  3 10  1  0
 11 12  1  0
 12 13  1  0
 13 14  1  0
 14 15  1  0
 15 16  1  0
 16 17  1  0
 16 18  1  0
 18 19  1  0
 18 12  1  0
 11 20  1  0
 12 21  1  1
 13 22  1  1
 15 23  1  0
 15 24  1  0
 16 25  1  1
 17 26  1  0
 18 27  1  1
 19 28  1  0
  7 13  1  0
M  ISO  3   8  14   9  14  10  14
M  END
>  <DihAtoms>  (1) 
4,6,12,11

>  <DihDeg>  (1) 
119.74823588195196

$$$$
