
     RDKit          3D

 28 29  0  0  0  0  0  0  0  0999 V2000
   37.3302   30.2348   51.4218 C   0  0  0  0  0  0  0  0  0  0  0  0
   38.0855   30.7423   50.3499 C   0  0  0  0  0  0  0  0  0  0  0  0
   37.6996   30.3744   49.0476 C   0  0  0  0  0  0  0  0  0  0  0  0
   36.6063   29.5398   48.8952 N   0  0  0  0  0  0  0  0  0  0  0  0
   35.9232   29.0865   49.9611 C   0  0  0  0  0  0  0  0  0  0  0  0
   36.2770   29.4273   51.2155 N   0  0  0  0  0  0  0  0  0  0  0  0
   34.8702   28.2699   49.5981 O   0  0  0  0  0  0  0  0  0  0  0  0
   37.5627   30.4709   52.4535 H   0  0  0  0  0  0  0  0  0  0  0  0
   38.9229   31.3862   50.5453 H   0  0  0  0  0  0  0  0  0  0  0  0
   38.2434   30.7359   48.2084 H   0  0  0  0  0  0  0  0  0  0  0  0
   36.1386   27.2658   51.6410 O   0  0  0  0  0  0  0  0  0  0  0  0
   34.7430   27.0811   51.7309 C   0  0  2  0  0  0  0  0  0  0  0  0
   34.0149   27.6812   50.5719 C   0  0  1  0  0  0  0  0  0  0  0  0
   33.0358   28.5920   50.9330 O   0  0  0  0  0  0  0  0  0  0  0  0
   33.4659   29.5801   51.7925 C   0  0  0  0  0  0  0  0  0  0  0  0
   33.9648   29.0436   53.1149 C   0  0  2  0  0  0  0  0  0  0  0  0
   35.1277   29.7315   53.5072 O   0  0  0  0  0  0  0  0  0  0  0  0
   34.2315   27.5800   53.0760 C   0  0  2  0  0  0  0  0  0  0  0  0
   35.1817   27.2954   54.0534 O   0  0  0  0  0  0  0  0  0  0  0  0
   36.3675   28.0648   51.1043 H   0  0  0  0  0  0  0  0  0  0  0  0
   34.6060   25.9749   51.7506 H   0  0  0  0  0  0  0  0  0  0  0  0
   33.4612   26.8741   50.0062 H   0  0  0  0  0  0  0  0  0  0  0  0
   32.5557   30.1855   52.0341 H   0  0  0  0  0  0  0  0  0  0  0  0
   34.2035   30.2815   51.3636 H   0  0  0  0  0  0  0  0  0  0  0  0
   33.2338   29.2148   53.9545 H   0  0  0  0  0  0  0  0  0  0  0  0
   35.7345   29.7500   52.7296 H   0  0  0  0  0  0  0  0  0  0  0  0
   33.2615   27.0365   53.2487 H   0  0  0  0  0  0  0  0  0  0  0  0
   36.0795   27.1779   53.6671 H   0  0  0  0  0  0  0  0  0  0  0  0
  2  1  2  0
  3  2  1  0
  4  3  2  0
  4  5  1  0
  5  6  2  0
  6  1  1  0
  7  5  1  0
  1  8  1  0
  2  9  1  0
  3 10  1  0
 11 12  1  0
 12 13  1  0
 13 14  1  0
 14 15  1  0
 15 16  1  0
 16 17  1  0
 16 18  1  0
 18 19  1  0
 18 12  1  0
 11 20  1  0
 12 21  1  1
 13 22  1  6
 15 23  1  0
 15 24  1  0
 16 25  1  1
 17 26  1  0
 18 27  1  1
 19 28  1  0
  7 13  1  0
M  ISO  3   8  14   9  14  10  14
M  END
>  <DihAtoms>  (1) 
4,6,12,11

>  <DihDeg>  (1) 
119.74823588195196

$$$$
