
     RDKit          3D

 55 58  0  0  0  0  0  0  0  0999 V2000
   37.3341   30.1727   51.5230 C   0  0  0  0  0  0  0  0  0  0  0  0
   38.0601   30.8604   50.5170 C   0  0  0  0  0  0  0  0  0  0  0  0
   37.6993   30.6531   49.2003 C   0  0  0  0  0  0  0  0  0  0  0  0
   36.6633   29.7943   48.9808 N   0  0  0  0  0  0  0  0  0  0  0  0
   35.9852   29.1512   49.9300 C   0  0  0  0  0  0  0  0  0  0  0  0
   36.3326   29.3491   51.2210 N   0  0  0  0  0  0  0  0  0  0  0  0
   38.9373   33.2647   49.0145 F   0  0  0  0  0  0  0  0  0  0  0  0
   38.9108   32.4778   47.9438 C   0  0  0  0  0  0  0  0  0  0  0  0
   38.3323   31.2727   48.0532 C   0  0  0  0  0  0  0  0  0  0  0  0
   38.3542   30.5165   46.8705 C   0  0  0  0  0  0  0  0  0  0  0  0
   38.9221   30.9865   45.7151 C   0  0  0  0  0  0  0  0  0  0  0  0
   39.5027   32.2336   45.6605 C   0  0  0  0  0  0  0  0  0  0  0  0
   39.4873   32.9716   46.7955 C   0  0  0  0  0  0  0  0  0  0  0  0
   35.0002   28.3545   49.4537 O   0  0  0  0  0  0  0  0  0  0  0  0
   34.4445   28.6408   48.1844 C   0  0  0  0  0  0  0  0  0  0  0  0
   33.5572   27.5352   47.7052 C   0  0  0  0  0  0  0  0  0  0  0  0
   32.1155   27.8922   47.7477 C   0  0  0  0  0  0  0  0  0  0  0  0
   31.3724   27.4831   48.8500 C   0  0  0  0  0  0  0  0  0  0  0  0
   30.0408   27.7696   48.9679 C   0  0  0  0  0  0  0  0  0  0  0  0
   29.4386   28.4583   48.0027 N   0  0  0  0  0  0  0  0  0  0  0  0
   30.1700   28.8588   46.9217 C   0  0  0  0  0  0  0  0  0  0  0  0
   31.4771   28.5932   46.7775 N   0  0  0  0  0  0  0  0  0  0  0  0
   29.4495   29.6240   45.8740 C   0  0  0  0  0  0  0  0  0  0  0  0
   37.6679   30.3802   52.5296 H   0  0  0  0  0  0  0  0  0  0  0  0
   38.8730   31.5325   50.7132 H   0  0  0  0  0  0  0  0  0  0  0  0
   37.9215   29.5234   46.8172 H   0  0  0  0  0  0  0  0  0  0  0  0
   38.9278   30.3819   44.8077 H   0  0  0  0  0  0  0  0  0  0  0  0
   39.9546   32.6165   44.7543 H   0  0  0  0  0  0  0  0  0  0  0  0
   39.9398   33.9590   46.7759 H   0  0  0  0  0  0  0  0  0  0  0  0
   33.8074   29.5545   48.2895 H   0  0  0  0  0  0  0  0  0  0  0  0
   35.2355   28.9194   47.4362 H   0  0  0  0  0  0  0  0  0  0  0  0
   33.7884   27.3744   46.6170 H   0  0  0  0  0  0  0  0  0  0  0  0
   33.7453   26.5573   48.1861 H   0  0  0  0  0  0  0  0  0  0  0  0
   31.8196   26.9179   49.6646 H   0  0  0  0  0  0  0  0  0  0  0  0
   29.4752   27.4422   49.8360 H   0  0  0  0  0  0  0  0  0  0  0  0
   28.5748   30.1449   46.2945 H   0  0  0  0  0  0  0  0  0  0  0  0
   30.0651   30.4019   45.3825 H   0  0  0  0  0  0  0  0  0  0  0  0
   26.9036   28.3973   46.0916 O   0  0  0  0  0  0  0  0  0  0  0  0
   27.9502   27.6516   45.5333 C   0  0  2  0  0  0  0  0  0  0  0  0
   28.9026   28.6267   44.8747 C   0  0  1  0  0  0  0  0  0  0  0  0
   28.1963   29.2523   43.8509 O   0  0  0  0  0  0  0  0  0  0  0  0
   28.2428   28.4161   42.7388 C   0  0  0  0  0  0  0  0  0  0  0  0
   28.1514   26.9582   43.1166 C   0  0  2  0  0  0  0  0  0  0  0  0
   27.3997   26.3198   42.1259 O   0  0  0  0  0  0  0  0  0  0  0  0
   27.4231   26.7528   44.4254 C   0  0  1  0  0  0  0  0  0  0  0  0
   27.6938   25.4380   44.8109 O   0  0  0  0  0  0  0  0  0  0  0  0
   26.0690   28.2502   45.5624 H   0  0  0  0  0  0  0  0  0  0  0  0
   28.4595   27.0917   46.3180 H   0  0  0  0  0  0  0  0  0  0  0  0
   29.7022   28.0218   44.3994 H   0  0  0  0  0  0  0  0  0  0  0  0
   29.2443   28.5670   42.2716 H   0  0  0  0  0  0  0  0  0  0  0  0
   27.4969   28.6839   41.9533 H   0  0  0  0  0  0  0  0  0  0  0  0
   29.1404   26.4549   43.1208 H   0  0  0  0  0  0  0  0  0  0  0  0
   27.9839   25.7840   41.5046 H   0  0  0  0  0  0  0  0  0  0  0  0
   26.3389   26.8444   44.3281 H   0  0  0  0  0  0  0  0  0  0  0  0
   26.9112   24.8546   44.6653 H   0  0  0  0  0  0  0  0  0  0  0  0
  2  1  2  0
  3  2  1  0
  4  3  2  0
  4  5  1  0
  5  6  2  0
  6  1  1  0
  8  9  2  0
  8  7  1  0
  9  3  1  0
 10  9  1  0
 11 10  2  0
 12 11  1  0
 12 13  2  0
 13  8  1  0
 14  5  1  0
 15 14  1  0
 16 17  1  0
 16 15  1  0
 17 18  2  0
 18 19  1  0
 20 19  2  0
 21 20  1  0
 22 21  2  0
 22 17  1  0
 23 21  1  0
  1 24  1  0
  2 25  1  0
 10 26  1  0
 11 27  1  0
 12 28  1  0
 13 29  1  0
 15 30  1  0
 15 31  1  0
 16 32  1  0
 16 33  1  0
 18 34  1  0
 19 35  1  0
 23 36  1  0
 23 37  1  0
 38 39  1  0
 39 40  1  0
 40 41  1  0
 41 42  1  0
 42 43  1  0
 43 44  1  0
 43 45  1  0
 45 46  1  0
 45 39  1  0
 38 47  1  0
 39 48  1  1
 40 49  1  6
 42 50  1  0
 42 51  1  0
 43 52  1  1
 44 53  1  0
 45 54  1  6
 46 55  1  0
 23 40  1  0
M  ISO  8  24  14  25  14  26  14  27  14  28  14  29  14  30   8  31   8
M  ISO  6  32   8  33   8  34  14  35  14  36   8  37   8
M  END
>  <DihAtoms>  (1) 
20,22,39,38

>  <DihDeg>  (1) 
60.01285845427838

$$$$
