
     RDKit          3D

 41 43  0  0  1  0  0  0  0  0999 V2000
   32.4330   28.8030   47.5640 C   0  0  2  0  0  0  0  0  0  0  0  0
   33.7320   28.6600   48.3380 C   0  0  1  0  0  0  0  0  0  0  0  0
   34.0350   27.3270   48.4020 O   0  0  0  0  0  0  0  0  0  0  0  0
   33.1990   26.6160   47.5550 C   0  0  0  0  0  0  0  0  0  0  0  0
   32.5910   27.6520   46.6010 C   0  0  1  0  0  0  0  0  0  0  0  0
   32.3620   30.0310   46.9280 O   0  0  0  0  0  0  0  0  0  0  0  0
   35.0090   29.4950   47.3460 S   0  0  0  0  0  0  0  0  0  0  0  0
   37.5790   29.7950   50.3500 C   0  0  0  0  0  0  0  0  0  0  0  0
   38.2390   31.0080   50.1490 C   0  0  0  0  0  0  0  0  0  0  0  0
   37.8660   31.7690   49.0230 C   0  0  0  0  0  0  0  0  0  0  0  0
   36.8990   31.2920   48.2060 N   0  0  0  0  0  0  0  0  0  0  0  0
   36.2840   30.1140   48.4340 C   0  0  0  0  0  0  0  0  0  0  0  0
   36.6120   29.3630   49.4940 N   0  0  0  0  0  0  0  0  0  0  0  0
   31.3820   27.1870   46.1190 O   0  0  0  0  0  0  0  0  0  0  0  0
   29.5280   26.6620   47.5740 C   0  0  2  0  0  0  0  0  0  0  0  0
   30.3620   27.7110   46.9130 C   0  0  2  0  0  0  0  0  0  0  0  0
   29.6360   28.6440   46.1910 O   0  0  0  0  0  0  0  0  0  0  0  0
   28.7170   28.0700   45.3260 C   0  0  0  0  0  0  0  0  0  0  0  0
   27.6320   27.5170   46.2300 C   0  0  1  0  0  0  0  0  0  0  0  0
   28.2360   26.3280   46.9230 C   0  0  1  0  0  0  0  0  0  0  0  0
   29.2790   26.9680   48.9160 O   0  0  0  0  0  0  0  0  0  0  0  0
   27.3730   28.5210   47.1850 O   0  0  0  0  0  0  0  0  0  0  0  0
   28.4040   25.3140   45.9610 O   0  0  0  0  0  0  0  0  0  0  0  0
   31.5098   28.7726   48.1613 H   0  0  0  0  0  0  0  0  0  0  0  0
   33.6638   29.0832   49.3510 H   0  0  0  0  0  0  0  0  0  0  0  0
   33.7731   25.8663   46.9908 H   0  0  0  0  0  0  0  0  0  0  0  0
   32.4213   26.0752   48.1141 H   0  0  0  0  0  0  0  0  0  0  0  0
   33.1687   27.8988   45.6980 H   0  0  0  0  0  0  0  0  0  0  0  0
   32.3203   30.7516   47.6055 H   0  0  0  0  0  0  0  0  0  0  0  0
   37.8455   29.1746   51.2184 H   0  0  0  0  0  0  0  0  0  0  0  0
   39.0192   31.3563   50.8418 H   0  0  0  0  0  0  0  0  0  0  0  0
   38.3521   32.7330   48.8123 H   0  0  0  0  0  0  0  0  0  0  0  0
   30.1587   25.7665   47.4728 H   0  0  0  0  0  0  0  0  0  0  0  0
   30.8212   28.2399   47.7612 H   0  0  0  0  0  0  0  0  0  0  0  0
   28.3040   28.8255   44.6414 H   0  0  0  0  0  0  0  0  0  0  0  0
   29.1695   27.2916   44.6941 H   0  0  0  0  0  0  0  0  0  0  0  0
   26.7126   27.2356   45.6957 H   0  0  0  0  0  0  0  0  0  0  0  0
   27.5662   25.9908   47.7278 H   0  0  0  0  0  0  0  0  0  0  0  0
   29.7855   26.3456   49.4958 H   0  0  0  0  0  0  0  0  0  0  0  0
   27.4703   28.1437   48.0951 H   0  0  0  0  0  0  0  0  0  0  0  0
   28.5476   24.4471   46.4170 H   0  0  0  0  0  0  0  0  0  0  0  0
  1  2  1  0
  2  3  1  0
  4  3  1  0
  5  4  1  0
  5  1  1  0
  6  1  1  0
  7  2  1  0
  7 12  1  0
  9  8  2  0
 10  9  1  0
 11 12  1  0
 11 10  2  0
 12 13  2  0
 13  8  1  0
 14  5  1  0
 15 21  1  0
 16 14  1  0
 16 15  1  0
 17 16  1  0
 18 17  1  0
 18 19  1  0
 19 20  1  0
 19 22  1  0
 20 23  1  0
 20 15  1  0
  1 24  1  1
  2 25  1  1
  4 26  1  0
  4 27  1  0
  5 28  1  6
  6 29  1  0
  8 30  1  0
  9 31  1  0
 10 32  1  0
 15 33  1  1
 16 34  1  1
 18 35  1  0
 18 36  1  0
 19 37  1  6
 20 38  1  1
 21 39  1  0
 22 40  1  0
 23 41  1  0
M  ISO  8  24  13  25  13  26  13  27  13  28  13  29   3  30  14  31  14
M  ISO  8  32  14  33  13  34  13  35  13  36  13  37  13  38  13  39   3
M  ISO  2  40   3  41   3
M  END
>  <minimizedAffinity>  (1) 
-4.72738743

>  <minimizedRMSD>  (1) 
3.80925465

$$$$
