
     RDKit          3D

 55 58  0  0  1  0  0  0  0  0999 V2000
   37.7270   30.6490   42.7810 C   0  0  2  0  0  0  0  0  0  0  0  0
   37.8010   29.5620   41.7600 C   0  0  0  0  0  0  0  0  0  0  0  0
   37.8030   28.1670   42.3790 C   0  0  0  0  0  0  0  0  0  0  0  0
   38.9820   28.0100   43.3050 C   0  0  0  0  0  0  0  0  0  0  0  0
   39.1980   29.2020   44.2060 C   0  0  0  0  0  0  0  0  0  0  0  0
   37.9940   30.1240   44.1820 C   0  0  1  0  0  0  0  0  0  0  0  0
   38.1530   31.1740   45.1080 N   0  0  0  0  0  0  0  0  0  0  0  0
   39.3650   31.9580   44.9290 C   0  0  0  0  0  0  0  0  0  0  0  0
   39.3470   32.8670   46.1530 C   0  0  0  0  0  0  0  0  0  0  0  0
   38.3430   32.2490   47.0870 C   0  0  0  0  0  0  0  0  0  0  0  0
   38.2180   30.8590   46.4790 C   0  0  1  0  0  0  0  0  0  0  0  0
   35.8640   29.9330   46.6400 C   0  0  1  0  0  0  0  0  0  0  0  0
   37.2660   29.9700   47.1260 C   0  0  2  0  0  0  0  0  0  0  0  0
   37.3830   30.0840   48.5030 O   0  0  0  0  0  0  0  0  0  0  0  0
   36.4210   30.9700   48.9590 C   0  0  0  0  0  0  0  0  0  0  0  0
   35.1730   30.0850   49.0640 C   0  0  2  0  0  0  0  0  0  0  0  0
   34.8360   29.5840   47.6870 C   0  0  2  0  0  0  0  0  0  0  0  0
   35.3960   31.1080   46.0450 O   0  0  0  0  0  0  0  0  0  0  0  0
   34.1320   30.7730   49.6760 O   0  0  0  0  0  0  0  0  0  0  0  0
   34.6140   28.2090   47.7970 O   0  0  0  0  0  0  0  0  0  0  0  0
   36.4060   31.3220   42.8170 C   0  0  0  0  0  0  0  0  0  0  0  0
   36.4510   32.7060   42.5420 C   0  0  0  0  0  0  0  0  0  0  0  0
   35.2500   33.3760   42.5210 C   0  0  0  0  0  0  0  0  0  0  0  0
   34.0860   32.6970   42.7580 N   0  0  0  0  0  0  0  0  0  0  0  0
   34.0740   31.3660   43.0200 C   0  0  0  0  0  0  0  0  0  0  0  0
   35.2290   30.7120   43.0440 N   0  0  0  0  0  0  0  0  0  0  0  0
   38.5005   31.3692   42.4761 H   0  0  0  0  0  0  0  0  0  0  0  0
   38.7256   29.6893   41.1778 H   0  0  0  0  0  0  0  0  0  0  0  0
   36.9051   29.6415   41.1267 H   0  0  0  0  0  0  0  0  0  0  0  0
   36.8726   28.0203   42.9472 H   0  0  0  0  0  0  0  0  0  0  0  0
   37.8749   27.4183   41.5763 H   0  0  0  0  0  0  0  0  0  0  0  0
   38.8161   27.1228   43.9338 H   0  0  0  0  0  0  0  0  0  0  0  0
   39.8789   27.9110   42.6758 H   0  0  0  0  0  0  0  0  0  0  0  0
   39.3618   28.8504   45.2353 H   0  0  0  0  0  0  0  0  0  0  0  0
   40.0751   29.7600   43.8463 H   0  0  0  0  0  0  0  0  0  0  0  0
   37.1110   29.5409   44.4825 H   0  0  0  0  0  0  0  0  0  0  0  0
   40.2579   31.3155   44.9229 H   0  0  0  0  0  0  0  0  0  0  0  0
   39.3996   32.5043   43.9749 H   0  0  0  0  0  0  0  0  0  0  0  0
   40.3410   32.9014   46.6228 H   0  0  0  0  0  0  0  0  0  0  0  0
   39.0838   33.9028   45.8926 H   0  0  0  0  0  0  0  0  0  0  0  0
   38.7201   32.2083   48.1195 H   0  0  0  0  0  0  0  0  0  0  0  0
   37.3946   32.8000   47.1705 H   0  0  0  0  0  0  0  0  0  0  0  0
   39.0459   30.1557   46.6521 H   0  0  0  0  0  0  0  0  0  0  0  0
   35.9545   29.1341   45.8893 H   0  0  0  0  0  0  0  0  0  0  0  0
   37.5744   28.9673   46.7949 H   0  0  0  0  0  0  0  0  0  0  0  0
   36.6968   31.3853   49.9395 H   0  0  0  0  0  0  0  0  0  0  0  0
   36.2843   31.8426   48.3033 H   0  0  0  0  0  0  0  0  0  0  0  0
   35.3612   29.2122   49.7065 H   0  0  0  0  0  0  0  0  0  0  0  0
   33.9310   30.0924   47.3230 H   0  0  0  0  0  0  0  0  0  0  0  0
   35.1385   31.7545   46.7491 H   0  0  0  0  0  0  0  0  0  0  0  0
   34.2277   30.7097   50.6593 H   0  0  0  0  0  0  0  0  0  0  0  0
   34.5733   27.9568   48.7535 H   0  0  0  0  0  0  0  0  0  0  0  0
   37.4026   33.2245   42.3533 H   0  0  0  0  0  0  0  0  0  0  0  0
   35.2253   34.4561   42.3140 H   0  0  0  0  0  0  0  0  0  0  0  0
   33.1268   30.8395   43.2087 H   0  0  0  0  0  0  0  0  0  0  0  0
  1 21  1  0
  1  6  1  0
  2  3  1  0
  2  1  1  0
  3  4  1  0
  4  5  1  0
  6  5  1  0
  6  7  1  0
  7  8  1  0
  7 11  1  0
  8  9  1  0
  9 10  1  0
 11 10  1  0
 11 13  1  0
 12 18  1  0
 12 13  1  0
 12 17  1  0
 13 14  1  0
 14 15  1  0
 15 16  1  0
 16 19  1  0
 17 20  1  0
 17 16  1  0
 21 26  1  0
 22 21  2  0
 23 22  1  0
 23 24  2  0
 24 25  1  0
 25 26  2  0
  1 27  1  6
  2 28  1  0
  2 29  1  0
  3 30  1  0
  3 31  1  0
  4 32  1  0
  4 33  1  0
  5 34  1  0
  5 35  1  0
  6 36  1  1
  8 37  1  0
  8 38  1  0
  9 39  1  0
  9 40  1  0
 10 41  1  0
 10 42  1  0
 11 43  1  6
 12 44  1  6
 13 45  1  1
 15 46  1  0
 15 47  1  0
 16 48  1  1
 17 49  1  6
 18 50  1  0
 19 51  1  0
 20 52  1  0
 22 53  1  0
 23 54  1  0
 25 55  1  0
M  ISO  8  27  13  28  13  29  13  30  13  31  13  32  13  33  13  34  13
M  ISO  8  35  13  36  13  37  13  38  13  39  13  40  13  41  13  42  13
M  ISO  8  43  13  44  13  45  13  46  13  47  13  48  13  49  13  50   3
M  ISO  5  51   3  52   3  53  14  54  14  55  14
M  END
>  <minimizedAffinity>  (1) 
-4.65071774

>  <minimizedRMSD>  (1) 
4.33601522

$$$$
