
     RDKit          3D

 56 60  0  0  0  0  0  0  0  0999 V2000
   36.9455   31.3888   47.3907 C   0  0  1  0  0  0  0  0  0  0  0  0
   38.1324   31.9978   48.0479 C   0  0  0  0  0  0  0  0  0  0  0  0
   38.4429   30.8969   47.1631 C   0  0  2  0  0  0  0  0  0  0  0  0
   39.1209   31.3779   45.9116 C   0  0  0  0  0  0  0  0  0  0  0  0
   39.6105   32.6731   46.0953 C   0  0  0  0  0  0  0  0  0  0  0  0
   40.3587   33.2642   45.1138 C   0  0  0  0  0  0  0  0  0  0  0  0
   40.6524   32.5997   43.9145 C   0  0  0  0  0  0  0  0  0  0  0  0
   40.1492   31.3145   43.7680 C   0  0  0  0  0  0  0  0  0  0  0  0
   40.3551   30.5667   42.6430 C   0  0  0  0  0  0  0  0  0  0  0  0
   39.8532   29.2946   42.4764 C   0  0  0  0  0  0  0  0  0  0  0  0
   39.1010   28.7413   43.4993 C   0  0  0  0  0  0  0  0  0  0  0  0
   38.8934   29.4956   44.6352 C   0  0  0  0  0  0  0  0  0  0  0  0
   39.4145   30.7667   44.7610 C   0  0  0  0  0  0  0  0  0  0  0  0
   34.4249   28.7660   48.3876 C   0  0  0  0  0  0  0  0  0  0  0  0
   35.1719   29.6923   47.5915 C   0  0  0  0  0  0  0  0  0  0  0  0
   36.1626   30.4143   48.1904 C   0  0  0  0  0  0  0  0  0  0  0  0
   36.3629   30.1847   49.5373 N   0  0  0  0  0  0  0  0  0  0  0  0
   35.6574   29.3168   50.2657 C   0  0  0  0  0  0  0  0  0  0  0  0
   34.6737   28.5922   49.6977 N   0  0  0  0  0  0  0  0  0  0  0  0
   36.0055   29.1793   51.7210 C   0  0  0  0  0  0  0  0  0  0  0  0
   37.3332   29.9346   51.9421 C   0  0  0  0  0  0  0  0  0  0  0  0
   36.5157   31.7324   46.4631 H   0  0  0  0  0  0  0  0  0  0  0  0
   38.2345   31.7686   49.1663 H   0  0  0  0  0  0  0  0  0  0  0  0
   38.1205   33.0705   47.9042 H   0  0  0  0  0  0  0  0  0  0  0  0
   38.4665   29.8268   47.3316 H   0  0  0  0  0  0  0  0  0  0  0  0
   39.5791   33.4139   46.8667 H   0  0  0  0  0  0  0  0  0  0  0  0
   40.8160   34.2456   45.0763 H   0  0  0  0  0  0  0  0  0  0  0  0
   41.2256   32.9470   43.0669 H   0  0  0  0  0  0  0  0  0  0  0  0
   40.9362   30.9543   41.8160 H   0  0  0  0  0  0  0  0  0  0  0  0
   39.9978   28.6782   41.6002 H   0  0  0  0  0  0  0  0  0  0  0  0
   38.6708   27.7512   43.4503 H   0  0  0  0  0  0  0  0  0  0  0  0
   38.2921   29.0395   45.4413 H   0  0  0  0  0  0  0  0  0  0  0  0
   33.6588   28.2284   47.8572 H   0  0  0  0  0  0  0  0  0  0  0  0
   34.9241   29.7891   46.5352 H   0  0  0  0  0  0  0  0  0  0  0  0
   35.1974   29.6384   52.2885 H   0  0  0  0  0  0  0  0  0  0  0  0
   36.1101   28.1294   52.0210 H   0  0  0  0  0  0  0  0  0  0  0  0
   37.1674   30.9484   51.5774 H   0  0  0  0  0  0  0  0  0  0  0  0
   38.1295   29.4525   51.3457 H   0  0  0  0  0  0  0  0  0  0  0  0
   37.7797   27.5683   52.5643 O   0  0  0  0  0  0  0  0  0  0  0  0
   37.9232   28.3715   53.7192 C   0  0  2  0  0  0  0  0  0  0  0  0
   37.7498   29.8398   53.3926 C   0  0  1  0  0  0  0  0  0  0  0  0
   38.8407   30.6107   53.7136 O   0  0  0  0  0  0  0  0  0  0  0  0
   39.9927   30.2004   53.0630 C   0  0  0  0  0  0  0  0  0  0  0  0
   40.3907   28.7975   53.4064 C   0  0  1  0  0  0  0  0  0  0  0  0
   41.5343   28.8117   54.2380 O   0  0  0  0  0  0  0  0  0  0  0  0
   39.3244   28.0892   54.2353 C   0  0  2  0  0  0  0  0  0  0  0  0
   39.6158   26.7313   54.1414 O   0  0  0  0  0  0  0  0  0  0  0  0
   38.6608   27.6735   52.0901 H   0  0  0  0  0  0  0  0  0  0  0  0
   37.2258   28.0296   54.5080 H   0  0  0  0  0  0  0  0  0  0  0  0
   36.8812   30.2175   53.9859 H   0  0  0  0  0  0  0  0  0  0  0  0
   39.9079   30.3735   51.9606 H   0  0  0  0  0  0  0  0  0  0  0  0
   40.8149   30.8987   53.3839 H   0  0  0  0  0  0  0  0  0  0  0  0
   40.6353   28.1895   52.5100 H   0  0  0  0  0  0  0  0  0  0  0  0
   41.9584   27.9390   54.3144 H   0  0  0  0  0  0  0  0  0  0  0  0
   39.4243   28.4075   55.2972 H   0  0  0  0  0  0  0  0  0  0  0  0
   40.1185   26.4961   53.3347 H   0  0  0  0  0  0  0  0  0  0  0  0
  1  2  1  0
  1 16  1  0
  3  1  1  0
  3  2  1  0
  4  5  2  0
  4  3  1  0
  6  5  1  0
  7  6  2  0
  8  7  1  0
  8 13  2  0
  9  8  1  0
 10  9  2  0
 10 11  1  0
 11 12  2  0
 12 13  1  0
 13  4  1  0
 14 19  2  0
 15 16  2  0
 15 14  1  0
 16 17  1  0
 17 18  2  0
 18 20  1  0
 19 18  1  0
 20 21  1  0
  1 22  1  6
  2 23  1  0
  2 24  1  0
  3 25  1  1
  5 26  1  0
  6 27  1  0
  7 28  1  0
  9 29  1  0
 10 30  1  0
 11 31  1  0
 12 32  1  0
 14 33  1  0
 15 34  1  0
 20 35  1  0
 20 36  1  0
 21 37  1  0
 21 38  1  0
 39 40  1  0
 40 41  1  0
 41 42  1  0
 42 43  1  0
 43 44  1  0
 44 45  1  0
 44 46  1  0
 46 47  1  0
 46 40  1  0
 39 48  1  0
 40 49  1  1
 41 50  1  1
 43 51  1  0
 43 52  1  0
 44 53  1  6
 45 54  1  0
 46 55  1  1
 47 56  1  0
 21 41  1  0
M  ISO  8  22  13  23  13  24  13  25  13  26  14  27  14  28  14  29  14
M  ISO  8  30  14  31  14  32  14  33  14  34  14  35   8  36   8  37   8
M  ISO  1  38   8
M  END
>  <DihAtoms>  (1) 
19,20,40,39

>  <DihDeg>  (1) 
-179.9991971677526

$$$$
