
     RDKit          3D

 55 58  0  0  0  0  0  0  0  0999 V2000
   33.1671   28.2420   49.0926 C   0  0  0  0  0  0  0  0  0  0  0  0
   30.9440   27.3722   48.5571 C   0  0  0  0  0  0  0  0  0  0  0  0
   32.2672   27.5195   48.2460 C   0  0  0  0  0  0  0  0  0  0  0  0
   32.6439   26.9066   47.1085 C   0  0  0  0  0  0  0  0  0  0  0  0
   31.7947   26.2045   46.3407 N   0  0  0  0  0  0  0  0  0  0  0  0
   30.5095   26.0545   46.6369 C   0  0  0  0  0  0  0  0  0  0  0  0
   30.0654   26.6366   47.7488 N   0  0  0  0  0  0  0  0  0  0  0  0
   30.3376   27.9879   49.7938 C   0  0  0  0  0  0  0  0  0  0  0  0
   28.9858   28.3818   49.8292 C   0  0  0  0  0  0  0  0  0  0  0  0
   29.3219   27.0139   50.4271 C   0  0  0  0  0  0  0  0  0  0  0  0
   34.5722   28.3729   48.6293 C   0  0  0  0  0  0  0  0  0  0  0  0
   35.5319   30.7908   47.6314 F   0  0  0  0  0  0  0  0  0  0  0  0
   35.9048   30.3217   48.8618 C   0  0  0  0  0  0  0  0  0  0  0  0
   35.4645   29.1293   49.4272 C   0  0  0  0  0  0  0  0  0  0  0  0
   35.9609   28.8606   50.6474 C   0  0  0  0  0  0  0  0  0  0  0  0
   36.8233   29.6531   51.3196 C   0  0  0  0  0  0  0  0  0  0  0  0
   37.2595   30.8476   50.7447 C   0  0  0  0  0  0  0  0  0  0  0  0
   36.7747   31.1527   49.4995 C   0  0  0  0  0  0  0  0  0  0  0  0
   37.2599   32.3725   48.9624 O   0  0  0  0  0  0  0  0  0  0  0  0
   38.5215   32.2392   48.3493 C   0  0  0  0  0  0  0  0  0  0  0  0
   39.1807   33.3434   48.5049 O   0  0  0  0  0  0  0  0  0  0  0  0
   39.1788   31.2000   47.6360 N   0  0  0  0  0  0  0  0  0  0  0  0
   33.2036   27.7533   50.0958 H   0  0  0  0  0  0  0  0  0  0  0  0
   32.7664   29.2773   49.2874 H   0  0  0  0  0  0  0  0  0  0  0  0
   33.6586   26.9332   46.7266 H   0  0  0  0  0  0  0  0  0  0  0  0
   29.7372   25.5180   46.1042 H   0  0  0  0  0  0  0  0  0  0  0  0
   31.0789   28.4678   50.4516 H   0  0  0  0  0  0  0  0  0  0  0  0
   28.6581   29.1733   50.5343 H   0  0  0  0  0  0  0  0  0  0  0  0
   28.3804   28.4006   48.8971 H   0  0  0  0  0  0  0  0  0  0  0  0
   28.9441   26.1740   49.8641 H   0  0  0  0  0  0  0  0  0  0  0  0
   29.3001   26.9892   51.5419 H   0  0  0  0  0  0  0  0  0  0  0  0
   34.9705   27.3109   48.5919 H   0  0  0  0  0  0  0  0  0  0  0  0
   34.5267   28.6470   47.5555 H   0  0  0  0  0  0  0  0  0  0  0  0
   35.6223   27.9184   51.1092 H   0  0  0  0  0  0  0  0  0  0  0  0
   37.1539   29.3211   52.3101 H   0  0  0  0  0  0  0  0  0  0  0  0
   40.2262   31.1811   47.6524 H   0  0  0  0  0  0  0  0  0  0  0  0
   40.2262   31.1823   47.6533 H   0  0  0  0  0  0  0  0  0  0  0  0
   36.4230   33.1172   51.3069 O   0  0  0  0  0  0  0  0  0  0  0  0
   37.6704   32.9984   51.9150 C   0  0  2  0  0  0  0  0  0  0  0  0
   38.1996   31.6178   51.5958 C   0  0  1  0  0  0  0  0  0  0  0  0
   38.5043   30.9228   52.7710 O   0  0  0  0  0  0  0  0  0  0  0  0
   39.4141   31.7258   53.4726 C   0  0  0  0  0  0  0  0  0  0  0  0
   38.6462   32.8004   54.2281 C   0  0  2  0  0  0  0  0  0  0  0  0
   38.2590   32.2135   55.4480 O   0  0  0  0  0  0  0  0  0  0  0  0
   37.4632   33.2077   53.3864 C   0  0  2  0  0  0  0  0  0  0  0  0
   36.2874   32.6115   53.8446 O   0  0  0  0  0  0  0  0  0  0  0  0
   35.6743   32.7709   51.8782 H   0  0  0  0  0  0  0  0  0  0  0  0
   38.3042   33.7965   51.4816 H   0  0  0  0  0  0  0  0  0  0  0  0
   39.1540   31.7521   51.0549 H   0  0  0  0  0  0  0  0  0  0  0  0
   40.0288   32.2629   52.7275 H   0  0  0  0  0  0  0  0  0  0  0  0
   40.0035   31.0710   54.1548 H   0  0  0  0  0  0  0  0  0  0  0  0
   39.3551   33.6387   54.3919 H   0  0  0  0  0  0  0  0  0  0  0  0
   37.5732   32.7403   55.9182 H   0  0  0  0  0  0  0  0  0  0  0  0
   37.3372   34.3086   53.5542 H   0  0  0  0  0  0  0  0  0  0  0  0
   36.4421   31.7873   54.3701 H   0  0  0  0  0  0  0  0  0  0  0  0
  2  8  1  0
  3  2  1  0
  3  1  1  0
  4  3  2  0
  5  6  2  0
  5  4  1  0
  6  7  1  0
  7  2  2  0
  8  9  1  0
  8 10  1  0
  9 10  1  0
 11  1  1  0
 11 14  1  0
 12 13  1  0
 13 14  2  0
 13 18  1  0
 14 15  1  0
 15 16  2  0
 17 16  1  0
 18 17  2  0
 19 18  1  0
 20 21  2  0
 20 19  1  0
 22 20  1  0
  1 23  1  0
  1 24  1  0
  4 25  1  0
  6 26  1  0
  8 27  1  0
  9 28  1  0
  9 29  1  0
 10 30  1  0
 10 31  1  0
 11 32  1  0
 11 33  1  0
 15 34  1  0
 16 35  1  0
 22 36  1  0
 22 37  1  0
 38 39  1  0
 39 40  1  0
 40 41  1  0
 41 42  1  0
 42 43  1  0
 43 44  1  0
 43 45  1  0
 45 46  1  0
 45 39  1  0
 38 47  1  0
 39 48  1  6
 40 49  1  6
 42 50  1  0
 42 51  1  0
 43 52  1  1
 44 53  1  0
 45 54  1  6
 46 55  1  0
 17 40  1  0
M  ISO  8  23   8  24   8  25  14  26  14  27  13  28  13  29  13  30  13
M  ISO  5  31  13  32   8  33   8  34  14  35  14
M  END
>  <DihAtoms>  (1) 
15,16,39,38

>  <DihDeg>  (1) 
-90.74374258593792

$$$$
