
     RDKit          3D

 32 33  0  0  0  0  0  0  0  0999 V2000
   35.6177   29.0130   50.1699 C   0  0  0  0  0  0  0  0  0  0  0  0
   36.2827   30.1552   49.6488 C   0  0  0  0  0  0  0  0  0  0  0  0
   36.0347   30.5195   48.3340 C   0  0  0  0  0  0  0  0  0  0  0  0
   35.1606   29.7528   47.6146 N   0  0  0  0  0  0  0  0  0  0  0  0
   34.5444   28.6656   48.1497 C   0  0  0  0  0  0  0  0  0  0  0  0
   34.7665   28.2920   49.4198 N   0  0  0  0  0  0  0  0  0  0  0  0
   33.7059   28.0162   47.2206 N   0  0  0  0  0  0  0  0  0  0  0  0
   37.2164   30.9058   50.5245 C   0  0  0  0  0  0  0  0  0  0  0  0
   38.5369   30.7808   50.1142 F   0  0  0  0  0  0  0  0  0  0  0  0
   36.8627   32.2224   50.5103 F   0  0  0  0  0  0  0  0  0  0  0  0
   37.1845   30.4696   51.8376 F   0  0  0  0  0  0  0  0  0  0  0  0
   35.8264   28.7479   51.1988 H   0  0  0  0  0  0  0  0  0  0  0  0
   34.2288   27.1022   47.0740 H   0  0  0  0  0  0  0  0  0  0  0  0
   32.8326   28.3598   46.8144 H   0  0  0  0  0  0  0  0  0  0  0  0
   37.9944   31.5446   49.7684 O   0  0  0  0  0  0  0  0  0  0  0  0
   37.8423   32.2436   48.5543 C   0  0  1  0  0  0  0  0  0  0  0  0
   36.7062   31.7087   47.7467 C   0  0  2  0  0  0  0  0  0  0  0  0
   35.7359   32.7176   47.7111 O   0  0  0  0  0  0  0  0  0  0  0  0
   36.1546   33.8040   46.9677 C   0  0  0  0  0  0  0  0  0  0  0  0
   37.1515   34.5488   47.8126 C   0  0  2  0  0  0  0  0  0  0  0  0
   38.2606   34.8959   47.0504 O   0  0  0  0  0  0  0  0  0  0  0  0
   37.6048   33.6946   49.0040 C   0  0  1  0  0  0  0  0  0  0  0  0
   36.5579   33.7022   49.9109 O   0  0  0  0  0  0  0  0  0  0  0  0
   38.8872   31.7950   50.1482 H   0  0  0  0  0  0  0  0  0  0  0  0
   38.8114   32.3267   47.9926 H   0  0  0  0  0  0  0  0  0  0  0  0
   36.9531   31.5698   46.6754 H   0  0  0  0  0  0  0  0  0  0  0  0
   35.2422   34.4117   46.7650 H   0  0  0  0  0  0  0  0  0  0  0  0
   36.5420   33.4861   45.9783 H   0  0  0  0  0  0  0  0  0  0  0  0
   36.6520   35.4217   48.2465 H   0  0  0  0  0  0  0  0  0  0  0  0
   37.9688   35.2353   46.1701 H   0  0  0  0  0  0  0  0  0  0  0  0
   38.5326   34.1544   49.3520 H   0  0  0  0  0  0  0  0  0  0  0  0
   36.4893   34.5459   50.4023 H   0  0  0  0  0  0  0  0  0  0  0  0
  2  1  2  0
  2  8  1  0
  3  2  1  0
  4  5  1  0
  4  3  2  0
  5  6  2  0
  6  1  1  0
  7  5  1  0
  8 11  1  0
  9  8  1  0
 10  8  1  0
  1 12  1  0
  7 13  1  0
  7 14  1  0
 15 16  1  0
 16 17  1  0
 17 18  1  0
 18 19  1  0
 19 20  1  0
 20 21  1  0
 20 22  1  0
 22 23  1  0
 22 16  1  0
 15 24  1  0
 16 25  1  6
 17 26  1  6
 19 27  1  0
 19 28  1  0
 20 29  1  1
 21 30  1  0
 22 31  1  1
 23 32  1  0
  3 17  1  0
M  ISO  1  12  14
M  END
>  <DihAtoms>  (1) 
1,2,16,15

>  <DihDeg>  (1) 
-91.90979488336156

$$$$
