
     RDKit          3D

 32 33  0  0  0  0  0  0  0  0999 V2000
   35.6177   29.0130   50.1699 C   0  0  0  0  0  0  0  0  0  0  0  0
   36.2827   30.1552   49.6488 C   0  0  0  0  0  0  0  0  0  0  0  0
   36.0347   30.5195   48.3340 C   0  0  0  0  0  0  0  0  0  0  0  0
   35.1606   29.7528   47.6146 N   0  0  0  0  0  0  0  0  0  0  0  0
   34.5444   28.6656   48.1497 C   0  0  0  0  0  0  0  0  0  0  0  0
   34.7665   28.2920   49.4198 N   0  0  0  0  0  0  0  0  0  0  0  0
   33.7059   28.0162   47.2206 N   0  0  0  0  0  0  0  0  0  0  0  0
   37.2164   30.9058   50.5245 C   0  0  0  0  0  0  0  0  0  0  0  0
   38.5369   30.7808   50.1142 F   0  0  0  0  0  0  0  0  0  0  0  0
   36.8627   32.2224   50.5103 F   0  0  0  0  0  0  0  0  0  0  0  0
   37.1845   30.4696   51.8376 F   0  0  0  0  0  0  0  0  0  0  0  0
   35.8264   28.7479   51.1988 H   0  0  0  0  0  0  0  0  0  0  0  0
   34.2288   27.1022   47.0740 H   0  0  0  0  0  0  0  0  0  0  0  0
   32.8326   28.3598   46.8144 H   0  0  0  0  0  0  0  0  0  0  0  0
   37.0245   32.2403   50.0682 O   0  0  0  0  0  0  0  0  0  0  0  0
   37.2990   32.6454   48.7468 C   0  0  1  0  0  0  0  0  0  0  0  0
   36.7062   31.7087   47.7467 C   0  0  2  0  0  0  0  0  0  0  0  0
   35.7040   32.4238   47.0797 O   0  0  0  0  0  0  0  0  0  0  0  0
   36.2311   33.4243   46.2864 C   0  0  0  0  0  0  0  0  0  0  0  0
   36.6526   34.5334   47.2110 C   0  0  2  0  0  0  0  0  0  0  0  0
   37.9147   34.9966   46.8589 O   0  0  0  0  0  0  0  0  0  0  0  0
   36.6799   34.0505   48.6671 C   0  0  1  0  0  0  0  0  0  0  0  0
   35.3591   33.9667   49.0758 O   0  0  0  0  0  0  0  0  0  0  0  0
   37.6238   32.7679   50.6737 H   0  0  0  0  0  0  0  0  0  0  0  0
   38.3906   32.8597   48.5907 H   0  0  0  0  0  0  0  0  0  0  0  0
   37.4016   31.4406   46.9266 H   0  0  0  0  0  0  0  0  0  0  0  0
   35.4114   33.7411   45.6006 H   0  0  0  0  0  0  0  0  0  0  0  0
   37.0441   33.0355   45.6398 H   0  0  0  0  0  0  0  0  0  0  0  0
   35.8922   35.3210   47.1738 H   0  0  0  0  0  0  0  0  0  0  0  0
   37.9766   35.0863   45.8774 H   0  0  0  0  0  0  0  0  0  0  0  0
   37.2927   34.7801   49.2015 H   0  0  0  0  0  0  0  0  0  0  0  0
   34.9637   34.8430   49.2596 H   0  0  0  0  0  0  0  0  0  0  0  0
  2  1  2  0
  2  8  1  0
  3  2  1  0
  4  5  1  0
  4  3  2  0
  5  6  2  0
  6  1  1  0
  7  5  1  0
  8 11  1  0
  9  8  1  0
 10  8  1  0
  1 12  1  0
  7 13  1  0
  7 14  1  0
 15 16  1  0
 16 17  1  0
 17 18  1  0
 18 19  1  0
 19 20  1  0
 20 21  1  0
 20 22  1  0
 22 23  1  0
 22 16  1  0
 15 24  1  0
 16 25  1  1
 17 26  1  6
 19 27  1  0
 19 28  1  0
 20 29  1  1
 21 30  1  0
 22 31  1  1
 23 32  1  0
  3 17  1  0
M  ISO  1  12  14
M  END
>  <DihAtoms>  (1) 
1,2,16,15

>  <DihDeg>  (1) 
-91.90979488336156

$$$$
