
     RDKit          3D

 32 33  0  0  0  0  0  0  0  0999 V2000
   35.6177   29.0130   50.1699 C   0  0  0  0  0  0  0  0  0  0  0  0
   36.2827   30.1552   49.6488 C   0  0  0  0  0  0  0  0  0  0  0  0
   36.0347   30.5195   48.3340 C   0  0  0  0  0  0  0  0  0  0  0  0
   35.1606   29.7528   47.6146 N   0  0  0  0  0  0  0  0  0  0  0  0
   34.5444   28.6656   48.1497 C   0  0  0  0  0  0  0  0  0  0  0  0
   34.7665   28.2920   49.4198 N   0  0  0  0  0  0  0  0  0  0  0  0
   33.7059   28.0162   47.2206 N   0  0  0  0  0  0  0  0  0  0  0  0
   37.2164   30.9058   50.5245 C   0  0  0  0  0  0  0  0  0  0  0  0
   38.5369   30.7808   50.1142 F   0  0  0  0  0  0  0  0  0  0  0  0
   36.8627   32.2224   50.5103 F   0  0  0  0  0  0  0  0  0  0  0  0
   37.1845   30.4696   51.8376 F   0  0  0  0  0  0  0  0  0  0  0  0
   35.8264   28.7479   51.1988 H   0  0  0  0  0  0  0  0  0  0  0  0
   34.2288   27.1022   47.0740 H   0  0  0  0  0  0  0  0  0  0  0  0
   32.8326   28.3598   46.8144 H   0  0  0  0  0  0  0  0  0  0  0  0
   36.4733   32.5167   49.9976 O   0  0  0  0  0  0  0  0  0  0  0  0
   36.9856   32.8080   48.7176 C   0  0  1  0  0  0  0  0  0  0  0  0
   36.7062   31.7087   47.7467 C   0  0  2  0  0  0  0  0  0  0  0  0
   35.8090   32.2294   46.8062 O   0  0  0  0  0  0  0  0  0  0  0  0
   36.4010   33.1938   46.0138 C   0  0  0  0  0  0  0  0  0  0  0  0
   36.5142   34.4357   46.8550 C   0  0  2  0  0  0  0  0  0  0  0  0
   37.7754   35.0005   46.7075 O   0  0  0  0  0  0  0  0  0  0  0  0
   36.2738   34.1165   48.3364 C   0  0  1  0  0  0  0  0  0  0  0  0
   34.9093   33.9257   48.4786 O   0  0  0  0  0  0  0  0  0  0  0  0
   36.8799   33.1707   50.6387 H   0  0  0  0  0  0  0  0  0  0  0  0
   38.0615   33.1281   48.7580 H   0  0  0  0  0  0  0  0  0  0  0  0
   37.5816   31.4365   47.1242 H   0  0  0  0  0  0  0  0  0  0  0  0
   35.7211   33.3400   45.1426 H   0  0  0  0  0  0  0  0  0  0  0  0
   37.3646   32.8343   45.5989 H   0  0  0  0  0  0  0  0  0  0  0  0
   35.7115   35.1226   46.5655 H   0  0  0  0  0  0  0  0  0  0  0  0
   38.0367   34.9920   45.7552 H   0  0  0  0  0  0  0  0  0  0  0  0
   36.6905   34.9640   48.8853 H   0  0  0  0  0  0  0  0  0  0  0  0
   34.4067   34.7655   48.4657 H   0  0  0  0  0  0  0  0  0  0  0  0
  2  1  2  0
  2  8  1  0
  3  2  1  0
  4  5  1  0
  4  3  2  0
  5  6  2  0
  6  1  1  0
  7  5  1  0
  8 11  1  0
  9  8  1  0
 10  8  1  0
  1 12  1  0
  7 13  1  0
  7 14  1  0
 15 16  1  0
 16 17  1  0
 17 18  1  0
 18 19  1  0
 19 20  1  0
 20 21  1  0
 20 22  1  0
 22 23  1  0
 22 16  1  0
 15 24  1  0
 16 25  1  1
 17 26  1  6
 19 27  1  0
 19 28  1  0
 20 29  1  6
 21 30  1  0
 22 31  1  1
 23 32  1  0
  3 17  1  0
M  ISO  1  12  14
M  END
>  <DihAtoms>  (1) 
1,2,16,15

>  <DihDeg>  (1) 
-91.90979488336156

$$$$
