
     RDKit          3D

 56 60  0  0  0  0  0  0  0  0999 V2000
   36.9455   31.3888   47.3907 C   0  0  1  0  0  0  0  0  0  0  0  0
   38.1324   31.9978   48.0479 C   0  0  0  0  0  0  0  0  0  0  0  0
   38.4429   30.8969   47.1631 C   0  0  2  0  0  0  0  0  0  0  0  0
   39.1209   31.3779   45.9116 C   0  0  0  0  0  0  0  0  0  0  0  0
   39.6105   32.6731   46.0953 C   0  0  0  0  0  0  0  0  0  0  0  0
   40.3587   33.2642   45.1138 C   0  0  0  0  0  0  0  0  0  0  0  0
   40.6524   32.5997   43.9145 C   0  0  0  0  0  0  0  0  0  0  0  0
   40.1492   31.3145   43.7680 C   0  0  0  0  0  0  0  0  0  0  0  0
   40.3551   30.5667   42.6430 C   0  0  0  0  0  0  0  0  0  0  0  0
   39.8532   29.2946   42.4764 C   0  0  0  0  0  0  0  0  0  0  0  0
   39.1010   28.7413   43.4993 C   0  0  0  0  0  0  0  0  0  0  0  0
   38.8934   29.4956   44.6352 C   0  0  0  0  0  0  0  0  0  0  0  0
   39.4145   30.7667   44.7610 C   0  0  0  0  0  0  0  0  0  0  0  0
   34.4249   28.7660   48.3876 C   0  0  0  0  0  0  0  0  0  0  0  0
   35.1719   29.6923   47.5915 C   0  0  0  0  0  0  0  0  0  0  0  0
   36.1626   30.4143   48.1904 C   0  0  0  0  0  0  0  0  0  0  0  0
   36.3629   30.1847   49.5373 N   0  0  0  0  0  0  0  0  0  0  0  0
   35.6574   29.3168   50.2657 C   0  0  0  0  0  0  0  0  0  0  0  0
   34.6737   28.5922   49.6977 N   0  0  0  0  0  0  0  0  0  0  0  0
   36.0055   29.1793   51.7210 C   0  0  0  0  0  0  0  0  0  0  0  0
   37.3332   29.9346   51.9421 C   0  0  0  0  0  0  0  0  0  0  0  0
   36.5157   31.7324   46.4631 H   0  0  0  0  0  0  0  0  0  0  0  0
   38.2345   31.7686   49.1663 H   0  0  0  0  0  0  0  0  0  0  0  0
   38.1205   33.0705   47.9042 H   0  0  0  0  0  0  0  0  0  0  0  0
   38.4665   29.8268   47.3316 H   0  0  0  0  0  0  0  0  0  0  0  0
   39.5791   33.4139   46.8667 H   0  0  0  0  0  0  0  0  0  0  0  0
   40.8160   34.2456   45.0763 H   0  0  0  0  0  0  0  0  0  0  0  0
   41.2256   32.9470   43.0669 H   0  0  0  0  0  0  0  0  0  0  0  0
   40.9362   30.9543   41.8160 H   0  0  0  0  0  0  0  0  0  0  0  0
   39.9978   28.6782   41.6002 H   0  0  0  0  0  0  0  0  0  0  0  0
   38.6708   27.7512   43.4503 H   0  0  0  0  0  0  0  0  0  0  0  0
   38.2921   29.0395   45.4413 H   0  0  0  0  0  0  0  0  0  0  0  0
   33.6588   28.2284   47.8572 H   0  0  0  0  0  0  0  0  0  0  0  0
   34.9241   29.7891   46.5352 H   0  0  0  0  0  0  0  0  0  0  0  0
   35.1974   29.6384   52.2885 H   0  0  0  0  0  0  0  0  0  0  0  0
   36.1101   28.1294   52.0210 H   0  0  0  0  0  0  0  0  0  0  0  0
   37.1674   30.9484   51.5774 H   0  0  0  0  0  0  0  0  0  0  0  0
   38.1295   29.4525   51.3457 H   0  0  0  0  0  0  0  0  0  0  0  0
   35.8484   31.3333   53.3651 O   0  0  0  0  0  0  0  0  0  0  0  0
   36.8589   30.7755   54.1820 C   0  0  2  0  0  0  0  0  0  0  0  0
   37.7498   29.8398   53.3926 C   0  0  1  0  0  0  0  0  0  0  0  0
   37.7790   28.5573   53.8843 O   0  0  0  0  0  0  0  0  0  0  0  0
   36.5251   27.9694   53.9131 C   0  0  0  0  0  0  0  0  0  0  0  0
   35.5552   28.7019   54.7890 C   0  0  1  0  0  0  0  0  0  0  0  0
   35.3160   27.9592   55.9682 O   0  0  0  0  0  0  0  0  0  0  0  0
   36.1221   30.0291   55.2818 C   0  0  2  0  0  0  0  0  0  0  0  0
   35.0264   30.7653   55.7232 O   0  0  0  0  0  0  0  0  0  0  0  0
   35.1728   30.5922   53.2826 H   0  0  0  0  0  0  0  0  0  0  0  0
   37.4306   31.5814   54.6813 H   0  0  0  0  0  0  0  0  0  0  0  0
   38.7905   30.2447   53.4393 H   0  0  0  0  0  0  0  0  0  0  0  0
   36.1402   27.8066   52.8750 H   0  0  0  0  0  0  0  0  0  0  0  0
   36.6623   26.9279   54.3170 H   0  0  0  0  0  0  0  0  0  0  0  0
   34.5753   28.8720   54.2951 H   0  0  0  0  0  0  0  0  0  0  0  0
   34.5427   28.2773   56.4664 H   0  0  0  0  0  0  0  0  0  0  0  0
   36.7972   29.8333   56.1449 H   0  0  0  0  0  0  0  0  0  0  0  0
   34.1837   30.4999   55.3009 H   0  0  0  0  0  0  0  0  0  0  0  0
  1  2  1  0
  1 16  1  0
  3  1  1  0
  3  2  1  0
  4  5  2  0
  4  3  1  0
  6  5  1  0
  7  6  2  0
  8  7  1  0
  8 13  2  0
  9  8  1  0
 10  9  2  0
 10 11  1  0
 11 12  2  0
 12 13  1  0
 13  4  1  0
 14 19  2  0
 15 16  2  0
 15 14  1  0
 16 17  1  0
 17 18  2  0
 18 20  1  0
 19 18  1  0
 20 21  1  0
  1 22  1  6
  2 23  1  0
  2 24  1  0
  3 25  1  1
  5 26  1  0
  6 27  1  0
  7 28  1  0
  9 29  1  0
 10 30  1  0
 11 31  1  0
 12 32  1  0
 14 33  1  0
 15 34  1  0
 20 35  1  0
 20 36  1  0
 21 37  1  0
 21 38  1  0
 39 40  1  0
 40 41  1  0
 41 42  1  0
 42 43  1  0
 43 44  1  0
 44 45  1  0
 44 46  1  0
 46 47  1  0
 46 40  1  0
 39 48  1  0
 40 49  1  1
 41 50  1  6
 43 51  1  0
 43 52  1  0
 44 53  1  6
 45 54  1  0
 46 55  1  1
 47 56  1  0
 21 41  1  0
M  ISO  8  22  13  23  13  24  13  25  13  26  14  27  14  28  14  29  14
M  ISO  8  30  14  31  14  32  14  33  14  34  14  35   8  36   8  37   8
M  ISO  1  38   8
M  END
>  <DihAtoms>  (1) 
19,20,40,39

>  <DihDeg>  (1) 
-179.9991971677526

$$$$
