
     RDKit          3D

 28 29  0  0  1  0  0  0  0  0999 V2000
   36.9910   31.0720   46.4130 C   0  0  1  0  0  0  0  0  0  0  0  0
   37.9450   30.5710   47.4670 C   0  0  1  0  0  0  0  0  0  0  0  0
   38.8320   31.5980   47.7390 O   0  0  0  0  0  0  0  0  0  0  0  0
   39.6670   31.9250   46.7010 C   0  0  0  0  0  0  0  0  0  0  0  0
   39.2240   31.5100   45.3430 C   0  0  2  0  0  0  0  0  0  0  0  0
   37.7410   31.4040   45.1740 C   0  0  2  0  0  0  0  0  0  0  0  0
   37.1410   29.7780   51.0730 C   0  0  0  0  0  0  0  0  0  0  0  0
   37.8960   30.1240   49.9530 C   0  0  0  0  0  0  0  0  0  0  0  0
   37.2500   30.2110   48.7300 C   0  0  0  0  0  0  0  0  0  0  0  0
   35.9190   29.9570   48.6740 N   0  0  0  0  0  0  0  0  0  0  0  0
   35.1960   29.6180   49.7860 C   0  0  0  0  0  0  0  0  0  0  0  0
   35.8190   29.5370   50.9560 N   0  0  0  0  0  0  0  0  0  0  0  0
   37.9180   29.7290   52.2310 O   0  0  0  0  0  0  0  0  0  0  0  0
   36.0540   30.0400   46.2200 O   0  0  0  0  0  0  0  0  0  0  0  0
   39.8010   30.2740   45.0390 O   0  0  0  0  0  0  0  0  0  0  0  0
   37.1960   32.5770   44.6080 O   0  0  0  0  0  0  0  0  0  0  0  0
   36.4735   31.9958   46.7110 H   0  0  0  0  0  0  0  0  0  0  0  0
   38.4447   29.6666   47.0896 H   0  0  0  0  0  0  0  0  0  0  0  0
   39.7830   33.0189   46.6960 H   0  0  0  0  0  0  0  0  0  0  0  0
   40.5984   31.3704   46.8879 H   0  0  0  0  0  0  0  0  0  0  0  0
   39.5537   32.3052   44.6581 H   0  0  0  0  0  0  0  0  0  0  0  0
   37.6151   30.5527   44.4888 H   0  0  0  0  0  0  0  0  0  0  0  0
   38.9746   30.3224   50.0378 H   0  0  0  0  0  0  0  0  0  0  0  0
   34.1172   29.4161   49.7116 H   0  0  0  0  0  0  0  0  0  0  0  0
   37.5007   29.4944   53.0975 H   0  0  0  0  0  0  0  0  0  0  0  0
   35.7482   29.7032   47.0993 H   0  0  0  0  0  0  0  0  0  0  0  0
   40.0231   29.7982   45.8782 H   0  0  0  0  0  0  0  0  0  0  0  0
   36.9109   33.1905   45.3308 H   0  0  0  0  0  0  0  0  0  0  0  0
  1 14  1  0
  1  2  1  0
  2  3  1  0
  2  9  1  0
  4  3  1  0
  5 15  1  0
  5  4  1  0
  6 16  1  0
  6  5  1  0
  6  1  1  0
  7 13  1  0
  8  7  2  0
  9  8  1  0
 10  9  2  0
 10 11  1  0
 11 12  2  0
 12  7  1  0
  1 17  1  1
  2 18  1  6
  4 19  1  0
  4 20  1  0
  5 21  1  6
  6 22  1  6
  8 23  1  0
 11 24  1  0
 13 25  1  0
 14 26  1  0
 15 27  1  0
 16 28  1  0
M  ISO  8  17  13  18  13  19  13  20  13  21  13  22  13  23  14  24  14
M  ISO  4  25   3  26   3  27   3  28   3
M  END
>  <minimizedAffinity>  (1) 
-5.73819733

>  <minimizedRMSD>  (1) 
2.4385972

$$$$
