
     RDKit          3D

 53 56  0  0  0  0  0  0  0  0999 V2000
   35.3286   30.3673   49.9666 C   0  0  2  0  0  0  0  0  0  0  0  0
   36.2504   31.3438   49.3349 C   0  0  0  0  0  0  0  0  0  0  0  0
   37.7175   30.8921   49.3946 C   0  0  2  0  0  0  0  0  0  0  0  0
   38.1998   30.5957   50.7422 C   0  0  0  0  0  0  0  0  0  0  0  0
   37.1788   29.8665   51.6042 C   0  0  0  0  0  0  0  0  0  0  0  0
   36.0416   29.3222   50.7910 C   0  0  0  0  0  0  0  0  0  0  0  0
   34.4880   29.6575   48.9885 C   0  0  0  0  0  0  0  0  0  0  0  0
   34.4422   30.2334   47.7175 C   0  0  0  0  0  0  0  0  0  0  0  0
   33.6684   29.5867   46.7424 C   0  0  0  0  0  0  0  0  0  0  0  0
   32.9933   28.4201   47.0847 N   0  0  0  0  0  0  0  0  0  0  0  0
   33.0682   27.9035   48.3265 C   0  0  0  0  0  0  0  0  0  0  0  0
   33.8109   28.5355   49.2384 N   0  0  0  0  0  0  0  0  0  0  0  0
   38.5602   30.5708   46.5867 Cl  0  0  0  0  0  0  0  0  0  0  0  0
   38.9448   32.0021   47.5301 C   0  0  0  0  0  0  0  0  0  0  0  0
   38.4640   32.0552   48.8265 C   0  0  0  0  0  0  0  0  0  0  0  0
   38.7961   33.2249   49.4739 C   0  0  0  0  0  0  0  0  0  0  0  0
   39.5326   34.2309   48.8828 C   0  0  0  0  0  0  0  0  0  0  0  0
   39.9785   34.0969   47.5740 C   0  0  0  0  0  0  0  0  0  0  0  0
   39.6700   32.9378   46.8773 C   0  0  0  0  0  0  0  0  0  0  0  0
   34.6084   30.8513   50.6916 H   0  0  0  0  0  0  0  0  0  0  0  0
   36.1455   31.6261   48.3108 H   0  0  0  0  0  0  0  0  0  0  0  0
   36.2095   32.3218   49.9204 H   0  0  0  0  0  0  0  0  0  0  0  0
   37.8152   30.0561   48.6943 H   0  0  0  0  0  0  0  0  0  0  0  0
   39.1522   30.0265   50.6692 H   0  0  0  0  0  0  0  0  0  0  0  0
   38.4565   31.5083   51.3149 H   0  0  0  0  0  0  0  0  0  0  0  0
   37.7038   28.9906   52.0387 H   0  0  0  0  0  0  0  0  0  0  0  0
   36.8184   30.4552   52.4547 H   0  0  0  0  0  0  0  0  0  0  0  0
   36.3602   28.5180   50.1090 H   0  0  0  0  0  0  0  0  0  0  0  0
   35.3121   28.8707   51.4849 H   0  0  0  0  0  0  0  0  0  0  0  0
   34.8206   31.0800   47.1754 H   0  0  0  0  0  0  0  0  0  0  0  0
   33.4602   29.7956   45.7207 H   0  0  0  0  0  0  0  0  0  0  0  0
   32.5482   26.9992   48.6030 H   0  0  0  0  0  0  0  0  0  0  0  0
   38.4496   33.3402   50.4932 H   0  0  0  0  0  0  0  0  0  0  0  0
   39.7324   35.1087   49.4966 H   0  0  0  0  0  0  0  0  0  0  0  0
   40.5479   34.9038   47.1548 H   0  0  0  0  0  0  0  0  0  0  0  0
   42.1592   31.9253   46.4735 O   0  0  0  0  0  0  0  0  0  0  0  0
   41.3112   31.8421   45.3730 C   0  0  1  0  0  0  0  0  0  0  0  0
   40.1443   32.7951   45.4837 C   0  0  2  0  0  0  0  0  0  0  0  0
   40.4664   34.0333   44.9269 O   0  0  0  0  0  0  0  0  0  0  0  0
   40.4685   33.9505   43.5451 C   0  0  0  0  0  0  0  0  0  0  0  0
   41.2507   32.7558   43.0482 C   0  0  2  0  0  0  0  0  0  0  0  0
   40.4389   31.7179   42.6270 O   0  0  0  0  0  0  0  0  0  0  0  0
   42.1302   32.2487   44.1719 C   0  0  2  0  0  0  0  0  0  0  0  0
   42.8760   31.1749   43.7336 O   0  0  0  0  0  0  0  0  0  0  0  0
   42.9851   32.4541   46.2803 H   0  0  0  0  0  0  0  0  0  0  0  0
   40.9380   30.8195   45.2857 H   0  0  0  0  0  0  0  0  0  0  0  0
   39.3205   32.3455   44.8817 H   0  0  0  0  0  0  0  0  0  0  0  0
   39.4597   33.9742   43.0931 H   0  0  0  0  0  0  0  0  0  0  0  0
   40.9947   34.8696   43.1614 H   0  0  0  0  0  0  0  0  0  0  0  0
   41.9130   33.0384   42.2193 H   0  0  0  0  0  0  0  0  0  0  0  0
   39.5969   32.0620   42.2099 H   0  0  0  0  0  0  0  0  0  0  0  0
   42.8439   33.0780   44.4342 H   0  0  0  0  0  0  0  0  0  0  0  0
   43.7527   31.5075   43.3739 H   0  0  0  0  0  0  0  0  0  0  0  0
  1  6  1  0
  2  3  1  0
  2  1  1  0
  3  4  1  0
  4  5  1  0
  6  5  1  0
  7 12  1  0
  7  1  1  0
  8  7  2  0
  9 10  2  0
  9  8  1  0
 10 11  1  0
 11 12  2  0
 13 14  1  0
 14 15  2  0
 15  3  1  0
 15 16  1  0
 17 16  2  0
 18 17  1  0
 19 14  1  0
 19 18  2  0
  1 20  1  1
  2 21  1  0
  2 22  1  0
  3 23  1  6
  4 24  1  0
  4 25  1  0
  5 26  1  0
  5 27  1  0
  6 28  1  0
  6 29  1  0
  8 30  1  0
  9 31  1  0
 11 32  1  0
 16 33  1  0
 17 34  1  0
 18 35  1  0
 36 37  1  0
 37 38  1  0
 38 39  1  0
 39 40  1  0
 40 41  1  0
 41 42  1  0
 41 43  1  0
 43 44  1  0
 43 37  1  0
 36 45  1  0
 37 46  1  6
 38 47  1  6
 40 48  1  0
 40 49  1  0
 41 50  1  6
 42 51  1  0
 43 52  1  1
 44 53  1  0
 19 38  1  0
M  ISO  8  20  13  21  13  22  13  23  13  24  13  25  13  26  13  27  13
M  ISO  8  28  13  29  13  30  14  31  14  32  14  33  14  34  14  35  14
M  END
>  <DihAtoms>  (1) 
13,18,37,36

>  <DihDeg>  (1) 
89.99334471126934

$$$$
