
     RDKit          3D

 48 51  0  0  1  0  0  0  0  0999 V2000
   30.4880   27.6170   48.1070 C   0  0  0  0  0  0  0  0  0  0  0  0
   30.4880   27.4490   49.4730 C   0  0  0  0  0  0  0  0  0  0  0  0
   29.3770   27.7570   50.2290 C   0  0  0  0  0  0  0  0  0  0  0  0
   28.2380   28.2500   49.5800 C   0  0  0  0  0  0  0  0  0  0  0  0
   28.2470   28.4180   48.1980 C   0  0  0  0  0  0  0  0  0  0  0  0
   29.3640   28.1000   47.4880 C   0  0  0  0  0  0  0  0  0  0  0  0
   29.1350   26.9420   45.3440 C   0  0  1  0  0  0  0  0  0  0  0  0
   29.3460   28.2690   46.0340 C   0  0  1  0  0  0  0  0  0  0  0  0
   28.3610   29.1950   45.7060 O   0  0  0  0  0  0  0  0  0  0  0  0
   27.8710   29.0290   44.4150 C   0  0  0  0  0  0  0  0  0  0  0  0
   26.9740   27.8190   44.4230 C   0  0  1  0  0  0  0  0  0  0  0  0
   27.7160   26.6370   45.0000 C   0  0  1  0  0  0  0  0  0  0  0  0
   29.9490   26.7980   44.2310 O   0  0  0  0  0  0  0  0  0  0  0  0
   25.8450   28.0240   45.2150 O   0  0  0  0  0  0  0  0  0  0  0  0
   27.7370   25.6400   44.0110 O   0  0  0  0  0  0  0  0  0  0  0  0
   31.6780   27.2660   47.4810 O   0  0  0  0  0  0  0  0  0  0  0  0
   34.7710   28.6410   48.6990 C   0  0  0  0  0  0  0  0  0  0  0  0
   34.8440   29.8930   48.0410 C   0  0  0  0  0  0  0  0  0  0  0  0
   33.8060   30.2310   47.1840 C   0  0  0  0  0  0  0  0  0  0  0  0
   32.7840   29.3440   47.0260 N   0  0  0  0  0  0  0  0  0  0  0  0
   32.7400   28.1700   47.6570 C   0  0  0  0  0  0  0  0  0  0  0  0
   33.7410   27.7970   48.5110 N   0  0  0  0  0  0  0  0  0  0  0  0
   35.9690   30.7160   48.2990 N   0  0  0  0  0  0  0  0  0  0  0  0
   36.1990   31.2590   49.4900 C   0  0  0  0  0  0  0  0  0  0  0  0
   37.3250   32.0520   49.6650 C   0  0  0  0  0  0  0  0  0  0  0  0
   38.1180   32.2110   48.5730 C   0  0  0  0  0  0  0  0  0  0  0  0
   39.1540   32.9350   48.7180 O   0  0  0  0  0  0  0  0  0  0  0  0
   37.9240   31.6890   47.3770 N   0  0  0  0  0  0  0  0  0  0  0  0
   36.8120   30.9140   47.2280 C   0  0  0  0  0  0  0  0  0  0  0  0
   36.6040   30.4000   46.0830 O   0  0  0  0  0  0  0  0  0  0  0  0
   31.3899   27.0624   49.9701 H   0  0  0  0  0  0  0  0  0  0  0  0
   29.3850   27.6183   51.3202 H   0  0  0  0  0  0  0  0  0  0  0  0
   27.3388   28.5038   50.1606 H   0  0  0  0  0  0  0  0  0  0  0  0
   27.3560   28.8057   47.6824 H   0  0  0  0  0  0  0  0  0  0  0  0
   29.4285   26.1966   46.0978 H   0  0  0  0  0  0  0  0  0  0  0  0
   30.3168   28.6505   45.6846 H   0  0  0  0  0  0  0  0  0  0  0  0
   28.7044   28.8740   43.7140 H   0  0  0  0  0  0  0  0  0  0  0  0
   27.3142   29.9218   44.0943 H   0  0  0  0  0  0  0  0  0  0  0  0
   26.6688   27.6343   43.3824 H   0  0  0  0  0  0  0  0  0  0  0  0
   27.2024   26.3371   45.9253 H   0  0  0  0  0  0  0  0  0  0  0  0
   30.8806   26.6332   44.5226 H   0  0  0  0  0  0  0  0  0  0  0  0
   26.0995   27.9778   46.1706 H   0  0  0  0  0  0  0  0  0  0  0  0
   27.7558   24.7486   44.4414 H   0  0  0  0  0  0  0  0  0  0  0  0
   35.5809   28.3503   49.3842 H   0  0  0  0  0  0  0  0  0  0  0  0
   33.8084   31.1905   46.6461 H   0  0  0  0  0  0  0  0  0  0  0  0
   35.5063   31.0824   50.3261 H   0  0  0  0  0  0  0  0  0  0  0  0
   37.5612   32.5236   50.6303 H   0  0  0  0  0  0  0  0  0  0  0  0
   38.5768   31.8577   46.5984 H   0  0  0  0  0  0  0  0  0  0  0  0
  1  2  2  0
  2  3  1  0
  4  3  2  0
  5  4  1  0
  6  1  1  0
  6  5  2  0
  7 13  1  0
  7  8  1  0
  8  6  1  0
  9  8  1  0
 10 11  1  0
 10  9  1  0
 11 12  1  0
 11 14  1  0
 12 15  1  0
 12  7  1  0
 16 21  1  0
 16  1  1  0
 18 23  1  0
 18 17  2  0
 19 18  1  0
 20 19  2  0
 20 21  1  0
 21 22  2  0
 22 17  1  0
 23 24  1  0
 24 25  2  0
 26 27  2  0
 26 25  1  0
 28 26  1  0
 29 28  1  0
 29 23  1  0
 30 29  2  0
  2 31  1  0
  3 32  1  0
  4 33  1  0
  5 34  1  0
  7 35  1  1
  8 36  1  6
 10 37  1  0
 10 38  1  0
 11 39  1  6
 12 40  1  1
 13 41  1  0
 14 42  1  0
 15 43  1  0
 17 44  1  0
 19 45  1  0
 24 46  1  0
 25 47  1  0
 28 48  1  0
M  ISO  8  31  14  32  14  33  14  34  14  35  13  36  13  37  13  38  13
M  ISO  8  39  13  40  13  41   3  42   3  43   3  44  14  45  14  46  14
M  ISO  2  47  14  48   9
M  END
>  <minimizedAffinity>  (1) 
-6.3349719

>  <minimizedRMSD>  (1) 
2.17481351

$$$$
