
     RDKit          3D

 32 33  0  0  0  0  0  0  0  0999 V2000
   35.6177   29.0130   50.1699 C   0  0  0  0  0  0  0  0  0  0  0  0
   36.2827   30.1552   49.6488 C   0  0  0  0  0  0  0  0  0  0  0  0
   36.0347   30.5195   48.3340 C   0  0  0  0  0  0  0  0  0  0  0  0
   35.1606   29.7528   47.6146 N   0  0  0  0  0  0  0  0  0  0  0  0
   34.5444   28.6656   48.1497 C   0  0  0  0  0  0  0  0  0  0  0  0
   34.7665   28.2920   49.4198 N   0  0  0  0  0  0  0  0  0  0  0  0
   33.7059   28.0162   47.2206 N   0  0  0  0  0  0  0  0  0  0  0  0
   37.2164   30.9058   50.5245 C   0  0  0  0  0  0  0  0  0  0  0  0
   38.5369   30.7808   50.1142 F   0  0  0  0  0  0  0  0  0  0  0  0
   36.8627   32.2224   50.5103 F   0  0  0  0  0  0  0  0  0  0  0  0
   37.1845   30.4696   51.8376 F   0  0  0  0  0  0  0  0  0  0  0  0
   35.8264   28.7479   51.1988 H   0  0  0  0  0  0  0  0  0  0  0  0
   34.2288   27.1022   47.0740 H   0  0  0  0  0  0  0  0  0  0  0  0
   32.8326   28.3598   46.8144 H   0  0  0  0  0  0  0  0  0  0  0  0
   38.6687   30.5056   48.4355 O   0  0  0  0  0  0  0  0  0  0  0  0
   38.1981   31.6574   47.7740 C   0  0  1  0  0  0  0  0  0  0  0  0
   36.7062   31.7087   47.7467 C   0  0  2  0  0  0  0  0  0  0  0  0
   36.3325   32.7942   48.5483 O   0  0  0  0  0  0  0  0  0  0  0  0
   36.6903   33.9997   47.9764 C   0  0  0  0  0  0  0  0  0  0  0  0
   38.1755   34.1448   48.1654 C   0  0  2  0  0  0  0  0  0  0  0  0
   38.7684   34.5769   46.9850 O   0  0  0  0  0  0  0  0  0  0  0  0
   38.8057   32.8113   48.5884 C   0  0  1  0  0  0  0  0  0  0  0  0
   38.4714   32.6261   49.9198 O   0  0  0  0  0  0  0  0  0  0  0  0
   39.6448   30.4181   48.2265 H   0  0  0  0  0  0  0  0  0  0  0  0
   38.6849   31.7949   46.7711 H   0  0  0  0  0  0  0  0  0  0  0  0
   36.2920   31.9829   46.7561 H   0  0  0  0  0  0  0  0  0  0  0  0
   36.1207   34.7850   48.5254 H   0  0  0  0  0  0  0  0  0  0  0  0
   36.3570   34.0557   46.9200 H   0  0  0  0  0  0  0  0  0  0  0  0
   38.3514   34.8336   48.9987 H   0  0  0  0  0  0  0  0  0  0  0  0
   38.2234   35.2937   46.5796 H   0  0  0  0  0  0  0  0  0  0  0  0
   39.8729   32.9182   48.3815 H   0  0  0  0  0  0  0  0  0  0  0  0
   38.9960   33.1903   50.5235 H   0  0  0  0  0  0  0  0  0  0  0  0
  2  1  2  0
  2  8  1  0
  3  2  1  0
  4  5  1  0
  4  3  2  0
  5  6  2  0
  6  1  1  0
  7  5  1  0
  8 11  1  0
  9  8  1  0
 10  8  1  0
  1 12  1  0
  7 13  1  0
  7 14  1  0
 15 16  1  0
 16 17  1  0
 17 18  1  0
 18 19  1  0
 19 20  1  0
 20 21  1  0
 20 22  1  0
 22 23  1  0
 22 16  1  0
 15 24  1  0
 16 25  1  6
 17 26  1  6
 19 27  1  0
 19 28  1  0
 20 29  1  1
 21 30  1  0
 22 31  1  1
 23 32  1  0
  3 17  1  0
M  ISO  1  12  14
M  END
>  <DihAtoms>  (1) 
1,2,16,15

>  <DihDeg>  (1) 
-91.90979488336156

$$$$
