
     RDKit          3D

 48 52  0  0  1  0  0  0  0  0999 V2000
   30.9510   28.3530   47.6430 C   0  0  1  0  0  0  0  0  0  0  0  0
   31.7110   26.9820   47.6440 C   0  0  0  0  0  0  0  0  0  0  0  0
   31.9900   28.0420   46.6430 C   0  0  2  0  0  0  0  0  0  0  0  0
   27.7320   28.5430   46.0250 C   0  0  0  0  0  0  0  0  0  0  0  0
   27.3700   27.9800   47.2370 C   0  0  0  0  0  0  0  0  0  0  0  0
   28.5360   27.8320   48.0130 C   0  0  0  0  0  0  0  0  0  0  0  0
   29.5490   28.2990   47.2640 N   0  0  0  0  0  0  0  0  0  0  0  0
   29.0410   28.7000   46.1250 N   0  0  0  0  0  0  0  0  0  0  0  0
   26.7190   30.1100   44.3510 C   0  0  0  0  0  0  0  0  0  0  0  0
   26.8020   28.8440   44.9730 C   0  0  0  0  0  0  0  0  0  0  0  0
   25.9300   27.8710   44.5230 C   0  0  0  0  0  0  0  0  0  0  0  0
   25.0540   28.1690   43.5270 N   0  0  0  0  0  0  0  0  0  0  0  0
   25.0090   29.3830   42.9640 C   0  0  0  0  0  0  0  0  0  0  0  0
   25.8570   30.3840   43.3770 N   0  0  0  0  0  0  0  0  0  0  0  0
   33.2910   28.7820   46.6810 C   0  0  0  0  0  0  0  0  0  0  0  0
   34.1660   28.8940   45.5990 C   0  0  0  0  0  0  0  0  0  0  0  0
   35.2350   29.6270   46.0140 N   0  0  0  0  0  0  0  0  0  0  0  0
   35.0360   29.9600   47.3060 C   0  0  0  0  0  0  0  0  0  0  0  0
   33.8530   29.4490   47.7200 N   0  0  0  0  0  0  0  0  0  0  0  0
   35.5790   30.8100   49.5590 C   0  0  1  0  0  0  0  0  0  0  0  0
   35.9970   30.7730   48.1270 C   0  0  1  0  0  0  0  0  0  0  0  0
   37.2690   30.2910   47.9420 O   0  0  0  0  0  0  0  0  0  0  0  0
   38.0810   30.3320   49.0510 C   0  0  0  0  0  0  0  0  0  0  0  0
   37.5720   29.5660   50.2380 C   0  0  2  0  0  0  0  0  0  0  0  0
   36.0780   29.5950   50.3330 C   0  0  2  0  0  0  0  0  0  0  0  0
   35.9440   31.9530   50.2420 O   0  0  0  0  0  0  0  0  0  0  0  0
   38.1850   30.1280   51.3650 O   0  0  0  0  0  0  0  0  0  0  0  0
   35.5000   28.4320   49.7960 O   0  0  0  0  0  0  0  0  0  0  0  0
   30.7842   29.1873   48.3402 H   0  0  0  0  0  0  0  0  0  0  0  0
   32.4446   26.7533   48.4311 H   0  0  0  0  0  0  0  0  0  0  0  0
   31.4264   25.9199   47.6128 H   0  0  0  0  0  0  0  0  0  0  0  0
   32.0086   28.0492   45.5432 H   0  0  0  0  0  0  0  0  0  0  0  0
   26.3510   27.6979   47.5405 H   0  0  0  0  0  0  0  0  0  0  0  0
   28.6038   27.4169   49.0294 H   0  0  0  0  0  0  0  0  0  0  0  0
   27.3993   30.9058   44.6885 H   0  0  0  0  0  0  0  0  0  0  0  0
   25.9445   26.8645   44.9666 H   0  0  0  0  0  0  0  0  0  0  0  0
   24.2844   29.5824   42.1607 H   0  0  0  0  0  0  0  0  0  0  0  0
   34.0186   28.4681   44.5956 H   0  0  0  0  0  0  0  0  0  0  0  0
   36.0525   29.8826   45.4420 H   0  0  0  0  0  0  0  0  0  0  0  0
   34.4803   30.8023   49.5051 H   0  0  0  0  0  0  0  0  0  0  0  0
   35.9885   31.8203   47.7906 H   0  0  0  0  0  0  0  0  0  0  0  0
   39.0610   29.9177   48.7720 H   0  0  0  0  0  0  0  0  0  0  0  0
   38.1253   31.3864   49.3612 H   0  0  0  0  0  0  0  0  0  0  0  0
   37.8255   28.4993   50.1491 H   0  0  0  0  0  0  0  0  0  0  0  0
   35.7897   29.6506   51.3931 H   0  0  0  0  0  0  0  0  0  0  0  0
   35.8908   31.7863   51.2164 H   0  0  0  0  0  0  0  0  0  0  0  0
   37.7758   29.7529   52.1847 H   0  0  0  0  0  0  0  0  0  0  0  0
   35.2055   27.8395   50.5325 H   0  0  0  0  0  0  0  0  0  0  0  0
  1  2  1  0
  3 15  1  0
  3  1  1  0
  3  2  1  0
  4  8  2  0
  4  5  1  0
  5  6  2  0
  7  1  1  0
  7  6  1  0
  8  7  1  0
  9 10  2  0
 10  4  1  0
 11 10  1  0
 12 11  2  0
 13 14  2  0
 13 12  1  0
 14  9  1  0
 15 19  1  0
 16 17  1  0
 16 15  2  0
 17 18  1  0
 18 19  2  0
 20 26  1  0
 20 25  1  0
 21 18  1  0
 21 20  1  0
 22 21  1  0
 22 23  1  0
 23 24  1  0
 24 25  1  0
 24 27  1  0
 25 28  1  0
  1 29  1  1
  2 30  1  0
  2 31  1  0
  3 32  1  6
  5 33  1  0
  6 34  1  0
  9 35  1  0
 11 36  1  0
 13 37  1  0
 16 38  1  0
 17 39  1  0
 20 40  1  6
 21 41  1  6
 23 42  1  0
 23 43  1  0
 24 44  1  6
 25 45  1  1
 26 46  1  0
 27 47  1  0
 28 48  1  0
M  ISO  8  29  13  30  13  31  13  32  13  33  14  34  14  35  14  36  14
M  ISO  8  37  14  38  14  39   9  40  13  41  13  42  13  43  13  44  13
M  ISO  4  45  13  46   3  47   3  48   3
M  END
>  <minimizedAffinity>  (1) 
-5.66025877

>  <minimizedRMSD>  (1) 
6.42513514

$$$$
