
     RDKit          3D

 32 33  0  0  0  0  0  0  0  0999 V2000
   35.6177   29.0130   50.1699 C   0  0  0  0  0  0  0  0  0  0  0  0
   36.2827   30.1552   49.6488 C   0  0  0  0  0  0  0  0  0  0  0  0
   36.0347   30.5195   48.3340 C   0  0  0  0  0  0  0  0  0  0  0  0
   35.1606   29.7528   47.6146 N   0  0  0  0  0  0  0  0  0  0  0  0
   34.5444   28.6656   48.1497 C   0  0  0  0  0  0  0  0  0  0  0  0
   34.7665   28.2920   49.4198 N   0  0  0  0  0  0  0  0  0  0  0  0
   33.7059   28.0162   47.2206 N   0  0  0  0  0  0  0  0  0  0  0  0
   37.2164   30.9058   50.5245 C   0  0  0  0  0  0  0  0  0  0  0  0
   38.5369   30.7808   50.1142 F   0  0  0  0  0  0  0  0  0  0  0  0
   36.8627   32.2224   50.5103 F   0  0  0  0  0  0  0  0  0  0  0  0
   37.1845   30.4696   51.8376 F   0  0  0  0  0  0  0  0  0  0  0  0
   35.8264   28.7479   51.1988 H   0  0  0  0  0  0  0  0  0  0  0  0
   34.2288   27.1022   47.0740 H   0  0  0  0  0  0  0  0  0  0  0  0
   32.8326   28.3598   46.8144 H   0  0  0  0  0  0  0  0  0  0  0  0
   38.1014   30.0082   46.7796 O   0  0  0  0  0  0  0  0  0  0  0  0
   37.8445   31.3927   46.8338 C   0  0  1  0  0  0  0  0  0  0  0  0
   36.7062   31.7087   47.7467 C   0  0  2  0  0  0  0  0  0  0  0  0
   37.2492   32.4143   48.8274 O   0  0  0  0  0  0  0  0  0  0  0  0
   37.6944   33.6662   48.4491 C   0  0  0  0  0  0  0  0  0  0  0  0
   38.9862   33.4604   47.7066 C   0  0  2  0  0  0  0  0  0  0  0  0
   39.0014   34.2303   46.5497 O   0  0  0  0  0  0  0  0  0  0  0  0
   39.1730   31.9839   47.3332 C   0  0  1  0  0  0  0  0  0  0  0  0
   39.5288   31.3278   48.5000 O   0  0  0  0  0  0  0  0  0  0  0  0
   38.7089   29.8467   45.9994 H   0  0  0  0  0  0  0  0  0  0  0  0
   37.7559   31.8444   45.8092 H   0  0  0  0  0  0  0  0  0  0  0  0
   35.9856   32.4340   47.3191 H   0  0  0  0  0  0  0  0  0  0  0  0
   37.8419   34.2413   49.3925 H   0  0  0  0  0  0  0  0  0  0  0  0
   36.9180   34.2093   47.8725 H   0  0  0  0  0  0  0  0  0  0  0  0
   39.8143   33.7028   48.3815 H   0  0  0  0  0  0  0  0  0  0  0  0
   38.6514   35.1332   46.7438 H   0  0  0  0  0  0  0  0  0  0  0  0
   39.9264   31.9796   46.5422 H   0  0  0  0  0  0  0  0  0  0  0  0
   40.4584   31.4928   48.7583 H   0  0  0  0  0  0  0  0  0  0  0  0
  2  1  2  0
  2  8  1  0
  3  2  1  0
  4  5  1  0
  4  3  2  0
  5  6  2  0
  6  1  1  0
  7  5  1  0
  8 11  1  0
  9  8  1  0
 10  8  1  0
  1 12  1  0
  7 13  1  0
  7 14  1  0
 15 16  1  0
 16 17  1  0
 17 18  1  0
 18 19  1  0
 19 20  1  0
 20 21  1  0
 20 22  1  0
 22 23  1  0
 22 16  1  0
 15 24  1  0
 16 25  1  6
 17 26  1  6
 19 27  1  0
 19 28  1  0
 20 29  1  1
 21 30  1  0
 22 31  1  6
 23 32  1  0
  3 17  1  0
M  ISO  1  12  14
M  END
>  <DihAtoms>  (1) 
1,2,16,15

>  <DihDeg>  (1) 
-91.90979488336156

$$$$
