
     RDKit          3D

 32 33  0  0  0  0  0  0  0  0999 V2000
   35.6177   29.0130   50.1699 C   0  0  0  0  0  0  0  0  0  0  0  0
   36.2827   30.1552   49.6488 C   0  0  0  0  0  0  0  0  0  0  0  0
   36.0347   30.5195   48.3340 C   0  0  0  0  0  0  0  0  0  0  0  0
   35.1606   29.7528   47.6146 N   0  0  0  0  0  0  0  0  0  0  0  0
   34.5444   28.6656   48.1497 C   0  0  0  0  0  0  0  0  0  0  0  0
   34.7665   28.2920   49.4198 N   0  0  0  0  0  0  0  0  0  0  0  0
   33.7059   28.0162   47.2206 N   0  0  0  0  0  0  0  0  0  0  0  0
   37.2164   30.9058   50.5245 C   0  0  0  0  0  0  0  0  0  0  0  0
   38.5369   30.7808   50.1142 F   0  0  0  0  0  0  0  0  0  0  0  0
   36.8627   32.2224   50.5103 F   0  0  0  0  0  0  0  0  0  0  0  0
   37.1845   30.4696   51.8376 F   0  0  0  0  0  0  0  0  0  0  0  0
   35.8264   28.7479   51.1988 H   0  0  0  0  0  0  0  0  0  0  0  0
   34.2288   27.1022   47.0740 H   0  0  0  0  0  0  0  0  0  0  0  0
   32.8326   28.3598   46.8144 H   0  0  0  0  0  0  0  0  0  0  0  0
   37.5433   31.9088   49.9901 O   0  0  0  0  0  0  0  0  0  0  0  0
   37.5912   32.4529   48.6911 C   0  0  1  0  0  0  0  0  0  0  0  0
   36.7062   31.7087   47.7467 C   0  0  2  0  0  0  0  0  0  0  0  0
   35.6791   32.5903   47.3883 O   0  0  0  0  0  0  0  0  0  0  0  0
   36.1471   33.6324   46.6117 C   0  0  0  0  0  0  0  0  0  0  0  0
   36.8700   34.5719   47.5376 C   0  0  2  0  0  0  0  0  0  0  0  0
   38.0802   34.9610   46.9759 O   0  0  0  0  0  0  0  0  0  0  0  0
   37.1338   33.9066   48.8948 C   0  0  1  0  0  0  0  0  0  0  0  0
   35.9214   33.8904   49.5644 O   0  0  0  0  0  0  0  0  0  0  0  0
   38.3085   32.2987   50.5064 H   0  0  0  0  0  0  0  0  0  0  0  0
   38.6464   32.5863   48.3297 H   0  0  0  0  0  0  0  0  0  0  0  0
   37.1872   31.4860   46.7735 H   0  0  0  0  0  0  0  0  0  0  0  0
   35.2481   34.1066   46.1540 H   0  0  0  0  0  0  0  0  0  0  0  0
   36.7635   33.2578   45.7692 H   0  0  0  0  0  0  0  0  0  0  0  0
   36.2130   35.4230   47.7472 H   0  0  0  0  0  0  0  0  0  0  0  0
   37.9534   35.1693   46.0189 H   0  0  0  0  0  0  0  0  0  0  0  0
   37.9210   34.5040   49.3607 H   0  0  0  0  0  0  0  0  0  0  0  0
   35.6741   34.7681   49.9201 H   0  0  0  0  0  0  0  0  0  0  0  0
  2  1  2  0
  2  8  1  0
  3  2  1  0
  4  5  1  0
  4  3  2  0
  5  6  2  0
  6  1  1  0
  7  5  1  0
  8 11  1  0
  9  8  1  0
 10  8  1  0
  1 12  1  0
  7 13  1  0
  7 14  1  0
 15 16  1  0
 16 17  1  0
 17 18  1  0
 18 19  1  0
 19 20  1  0
 20 21  1  0
 20 22  1  0
 22 23  1  0
 22 16  1  0
 15 24  1  0
 16 25  1  6
 17 26  1  6
 19 27  1  0
 19 28  1  0
 20 29  1  1
 21 30  1  0
 22 31  1  1
 23 32  1  0
  3 17  1  0
M  ISO  1  12  14
M  END
>  <DihAtoms>  (1) 
1,2,16,15

>  <DihDeg>  (1) 
-91.90979488336156

$$$$
