
     RDKit          3D

 54 58  0  0  0  0  0  0  0  0999 V2000
   34.6226   29.7488   46.0972 N   0  0  0  0  0  0  0  0  0  0  0  0
   33.3843   29.9334   45.3696 C   0  0  0  0  0  0  0  0  0  0  0  0
   33.5488   29.7776   43.9008 C   0  0  0  0  0  0  0  0  0  0  0  0
   34.7120   28.9781   43.6058 N   0  0  0  0  0  0  0  0  0  0  0  0
   35.8807   29.7631   43.9932 C   0  0  0  0  0  0  0  0  0  0  0  0
   35.9624   29.6628   45.4828 C   0  0  1  0  0  0  0  0  0  0  0  0
   37.5391   31.6471   45.3340 C   0  0  0  0  0  0  0  0  0  0  0  0
   36.9064   30.6400   46.0698 C   0  0  0  0  0  0  0  0  0  0  0  0
   37.1116   30.5306   47.4325 C   0  0  0  0  0  0  0  0  0  0  0  0
   37.9495   31.4489   48.0252 C   0  0  0  0  0  0  0  0  0  0  0  0
   38.5861   32.4649   47.2701 C   0  0  0  0  0  0  0  0  0  0  0  0
   38.3894   32.5839   45.8855 C   0  0  0  0  0  0  0  0  0  0  0  0
   39.3846   33.2578   48.1130 O   0  0  0  0  0  0  0  0  0  0  0  0
   38.9634   32.9818   49.4237 C   0  0  0  0  0  0  0  0  0  0  0  0
   38.3923   31.6785   49.3290 O   0  0  0  0  0  0  0  0  0  0  0  0
   34.7103   28.3729   48.1413 C   0  0  0  0  0  0  0  0  0  0  0  0
   34.5620   29.6321   47.5189 C   0  0  0  0  0  0  0  0  0  0  0  0
   34.3767   30.7193   48.3421 C   0  0  0  0  0  0  0  0  0  0  0  0
   34.3479   30.5292   49.7022 N   0  0  0  0  0  0  0  0  0  0  0  0
   34.4949   29.3149   50.2454 C   0  0  0  0  0  0  0  0  0  0  0  0
   34.6762   28.2292   49.4811 N   0  0  0  0  0  0  0  0  0  0  0  0
   32.5644   29.2966   45.7915 H   0  0  0  0  0  0  0  0  0  0  0  0
   33.0624   30.9893   45.5556 H   0  0  0  0  0  0  0  0  0  0  0  0
   32.6742   29.2281   43.4965 H   0  0  0  0  0  0  0  0  0  0  0  0
   33.5987   30.7353   43.3287 H   0  0  0  0  0  0  0  0  0  0  0  0
   34.8165   28.7448   42.6114 H   0  0  0  0  0  0  0  0  0  0  0  0
   36.8109   29.4011   43.5463 H   0  0  0  0  0  0  0  0  0  0  0  0
   35.6267   30.8090   43.7193 H   0  0  0  0  0  0  0  0  0  0  0  0
   36.3327   28.6603   45.7984 H   0  0  0  0  0  0  0  0  0  0  0  0
   37.3570   31.6998   44.2720 H   0  0  0  0  0  0  0  0  0  0  0  0
   36.8296   29.8371   48.1844 H   0  0  0  0  0  0  0  0  0  0  0  0
   38.8708   33.3478   45.3224 H   0  0  0  0  0  0  0  0  0  0  0  0
   38.2846   33.7252   49.8474 H   0  0  0  0  0  0  0  0  0  0  0  0
   39.8947   32.8463   50.0345 H   0  0  0  0  0  0  0  0  0  0  0  0
   34.8583   27.4759   47.5299 H   0  0  0  0  0  0  0  0  0  0  0  0
   34.2553   31.7115   47.9230 H   0  0  0  0  0  0  0  0  0  0  0  0
   36.7669   29.1835   51.3189 O   0  0  0  0  0  0  0  0  0  0  0  0
   35.8188   28.5652   52.1623 C   0  0  2  0  0  0  0  0  0  0  0  0
   34.4714   29.0641   51.7080 C   0  0  1  0  0  0  0  0  0  0  0  0
   34.2743   30.2864   52.3904 O   0  0  0  0  0  0  0  0  0  0  0  0
   33.8823   29.8979   53.6680 C   0  0  0  0  0  0  0  0  0  0  0  0
   35.0551   29.3649   54.4411 C   0  0  1  0  0  0  0  0  0  0  0  0
   34.5642   28.4335   55.3599 O   0  0  0  0  0  0  0  0  0  0  0  0
   36.1495   28.8154   53.5822 C   0  0  2  0  0  0  0  0  0  0  0  0
   37.2902   29.6401   53.6656 O   0  0  0  0  0  0  0  0  0  0  0  0
   37.3777   28.5337   50.8910 H   0  0  0  0  0  0  0  0  0  0  0  0
   35.8562   27.4708   51.8951 H   0  0  0  0  0  0  0  0  0  0  0  0
   33.6939   28.3379   51.9520 H   0  0  0  0  0  0  0  0  0  0  0  0
   33.1238   29.1040   53.5719 H   0  0  0  0  0  0  0  0  0  0  0  0
   33.4215   30.7742   54.1604 H   0  0  0  0  0  0  0  0  0  0  0  0
   35.4520   30.2185   55.0430 H   0  0  0  0  0  0  0  0  0  0  0  0
   34.0162   28.9838   56.0042 H   0  0  0  0  0  0  0  0  0  0  0  0
   36.4756   27.8537   54.0353 H   0  0  0  0  0  0  0  0  0  0  0  0
   37.0911   30.5260   53.2342 H   0  0  0  0  0  0  0  0  0  0  0  0
  1 17  1  0
  2  1  1  0
  3  2  1  0
  4  3  1  0
  4  5  1  0
  5  6  1  0
  6  8  1  0
  6  1  1  0
  7 12  2  0
  7  8  1  0
  8  9  2  0
  9 10  1  0
 10 15  1  0
 11 10  2  0
 11 13  1  0
 12 11  1  0
 13 14  1  0
 15 14  1  0
 16 21  2  0
 17 16  1  0
 17 18  2  0
 18 19  1  0
 19 20  2  0
 21 20  1  0
  2 22  1  0
  2 23  1  0
  3 24  1  0
  3 25  1  0
  4 26  1  0
  5 27  1  0
  5 28  1  0
  6 29  1  6
  7 30  1  0
  9 31  1  0
 12 32  1  0
 14 33  1  0
 14 34  1  0
 16 35  1  0
 18 36  1  0
 37 38  1  0
 38 39  1  0
 39 40  1  0
 40 41  1  0
 41 42  1  0
 42 43  1  0
 42 44  1  0
 44 45  1  0
 44 38  1  0
 37 46  1  0
 38 47  1  1
 39 48  1  6
 41 49  1  0
 41 50  1  0
 42 51  1  1
 43 52  1  0
 44 53  1  1
 45 54  1  0
 20 39  1  0
M  ISO  8  22  13  23  13  24  13  25  13  26   5  27  13  28  13  29  13
M  ISO  7  30  14  31  14  32  14  33  13  34  13  35  14  36  14
M  END
>  <DihAtoms>  (1) 
18,19,38,37

>  <DihDeg>  (1) 
19.809071141838654

$$$$
