
     RDKit          3D

 46 48  0  0  0  0  0  0  0  0999 V2000
   37.5676   30.8144   49.5088 C   0  0  0  0  0  0  0  0  0  0  0  0
   37.4795   32.1361   49.9157 C   0  0  0  0  0  0  0  0  0  0  0  0
   37.9248   33.1294   48.9992 C   0  0  0  0  0  0  0  0  0  0  0  0
   38.3989   32.7090   47.8038 N   0  0  0  0  0  0  0  0  0  0  0  0
   38.4631   31.4328   47.4600 C   0  0  0  0  0  0  0  0  0  0  0  0
   38.0495   30.4745   48.3061 N   0  0  0  0  0  0  0  0  0  0  0  0
   38.9778   31.1148   46.1654 N   0  0  0  0  0  0  0  0  0  0  0  0
   40.3861   30.8653   45.9975 C   0  0  0  0  0  0  0  0  0  0  0  0
   40.9239   31.5461   44.7626 C   0  0  0  0  0  0  0  0  0  0  0  0
   40.1008   31.3116   43.6181 N   0  0  0  0  0  0  0  0  0  0  0  0
   38.9295   30.4977   43.8472 C   0  0  0  0  0  0  0  0  0  0  0  0
   38.1205   31.0345   45.0152 C   0  0  2  0  0  0  0  0  0  0  0  0
   37.1062   29.7480   50.4596 C   0  0  0  0  0  0  0  0  0  0  0  0
   35.8132   29.3588   50.1405 F   0  0  0  0  0  0  0  0  0  0  0  0
   38.0142   28.7353   50.4392 F   0  0  0  0  0  0  0  0  0  0  0  0
   37.0129   30.3570   51.7265 F   0  0  0  0  0  0  0  0  0  0  0  0
   37.4486   32.2908   44.6581 C   0  0  0  0  0  0  0  0  0  0  0  0
   37.4728   32.6830   43.4744 O   0  0  0  0  0  0  0  0  0  0  0  0
   37.0901   32.4216   50.8887 H   0  0  0  0  0  0  0  0  0  0  0  0
   37.8709   34.1686   49.2824 H   0  0  0  0  0  0  0  0  0  0  0  0
   40.5721   29.7739   45.9188 H   0  0  0  0  0  0  0  0  0  0  0  0
   40.9612   31.2753   46.8592 H   0  0  0  0  0  0  0  0  0  0  0  0
   40.9484   32.6425   45.0137 H   0  0  0  0  0  0  0  0  0  0  0  0
   41.9717   31.2097   44.6432 H   0  0  0  0  0  0  0  0  0  0  0  0
   39.8772   32.2091   43.1258 H   0  0  0  0  0  0  0  0  0  0  0  0
   38.3385   30.5514   42.9024 H   0  0  0  0  0  0  0  0  0  0  0  0
   39.2438   29.4881   44.1101 H   0  0  0  0  0  0  0  0  0  0  0  0
   37.3734   30.2229   45.2586 H   0  0  0  0  0  0  0  0  0  0  0  0
   38.0321   34.1378   42.5583 O   0  0  0  0  0  0  0  0  0  0  0  0
   37.5540   34.6173   43.7741 C   0  0  2  0  0  0  0  0  0  0  0  0
   36.7156   33.5654   44.5153 C   0  0  2  0  0  0  0  0  0  0  0  0
   36.5208   34.0996   45.7723 O   0  0  0  0  0  0  0  0  0  0  0  0
   36.4675   35.4553   45.8545 C   0  0  0  0  0  0  0  0  0  0  0  0
   35.6859   35.9802   44.6627 C   0  0  2  0  0  0  0  0  0  0  0  0
   34.4912   35.3040   44.5883 O   0  0  0  0  0  0  0  0  0  0  0  0
   36.5659   35.7366   43.4444 C   0  0  2  0  0  0  0  0  0  0  0  0
   35.7583   35.2739   42.4202 O   0  0  0  0  0  0  0  0  0  0  0  0
   37.2743   34.0279   41.9221 H   0  0  0  0  0  0  0  0  0  0  0  0
   38.3965   34.9799   44.3900 H   0  0  0  0  0  0  0  0  0  0  0  0
   35.7898   33.4865   43.9005 H   0  0  0  0  0  0  0  0  0  0  0  0
   35.9543   35.7056   46.8150 H   0  0  0  0  0  0  0  0  0  0  0  0
   37.4239   35.9979   45.8675 H   0  0  0  0  0  0  0  0  0  0  0  0
   35.5364   37.0889   44.7762 H   0  0  0  0  0  0  0  0  0  0  0  0
   33.7689   35.7874   44.1284 H   0  0  0  0  0  0  0  0  0  0  0  0
   37.1075   36.6766   43.1697 H   0  0  0  0  0  0  0  0  0  0  0  0
   34.9124   34.8808   42.6865 H   0  0  0  0  0  0  0  0  0  0  0  0
  1  2  2  0
  1 13  1  0
  3  2  1  0
  4  3  2  0
  5  4  1  0
  5  6  2  0
  6  1  1  0
  7  5  1  0
  8  7  1  0
  9  8  1  0
 10 11  1  0
 10  9  1  0
 11 12  1  0
 12  7  1  0
 13 16  1  0
 14 13  1  0
 15 13  1  0
 17 12  1  0
 18 17  2  0
  2 19  1  0
  3 20  1  0
  8 21  1  0
  8 22  1  0
  9 23  1  0
  9 24  1  0
 10 25  1  0
 11 26  1  0
 11 27  1  0
 12 28  1  1
 29 30  1  0
 30 31  1  0
 31 32  1  0
 32 33  1  0
 33 34  1  0
 34 35  1  0
 34 36  1  0
 36 37  1  0
 36 30  1  0
 29 38  1  0
 30 39  1  1
 31 40  1  6
 33 41  1  0
 33 42  1  0
 34 43  1  1
 35 44  1  0
 36 45  1  6
 37 46  1  0
 17 31  1  0
M  ISO  8  19  14  20  14  21  13  22  13  23  13  24  13  25   5  26  13
M  ISO  2  27  13  28  13
M  END
>  <DihAtoms>  (1) 
11,16,30,29

>  <DihDeg>  (1) 
-64.74103272852915

$$$$
