
     RDKit          3D

 46 48  0  0  0  0  0  0  0  0999 V2000
   37.5676   30.8144   49.5088 C   0  0  0  0  0  0  0  0  0  0  0  0
   37.4795   32.1361   49.9157 C   0  0  0  0  0  0  0  0  0  0  0  0
   37.9248   33.1294   48.9992 C   0  0  0  0  0  0  0  0  0  0  0  0
   38.3989   32.7090   47.8038 N   0  0  0  0  0  0  0  0  0  0  0  0
   38.4631   31.4328   47.4600 C   0  0  0  0  0  0  0  0  0  0  0  0
   38.0495   30.4745   48.3061 N   0  0  0  0  0  0  0  0  0  0  0  0
   38.9778   31.1148   46.1654 N   0  0  0  0  0  0  0  0  0  0  0  0
   40.3861   30.8653   45.9975 C   0  0  0  0  0  0  0  0  0  0  0  0
   40.9239   31.5461   44.7626 C   0  0  0  0  0  0  0  0  0  0  0  0
   40.1008   31.3116   43.6181 N   0  0  0  0  0  0  0  0  0  0  0  0
   38.9295   30.4977   43.8472 C   0  0  0  0  0  0  0  0  0  0  0  0
   38.1205   31.0345   45.0152 C   0  0  2  0  0  0  0  0  0  0  0  0
   37.1062   29.7480   50.4596 C   0  0  0  0  0  0  0  0  0  0  0  0
   35.8132   29.3588   50.1405 F   0  0  0  0  0  0  0  0  0  0  0  0
   38.0142   28.7353   50.4392 F   0  0  0  0  0  0  0  0  0  0  0  0
   37.0129   30.3570   51.7265 F   0  0  0  0  0  0  0  0  0  0  0  0
   37.4486   32.2908   44.6581 C   0  0  0  0  0  0  0  0  0  0  0  0
   37.4728   32.6830   43.4744 O   0  0  0  0  0  0  0  0  0  0  0  0
   37.0901   32.4216   50.8887 H   0  0  0  0  0  0  0  0  0  0  0  0
   37.8709   34.1686   49.2824 H   0  0  0  0  0  0  0  0  0  0  0  0
   40.5721   29.7739   45.9188 H   0  0  0  0  0  0  0  0  0  0  0  0
   40.9612   31.2753   46.8592 H   0  0  0  0  0  0  0  0  0  0  0  0
   40.9484   32.6425   45.0137 H   0  0  0  0  0  0  0  0  0  0  0  0
   41.9717   31.2097   44.6432 H   0  0  0  0  0  0  0  0  0  0  0  0
   39.8772   32.2091   43.1258 H   0  0  0  0  0  0  0  0  0  0  0  0
   38.3385   30.5514   42.9024 H   0  0  0  0  0  0  0  0  0  0  0  0
   39.2438   29.4881   44.1101 H   0  0  0  0  0  0  0  0  0  0  0  0
   37.3734   30.2229   45.2586 H   0  0  0  0  0  0  0  0  0  0  0  0
   37.0371   33.5154   42.1102 O   0  0  0  0  0  0  0  0  0  0  0  0
   37.1353   34.3171   43.2434 C   0  0  2  0  0  0  0  0  0  0  0  0
   36.7156   33.5654   44.5153 C   0  0  2  0  0  0  0  0  0  0  0  0
   37.0860   34.3997   45.5497 O   0  0  0  0  0  0  0  0  0  0  0  0
   37.0618   35.7341   45.2922 C   0  0  0  0  0  0  0  0  0  0  0  0
   35.8326   36.0412   44.4547 C   0  0  2  0  0  0  0  0  0  0  0  0
   34.7321   35.4969   45.0731 O   0  0  0  0  0  0  0  0  0  0  0  0
   36.0926   35.4243   43.0872 C   0  0  2  0  0  0  0  0  0  0  0  0
   34.9223   34.8202   42.6621 O   0  0  0  0  0  0  0  0  0  0  0  0
   36.0783   33.3387   41.9089 H   0  0  0  0  0  0  0  0  0  0  0  0
   38.1591   34.7241   43.3256 H   0  0  0  0  0  0  0  0  0  0  0  0
   35.6148   33.4414   44.3961 H   0  0  0  0  0  0  0  0  0  0  0  0
   37.0187   36.2576   46.2784 H   0  0  0  0  0  0  0  0  0  0  0  0
   37.9224   36.1601   44.7564 H   0  0  0  0  0  0  0  0  0  0  0  0
   35.7379   37.1547   44.3291 H   0  0  0  0  0  0  0  0  0  0  0  0
   33.8771   35.9311   44.8559 H   0  0  0  0  0  0  0  0  0  0  0  0
   36.4507   36.2099   42.3751 H   0  0  0  0  0  0  0  0  0  0  0  0
   34.2819   34.5930   43.3545 H   0  0  0  0  0  0  0  0  0  0  0  0
  1  2  2  0
  1 13  1  0
  3  2  1  0
  4  3  2  0
  5  4  1  0
  5  6  2  0
  6  1  1  0
  7  5  1  0
  8  7  1  0
  9  8  1  0
 10 11  1  0
 10  9  1  0
 11 12  1  0
 12  7  1  0
 13 16  1  0
 14 13  1  0
 15 13  1  0
 17 12  1  0
 18 17  2  0
  2 19  1  0
  3 20  1  0
  8 21  1  0
  8 22  1  0
  9 23  1  0
  9 24  1  0
 10 25  1  0
 11 26  1  0
 11 27  1  0
 12 28  1  1
 29 30  1  0
 30 31  1  0
 31 32  1  0
 32 33  1  0
 33 34  1  0
 34 35  1  0
 34 36  1  0
 36 37  1  0
 36 30  1  0
 29 38  1  0
 30 39  1  1
 31 40  1  6
 33 41  1  0
 33 42  1  0
 34 43  1  6
 35 44  1  0
 36 45  1  6
 37 46  1  0
 17 31  1  0
M  ISO  8  19  14  20  14  21  13  22  13  23  13  24  13  25   5  26  13
M  ISO  2  27  13  28  13
M  END
>  <DihAtoms>  (1) 
11,16,30,29

>  <DihDeg>  (1) 
-64.74103272852915

$$$$
