
     RDKit          3D

 46 48  0  0  0  0  0  0  0  0999 V2000
   37.5676   30.8144   49.5088 C   0  0  0  0  0  0  0  0  0  0  0  0
   37.4795   32.1361   49.9157 C   0  0  0  0  0  0  0  0  0  0  0  0
   37.9248   33.1294   48.9992 C   0  0  0  0  0  0  0  0  0  0  0  0
   38.3989   32.7090   47.8038 N   0  0  0  0  0  0  0  0  0  0  0  0
   38.4631   31.4328   47.4600 C   0  0  0  0  0  0  0  0  0  0  0  0
   38.0495   30.4745   48.3061 N   0  0  0  0  0  0  0  0  0  0  0  0
   38.9778   31.1148   46.1654 N   0  0  0  0  0  0  0  0  0  0  0  0
   40.3861   30.8653   45.9975 C   0  0  0  0  0  0  0  0  0  0  0  0
   40.9239   31.5461   44.7626 C   0  0  0  0  0  0  0  0  0  0  0  0
   40.1008   31.3116   43.6181 N   0  0  0  0  0  0  0  0  0  0  0  0
   38.9295   30.4977   43.8472 C   0  0  0  0  0  0  0  0  0  0  0  0
   38.1205   31.0345   45.0152 C   0  0  2  0  0  0  0  0  0  0  0  0
   37.1062   29.7480   50.4596 C   0  0  0  0  0  0  0  0  0  0  0  0
   35.8132   29.3588   50.1405 F   0  0  0  0  0  0  0  0  0  0  0  0
   38.0142   28.7353   50.4392 F   0  0  0  0  0  0  0  0  0  0  0  0
   37.0129   30.3570   51.7265 F   0  0  0  0  0  0  0  0  0  0  0  0
   37.4486   32.2908   44.6581 C   0  0  0  0  0  0  0  0  0  0  0  0
   37.4728   32.6830   43.4744 O   0  0  0  0  0  0  0  0  0  0  0  0
   37.0901   32.4216   50.8887 H   0  0  0  0  0  0  0  0  0  0  0  0
   37.8709   34.1686   49.2824 H   0  0  0  0  0  0  0  0  0  0  0  0
   40.5721   29.7739   45.9188 H   0  0  0  0  0  0  0  0  0  0  0  0
   40.9612   31.2753   46.8592 H   0  0  0  0  0  0  0  0  0  0  0  0
   40.9484   32.6425   45.0137 H   0  0  0  0  0  0  0  0  0  0  0  0
   41.9717   31.2097   44.6432 H   0  0  0  0  0  0  0  0  0  0  0  0
   39.8772   32.2091   43.1258 H   0  0  0  0  0  0  0  0  0  0  0  0
   38.3385   30.5514   42.9024 H   0  0  0  0  0  0  0  0  0  0  0  0
   39.2438   29.4881   44.1101 H   0  0  0  0  0  0  0  0  0  0  0  0
   37.3734   30.2229   45.2586 H   0  0  0  0  0  0  0  0  0  0  0  0
   34.9926   32.7792   46.0331 O   0  0  0  0  0  0  0  0  0  0  0  0
   35.2172   33.3887   44.8024 C   0  0  0  0  0  0  0  0  0  0  0  0
   36.7156   33.5654   44.5153 C   0  0  0  0  0  0  0  0  0  0  0  0
   36.7721   33.9551   43.1931 O   0  0  0  0  0  0  0  0  0  0  0  0
   35.7166   34.6730   42.7259 C   0  0  0  0  0  0  0  0  0  0  0  0
   35.2865   35.6541   43.8025 C   0  0  0  0  0  0  0  0  0  0  0  0
   36.3909   36.3557   44.2244 O   0  0  0  0  0  0  0  0  0  0  0  0
   34.6747   34.8137   44.9149 C   0  0  0  0  0  0  0  0  0  0  0  0
   35.1168   35.3200   46.1247 O   0  0  0  0  0  0  0  0  0  0  0  0
   35.2457   33.4040   46.7657 H   0  0  0  0  0  0  0  0  0  0  0  0
   34.7105   32.8169   44.0043 H   0  0  0  0  0  0  0  0  0  0  0  0
   37.0312   34.3505   45.2401 H   0  0  0  0  0  0  0  0  0  0  0  0
   36.0644   35.2080   41.8086 H   0  0  0  0  0  0  0  0  0  0  0  0
   34.8167   34.1136   42.4319 H   0  0  0  0  0  0  0  0  0  0  0  0
   34.4890   36.3313   43.3902 H   0  0  0  0  0  0  0  0  0  0  0  0
   36.1983   37.2387   44.6119 H   0  0  0  0  0  0  0  0  0  0  0  0
   33.5588   34.8219   44.8308 H   0  0  0  0  0  0  0  0  0  0  0  0
   35.9301   35.8480   46.0961 H   0  0  0  0  0  0  0  0  0  0  0  0
  1  2  2  0
  1 13  1  0
  3  2  1  0
  4  3  2  0
  5  4  1  0
  5  6  2  0
  6  1  1  0
  7  5  1  0
  8  7  1  0
  9  8  1  0
 10 11  1  0
 10  9  1  0
 11 12  1  0
 12  7  1  0
 13 16  1  0
 14 13  1  0
 15 13  1  0
 17 12  1  0
 18 17  2  0
  2 19  1  0
  3 20  1  0
  8 21  1  0
  8 22  1  0
  9 23  1  0
  9 24  1  0
 10 25  1  0
 11 26  1  0
 11 27  1  0
 12 28  1  1
 29 30  1  0
 30 31  1  0
 31 32  1  0
 32 33  1  0
 33 34  1  0
 34 35  1  0
 34 36  1  0
 36 37  1  0
 36 30  1  0
 29 38  1  0
 30 39  1  0
 31 40  1  0
 33 41  1  0
 33 42  1  0
 34 43  1  0
 35 44  1  0
 36 45  1  0
 37 46  1  0
 17 31  1  0
M  ISO  8  19  14  20  14  21  13  22  13  23  13  24  13  25   5  26  13
M  ISO  2  27  13  28  13
M  END
>  <DihAtoms>  (1) 
11,16,30,29

>  <DihDeg>  (1) 
-64.74103272852915

$$$$
