
     RDKit          3D

 28 30  0  0  0  0  0  0  0  0999 V2000
   37.2715   29.4518   51.1181 Br  0  0  0  0  0  0  0  0  0  0  0  0
   35.9956   29.3191   49.7144 C   0  0  0  0  0  0  0  0  0  0  0  0
   36.0211   30.2037   48.6513 C   0  0  0  0  0  0  0  0  0  0  0  0
   35.0598   30.0347   47.6790 C   0  0  0  0  0  0  0  0  0  0  0  0
   34.0875   29.0584   47.6920 C   0  0  0  0  0  0  0  0  0  0  0  0
   34.1086   28.1935   48.7881 C   0  0  0  0  0  0  0  0  0  0  0  0
   35.0711   28.3361   49.7946 C   0  0  0  0  0  0  0  0  0  0  0  0
   37.8619   33.2402   49.4671 C   0  0  0  0  0  0  0  0  0  0  0  0
   38.8906   33.2763   48.5056 C   0  0  0  0  0  0  0  0  0  0  0  0
   38.9398   32.2487   47.5812 C   0  0  0  0  0  0  0  0  0  0  0  0
   37.9999   31.2480   47.6339 N   0  0  0  0  0  0  0  0  0  0  0  0
   37.0262   31.2583   48.5819 C   0  0  0  0  0  0  0  0  0  0  0  0
   36.9536   32.2546   49.5021 N   0  0  0  0  0  0  0  0  0  0  0  0
   39.7977   34.3005   48.5047 O   0  0  0  0  0  0  0  0  0  0  0  0
   35.0883   30.7415   46.8396 H   0  0  0  0  0  0  0  0  0  0  0  0
   33.3535   28.9669   46.9032 H   0  0  0  0  0  0  0  0  0  0  0  0
   33.3651   27.4041   48.8510 H   0  0  0  0  0  0  0  0  0  0  0  0
   35.0106   27.6228   50.6027 H   0  0  0  0  0  0  0  0  0  0  0  0
   37.7675   34.0085   50.2138 H   0  0  0  0  0  0  0  0  0  0  0  0
   39.7202   32.2735   46.8496 H   0  0  0  0  0  0  0  0  0  0  0  0
   39.6405   35.4718   47.8099 C   0  0  0  0  0  0  0  0  0  0  0  0
   40.7066   36.3642   47.9692 C   0  0  0  0  0  0  0  0  0  0  0  0
   41.6462   36.3791   48.5071 H   0  0  0  0  0  0  0  0  0  0  0  0
   40.4309   37.5123   47.2175 C   0  0  0  0  0  0  0  0  0  0  0  0
   40.9863   38.4296   47.0674 H   0  0  0  0  0  0  0  0  0  0  0  0
   39.2253   37.2779   46.6382 N   0  0  0  0  0  0  0  0  0  0  0  0
   38.6487   37.8672   45.9997 H   0  0  0  0  0  0  0  0  0  0  0  0
   38.7677   36.0865   46.9863 N   0  0  0  0  0  0  0  0  0  0  0  0
  2  7  2  0
  2  1  1  0
  3  2  1  0
  4  5  1  0
  4  3  2  0
  5  6  2  0
  6  7  1  0
  8 13  2  0
  9 14  1  0
  9  8  1  0
 10 11  1  0
 10  9  2  0
 11 12  2  0
 12  3  1  0
 12 13  1  0
  4 15  1  0
  5 16  1  0
  6 17  1  0
  7 18  1  0
  8 19  1  0
 10 20  1  0
 21 22  1  0
 22 23  1  0
 22 24  2  0
 24 25  1  0
 24 26  1  0
 26 27  1  0
 26 28  1  0
 28 21  2  0
 14 21  1  0
M  ISO  8  15  14  16  14  17  14  18  14  19  14  20  14  23  15  25  16
M  ISO  1  27   5
M  END
>  <DihAtoms>  (1) 
8,13,20,21

>  <DihDeg>  (1) 
-179.99880735135199

$$$$
