
     RDKit          3D

 30 32  0  0  0  0  0  0  0  0999 V2000
   34.4100   28.4120   48.0060 C   0  0  0  0  0  0  0  0  0  0  0  0
   32.9160   28.2780   47.8640 C   0  0  0  0  0  0  0  0  0  0  0  0
   32.0860   27.5630   48.6970 C   0  0  0  0  0  0  0  0  0  0  0  0
   30.7690   27.6480   48.2820 C   0  0  0  0  0  0  0  0  0  0  0  0
   30.8450   28.4420   47.1710 N   0  0  0  0  0  0  0  0  0  0  0  0
   32.0940   28.8020   46.9370 N   0  0  0  0  0  0  0  0  0  0  0  0
   29.7080   28.8160   46.3860 C   0  0  0  0  0  0  0  0  0  0  0  0
   29.4820   28.5570   45.0440 C   0  0  0  0  0  0  0  0  0  0  0  0
   28.2360   29.1370   44.7910 C   0  0  0  0  0  0  0  0  0  0  0  0
   27.7540   29.7090   45.9320 N   0  0  0  0  0  0  0  0  0  0  0  0
   28.6620   29.5020   46.8840 N   0  0  0  0  0  0  0  0  0  0  0  0
   34.7090   28.2960   49.4670 C   0  0  0  0  0  0  0  0  0  0  0  0
   37.2510   30.1690   51.3950 C   0  0  0  0  0  0  0  0  0  0  0  0
   38.0700   30.7050   50.3830 C   0  0  0  0  0  0  0  0  0  0  0  0
   37.7230   30.4050   49.0420 C   0  0  0  0  0  0  0  0  0  0  0  0
   36.6370   29.6300   48.8330 N   0  0  0  0  0  0  0  0  0  0  0  0
   35.8820   29.1390   49.8390 C   0  0  0  0  0  0  0  0  0  0  0  0
   36.1910   29.4100   51.0940 N   0  0  0  0  0  0  0  0  0  0  0  0
   34.7418   29.3897   47.6265 H   0  0  0  0  0  0  0  0  0  0  0  0
   34.9359   27.6369   47.4292 H   0  0  0  0  0  0  0  0  0  0  0  0
   32.4254   26.9979   49.5776 H   0  0  0  0  0  0  0  0  0  0  0  0
   29.8780   27.1889   48.7351 H   0  0  0  0  0  0  0  0  0  0  0  0
   30.1333   28.0187   44.3397 H   0  0  0  0  0  0  0  0  0  0  0  0
   27.7215   29.1330   43.8187 H   0  0  0  0  0  0  0  0  0  0  0  0
   26.8582   30.2064   46.0371 H   0  0  0  0  0  0  0  0  0  0  0  0
   33.8312   28.6267   50.0416 H   0  0  0  0  0  0  0  0  0  0  0  0
   34.9444   27.2460   49.6952 H   0  0  0  0  0  0  0  0  0  0  0  0
   37.4861   30.3774   52.4492 H   0  0  0  0  0  0  0  0  0  0  0  0
   38.9425   31.3303   50.6230 H   0  0  0  0  0  0  0  0  0  0  0  0
   38.3177   30.7901   48.2006 H   0  0  0  0  0  0  0  0  0  0  0  0
  1 12  1  0
  2  1  1  0
  2  3  1  0
  4  3  2  0
  5  4  1  0
  6  5  1  0
  6  2  2  0
  7 11  2  0
  7  5  1  0
  8  7  1  0
  9  8  2  0
  9 10  1  0
 10 11  1  0
 12 17  1  0
 14 13  2  0
 15 14  1  0
 16 15  2  0
 16 17  1  0
 17 18  2  0
 18 13  1  0
  1 19  1  0
  1 20  1  0
  3 21  1  0
  4 22  1  0
  8 23  1  0
  9 24  1  0
 10 25  1  0
 12 26  1  0
 12 27  1  0
 13 28  1  0
 14 29  1  0
 15 30  1  0
M  ISO  8  19   8  20   8  21  14  22  14  23  14  24  14  25   9  26   8
M  ISO  4  27   8  28  14  29  14  30  14
M  END
>  <minimizedAffinity>  (1) 
-4.87926102

>  <minimizedRMSD>  (1) 
0.363522142

$$$$
