
     RDKit          3D

 29 31  0  0  0  0  0  0  0  0999 V2000
   37.5600   30.3640   51.0810 C   0  0  0  0  0  0  0  0  0  0  0  0
   38.0050   30.9430   49.8690 C   0  0  0  0  0  0  0  0  0  0  0  0
   37.3790   30.5430   48.6960 C   0  0  0  0  0  0  0  0  0  0  0  0
   36.3890   29.6330   48.7920 N   0  0  0  0  0  0  0  0  0  0  0  0
   35.9780   29.0930   49.9570 C   0  0  0  0  0  0  0  0  0  0  0  0
   36.5740   29.4680   51.1010 N   0  0  0  0  0  0  0  0  0  0  0  0
   37.7320   31.0540   47.3920 C   0  0  0  0  0  0  0  0  0  0  0  0
   36.9880   30.7290   46.2660 C   0  0  0  0  0  0  0  0  0  0  0  0
   37.2890   31.1970   45.0010 C   0  0  0  0  0  0  0  0  0  0  0  0
   38.3610   32.0120   44.8440 N   0  0  0  0  0  0  0  0  0  0  0  0
   39.0640   32.3130   45.9380 C   0  0  0  0  0  0  0  0  0  0  0  0
   38.7960   31.8730   47.1900 N   0  0  0  0  0  0  0  0  0  0  0  0
   40.2490   33.2090   45.8020 C   0  0  0  0  0  0  0  0  0  0  0  0
   40.3620   33.9590   46.9840 F   0  0  0  0  0  0  0  0  0  0  0  0
   41.3920   32.4870   45.5600 F   0  0  0  0  0  0  0  0  0  0  0  0
   40.0780   34.1340   44.7980 F   0  0  0  0  0  0  0  0  0  0  0  0
   34.9520   28.1730   49.8930 O   0  0  0  0  0  0  0  0  0  0  0  0
   34.2270   28.0510   48.7220 C   0  0  0  0  0  0  0  0  0  0  0  0
   32.8540   28.1540   48.9760 C   0  0  0  0  0  0  0  0  0  0  0  0
   32.1770   28.0230   47.7600 C   0  0  0  0  0  0  0  0  0  0  0  0
   33.1260   27.8500   46.8250 N   0  0  0  0  0  0  0  0  0  0  0  0
   34.3000   27.8690   47.4020 N   0  0  0  0  0  0  0  0  0  0  0  0
   38.0381   30.6598   52.0265 H   0  0  0  0  0  0  0  0  0  0  0  0
   38.8181   31.6838   49.8566 H   0  0  0  0  0  0  0  0  0  0  0  0
   36.1174   30.0675   46.3864 H   0  0  0  0  0  0  0  0  0  0  0  0
   36.6700   30.9134   44.1371 H   0  0  0  0  0  0  0  0  0  0  0  0
   32.3891   28.3107   49.9606 H   0  0  0  0  0  0  0  0  0  0  0  0
   31.0890   28.0550   47.6011 H   0  0  0  0  0  0  0  0  0  0  0  0
   32.9567   27.7230   45.8170 H   0  0  0  0  0  0  0  0  0  0  0  0
  1  6  2  0
  2  1  1  0
  3  4  1  0
  3  2  2  0
  4  5  2  0
  5  6  1  0
  7  3  1  0
  8  7  2  0
  9  8  1  0
 10  9  2  0
 10 11  1  0
 11 12  2  0
 12  7  1  0
 13 11  1  0
 13 14  1  0
 15 13  1  0
 16 13  1  0
 17  5  1  0
 18 19  1  0
 18 17  1  0
 20 19  2  0
 21 22  1  0
 21 20  1  0
 22 18  2  0
  1 23  1  0
  2 24  1  0
  8 25  1  0
  9 26  1  0
 19 27  1  0
 20 28  1  0
 21 29  1  0
M  ISO  7  23  14  24  14  25  14  26  14  27  14  28  14  29   9
M  END
>  <minimizedAffinity>  (1) 
-6.40172911

>  <minimizedRMSD>  (1) 
0.255801171

$$$$
