
     RDKit          3D

 33 35  0  0  0  0  0  0  0  0999 V2000
   35.9707   29.6222   48.8673 N   0  0  0  0  0  0  0  0  0  0  0  0
   36.5782   28.8610   49.9184 C   0  0  0  0  0  0  0  0  0  0  0  0
   37.0432   29.5661   51.1169 C   0  0  0  0  0  0  0  0  0  0  0  0
   37.4126   30.9911   50.9816 C   0  0  0  0  0  0  0  0  0  0  0  0
   36.8179   31.6855   49.7822 C   0  0  0  0  0  0  0  0  0  0  0  0
   36.8385   30.7371   48.5928 C   0  0  1  0  0  0  0  0  0  0  0  0
   34.7352   29.3325   48.2119 C   0  0  0  0  0  0  0  0  0  0  0  0
   34.2546   30.0088   47.0918 C   0  0  0  0  0  0  0  0  0  0  0  0
   33.0363   29.6167   46.5621 C   0  0  0  0  0  0  0  0  0  0  0  0
   32.3758   28.5857   47.1724 N   0  0  0  0  0  0  0  0  0  0  0  0
   32.8712   27.9627   48.2457 C   0  0  0  0  0  0  0  0  0  0  0  0
   34.0568   28.3299   48.7768 N   0  0  0  0  0  0  0  0  0  0  0  0
   38.1790   30.3568   48.4663 O   0  0  0  0  0  0  0  0  0  0  0  0
   35.8343   28.0556   50.1858 H   0  0  0  0  0  0  0  0  0  0  0  0
   37.4322   28.3034   49.4525 H   0  0  0  0  0  0  0  0  0  0  0  0
   37.9225   29.0194   51.5389 H   0  0  0  0  0  0  0  0  0  0  0  0
   36.2433   29.4599   51.9027 H   0  0  0  0  0  0  0  0  0  0  0  0
   37.0701   31.5613   51.8826 H   0  0  0  0  0  0  0  0  0  0  0  0
   38.5226   31.1429   50.9443 H   0  0  0  0  0  0  0  0  0  0  0  0
   35.7838   32.0217   49.9114 H   0  0  0  0  0  0  0  0  0  0  0  0
   37.4773   32.5550   49.5156 H   0  0  0  0  0  0  0  0  0  0  0  0
   36.5655   31.3069   47.6819 H   0  0  0  0  0  0  0  0  0  0  0  0
   34.8517   30.7935   46.7016 H   0  0  0  0  0  0  0  0  0  0  0  0
   32.6868   30.1560   45.6954 H   0  0  0  0  0  0  0  0  0  0  0  0
   32.2929   27.1554   48.6755 H   0  0  0  0  0  0  0  0  0  0  0  0
   38.9655   30.6735   47.3655 C   0  0  0  0  0  0  0  0  0  0  0  0
   38.6313   30.8712   46.0216 C   0  0  0  0  0  0  0  0  0  0  0  0
   37.6184   30.7907   45.6540 H   0  0  0  0  0  0  0  0  0  0  0  0
   39.7709   31.1697   45.3009 C   0  0  0  0  0  0  0  0  0  0  0  0
   39.7262   31.3554   44.2528 H   0  0  0  0  0  0  0  0  0  0  0  0
   40.7734   31.1466   46.2250 N   0  0  0  0  0  0  0  0  0  0  0  0
   41.7468   31.3491   45.8951 H   0  0  0  0  0  0  0  0  0  0  0  0
   40.2969   30.8567   47.4260 N   0  0  0  0  0  0  0  0  0  0  0  0
  1  2  1  0
  2  3  1  0
  4  3  1  0
  5  4  1  0
  6  1  1  0
  6  5  1  0
  7 12  1  0
  7  1  1  0
  8  7  2  0
  9  8  1  0
  9 10  2  0
 10 11  1  0
 11 12  2  0
 13  6  1  0
  2 14  1  0
  2 15  1  0
  3 16  1  0
  3 17  1  0
  4 18  1  0
  4 19  1  0
  5 20  1  0
  5 21  1  0
  6 22  1  6
  8 23  1  0
  9 24  1  0
 11 25  1  0
 26 27  1  0
 27 28  1  0
 27 29  2  0
 29 30  1  0
 29 31  1  0
 31 32  1  0
 31 33  1  0
 33 26  2  0
 13 26  1  0
M  ISO  8  14  13  15  13  16  13  17  13  18  13  19  13  20  13  21  13
M  ISO  7  22  13  23  14  24  14  25  14  28  15  30  16  32   5
M  END
>  <DihAtoms>  (1) 
5,12,25,26

>  <DihDeg>  (1) 
-0.002567917972821668

$$$$
