
     RDKit          3D

 18 19  0  0  0  0  0  0  0  0999 V2000
   37.3273   30.2334   51.4346 C   0  0  0  0  0  0  0  0  0  0  0  0
   38.0726   30.7321   50.3418 C   0  0  0  0  0  0  0  0  0  0  0  0
   37.6983   30.3728   49.0366 C   0  0  0  0  0  0  0  0  0  0  0  0
   36.6103   29.5434   48.9057 N   0  0  0  0  0  0  0  0  0  0  0  0
   35.9205   29.0846   49.9633 C   0  0  0  0  0  0  0  0  0  0  0  0
   36.2884   29.4361   51.2193 N   0  0  0  0  0  0  0  0  0  0  0  0
   34.8745   28.2726   49.5878 O   0  0  0  0  0  0  0  0  0  0  0  0
   37.6162   30.5105   52.4388 H   0  0  0  0  0  0  0  0  0  0  0  0
   38.9310   31.3918   50.5367 H   0  0  0  0  0  0  0  0  0  0  0  0
   38.2503   30.7411   48.2084 H   0  0  0  0  0  0  0  0  0  0  0  0
   34.0101   27.6742   50.5161 C   0  0  0  0  0  0  0  0  0  0  0  0
   33.2991   27.9834   51.6525 C   0  0  0  0  0  0  0  0  0  0  0  0
   33.4119   29.0228   51.9789 H   0  0  0  0  0  0  0  0  0  0  0  0
   32.6450   26.8306   52.0292 C   0  0  0  0  0  0  0  0  0  0  0  0
   32.0247   26.8951   52.9251 H   0  0  0  0  0  0  0  0  0  0  0  0
   32.9653   25.8575   51.1291 N   0  0  0  0  0  0  0  0  0  0  0  0
   32.5384   24.9097   51.2838 H   0  0  0  0  0  0  0  0  0  0  0  0
   33.7861   26.3850   50.2288 N   0  0  0  0  0  0  0  0  0  0  0  0
  2  1  2  0
  3  2  1  0
  4  3  2  0
  4  5  1  0
  5  6  2  0
  6  1  1  0
  7  5  1  0
  1  8  1  0
  2  9  1  0
  3 10  1  0
 11 12  1  0
 12 13  1  0
 12 14  2  0
 14 15  1  0
 14 16  1  0
 16 17  1  0
 16 18  1  0
 18 11  2  0
  7 11  1  0
M  ISO  6   8  14   9  14  10  14  13  15  15  16  17   5
M  END
>  <DihAtoms>  (1) 
4,6,10,11

>  <DihDeg>  (1) 
0.0017852190882379035

$$$$
