
     RDKit          3D

 31 34  0  0  0  0  0  0  0  0999 V2000
   36.8414   30.5615   46.9129 C   0  0  0  0  0  0  0  0  0  0  0  0
   37.5206   31.0417   48.0349 C   0  0  0  0  0  0  0  0  0  0  0  0
   38.5134   31.9845   47.8955 C   0  0  0  0  0  0  0  0  0  0  0  0
   38.7977   32.4251   46.5946 C   0  0  0  0  0  0  0  0  0  0  0  0
   39.7419   33.3529   46.2321 N   0  0  0  0  0  0  0  0  0  0  0  0
   39.6534   33.4500   44.9052 C   0  0  0  0  0  0  0  0  0  0  0  0
   38.7051   32.6327   44.4235 N   0  0  0  0  0  0  0  0  0  0  0  0
   38.1502   31.9756   45.4631 C   0  0  0  0  0  0  0  0  0  0  0  0
   37.1550   31.0261   45.6358 C   0  0  0  0  0  0  0  0  0  0  0  0
   37.3688   30.0947   51.6658 C   0  0  0  0  0  0  0  0  0  0  0  0
   37.8477   30.6571   50.4907 C   0  0  0  0  0  0  0  0  0  0  0  0
   37.1334   30.5070   49.3239 C   0  0  0  0  0  0  0  0  0  0  0  0
   35.9723   29.7970   49.4022 N   0  0  0  0  0  0  0  0  0  0  0  0
   35.5191   29.2562   50.5505 C   0  0  0  0  0  0  0  0  0  0  0  0
   36.2150   29.4069   51.6689 N   0  0  0  0  0  0  0  0  0  0  0  0
   40.4612   34.3028   44.1586 O   0  0  0  0  0  0  0  0  0  0  0  0
   36.0456   29.8156   46.9519 H   0  0  0  0  0  0  0  0  0  0  0  0
   39.0360   32.3548   48.7529 H   0  0  0  0  0  0  0  0  0  0  0  0
   40.3826   33.8586   46.9006 H   0  0  0  0  0  0  0  0  0  0  0  0
   36.6404   30.6668   44.7528 H   0  0  0  0  0  0  0  0  0  0  0  0
   37.9930   30.2569   52.5542 H   0  0  0  0  0  0  0  0  0  0  0  0
   38.7772   31.2214   50.4456 H   0  0  0  0  0  0  0  0  0  0  0  0
   34.5839   28.7058   50.5225 H   0  0  0  0  0  0  0  0  0  0  0  0
   41.4188   35.1229   44.6830 C   0  0  0  0  0  0  0  0  0  0  0  0
   42.1345   35.9079   43.8039 C   0  0  0  0  0  0  0  0  0  0  0  0
   42.1249   36.0448   42.7258 H   0  0  0  0  0  0  0  0  0  0  0  0
   43.0480   36.6625   44.5089 C   0  0  0  0  0  0  0  0  0  0  0  0
   43.8233   37.4089   44.3248 H   0  0  0  0  0  0  0  0  0  0  0  0
   42.8655   36.3158   45.8172 N   0  0  0  0  0  0  0  0  0  0  0  0
   43.2880   36.5840   46.7402 H   0  0  0  0  0  0  0  0  0  0  0  0
   41.9042   35.4068   45.9238 N   0  0  0  0  0  0  0  0  0  0  0  0
  1  2  2  0
  2 12  1  0
  3  2  1  0
  4  3  2  0
  5  4  1  0
  6  5  1  0
  7  6  2  0
  7  8  1  0
  8  9  2  0
  8  4  1  0
  9  1  1  0
 10 15  2  0
 11 10  1  0
 12 13  1  0
 12 11  2  0
 13 14  2  0
 14 15  1  0
 16  6  1  0
  1 17  1  0
  3 18  1  0
  5 19  1  0
  9 20  1  0
 10 21  1  0
 11 22  1  0
 14 23  1  0
 24 25  1  0
 25 26  1  0
 25 27  2  0
 27 28  1  0
 27 29  1  0
 29 30  1  0
 29 31  1  0
 31 24  2  0
 16 24  1  0
M  ISO  8  17  14  18  14  19   9  20  14  21  14  22  14  23  14  26  15
M  ISO  2  28  16  30   5
M  END
>  <DihAtoms>  (1) 
5,15,23,24

>  <DihDeg>  (1) 
179.99786626722337

$$$$
