
     RDKit          3D

 45 48  0  0  0  0  0  0  0  0999 V2000
   33.1723   28.2284   49.0970 C   0  0  0  0  0  0  0  0  0  0  0  0
   30.9444   27.3664   48.5550 C   0  0  0  0  0  0  0  0  0  0  0  0
   32.2733   27.5076   48.2535 C   0  0  0  0  0  0  0  0  0  0  0  0
   32.6458   26.8902   47.1171 C   0  0  0  0  0  0  0  0  0  0  0  0
   31.8013   26.1968   46.3465 N   0  0  0  0  0  0  0  0  0  0  0  0
   30.5095   26.0540   46.6351 C   0  0  0  0  0  0  0  0  0  0  0  0
   30.0623   26.6379   47.7448 N   0  0  0  0  0  0  0  0  0  0  0  0
   30.3343   27.9996   49.7856 C   0  0  0  0  0  0  0  0  0  0  0  0
   28.9860   28.3966   49.8173 C   0  0  0  0  0  0  0  0  0  0  0  0
   29.3139   27.0302   50.4237 C   0  0  0  0  0  0  0  0  0  0  0  0
   34.5761   28.3676   48.6269 C   0  0  0  0  0  0  0  0  0  0  0  0
   35.5232   30.7989   47.6459 F   0  0  0  0  0  0  0  0  0  0  0  0
   35.9012   30.3338   48.8560 C   0  0  0  0  0  0  0  0  0  0  0  0
   35.4703   29.1211   49.4230 C   0  0  0  0  0  0  0  0  0  0  0  0
   35.9678   28.8396   50.6376 C   0  0  0  0  0  0  0  0  0  0  0  0
   36.8305   29.6403   51.3172 C   0  0  0  0  0  0  0  0  0  0  0  0
   37.2611   30.8560   50.7528 C   0  0  0  0  0  0  0  0  0  0  0  0
   36.7710   31.1591   49.5171 C   0  0  0  0  0  0  0  0  0  0  0  0
   37.2469   32.3808   48.9894 O   0  0  0  0  0  0  0  0  0  0  0  0
   38.5029   32.2597   48.3593 C   0  0  0  0  0  0  0  0  0  0  0  0
   39.2158   33.3013   48.4667 O   0  0  0  0  0  0  0  0  0  0  0  0
   39.1600   31.2372   47.6263 N   0  0  0  0  0  0  0  0  0  0  0  0
   32.7512   29.2524   49.2961 H   0  0  0  0  0  0  0  0  0  0  0  0
   33.1940   27.7426   50.0992 H   0  0  0  0  0  0  0  0  0  0  0  0
   33.6627   26.9071   46.7371 H   0  0  0  0  0  0  0  0  0  0  0  0
   29.7322   25.5255   46.1029 H   0  0  0  0  0  0  0  0  0  0  0  0
   31.0721   28.5057   50.4086 H   0  0  0  0  0  0  0  0  0  0  0  0
   28.6709   29.2140   50.4989 H   0  0  0  0  0  0  0  0  0  0  0  0
   28.3640   28.3822   48.8890 H   0  0  0  0  0  0  0  0  0  0  0  0
   29.2705   27.0370   51.5388 H   0  0  0  0  0  0  0  0  0  0  0  0
   28.9528   26.1749   49.8707 H   0  0  0  0  0  0  0  0  0  0  0  0
   34.9763   27.3075   48.5816 H   0  0  0  0  0  0  0  0  0  0  0  0
   34.5220   28.6483   47.5553 H   0  0  0  0  0  0  0  0  0  0  0  0
   35.6064   27.8807   51.0434 H   0  0  0  0  0  0  0  0  0  0  0  0
   37.1279   29.2565   52.2823 H   0  0  0  0  0  0  0  0  0  0  0  0
   40.1980   31.1015   47.6627 H   0  0  0  0  0  0  0  0  0  0  0  0
   40.1980   31.1007   47.6620 H   0  0  0  0  0  0  0  0  0  0  0  0
   38.1577   31.6043   51.6137 C   0  0  0  0  0  0  0  0  0  0  0  0
   38.6780   31.3221   52.8583 C   0  0  0  0  0  0  0  0  0  0  0  0
   38.4836   30.4569   53.4441 H   0  0  0  0  0  0  0  0  0  0  0  0
   39.5429   32.2987   53.2999 C   0  0  0  0  0  0  0  0  0  0  0  0
   40.1015   32.3700   54.2163 H   0  0  0  0  0  0  0  0  0  0  0  0
   39.5280   33.1763   52.2830 N   0  0  0  0  0  0  0  0  0  0  0  0
   40.0485   34.0829   52.1887 H   0  0  0  0  0  0  0  0  0  0  0  0
   38.7314   32.7795   51.3100 N   0  0  0  0  0  0  0  0  0  0  0  0
  2  8  1  0
  3  2  1  0
  3  1  1  0
  4  3  2  0
  5  6  2  0
  5  4  1  0
  6  7  1  0
  7  2  2  0
  8  9  1  0
  8 10  1  0
  9 10  1  0
 11  1  1  0
 11 14  1  0
 12 13  1  0
 13 14  2  0
 13 18  1  0
 14 15  1  0
 15 16  2  0
 17 16  1  0
 18 17  2  0
 19 18  1  0
 20 21  2  0
 20 19  1  0
 22 20  1  0
  1 23  1  0
  1 24  1  0
  4 25  1  0
  6 26  1  0
  8 27  1  0
  9 28  1  0
  9 29  1  0
 10 30  1  0
 10 31  1  0
 11 32  1  0
 11 33  1  0
 15 34  1  0
 16 35  1  0
 22 36  1  0
 22 37  1  0
 38 39  1  0
 39 40  1  0
 39 41  2  0
 41 42  1  0
 41 43  1  0
 43 44  1  0
 43 45  1  0
 45 38  2  0
 17 38  1  0
M  ISO  8  23   8  24   8  25  14  26  14  27  13  28  13  29  13  30  13
M  ISO  8  31  13  32   8  33   8  34  14  35  14  40  15  42  16  44   5
M  END
>  <DihAtoms>  (1) 
15,16,37,38

>  <DihDeg>  (1) 
-163.33607907074037

$$$$
