
     RDKit          3D

 43 46  0  0  0  0  0  0  0  0999 V2000
   34.8245   28.3677   49.4289 C   0  0  0  0  0  0  0  0  0  0  0  0
   33.5904   28.3107   48.5648 C   0  0  0  0  0  0  0  0  0  0  0  0
   33.6788   28.6923   47.1706 C   0  0  0  0  0  0  0  0  0  0  0  0
   32.0130   28.4486   46.6472 S   0  0  0  0  0  0  0  0  0  0  0  0
   31.3983   27.8739   48.3243 C   0  0  0  0  0  0  0  0  0  0  0  0
   32.4091   27.9410   48.9535 N   0  0  0  0  0  0  0  0  0  0  0  0
   30.0817   27.4557   48.7808 N   0  0  0  0  0  0  0  0  0  0  0  0
   29.2484   26.8385   47.7939 C   0  0  0  0  0  0  0  0  0  0  0  0
   27.7981   26.7983   48.1556 C   0  0  0  0  0  0  0  0  0  0  0  0
   27.4824   27.5473   49.3749 N   0  0  0  0  0  0  0  0  0  0  0  0
   28.3799   27.0297   50.3927 C   0  0  0  0  0  0  0  0  0  0  0  0
   29.7160   27.6831   50.1503 C   0  0  0  0  0  0  0  0  0  0  0  0
   34.9447   29.6657   50.1160 C   0  0  0  0  0  0  0  0  0  0  0  0
   37.5212   32.2796   49.5535 C   0  0  0  0  0  0  0  0  0  0  0  0
   38.2944   31.7544   48.5217 C   0  0  0  0  0  0  0  0  0  0  0  0
   37.9180   30.5042   48.0318 C   0  0  0  0  0  0  0  0  0  0  0  0
   36.8429   29.8801   48.5739 N   0  0  0  0  0  0  0  0  0  0  0  0
   36.1331   30.4419   49.5736 C   0  0  0  0  0  0  0  0  0  0  0  0
   36.4658   31.6234   50.0571 N   0  0  0  0  0  0  0  0  0  0  0  0
   34.7953   27.5537   50.1837 H   0  0  0  0  0  0  0  0  0  0  0  0
   35.7242   28.1792   48.8075 H   0  0  0  0  0  0  0  0  0  0  0  0
   34.5471   29.0194   46.6715 H   0  0  0  0  0  0  0  0  0  0  0  0
   29.3537   27.4202   46.8542 H   0  0  0  0  0  0  0  0  0  0  0  0
   29.6151   25.8156   47.5285 H   0  0  0  0  0  0  0  0  0  0  0  0
   27.1222   27.0934   47.3402 H   0  0  0  0  0  0  0  0  0  0  0  0
   27.5363   25.7428   48.4084 H   0  0  0  0  0  0  0  0  0  0  0  0
   27.7549   28.5391   49.1759 H   0  0  0  0  0  0  0  0  0  0  0  0
   28.5304   25.9341   50.3272 H   0  0  0  0  0  0  0  0  0  0  0  0
   27.9882   27.3731   51.3746 H   0  0  0  0  0  0  0  0  0  0  0  0
   29.5823   28.7761   50.2757 H   0  0  0  0  0  0  0  0  0  0  0  0
   30.4378   27.3529   50.8965 H   0  0  0  0  0  0  0  0  0  0  0  0
   35.1195   29.5404   51.2170 H   0  0  0  0  0  0  0  0  0  0  0  0
   34.0333   30.2884   49.9903 H   0  0  0  0  0  0  0  0  0  0  0  0
   37.7941   33.2585   49.9564 H   0  0  0  0  0  0  0  0  0  0  0  0
   39.1494   32.2599   48.0966 H   0  0  0  0  0  0  0  0  0  0  0  0
   38.6358   29.8353   46.9544 C   0  0  0  0  0  0  0  0  0  0  0  0
   39.4891   28.7567   47.1601 C   0  0  0  0  0  0  0  0  0  0  0  0
   39.7098   28.3042   48.1240 H   0  0  0  0  0  0  0  0  0  0  0  0
   40.0163   28.3481   45.9340 C   0  0  0  0  0  0  0  0  0  0  0  0
   40.7117   27.5163   45.8542 H   0  0  0  0  0  0  0  0  0  0  0  0
   39.4657   29.1928   45.0214 N   0  0  0  0  0  0  0  0  0  0  0  0
   39.7123   29.0819   44.0270 H   0  0  0  0  0  0  0  0  0  0  0  0
   38.6788   30.0347   45.6328 N   0  0  0  0  0  0  0  0  0  0  0  0
  1 13  1  0
  2  6  1  0
  2  1  1  0
  3  2  2  0
  4  3  1  0
  4  5  1  0
  5  7  1  0
  5  6  2  0
  7 12  1  0
  8  9  1  0
  8  7  1  0
  9 10  1  0
 10 11  1  0
 12 11  1  0
 14 19  2  0
 15 14  1  0
 16 15  2  0
 16 17  1  0
 17 18  2  0
 18 19  1  0
 18 13  1  0
  1 20  1  0
  1 21  1  0
  3 22  1  0
  8 23  1  0
  8 24  1  0
  9 25  1  0
  9 26  1  0
 10 27  1  0
 11 28  1  0
 11 29  1  0
 12 30  1  0
 12 31  1  0
 13 32  1  0
 13 33  1  0
 14 34  1  0
 15 35  1  0
 36 37  1  0
 37 38  1  0
 37 39  2  0
 39 40  1  0
 39 41  1  0
 41 42  1  0
 41 43  1  0
 43 36  2  0
 16 36  1  0
M  ISO  8  20   8  21   8  22  14  23  13  24  13  25  13  26  13  27   5
M  ISO  8  28  13  29  13  30  13  31  13  32   8  33   8  34  14  35  14
M  ISO  3  38  15  40  16  42   5
M  END
>  <DihAtoms>  (1) 
14,15,35,36

>  <DihDeg>  (1) 
-0.0009960189974520103

$$$$
