
     RDKit          3D

 36 39  0  0  1  0  0  0  0  0999 V2000
   36.8760   31.8270   43.6230 C   0  0  1  0  0  0  0  0  0  0  0  0
   35.5710   31.2390   43.6630 C   0  0  0  0  0  0  0  0  0  0  0  0
   36.6740   30.4720   44.3790 C   0  0  2  0  0  0  0  0  0  0  0  0
   34.0860   29.5610   45.8180 Cl  0  0  0  0  0  0  0  0  0  0  0  0
   35.5060   30.1150   46.6550 C   0  0  0  0  0  0  0  0  0  0  0  0
   36.5290   30.5240   45.8310 C   0  0  0  0  0  0  0  0  0  0  0  0
   37.6630   30.9880   46.4770 C   0  0  0  0  0  0  0  0  0  0  0  0
   37.7680   31.0410   47.8730 C   0  0  0  0  0  0  0  0  0  0  0  0
   36.6790   30.6060   48.6610 C   0  0  0  0  0  0  0  0  0  0  0  0
   36.6730   30.6560   50.4080 Cl  0  0  0  0  0  0  0  0  0  0  0  0
   35.5360   30.1370   48.0070 C   0  0  0  0  0  0  0  0  0  0  0  0
   37.1320   31.7980   41.0460 C   0  0  0  0  0  0  0  0  0  0  0  0
   37.7070   31.7440   42.3810 C   0  0  0  0  0  0  0  0  0  0  0  0
   39.0500   31.6660   42.5050 C   0  0  0  0  0  0  0  0  0  0  0  0
   39.8020   31.6380   41.3370 N   0  0  0  0  0  0  0  0  0  0  0  0
   39.2490   31.6870   40.1140 C   0  0  0  0  0  0  0  0  0  0  0  0
   37.9250   31.7680   39.9790 N   0  0  0  0  0  0  0  0  0  0  0  0
   40.0380   31.6310   38.9410 N   0  0  0  0  0  0  0  0  0  0  0  0
   39.9250   31.6200   43.6550 C   0  0  0  0  0  0  0  0  0  0  0  0
   40.1950   32.7500   44.4360 C   0  0  0  0  0  0  0  0  0  0  0  0
   41.0220   32.4690   45.5030 C   0  0  0  0  0  0  0  0  0  0  0  0
   41.2530   31.1530   45.3620 N   0  0  0  0  0  0  0  0  0  0  0  0
   40.6290   30.6930   44.3190 N   0  0  0  0  0  0  0  0  0  0  0  0
   37.2433   32.8354   43.8643 H   0  0  0  0  0  0  0  0  0  0  0  0
   34.7797   31.7229   44.2544 H   0  0  0  0  0  0  0  0  0  0  0  0
   34.8435   30.9638   42.8852 H   0  0  0  0  0  0  0  0  0  0  0  0
   37.1613   29.4862   44.3503 H   0  0  0  0  0  0  0  0  0  0  0  0
   38.5148   31.3283   45.8699 H   0  0  0  0  0  0  0  0  0  0  0  0
   38.6859   31.4162   48.3491 H   0  0  0  0  0  0  0  0  0  0  0  0
   34.6685   29.7889   48.5869 H   0  0  0  0  0  0  0  0  0  0  0  0
   36.0413   31.8636   40.9191 H   0  0  0  0  0  0  0  0  0  0  0  0
   39.5881   31.6705   38.0153 H   0  0  0  0  0  0  0  0  0  0  0  0
   41.0624   31.5507   39.0127 H   0  0  0  0  0  0  0  0  0  0  0  0
   39.7921   33.7510   44.2222 H   0  0  0  0  0  0  0  0  0  0  0  0
   41.3991   33.1528   46.2777 H   0  0  0  0  0  0  0  0  0  0  0  0
   41.8414   30.5886   45.9914 H   0  0  0  0  0  0  0  0  0  0  0  0
  1  2  1  0
  1  3  1  0
  2  3  1  0
  3  6  1  0
  4  5  1  0
  5 11  2  0
  6  7  2  0
  6  5  1  0
  7  8  1  0
  8  9  2  0
  9 10  1  0
 11  9  1  0
 12 13  2  0
 13 14  1  0
 13  1  1  0
 14 19  1  0
 15 14  2  0
 16 15  1  0
 17 16  2  0
 17 12  1  0
 18 16  1  0
 19 23  2  0
 19 20  1  0
 20 21  2  0
 22 21  1  0
 23 22  1  0
  1 24  1  1
  2 25  1  0
  2 26  1  0
  3 27  1  6
  7 28  1  0
  8 29  1  0
 11 30  1  0
 12 31  1  0
 18 32  1  0
 18 33  1  0
 20 34  1  0
 21 35  1  0
 22 36  1  0
M  ISO  8  24  13  25  13  26  13  27  13  28  14  29  14  30  14  31  14
M  ISO  3  34  14  35  14  36   9
M  END
>  <minimizedAffinity>  (1) 
-5.38509417

>  <minimizedRMSD>  (1) 
2.46934915

$$$$
