
     RDKit          3D

 44 48  0  0  1  0  0  0  0  0999 V2000
   35.8460   30.1370   46.9400 C   0  0  0  0  0  0  0  0  0  0  0  0
   36.8380   30.6340   47.7830 C   0  0  0  0  0  0  0  0  0  0  0  0
   37.8590   31.4250   47.2860 C   0  0  0  0  0  0  0  0  0  0  0  0
   37.8460   31.6940   45.9230 C   0  0  0  0  0  0  0  0  0  0  0  0
   38.7400   32.4400   45.2110 N   0  0  0  0  0  0  0  0  0  0  0  0
   38.3130   32.4090   43.9320 C   0  0  0  0  0  0  0  0  0  0  0  0
   37.2180   31.6910   43.8280 N   0  0  0  0  0  0  0  0  0  0  0  0
   36.8790   31.2160   45.0540 C   0  0  0  0  0  0  0  0  0  0  0  0
   35.8550   30.4190   45.5800 C   0  0  0  0  0  0  0  0  0  0  0  0
   37.5210   30.1550   51.4440 C   0  0  0  0  0  0  0  0  0  0  0  0
   37.7210   30.5510   50.1230 C   0  0  0  0  0  0  0  0  0  0  0  0
   36.7380   30.2750   49.1800 C   0  0  0  0  0  0  0  0  0  0  0  0
   35.6230   29.6260   49.6150 N   0  0  0  0  0  0  0  0  0  0  0  0
   35.4330   29.2470   50.8860 C   0  0  0  0  0  0  0  0  0  0  0  0
   36.3680   29.5090   51.7850 N   0  0  0  0  0  0  0  0  0  0  0  0
   39.0060   33.0820   42.9170 O   0  0  0  0  0  0  0  0  0  0  0  0
   39.4970   30.8920   42.4970 N   0  0  0  0  0  0  0  0  0  0  0  0
   39.6800   32.2620   41.9720 C   0  0  1  0  0  0  0  0  0  0  0  0
   39.0790   32.3370   40.6460 C   0  0  0  0  0  0  0  0  0  0  0  0
   39.7930   31.4860   39.7820 O   0  0  0  0  0  0  0  0  0  0  0  0
   39.8810   30.1890   40.1860 C   0  0  0  0  0  0  0  0  0  0  0  0
   40.2860   30.0440   41.6320 C   0  0  2  0  0  0  0  0  0  0  0  0
   39.9290   28.6290   42.0070 C   0  0  0  0  0  0  0  0  0  0  0  0
   39.2060   28.1470   43.0920 C   0  0  0  0  0  0  0  0  0  0  0  0
   39.1580   26.7600   42.9820 C   0  0  0  0  0  0  0  0  0  0  0  0
   39.8270   26.4270   41.8720 N   0  0  0  0  0  0  0  0  0  0  0  0
   40.2870   27.5340   41.2890 N   0  0  0  0  0  0  0  0  0  0  0  0
   35.0434   29.5117   47.3581 H   0  0  0  0  0  0  0  0  0  0  0  0
   38.6470   31.8236   47.9419 H   0  0  0  0  0  0  0  0  0  0  0  0
   39.5710   32.9271   45.5758 H   0  0  0  0  0  0  0  0  0  0  0  0
   35.0669   30.0209   44.9239 H   0  0  0  0  0  0  0  0  0  0  0  0
   38.2867   30.3615   52.2063 H   0  0  0  0  0  0  0  0  0  0  0  0
   38.6434   31.0744   49.8308 H   0  0  0  0  0  0  0  0  0  0  0  0
   34.5105   28.7242   51.1788 H   0  0  0  0  0  0  0  0  0  0  0  0
   39.8339   30.8298   43.4684 H   0  0  0  0  0  0  0  0  0  0  0  0
   40.7293   32.5717   41.8573 H   0  0  0  0  0  0  0  0  0  0  0  0
   38.0278   32.0168   40.6967 H   0  0  0  0  0  0  0  0  0  0  0  0
   39.1183   33.3711   40.2729 H   0  0  0  0  0  0  0  0  0  0  0  0
   38.8992   29.7124   40.0483 H   0  0  0  0  0  0  0  0  0  0  0  0
   40.6618   29.7090   39.5777 H   0  0  0  0  0  0  0  0  0  0  0  0
   41.3491   30.3033   41.7445 H   0  0  0  0  0  0  0  0  0  0  0  0
   38.7540   28.7516   43.8921 H   0  0  0  0  0  0  0  0  0  0  0  0
   38.6625   26.0670   43.6779 H   0  0  0  0  0  0  0  0  0  0  0  0
   39.9647   25.4676   41.5234 H   0  0  0  0  0  0  0  0  0  0  0  0
  1  2  2  0
  2 12  1  0
  3  2  1  0
  4  3  2  0
  5  4  1  0
  6  5  1  0
  7  6  2  0
  7  8  1  0
  8  9  2  0
  8  4  1  0
  9  1  1  0
 10 15  2  0
 11 10  1  0
 12 13  1  0
 12 11  2  0
 13 14  2  0
 14 15  1  0
 16  6  1  0
 18 17  1  0
 18 16  1  0
 19 18  1  0
 20 21  1  0
 20 19  1  0
 21 22  1  0
 22 23  1  0
 22 17  1  0
 23 24  1  0
 25 24  2  0
 26 25  1  0
 27 26  1  0
 27 23  2  0
  1 28  1  0
  3 29  1  0
  5 30  1  0
  9 31  1  0
 10 32  1  0
 11 33  1  0
 14 34  1  0
 17 35  1  0
 18 36  1  6
 19 37  1  0
 19 38  1  0
 21 39  1  0
 21 40  1  0
 22 41  1  6
 24 42  1  0
 25 43  1  0
 26 44  1  0
M  ISO  8  28  14  29  14  30   9  31  14  32  14  33  14  34  14  35   5
M  ISO  8  36  13  37  13  38  13  39  13  40  13  41  13  42  14  43  14
M  ISO  1  44   9
M  END
>  <minimizedAffinity>  (1) 
-6.14014626

>  <minimizedRMSD>  (1) 
1.5499934

$$$$
