
     RDKit          3D

 40 43  0  0  0  0  0  0  0  0999 V2000
   34.0017   28.8172   48.2998 C   0  0  0  0  0  0  0  0  0  0  0  0
   34.6253   28.3690   49.4087 C   0  0  0  0  0  0  0  0  0  0  0  0
   35.8554   28.7994   49.8548 C   0  0  0  0  0  0  0  0  0  0  0  0
   36.5369   29.7552   49.1518 C   0  0  0  0  0  0  0  0  0  0  0  0
   35.9037   30.2251   48.0068 C   0  0  0  0  0  0  0  0  0  0  0  0
   34.6955   29.7747   47.6054 N   0  0  0  0  0  0  0  0  0  0  0  0
   31.9096   27.4875   48.5507 C   0  0  0  0  0  0  0  0  0  0  0  0
   32.7285   28.3621   47.8395 C   0  0  0  0  0  0  0  0  0  0  0  0
   32.2522   28.7902   46.6194 C   0  0  0  0  0  0  0  0  0  0  0  0
   31.0409   28.3593   46.1662 N   0  0  0  0  0  0  0  0  0  0  0  0
   30.2855   27.5083   46.8989 C   0  0  0  0  0  0  0  0  0  0  0  0
   30.7085   27.0569   48.1069 N   0  0  0  0  0  0  0  0  0  0  0  0
   37.7716   30.3070   49.4399 O   0  0  0  0  0  0  0  0  0  0  0  0
   38.3621   31.2719   48.6431 C   0  0  0  0  0  0  0  0  0  0  0  0
   38.4557   32.5105   49.2359 C   0  0  0  0  0  0  0  0  0  0  0  0
   39.0687   33.3593   48.3071 C   0  0  0  0  0  0  0  0  0  0  0  0
   39.3140   32.6240   47.2234 N   0  0  0  0  0  0  0  0  0  0  0  0
   38.9051   31.4023   47.4086 N   0  0  0  0  0  0  0  0  0  0  0  0
   39.9485   33.1127   46.0041 C   0  0  0  0  0  0  0  0  0  0  0  0
   40.6600   31.9294   45.3681 C   0  0  0  0  0  0  0  0  0  0  0  0
   34.1575   27.6032   50.0365 H   0  0  0  0  0  0  0  0  0  0  0  0
   36.3539   28.4344   50.7500 H   0  0  0  0  0  0  0  0  0  0  0  0
   36.3468   30.9818   47.3712 H   0  0  0  0  0  0  0  0  0  0  0  0
   32.2427   27.1241   49.5159 H   0  0  0  0  0  0  0  0  0  0  0  0
   32.8085   29.4760   45.9769 H   0  0  0  0  0  0  0  0  0  0  0  0
   29.3366   27.1537   46.5732 H   0  0  0  0  0  0  0  0  0  0  0  0
   38.1787   32.9504   50.2011 H   0  0  0  0  0  0  0  0  0  0  0  0
   39.3201   34.4092   48.3910 H   0  0  0  0  0  0  0  0  0  0  0  0
   40.7205   33.8472   46.3118 H   0  0  0  0  0  0  0  0  0  0  0  0
   39.2415   33.5887   45.3263 H   0  0  0  0  0  0  0  0  0  0  0  0
   39.8368   31.1998   45.1135 H   0  0  0  0  0  0  0  0  0  0  0  0
   41.2817   31.3872   46.1052 H   0  0  0  0  0  0  0  0  0  0  0  0
   41.3549   32.2621   44.1189 C   0  0  0  0  0  0  0  0  0  0  0  0
   40.8537   33.2777   43.3212 C   0  0  0  0  0  0  0  0  0  0  0  0
   39.9761   33.9254   43.4539 H   0  0  0  0  0  0  0  0  0  0  0  0
   41.6500   33.4215   42.2110 C   0  0  0  0  0  0  0  0  0  0  0  0
   41.5926   34.0956   41.3648 H   0  0  0  0  0  0  0  0  0  0  0  0
   42.6327   32.4844   42.3487 N   0  0  0  0  0  0  0  0  0  0  0  0
   43.4043   32.3421   41.6541 H   0  0  0  0  0  0  0  0  0  0  0  0
   42.4285   31.8204   43.4820 N   0  0  0  0  0  0  0  0  0  0  0  0
  1  2  2  0
  2  3  1  0
  4 13  1  0
  4  3  2  0
  5  4  1  0
  6  5  2  0
  6  1  1  0
  8  1  1  0
  8  7  2  0
  9  8  1  0
 10  9  2  0
 10 11  1  0
 11 12  2  0
 12  7  1  0
 14 15  1  0
 14 13  1  0
 16 15  2  0
 17 18  1  0
 17 16  1  0
 18 14  2  0
 19 17  1  0
 20 19  1  0
  2 21  1  0
  3 22  1  0
  5 23  1  0
  7 24  1  0
  9 25  1  0
 11 26  1  0
 15 27  1  0
 16 28  1  0
 19 29  1  0
 19 30  1  0
 20 31  1  0
 20 32  1  0
 33 34  1  0
 34 35  1  0
 34 36  2  0
 36 37  1  0
 36 38  1  0
 38 39  1  0
 38 40  1  0
 40 33  2  0
 20 33  1  0
M  ISO  8  21  14  22  14  23  14  24  14  25  14  26  14  27  14  28  14
M  ISO  7  29   8  30   8  31   8  32   8  35  15  37  16  39   5
M  END
>  <DihAtoms>  (1) 
18,19,32,33

>  <DihDeg>  (1) 
90.0009259499596

$$$$
