
     RDKit          3D

 26 28  0  0  1  0  0  0  0  0999 V2000
   37.8600   32.1040   47.4590 C   0  0  2  0  0  0  0  0  0  0  0  0
   38.8450   30.9390   47.0520 C   0  0  0  0  0  0  0  0  0  0  0  0
   39.0460   32.4010   46.6810 C   0  0  1  0  0  0  0  0  0  0  0  0
   39.0020   32.6450   45.2230 C   0  0  0  0  0  0  0  0  0  0  0  0
   40.0280   33.0930   44.4040 C   0  0  0  0  0  0  0  0  0  0  0  0
   39.4650   33.1520   43.1230 C   0  0  0  0  0  0  0  0  0  0  0  0
   38.1810   32.7600   43.1920 N   0  0  0  0  0  0  0  0  0  0  0  0
   37.9050   32.4570   44.4460 N   0  0  0  0  0  0  0  0  0  0  0  0
   37.8490   32.2260   48.9440 C   0  0  0  0  0  0  0  0  0  0  0  0
   38.4950   33.1950   49.4750 O   0  0  0  0  0  0  0  0  0  0  0  0
   37.0560   29.7040   51.6070 C   0  0  0  0  0  0  0  0  0  0  0  0
   37.6980   30.6650   50.8440 C   0  0  0  0  0  0  0  0  0  0  0  0
   37.1260   31.2560   49.7280 C   0  0  0  0  0  0  0  0  0  0  0  0
   35.9000   30.8430   49.4200 N   0  0  0  0  0  0  0  0  0  0  0  0
   35.2620   29.8960   50.1690 C   0  0  0  0  0  0  0  0  0  0  0  0
   35.8150   29.3390   51.2290 N   0  0  0  0  0  0  0  0  0  0  0  0
   36.8200   32.4309   47.3126 H   0  0  0  0  0  0  0  0  0  0  0  0
   39.4865   30.4573   47.8047 H   0  0  0  0  0  0  0  0  0  0  0  0
   38.7754   29.9786   46.5202 H   0  0  0  0  0  0  0  0  0  0  0  0
   39.8076   33.1785   46.8404 H   0  0  0  0  0  0  0  0  0  0  0  0
   41.0577   33.3463   44.6965 H   0  0  0  0  0  0  0  0  0  0  0  0
   39.9886   33.4679   42.2086 H   0  0  0  0  0  0  0  0  0  0  0  0
   37.5243   32.7055   42.4004 H   0  0  0  0  0  0  0  0  0  0  0  0
   37.5401   29.2560   52.4873 H   0  0  0  0  0  0  0  0  0  0  0  0
   38.7118   30.9746   51.1379 H   0  0  0  0  0  0  0  0  0  0  0  0
   34.2478   29.5858   49.8771 H   0  0  0  0  0  0  0  0  0  0  0  0
  1  9  1  0
  2  1  1  0
  3  2  1  0
  3  1  1  0
  4  3  1  0
  5  4  1  0
  6  7  1  0
  6  5  2  0
  7  8  1  0
  8  4  2  0
  9 10  2  0
  9 13  1  0
 12 11  2  0
 13 12  1  0
 14 13  2  0
 14 15  1  0
 15 16  2  0
 16 11  1  0
  1 17  1  6
  2 18  1  0
  2 19  1  0
  3 20  1  1
  5 21  1  0
  6 22  1  0
  7 23  1  0
 11 24  1  0
 12 25  1  0
 15 26  1  0
M  ISO  8  17  13  18  13  19  13  20  13  21  14  22  14  23   9  24  14
M  ISO  2  25  14  26  14
M  END
>  <minimizedAffinity>  (1) 
-5.37470198

>  <minimizedRMSD>  (1) 
0.669064164

$$$$
