
     RDKit          3D

 24 26  0  0  0  0  0  0  0  0999 V2000
   37.7190   31.5590   47.4570 C   0  0  0  0  0  0  0  0  0  0  0  0
   36.9410   31.3410   48.5890 C   0  0  0  0  0  0  0  0  0  0  0  0
   37.2880   32.1440   49.6870 C   0  0  0  0  0  0  0  0  0  0  0  0
   38.2950   33.0380   49.6130 N   0  0  0  0  0  0  0  0  0  0  0  0
   39.0240   33.2160   48.4900 C   0  0  0  0  0  0  0  0  0  0  0  0
   38.7280   32.4690   47.4150 N   0  0  0  0  0  0  0  0  0  0  0  0
   37.3180   30.8060   46.2050 C   0  0  0  0  0  0  0  0  0  0  0  0
   37.6050   31.3200   44.8900 C   0  0  0  0  0  0  0  0  0  0  0  0
   38.5780   30.3130   45.4580 C   0  0  0  0  0  0  0  0  0  0  0  0
   35.8640   30.3940   48.7270 C   0  0  0  0  0  0  0  0  0  0  0  0
   36.0420   29.1420   49.2850 C   0  0  0  0  0  0  0  0  0  0  0  0
   34.8600   28.4430   49.2970 C   0  0  0  0  0  0  0  0  0  0  0  0
   33.9590   29.2690   48.7460 N   0  0  0  0  0  0  0  0  0  0  0  0
   34.5730   30.3770   48.4320 N   0  0  0  0  0  0  0  0  0  0  0  0
   36.7267   32.0419   50.6275 H   0  0  0  0  0  0  0  0  0  0  0  0
   39.8391   33.9540   48.4573 H   0  0  0  0  0  0  0  0  0  0  0  0
   36.3793   30.4135   46.6231 H   0  0  0  0  0  0  0  0  0  0  0  0
   37.9168   32.3686   44.7749 H   0  0  0  0  0  0  0  0  0  0  0  0
   37.0295   31.3753   43.9542 H   0  0  0  0  0  0  0  0  0  0  0  0
   38.6258   29.2909   45.0542 H   0  0  0  0  0  0  0  0  0  0  0  0
   39.6591   30.2701   45.6563 H   0  0  0  0  0  0  0  0  0  0  0  0
   36.9994   28.7581   49.6671 H   0  0  0  0  0  0  0  0  0  0  0  0
   34.6892   27.4249   49.6768 H   0  0  0  0  0  0  0  0  0  0  0  0
   32.9604   29.0654   48.5971 H   0  0  0  0  0  0  0  0  0  0  0  0
  1  2  1  0
  2 10  1  0
  2  3  2  0
  4  3  1  0
  5  4  2  0
  6  1  2  0
  6  5  1  0
  7  1  1  0
  8  9  1  0
  8  7  1  0
  9  7  1  0
 10 11  1  0
 11 12  2  0
 13 12  1  0
 14 10  2  0
 14 13  1  0
  3 15  1  0
  5 16  1  0
  7 17  1  0
  8 18  1  0
  8 19  1  0
  9 20  1  0
  9 21  1  0
 11 22  1  0
 12 23  1  0
 13 24  1  0
M  ISO  8  15  14  16  14  17  13  18  13  19  13  20  13  21  13  22  14
M  ISO  2  23  14  24   9
M  END
>  <minimizedAffinity>  (1) 
-4.77559376

>  <minimizedRMSD>  (1) 
4.30822849

$$$$
