
     RDKit          3D

 33 35  0  0  0  0  0  0  0  0999 V2000
   36.6840   29.4640   44.0640 Cl  0  0  0  0  0  0  0  0  0  0  0  0
   38.3360   29.8280   43.5250 C   0  0  0  0  0  0  0  0  0  0  0  0
   39.3200   30.3210   44.3850 C   0  0  0  0  0  0  0  0  0  0  0  0
   40.5660   30.5630   43.8420 C   0  0  0  0  0  0  0  0  0  0  0  0
   40.8290   30.3300   42.5170 C   0  0  0  0  0  0  0  0  0  0  0  0
   39.8790   29.8520   41.6770 C   0  0  0  0  0  0  0  0  0  0  0  0
   38.6270   29.6020   42.1870 C   0  0  0  0  0  0  0  0  0  0  0  0
   37.5630   29.0790   41.3020 C   0  0  0  0  0  0  0  0  0  0  0  0
   37.3760   27.7490   40.9940 C   0  0  0  0  0  0  0  0  0  0  0  0
   36.2840   27.7320   40.1490 C   0  0  0  0  0  0  0  0  0  0  0  0
   35.8320   28.9840   39.9540 N   0  0  0  0  0  0  0  0  0  0  0  0
   36.6140   29.7950   40.6570 N   0  0  0  0  0  0  0  0  0  0  0  0
   38.8780   30.4890   45.6630 O   0  0  0  0  0  0  0  0  0  0  0  0
   39.4530   32.5370   47.1210 O   0  0  0  0  0  0  0  0  0  0  0  0
   38.3210   31.8690   46.4300 P   0  0  1  0  0  0  0  0  0  0  0  0
   37.7310   32.8620   45.1750 O   0  0  0  0  0  0  0  0  0  0  0  0
   37.0530   31.4440   47.4720 O   0  0  0  0  0  0  0  0  0  0  0  0
   37.6140   30.5210   50.9980 C   0  0  0  0  0  0  0  0  0  0  0  0
   37.7140   31.3110   49.8360 C   0  0  0  0  0  0  0  0  0  0  0  0
   37.0880   30.8620   48.6750 C   0  0  0  0  0  0  0  0  0  0  0  0
   36.4060   29.6760   48.7270 N   0  0  0  0  0  0  0  0  0  0  0  0
   36.3330   28.9470   49.8600 C   0  0  0  0  0  0  0  0  0  0  0  0
   36.9350   29.3760   50.9800 N   0  0  0  0  0  0  0  0  0  0  0  0
   41.3668   30.9521   44.4880 H   0  0  0  0  0  0  0  0  0  0  0  0
   41.8362   30.5361   42.1258 H   0  0  0  0  0  0  0  0  0  0  0  0
   40.1036   29.6690   40.6158 H   0  0  0  0  0  0  0  0  0  0  0  0
   37.9667   26.8897   41.3443 H   0  0  0  0  0  0  0  0  0  0  0  0
   35.8476   26.8272   39.7009 H   0  0  0  0  0  0  0  0  0  0  0  0
   35.0305   29.2613   39.3696 H   0  0  0  0  0  0  0  0  0  0  0  0
   37.2660   33.6445   45.5643 H   0  0  0  0  0  0  0  0  0  0  0  0
   38.1005   30.8526   51.9271 H   0  0  0  0  0  0  0  0  0  0  0  0
   38.2724   32.2587   49.8450 H   0  0  0  0  0  0  0  0  0  0  0  0
   35.7779   27.9974   49.8657 H   0  0  0  0  0  0  0  0  0  0  0  0
  2  1  1  0
  2  3  2  0
  3 13  1  0
  4  3  1  0
  5  4  2  0
  6  7  2  0
  6  5  1  0
  7  2  1  0
  8  7  1  0
  9  8  1  0
 10  9  2  0
 11 10  1  0
 11 12  1  0
 12  8  2  0
 13 15  1  0
 15 14  2  0
 15 17  1  0
 16 15  1  0
 17 20  1  0
 19 18  2  0
 20 21  2  0
 20 19  1  0
 21 22  1  0
 22 23  2  0
 23 18  1  0
  4 24  1  0
  5 25  1  0
  6 26  1  0
  9 27  1  0
 10 28  1  0
 11 29  1  0
 16 30  1  0
 18 31  1  0
 19 32  1  0
 22 33  1  0
M  ISO  8  24  14  25  14  26  14  27  14  28  14  29   9  30   3  31  14
M  ISO  2  32  14  33  14
M  END
>  <minimizedAffinity>  (1) 
-4.8047514

>  <minimizedRMSD>  (1) 
0.334628224

$$$$
