
     RDKit          3D

 27 29  0  0  0  0  0  0  0  0999 V2000
   35.3670   30.0240   47.4070 C   0  0  0  0  0  0  0  0  0  0  0  0
   36.6740   30.5610   47.2250 C   0  0  0  0  0  0  0  0  0  0  0  0
   37.1020   30.7990   45.9140 C   0  0  0  0  0  0  0  0  0  0  0  0
   36.2620   30.5090   44.8730 N   0  0  0  0  0  0  0  0  0  0  0  0
   35.0260   29.9970   45.0900 C   0  0  0  0  0  0  0  0  0  0  0  0
   34.5880   29.7590   46.3470 N   0  0  0  0  0  0  0  0  0  0  0  0
   38.4080   31.3430   45.6230 C   0  0  0  0  0  0  0  0  0  0  0  0
   38.4800   32.6260   45.1510 C   0  0  0  0  0  0  0  0  0  0  0  0
   39.6930   33.2320   44.8540 C   0  0  0  0  0  0  0  0  0  0  0  0
   40.8470   32.4750   45.0560 C   0  0  0  0  0  0  0  0  0  0  0  0
   40.8360   31.1590   45.5350 C   0  0  0  0  0  0  0  0  0  0  0  0
   39.5770   30.6280   45.8070 C   0  0  0  0  0  0  0  0  0  0  0  0
   37.4020   30.7620   48.4390 C   0  0  0  0  0  0  0  0  0  0  0  0
   37.7030   32.0860   48.7820 C   0  0  0  0  0  0  0  0  0  0  0  0
   38.4210   32.0410   49.9830 C   0  0  0  0  0  0  0  0  0  0  0  0
   38.5320   30.7460   50.3230 N   0  0  0  0  0  0  0  0  0  0  0  0
   37.9340   29.9740   49.4200 N   0  0  0  0  0  0  0  0  0  0  0  0
   34.9942   29.8254   48.4227 H   0  0  0  0  0  0  0  0  0  0  0  0
   34.3721   29.7726   44.2344 H   0  0  0  0  0  0  0  0  0  0  0  0
   37.5493   33.1933   45.0027 H   0  0  0  0  0  0  0  0  0  0  0  0
   39.7420   34.2638   44.4760 H   0  0  0  0  0  0  0  0  0  0  0  0
   41.8187   32.9368   44.8266 H   0  0  0  0  0  0  0  0  0  0  0  0
   41.7605   30.5826   45.6865 H   0  0  0  0  0  0  0  0  0  0  0  0
   39.5102   29.5968   46.1839 H   0  0  0  0  0  0  0  0  0  0  0  0
   37.4280   32.9884   48.2162 H   0  0  0  0  0  0  0  0  0  0  0  0
   38.8183   32.9014   50.5415 H   0  0  0  0  0  0  0  0  0  0  0  0
   39.0130   30.3994   51.1653 H   0  0  0  0  0  0  0  0  0  0  0  0
  2  1  2  0
  2 13  1  0
  3  2  1  0
  4  5  1  0
  4  3  2  0
  5  6  2  0
  6  1  1  0
  7 12  1  0
  7  3  1  0
  8  7  2  0
  9 10  2  0
  9  8  1  0
 10 11  1  0
 11 12  2  0
 13 14  1  0
 13 17  2  0
 14 15  2  0
 15 16  1  0
 17 16  1  0
  1 18  1  0
  5 19  1  0
  8 20  1  0
  9 21  1  0
 10 22  1  0
 11 23  1  0
 12 24  1  0
 14 25  1  0
 15 26  1  0
 16 27  1  0
M  ISO  8  18  14  19  14  20  14  21  14  22  14  23  14  24  14  25  14
M  ISO  2  26  14  27   9
M  END
>  <minimizedAffinity>  (1) 
-5.83795071

>  <minimizedRMSD>  (1) 
3.45678067

$$$$
