
     RDKit          3D

 32 34  0  0  0  0  0  0  0  0999 V2000
   37.2623   29.6582   51.4081 C   0  0  0  0  0  0  0  0  0  0  0  0
   38.0001   30.1941   50.3504 C   0  0  0  0  0  0  0  0  0  0  0  0
   37.3925   30.6048   49.1517 C   0  0  0  0  0  0  0  0  0  0  0  0
   36.0640   30.4314   49.1338 N   0  0  0  0  0  0  0  0  0  0  0  0
   35.3454   29.9204   50.1376 C   0  0  0  0  0  0  0  0  0  0  0  0
   35.9450   29.5377   51.2654 N   0  0  0  0  0  0  0  0  0  0  0  0
   33.6328   28.6162   49.2056 C   0  0  0  0  0  0  0  0  0  0  0  0
   34.4074   27.6270   48.9229 O   0  0  0  0  0  0  0  0  0  0  0  0
   33.9568   29.8595   49.8264 N   0  0  0  0  0  0  0  0  0  0  0  0
   38.4228   33.3037   49.6911 Cl  0  0  0  0  0  0  0  0  0  0  0  0
   38.6813   32.4262   48.2153 C   0  0  0  0  0  0  0  0  0  0  0  0
   38.1535   31.1585   48.0582 C   0  0  0  0  0  0  0  0  0  0  0  0
   38.3936   30.5052   46.8551 C   0  0  0  0  0  0  0  0  0  0  0  0
   39.1312   31.0995   45.8549 C   0  0  0  0  0  0  0  0  0  0  0  0
   39.6426   32.3663   46.0472 C   0  0  0  0  0  0  0  0  0  0  0  0
   40.5615   33.0392   44.7311 Cl  0  0  0  0  0  0  0  0  0  0  0  0
   39.4210   33.0419   47.2327 C   0  0  0  0  0  0  0  0  0  0  0  0
   39.9550   34.3232   47.3904 O   0  0  0  0  0  0  0  0  0  0  0  0
   37.7680   29.3532   52.3163 H   0  0  0  0  0  0  0  0  0  0  0  0
   39.0678   30.3029   50.4389 H   0  0  0  0  0  0  0  0  0  0  0  0
   32.6704   28.2534   48.8469 H   0  0  0  0  0  0  0  0  0  0  0  0
   33.1661   30.4936   49.9475 H   0  0  0  0  0  0  0  0  0  0  0  0
   37.9642   29.5145   46.7693 H   0  0  0  0  0  0  0  0  0  0  0  0
   39.2912   30.5574   44.9426 H   0  0  0  0  0  0  0  0  0  0  0  0
   39.2703   35.4613   47.0322 C   0  0  0  0  0  0  0  0  0  0  0  0
   37.8967   35.3407   46.7985 C   0  0  0  0  0  0  0  0  0  0  0  0
   37.2255   34.4970   46.8426 H   0  0  0  0  0  0  0  0  0  0  0  0
   37.3931   36.5238   46.4652 N   0  0  0  0  0  0  0  0  0  0  0  0
   36.4490   36.9049   46.2110 H   0  0  0  0  0  0  0  0  0  0  0  0
   38.4141   37.4234   46.4755 C   0  0  0  0  0  0  0  0  0  0  0  0
   38.4293   38.5023   46.2608 H   0  0  0  0  0  0  0  0  0  0  0  0
   39.5159   36.7663   46.8150 N   0  0  0  0  0  0  0  0  0  0  0  0
  2  1  2  0
  3  2  1  0
  4  3  2  0
  4  5  1  0
  5  6  2  0
  6  1  1  0
  7  9  1  0
  8  7  2  0
  9  5  1  0
 11 10  1  0
 12 11  2  0
 12  3  1  0
 13 12  1  0
 14 15  1  0
 14 13  2  0
 15 17  2  0
 16 15  1  0
 17 18  1  0
 17 11  1  0
  1 19  1  0
  2 20  1  0
  7 21  1  0
  9 22  1  0
 13 23  1  0
 14 24  1  0
 25 26  2  0
 26 27  1  0
 26 28  1  0
 28 29  1  0
 28 30  1  0
 30 31  1  0
 30 32  2  0
 32 25  1  0
 18 25  1  0
M  ISO  8  19  14  20  14  21   6  23  14  24  14  27  15  29   5  31  14
M  END
>  <DihAtoms>  (1) 
16,17,24,25

>  <DihDeg>  (1) 
179.9992441315307

$$$$
