
     RDKit          3D

 41 44  0  0  0  0  0  0  0  0999 V2000
   37.1000   29.8363   47.0910 C   0  0  0  0  0  0  0  0  0  0  0  0
   34.7035   30.0054   47.5943 C   0  0  0  0  0  0  0  0  0  0  0  0
   35.7399   30.0272   46.7029 C   0  0  0  0  0  0  0  0  0  0  0  0
   35.3334   30.1813   45.4190 C   0  0  0  0  0  0  0  0  0  0  0  0
   34.0605   30.2988   45.0426 N   0  0  0  0  0  0  0  0  0  0  0  0
   33.0610   30.2745   45.9059 C   0  0  0  0  0  0  0  0  0  0  0  0
   33.3674   30.1269   47.1960 N   0  0  0  0  0  0  0  0  0  0  0  0
   34.9602   30.0022   49.0971 C   0  0  0  0  0  0  0  0  0  0  0  0
   34.0073   29.6318   50.0333 C   0  0  0  0  0  0  0  0  0  0  0  0
   34.8713   28.4776   49.5461 C   0  0  0  0  0  0  0  0  0  0  0  0
   38.0659   30.9071   46.7531 C   0  0  0  0  0  0  0  0  0  0  0  0
   39.5806   33.1239   46.0636 F   0  0  0  0  0  0  0  0  0  0  0  0
   39.1606   32.9283   47.3403 C   0  0  0  0  0  0  0  0  0  0  0  0
   38.3883   31.8433   47.7807 C   0  0  0  0  0  0  0  0  0  0  0  0
   38.0876   31.8330   49.1009 C   0  0  0  0  0  0  0  0  0  0  0  0
   38.4775   32.7890   49.9732 C   0  0  0  0  0  0  0  0  0  0  0  0
   39.2417   33.8618   49.5311 C   0  0  0  0  0  0  0  0  0  0  0  0
   39.5872   33.9187   48.1842 C   0  0  0  0  0  0  0  0  0  0  0  0
   40.3710   34.9978   47.7948 O   0  0  0  0  0  0  0  0  0  0  0  0
   37.1726   29.5712   48.1659 H   0  0  0  0  0  0  0  0  0  0  0  0
   37.4536   28.8859   46.5782 H   0  0  0  0  0  0  0  0  0  0  0  0
   36.0495   30.2202   44.5821 H   0  0  0  0  0  0  0  0  0  0  0  0
   32.0523   30.3690   45.5840 H   0  0  0  0  0  0  0  0  0  0  0  0
   35.8708   30.4085   49.4601 H   0  0  0  0  0  0  0  0  0  0  0  0
   32.9249   29.5664   49.7072 H   0  0  0  0  0  0  0  0  0  0  0  0
   34.0698   29.8117   51.1010 H   0  0  0  0  0  0  0  0  0  0  0  0
   34.4129   27.7696   48.8797 H   0  0  0  0  0  0  0  0  0  0  0  0
   35.6898   28.1210   50.1605 H   0  0  0  0  0  0  0  0  0  0  0  0
   39.0075   30.4748   46.3541 H   0  0  0  0  0  0  0  0  0  0  0  0
   37.6433   31.4811   45.8757 H   0  0  0  0  0  0  0  0  0  0  0  0
   37.5914   31.0179   49.5360 H   0  0  0  0  0  0  0  0  0  0  0  0
   38.1993   32.7364   51.0405 H   0  0  0  0  0  0  0  0  0  0  0  0
   39.4990   34.5666   50.2979 H   0  0  0  0  0  0  0  0  0  0  0  0
   40.9031   36.0346   48.3945 C   0  0  0  0  0  0  0  0  0  0  0  0
   41.9056   36.6736   49.0675 C   0  0  0  0  0  0  0  0  0  0  0  0
   42.7837   36.0865   49.2580 H   0  0  0  0  0  0  0  0  0  0  0  0
   41.5430   37.9331   49.3421 N   0  0  0  0  0  0  0  0  0  0  0  0
   42.2672   38.4830   49.8589 H   0  0  0  0  0  0  0  0  0  0  0  0
   40.3237   38.1409   48.8659 C   0  0  0  0  0  0  0  0  0  0  0  0
   39.9723   39.1645   49.0635 H   0  0  0  0  0  0  0  0  0  0  0  0
   39.9253   36.9873   48.2858 N   0  0  0  0  0  0  0  0  0  0  0  0
  2  8  1  0
  3  1  1  0
  3  2  1  0
  4  3  2  0
  5  4  1  0
  5  6  2  0
  6  7  1  0
  7  2  2  0
  8 10  1  0
  8  9  1  0
 10  9  1  0
 11  1  1  0
 11 14  1  0
 12 13  1  0
 13 14  2  0
 13 18  1  0
 14 15  1  0
 15 16  2  0
 17 16  1  0
 18 17  2  0
 19 18  1  0
  1 20  1  0
  1 21  1  0
  4 22  1  0
  6 23  1  0
  8 24  1  0
  9 25  1  0
  9 26  1  0
 10 27  1  0
 10 28  1  0
 11 29  1  0
 11 30  1  0
 15 31  1  0
 16 32  1  0
 17 33  1  0
 34 35  2  0
 35 36  1  0
 35 37  1  0
 37 38  1  0
 37 39  1  0
 39 40  1  0
 39 41  2  0
 41 34  1  0
 19 34  1  0
M  ISO  8  20   8  21   8  22  14  23  14  24  13  25  13  26  13  27  13
M  ISO  8  28  13  29   8  30   8  31  14  32  14  33  14  36  15  38   5
M  ISO  1  40  14
M  END
>  <DihAtoms>  (1) 
17,18,33,34

>  <DihDeg>  (1) 
0.05214757847398824

$$$$
