
     RDKit          3D

 23 24  0  0  0  0  0  0  0  0999 V2000
   35.4800   30.1400   46.6170 O   0  0  0  0  0  0  0  0  0  0  0  0
   34.2100   29.9910   47.4140 P   0  0  2  0  0  0  0  0  0  0  0  0
   33.0720   31.0170   46.6810 O   0  0  0  0  0  0  0  0  0  0  0  0
   34.4140   30.4650   49.0530 O   0  0  0  0  0  0  0  0  0  0  0  0
   35.6390   30.4060   49.6830 C   0  0  0  0  0  0  0  0  0  0  0  0
   36.0720   29.3780   50.5460 C   0  0  0  0  0  0  0  0  0  0  0  0
   37.3370   29.4710   51.0980 C   0  0  0  0  0  0  0  0  0  0  0  0
   38.1110   30.5430   50.7920 N   0  0  0  0  0  0  0  0  0  0  0  0
   37.6760   31.5260   49.9560 C   0  0  0  0  0  0  0  0  0  0  0  0
   36.4340   31.4460   49.4060 N   0  0  0  0  0  0  0  0  0  0  0  0
   33.6450   28.3990   47.4500 O   0  0  0  0  0  0  0  0  0  0  0  0
   32.2970   28.1390   47.6610 C   0  0  0  0  0  0  0  0  0  0  0  0
   31.0990   28.1060   46.9760 C   0  0  0  0  0  0  0  0  0  0  0  0
   30.1290   27.7560   47.8390 N   0  0  0  0  0  0  0  0  0  0  0  0
   30.6890   27.5650   49.0600 C   0  0  0  0  0  0  0  0  0  0  0  0
   32.0290   27.8010   48.9570 N   0  0  0  0  0  0  0  0  0  0  0  0
   32.5517   31.4861   47.3806 H   0  0  0  0  0  0  0  0  0  0  0  0
   35.4193   28.5226   50.7747 H   0  0  0  0  0  0  0  0  0  0  0  0
   37.7099   28.6880   51.7747 H   0  0  0  0  0  0  0  0  0  0  0  0
   38.3269   32.3824   49.7260 H   0  0  0  0  0  0  0  0  0  0  0  0
   30.9614   28.3280   45.9074 H   0  0  0  0  0  0  0  0  0  0  0  0
   29.1299   27.6507   47.6116 H   0  0  0  0  0  0  0  0  0  0  0  0
   30.1547   27.2706   49.9754 H   0  0  0  0  0  0  0  0  0  0  0  0
  2  1  2  0
  2 11  1  0
  2  4  1  0
  3  2  1  0
  4  5  1  0
  5  6  2  0
  6  7  1  0
  8  7  2  0
  9  8  1  0
 10  5  1  0
 10  9  2  0
 11 12  1  0
 12 16  1  0
 13 12  2  0
 13 14  1  0
 14 15  1  0
 16 15  2  0
  3 17  1  0
  6 18  1  0
  7 19  1  0
  9 20  1  0
 13 21  1  0
 14 22  1  0
 15 23  1  0
M  ISO  7  17   3  18  14  19  14  20  14  21  14  22   9  23  14
M  END
>  <minimizedAffinity>  (1) 
-4.43148708

>  <minimizedRMSD>  (1) 
2.62921286

$$$$
