
     RDKit          3D

 24 26  0  0  0  0  0  0  0  0999 V2000
   36.5640   30.4300   47.6690 C   0  0  0  0  0  0  0  0  0  0  0  0
   35.8990   30.1830   46.4590 C   0  0  0  0  0  0  0  0  0  0  0  0
   36.6920   30.7060   45.4350 C   0  0  0  0  0  0  0  0  0  0  0  0
   37.7840   31.2390   46.0280 N   0  0  0  0  0  0  0  0  0  0  0  0
   37.6830   31.0640   47.3360 N   0  0  0  0  0  0  0  0  0  0  0  0
   36.8210   29.7990   50.0770 C   0  0  0  0  0  0  0  0  0  0  0  0
   36.0330   30.0250   48.9510 C   0  0  0  0  0  0  0  0  0  0  0  0
   34.6470   29.8450   49.0820 C   0  0  0  0  0  0  0  0  0  0  0  0
   34.1500   29.4650   50.2890 N   0  0  0  0  0  0  0  0  0  0  0  0
   34.9650   29.2570   51.3590 C   0  0  0  0  0  0  0  0  0  0  0  0
   36.3070   29.4250   51.2520 N   0  0  0  0  0  0  0  0  0  0  0  0
   38.9310   31.9040   45.5080 C   0  0  0  0  0  0  0  0  0  0  0  0
   40.2490   31.5830   45.7210 C   0  0  0  0  0  0  0  0  0  0  0  0
   40.9600   32.5080   45.0170 N   0  0  0  0  0  0  0  0  0  0  0  0
   40.1150   33.3630   44.3940 C   0  0  0  0  0  0  0  0  0  0  0  0
   38.8560   32.9820   44.7040 N   0  0  0  0  0  0  0  0  0  0  0  0
   34.9323   29.6722   46.3388 H   0  0  0  0  0  0  0  0  0  0  0  0
   36.4714   30.6878   44.3575 H   0  0  0  0  0  0  0  0  0  0  0  0
   37.9097   29.9338   49.9956 H   0  0  0  0  0  0  0  0  0  0  0  0
   33.9766   30.0081   48.2253 H   0  0  0  0  0  0  0  0  0  0  0  0
   34.5306   28.9491   52.3216 H   0  0  0  0  0  0  0  0  0  0  0  0
   40.6456   30.7567   46.3292 H   0  0  0  0  0  0  0  0  0  0  0  0
   41.9879   32.5505   44.9663 H   0  0  0  0  0  0  0  0  0  0  0  0
   40.4004   34.2109   43.7540 H   0  0  0  0  0  0  0  0  0  0  0  0
  1  7  1  0
  2  1  1  0
  3  4  1  0
  3  2  2  0
  4  5  1  0
  5  1  2  0
  6 11  2  0
  7  8  2  0
  7  6  1  0
  8  9  1  0
  9 10  2  0
 11 10  1  0
 12 13  2  0
 12  4  1  0
 14 13  1  0
 15 16  2  0
 15 14  1  0
 16 12  1  0
  2 17  1  0
  3 18  1  0
  6 19  1  0
  8 20  1  0
 10 21  1  0
 13 22  1  0
 14 23  1  0
 15 24  1  0
M  ISO  8  17  14  18  14  19  14  20  14  21  14  22  14  23   9  24  14
M  END
>  <minimizedAffinity>  (1) 
-4.56132364

>  <minimizedRMSD>  (1) 
3.57994127

$$$$
