
     RDKit          3D

 27 29  0  0  0  0  0  0  0  0999 V2000
   37.3652   31.3694   49.2104 C   0  0  0  0  0  0  0  0  0  0  0  0
   37.7028   32.6619   49.6082 C   0  0  0  0  0  0  0  0  0  0  0  0
   38.5849   33.3336   48.7768 C   0  0  0  0  0  0  0  0  0  0  0  0
   39.0637   32.7254   47.6520 N   0  0  0  0  0  0  0  0  0  0  0  0
   38.7095   31.4575   47.2954 C   0  0  0  0  0  0  0  0  0  0  0  0
   37.8379   30.7687   48.1008 N   0  0  0  0  0  0  0  0  0  0  0  0
   36.3830   30.6144   50.0660 C   0  0  0  0  0  0  0  0  0  0  0  0
   36.2746   29.1761   50.0389 C   0  0  0  0  0  0  0  0  0  0  0  0
   37.0571   29.7981   51.1729 C   0  0  0  0  0  0  0  0  0  0  0  0
   39.1884   30.7669   46.1026 C   0  0  0  0  0  0  0  0  0  0  0  0
   37.3151   33.1204   50.4948 H   0  0  0  0  0  0  0  0  0  0  0  0
   38.9196   34.3242   48.9708 H   0  0  0  0  0  0  0  0  0  0  0  0
   35.4908   31.2090   50.4232 H   0  0  0  0  0  0  0  0  0  0  0  0
   35.3377   28.6573   50.2315 H   0  0  0  0  0  0  0  0  0  0  0  0
   36.9015   28.6416   49.2763 H   0  0  0  0  0  0  0  0  0  0  0  0
   38.1461   29.7615   51.2003 H   0  0  0  0  0  0  0  0  0  0  0  0
   36.5057   29.7518   52.1325 H   0  0  0  0  0  0  0  0  0  0  0  0
   40.2259   31.1556   45.8990 H   0  0  0  0  0  0  0  0  0  0  0  0
   39.2937   29.7026   46.3261 H   0  0  0  0  0  0  0  0  0  0  0  0
   38.3073   30.9954   44.9136 C   0  0  0  0  0  0  0  0  0  0  0  0
   37.8079   30.1356   43.9597 C   0  0  0  0  0  0  0  0  0  0  0  0
   38.0212   29.0754   43.9629 H   0  0  0  0  0  0  0  0  0  0  0  0
   37.0693   30.9066   43.1272 N   0  0  0  0  0  0  0  0  0  0  0  0
   36.5613   30.5173   42.2941 H   0  0  0  0  0  0  0  0  0  0  0  0
   37.0857   32.1873   43.5132 C   0  0  0  0  0  0  0  0  0  0  0  0
   36.5950   33.0205   43.0511 H   0  0  0  0  0  0  0  0  0  0  0  0
   37.8593   32.2379   44.6282 N   0  0  0  0  0  0  0  0  0  0  0  0
  1  2  2  0
  1  7  1  0
  3  2  1  0
  4  3  2  0
  5  4  1  0
  5  6  2  0
  6  1  1  0
  7  9  1  0
  8  7  1  0
  8  9  1  0
 10  5  1  0
  2 11  1  0
  3 12  1  0
  7 13  1  0
  8 14  1  0
  8 15  1  0
  9 16  1  0
  9 17  1  0
 10 18  1  0
 10 19  1  0
 20 21  2  0
 21 22  1  0
 21 23  1  0
 23 24  1  0
 23 25  1  0
 25 26  1  0
 25 27  2  0
 27 20  1  0
 10 20  1  0
M  ISO  8  11  14  12  14  13  13  14  13  15  13  16  13  17  13  18   8
M  ISO  4  19   8  22  15  24   5  26  14
M  END
>  <DihAtoms>  (1) 
4,9,19,20

>  <DihDeg>  (1) 
89.99962606312852

$$$$
