
     RDKit          3D

 40 43  0  0  0  0  0  0  0  0999 V2000
   36.7830   32.2870   49.2520 O   0  0  0  0  0  0  0  0  0  0  0  0
   38.2550   32.2600   47.2760 C   0  0  0  0  0  0  0  0  0  0  0  0
   37.8880   32.6970   48.5370 C   0  0  0  0  0  0  0  0  0  0  0  0
   38.6560   33.6330   49.2090 C   0  0  0  0  0  0  0  0  0  0  0  0
   39.8060   34.1350   48.6020 C   0  0  0  0  0  0  0  0  0  0  0  0
   40.1650   33.6960   47.3460 C   0  0  0  0  0  0  0  0  0  0  0  0
   39.3770   32.7650   46.7120 C   0  0  0  0  0  0  0  0  0  0  0  0
   39.7760   32.3010   45.3620 C   0  0  0  0  0  0  0  0  0  0  0  0
   40.5950   31.2520   45.0100 C   0  0  0  0  0  0  0  0  0  0  0  0
   40.6600   31.2270   43.6190 C   0  0  0  0  0  0  0  0  0  0  0  0
   39.8660   32.2750   43.2120 C   0  0  0  0  0  0  0  0  0  0  0  0
   39.3510   32.9000   44.2600 O   0  0  0  0  0  0  0  0  0  0  0  0
   36.7270   30.5260   46.1440 N   0  0  0  0  0  0  0  0  0  0  0  0
   37.4050   31.2930   46.6590 C   0  0  0  0  0  0  0  0  0  0  0  0
   36.7570   31.2280   50.1000 C   0  0  0  0  0  0  0  0  0  0  0  0
   35.7070   30.3520   49.8250 C   0  0  0  0  0  0  0  0  0  0  0  0
   35.5090   29.2130   50.5780 C   0  0  0  0  0  0  0  0  0  0  0  0
   36.3820   28.9810   51.5960 N   0  0  0  0  0  0  0  0  0  0  0  0
   37.4060   29.8490   51.8520 C   0  0  0  0  0  0  0  0  0  0  0  0
   37.5670   30.9300   51.1140 N   0  0  0  0  0  0  0  0  0  0  0  0
   34.3270   29.3800   48.0380 C   0  0  0  0  0  0  0  0  0  0  0  0
   34.7570   28.1440   47.9870 O   0  0  0  0  0  0  0  0  0  0  0  0
   34.7610   30.4930   48.8020 N   0  0  0  0  0  0  0  0  0  0  0  0
   33.1870   29.5930   47.1180 C   0  0  0  0  0  0  0  0  0  0  0  0
   32.1390   28.7010   46.8700 C   0  0  0  0  0  0  0  0  0  0  0  0
   31.2640   29.1820   45.9870 N   0  0  0  0  0  0  0  0  0  0  0  0
   31.7350   30.3950   45.6530 C   0  0  0  0  0  0  0  0  0  0  0  0
   32.8720   30.6130   46.3350 N   0  0  0  0  0  0  0  0  0  0  0  0
   38.3616   33.9768   50.2115 H   0  0  0  0  0  0  0  0  0  0  0  0
   40.4252   34.8794   49.1240 H   0  0  0  0  0  0  0  0  0  0  0  0
   41.0702   34.0855   46.8572 H   0  0  0  0  0  0  0  0  0  0  0  0
   41.1036   30.5618   45.6992 H   0  0  0  0  0  0  0  0  0  0  0  0
   41.2218   30.5248   42.9856 H   0  0  0  0  0  0  0  0  0  0  0  0
   39.6846   32.5543   42.1636 H   0  0  0  0  0  0  0  0  0  0  0  0
   34.6805   28.5216   50.3646 H   0  0  0  0  0  0  0  0  0  0  0  0
   38.1010   29.6445   52.6797 H   0  0  0  0  0  0  0  0  0  0  0  0
   34.3721   31.4252   48.6002 H   0  0  0  0  0  0  0  0  0  0  0  0
   32.0472   27.7150   47.3489 H   0  0  0  0  0  0  0  0  0  0  0  0
   30.4112   28.7229   45.6365 H   0  0  0  0  0  0  0  0  0  0  0  0
   31.2686   31.0921   44.9413 H   0  0  0  0  0  0  0  0  0  0  0  0
  1 15  1  0
  2  3  2  0
  3  4  1  0
  3  1  1  0
  5  4  2  0
  6  5  1  0
  7  2  1  0
  7  6  2  0
  8  7  1  0
  9  8  2  0
 10  9  1  0
 11 10  2  0
 11 12  1  0
 12  8  1  0
 13 14  3  0
 14  2  1  0
 15 20  2  0
 16 15  1  0
 16 17  2  0
 17 18  1  0
 18 19  2  0
 20 19  1  0
 21 23  1  0
 22 21  2  0
 23 16  1  0
 24 21  1  0
 25 24  2  0
 26 25  1  0
 27 26  1  0
 27 28  2  0
 28 24  1  0
  4 29  1  0
  5 30  1  0
  6 31  1  0
  9 32  1  0
 10 33  1  0
 11 34  1  0
 17 35  1  0
 19 36  1  0
 23 37  1  0
 25 38  1  0
 26 39  1  0
 27 40  1  0
M  ISO  8  29  14  30  14  31  14  32  14  33  14  34  14  35  14  36  14
M  ISO  3  38  14  39   9  40  14
M  END
>  <minimizedAffinity>  (1) 
-5.99261761

>  <minimizedRMSD>  (1) 
0.398723364

$$$$
