
     RDKit          3D

 43 47  0  0  0  0  0  0  0  0999 V2000
   35.8372   28.9262   49.3967 C   0  0  0  0  0  0  0  0  0  0  0  0
   35.8597   30.0871   48.5946 C   0  0  0  0  0  0  0  0  0  0  0  0
   34.7822   30.3029   47.6826 C   0  0  0  0  0  0  0  0  0  0  0  0
   33.7786   29.3925   47.6095 N   0  0  0  0  0  0  0  0  0  0  0  0
   33.8187   28.2865   48.4115 C   0  0  0  0  0  0  0  0  0  0  0  0
   34.8129   28.0581   49.2786 N   0  0  0  0  0  0  0  0  0  0  0  0
   32.7370   27.3366   48.2749 N   0  0  0  0  0  0  0  0  0  0  0  0
   31.3592   27.6423   48.5404 C   0  0  0  0  0  0  0  0  0  0  0  0
   30.6016   26.4616   48.0130 C   0  0  0  0  0  0  0  0  0  0  0  0
   31.5967   25.6049   47.2469 C   0  0  0  0  0  0  0  0  0  0  0  0
   32.8989   25.9355   47.8467 C   0  0  0  0  0  0  0  0  0  0  0  0
   36.8500   31.1053   48.5562 C   0  0  0  0  0  0  0  0  0  0  0  0
   36.7946   32.0120   49.5677 N   0  0  0  0  0  0  0  0  0  0  0  0
   37.6733   33.0263   49.5975 C   0  0  0  0  0  0  0  0  0  0  0  0
   38.6483   33.2320   48.6698 N   0  0  0  0  0  0  0  0  0  0  0  0
   38.7336   32.3524   47.6510 C   0  0  0  0  0  0  0  0  0  0  0  0
   39.6662   32.4883   46.6355 C   0  0  0  0  0  0  0  0  0  0  0  0
   39.7019   31.5794   45.5802 C   0  0  0  0  0  0  0  0  0  0  0  0
   38.7868   30.5260   45.5576 C   0  0  0  0  0  0  0  0  0  0  0  0
   37.8724   30.4209   46.5882 C   0  0  0  0  0  0  0  0  0  0  0  0
   37.8313   31.3091   47.6209 C   0  0  0  0  0  0  0  0  0  0  0  0
   36.6733   28.8311   50.0596 H   0  0  0  0  0  0  0  0  0  0  0  0
   34.7109   31.1483   47.0419 H   0  0  0  0  0  0  0  0  0  0  0  0
   31.0005   28.5717   48.0463 H   0  0  0  0  0  0  0  0  0  0  0  0
   31.2131   27.7827   49.6461 H   0  0  0  0  0  0  0  0  0  0  0  0
   29.7896   26.8078   47.3341 H   0  0  0  0  0  0  0  0  0  0  0  0
   30.1360   25.9354   48.8540 H   0  0  0  0  0  0  0  0  0  0  0  0
   31.2632   24.5359   47.3840 H   0  0  0  0  0  0  0  0  0  0  0  0
   31.5096   25.8142   46.1720 H   0  0  0  0  0  0  0  0  0  0  0  0
   33.1634   25.3096   48.7073 H   0  0  0  0  0  0  0  0  0  0  0  0
   33.7119   25.8567   47.0695 H   0  0  0  0  0  0  0  0  0  0  0  0
   37.6509   33.7647   50.3952 H   0  0  0  0  0  0  0  0  0  0  0  0
   40.3371   33.3288   46.7307 H   0  0  0  0  0  0  0  0  0  0  0  0
   40.4610   31.7956   44.8668 H   0  0  0  0  0  0  0  0  0  0  0  0
   38.9736   29.9458   44.6779 H   0  0  0  0  0  0  0  0  0  0  0  0
   37.0891   29.2360   46.2359 C   0  0  0  0  0  0  0  0  0  0  0  0
   36.3331   28.8448   45.1491 C   0  0  0  0  0  0  0  0  0  0  0  0
   36.2825   29.4721   44.2577 H   0  0  0  0  0  0  0  0  0  0  0  0
   35.6832   27.6923   45.3040 N   0  0  0  0  0  0  0  0  0  0  0  0
   35.0716   27.2531   44.5858 H   0  0  0  0  0  0  0  0  0  0  0  0
   36.0372   27.3314   46.5433 C   0  0  0  0  0  0  0  0  0  0  0  0
   35.6923   26.4158   47.0327 H   0  0  0  0  0  0  0  0  0  0  0  0
   36.8612   28.2114   47.1249 N   0  0  0  0  0  0  0  0  0  0  0  0
  2  1  2  0
  3  2  1  0
  4  3  2  0
  4  5  1  0
  5  6  2  0
  6  1  1  0
  7  5  1  0
  7  8  1  0
  9  8  1  0
 10 11  1  0
 10  9  1  0
 11  7  1  0
 12  2  1  0
 12 13  2  0
 13 14  1  0
 15 14  2  0
 16 15  1  0
 17 16  2  0
 18 17  1  0
 19 18  2  0
 19 20  1  0
 20 21  2  0
 21 16  1  0
 21 12  1  0
  1 22  1  0
  3 23  1  0
  8 24  1  0
  8 25  1  0
  9 26  1  0
  9 27  1  0
 10 28  1  0
 10 29  1  0
 11 30  1  0
 11 31  1  0
 14 32  1  0
 17 33  1  0
 18 34  1  0
 19 35  1  0
 36 37  2  0
 37 38  1  0
 37 39  1  0
 39 40  1  0
 39 41  1  0
 41 42  1  0
 41 43  2  0
 43 36  1  0
 20 36  1  0
M  ISO  8  22  14  23  14  24  13  25  13  26  13  27  13  28  13  29  13
M  ISO  8  30  13  31  13  32  14  33  14  34  14  35  14  38  15  40   5
M  ISO  1  42  14
M  END
>  <DihAtoms>  (1) 
18,19,35,36

>  <DihDeg>  (1) 
107.98890429783313

$$$$
