
     RDKit          3D

 40 43  0  0  0  0  0  0  0  0999 V2000
   33.9991   28.8257   48.2807 C   0  0  0  0  0  0  0  0  0  0  0  0
   34.6230   28.3675   49.4084 C   0  0  0  0  0  0  0  0  0  0  0  0
   35.8572   28.8024   49.8444 C   0  0  0  0  0  0  0  0  0  0  0  0
   36.5403   29.7468   49.1439 C   0  0  0  0  0  0  0  0  0  0  0  0
   35.9070   30.2211   47.9872 C   0  0  0  0  0  0  0  0  0  0  0  0
   34.6959   29.7754   47.5848 N   0  0  0  0  0  0  0  0  0  0  0  0
   31.9043   27.5062   48.5682 C   0  0  0  0  0  0  0  0  0  0  0  0
   32.7248   28.3643   47.8386 C   0  0  0  0  0  0  0  0  0  0  0  0
   32.2557   28.7741   46.6128 C   0  0  0  0  0  0  0  0  0  0  0  0
   31.0354   28.3416   46.1576 N   0  0  0  0  0  0  0  0  0  0  0  0
   30.2819   27.5058   46.9140 C   0  0  0  0  0  0  0  0  0  0  0  0
   30.7025   27.0730   48.1331 N   0  0  0  0  0  0  0  0  0  0  0  0
   37.7842   30.2955   49.4351 O   0  0  0  0  0  0  0  0  0  0  0  0
   38.3690   31.2583   48.6409 C   0  0  0  0  0  0  0  0  0  0  0  0
   38.4413   32.5222   49.2314 C   0  0  0  0  0  0  0  0  0  0  0  0
   39.0506   33.3621   48.3052 C   0  0  0  0  0  0  0  0  0  0  0  0
   39.3202   32.6278   47.2302 N   0  0  0  0  0  0  0  0  0  0  0  0
   38.9189   31.3859   47.4256 N   0  0  0  0  0  0  0  0  0  0  0  0
   39.9561   33.1159   46.0300 C   0  0  0  0  0  0  0  0  0  0  0  0
   40.6617   31.9504   45.3668 C   0  0  0  0  0  0  0  0  0  0  0  0
   34.1615   27.6151   50.0346 H   0  0  0  0  0  0  0  0  0  0  0  0
   36.3476   28.4362   50.7387 H   0  0  0  0  0  0  0  0  0  0  0  0
   36.3780   30.9767   47.3648 H   0  0  0  0  0  0  0  0  0  0  0  0
   32.2363   27.1622   49.5347 H   0  0  0  0  0  0  0  0  0  0  0  0
   32.8519   29.4455   45.9960 H   0  0  0  0  0  0  0  0  0  0  0  0
   29.3213   27.1728   46.5418 H   0  0  0  0  0  0  0  0  0  0  0  0
   38.1395   32.9473   50.1963 H   0  0  0  0  0  0  0  0  0  0  0  0
   39.2824   34.4238   48.3994 H   0  0  0  0  0  0  0  0  0  0  0  0
   39.1603   33.4866   45.3554 H   0  0  0  0  0  0  0  0  0  0  0  0
   40.6675   33.9144   46.3170 H   0  0  0  0  0  0  0  0  0  0  0  0
   39.9100   31.2029   45.0899 H   0  0  0  0  0  0  0  0  0  0  0  0
   41.1022   32.3367   44.4171 H   0  0  0  0  0  0  0  0  0  0  0  0
   41.6906   31.3608   46.2609 C   0  0  0  0  0  0  0  0  0  0  0  0
   41.8573   30.2464   47.0423 C   0  0  0  0  0  0  0  0  0  0  0  0
   41.0372   29.5423   47.0630 H   0  0  0  0  0  0  0  0  0  0  0  0
   43.0618   30.2851   47.6340 N   0  0  0  0  0  0  0  0  0  0  0  0
   43.3851   29.5442   48.2621 H   0  0  0  0  0  0  0  0  0  0  0  0
   43.6477   31.4222   47.2232 C   0  0  0  0  0  0  0  0  0  0  0  0
   44.6470   31.7361   47.5380 H   0  0  0  0  0  0  0  0  0  0  0  0
   42.8297   32.0872   46.3895 N   0  0  0  0  0  0  0  0  0  0  0  0
  1  2  2  0
  2  3  1  0
  4 13  1  0
  4  3  2  0
  5  4  1  0
  6  5  2  0
  6  1  1  0
  8  1  1  0
  8  7  2  0
  9  8  1  0
 10  9  2  0
 10 11  1  0
 11 12  2  0
 12  7  1  0
 14 15  1  0
 14 13  1  0
 16 15  2  0
 17 18  1  0
 17 16  1  0
 18 14  2  0
 19 17  1  0
 20 19  1  0
  2 21  1  0
  3 22  1  0
  5 23  1  0
  7 24  1  0
  9 25  1  0
 11 26  1  0
 15 27  1  0
 16 28  1  0
 19 29  1  0
 19 30  1  0
 20 31  1  0
 20 32  1  0
 33 34  2  0
 34 35  1  0
 34 36  1  0
 36 37  1  0
 36 38  1  0
 38 39  1  0
 38 40  2  0
 40 33  1  0
 20 33  1  0
M  ISO  8  21  14  22  14  23  14  24  14  25  14  26  14  27  14  28  14
M  ISO  7  29   8  30   8  31   8  32   8  35  15  37   5  39  14
M  END
>  <DihAtoms>  (1) 
18,19,32,33

>  <DihDeg>  (1) 
-0.04312689899299488

$$$$
