
     RDKit          3D

 33 35  0  0  1  0  0  0  0  0999 V2000
   35.5030   30.0490   49.7930 C   0  0  2  0  0  0  0  0  0  0  0  0
   36.3590   31.1090   49.1320 C   0  0  0  0  0  0  0  0  0  0  0  0
   37.8230   30.9010   49.3630 C   0  0  2  0  0  0  0  0  0  0  0  0
   38.1950   30.7450   50.8110 C   0  0  0  0  0  0  0  0  0  0  0  0
   37.2100   29.9390   51.6020 C   0  0  0  0  0  0  0  0  0  0  0  0
   36.2590   29.1620   50.7150 C   0  0  0  0  0  0  0  0  0  0  0  0
   34.8650   29.1980   48.7490 C   0  0  0  0  0  0  0  0  0  0  0  0
   34.7330   29.7770   47.4740 C   0  0  0  0  0  0  0  0  0  0  0  0
   34.1200   28.9900   46.4880 C   0  0  0  0  0  0  0  0  0  0  0  0
   33.6910   27.7240   46.8170 N   0  0  0  0  0  0  0  0  0  0  0  0
   33.8380   27.2080   48.0560 C   0  0  0  0  0  0  0  0  0  0  0  0
   34.4240   27.9530   49.0070 N   0  0  0  0  0  0  0  0  0  0  0  0
   38.4950   32.1570   48.8760 C   0  0  0  0  0  0  0  0  0  0  0  0
   38.8740   32.4150   47.5690 C   0  0  0  0  0  0  0  0  0  0  0  0
   39.4320   33.6430   47.5970 N   0  0  0  0  0  0  0  0  0  0  0  0
   39.4200   34.1590   48.8400 C   0  0  0  0  0  0  0  0  0  0  0  0
   38.8380   33.2360   49.6370 N   0  0  0  0  0  0  0  0  0  0  0  0
   34.7553   30.5907   50.3910 H   0  0  0  0  0  0  0  0  0  0  0  0
   36.0757   32.0919   49.5366 H   0  0  0  0  0  0  0  0  0  0  0  0
   36.1832   31.0473   48.0479 H   0  0  0  0  0  0  0  0  0  0  0  0
   38.1250   29.9775   48.8474 H   0  0  0  0  0  0  0  0  0  0  0  0
   39.1747   30.2479   50.8664 H   0  0  0  0  0  0  0  0  0  0  0  0
   38.2111   31.7537   51.2495 H   0  0  0  0  0  0  0  0  0  0  0  0
   37.7617   29.2295   52.2362 H   0  0  0  0  0  0  0  0  0  0  0  0
   36.6121   30.6371   52.2064 H   0  0  0  0  0  0  0  0  0  0  0  0
   35.5440   28.6197   51.3511 H   0  0  0  0  0  0  0  0  0  0  0  0
   36.8559   28.4687   50.1042 H   0  0  0  0  0  0  0  0  0  0  0  0
   35.0921   30.7947   47.2611 H   0  0  0  0  0  0  0  0  0  0  0  0
   33.9842   29.3783   45.4678 H   0  0  0  0  0  0  0  0  0  0  0  0
   33.4828   26.1920   48.2830 H   0  0  0  0  0  0  0  0  0  0  0  0
   38.7472   31.7590   46.6952 H   0  0  0  0  0  0  0  0  0  0  0  0
   39.8180   34.1243   46.7722 H   0  0  0  0  0  0  0  0  0  0  0  0
   39.8085   35.1412   49.1473 H   0  0  0  0  0  0  0  0  0  0  0  0
  1  6  1  0
  2  3  1  0
  2  1  1  0
  3  4  1  0
  4  5  1  0
  6  5  1  0
  7 12  1  0
  7  1  1  0
  8  7  2  0
  9 10  2  0
  9  8  1  0
 10 11  1  0
 11 12  2  0
 13  3  1  0
 13 17  1  0
 14 15  1  0
 14 13  2  0
 15 16  1  0
 16 17  2  0
  1 18  1  1
  2 19  1  0
  2 20  1  0
  3 21  1  6
  4 22  1  0
  4 23  1  0
  5 24  1  0
  5 25  1  0
  6 26  1  0
  6 27  1  0
  8 28  1  0
  9 29  1  0
 11 30  1  0
 14 31  1  0
 15 32  1  0
 16 33  1  0
M  ISO  8  18  13  19  13  20  13  21  13  22  13  23  13  24  13  25  13
M  ISO  8  26  13  27  13  28  14  29  14  30  14  31  14  32   9  33  14
M  END
>  <minimizedAffinity>  (1) 
-6.46406841

>  <minimizedRMSD>  (1) 
0.717998922

$$$$
