
     RDKit          3D

 24 26  0  0  0  0  0  0  0  0999 V2000
   37.8280   31.3050   48.2410 C   0  0  0  0  0  0  0  0  0  0  0  0
   38.8070   32.2080   48.1370 C   0  0  0  0  0  0  0  0  0  0  0  0
   39.1730   32.7030   46.9430 C   0  0  0  0  0  0  0  0  0  0  0  0
   38.4750   32.2220   45.8440 C   0  0  0  0  0  0  0  0  0  0  0  0
   37.2870   31.0420   46.5890 S   0  0  0  0  0  0  0  0  0  0  0  0
   37.2390   29.9800   51.7090 C   0  0  0  0  0  0  0  0  0  0  0  0
   37.8690   30.6680   50.6520 C   0  0  0  0  0  0  0  0  0  0  0  0
   37.2540   30.6260   49.3950 C   0  0  0  0  0  0  0  0  0  0  0  0
   36.1040   29.9410   49.2490 N   0  0  0  0  0  0  0  0  0  0  0  0
   35.5280   29.2950   50.2760 C   0  0  0  0  0  0  0  0  0  0  0  0
   36.0900   29.3130   51.4940 N   0  0  0  0  0  0  0  0  0  0  0  0
   38.5940   32.5250   44.4310 C   0  0  0  0  0  0  0  0  0  0  0  0
   39.7450   32.8430   43.7890 C   0  0  0  0  0  0  0  0  0  0  0  0
   39.3740   33.0390   42.5000 N   0  0  0  0  0  0  0  0  0  0  0  0
   38.0390   32.8520   42.3350 C   0  0  0  0  0  0  0  0  0  0  0  0
   37.5840   32.5290   43.5730 N   0  0  0  0  0  0  0  0  0  0  0  0
   39.3227   32.5524   49.0455 H   0  0  0  0  0  0  0  0  0  0  0  0
   39.9782   33.4456   46.8423 H   0  0  0  0  0  0  0  0  0  0  0  0
   37.6882   29.9884   52.7131 H   0  0  0  0  0  0  0  0  0  0  0  0
   38.8089   31.2174   50.8091 H   0  0  0  0  0  0  0  0  0  0  0  0
   34.5877   28.7467   50.1171 H   0  0  0  0  0  0  0  0  0  0  0  0
   40.7545   32.9239   44.2183 H   0  0  0  0  0  0  0  0  0  0  0  0
   40.0221   33.2969   41.7422 H   0  0  0  0  0  0  0  0  0  0  0  0
   37.4565   32.9420   41.4062 H   0  0  0  0  0  0  0  0  0  0  0  0
  1  8  1  0
  2  1  2  0
  3  2  1  0
  4  5  1  0
  4  3  2  0
  5  1  1  0
  7  6  2  0
  8  7  1  0
  9  8  2  0
  9 10  1  0
 10 11  2  0
 11  6  1  0
 12  4  1  0
 13 12  2  0
 14 13  1  0
 15 14  1  0
 15 16  2  0
 16 12  1  0
  2 17  1  0
  3 18  1  0
  6 19  1  0
  7 20  1  0
 10 21  1  0
 13 22  1  0
 14 23  1  0
 15 24  1  0
M  ISO  8  17  14  18  14  19  14  20  14  21  14  22  14  23   9  24  14
M  END
>  <minimizedAffinity>  (1) 
-5.25240564

>  <minimizedRMSD>  (1) 
0.548292518

$$$$
