
     RDKit          3D

 37 40  0  0  0  0  0  0  0  0999 V2000
   38.6660   32.9470   49.7720 Cl  0  0  0  0  0  0  0  0  0  0  0  0
   38.6380   32.2790   48.1510 C   0  0  0  0  0  0  0  0  0  0  0  0
   37.8880   31.1540   47.8670 C   0  0  0  0  0  0  0  0  0  0  0  0
   37.9120   30.6850   46.5770 C   0  0  0  0  0  0  0  0  0  0  0  0
   38.6390   31.2830   45.5850 C   0  0  0  0  0  0  0  0  0  0  0  0
   39.3890   32.4230   45.9060 C   0  0  0  0  0  0  0  0  0  0  0  0
   40.3000   33.1550   44.6150 Cl  0  0  0  0  0  0  0  0  0  0  0  0
   39.3930   32.9260   47.1880 C   0  0  0  0  0  0  0  0  0  0  0  0
   36.8790   32.5920   43.4840 Cl  0  0  0  0  0  0  0  0  0  0  0  0
   37.8370   31.1230   43.1850 C   0  0  0  0  0  0  0  0  0  0  0  0
   38.5730   30.6780   44.2570 C   0  0  0  0  0  0  0  0  0  0  0  0
   39.3510   29.5380   44.1210 C   0  0  0  0  0  0  0  0  0  0  0  0
   39.3920   28.8460   42.9090 C   0  0  0  0  0  0  0  0  0  0  0  0
   38.6410   29.3300   41.8670 C   0  0  0  0  0  0  0  0  0  0  0  0
   37.8490   30.4750   41.9810 C   0  0  0  0  0  0  0  0  0  0  0  0
   37.0410   31.0100   40.8920 C   0  0  0  0  0  0  0  0  0  0  0  0
   37.5730   31.8850   39.9400 C   0  0  0  0  0  0  0  0  0  0  0  0
   36.5160   32.1400   39.1200 N   0  0  0  0  0  0  0  0  0  0  0  0
   35.4100   31.4720   39.5350 C   0  0  0  0  0  0  0  0  0  0  0  0
   35.7430   30.7730   40.6340 N   0  0  0  0  0  0  0  0  0  0  0  0
   37.0230   29.3680   51.0870 C   0  0  0  0  0  0  0  0  0  0  0  0
   37.7840   29.9260   50.0430 C   0  0  0  0  0  0  0  0  0  0  0  0
   37.1270   30.5570   48.9800 C   0  0  0  0  0  0  0  0  0  0  0  0
   35.7660   30.6030   49.0000 N   0  0  0  0  0  0  0  0  0  0  0  0
   35.0830   30.0460   50.0330 C   0  0  0  0  0  0  0  0  0  0  0  0
   35.6940   29.4430   51.0530 N   0  0  0  0  0  0  0  0  0  0  0  0
   37.3214   29.7902   46.3308 H   0  0  0  0  0  0  0  0  0  0  0  0
   39.9818   33.8201   47.4406 H   0  0  0  0  0  0  0  0  0  0  0  0
   39.9411   29.1757   44.9757 H   0  0  0  0  0  0  0  0  0  0  0  0
   40.0069   27.9413   42.7929 H   0  0  0  0  0  0  0  0  0  0  0  0
   38.6637   28.7959   40.9056 H   0  0  0  0  0  0  0  0  0  0  0  0
   38.5995   32.2742   39.8701 H   0  0  0  0  0  0  0  0  0  0  0  0
   36.5513   32.7568   38.2958 H   0  0  0  0  0  0  0  0  0  0  0  0
   34.4192   31.4978   39.0579 H   0  0  0  0  0  0  0  0  0  0  0  0
   37.5253   28.8706   51.9298 H   0  0  0  0  0  0  0  0  0  0  0  0
   38.8823   29.8670   50.0620 H   0  0  0  0  0  0  0  0  0  0  0  0
   33.9841   30.0941   50.0280 H   0  0  0  0  0  0  0  0  0  0  0  0
  2  1  1  0
  3  2  2  0
  3 23  1  0
  4  3  1  0
  5  6  1  0
  5  4  2  0
  6  8  2  0
  7  6  1  0
  8  2  1  0
 10  9  1  0
 10 11  2  0
 11  5  1  0
 12 11  1  0
 13 12  2  0
 14 15  2  0
 14 13  1  0
 15 10  1  0
 16 15  1  0
 17 16  2  0
 18 19  1  0
 18 17  1  0
 19 20  2  0
 20 16  1  0
 22 21  2  0
 23 24  2  0
 23 22  1  0
 24 25  1  0
 25 26  2  0
 26 21  1  0
  4 27  1  0
  8 28  1  0
 12 29  1  0
 13 30  1  0
 14 31  1  0
 17 32  1  0
 18 33  1  0
 19 34  1  0
 21 35  1  0
 22 36  1  0
 25 37  1  0
M  ISO  8  27  14  28  14  29  14  30  14  31  14  32  14  33   9  34  14
M  ISO  3  35  14  36  14  37  14
M  END
>  <minimizedAffinity>  (1) 
-6.35963726

>  <minimizedRMSD>  (1) 
0.115561895

$$$$
