
     RDKit          3D

 20 21  0  0  0  0  0  0  0  0999 V2000
   37.5390   30.8070   48.5520 C   0  0  0  0  0  0  0  0  0  0  0  0
   37.9780   32.0250   49.1150 C   0  0  0  0  0  0  0  0  0  0  0  0
   38.8910   32.8030   48.3790 C   0  0  0  0  0  0  0  0  0  0  0  0
   39.2960   32.3290   47.1620 N   0  0  0  0  0  0  0  0  0  0  0  0
   38.8510   31.1570   46.6570 C   0  0  0  0  0  0  0  0  0  0  0  0
   37.9760   30.4130   47.3630 N   0  0  0  0  0  0  0  0  0  0  0  0
   36.5930   30.0340   49.3510 C   0  0  0  0  0  0  0  0  0  0  0  0
   35.6210   29.1720   48.8930 C   0  0  0  0  0  0  0  0  0  0  0  0
   34.9830   28.6830   49.9940 N   0  0  0  0  0  0  0  0  0  0  0  0
   35.5390   29.2230   51.1170 C   0  0  0  0  0  0  0  0  0  0  0  0
   36.5330   30.0570   50.6960 N   0  0  0  0  0  0  0  0  0  0  0  0
   39.3640   34.0880   48.9570 C   0  0  0  0  0  0  0  0  0  0  0  0
   39.8310   33.8050   50.1980 F   0  0  0  0  0  0  0  0  0  0  0  0
   40.3520   34.6730   48.2170 F   0  0  0  0  0  0  0  0  0  0  0  0
   38.2990   34.9910   49.0840 F   0  0  0  0  0  0  0  0  0  0  0  0
   37.6170   32.3561   50.0999 H   0  0  0  0  0  0  0  0  0  0  0  0
   39.2015   30.8113   45.6733 H   0  0  0  0  0  0  0  0  0  0  0  0
   35.4023   28.9262   47.8434 H   0  0  0  0  0  0  0  0  0  0  0  0
   34.2028   28.0107   49.9803 H   0  0  0  0  0  0  0  0  0  0  0  0
   35.2436   29.0247   52.1579 H   0  0  0  0  0  0  0  0  0  0  0  0
  1  2  2  0
  1  7  1  0
  3 12  1  0
  3  2  1  0
  4  3  2  0
  5  4  1  0
  5  6  2  0
  6  1  1  0
  7 11  1  0
  8  7  2  0
  8  9  1  0
  9 10  1  0
 11 10  2  0
 12 15  1  0
 12 13  1  0
 14 12  1  0
  2 16  1  0
  5 17  1  0
  8 18  1  0
  9 19  1  0
 10 20  1  0
M  ISO  5  16  14  17  14  18  14  19   9  20  14
M  END
>  <minimizedAffinity>  (1) 
-4.94183207

>  <minimizedRMSD>  (1) 
3.6881578

$$$$
