
     RDKit          3D

 31 33  0  0  1  0  0  0  0  0999 V2000
   36.1620   30.1540   48.6220 N   0  0  0  0  0  0  0  0  0  0  0  0
   35.2880   29.8320   47.5120 C   0  0  0  0  0  0  0  0  0  0  0  0
   33.8840   29.5760   47.9240 C   0  0  2  0  0  0  0  0  0  0  0  0
   33.6910   28.9220   49.1690 N   0  0  0  0  0  0  0  0  0  0  0  0
   34.5290   29.5380   50.2050 C   0  0  0  0  0  0  0  0  0  0  0  0
   35.9370   29.2750   49.7380 C   0  0  0  0  0  0  0  0  0  0  0  0
   37.1180   31.2100   48.5990 C   0  0  0  0  0  0  0  0  0  0  0  0
   37.2410   32.1660   49.6030 C   0  0  0  0  0  0  0  0  0  0  0  0
   38.2150   33.1520   49.4730 C   0  0  0  0  0  0  0  0  0  0  0  0
   39.0080   33.1370   48.3590 N   0  0  0  0  0  0  0  0  0  0  0  0
   38.8590   32.1920   47.4050 C   0  0  0  0  0  0  0  0  0  0  0  0
   37.9260   31.2240   47.5010 N   0  0  0  0  0  0  0  0  0  0  0  0
   33.1540   28.8630   46.8550 C   0  0  0  0  0  0  0  0  0  0  0  0
   31.7810   28.5930   46.8290 C   0  0  0  0  0  0  0  0  0  0  0  0
   31.5250   27.9350   45.6990 N   0  0  0  0  0  0  0  0  0  0  0  0
   32.6620   27.7630   44.9890 C   0  0  0  0  0  0  0  0  0  0  0  0
   33.6530   28.3410   45.7180 N   0  0  0  0  0  0  0  0  0  0  0  0
   35.6750   28.9314   47.0129 H   0  0  0  0  0  0  0  0  0  0  0  0
   35.2768   30.7048   46.8426 H   0  0  0  0  0  0  0  0  0  0  0  0
   33.4721   30.5831   48.0855 H   0  0  0  0  0  0  0  0  0  0  0  0
   32.7011   28.9988   49.4430 H   0  0  0  0  0  0  0  0  0  0  0  0
   34.3351   30.6186   50.2735 H   0  0  0  0  0  0  0  0  0  0  0  0
   34.3319   29.1299   51.2073 H   0  0  0  0  0  0  0  0  0  0  0  0
   36.0449   28.2261   49.4247 H   0  0  0  0  0  0  0  0  0  0  0  0
   36.6656   29.4548   50.5423 H   0  0  0  0  0  0  0  0  0  0  0  0
   36.5810   32.1429   50.4827 H   0  0  0  0  0  0  0  0  0  0  0  0
   38.3435   33.9234   50.2465 H   0  0  0  0  0  0  0  0  0  0  0  0
   39.5181   32.2132   46.5246 H   0  0  0  0  0  0  0  0  0  0  0  0
   31.0478   28.8726   47.5999 H   0  0  0  0  0  0  0  0  0  0  0  0
   30.5937   27.6047   45.4082 H   0  0  0  0  0  0  0  0  0  0  0  0
   32.7647   27.2574   44.0175 H   0  0  0  0  0  0  0  0  0  0  0  0
  1  6  1  0
  2  3  1  0
  2  1  1  0
  3  4  1  0
  4  5  1  0
  6  5  1  0
  7  1  1  0
  7  8  2  0
  9  8  1  0
 10  9  2  0
 11 12  2  0
 11 10  1  0
 12  7  1  0
 13  3  1  0
 14 13  2  0
 15 14  1  0
 16 15  1  0
 16 17  2  0
 17 13  1  0
  2 18  1  0
  2 19  1  0
  3 20  1  1
  4 21  1  0
  5 22  1  0
  5 23  1  0
  6 24  1  0
  6 25  1  0
  8 26  1  0
  9 27  1  0
 11 28  1  0
 14 29  1  0
 15 30  1  0
 16 31  1  0
M  ISO  8  18  13  19  13  20  13  21   5  22  13  23  13  24  13  25  13
M  ISO  6  26  14  27  14  28  14  29  14  30   9  31  14
M  END
>  <minimizedAffinity>  (1) 
-4.63441181

>  <minimizedRMSD>  (1) 
6.75749159

$$$$
