
     RDKit          3D

 31 33  0  0  1  0  0  0  0  0999 V2000
   37.0930   31.2740   48.4440 C   0  0  0  0  0  0  0  0  0  0  0  0
   36.8310   31.8810   49.6970 C   0  0  0  0  0  0  0  0  0  0  0  0
   37.5460   32.9800   50.1520 C   0  0  0  0  0  0  0  0  0  0  0  0
   38.5520   33.5060   49.3580 C   0  0  0  0  0  0  0  0  0  0  0  0
   38.7790   32.8920   48.1510 C   0  0  0  0  0  0  0  0  0  0  0  0
   38.0810   31.7930   47.6730 C   0  0  0  0  0  0  0  0  0  0  0  0
   38.5200   31.3120   46.3830 C   0  0  0  0  0  0  0  0  0  0  0  0
   38.3640   32.0160   45.2080 C   0  0  0  0  0  0  0  0  0  0  0  0
   38.7960   31.4240   44.1050 N   0  0  0  0  0  0  0  0  0  0  0  0
   39.2720   30.2580   44.5410 C   0  0  0  0  0  0  0  0  0  0  0  0
   39.0850   30.2560   45.8400 N   0  0  0  0  0  0  0  0  0  0  0  0
   36.2530   30.1540   48.0680 C   0  0  0  0  0  0  0  0  0  0  0  0
   36.4410   29.0890   48.7770 O   0  0  0  0  0  0  0  0  0  0  0  0
   32.9930   30.4840   46.5160 C   0  0  0  0  0  0  0  0  0  0  0  0
   33.2260   30.2700   45.1710 C   0  0  0  0  0  0  0  0  0  0  0  0
   34.5200   29.9940   44.7970 C   0  0  0  0  0  0  0  0  0  0  0  0
   35.5500   29.9310   45.7150 N   0  0  0  0  0  0  0  0  0  0  0  0
   35.2670   30.1480   47.0080 C   0  0  0  0  0  0  0  0  0  0  0  0
   34.0130   30.4140   47.3690 N   0  0  0  0  0  0  0  0  0  0  0  0
   36.0333   31.4669   50.3312 H   0  0  0  0  0  0  0  0  0  0  0  0
   37.3169   33.4276   51.1304 H   0  0  0  0  0  0  0  0  0  0  0  0
   39.1424   34.3765   49.6800 H   0  0  0  0  0  0  0  0  0  0  0  0
   39.5759   33.3035   47.5141 H   0  0  0  0  0  0  0  0  0  0  0  0
   37.9054   33.0156   45.1878 H   0  0  0  0  0  0  0  0  0  0  0  0
   38.7702   31.7803   43.1389 H   0  0  0  0  0  0  0  0  0  0  0  0
   39.7282   29.4606   43.9360 H   0  0  0  0  0  0  0  0  0  0  0  0
   37.0215   29.8163   47.3570 H   0  0  0  0  0  0  0  0  0  0  0  0
   36.4000   29.3212   49.7385 H   0  0  0  0  0  0  0  0  0  0  0  0
   31.9787   30.7091   46.8772 H   0  0  0  0  0  0  0  0  0  0  0  0
   32.4124   30.3183   44.4323 H   0  0  0  0  0  0  0  0  0  0  0  0
   34.7417   29.8180   43.7341 H   0  0  0  0  0  0  0  0  0  0  0  0
  1  2  2  0
  2  3  1  0
  4  3  2  0
  5  4  1  0
  6  5  2  0
  6  1  1  0
  7  6  1  0
  8  7  2  0
  9 10  1  0
  9  8  1  0
 10 11  2  0
 11  7  1  0
 12  1  1  0
 12 13  1  0
 14 19  2  0
 15 14  1  0
 16 15  2  0
 16 17  1  0
 17 18  2  0
 18 19  1  0
 18 12  1  0
  2 20  1  0
  3 21  1  0
  4 22  1  0
  5 23  1  0
  8 24  1  0
  9 25  1  0
 10 26  1  0
 12 27  1  0
 13 28  1  0
 14 29  1  0
 15 30  1  0
 16 31  1  0
M  ISO  8  20  14  21  14  22  14  23  14  24  14  25   9  26  14  27   8
M  ISO  4  28   3  29  14  30  14  31  14
M  END
>  <minimizedAffinity>  (1) 
-5.15470409

>  <minimizedRMSD>  (1) 
2.16162825

$$$$
