
     RDKit          3D

 33 35  0  0  0  0  0  0  0  0999 V2000
   35.4600   30.3640   49.9270 C   0  0  0  0  0  0  0  0  0  0  0  0
   36.4520   31.2320   49.1810 C   0  0  0  0  0  0  0  0  0  0  0  0
   37.8660   30.7590   49.3320 C   0  0  0  0  0  0  0  0  0  0  0  0
   38.2900   30.6110   50.7690 C   0  0  0  0  0  0  0  0  0  0  0  0
   37.2520   29.9570   51.6270 C   0  0  0  0  0  0  0  0  0  0  0  0
   36.1100   29.3660   50.8240 C   0  0  0  0  0  0  0  0  0  0  0  0
   34.6150   29.6120   48.9480 C   0  0  0  0  0  0  0  0  0  0  0  0
   34.2410   30.3180   47.7900 C   0  0  0  0  0  0  0  0  0  0  0  0
   33.4390   29.6130   46.8730 C   0  0  0  0  0  0  0  0  0  0  0  0
   33.0690   28.3220   47.1340 N   0  0  0  0  0  0  0  0  0  0  0  0
   33.4650   27.6870   48.2800 C   0  0  0  0  0  0  0  0  0  0  0  0
   34.2260   28.3330   49.1640 N   0  0  0  0  0  0  0  0  0  0  0  0
   33.0060   30.2690   45.6480 C   0  0  0  0  0  0  0  0  0  0  0  0
   33.6550   30.1920   44.4380 C   0  0  0  0  0  0  0  0  0  0  0  0
   32.8860   30.9520   43.6260 N   0  0  0  0  0  0  0  0  0  0  0  0
   31.8120   31.4780   44.2800 C   0  0  0  0  0  0  0  0  0  0  0  0
   31.9100   31.0360   45.5450 N   0  0  0  0  0  0  0  0  0  0  0  0
   34.8609   31.0461   50.5481 H   0  0  0  0  0  0  0  0  0  0  0  0
   36.3816   32.2590   49.5688 H   0  0  0  0  0  0  0  0  0  0  0  0
   36.1981   31.1812   48.1119 H   0  0  0  0  0  0  0  0  0  0  0  0
   37.9629   29.7819   48.8362 H   0  0  0  0  0  0  0  0  0  0  0  0
   38.5164   31.5195   48.8752 H   0  0  0  0  0  0  0  0  0  0  0  0
   39.2053   30.0017   50.8022 H   0  0  0  0  0  0  0  0  0  0  0  0
   38.4521   31.6234   51.1674 H   0  0  0  0  0  0  0  0  0  0  0  0
   37.7299   29.1510   52.2033 H   0  0  0  0  0  0  0  0  0  0  0  0
   36.8284   30.7327   52.2819 H   0  0  0  0  0  0  0  0  0  0  0  0
   35.3546   28.9753   51.5216 H   0  0  0  0  0  0  0  0  0  0  0  0
   36.5273   28.5707   50.1889 H   0  0  0  0  0  0  0  0  0  0  0  0
   34.5559   31.3569   47.6122 H   0  0  0  0  0  0  0  0  0  0  0  0
   33.1568   26.6484   48.4709 H   0  0  0  0  0  0  0  0  0  0  0  0
   34.5765   29.6447   44.1906 H   0  0  0  0  0  0  0  0  0  0  0  0
   33.0883   31.1145   42.6292 H   0  0  0  0  0  0  0  0  0  0  0  0
   31.0297   32.1276   43.8604 H   0  0  0  0  0  0  0  0  0  0  0  0
  1  6  1  0
  2  3  1  0
  2  1  1  0
  3  4  1  0
  4  5  1  0
  6  5  1  0
  7 12  1  0
  7  1  1  0
  8  7  2  0
  9 10  2  0
  9  8  1  0
 10 11  1  0
 11 12  2  0
 13  9  1  0
 14 13  2  0
 15 16  1  0
 15 14  1  0
 16 17  2  0
 17 13  1  0
  1 18  1  0
  2 19  1  0
  2 20  1  0
  3 21  1  0
  3 22  1  0
  4 23  1  0
  4 24  1  0
  5 25  1  0
  5 26  1  0
  6 27  1  0
  6 28  1  0
  8 29  1  0
 11 30  1  0
 14 31  1  0
 15 32  1  0
 16 33  1  0
M  ISO  8  18  13  19  13  20  13  21  13  22  13  23  13  24  13  25  13
M  ISO  8  26  13  27  13  28  13  29  14  30  14  31  14  32   9  33  14
M  END
>  <minimizedAffinity>  (1) 
-5.18876266

>  <minimizedRMSD>  (1) 
0.587544024

$$$$
