
     RDKit          3D

 35 38  0  0  0  0  0  0  0  0999 V2000
   37.3099   29.3351   51.0248 Br  0  0  0  0  0  0  0  0  0  0  0  0
   35.9624   29.3280   49.6788 C   0  0  0  0  0  0  0  0  0  0  0  0
   35.9954   30.2482   48.6447 C   0  0  0  0  0  0  0  0  0  0  0  0
   34.9941   30.1907   47.7052 C   0  0  0  0  0  0  0  0  0  0  0  0
   33.9655   29.2556   47.7560 C   0  0  0  0  0  0  0  0  0  0  0  0
   33.9599   28.3657   48.7824 C   0  0  0  0  0  0  0  0  0  0  0  0
   34.9596   28.4127   49.7327 C   0  0  0  0  0  0  0  0  0  0  0  0
   37.9876   33.2009   49.4574 C   0  0  0  0  0  0  0  0  0  0  0  0
   39.0188   33.1768   48.4652 C   0  0  0  0  0  0  0  0  0  0  0  0
   39.0038   32.1470   47.5422 C   0  0  0  0  0  0  0  0  0  0  0  0
   38.0123   31.2068   47.6194 N   0  0  0  0  0  0  0  0  0  0  0  0
   37.0545   31.2438   48.5543 C   0  0  0  0  0  0  0  0  0  0  0  0
   37.0440   32.2517   49.4814 N   0  0  0  0  0  0  0  0  0  0  0  0
   32.9025   29.1932   46.7602 C   0  0  0  0  0  0  0  0  0  0  0  0
   32.2616   28.0469   46.3594 C   0  0  0  0  0  0  0  0  0  0  0  0
   31.2585   28.0348   45.4114 C   0  0  0  0  0  0  0  0  0  0  0  0
   30.8769   29.1738   44.8447 N   0  0  0  0  0  0  0  0  0  0  0  0
   31.4904   30.3250   45.2186 C   0  0  0  0  0  0  0  0  0  0  0  0
   32.4573   30.3115   46.1370 N   0  0  0  0  0  0  0  0  0  0  0  0
   34.9638   30.8788   46.8768 H   0  0  0  0  0  0  0  0  0  0  0  0
   33.1841   27.6086   48.8810 H   0  0  0  0  0  0  0  0  0  0  0  0
   34.9411   27.7047   50.5352 H   0  0  0  0  0  0  0  0  0  0  0  0
   37.9255   33.9559   50.2029 H   0  0  0  0  0  0  0  0  0  0  0  0
   39.7573   33.9593   48.4825 H   0  0  0  0  0  0  0  0  0  0  0  0
   39.7703   32.1017   46.7798 H   0  0  0  0  0  0  0  0  0  0  0  0
   32.5698   27.1076   46.8206 H   0  0  0  0  0  0  0  0  0  0  0  0
   30.7659   27.1227   45.1090 H   0  0  0  0  0  0  0  0  0  0  0  0
   31.2061   31.6803   44.7051 C   0  0  0  0  0  0  0  0  0  0  0  0
   30.1700   31.9752   43.8139 C   0  0  0  0  0  0  0  0  0  0  0  0
   29.4555   31.3092   43.3830 H   0  0  0  0  0  0  0  0  0  0  0  0
   30.2243   33.3129   43.5751 N   0  0  0  0  0  0  0  0  0  0  0  0
   29.5831   33.8385   42.9512 H   0  0  0  0  0  0  0  0  0  0  0  0
   31.2482   33.8459   44.2817 C   0  0  0  0  0  0  0  0  0  0  0  0
   31.5877   34.8729   44.3365 H   0  0  0  0  0  0  0  0  0  0  0  0
   31.8358   32.8444   44.9632 N   0  0  0  0  0  0  0  0  0  0  0  0
  2  7  2  0
  2  1  1  0
  3  2  1  0
  4  5  1  0
  4  3  2  0
  5  6  2  0
  6  7  1  0
  8 13  2  0
  9  8  1  0
 10 11  1  0
 10  9  2  0
 11 12  2  0
 12  3  1  0
 12 13  1  0
 14  5  1  0
 15 14  2  0
 16 15  1  0
 17 18  1  0
 17 16  2  0
 18 19  2  0
 19 14  1  0
  4 20  1  0
  6 21  1  0
  7 22  1  0
  8 23  1  0
  9 24  1  0
 10 25  1  0
 15 26  1  0
 16 27  1  0
 28 29  2  0
 29 30  1  0
 29 31  1  0
 31 32  1  0
 31 33  1  0
 33 34  1  0
 33 35  2  0
 35 28  1  0
 18 28  1  0
M  ISO  8  20  14  21  14  22  14  23  14  24  14  25  14  26  14  27  14
M  ISO  3  30  15  32   5  34  14
M  END
>  <DihAtoms>  (1) 
16,17,27,28

>  <DihDeg>  (1) 
-114.88825532325049

$$$$
