
     RDKit          3D

 41 45  0  0  0  0  0  0  0  0999 V2000
   33.8465   28.7882   48.2717 C   0  0  0  0  0  0  0  0  0  0  0  0
   34.4376   28.4291   49.4326 C   0  0  0  0  0  0  0  0  0  0  0  0
   35.7050   28.7936   49.8118 C   0  0  0  0  0  0  0  0  0  0  0  0
   36.4642   29.5785   48.9855 C   0  0  0  0  0  0  0  0  0  0  0  0
   35.8546   29.9545   47.7778 C   0  0  0  0  0  0  0  0  0  0  0  0
   34.5994   29.5661   47.4531 N   0  0  0  0  0  0  0  0  0  0  0  0
   31.6354   27.6554   48.7059 C   0  0  0  0  0  0  0  0  0  0  0  0
   32.5096   28.3918   47.8938 C   0  0  0  0  0  0  0  0  0  0  0  0
   32.0288   28.7513   46.6436 C   0  0  0  0  0  0  0  0  0  0  0  0
   30.7675   28.3827   46.2752 N   0  0  0  0  0  0  0  0  0  0  0  0
   29.9768   27.6749   47.1022 C   0  0  0  0  0  0  0  0  0  0  0  0
   30.4095   27.3126   48.3136 N   0  0  0  0  0  0  0  0  0  0  0  0
   37.7550   30.0503   49.1849 O   0  0  0  0  0  0  0  0  0  0  0  0
   38.1547   31.3084   48.7904 C   0  0  0  0  0  0  0  0  0  0  0  0
   37.8606   32.3385   49.6843 C   0  0  0  0  0  0  0  0  0  0  0  0
   38.3358   33.5189   49.1179 C   0  0  0  0  0  0  0  0  0  0  0  0
   38.8879   33.1737   47.9303 N   0  0  0  0  0  0  0  0  0  0  0  0
   38.7780   31.8807   47.7465 N   0  0  0  0  0  0  0  0  0  0  0  0
   33.9223   27.8095   50.1549 H   0  0  0  0  0  0  0  0  0  0  0  0
   36.1899   28.5133   50.7375 H   0  0  0  0  0  0  0  0  0  0  0  0
   36.3008   30.5772   46.9920 H   0  0  0  0  0  0  0  0  0  0  0  0
   31.9887   27.3676   49.6771 H   0  0  0  0  0  0  0  0  0  0  0  0
   32.6247   29.3194   45.9432 H   0  0  0  0  0  0  0  0  0  0  0  0
   29.0089   27.4681   46.6507 H   0  0  0  0  0  0  0  0  0  0  0  0
   37.3737   32.3929   50.6546 H   0  0  0  0  0  0  0  0  0  0  0  0
   38.2901   34.5415   49.5230 H   0  0  0  0  0  0  0  0  0  0  0  0
   40.5103   33.8382   46.1612 C   0  0  0  0  0  0  0  0  0  0  0  0
   39.4856   34.1213   47.0522 C   0  0  0  0  0  0  0  0  0  0  0  0
   38.9425   35.3991   47.1610 C   0  0  0  0  0  0  0  0  0  0  0  0
   38.1503   35.6715   47.8326 H   0  0  0  0  0  0  0  0  0  0  0  0
   39.4464   36.4135   46.3513 C   0  0  0  0  0  0  0  0  0  0  0  0
   39.1842   37.7401   46.1751 N   0  0  0  0  0  0  0  0  0  0  0  0
   38.4316   38.1949   46.7500 H   0  0  0  0  0  0  0  0  0  0  0  0
   40.0030   38.2383   45.2298 C   0  0  0  0  0  0  0  0  0  0  0  0
   39.9880   39.2786   44.9092 H   0  0  0  0  0  0  0  0  0  0  0  0
   40.8414   37.2584   44.7421 C   0  0  0  0  0  0  0  0  0  0  0  0
   40.4693   36.1191   45.4657 C   0  0  0  0  0  0  0  0  0  0  0  0
   41.0150   34.8398   45.3548 C   0  0  0  0  0  0  0  0  0  0  0  0
   40.8779   32.8098   46.1403 H   0  0  0  0  0  0  0  0  0  0  0  0
   41.6119   37.3183   43.9843 H   0  0  0  0  0  0  0  0  0  0  0  0
   41.8131   34.6199   44.6608 H   0  0  0  0  0  0  0  0  0  0  0  0
  1  2  2  0
  2  3  1  0
  4 13  1  0
  4  3  2  0
  5  4  1  0
  6  5  2  0
  6  1  1  0
  8  1  1  0
  8  7  2  0
  9  8  1  0
 10  9  2  0
 10 11  1  0
 11 12  2  0
 12  7  1  0
 14 13  1  0
 14 15  1  0
 16 15  2  0
 17 16  1  0
 18 17  1  0
 18 14  2  0
  2 19  1  0
  3 20  1  0
  5 21  1  0
  7 22  1  0
  9 23  1  0
 11 24  1  0
 15 25  1  0
 16 26  1  0
 27 28  2  0
 28 29  1  0
 29 30  1  0
 29 31  2  0
 31 32  1  0
 32 33  1  0
 32 34  1  0
 34 35  1  0
 34 36  2  0
 36 37  1  0
 37 38  2  0
 38 27  1  0
 37 31  1  0
 27 39  1  0
 36 40  1  0
 38 41  1  0
 17 28  1  0
M  ISO  8  19  14  20  14  21  14  22  14  23  14  24  14  25  14  26  14
M  ISO  3  30  15  33   5  35  14
M  END
>  <DihAtoms>  (1) 
15,16,27,26

>  <DihDeg>  (1) 
-88.39976998750859

$$$$
