
     RDKit          3D

 34 37  0  0  0  0  0  0  0  0999 V2000
   37.9834   33.1668   49.4334 C   0  0  0  0  0  0  0  0  0  0  0  0
   39.0114   33.1602   48.4650 C   0  0  0  0  0  0  0  0  0  0  0  0
   39.0067   32.1286   47.5379 C   0  0  0  0  0  0  0  0  0  0  0  0
   38.0292   31.1762   47.5929 N   0  0  0  0  0  0  0  0  0  0  0  0
   37.0565   31.2178   48.5409 C   0  0  0  0  0  0  0  0  0  0  0  0
   37.0433   32.2222   49.4603 N   0  0  0  0  0  0  0  0  0  0  0  0
   37.2726   29.3576   51.0583 Br  0  0  0  0  0  0  0  0  0  0  0  0
   35.9543   29.3165   49.6634 C   0  0  0  0  0  0  0  0  0  0  0  0
   36.0046   30.2139   48.6186 C   0  0  0  0  0  0  0  0  0  0  0  0
   35.0197   30.1207   47.6530 C   0  0  0  0  0  0  0  0  0  0  0  0
   34.0042   29.1807   47.6920 C   0  0  0  0  0  0  0  0  0  0  0  0
   33.9888   28.3085   48.7441 C   0  0  0  0  0  0  0  0  0  0  0  0
   34.9632   28.3813   49.7232 C   0  0  0  0  0  0  0  0  0  0  0  0
   37.9366   33.9567   50.1905 H   0  0  0  0  0  0  0  0  0  0  0  0
   39.7640   33.9362   48.4614 H   0  0  0  0  0  0  0  0  0  0  0  0
   39.7684   32.0702   46.7716 H   0  0  0  0  0  0  0  0  0  0  0  0
   35.0199   30.8032   46.8162 H   0  0  0  0  0  0  0  0  0  0  0  0
   33.2250   27.5622   48.8202 H   0  0  0  0  0  0  0  0  0  0  0  0
   34.9043   27.6688   50.5328 H   0  0  0  0  0  0  0  0  0  0  0  0
   31.6976   29.5639   46.8004 C   0  0  0  0  0  0  0  0  0  0  0  0
   32.9942   29.1128   46.6686 C   0  0  0  0  0  0  0  0  0  0  0  0
   33.2830   28.5640   45.4362 C   0  0  0  0  0  0  0  0  0  0  0  0
   34.3030   28.1941   45.2930 H   0  0  0  0  0  0  0  0  0  0  0  0
   32.4205   28.4341   44.3697 C   0  0  0  0  0  0  0  0  0  0  0  0
   32.5598   27.9301   43.1327 N   0  0  0  0  0  0  0  0  0  0  0  0
   33.4521   27.5206   42.7765 H   0  0  0  0  0  0  0  0  0  0  0  0
   31.3431   28.0846   42.5349 C   0  0  0  0  0  0  0  0  0  0  0  0
   31.2592   27.7291   41.5111 H   0  0  0  0  0  0  0  0  0  0  0  0
   30.4616   28.6832   43.4083 C   0  0  0  0  0  0  0  0  0  0  0  0
   31.1271   28.9187   44.5942 C   0  0  0  0  0  0  0  0  0  0  0  0
   30.7586   29.4806   45.7957 C   0  0  0  0  0  0  0  0  0  0  0  0
   31.4233   30.0080   47.7654 H   0  0  0  0  0  0  0  0  0  0  0  0
   29.4520   28.9018   43.1561 H   0  0  0  0  0  0  0  0  0  0  0  0
   29.7446   29.8387   45.9137 H   0  0  0  0  0  0  0  0  0  0  0  0
  1  6  2  0
  2  1  1  0
  3  4  1  0
  3  2  2  0
  4  5  2  0
  5  9  1  0
  5  6  1  0
  8 13  2  0
  8  7  1  0
  9  8  1  0
 10 11  1  0
 10  9  2  0
 11 12  2  0
 12 13  1  0
  1 14  1  0
  2 15  1  0
  3 16  1  0
 10 17  1  0
 12 18  1  0
 13 19  1  0
 20 21  2  0
 21 22  1  0
 22 23  1  0
 22 24  2  0
 24 25  1  0
 25 26  1  0
 25 27  1  0
 27 28  1  0
 27 29  2  0
 29 30  1  0
 30 31  2  0
 31 20  1  0
 30 24  1  0
 20 32  1  0
 29 33  1  0
 31 34  1  0
 11 21  1  0
M  ISO  8  14  14  15  14  16  14  17  14  18  14  19  14  23  15  26   5
M  ISO  1  28  14
M  END
>  <DihAtoms>  (1) 
9,10,20,19

>  <DihDeg>  (1) 
-148.88688351323196

$$$$
