
     RDKit          3D

 40 43  0  0  0  0  0  0  0  0999 V2000
   37.9176   31.6094   49.8506 C   0  0  0  0  0  0  0  0  0  0  0  0
   37.9272   31.6408   48.4531 C   0  0  0  0  0  0  0  0  0  0  0  0
   37.0783   30.8291   47.7664 C   0  0  0  0  0  0  0  0  0  0  0  0
   36.2404   30.0293   48.4965 N   0  0  0  0  0  0  0  0  0  0  0  0
   36.2303   30.0145   49.8389 C   0  0  0  0  0  0  0  0  0  0  0  0
   37.0755   30.8020   50.5021 N   0  0  0  0  0  0  0  0  0  0  0  0
   38.1985   31.1999   45.6435 C   0  0  0  0  0  0  0  0  0  0  0  0
   37.0869   30.8154   46.3283 C   0  0  0  0  0  0  0  0  0  0  0  0
   35.9508   30.4674   45.6276 C   0  0  0  0  0  0  0  0  0  0  0  0
   35.8670   30.4906   44.2516 C   0  0  0  0  0  0  0  0  0  0  0  0
   36.9791   30.8841   43.5240 C   0  0  0  0  0  0  0  0  0  0  0  0
   38.0966   31.2220   44.2379 C   0  0  0  0  0  0  0  0  0  0  0  0
   39.6687   31.6456   46.3804 S   0  0  0  0  0  0  0  0  0  0  0  0
   40.1061   33.0223   46.0609 O   0  0  0  0  0  0  0  0  0  0  0  0
   40.7166   30.9304   45.5794 O   0  0  0  0  0  0  0  0  0  0  0  0
   35.1721   29.2125   50.4912 C   0  0  0  0  0  0  0  0  0  0  0  0
   35.3717   29.0927   51.8513 F   0  0  0  0  0  0  0  0  0  0  0  0
   33.8981   29.8679   50.3935 F   0  0  0  0  0  0  0  0  0  0  0  0
   34.9504   28.0139   49.9538 F   0  0  0  0  0  0  0  0  0  0  0  0
   38.5267   32.1742   50.5698 H   0  0  0  0  0  0  0  0  0  0  0  0
   38.5825   32.4370   48.2002 H   0  0  0  0  0  0  0  0  0  0  0  0
   35.0633   30.1548   46.1863 H   0  0  0  0  0  0  0  0  0  0  0  0
   34.9470   30.2049   43.7678 H   0  0  0  0  0  0  0  0  0  0  0  0
   36.9727   30.9248   42.4483 H   0  0  0  0  0  0  0  0  0  0  0  0
   38.9741   31.5323   43.6622 H   0  0  0  0  0  0  0  0  0  0  0  0
   39.8051   29.6144   48.0917 C   0  0  0  0  0  0  0  0  0  0  0  0
   40.4506   30.7926   47.6581 C   0  0  0  0  0  0  0  0  0  0  0  0
   41.6296   31.0356   48.3114 C   0  0  0  0  0  0  0  0  0  0  0  0
   42.1095   31.9625   47.9522 H   0  0  0  0  0  0  0  0  0  0  0  0
   42.2102   30.2689   49.3025 C   0  0  0  0  0  0  0  0  0  0  0  0
   43.3636   30.4837   49.9581 N   0  0  0  0  0  0  0  0  0  0  0  0
   44.0111   31.2878   49.8097 H   0  0  0  0  0  0  0  0  0  0  0  0
   43.4557   29.4412   50.8110 C   0  0  0  0  0  0  0  0  0  0  0  0
   44.2603   29.2697   51.5114 H   0  0  0  0  0  0  0  0  0  0  0  0
   42.3586   28.5939   50.6733 C   0  0  0  0  0  0  0  0  0  0  0  0
   41.5356   29.1360   49.6800 C   0  0  0  0  0  0  0  0  0  0  0  0
   40.3520   28.8288   49.0732 C   0  0  0  0  0  0  0  0  0  0  0  0
   38.8646   29.2879   47.6722 H   0  0  0  0  0  0  0  0  0  0  0  0
   42.1283   27.6772   51.2025 H   0  0  0  0  0  0  0  0  0  0  0  0
   39.8393   27.9258   49.3922 H   0  0  0  0  0  0  0  0  0  0  0  0
  1  6  2  0
  2  1  1  0
  3  2  2  0
  3  4  1  0
  4  5  2  0
  5 16  1  0
  5  6  1  0
  7  8  1  0
  7 13  1  0
  8  3  1  0
  9  8  2  0
 10  9  1  0
 11 12  1  0
 11 10  2  0
 12  7  2  0
 14 13  2  0
 15 13  2  0
 16 17  1  0
 18 16  1  0
 19 16  1  0
  1 20  1  0
  2 21  1  0
  9 22  1  0
 10 23  1  0
 11 24  1  0
 12 25  1  0
 26 27  2  0
 27 28  1  0
 28 29  1  0
 28 30  2  0
 30 31  1  0
 31 32  1  0
 31 33  1  0
 33 34  1  0
 33 35  2  0
 35 36  1  0
 36 37  2  0
 37 26  1  0
 36 30  1  0
 26 38  1  0
 35 39  1  0
 37 40  1  0
 13 27  1  0
M  ISO  8  20  14  21  14  22  14  23  14  24  14  25  14  29  15  32   5
M  ISO  1  34  14
M  END
>  <DihAtoms>  (1) 
6,12,26,25

>  <DihDeg>  (1) 
-148.7531779496395

$$$$
