
     RDKit          3D

 48 52  0  0  0  0  0  0  0  0999 V2000
   37.1016   29.8367   47.0945 C   0  0  0  0  0  0  0  0  0  0  0  0
   34.7018   30.0035   47.5908 C   0  0  0  0  0  0  0  0  0  0  0  0
   35.7380   30.0234   46.6994 C   0  0  0  0  0  0  0  0  0  0  0  0
   35.3414   30.1749   45.4115 C   0  0  0  0  0  0  0  0  0  0  0  0
   34.0586   30.2917   45.0422 N   0  0  0  0  0  0  0  0  0  0  0  0
   33.0604   30.2695   45.9048 C   0  0  0  0  0  0  0  0  0  0  0  0
   33.3693   30.1247   47.1904 N   0  0  0  0  0  0  0  0  0  0  0  0
   34.9604   30.0058   49.0985 C   0  0  0  0  0  0  0  0  0  0  0  0
   34.0047   29.6505   50.0377 C   0  0  0  0  0  0  0  0  0  0  0  0
   34.8617   28.4900   49.5576 C   0  0  0  0  0  0  0  0  0  0  0  0
   38.0581   30.9138   46.7501 C   0  0  0  0  0  0  0  0  0  0  0  0
   39.5765   33.1280   46.0574 F   0  0  0  0  0  0  0  0  0  0  0  0
   39.1585   32.9294   47.3285 C   0  0  0  0  0  0  0  0  0  0  0  0
   38.3934   31.8423   47.7774 C   0  0  0  0  0  0  0  0  0  0  0  0
   38.0989   31.8190   49.0984 C   0  0  0  0  0  0  0  0  0  0  0  0
   38.4902   32.7717   49.9810 C   0  0  0  0  0  0  0  0  0  0  0  0
   39.2528   33.8569   49.5296 C   0  0  0  0  0  0  0  0  0  0  0  0
   39.5828   33.9146   48.1794 C   0  0  0  0  0  0  0  0  0  0  0  0
   40.3560   35.0185   47.8208 O   0  0  0  0  0  0  0  0  0  0  0  0
   37.1595   29.5446   48.1632 H   0  0  0  0  0  0  0  0  0  0  0  0
   37.4761   28.9086   46.5593 H   0  0  0  0  0  0  0  0  0  0  0  0
   36.0688   30.2103   44.5850 H   0  0  0  0  0  0  0  0  0  0  0  0
   32.0593   30.3683   45.5297 H   0  0  0  0  0  0  0  0  0  0  0  0
   35.8708   30.4225   49.4467 H   0  0  0  0  0  0  0  0  0  0  0  0
   32.9267   29.5514   49.7056 H   0  0  0  0  0  0  0  0  0  0  0  0
   34.0377   29.9185   51.0953 H   0  0  0  0  0  0  0  0  0  0  0  0
   34.4258   27.7689   48.8849 H   0  0  0  0  0  0  0  0  0  0  0  0
   35.7295   28.1926   50.1425 H   0  0  0  0  0  0  0  0  0  0  0  0
   38.9995   30.5293   46.2923 H   0  0  0  0  0  0  0  0  0  0  0  0
   37.5820   31.4933   45.9034 H   0  0  0  0  0  0  0  0  0  0  0  0
   37.6083   31.0436   49.6061 H   0  0  0  0  0  0  0  0  0  0  0  0
   38.2820   32.8097   51.0438 H   0  0  0  0  0  0  0  0  0  0  0  0
   39.5842   34.6450   50.2197 H   0  0  0  0  0  0  0  0  0  0  0  0
   41.1594   36.7610   46.6238 C   0  0  0  0  0  0  0  0  0  0  0  0
   40.0310   35.9881   46.9275 C   0  0  0  0  0  0  0  0  0  0  0  0
   38.8530   36.3303   46.2987 C   0  0  0  0  0  0  0  0  0  0  0  0
   38.0418   35.6902   46.5819 H   0  0  0  0  0  0  0  0  0  0  0  0
   38.7936   37.3858   45.4126 C   0  0  0  0  0  0  0  0  0  0  0  0
   37.7215   37.8275   44.7333 N   0  0  0  0  0  0  0  0  0  0  0  0
   36.7537   37.4585   44.7518 H   0  0  0  0  0  0  0  0  0  0  0  0
   38.0952   38.8780   43.9790 C   0  0  0  0  0  0  0  0  0  0  0  0
   37.5528   39.5216   43.2896 H   0  0  0  0  0  0  0  0  0  0  0  0
   39.4419   39.0899   44.2015 C   0  0  0  0  0  0  0  0  0  0  0  0
   39.9071   38.1564   45.1065 C   0  0  0  0  0  0  0  0  0  0  0  0
   41.1030   37.8332   45.7248 C   0  0  0  0  0  0  0  0  0  0  0  0
   42.1704   36.6435   47.0184 H   0  0  0  0  0  0  0  0  0  0  0  0
   40.1610   39.8225   43.8104 H   0  0  0  0  0  0  0  0  0  0  0  0
   41.9254   38.4493   45.4600 H   0  0  0  0  0  0  0  0  0  0  0  0
  2  8  1  0
  3  1  1  0
  3  2  1  0
  4  3  2  0
  5  4  1  0
  5  6  2  0
  6  7  1  0
  7  2  2  0
  8 10  1  0
  8  9  1  0
 10  9  1  0
 11  1  1  0
 11 14  1  0
 12 13  1  0
 13 14  2  0
 13 18  1  0
 14 15  1  0
 15 16  2  0
 17 16  1  0
 18 17  2  0
 19 18  1  0
  1 20  1  0
  1 21  1  0
  4 22  1  0
  6 23  1  0
  8 24  1  0
  9 25  1  0
  9 26  1  0
 10 27  1  0
 10 28  1  0
 11 29  1  0
 11 30  1  0
 15 31  1  0
 16 32  1  0
 17 33  1  0
 34 35  2  0
 35 36  1  0
 36 37  1  0
 36 38  2  0
 38 39  1  0
 39 40  1  0
 39 41  1  0
 41 42  1  0
 41 43  2  0
 43 44  1  0
 44 45  2  0
 45 34  1  0
 44 38  1  0
 34 46  1  0
 43 47  1  0
 45 48  1  0
 19 35  1  0
M  ISO  8  20   8  21   8  22  14  23  14  24  13  25  13  26  13  27  13
M  ISO  8  28  13  29   8  30   8  31  14  32  14  33  14  37  15  40   5
M  ISO  1  42  14
M  END
>  <DihAtoms>  (1) 
17,18,34,33

>  <DihDeg>  (1) 
87.56934351858222

$$$$
