
     RDKit          3D

 46 50  0  0  1  0  0  0  0  0999 V2000
   37.7700   31.8640   49.5780 C   0  0  0  0  0  0  0  0  0  0  0  0
   36.7760   32.3700   50.1850 O   0  0  0  0  0  0  0  0  0  0  0  0
   34.5480   29.1450   48.6020 C   0  0  2  0  0  0  0  0  0  0  0  0
   35.1800   28.4110   49.7350 C   0  0  0  0  0  0  0  0  0  0  0  0
   36.3160   29.1830   50.2370 N   0  0  0  0  0  0  0  0  0  0  0  0
   37.2610   29.9100   51.0350 C   0  0  0  0  0  0  0  0  0  0  0  0
   37.4670   30.0900   52.2480 O   0  0  0  0  0  0  0  0  0  0  0  0
   37.9910   30.4370   49.9120 C   0  0  1  0  0  0  0  0  0  0  0  0
   37.1640   29.4350   49.1140 C   0  0  2  0  0  0  0  0  0  0  0  0
   35.9590   30.1490   47.9710 S   0  0  0  0  0  0  0  0  0  0  0  0
   33.3420   29.9610   48.9200 C   0  0  0  0  0  0  0  0  0  0  0  0
   34.2660   28.1370   47.4750 C   0  0  0  0  0  0  0  0  0  0  0  0
   34.3330   28.8090   46.2520 O   0  0  0  0  0  0  0  0  0  0  0  0
   38.5920   32.6040   48.6700 C   0  0  0  0  0  0  0  0  0  0  0  0
   39.2220   33.7370   49.1350 C   0  0  0  0  0  0  0  0  0  0  0  0
   40.0320   34.4620   48.2340 C   0  0  0  0  0  0  0  0  0  0  0  0
   40.1440   33.9990   46.9510 N   0  0  0  0  0  0  0  0  0  0  0  0
   39.5200   32.9050   46.5430 C   0  0  0  0  0  0  0  0  0  0  0  0
   38.7430   32.1960   47.3860 N   0  0  0  0  0  0  0  0  0  0  0  0
   39.1910   33.2440   44.1040 C   0  0  0  0  0  0  0  0  0  0  0  0
   39.6900   32.4750   45.1560 C   0  0  0  0  0  0  0  0  0  0  0  0
   40.3690   31.2730   44.9420 C   0  0  0  0  0  0  0  0  0  0  0  0
   40.5460   30.8390   43.6280 C   0  0  0  0  0  0  0  0  0  0  0  0
   41.1620   29.7250   43.2030 N   0  0  0  0  0  0  0  0  0  0  0  0
   41.1090   29.6880   41.8410 C   0  0  0  0  0  0  0  0  0  0  0  0
   40.4310   30.8330   41.4660 C   0  0  0  0  0  0  0  0  0  0  0  0
   40.0620   31.5810   42.5650 C   0  0  0  0  0  0  0  0  0  0  0  0
   39.3950   32.7660   42.8030 C   0  0  0  0  0  0  0  0  0  0  0  0
   34.4437   28.2744   50.5407 H   0  0  0  0  0  0  0  0  0  0  0  0
   35.5277   27.4267   49.3883 H   0  0  0  0  0  0  0  0  0  0  0  0
   39.0892   30.4924   49.8832 H   0  0  0  0  0  0  0  0  0  0  0  0
   37.7623   28.7045   48.5496 H   0  0  0  0  0  0  0  0  0  0  0  0
   33.2286   30.0377   50.0114 H   0  0  0  0  0  0  0  0  0  0  0  0
   33.4570   30.9676   48.4916 H   0  0  0  0  0  0  0  0  0  0  0  0
   32.4504   29.4799   48.4916 H   0  0  0  0  0  0  0  0  0  0  0  0
   35.0175   27.3340   47.4988 H   0  0  0  0  0  0  0  0  0  0  0  0
   33.2681   27.6935   47.6071 H   0  0  0  0  0  0  0  0  0  0  0  0
   34.4299   29.7808   46.4143 H   0  0  0  0  0  0  0  0  0  0  0  0
   39.0979   34.0671   50.1769 H   0  0  0  0  0  0  0  0  0  0  0  0
   40.5582   35.3733   48.5543 H   0  0  0  0  0  0  0  0  0  0  0  0
   38.6583   34.1885   44.2889 H   0  0  0  0  0  0  0  0  0  0  0  0
   40.7540   30.6841   45.7875 H   0  0  0  0  0  0  0  0  0  0  0  0
   41.6021   29.0153   43.8060 H   0  0  0  0  0  0  0  0  0  0  0  0
   41.5194   28.9106   41.1797 H   0  0  0  0  0  0  0  0  0  0  0  0
   40.2135   31.1120   40.4244 H   0  0  0  0  0  0  0  0  0  0  0  0
   39.0147   33.3487   41.9510 H   0  0  0  0  0  0  0  0  0  0  0  0
  1  8  1  0
  1  2  2  0
  3 12  1  6
  3 11  1  0
  3  4  1  0
  4  5  1  0
  5  6  1  0
  6  7  2  0
  8  6  1  0
  9  8  1  0
  9  5  1  0
 10  3  1  0
 10  9  1  0
 13 12  1  0
 14 15  2  0
 14  1  1  0
 16 15  1  0
 17 16  2  0
 18 17  1  0
 18 19  2  0
 19 14  1  0
 20 21  2  0
 21 18  1  0
 22 21  1  0
 23 22  2  0
 24 23  1  0
 25 24  1  0
 26 25  2  0
 26 27  1  0
 27 28  2  0
 27 23  1  0
 28 20  1  0
  4 29  1  0
  4 30  1  0
  8 31  1  1
  9 32  1  6
 11 33  1  0
 11 34  1  0
 11 35  1  0
 12 36  1  0
 12 37  1  0
 13 38  1  0
 15 39  1  0
 16 40  1  0
 20 41  1  0
 22 42  1  0
 24 43  1  0
 25 44  1  0
 26 45  1  0
 28 46  1  0
M  ISO  8  29  13  30  13  31  13  32  13  33   8  34   8  35   8  36   8
M  ISO  8  37   8  38   3  39  14  40  14  41  14  42  14  43   9  44  14
M  ISO  2  45  14  46  14
M  END
>  <minimizedAffinity>  (1) 
-6.82556105

>  <minimizedRMSD>  (1) 
0.307850718

$$$$
