
     RDKit          3D

 41 45  0  0  0  0  0  0  0  0999 V2000
   33.8465   28.7882   48.2717 C   0  0  0  0  0  0  0  0  0  0  0  0
   34.4376   28.4291   49.4326 C   0  0  0  0  0  0  0  0  0  0  0  0
   35.7050   28.7936   49.8118 C   0  0  0  0  0  0  0  0  0  0  0  0
   36.4642   29.5785   48.9855 C   0  0  0  0  0  0  0  0  0  0  0  0
   35.8546   29.9545   47.7778 C   0  0  0  0  0  0  0  0  0  0  0  0
   34.5994   29.5661   47.4531 N   0  0  0  0  0  0  0  0  0  0  0  0
   31.6354   27.6554   48.7059 C   0  0  0  0  0  0  0  0  0  0  0  0
   32.5096   28.3918   47.8938 C   0  0  0  0  0  0  0  0  0  0  0  0
   32.0288   28.7513   46.6436 C   0  0  0  0  0  0  0  0  0  0  0  0
   30.7675   28.3827   46.2752 N   0  0  0  0  0  0  0  0  0  0  0  0
   29.9768   27.6749   47.1022 C   0  0  0  0  0  0  0  0  0  0  0  0
   30.4095   27.3126   48.3136 N   0  0  0  0  0  0  0  0  0  0  0  0
   37.7550   30.0503   49.1849 O   0  0  0  0  0  0  0  0  0  0  0  0
   38.1547   31.3084   48.7904 C   0  0  0  0  0  0  0  0  0  0  0  0
   37.8606   32.3385   49.6843 C   0  0  0  0  0  0  0  0  0  0  0  0
   38.3358   33.5189   49.1179 C   0  0  0  0  0  0  0  0  0  0  0  0
   38.8879   33.1737   47.9303 N   0  0  0  0  0  0  0  0  0  0  0  0
   38.7780   31.8807   47.7465 N   0  0  0  0  0  0  0  0  0  0  0  0
   33.9223   27.8095   50.1549 H   0  0  0  0  0  0  0  0  0  0  0  0
   36.1899   28.5133   50.7375 H   0  0  0  0  0  0  0  0  0  0  0  0
   36.3008   30.5772   46.9920 H   0  0  0  0  0  0  0  0  0  0  0  0
   31.9887   27.3676   49.6771 H   0  0  0  0  0  0  0  0  0  0  0  0
   32.6247   29.3194   45.9432 H   0  0  0  0  0  0  0  0  0  0  0  0
   29.0089   27.4681   46.6507 H   0  0  0  0  0  0  0  0  0  0  0  0
   37.3737   32.3929   50.6546 H   0  0  0  0  0  0  0  0  0  0  0  0
   38.2901   34.5415   49.5230 H   0  0  0  0  0  0  0  0  0  0  0  0
   40.3803   35.1070   47.4419 C   0  0  0  0  0  0  0  0  0  0  0  0
   39.4856   34.1213   47.0522 C   0  0  0  0  0  0  0  0  0  0  0  0
   39.0884   33.9766   45.7252 C   0  0  0  0  0  0  0  0  0  0  0  0
   38.4003   33.2325   45.3707 H   0  0  0  0  0  0  0  0  0  0  0  0
   39.6070   34.8476   44.7708 C   0  0  0  0  0  0  0  0  0  0  0  0
   39.4637   35.0155   43.4251 N   0  0  0  0  0  0  0  0  0  0  0  0
   38.8234   34.3742   42.8936 H   0  0  0  0  0  0  0  0  0  0  0  0
   40.2280   36.0457   43.0169 C   0  0  0  0  0  0  0  0  0  0  0  0
   40.2855   36.3783   41.9818 H   0  0  0  0  0  0  0  0  0  0  0  0
   40.9088   36.6015   44.0792 C   0  0  0  0  0  0  0  0  0  0  0  0
   40.4993   35.8277   45.1716 C   0  0  0  0  0  0  0  0  0  0  0  0
   40.8988   35.9747   46.5003 C   0  0  0  0  0  0  0  0  0  0  0  0
   40.6380   35.1502   48.5025 H   0  0  0  0  0  0  0  0  0  0  0  0
   41.6001   37.4341   44.1012 H   0  0  0  0  0  0  0  0  0  0  0  0
   41.5956   36.7425   46.8034 H   0  0  0  0  0  0  0  0  0  0  0  0
  1  2  2  0
  2  3  1  0
  4 13  1  0
  4  3  2  0
  5  4  1  0
  6  5  2  0
  6  1  1  0
  8  1  1  0
  8  7  2  0
  9  8  1  0
 10  9  2  0
 10 11  1  0
 11 12  2  0
 12  7  1  0
 14 13  1  0
 14 15  1  0
 16 15  2  0
 17 16  1  0
 18 17  1  0
 18 14  2  0
  2 19  1  0
  3 20  1  0
  5 21  1  0
  7 22  1  0
  9 23  1  0
 11 24  1  0
 15 25  1  0
 16 26  1  0
 27 28  2  0
 28 29  1  0
 29 30  1  0
 29 31  2  0
 31 32  1  0
 32 33  1  0
 32 34  1  0
 34 35  1  0
 34 36  2  0
 36 37  1  0
 37 38  2  0
 38 27  1  0
 37 31  1  0
 27 39  1  0
 36 40  1  0
 38 41  1  0
 17 28  1  0
M  ISO  8  19  14  20  14  21  14  22  14  23  14  24  14  25  14  26  14
M  ISO  3  30  15  33   5  35  14
M  END
>  <DihAtoms>  (1) 
15,16,27,26

>  <DihDeg>  (1) 
-88.39976998750859

$$$$
