
     RDKit          3D

 37 40  0  0  0  0  0  0  0  0999 V2000
   36.8039   32.1825   50.1238 Cl  0  0  0  0  0  0  0  0  0  0  0  0
   37.5415   31.9178   48.5770 C   0  0  0  0  0  0  0  0  0  0  0  0
   36.9630   30.9048   47.8756 C   0  0  0  0  0  0  0  0  0  0  0  0
   37.4929   30.6103   46.5993 C   0  0  0  0  0  0  0  0  0  0  0  0
   38.5434   31.3096   46.0831 C   0  0  0  0  0  0  0  0  0  0  0  0
   39.1017   32.3244   46.8181 C   0  0  0  0  0  0  0  0  0  0  0  0
   40.4391   33.2386   46.1986 Cl  0  0  0  0  0  0  0  0  0  0  0  0
   38.5968   32.6118   48.0450 C   0  0  0  0  0  0  0  0  0  0  0  0
   36.0397   29.0918   49.2563 C   0  0  0  0  0  0  0  0  0  0  0  0
   35.8349   30.0280   48.2342 C   0  0  0  0  0  0  0  0  0  0  0  0
   34.5844   30.0924   47.6024 C   0  0  0  0  0  0  0  0  0  0  0  0
   33.6338   29.2175   48.0389 N   0  0  0  0  0  0  0  0  0  0  0  0
   33.8585   28.3290   49.0227 C   0  0  0  0  0  0  0  0  0  0  0  0
   35.0767   28.2612   49.6432 N   0  0  0  0  0  0  0  0  0  0  0  0
   39.1360   33.6857   48.9005 C   0  0  0  0  0  0  0  0  0  0  0  0
   39.2674   34.9003   48.6663 O   0  0  0  0  0  0  0  0  0  0  0  0
   39.6304   33.5272   50.2158 O   0  0  0  0  0  0  0  0  0  0  0  0
   37.1015   29.8249   45.9678 H   0  0  0  0  0  0  0  0  0  0  0  0
   38.9592   31.0901   45.0996 H   0  0  0  0  0  0  0  0  0  0  0  0
   36.9761   28.9793   49.7931 H   0  0  0  0  0  0  0  0  0  0  0  0
   34.4852   30.8178   46.8375 H   0  0  0  0  0  0  0  0  0  0  0  0
   32.9551   27.7415   49.1954 H   0  0  0  0  0  0  0  0  0  0  0  0
   39.5293   34.8775   52.1819 C   0  0  0  0  0  0  0  0  0  0  0  0
   40.1198   34.5547   50.9674 C   0  0  0  0  0  0  0  0  0  0  0  0
   41.2036   35.2597   50.5000 C   0  0  0  0  0  0  0  0  0  0  0  0
   41.6451   34.9902   49.5537 H   0  0  0  0  0  0  0  0  0  0  0  0
   41.7020   36.2998   51.2569 C   0  0  0  0  0  0  0  0  0  0  0  0
   42.7331   37.1432   51.0466 N   0  0  0  0  0  0  0  0  0  0  0  0
   43.3518   37.1218   50.2044 H   0  0  0  0  0  0  0  0  0  0  0  0
   42.8037   37.9870   52.0994 C   0  0  0  0  0  0  0  0  0  0  0  0
   43.5594   38.7713   52.1706 H   0  0  0  0  0  0  0  0  0  0  0  0
   41.7990   37.6879   53.0138 C   0  0  0  0  0  0  0  0  0  0  0  0
   41.1180   36.6256   52.4668 C   0  0  0  0  0  0  0  0  0  0  0  0
   40.0247   35.9295   52.9589 C   0  0  0  0  0  0  0  0  0  0  0  0
   38.6641   34.3086   52.5466 H   0  0  0  0  0  0  0  0  0  0  0  0
   41.6832   38.2403   53.9160 H   0  0  0  0  0  0  0  0  0  0  0  0
   39.5817   36.1908   53.8959 H   0  0  0  0  0  0  0  0  0  0  0  0
  2  1  1  0
  3 10  1  0
  3  2  2  0
  4  3  1  0
  5  4  2  0
  5  6  1  0
  6  8  2  0
  7  6  1  0
  8  2  1  0
  8 15  1  0
  9 14  2  0
 10  9  1  0
 11 12  1  0
 11 10  2  0
 12 13  2  0
 13 14  1  0
 15 17  1  0
 16 15  2  0
  4 18  1  0
  5 19  1  0
  9 20  1  0
 11 21  1  0
 13 22  1  0
 23 24  2  0
 24 25  1  0
 25 26  1  0
 25 27  2  0
 27 28  1  0
 28 29  1  0
 28 30  1  0
 30 31  1  0
 30 32  2  0
 32 33  1  0
 33 34  2  0
 34 23  1  0
 33 27  1  0
 23 35  1  0
 32 36  1  0
 34 37  1  0
 17 24  1  0
M  ISO  8  18  14  19  14  20  14  21  14  22  14  26  15  29   5  31  14
M  END
>  <DihAtoms>  (1) 
14,16,23,22

>  <DihDeg>  (1) 
90.00164790731498

$$$$
