
     RDKit          3D

 34 37  0  0  0  0  0  0  0  0999 V2000
   37.9834   33.1668   49.4334 C   0  0  0  0  0  0  0  0  0  0  0  0
   39.0114   33.1602   48.4650 C   0  0  0  0  0  0  0  0  0  0  0  0
   39.0067   32.1286   47.5379 C   0  0  0  0  0  0  0  0  0  0  0  0
   38.0292   31.1762   47.5929 N   0  0  0  0  0  0  0  0  0  0  0  0
   37.0565   31.2178   48.5409 C   0  0  0  0  0  0  0  0  0  0  0  0
   37.0433   32.2222   49.4603 N   0  0  0  0  0  0  0  0  0  0  0  0
   37.2726   29.3576   51.0583 Br  0  0  0  0  0  0  0  0  0  0  0  0
   35.9543   29.3165   49.6634 C   0  0  0  0  0  0  0  0  0  0  0  0
   36.0046   30.2139   48.6186 C   0  0  0  0  0  0  0  0  0  0  0  0
   35.0197   30.1207   47.6530 C   0  0  0  0  0  0  0  0  0  0  0  0
   34.0042   29.1807   47.6920 C   0  0  0  0  0  0  0  0  0  0  0  0
   33.9888   28.3085   48.7441 C   0  0  0  0  0  0  0  0  0  0  0  0
   34.9632   28.3813   49.7232 C   0  0  0  0  0  0  0  0  0  0  0  0
   37.9366   33.9567   50.1905 H   0  0  0  0  0  0  0  0  0  0  0  0
   39.7640   33.9362   48.4614 H   0  0  0  0  0  0  0  0  0  0  0  0
   39.7684   32.0702   46.7716 H   0  0  0  0  0  0  0  0  0  0  0  0
   35.0199   30.8032   46.8162 H   0  0  0  0  0  0  0  0  0  0  0  0
   33.2250   27.5622   48.8202 H   0  0  0  0  0  0  0  0  0  0  0  0
   34.9043   27.6688   50.5328 H   0  0  0  0  0  0  0  0  0  0  0  0
   32.1221   28.0610   46.4812 C   0  0  0  0  0  0  0  0  0  0  0  0
   32.9942   29.1128   46.6686 C   0  0  0  0  0  0  0  0  0  0  0  0
   32.8354   30.1498   45.7726 C   0  0  0  0  0  0  0  0  0  0  0  0
   33.5102   31.0036   45.8890 H   0  0  0  0  0  0  0  0  0  0  0  0
   31.9165   30.2204   44.7485 C   0  0  0  0  0  0  0  0  0  0  0  0
   31.6514   31.1494   43.8156 N   0  0  0  0  0  0  0  0  0  0  0  0
   32.1738   32.0504   43.7375 H   0  0  0  0  0  0  0  0  0  0  0  0
   30.6213   30.6438   43.0775 C   0  0  0  0  0  0  0  0  0  0  0  0
   30.2620   31.2646   42.2608 H   0  0  0  0  0  0  0  0  0  0  0  0
   30.2584   29.4057   43.5609 C   0  0  0  0  0  0  0  0  0  0  0  0
   31.0739   29.1090   44.6341 C   0  0  0  0  0  0  0  0  0  0  0  0
   31.1677   28.0335   45.4880 C   0  0  0  0  0  0  0  0  0  0  0  0
   32.2129   27.2132   47.1716 H   0  0  0  0  0  0  0  0  0  0  0  0
   29.4755   28.8235   43.1381 H   0  0  0  0  0  0  0  0  0  0  0  0
   30.4902   27.2009   45.3529 H   0  0  0  0  0  0  0  0  0  0  0  0
  1  6  2  0
  2  1  1  0
  3  4  1  0
  3  2  2  0
  4  5  2  0
  5  9  1  0
  5  6  1  0
  8 13  2  0
  8  7  1  0
  9  8  1  0
 10 11  1  0
 10  9  2  0
 11 12  2  0
 12 13  1  0
  1 14  1  0
  2 15  1  0
  3 16  1  0
 10 17  1  0
 12 18  1  0
 13 19  1  0
 20 21  2  0
 21 22  1  0
 22 23  1  0
 22 24  2  0
 24 25  1  0
 25 26  1  0
 25 27  1  0
 27 28  1  0
 27 29  2  0
 29 30  1  0
 30 31  2  0
 31 20  1  0
 30 24  1  0
 20 32  1  0
 29 33  1  0
 31 34  1  0
 11 21  1  0
M  ISO  8  14  14  15  14  16  14  17  14  18  14  19  14  23  15  26   5
M  ISO  1  28  14
M  END
>  <DihAtoms>  (1) 
9,10,20,19

>  <DihDeg>  (1) 
-148.88688351323196

$$$$
