
     RDKit          3D

 46 51  0  0  0  0  0  0  0  0999 V2000
   37.0430   29.6170   50.2620 C   0  0  0  0  0  0  0  0  0  0  0  0
   37.6760   29.0050   51.1620 O   0  0  0  0  0  0  0  0  0  0  0  0
   37.5810   30.7230   49.5040 C   0  0  0  0  0  0  0  0  0  0  0  0
   37.5170   31.9750   50.0880 C   0  0  0  0  0  0  0  0  0  0  0  0
   38.0210   33.0730   49.3970 C   0  0  0  0  0  0  0  0  0  0  0  0
   38.5570   32.8280   48.1580 N   0  0  0  0  0  0  0  0  0  0  0  0
   38.6090   31.6130   47.6140 C   0  0  0  0  0  0  0  0  0  0  0  0
   38.1170   30.5700   48.2970 N   0  0  0  0  0  0  0  0  0  0  0  0
   39.9750   32.3400   45.6990 C   0  0  0  0  0  0  0  0  0  0  0  0
   39.1820   31.3940   46.3050 C   0  0  0  0  0  0  0  0  0  0  0  0
   38.9750   30.2380   45.5850 C   0  0  0  0  0  0  0  0  0  0  0  0
   39.5210   30.0200   44.3290 C   0  0  0  0  0  0  0  0  0  0  0  0
   39.5110   29.0440   43.4080 N   0  0  0  0  0  0  0  0  0  0  0  0
   40.2480   29.3930   42.3300 C   0  0  0  0  0  0  0  0  0  0  0  0
   40.7770   30.6600   42.5410 C   0  0  0  0  0  0  0  0  0  0  0  0
   40.3160   31.0270   43.7800 C   0  0  0  0  0  0  0  0  0  0  0  0
   40.5490   32.2050   44.4680 C   0  0  0  0  0  0  0  0  0  0  0  0
   35.6790   29.1920   49.9570 C   0  0  0  0  0  0  0  0  0  0  0  0
   34.6100   29.6810   50.6320 C   0  0  0  0  0  0  0  0  0  0  0  0
   33.4750   29.0690   50.0910 C   0  0  0  0  0  0  0  0  0  0  0  0
   33.9560   28.2180   49.0850 C   0  0  0  0  0  0  0  0  0  0  0  0
   35.2460   28.3430   49.0660 O   0  0  0  0  0  0  0  0  0  0  0  0
   33.5260   26.4210   47.4140 C   0  0  0  0  0  0  0  0  0  0  0  0
   33.0590   27.3910   48.2760 C   0  0  0  0  0  0  0  0  0  0  0  0
   31.7150   27.6320   48.4170 C   0  0  0  0  0  0  0  0  0  0  0  0
   30.8370   26.8630   47.6630 C   0  0  0  0  0  0  0  0  0  0  0  0
   29.4900   26.8850   47.6040 N   0  0  0  0  0  0  0  0  0  0  0  0
   29.1140   25.9550   46.7310 N   0  0  0  0  0  0  0  0  0  0  0  0
   30.2140   25.3500   46.2410 C   0  0  0  0  0  0  0  0  0  0  0  0
   31.3470   25.9070   46.8170 C   0  0  0  0  0  0  0  0  0  0  0  0
   32.6920   25.6610   46.6700 C   0  0  0  0  0  0  0  0  0  0  0  0
   37.0732   32.1015   51.0865 H   0  0  0  0  0  0  0  0  0  0  0  0
   37.9911   34.0867   49.8230 H   0  0  0  0  0  0  0  0  0  0  0  0
   40.1606   33.2754   46.2473 H   0  0  0  0  0  0  0  0  0  0  0  0
   38.3469   29.4506   46.0272 H   0  0  0  0  0  0  0  0  0  0  0  0
   39.0096   28.1500   43.5089 H   0  0  0  0  0  0  0  0  0  0  0  0
   40.4033   28.7753   41.4332 H   0  0  0  0  0  0  0  0  0  0  0  0
   41.4222   31.2402   41.8649 H   0  0  0  0  0  0  0  0  0  0  0  0
   41.1733   33.0026   44.0389 H   0  0  0  0  0  0  0  0  0  0  0  0
   34.6313   30.4178   51.4485 H   0  0  0  0  0  0  0  0  0  0  0  0
   32.4278   29.2223   50.3906 H   0  0  0  0  0  0  0  0  0  0  0  0
   34.6110   26.2609   47.3294 H   0  0  0  0  0  0  0  0  0  0  0  0
   31.3455   28.4078   49.1038 H   0  0  0  0  0  0  0  0  0  0  0  0
   28.8667   27.5079   48.1373 H   0  0  0  0  0  0  0  0  0  0  0  0
   30.2138   24.5388   45.4981 H   0  0  0  0  0  0  0  0  0  0  0  0
   33.0686   24.8878   45.9842 H   0  0  0  0  0  0  0  0  0  0  0  0
  1  2  2  0
  3  4  2  0
  3  1  1  0
  5  4  1  0
  6  5  2  0
  7  6  1  0
  7  8  2  0
  8  3  1  0
  9 10  2  0
 10  7  1  0
 11 10  1  0
 12 11  2  0
 13 12  1  0
 14 15  2  0
 14 13  1  0
 15 16  1  0
 16 12  1  0
 16 17  2  0
 17  9  1  0
 18  1  1  0
 18 19  2  0
 20 19  1  0
 21 20  2  0
 22 21  1  0
 22 18  1  0
 23 24  2  0
 24 25  1  0
 24 21  1  0
 26 25  2  0
 27 26  1  0
 28 27  1  0
 29 28  2  0
 29 30  1  0
 30 26  1  0
 31 30  2  0
 31 23  1  0
  4 32  1  0
  5 33  1  0
  9 34  1  0
 11 35  1  0
 13 36  1  0
 14 37  1  0
 15 38  1  0
 17 39  1  0
 19 40  1  0
 20 41  1  0
 23 42  1  0
 25 43  1  0
 27 44  1  0
 29 45  1  0
 31 46  1  0
M  END
>  <minimizedAffinity>  (1) 
-7.91147757

>  <minimizedRMSD>  (1) 
0.861716807

$$$$
