
     RDKit          3D

 50 55  0  0  0  0  0  0  0  0999 V2000
   35.8380   28.9253   49.3756 C   0  0  0  0  0  0  0  0  0  0  0  0
   35.8488   30.1018   48.5789 C   0  0  0  0  0  0  0  0  0  0  0  0
   34.7677   30.3197   47.7015 C   0  0  0  0  0  0  0  0  0  0  0  0
   33.7601   29.4097   47.6352 N   0  0  0  0  0  0  0  0  0  0  0  0
   33.8104   28.2968   48.4221 C   0  0  0  0  0  0  0  0  0  0  0  0
   34.8164   28.0530   49.2738 N   0  0  0  0  0  0  0  0  0  0  0  0
   32.7344   27.3402   48.2800 N   0  0  0  0  0  0  0  0  0  0  0  0
   31.3567   27.6322   48.5404 C   0  0  0  0  0  0  0  0  0  0  0  0
   30.6194   26.4364   48.0174 C   0  0  0  0  0  0  0  0  0  0  0  0
   31.6102   25.6037   47.2381 C   0  0  0  0  0  0  0  0  0  0  0  0
   32.9090   25.9400   47.8460 C   0  0  0  0  0  0  0  0  0  0  0  0
   36.8375   31.1190   48.5383 C   0  0  0  0  0  0  0  0  0  0  0  0
   36.7896   32.0130   49.5592 N   0  0  0  0  0  0  0  0  0  0  0  0
   37.6802   33.0189   49.6045 C   0  0  0  0  0  0  0  0  0  0  0  0
   38.6611   33.2191   48.6743 N   0  0  0  0  0  0  0  0  0  0  0  0
   38.7325   32.3468   47.6487 C   0  0  0  0  0  0  0  0  0  0  0  0
   39.6828   32.4767   46.6507 C   0  0  0  0  0  0  0  0  0  0  0  0
   39.7201   31.5598   45.5892 C   0  0  0  0  0  0  0  0  0  0  0  0
   38.7886   30.5178   45.5546 C   0  0  0  0  0  0  0  0  0  0  0  0
   37.8577   30.4337   46.5814 C   0  0  0  0  0  0  0  0  0  0  0  0
   37.8199   31.3225   47.6103 C   0  0  0  0  0  0  0  0  0  0  0  0
   36.6860   28.8317   50.0190 H   0  0  0  0  0  0  0  0  0  0  0  0
   34.6827   31.1745   47.0671 H   0  0  0  0  0  0  0  0  0  0  0  0
   31.0555   28.5182   47.9694 H   0  0  0  0  0  0  0  0  0  0  0  0
   31.2377   27.7365   49.6383 H   0  0  0  0  0  0  0  0  0  0  0  0
   29.7128   26.6713   47.4280 H   0  0  0  0  0  0  0  0  0  0  0  0
   30.3253   25.8136   48.8932 H   0  0  0  0  0  0  0  0  0  0  0  0
   31.5934   26.0049   46.1915 H   0  0  0  0  0  0  0  0  0  0  0  0
   31.3431   24.5332   47.2605 H   0  0  0  0  0  0  0  0  0  0  0  0
   33.1396   25.3727   48.7708 H   0  0  0  0  0  0  0  0  0  0  0  0
   33.7904   25.8384   47.1750 H   0  0  0  0  0  0  0  0  0  0  0  0
   37.6679   33.7508   50.4095 H   0  0  0  0  0  0  0  0  0  0  0  0
   40.3544   33.3143   46.7723 H   0  0  0  0  0  0  0  0  0  0  0  0
   40.5015   31.7686   44.8778 H   0  0  0  0  0  0  0  0  0  0  0  0
   38.9960   29.9507   44.6753 H   0  0  0  0  0  0  0  0  0  0  0  0
   36.8851   28.0253   46.8628 C   0  0  0  0  0  0  0  0  0  0  0  0
   37.1363   29.2250   46.2226 C   0  0  0  0  0  0  0  0  0  0  0  0
   36.5585   29.2166   44.9192 C   0  0  0  0  0  0  0  0  0  0  0  0
   36.6814   30.1151   44.2889 H   0  0  0  0  0  0  0  0  0  0  0  0
   35.8409   28.2076   44.3114 C   0  0  0  0  0  0  0  0  0  0  0  0
   35.2529   28.0644   43.1228 N   0  0  0  0  0  0  0  0  0  0  0  0
   35.2444   28.7881   42.3717 H   0  0  0  0  0  0  0  0  0  0  0  0
   34.7105   26.8345   43.1361 C   0  0  0  0  0  0  0  0  0  0  0  0
   34.1610   26.3916   42.3377 H   0  0  0  0  0  0  0  0  0  0  0  0
   34.9548   26.1889   44.3426 C   0  0  0  0  0  0  0  0  0  0  0  0
   35.6844   27.0859   45.0901 C   0  0  0  0  0  0  0  0  0  0  0  0
   36.1882   26.9586   46.3607 C   0  0  0  0  0  0  0  0  0  0  0  0
   37.3556   28.0441   47.8623 H   0  0  0  0  0  0  0  0  0  0  0  0
   34.6439   25.2028   44.6348 H   0  0  0  0  0  0  0  0  0  0  0  0
   36.0966   26.1063   47.0141 H   0  0  0  0  0  0  0  0  0  0  0  0
  2  1  2  0
  3  2  1  0
  4  3  2  0
  4  5  1  0
  5  6  2  0
  6  1  1  0
  7  5  1  0
  7  8  1  0
  9  8  1  0
 10 11  1  0
 10  9  1  0
 11  7  1  0
 12  2  1  0
 12 13  2  0
 13 14  1  0
 15 14  2  0
 16 15  1  0
 17 16  2  0
 18 17  1  0
 19 18  2  0
 19 20  1  0
 20 21  2  0
 21 16  1  0
 21 12  1  0
  1 22  1  0
  3 23  1  0
  8 24  1  0
  8 25  1  0
  9 26  1  0
  9 27  1  0
 10 28  1  0
 10 29  1  0
 11 30  1  0
 11 31  1  0
 14 32  1  0
 17 33  1  0
 18 34  1  0
 19 35  1  0
 36 37  2  0
 37 38  1  0
 38 39  1  0
 38 40  2  0
 40 41  1  0
 41 42  1  0
 41 43  1  0
 43 44  1  0
 43 45  2  0
 45 46  1  0
 46 47  2  0
 47 36  1  0
 46 40  1  0
 36 48  1  0
 45 49  1  0
 47 50  1  0
 20 37  1  0
M  ISO  8  22  14  23  14  24  13  25  13  26  13  27  13  28  13  29  13
M  ISO  8  30  13  31  13  32  14  33  14  34  14  35  14  39  15  42   5
M  ISO  1  44  14
M  END
>  <DihAtoms>  (1) 
18,19,36,35

>  <DihDeg>  (1) 
107.46118530040651

$$$$
