
     RDKit          3D

 40 44  0  0  0  0  0  0  0  0999 V2000
   37.1420   29.6300   50.1460 C   0  0  0  0  0  0  0  0  0  0  0  0
   37.9540   30.4260   49.3400 C   0  0  0  0  0  0  0  0  0  0  0  0
   37.4500   30.6990   48.0940 C   0  0  0  0  0  0  0  0  0  0  0  0
   36.2640   30.2030   47.7480 N   0  0  0  0  0  0  0  0  0  0  0  0
   35.4780   29.4500   48.4900 C   0  0  0  0  0  0  0  0  0  0  0  0
   35.9850   29.1970   49.6950 N   0  0  0  0  0  0  0  0  0  0  0  0
   34.1710   28.8440   48.2700 C   0  0  0  0  0  0  0  0  0  0  0  0
   33.3750   28.4330   49.2920 N   0  0  0  0  0  0  0  0  0  0  0  0
   32.1730   27.8900   49.0730 C   0  0  0  0  0  0  0  0  0  0  0  0
   31.6430   27.6980   47.8570 N   0  0  0  0  0  0  0  0  0  0  0  0
   32.3880   28.0850   46.7950 C   0  0  0  0  0  0  0  0  0  0  0  0
   31.8460   27.8900   45.5500 C   0  0  0  0  0  0  0  0  0  0  0  0
   32.5600   28.2670   44.4280 C   0  0  0  0  0  0  0  0  0  0  0  0
   33.8090   28.8330   44.6400 C   0  0  0  0  0  0  0  0  0  0  0  0
   34.2930   29.0000   45.9110 C   0  0  0  0  0  0  0  0  0  0  0  0
   33.6180   28.6420   47.0400 C   0  0  0  0  0  0  0  0  0  0  0  0
   39.2020   32.3900   47.4850 C   0  0  0  0  0  0  0  0  0  0  0  0
   38.1920   31.5190   47.1460 C   0  0  0  0  0  0  0  0  0  0  0  0
   37.9050   31.4600   45.7950 C   0  0  0  0  0  0  0  0  0  0  0  0
   38.5520   32.1960   44.8280 C   0  0  0  0  0  0  0  0  0  0  0  0
   38.4460   32.3010   43.4870 N   0  0  0  0  0  0  0  0  0  0  0  0
   39.3680   33.2060   43.0580 C   0  0  0  0  0  0  0  0  0  0  0  0
   40.0900   33.7070   44.1110 C   0  0  0  0  0  0  0  0  0  0  0  0
   39.5570   33.0570   45.2000 C   0  0  0  0  0  0  0  0  0  0  0  0
   39.8710   33.1400   46.5540 C   0  0  0  0  0  0  0  0  0  0  0  0
   37.5350   29.2540   51.5020 N   0  0  0  0  0  0  0  0  0  0  0  0
   38.9285   30.8076   49.6787 H   0  0  0  0  0  0  0  0  0  0  0  0
   31.5810   27.5809   49.9471 H   0  0  0  0  0  0  0  0  0  0  0  0
   30.8494   27.4364   45.4452 H   0  0  0  0  0  0  0  0  0  0  0  0
   32.1569   28.1249   43.4144 H   0  0  0  0  0  0  0  0  0  0  0  0
   34.4163   29.1506   43.7796 H   0  0  0  0  0  0  0  0  0  0  0  0
   35.2893   29.4515   46.0277 H   0  0  0  0  0  0  0  0  0  0  0  0
   39.4829   32.4878   48.5440 H   0  0  0  0  0  0  0  0  0  0  0  0
   37.1050   30.7784   45.4704 H   0  0  0  0  0  0  0  0  0  0  0  0
   37.7824   31.7857   42.8911 H   0  0  0  0  0  0  0  0  0  0  0  0
   39.5144   33.4966   42.0072 H   0  0  0  0  0  0  0  0  0  0  0  0
   40.9007   34.4502   44.0898 H   0  0  0  0  0  0  0  0  0  0  0  0
   40.6708   33.8202   46.8821 H   0  0  0  0  0  0  0  0  0  0  0  0
   36.9133   28.6644   52.0736 H   0  0  0  0  0  0  0  0  0  0  0  0
   38.4338   29.5785   51.8864 H   0  0  0  0  0  0  0  0  0  0  0  0
  1 26  1  0
  2  1  2  0
  3  2  1  0
  4  3  2  0
  4  5  1  0
  5  6  2  0
  6  1  1  0
  7  5  1  0
  7  8  2  0
  9  8  1  0
 10  9  2  0
 11 16  2  0
 11 10  1  0
 12 11  1  0
 13 14  1  0
 13 12  2  0
 14 15  2  0
 15 16  1  0
 16  7  1  0
 18 17  2  0
 18  3  1  0
 19 18  1  0
 20 24  1  0
 20 19  2  0
 21 20  1  0
 22 21  1  0
 22 23  2  0
 23 24  1  0
 24 25  2  0
 25 17  1  0
  2 27  1  0
  9 28  1  0
 12 29  1  0
 13 30  1  0
 14 31  1  0
 15 32  1  0
 17 33  1  0
 19 34  1  0
 21 35  1  0
 22 36  1  0
 23 37  1  0
 25 38  1  0
 26 39  1  0
 26 40  1  0
M  ISO  8  27  14  28  14  29  14  30  14  31  14  32  14  33  14  34  14
M  ISO  4  35   9  36  14  37  14  38  14
M  END
>  <minimizedAffinity>  (1) 
-6.97060966

>  <minimizedRMSD>  (1) 
1.82757616

$$$$
