
     RDKit          3D

 37 40  0  0  0  0  0  0  0  0999 V2000
   39.6250   33.0380   45.7310 C   0  0  0  0  0  0  0  0  0  0  0  0
   37.6400   31.1060   48.0170 C   0  0  0  0  0  0  0  0  0  0  0  0
   37.0160   30.8380   46.8130 C   0  0  0  0  0  0  0  0  0  0  0  0
   37.6700   31.5200   45.8020 C   0  0  0  0  0  0  0  0  0  0  0  0
   38.6730   32.1820   46.4260 N   0  0  0  0  0  0  0  0  0  0  0  0
   38.6580   31.9370   47.7470 N   0  0  0  0  0  0  0  0  0  0  0  0
   37.3710   30.0990   51.6330 C   0  0  0  0  0  0  0  0  0  0  0  0
   37.8850   30.6860   50.4780 C   0  0  0  0  0  0  0  0  0  0  0  0
   37.1820   30.5350   49.2580 C   0  0  0  0  0  0  0  0  0  0  0  0
   36.0300   29.8120   49.2960 N   0  0  0  0  0  0  0  0  0  0  0  0
   35.5660   29.2600   50.4400 C   0  0  0  0  0  0  0  0  0  0  0  0
   36.2350   29.4040   51.6020 N   0  0  0  0  0  0  0  0  0  0  0  0
   40.7790   32.1820   45.2230 C   0  0  0  0  0  0  0  0  0  0  0  0
   39.8030   32.4380   42.9370 C   0  0  0  0  0  0  0  0  0  0  0  0
   40.4630   31.6650   43.8760 C   0  0  0  0  0  0  0  0  0  0  0  0
   40.8720   30.3680   43.6250 C   0  0  0  0  0  0  0  0  0  0  0  0
   40.6240   29.7900   42.3950 C   0  0  0  0  0  0  0  0  0  0  0  0
   40.9080   28.5660   41.8960 N   0  0  0  0  0  0  0  0  0  0  0  0
   40.4440   28.5000   40.6190 C   0  0  0  0  0  0  0  0  0  0  0  0
   39.8610   29.7150   40.3290 C   0  0  0  0  0  0  0  0  0  0  0  0
   39.9610   30.5440   41.4310 C   0  0  0  0  0  0  0  0  0  0  0  0
   39.5690   31.8370   41.7170 C   0  0  0  0  0  0  0  0  0  0  0  0
   39.1280   33.5295   44.8816 H   0  0  0  0  0  0  0  0  0  0  0  0
   40.0061   33.8071   46.4190 H   0  0  0  0  0  0  0  0  0  0  0  0
   36.1396   30.1867   46.6798 H   0  0  0  0  0  0  0  0  0  0  0  0
   37.4285   31.5236   44.7288 H   0  0  0  0  0  0  0  0  0  0  0  0
   37.9116   30.2113   52.5844 H   0  0  0  0  0  0  0  0  0  0  0  0
   38.8236   31.2585   50.5136 H   0  0  0  0  0  0  0  0  0  0  0  0
   34.6286   28.6848   50.4224 H   0  0  0  0  0  0  0  0  0  0  0  0
   41.6928   32.7924   45.1748 H   0  0  0  0  0  0  0  0  0  0  0  0
   40.9338   31.3366   45.9095 H   0  0  0  0  0  0  0  0  0  0  0  0
   39.4842   33.4690   43.1501 H   0  0  0  0  0  0  0  0  0  0  0  0
   41.3953   29.7961   44.4054 H   0  0  0  0  0  0  0  0  0  0  0  0
   41.3944   27.8099   42.3987 H   0  0  0  0  0  0  0  0  0  0  0  0
   40.5200   27.6361   39.9423 H   0  0  0  0  0  0  0  0  0  0  0  0
   39.3903   29.9828   39.3716 H   0  0  0  0  0  0  0  0  0  0  0  0
   39.0475   32.4129   40.9383 H   0  0  0  0  0  0  0  0  0  0  0  0
  1  5  1  0
  2  9  1  0
  3  2  1  0
  4  5  1  0
  4  3  2  0
  5  6  1  0
  6  2  2  0
  8  7  2  0
  9 10  2  0
  9  8  1  0
 10 11  1  0
 11 12  2  0
 12  7  1  0
 13  1  1  0
 14 15  2  0
 15 13  1  0
 16 15  1  0
 17 16  2  0
 18 17  1  0
 19 18  1  0
 20 19  2  0
 20 21  1  0
 21 22  2  0
 21 17  1  0
 22 14  1  0
  1 23  1  0
  1 24  1  0
  3 25  1  0
  4 26  1  0
  7 27  1  0
  8 28  1  0
 11 29  1  0
 13 30  1  0
 13 31  1  0
 14 32  1  0
 16 33  1  0
 18 34  1  0
 19 35  1  0
 20 36  1  0
 22 37  1  0
M  ISO  8  23   8  24   8  25  14  26  14  27  14  28  14  29  14  30   8
M  ISO  7  31   8  32  14  33  14  34   9  35  14  36  14  37  14
M  END
>  <minimizedAffinity>  (1) 
-5.82825089

>  <minimizedRMSD>  (1) 
3.95679545

$$$$
