
     RDKit          3D

 42 46  0  0  0  0  0  0  0  0999 V2000
   37.3105   29.3291   51.0256 Br  0  0  0  0  0  0  0  0  0  0  0  0
   35.9620   29.3242   49.6803 C   0  0  0  0  0  0  0  0  0  0  0  0
   35.9871   30.2557   48.6443 C   0  0  0  0  0  0  0  0  0  0  0  0
   34.9850   30.1959   47.7085 C   0  0  0  0  0  0  0  0  0  0  0  0
   33.9621   29.2559   47.7544 C   0  0  0  0  0  0  0  0  0  0  0  0
   33.9670   28.3589   48.7810 C   0  0  0  0  0  0  0  0  0  0  0  0
   34.9640   28.4061   49.7261 C   0  0  0  0  0  0  0  0  0  0  0  0
   37.9960   33.1967   49.4545 C   0  0  0  0  0  0  0  0  0  0  0  0
   39.0235   33.1759   48.4661 C   0  0  0  0  0  0  0  0  0  0  0  0
   39.0012   32.1493   47.5427 C   0  0  0  0  0  0  0  0  0  0  0  0
   38.0074   31.2139   47.6197 N   0  0  0  0  0  0  0  0  0  0  0  0
   37.0416   31.2520   48.5660 C   0  0  0  0  0  0  0  0  0  0  0  0
   37.0534   32.2529   49.4756 N   0  0  0  0  0  0  0  0  0  0  0  0
   32.9019   29.1969   46.7595 C   0  0  0  0  0  0  0  0  0  0  0  0
   32.2593   28.0491   46.3730 C   0  0  0  0  0  0  0  0  0  0  0  0
   31.2534   28.0388   45.4201 C   0  0  0  0  0  0  0  0  0  0  0  0
   30.8782   29.1842   44.8408 N   0  0  0  0  0  0  0  0  0  0  0  0
   31.4966   30.3119   45.2082 C   0  0  0  0  0  0  0  0  0  0  0  0
   32.4649   30.3004   46.1297 N   0  0  0  0  0  0  0  0  0  0  0  0
   34.9395   30.8969   46.8644 H   0  0  0  0  0  0  0  0  0  0  0  0
   33.2030   27.5955   48.8853 H   0  0  0  0  0  0  0  0  0  0  0  0
   34.9612   27.6970   50.5310 H   0  0  0  0  0  0  0  0  0  0  0  0
   38.0561   34.0182   50.1536 H   0  0  0  0  0  0  0  0  0  0  0  0
   39.8170   33.8909   48.3752 H   0  0  0  0  0  0  0  0  0  0  0  0
   39.7151   32.0160   46.7466 H   0  0  0  0  0  0  0  0  0  0  0  0
   32.5570   27.1026   46.8400 H   0  0  0  0  0  0  0  0  0  0  0  0
   30.7753   27.0911   45.1508 H   0  0  0  0  0  0  0  0  0  0  0  0
   30.4034   31.7400   43.4758 C   0  0  0  0  0  0  0  0  0  0  0  0
   31.1501   31.6076   44.6268 C   0  0  0  0  0  0  0  0  0  0  0  0
   31.5508   32.8187   45.1957 C   0  0  0  0  0  0  0  0  0  0  0  0
   32.1462   32.7183   46.1134 H   0  0  0  0  0  0  0  0  0  0  0  0
   31.2280   34.0419   44.6536 C   0  0  0  0  0  0  0  0  0  0  0  0
   31.5632   35.2493   45.1221 N   0  0  0  0  0  0  0  0  0  0  0  0
   32.1310   35.4705   45.9852 H   0  0  0  0  0  0  0  0  0  0  0  0
   31.0301   36.1297   44.2703 C   0  0  0  0  0  0  0  0  0  0  0  0
   31.1179   37.2021   44.3641 H   0  0  0  0  0  0  0  0  0  0  0  0
   30.3464   35.4662   43.2462 C   0  0  0  0  0  0  0  0  0  0  0  0
   30.4812   34.1103   43.5048 C   0  0  0  0  0  0  0  0  0  0  0  0
   30.0585   32.9431   42.9006 C   0  0  0  0  0  0  0  0  0  0  0  0
   30.0530   30.8441   42.9721 H   0  0  0  0  0  0  0  0  0  0  0  0
   29.8094   35.8857   42.4061 H   0  0  0  0  0  0  0  0  0  0  0  0
   29.4710   33.0229   41.9958 H   0  0  0  0  0  0  0  0  0  0  0  0
  2  7  2  0
  2  1  1  0
  3  2  1  0
  4  5  1  0
  4  3  2  0
  5  6  2  0
  6  7  1  0
  8 13  2  0
  9  8  1  0
 10 11  1  0
 10  9  2  0
 11 12  2  0
 12  3  1  0
 12 13  1  0
 14  5  1  0
 15 14  2  0
 16 15  1  0
 17 18  1  0
 17 16  2  0
 18 19  2  0
 19 14  1  0
  4 20  1  0
  6 21  1  0
  7 22  1  0
  8 23  1  0
  9 24  1  0
 10 25  1  0
 15 26  1  0
 16 27  1  0
 28 29  2  0
 29 30  1  0
 30 31  1  0
 30 32  2  0
 32 33  1  0
 33 34  1  0
 33 35  1  0
 35 36  1  0
 35 37  2  0
 37 38  1  0
 38 39  2  0
 39 28  1  0
 38 32  1  0
 28 40  1  0
 37 41  1  0
 39 42  1  0
 18 29  1  0
M  ISO  8  20  14  21  14  22  14  23  14  24  14  25  14  26  14  27  14
M  ISO  3  31  15  34   5  36  14
M  END
>  <DihAtoms>  (1) 
16,17,28,27

>  <DihDeg>  (1) 
-2.8327296798850703e-05

$$$$
