
     RDKit          3D

 39 42  0  0  1  0  0  0  0  0999 V2000
   38.3650   32.4480   46.3370 C   0  0  0  0  0  0  0  0  0  0  0  0
   38.1480   31.4790   45.3250 C   0  0  0  0  0  0  0  0  0  0  0  0
   37.5330   30.2690   45.6770 C   0  0  0  0  0  0  0  0  0  0  0  0
   37.1860   30.1080   46.9760 N   0  0  0  0  0  0  0  0  0  0  0  0
   37.3950   31.0310   47.9180 C   0  0  0  0  0  0  0  0  0  0  0  0
   37.9890   32.2130   47.6120 N   0  0  0  0  0  0  0  0  0  0  0  0
   36.9880   30.7960   49.2670 N   0  0  0  0  0  0  0  0  0  0  0  0
   37.8860   31.1000   50.3720 C   0  0  0  0  0  0  0  0  0  0  0  0
   37.7580   30.1800   51.5520 C   0  0  0  0  0  0  0  0  0  0  0  0
   37.0820   28.9160   51.0850 C   0  0  0  0  0  0  0  0  0  0  0  0
   35.6560   29.3220   50.7300 C   0  0  0  0  0  0  0  0  0  0  0  0
   35.6940   30.2630   49.5640 C   0  0  2  0  0  0  0  0  0  0  0  0
   34.7350   28.4730   47.9400 C   0  0  0  0  0  0  0  0  0  0  0  0
   34.9180   29.7490   48.4260 C   0  0  0  0  0  0  0  0  0  0  0  0
   34.1770   30.6920   47.6940 C   0  0  0  0  0  0  0  0  0  0  0  0
   33.3600   30.4140   46.6190 C   0  0  0  0  0  0  0  0  0  0  0  0
   32.6030   31.1900   45.8330 N   0  0  0  0  0  0  0  0  0  0  0  0
   32.0110   30.3860   44.9320 C   0  0  0  0  0  0  0  0  0  0  0  0
   32.3860   29.0820   45.1350 C   0  0  0  0  0  0  0  0  0  0  0  0
   33.2460   29.1010   46.2110 C   0  0  0  0  0  0  0  0  0  0  0  0
   33.9430   28.1510   46.8870 C   0  0  0  0  0  0  0  0  0  0  0  0
   38.8458   33.4034   46.0799 H   0  0  0  0  0  0  0  0  0  0  0  0
   38.4553   31.6722   44.2866 H   0  0  0  0  0  0  0  0  0  0  0  0
   37.3407   29.4845   44.9303 H   0  0  0  0  0  0  0  0  0  0  0  0
   38.9197   31.0401   50.0007 H   0  0  0  0  0  0  0  0  0  0  0  0
   37.6134   32.1043   50.7284 H   0  0  0  0  0  0  0  0  0  0  0  0
   38.7553   29.9443   51.9517 H   0  0  0  0  0  0  0  0  0  0  0  0
   37.1675   30.6581   52.3475 H   0  0  0  0  0  0  0  0  0  0  0  0
   37.5966   28.5088   50.2021 H   0  0  0  0  0  0  0  0  0  0  0  0
   37.1024   28.1336   51.8579 H   0  0  0  0  0  0  0  0  0  0  0  0
   35.0731   28.4279   50.4638 H   0  0  0  0  0  0  0  0  0  0  0  0
   35.1842   29.8163   51.5920 H   0  0  0  0  0  0  0  0  0  0  0  0
   35.1636   31.1763   49.8716 H   0  0  0  0  0  0  0  0  0  0  0  0
   35.2709   27.6547   48.4432 H   0  0  0  0  0  0  0  0  0  0  0  0
   34.2557   31.7439   48.0059 H   0  0  0  0  0  0  0  0  0  0  0  0
   32.4944   32.2117   45.9050 H   0  0  0  0  0  0  0  0  0  0  0  0
   31.3233   30.7259   44.1436 H   0  0  0  0  0  0  0  0  0  0  0  0
   32.0658   28.2023   44.5574 H   0  0  0  0  0  0  0  0  0  0  0  0
   33.8635   27.0994   46.5741 H   0  0  0  0  0  0  0  0  0  0  0  0
  1  6  2  0
  2  3  2  0
  2  1  1  0
  3  4  1  0
  4  5  2  0
  5  7  1  0
  6  5  1  0
  7 12  1  0
  7  8  1  0
  8  9  1  0
 10  9  1  0
 11 10  1  0
 12 11  1  0
 13 14  2  0
 14 12  1  0
 15 14  1  0
 16 15  2  0
 17 16  1  0
 18 19  2  0
 18 17  1  0
 19 20  1  0
 20 16  1  0
 20 21  2  0
 21 13  1  0
  1 22  1  0
  2 23  1  0
  3 24  1  0
  8 25  1  0
  8 26  1  0
  9 27  1  0
  9 28  1  0
 10 29  1  0
 10 30  1  0
 11 31  1  0
 11 32  1  0
 12 33  1  1
 13 34  1  0
 15 35  1  0
 17 36  1  0
 18 37  1  0
 19 38  1  0
 21 39  1  0
M  ISO  8  22  14  23  14  24  14  25  13  26  13  27  13  28  13  29  13
M  ISO  8  30  13  31  13  32  13  33  13  34  14  35  14  36   9  37  14
M  ISO  2  38  14  39  14
M  END
>  <minimizedAffinity>  (1) 
-5.43250895

>  <minimizedRMSD>  (1) 
2.408499

$$$$
