
     RDKit          3D

 30 32  0  0  0  0  0  0  0  0999 V2000
   37.7070   31.0950   48.1120 C   0  0  0  0  0  0  0  0  0  0  0  0
   37.0680   30.9330   46.9100 C   0  0  0  0  0  0  0  0  0  0  0  0
   37.7850   31.5960   45.9270 C   0  0  0  0  0  0  0  0  0  0  0  0
   38.8460   32.1420   46.5720 N   0  0  0  0  0  0  0  0  0  0  0  0
   38.8050   31.8470   47.8750 N   0  0  0  0  0  0  0  0  0  0  0  0
   37.3220   30.0480   51.7050 C   0  0  0  0  0  0  0  0  0  0  0  0
   37.8720   30.6290   50.5710 C   0  0  0  0  0  0  0  0  0  0  0  0
   37.2010   30.5170   49.3430 C   0  0  0  0  0  0  0  0  0  0  0  0
   36.0280   29.8300   49.3400 N   0  0  0  0  0  0  0  0  0  0  0  0
   35.5170   29.2710   50.4680 C   0  0  0  0  0  0  0  0  0  0  0  0
   36.1650   29.3840   51.6330 N   0  0  0  0  0  0  0  0  0  0  0  0
   39.8750   32.9430   45.8850 C   0  0  0  0  0  0  0  0  0  0  0  0
   40.8560   32.0140   45.2080 C   0  0  0  0  0  0  0  0  0  0  0  0
   40.3620   31.7700   43.8320 C   0  0  0  0  0  0  0  0  0  0  0  0
   39.6630   32.7050   43.0030 C   0  0  0  0  0  0  0  0  0  0  0  0
   39.3100   32.2330   41.7620 C   0  0  0  0  0  0  0  0  0  0  0  0
   39.6260   30.9740   41.4000 C   0  0  0  0  0  0  0  0  0  0  0  0
   40.4980   30.2740   42.8410 S   0  0  0  0  0  0  0  0  0  0  0  0
   36.1373   30.3684   46.7516 H   0  0  0  0  0  0  0  0  0  0  0  0
   37.5456   31.6647   44.8556 H   0  0  0  0  0  0  0  0  0  0  0  0
   37.8425   30.1349   52.6701 H   0  0  0  0  0  0  0  0  0  0  0  0
   38.8261   31.1729   50.6339 H   0  0  0  0  0  0  0  0  0  0  0  0
   34.5647   28.7222   50.4231 H   0  0  0  0  0  0  0  0  0  0  0  0
   39.3980   33.5871   45.1317 H   0  0  0  0  0  0  0  0  0  0  0  0
   40.4045   33.5712   46.6164 H   0  0  0  0  0  0  0  0  0  0  0  0
   41.8516   32.4804   45.1724 H   0  0  0  0  0  0  0  0  0  0  0  0
   40.9397   31.0679   45.7629 H   0  0  0  0  0  0  0  0  0  0  0  0
   39.4260   33.7264   43.3354 H   0  0  0  0  0  0  0  0  0  0  0  0
   38.7676   32.8850   41.0615 H   0  0  0  0  0  0  0  0  0  0  0  0
   39.4060   30.4768   40.4438 H   0  0  0  0  0  0  0  0  0  0  0  0
  1  8  1  0
  2  1  1  0
  3  4  1  0
  3  2  2  0
  4  5  1  0
  5  1  2  0
  7  6  2  0
  8  7  1  0
  9  8  2  0
  9 10  1  0
 10 11  2  0
 11  6  1  0
 12  4  1  0
 13 12  1  0
 14 13  1  0
 15 14  2  0
 16 15  1  0
 17 16  2  0
 17 18  1  0
 18 14  1  0
  2 19  1  0
  3 20  1  0
  6 21  1  0
  7 22  1  0
 10 23  1  0
 12 24  1  0
 12 25  1  0
 13 26  1  0
 13 27  1  0
 15 28  1  0
 16 29  1  0
 17 30  1  0
M  ISO  8  19  14  20  14  21  14  22  14  23  14  24   8  25   8  26   8
M  ISO  4  27   8  28  14  29  14  30  14
M  END
>  <minimizedAffinity>  (1) 
-5.33695745

>  <minimizedRMSD>  (1) 
2.49143314

$$$$
