
     RDKit          3D

 41 44  0  0  0  0  0  0  0  0999 V2000
   34.6230   29.2950   48.0660 C   0  0  0  0  0  0  0  0  0  0  0  0
   34.6640   28.0040   48.4620 C   0  0  0  0  0  0  0  0  0  0  0  0
   33.7370   27.1270   48.0570 C   0  0  0  0  0  0  0  0  0  0  0  0
   32.7420   27.5520   47.2320 N   0  0  0  0  0  0  0  0  0  0  0  0
   32.7140   28.8240   46.8500 C   0  0  0  0  0  0  0  0  0  0  0  0
   33.6380   29.7090   47.2520 N   0  0  0  0  0  0  0  0  0  0  0  0
   30.3090   28.9850   46.3740 C   0  0  0  0  0  0  0  0  0  0  0  0
   31.6300   29.1600   45.9570 C   0  0  0  0  0  0  0  0  0  0  0  0
   31.9890   29.6260   44.7060 C   0  0  0  0  0  0  0  0  0  0  0  0
   31.0010   29.9410   43.7990 C   0  0  0  0  0  0  0  0  0  0  0  0
   29.6700   29.7960   44.1230 C   0  0  0  0  0  0  0  0  0  0  0  0
   29.4140   29.3340   45.3720 C   0  0  0  0  0  0  0  0  0  0  0  0
   29.8360   28.4480   47.8790 S   0  0  0  0  0  0  0  0  0  0  0  0
   29.3960   27.0140   47.4340 O   0  0  0  0  0  0  0  0  0  0  0  0
   28.6050   29.2280   48.2650 O   0  0  0  0  0  0  0  0  0  0  0  0
   30.1390   27.8450   49.3260 C   0  0  0  0  0  0  0  0  0  0  0  0
   29.7270   26.5700   49.7740 F   0  0  0  0  0  0  0  0  0  0  0  0
   29.2490   28.4690   50.3200 F   0  0  0  0  0  0  0  0  0  0  0  0
   31.2190   28.3270   50.1270 F   0  0  0  0  0  0  0  0  0  0  0  0
   36.6430   31.5990   50.0860 C   0  0  0  0  0  0  0  0  0  0  0  0
   37.5570   32.1140   49.1440 C   0  0  0  0  0  0  0  0  0  0  0  0
   37.4440   31.6490   47.8420 C   0  0  0  0  0  0  0  0  0  0  0  0
   36.4860   30.7460   47.5440 N   0  0  0  0  0  0  0  0  0  0  0  0
   35.6180   30.2700   48.4860 C   0  0  0  0  0  0  0  0  0  0  0  0
   35.7080   30.7030   49.7470 N   0  0  0  0  0  0  0  0  0  0  0  0
   38.3290   32.1230   46.8360 C   0  0  0  0  0  0  0  0  0  0  0  0
   39.5450   32.7010   46.8440 C   0  0  0  0  0  0  0  0  0  0  0  0
   40.1850   33.0640   45.7150 C   0  0  0  0  0  0  0  0  0  0  0  0
   39.4750   32.7890   44.4970 C   0  0  0  0  0  0  0  0  0  0  0  0
   37.8790   31.9980   45.1140 S   0  0  0  0  0  0  0  0  0  0  0  0
   35.4723   27.6679   49.1281 H   0  0  0  0  0  0  0  0  0  0  0  0
   33.7792   26.0783   48.3864 H   0  0  0  0  0  0  0  0  0  0  0  0
   33.0494   29.7437   44.4383 H   0  0  0  0  0  0  0  0  0  0  0  0
   31.2789   30.3136   42.8020 H   0  0  0  0  0  0  0  0  0  0  0  0
   28.8656   30.0396   43.4134 H   0  0  0  0  0  0  0  0  0  0  0  0
   28.3499   29.2200   45.6263 H   0  0  0  0  0  0  0  0  0  0  0  0
   36.6999   31.9433   51.1292 H   0  0  0  0  0  0  0  0  0  0  0  0
   38.3236   32.8499   49.4282 H   0  0  0  0  0  0  0  0  0  0  0  0
   40.0359   32.8843   47.8112 H   0  0  0  0  0  0  0  0  0  0  0  0
   41.1784   33.5363   45.7254 H   0  0  0  0  0  0  0  0  0  0  0  0
   39.7856   32.9901   43.4611 H   0  0  0  0  0  0  0  0  0  0  0  0
  1  2  2  0
  1 24  1  0
  3  2  1  0
  4  3  2  0
  5  4  1  0
  5  6  2  0
  6  1  1  0
  7 13  1  0
  8  7  2  0
  8  5  1  0
  9  8  1  0
 10 11  1  0
 10  9  2  0
 11 12  2  0
 12  7  1  0
 13 15  2  0
 13 16  1  0
 14 13  2  0
 16 17  1  0
 16 19  1  0
 16 18  1  0
 21 20  2  0
 22 21  1  0
 23 22  2  0
 23 24  1  0
 24 25  2  0
 25 20  1  0
 26 27  2  0
 26 22  1  0
 28 27  1  0
 29 30  1  0
 29 28  2  0
 30 26  1  0
  2 31  1  0
  3 32  1  0
  9 33  1  0
 10 34  1  0
 11 35  1  0
 12 36  1  0
 20 37  1  0
 21 38  1  0
 27 39  1  0
 28 40  1  0
 29 41  1  0
M  ISO  8  31  14  32  14  33  14  34  14  35  14  36  14  37  14  38  14
M  ISO  3  39  14  40  14  41  14
M  END
>  <minimizedAffinity>  (1) 
-6.59402943

>  <minimizedRMSD>  (1) 
1.76741278

$$$$
