
     RDKit          3D

 38 40  0  0  1  0  0  0  0  0999 V2000
   38.1260   31.4040   48.9220 C   0  0  0  0  0  0  0  0  0  0  0  0
   38.2750   32.5020   49.7920 C   0  0  0  0  0  0  0  0  0  0  0  0
   38.9110   33.6740   49.4050 C   0  0  0  0  0  0  0  0  0  0  0  0
   39.4250   33.7870   48.1210 C   0  0  0  0  0  0  0  0  0  0  0  0
   39.2710   32.7050   47.2840 C   0  0  0  0  0  0  0  0  0  0  0  0
   38.6380   31.5540   47.6850 C   0  0  0  0  0  0  0  0  0  0  0  0
   37.4480   30.2240   49.4150 C   0  0  0  0  0  0  0  0  0  0  0  0
   38.0850   29.6030   50.3440 O   0  0  0  0  0  0  0  0  0  0  0  0
   34.3030   30.2690   47.6260 C   0  0  0  0  0  0  0  0  0  0  0  0
   33.7230   29.0380   47.9320 C   0  0  0  0  0  0  0  0  0  0  0  0
   34.4190   28.1910   48.7580 C   0  0  0  0  0  0  0  0  0  0  0  0
   35.6250   28.5650   49.2440 N   0  0  0  0  0  0  0  0  0  0  0  0
   36.1570   29.7400   48.9390 C   0  0  0  0  0  0  0  0  0  0  0  0
   35.4890   30.5750   48.1340 N   0  0  0  0  0  0  0  0  0  0  0  0
   38.5670   30.5240   46.6820 C   0  0  0  0  0  0  0  0  0  0  0  0
   39.0810   30.5570   45.4530 C   0  0  0  0  0  0  0  0  0  0  0  0
   39.0810   29.5970   44.3520 C   0  0  0  0  0  0  0  0  0  0  0  0
   39.2140   30.1360   43.0430 C   0  0  0  0  0  0  0  0  0  0  0  0
   40.2750   30.8130   42.4330 C   0  0  0  0  0  0  0  0  0  0  0  0
   40.1670   31.2440   41.1390 C   0  0  0  0  0  0  0  0  0  0  0  0
   38.8940   30.9520   40.4580 C   0  0  0  0  0  0  0  0  0  0  0  0
   37.9620   30.0440   41.8410 S   0  0  0  0  0  0  0  0  0  0  0  0
   37.8735   32.4283   50.8135 H   0  0  0  0  0  0  0  0  0  0  0  0
   39.0071   34.5098   50.1136 H   0  0  0  0  0  0  0  0  0  0  0  0
   39.9341   34.7027   47.7861 H   0  0  0  0  0  0  0  0  0  0  0  0
   39.6681   32.7642   46.2599 H   0  0  0  0  0  0  0  0  0  0  0  0
   37.9592   29.6133   48.6562 H   0  0  0  0  0  0  0  0  0  0  0  0
   37.7657   29.9143   51.2279 H   0  0  0  0  0  0  0  0  0  0  0  0
   33.7810   30.9800   46.9688 H   0  0  0  0  0  0  0  0  0  0  0  0
   32.7409   28.7554   47.5251 H   0  0  0  0  0  0  0  0  0  0  0  0
   33.9973   27.2105   49.0242 H   0  0  0  0  0  0  0  0  0  0  0  0
   38.0280   29.6067   46.9614 H   0  0  0  0  0  0  0  0  0  0  0  0
   39.6104   31.4930   45.2216 H   0  0  0  0  0  0  0  0  0  0  0  0
   39.9179   28.9018   44.5142 H   0  0  0  0  0  0  0  0  0  0  0  0
   38.0869   29.1266   44.3746 H   0  0  0  0  0  0  0  0  0  0  0  0
   41.2010   30.9999   42.9965 H   0  0  0  0  0  0  0  0  0  0  0  0
   40.9855   31.7789   40.6351 H   0  0  0  0  0  0  0  0  0  0  0  0
   38.5728   31.1928   39.4339 H   0  0  0  0  0  0  0  0  0  0  0  0
  1  7  1  0
  1  2  2  0
  3  2  1  0
  4  3  2  0
  5  6  2  0
  5  4  1  0
  6  1  1  0
  7  8  1  0
  9 10  2  0
  9 14  1  0
 10 11  1  0
 11 12  2  0
 13 12  1  0
 13  7  1  0
 14 13  2  0
 15  6  1  0
 16 15  2  0
 17 16  1  0
 18 17  1  0
 19 18  2  0
 20 19  1  0
 21 20  2  0
 21 22  1  0
 22 18  1  0
  2 23  1  0
  3 24  1  0
  4 25  1  0
  5 26  1  0
  7 27  1  0
  8 28  1  0
  9 29  1  0
 10 30  1  0
 11 31  1  0
 15 32  1  0
 16 33  1  0
 17 34  1  0
 17 35  1  0
 19 36  1  0
 20 37  1  0
 21 38  1  0
M  ISO  8  23  14  24  14  25  14  26  14  27   8  28   3  29  14  30  14
M  ISO  6  31  14  34   8  35   8  36  14  37  14  38  14
M  END
>  <minimizedAffinity>  (1) 
-5.90962219

>  <minimizedRMSD>  (1) 
1.94738793

$$$$
