
     RDKit          3D

 27 29  0  0  0  0  0  0  0  0999 V2000
   37.8550   30.4430   47.3390 F   0  0  0  0  0  0  0  0  0  0  0  0
   38.2990   31.5910   47.8900 C   0  0  0  0  0  0  0  0  0  0  0  0
   37.9110   31.9240   49.1550 C   0  0  0  0  0  0  0  0  0  0  0  0
   38.3910   33.0990   49.6600 C   0  0  0  0  0  0  0  0  0  0  0  0
   39.2270   33.9390   48.9650 C   0  0  0  0  0  0  0  0  0  0  0  0
   39.6050   33.5850   47.6960 C   0  0  0  0  0  0  0  0  0  0  0  0
   39.1330   32.3940   47.1510 C   0  0  0  0  0  0  0  0  0  0  0  0
   36.5470   29.4280   51.6610 C   0  0  0  0  0  0  0  0  0  0  0  0
   37.4350   30.3030   51.0040 C   0  0  0  0  0  0  0  0  0  0  0  0
   37.0250   31.0120   49.8660 C   0  0  0  0  0  0  0  0  0  0  0  0
   35.7580   30.7860   49.4810 N   0  0  0  0  0  0  0  0  0  0  0  0
   34.9140   29.9560   50.1040 C   0  0  0  0  0  0  0  0  0  0  0  0
   35.3130   29.2880   51.1810 N   0  0  0  0  0  0  0  0  0  0  0  0
   39.5810   32.0570   45.7540 C   0  0  0  0  0  0  0  0  0  0  0  0
   40.5040   31.2270   45.3260 C   0  0  0  0  0  0  0  0  0  0  0  0
   40.7430   31.0780   44.0050 C   0  0  0  0  0  0  0  0  0  0  0  0
   39.9850   31.8260   43.1520 C   0  0  0  0  0  0  0  0  0  0  0  0
   38.8930   32.7720   44.3470 S   0  0  0  0  0  0  0  0  0  0  0  0
   38.0920   33.3883   50.6783 H   0  0  0  0  0  0  0  0  0  0  0  0
   39.5853   34.8755   49.4173 H   0  0  0  0  0  0  0  0  0  0  0  0
   40.2746   34.2354   47.1140 H   0  0  0  0  0  0  0  0  0  0  0  0
   36.8674   28.8710   52.5538 H   0  0  0  0  0  0  0  0  0  0  0  0
   38.4582   30.4308   51.3871 H   0  0  0  0  0  0  0  0  0  0  0  0
   33.8896   29.8265   49.7247 H   0  0  0  0  0  0  0  0  0  0  0  0
   41.0902   30.6454   46.0527 H   0  0  0  0  0  0  0  0  0  0  0  0
   41.5131   30.3857   43.6340 H   0  0  0  0  0  0  0  0  0  0  0  0
   40.0084   31.8640   42.0529 H   0  0  0  0  0  0  0  0  0  0  0  0
  1  2  1  0
  2  3  2  0
  3  4  1  0
  3 10  1  0
  5  4  2  0
  6  5  1  0
  7  6  2  0
  7  2  1  0
  9  8  2  0
 10  9  1  0
 11 10  2  0
 11 12  1  0
 12 13  2  0
 13  8  1  0
 14  7  1  0
 15 14  2  0
 16 15  1  0
 17 16  2  0
 17 18  1  0
 18 14  1  0
  4 19  1  0
  5 20  1  0
  6 21  1  0
  8 22  1  0
  9 23  1  0
 12 24  1  0
 15 25  1  0
 16 26  1  0
 17 27  1  0
M  ISO  8  19  14  20  14  21  14  22  14  23  14  24  14  25  14  26  14
M  ISO  1  27  14
M  END
>  <minimizedAffinity>  (1) 
-6.47502708

>  <minimizedRMSD>  (1) 
0.69712913

$$$$
