
     RDKit          3D

 20 21  0  0  0  0  0  0  0  0999 V2000
   38.3067   31.2319   50.1229 C   0  0  0  0  0  0  0  0  0  0  0  0
   38.3006   31.6146   48.7648 C   0  0  0  0  0  0  0  0  0  0  0  0
   37.2060   31.2245   48.0119 C   0  0  0  0  0  0  0  0  0  0  0  0
   36.2101   30.5111   48.5882 N   0  0  0  0  0  0  0  0  0  0  0  0
   36.2534   30.1636   49.8949 C   0  0  0  0  0  0  0  0  0  0  0  0
   37.3034   30.5313   50.6396 N   0  0  0  0  0  0  0  0  0  0  0  0
   35.1274   29.3833   50.4529 C   0  0  0  0  0  0  0  0  0  0  0  0
   35.2639   29.1349   51.8086 F   0  0  0  0  0  0  0  0  0  0  0  0
   33.9230   30.0497   50.2974 F   0  0  0  0  0  0  0  0  0  0  0  0
   34.9548   28.1673   49.8228 F   0  0  0  0  0  0  0  0  0  0  0  0
   39.1554   31.5256   50.7376 H   0  0  0  0  0  0  0  0  0  0  0  0
   39.1217   32.1732   48.3934 H   0  0  0  0  0  0  0  0  0  0  0  0
   37.1355   31.5831   46.6135 C   0  0  0  0  0  0  0  0  0  0  0  0
   38.0369   31.7998   45.6347 C   0  0  0  0  0  0  0  0  0  0  0  0
   39.0710   31.6782   45.9664 H   0  0  0  0  0  0  0  0  0  0  0  0
   37.6507   32.1314   44.3876 C   0  0  0  0  0  0  0  0  0  0  0  0
   36.2866   32.2355   44.1716 C   0  0  0  0  0  0  0  0  0  0  0  0
   35.5659   31.8354   45.8451 S   0  0  0  0  0  0  0  0  0  0  0  0
   38.3864   32.3083   43.5889 H   0  0  0  0  0  0  0  0  0  0  0  0
   35.8914   32.5282   43.0786 H   0  0  0  0  0  0  0  0  0  0  0  0
  1  6  2  0
  2  1  1  0
  3  4  1  0
  3  2  2  0
  4  5  2  0
  5  7  1  0
  5  6  1  0
  7  8  1  0
  9  7  1  0
 10  7  1  0
  1 11  1  0
  2 12  1  0
 13 14  2  0
 14 15  1  0
 14 16  1  0
 16 17  2  0
 17 18  1  0
 18 13  1  0
 16 19  1  0
 17 20  1  0
  3 13  1  0
M  ISO  3  11  14  12  14  15  15
M  END
>  <DihAtoms>  (1) 
3,2,12,13

>  <DihDeg>  (1) 
-0.0024043220492608046

$$$$
