
     RDKit          3D

 33 35  0  0  0  0  0  0  0  0999 V2000
   37.9051   31.6213   49.8484 C   0  0  0  0  0  0  0  0  0  0  0  0
   37.9267   31.6429   48.4463 C   0  0  0  0  0  0  0  0  0  0  0  0
   37.0826   30.8189   47.7695 C   0  0  0  0  0  0  0  0  0  0  0  0
   36.2424   30.0195   48.4982 N   0  0  0  0  0  0  0  0  0  0  0  0
   36.2259   30.0176   49.8412 C   0  0  0  0  0  0  0  0  0  0  0  0
   37.0650   30.8172   50.5006 N   0  0  0  0  0  0  0  0  0  0  0  0
   38.2180   31.1976   45.6415 C   0  0  0  0  0  0  0  0  0  0  0  0
   37.0912   30.8034   46.3280 C   0  0  0  0  0  0  0  0  0  0  0  0
   35.9524   30.4651   45.6285 C   0  0  0  0  0  0  0  0  0  0  0  0
   35.8733   30.5052   44.2530 C   0  0  0  0  0  0  0  0  0  0  0  0
   36.9697   30.8991   43.5287 C   0  0  0  0  0  0  0  0  0  0  0  0
   38.0898   31.2274   44.2380 C   0  0  0  0  0  0  0  0  0  0  0  0
   39.6863   31.6500   46.4178 S   0  0  0  0  0  0  0  0  0  0  0  0
   40.1033   33.0302   46.0448 O   0  0  0  0  0  0  0  0  0  0  0  0
   40.6990   30.9009   45.5571 O   0  0  0  0  0  0  0  0  0  0  0  0
   35.1721   29.2098   50.4920 C   0  0  0  0  0  0  0  0  0  0  0  0
   35.3701   29.0993   51.8525 F   0  0  0  0  0  0  0  0  0  0  0  0
   33.8946   29.8570   50.3878 F   0  0  0  0  0  0  0  0  0  0  0  0
   34.9646   28.0076   49.9570 F   0  0  0  0  0  0  0  0  0  0  0  0
   38.5022   32.1914   50.5778 H   0  0  0  0  0  0  0  0  0  0  0  0
   38.6002   32.4351   48.2174 H   0  0  0  0  0  0  0  0  0  0  0  0
   35.0884   30.1537   46.2378 H   0  0  0  0  0  0  0  0  0  0  0  0
   34.9299   30.2150   43.8515 H   0  0  0  0  0  0  0  0  0  0  0  0
   36.9161   30.9357   42.4706 H   0  0  0  0  0  0  0  0  0  0  0  0
   38.9581   31.5398   43.6489 H   0  0  0  0  0  0  0  0  0  0  0  0
   40.4433   30.8134   47.6581 C   0  0  0  0  0  0  0  0  0  0  0  0
   41.2629   29.7912   47.9636 C   0  0  0  0  0  0  0  0  0  0  0  0
   41.5809   29.3439   47.0034 H   0  0  0  0  0  0  0  0  0  0  0  0
   41.5883   29.4386   49.2206 C   0  0  0  0  0  0  0  0  0  0  0  0
   41.0845   30.1262   50.2407 C   0  0  0  0  0  0  0  0  0  0  0  0
   40.0385   31.4122   49.3333 S   0  0  0  0  0  0  0  0  0  0  0  0
   42.2543   28.6011   49.3725 H   0  0  0  0  0  0  0  0  0  0  0  0
   41.2088   30.0163   51.2710 H   0  0  0  0  0  0  0  0  0  0  0  0
  1  6  2  0
  2  1  1  0
  3  2  2  0
  3  4  1  0
  4  5  2  0
  5 16  1  0
  5  6  1  0
  7  8  1  0
  7 13  1  0
  8  3  1  0
  9  8  2  0
 10  9  1  0
 11 12  1  0
 11 10  2  0
 12  7  2  0
 14 13  2  0
 15 13  2  0
 16 17  1  0
 18 16  1  0
 19 16  1  0
  1 20  1  0
  2 21  1  0
  9 22  1  0
 10 23  1  0
 11 24  1  0
 12 25  1  0
 26 27  2  0
 27 28  1  0
 27 29  1  0
 29 30  2  0
 30 31  1  0
 31 26  1  0
 29 32  1  0
 30 33  1  0
 13 26  1  0
M  ISO  7  20  14  21  14  22  14  23  14  24  14  25  14  28  15
M  END
>  <DihAtoms>  (1) 
6,12,25,26

>  <DihDeg>  (1) 
7.427392508030841

$$$$
