
     RDKit          3D

 45 48  0  0  0  0  0  0  0  0999 V2000
   39.0650   32.8190   47.9560 C   0  0  0  0  0  0  0  0  0  0  0  0
   39.3040   32.1440   46.7630 C   0  0  0  0  0  0  0  0  0  0  0  0
   38.7500   30.8910   46.6120 C   0  0  0  0  0  0  0  0  0  0  0  0
   38.0050   30.4040   47.6470 N   0  0  0  0  0  0  0  0  0  0  0  0
   37.8000   31.0580   48.7470 C   0  0  0  0  0  0  0  0  0  0  0  0
   38.3270   32.3120   48.9550 N   0  0  0  0  0  0  0  0  0  0  0  0
   40.0700   32.7600   45.8170 O   0  0  0  0  0  0  0  0  0  0  0  0
   40.0860   32.2680   44.5320 C   0  0  0  0  0  0  0  0  0  0  0  0
   40.6480   31.0980   44.0650 C   0  0  0  0  0  0  0  0  0  0  0  0
   40.5630   30.7820   42.7660 C   0  0  0  0  0  0  0  0  0  0  0  0
   39.9110   31.6340   41.9140 C   0  0  0  0  0  0  0  0  0  0  0  0
   39.3450   32.8090   42.3830 C   0  0  0  0  0  0  0  0  0  0  0  0
   39.4420   33.1100   43.6990 N   0  0  0  0  0  0  0  0  0  0  0  0
   38.6230   33.7500   41.4330 C   0  0  0  0  0  0  0  0  0  0  0  0
   36.7760   30.1450   49.9230 S   0  0  0  0  0  0  0  0  0  0  0  0
   35.0720   30.7290   49.5960 C   0  0  0  0  0  0  0  0  0  0  0  0
   33.1530   28.9420   50.4180 F   0  0  0  0  0  0  0  0  0  0  0  0
   33.5330   28.9450   49.0960 C   0  0  0  0  0  0  0  0  0  0  0  0
   34.4980   29.8030   48.5680 C   0  0  0  0  0  0  0  0  0  0  0  0
   34.8420   29.7630   47.2530 C   0  0  0  0  0  0  0  0  0  0  0  0
   34.2340   28.8490   46.3800 C   0  0  0  0  0  0  0  0  0  0  0  0
   33.2760   27.9910   46.8870 C   0  0  0  0  0  0  0  0  0  0  0  0
   32.9370   28.0430   48.2160 C   0  0  0  0  0  0  0  0  0  0  0  0
   31.9760   27.1580   48.6510 O   0  0  0  0  0  0  0  0  0  0  0  0
   30.7020   27.6480   48.8970 C   0  0  0  0  0  0  0  0  0  0  0  0
   29.9510   27.8670   49.9930 C   0  0  0  0  0  0  0  0  0  0  0  0
   28.6880   28.3790   49.8970 C   0  0  0  0  0  0  0  0  0  0  0  0
   28.2490   28.6530   48.5550 C   0  0  0  0  0  0  0  0  0  0  0  0
   29.7200   28.1420   47.5300 S   0  0  0  0  0  0  0  0  0  0  0  0
   39.5035   33.8193   48.0867 H   0  0  0  0  0  0  0  0  0  0  0  0
   38.9023   30.3060   45.6930 H   0  0  0  0  0  0  0  0  0  0  0  0
   41.1673   30.4228   44.7610 H   0  0  0  0  0  0  0  0  0  0  0  0
   41.0107   29.8509   42.3885 H   0  0  0  0  0  0  0  0  0  0  0  0
   39.8359   31.3827   40.8457 H   0  0  0  0  0  0  0  0  0  0  0  0
   38.0541   34.4914   42.0132 H   0  0  0  0  0  0  0  0  0  0  0  0
   39.3587   34.2666   40.7990 H   0  0  0  0  0  0  0  0  0  0  0  0
   37.9336   33.1731   40.7990 H   0  0  0  0  0  0  0  0  0  0  0  0
   34.4735   30.6918   50.5182 H   0  0  0  0  0  0  0  0  0  0  0  0
   35.0683   31.7703   49.2414 H   0  0  0  0  0  0  0  0  0  0  0  0
   35.6059   30.4554   46.8695 H   0  0  0  0  0  0  0  0  0  0  0  0
   34.5130   28.8157   45.3165 H   0  0  0  0  0  0  0  0  0  0  0  0
   32.7840   27.2646   46.2235 H   0  0  0  0  0  0  0  0  0  0  0  0
   30.3624   27.6290   50.9850 H   0  0  0  0  0  0  0  0  0  0  0  0
   28.0560   28.5670   50.7775 H   0  0  0  0  0  0  0  0  0  0  0  0
   27.2853   29.0622   48.2175 H   0  0  0  0  0  0  0  0  0  0  0  0
  1  6  2  0
  2  1  1  0
  3  2  2  0
  3  4  1  0
  4  5  2  0
  5  6  1  0
  5 15  1  0
  7  2  1  0
  8  7  1  0
  9  8  2  0
 10  9  1  0
 11 12  1  0
 11 10  2  0
 12 13  2  0
 13  8  1  0
 14 12  1  0
 16 15  1  0
 18 17  1  0
 19 18  2  0
 19 16  1  0
 20 19  1  0
 21 22  1  0
 21 20  2  0
 22 23  2  0
 23 24  1  0
 23 18  1  0
 24 25  1  0
 25 26  2  0
 27 26  1  0
 28 27  2  0
 29 28  1  0
 29 25  1  0
  1 30  1  0
  3 31  1  0
  9 32  1  0
 10 33  1  0
 11 34  1  0
 14 35  1  0
 14 36  1  0
 14 37  1  0
 16 38  1  0
 16 39  1  0
 20 40  1  0
 21 41  1  0
 22 42  1  0
 26 43  1  0
 27 44  1  0
 28 45  1  0
M  ISO  8  30  14  31  14  32  14  33  14  34  14  35   8  36   8  37   8
M  ISO  8  38   8  39   8  40  14  41  14  42  14  43  14  44  14  45  14
M  END
>  <minimizedAffinity>  (1) 
-6.4052906

>  <minimizedRMSD>  (1) 
1.71783555

$$$$
