
     RDKit          3D

 34 37  0  0  0  0  0  0  0  0999 V2000
   33.8394   28.7821   48.2801 C   0  0  0  0  0  0  0  0  0  0  0  0
   34.4316   28.4196   49.4397 C   0  0  0  0  0  0  0  0  0  0  0  0
   35.7109   28.7900   49.8192 C   0  0  0  0  0  0  0  0  0  0  0  0
   36.4608   29.5744   48.9965 C   0  0  0  0  0  0  0  0  0  0  0  0
   35.8530   29.9541   47.7923 C   0  0  0  0  0  0  0  0  0  0  0  0
   34.6038   29.5652   47.4718 N   0  0  0  0  0  0  0  0  0  0  0  0
   31.6423   27.6487   48.7079 C   0  0  0  0  0  0  0  0  0  0  0  0
   32.5118   28.3938   47.8934 C   0  0  0  0  0  0  0  0  0  0  0  0
   32.0293   28.7619   46.6449 C   0  0  0  0  0  0  0  0  0  0  0  0
   30.7779   28.4033   46.2645 N   0  0  0  0  0  0  0  0  0  0  0  0
   29.9832   27.6834   47.0936 C   0  0  0  0  0  0  0  0  0  0  0  0
   30.4059   27.3076   48.3032 N   0  0  0  0  0  0  0  0  0  0  0  0
   37.7597   30.0439   49.2097 O   0  0  0  0  0  0  0  0  0  0  0  0
   38.1659   31.2921   48.7670 C   0  0  0  0  0  0  0  0  0  0  0  0
   37.8778   32.3389   49.6524 C   0  0  0  0  0  0  0  0  0  0  0  0
   38.3228   33.5293   49.1151 C   0  0  0  0  0  0  0  0  0  0  0  0
   38.8587   33.1769   47.9394 N   0  0  0  0  0  0  0  0  0  0  0  0
   38.7721   31.8838   47.7303 N   0  0  0  0  0  0  0  0  0  0  0  0
   33.9137   27.7968   50.1574 H   0  0  0  0  0  0  0  0  0  0  0  0
   36.1850   28.5005   50.7463 H   0  0  0  0  0  0  0  0  0  0  0  0
   36.3467   30.5790   47.0506 H   0  0  0  0  0  0  0  0  0  0  0  0
   31.9828   27.3491   49.6757 H   0  0  0  0  0  0  0  0  0  0  0  0
   32.6641   29.3470   45.9610 H   0  0  0  0  0  0  0  0  0  0  0  0
   28.9888   27.4280   46.7269 H   0  0  0  0  0  0  0  0  0  0  0  0
   37.3912   32.3939   50.6413 H   0  0  0  0  0  0  0  0  0  0  0  0
   38.2872   34.5486   49.4878 H   0  0  0  0  0  0  0  0  0  0  0  0
   39.4817   33.9961   46.9270 C   0  0  0  0  0  0  0  0  0  0  0  0
   38.7121   34.5720   45.9562 C   0  0  0  0  0  0  0  0  0  0  0  0
   37.6444   34.5199   45.7996 H   0  0  0  0  0  0  0  0  0  0  0  0
   39.1605   35.3495   44.9648 C   0  0  0  0  0  0  0  0  0  0  0  0
   40.6022   35.5632   44.9757 C   0  0  0  0  0  0  0  0  0  0  0  0
   41.1936   34.5585   46.5083 S   0  0  0  0  0  0  0  0  0  0  0  0
   38.9609   35.9379   44.0988 H   0  0  0  0  0  0  0  0  0  0  0  0
   41.6227   35.9678   44.6290 H   0  0  0  0  0  0  0  0  0  0  0  0
  1  2  2  0
  2  3  1  0
  4 13  1  0
  4  3  2  0
  5  4  1  0
  6  5  2  0
  6  1  1  0
  8  1  1  0
  8  7  2  0
  9  8  1  0
 10  9  2  0
 10 11  1  0
 11 12  2  0
 12  7  1  0
 14 13  1  0
 14 15  1  0
 16 15  2  0
 17 16  1  0
 18 17  1  0
 18 14  2  0
  2 19  1  0
  3 20  1  0
  5 21  1  0
  7 22  1  0
  9 23  1  0
 11 24  1  0
 15 25  1  0
 16 26  1  0
 27 28  2  0
 28 29  1  0
 28 30  1  0
 30 31  2  0
 31 32  1  0
 32 27  1  0
 30 33  1  0
 31 34  1  0
 17 27  1  0
M  ISO  8  19  14  20  14  21  14  22  14  23  14  24  14  25  14  26  14
M  ISO  1  29  15
M  END
>  <DihAtoms>  (1) 
15,16,26,27

>  <DihDeg>  (1) 
92.43835201293433

$$$$
