
     RDKit          3D

 27 29  0  0  0  0  0  0  0  0999 V2000
   37.3646   31.3590   49.2001 C   0  0  0  0  0  0  0  0  0  0  0  0
   37.7188   32.6572   49.5895 C   0  0  0  0  0  0  0  0  0  0  0  0
   38.5937   33.3231   48.7767 C   0  0  0  0  0  0  0  0  0  0  0  0
   39.0657   32.7142   47.6604 N   0  0  0  0  0  0  0  0  0  0  0  0
   38.7052   31.4571   47.3073 C   0  0  0  0  0  0  0  0  0  0  0  0
   37.8273   30.7558   48.1027 N   0  0  0  0  0  0  0  0  0  0  0  0
   36.3764   30.6025   50.0473 C   0  0  0  0  0  0  0  0  0  0  0  0
   36.2834   29.1655   50.0547 C   0  0  0  0  0  0  0  0  0  0  0  0
   37.0475   29.8290   51.1864 C   0  0  0  0  0  0  0  0  0  0  0  0
   39.1844   30.8085   46.0988 C   0  0  0  0  0  0  0  0  0  0  0  0
   37.3100   33.0843   50.4847 H   0  0  0  0  0  0  0  0  0  0  0  0
   38.8587   34.3176   49.0859 H   0  0  0  0  0  0  0  0  0  0  0  0
   35.4935   31.2334   50.3697 H   0  0  0  0  0  0  0  0  0  0  0  0
   35.3026   28.6899   50.2475 H   0  0  0  0  0  0  0  0  0  0  0  0
   36.9559   28.5966   49.3532 H   0  0  0  0  0  0  0  0  0  0  0  0
   38.1410   29.7668   51.2193 H   0  0  0  0  0  0  0  0  0  0  0  0
   36.4746   29.8289   52.1214 H   0  0  0  0  0  0  0  0  0  0  0  0
   38.4060   30.2048   45.5527 H   0  0  0  0  0  0  0  0  0  0  0  0
   39.3983   31.6432   45.3640 H   0  0  0  0  0  0  0  0  0  0  0  0
   40.4310   30.0479   46.2730 C   0  0  0  0  0  0  0  0  0  0  0  0
   41.2501   29.8537   47.4062 C   0  0  0  0  0  0  0  0  0  0  0  0
   40.9315   30.3364   48.3094 H   0  0  0  0  0  0  0  0  0  0  0  0
   42.3645   29.0783   47.2605 C   0  0  0  0  0  0  0  0  0  0  0  0
   42.6593   28.5010   45.9927 C   0  0  0  0  0  0  0  0  0  0  0  0
   41.2595   29.0963   44.9258 S   0  0  0  0  0  0  0  0  0  0  0  0
   43.0329   28.8900   48.0867 H   0  0  0  0  0  0  0  0  0  0  0  0
   43.4682   27.8974   45.7526 H   0  0  0  0  0  0  0  0  0  0  0  0
  1  2  2  0
  1  7  1  0
  3  2  1  0
  4  3  2  0
  5  4  1  0
  5  6  2  0
  6  1  1  0
  7  9  1  0
  8  7  1  0
  8  9  1  0
 10  5  1  0
  2 11  1  0
  3 12  1  0
  7 13  1  0
  8 14  1  0
  8 15  1  0
  9 16  1  0
  9 17  1  0
 10 18  1  0
 10 19  1  0
 20 21  2  0
 21 22  1  0
 21 23  1  0
 23 24  2  0
 24 25  1  0
 25 20  1  0
 23 26  1  0
 24 27  1  0
 10 20  1  0
M  ISO  8  11  14  12  14  13  13  14  13  15  13  16  13  17  13  18   8
M  ISO  2  19   8  22  15
M  END
>  <DihAtoms>  (1) 
4,9,19,20

>  <DihDeg>  (1) 
89.07321863286622

$$$$
