
     RDKit          3D

 24 26  0  0  0  0  0  0  0  0999 V2000
   37.3453   30.0617   51.2965 C   0  0  0  0  0  0  0  0  0  0  0  0
   38.0681   30.9941   50.5244 C   0  0  0  0  0  0  0  0  0  0  0  0
   37.8729   30.9471   49.1216 C   0  0  0  0  0  0  0  0  0  0  0  0
   37.0067   30.0075   48.6482 N   0  0  0  0  0  0  0  0  0  0  0  0
   36.3364   29.1344   49.4300 C   0  0  0  0  0  0  0  0  0  0  0  0
   36.5088   29.1650   50.7549 N   0  0  0  0  0  0  0  0  0  0  0  0
   38.5584   31.8532   48.2171 C   0  0  0  0  0  0  0  0  0  0  0  0
   38.9219   31.4544   46.9359 C   0  0  0  0  0  0  0  0  0  0  0  0
   39.5538   32.5562   46.3451 C   0  0  0  0  0  0  0  0  0  0  0  0
   39.5449   33.5465   47.2702 N   0  0  0  0  0  0  0  0  0  0  0  0
   38.9497   33.1259   48.3892 N   0  0  0  0  0  0  0  0  0  0  0  0
   37.5585   30.1733   52.3547 H   0  0  0  0  0  0  0  0  0  0  0  0
   38.7404   31.7220   50.9027 H   0  0  0  0  0  0  0  0  0  0  0  0
   35.6671   28.4193   48.9781 H   0  0  0  0  0  0  0  0  0  0  0  0
   38.7736   30.4928   46.4340 H   0  0  0  0  0  0  0  0  0  0  0  0
   39.9621   32.5883   45.3436 H   0  0  0  0  0  0  0  0  0  0  0  0
   40.0869   34.8575   47.0970 C   0  0  0  0  0  0  0  0  0  0  0  0
   39.6384   35.8963   46.3513 C   0  0  0  0  0  0  0  0  0  0  0  0
   38.7318   35.7597   45.7801 H   0  0  0  0  0  0  0  0  0  0  0  0
   40.3218   37.0640   46.3361 C   0  0  0  0  0  0  0  0  0  0  0  0
   41.4964   37.1227   47.1255 C   0  0  0  0  0  0  0  0  0  0  0  0
   41.5891   35.4688   47.8822 S   0  0  0  0  0  0  0  0  0  0  0  0
   40.0599   37.9544   45.7817 H   0  0  0  0  0  0  0  0  0  0  0  0
   42.1758   37.9497   47.2502 H   0  0  0  0  0  0  0  0  0  0  0  0
  2  1  2  0
  3  2  1  0
  4  3  2  0
  4  5  1  0
  5  6  2  0
  6  1  1  0
  7 11  2  0
  7  3  1  0
  8  7  1  0
  9  8  2  0
  9 10  1  0
 10 11  1  0
  1 12  1  0
  2 13  1  0
  5 14  1  0
  8 15  1  0
  9 16  1  0
 17 18  2  0
 18 19  1  0
 18 20  1  0
 20 21  2  0
 21 22  1  0
 22 17  1  0
 20 23  1  0
 21 24  1  0
 10 17  1  0
M  ISO  6  12  14  13  14  14  14  15  14  16  14  19  15
M  END
>  <DihAtoms>  (1) 
8,9,16,17

>  <DihDeg>  (1) 
42.12738150132793

$$$$
