
     RDKit          3D

 36 38  0  0  0  0  0  0  0  0999 V2000
   35.5600   29.1340   50.3820 C   0  0  0  0  0  0  0  0  0  0  0  0
   36.3640   30.1240   49.7400 C   0  0  0  0  0  0  0  0  0  0  0  0
   36.2300   30.3160   48.3670 C   0  0  0  0  0  0  0  0  0  0  0  0
   35.3250   29.5370   47.6950 N   0  0  0  0  0  0  0  0  0  0  0  0
   34.5910   28.6310   48.2970 C   0  0  0  0  0  0  0  0  0  0  0  0
   34.6880   28.4100   49.6250 N   0  0  0  0  0  0  0  0  0  0  0  0
   32.6940   30.2090   46.5440 Cl  0  0  0  0  0  0  0  0  0  0  0  0
   32.7170   28.4480   46.6740 C   0  0  0  0  0  0  0  0  0  0  0  0
   33.6320   27.8200   47.5100 C   0  0  0  0  0  0  0  0  0  0  0  0
   33.6900   26.4360   47.6470 C   0  0  0  0  0  0  0  0  0  0  0  0
   32.7680   25.7110   46.8890 C   0  0  0  0  0  0  0  0  0  0  0  0
   31.8620   26.2900   46.0650 C   0  0  0  0  0  0  0  0  0  0  0  0
   30.7610   25.2740   45.1690 Cl  0  0  0  0  0  0  0  0  0  0  0  0
   31.8330   27.6810   45.9530 C   0  0  0  0  0  0  0  0  0  0  0  0
   30.8570   28.3320   45.0620 C   0  0  0  0  0  0  0  0  0  0  0  0
   29.9740   27.3940   44.5230 F   0  0  0  0  0  0  0  0  0  0  0  0
   31.4550   29.0390   44.0590 F   0  0  0  0  0  0  0  0  0  0  0  0
   30.0830   29.2220   45.7710 F   0  0  0  0  0  0  0  0  0  0  0  0
   37.3050   30.9000   50.5960 C   0  0  0  0  0  0  0  0  0  0  0  0
   38.5970   30.8240   50.1060 F   0  0  0  0  0  0  0  0  0  0  0  0
   36.9240   32.2300   50.5470 F   0  0  0  0  0  0  0  0  0  0  0  0
   37.2990   30.5080   51.9130 F   0  0  0  0  0  0  0  0  0  0  0  0
   37.0590   31.3270   47.7250 C   0  0  0  0  0  0  0  0  0  0  0  0
   37.6390   30.8510   46.4490 C   0  0  0  0  0  0  0  0  0  0  0  0
   38.9890   30.4780   46.1120 C   0  0  0  0  0  0  0  0  0  0  0  0
   39.2030   30.0880   44.8420 C   0  0  0  0  0  0  0  0  0  0  0  0
   38.1820   30.0320   43.8510 C   0  0  0  0  0  0  0  0  0  0  0  0
   36.7020   30.6060   44.8240 S   0  0  0  0  0  0  0  0  0  0  0  0
   35.6426   28.9593   51.4649 H   0  0  0  0  0  0  0  0  0  0  0  0
   34.4165   25.9442   48.3107 H   0  0  0  0  0  0  0  0  0  0  0  0
   32.7780   24.6137   46.9649 H   0  0  0  0  0  0  0  0  0  0  0  0
   36.4416   32.2148   47.5235 H   0  0  0  0  0  0  0  0  0  0  0  0
   37.8906   31.5619   48.4056 H   0  0  0  0  0  0  0  0  0  0  0  0
   39.8013   30.5103   46.8530 H   0  0  0  0  0  0  0  0  0  0  0  0
   40.2235   29.7962   44.5533 H   0  0  0  0  0  0  0  0  0  0  0  0
   38.2495   29.7308   42.7952 H   0  0  0  0  0  0  0  0  0  0  0  0
  2  1  2  0
  2 19  1  0
  3  2  1  0
  4  5  1  0
  4  3  2  0
  5  6  2  0
  6  1  1  0
  7  8  1  0
  8  9  2  0
  9 10  1  0
  9  5  1  0
 11 10  2  0
 12 11  1  0
 13 12  1  0
 14 12  2  0
 14  8  1  0
 15 18  1  0
 15 14  1  0
 16 15  1  0
 17 15  1  0
 19 22  1  0
 20 19  1  0
 21 19  1  0
 23  3  1  0
 24 23  1  0
 25 24  2  0
 26 25  1  0
 27 28  1  0
 27 26  2  0
 28 24  1  0
  1 29  1  0
 10 30  1  0
 11 31  1  0
 23 32  1  0
 23 33  1  0
 25 34  1  0
 26 35  1  0
 27 36  1  0
M  ISO  8  29  14  30  14  31  14  32   8  33   8  34  14  35  14  36  14
M  END
>  <minimizedAffinity>  (1) 
-6.13849735

>  <minimizedRMSD>  (1) 
0.779524744

$$$$
