
     RDKit          3D

 33 35  0  0  1  0  0  0  0  0999 V2000
   33.7870   28.9960   48.1630 C   0  0  1  0  0  0  0  0  0  0  0  0
   33.3990   29.4860   46.8430 C   0  0  0  0  0  0  0  0  0  0  0  0
   33.6800   28.6090   45.6720 C   0  0  0  0  0  0  0  0  0  0  0  0
   33.5900   27.1510   45.8930 C   0  0  0  0  0  0  0  0  0  0  0  0
   33.9600   26.6520   47.2320 C   0  0  0  0  0  0  0  0  0  0  0  0
   33.5380   27.5270   48.3550 C   0  0  2  0  0  0  0  0  0  0  0  0
   35.8900   30.4110   47.9860 C   0  0  0  0  0  0  0  0  0  0  0  0
   35.1350   29.4000   48.6300 C   0  0  0  0  0  0  0  0  0  0  0  0
   35.7380   28.8180   49.7280 C   0  0  0  0  0  0  0  0  0  0  0  0
   36.9740   29.2190   50.1300 N   0  0  0  0  0  0  0  0  0  0  0  0
   37.6500   30.1900   49.4800 C   0  0  0  0  0  0  0  0  0  0  0  0
   37.0940   30.7820   48.4040 N   0  0  0  0  0  0  0  0  0  0  0  0
   31.9960   27.3760   48.4100 C   0  0  0  0  0  0  0  0  0  0  0  0
   31.2440   27.9620   49.2810 C   0  0  0  0  0  0  0  0  0  0  0  0
   29.8830   27.8090   49.3160 C   0  0  0  0  0  0  0  0  0  0  0  0
   29.3580   27.0010   48.3760 C   0  0  0  0  0  0  0  0  0  0  0  0
   30.8900   26.4590   47.4280 S   0  0  0  0  0  0  0  0  0  0  0  0
   33.0955   29.5313   48.8303 H   0  0  0  0  0  0  0  0  0  0  0  0
   32.3144   29.6680   46.8652 H   0  0  0  0  0  0  0  0  0  0  0  0
   34.0234   30.3770   46.6810 H   0  0  0  0  0  0  0  0  0  0  0  0
   34.7010   28.8307   45.3280 H   0  0  0  0  0  0  0  0  0  0  0  0
   32.8874   28.8386   44.9446 H   0  0  0  0  0  0  0  0  0  0  0  0
   32.5492   26.8502   45.7027 H   0  0  0  0  0  0  0  0  0  0  0  0
   34.3319   26.7122   45.2096 H   0  0  0  0  0  0  0  0  0  0  0  0
   33.4939   25.6655   47.3716 H   0  0  0  0  0  0  0  0  0  0  0  0
   35.0591   26.6170   47.2594 H   0  0  0  0  0  0  0  0  0  0  0  0
   34.1088   27.2218   49.2444 H   0  0  0  0  0  0  0  0  0  0  0  0
   35.4611   30.9088   47.1038 H   0  0  0  0  0  0  0  0  0  0  0  0
   35.2147   28.0243   50.2814 H   0  0  0  0  0  0  0  0  0  0  0  0
   38.6482   30.4962   49.8261 H   0  0  0  0  0  0  0  0  0  0  0  0
   31.7180   28.6141   50.0294 H   0  0  0  0  0  0  0  0  0  0  0  0
   29.2577   28.3153   50.0661 H   0  0  0  0  0  0  0  0  0  0  0  0
   28.3060   26.7283   48.2062 H   0  0  0  0  0  0  0  0  0  0  0  0
  1  6  1  0
  1  8  1  0
  2  1  1  0
  3  4  1  0
  3  2  1  0
  4  5  1  0
  5  6  1  0
  6 13  1  0
  7 12  2  0
  7  8  1  0
  8  9  2  0
  9 10  1  0
 11 10  2  0
 12 11  1  0
 13 14  2  0
 14 15  1  0
 16 15  2  0
 17 16  1  0
 17 13  1  0
  1 18  1  1
  2 19  1  0
  2 20  1  0
  3 21  1  0
  3 22  1  0
  4 23  1  0
  4 24  1  0
  5 25  1  0
  5 26  1  0
  6 27  1  1
  7 28  1  0
  9 29  1  0
 11 30  1  0
 14 31  1  0
 15 32  1  0
 16 33  1  0
M  ISO  8  18  13  19  13  20  13  21  13  22  13  23  13  24  13  25  13
M  ISO  8  26  13  27  13  28  14  29  14  30  14  31  14  32  14  33  14
M  END
>  <minimizedAffinity>  (1) 
-4.61473894

>  <minimizedRMSD>  (1) 
1.80214071

$$$$
