
     RDKit          3D

 27 29  0  0  0  0  0  0  0  0999 V2000
   37.2587   30.0681   51.4982 C   0  0  0  0  0  0  0  0  0  0  0  0
   37.9986   30.7806   50.5141 C   0  0  0  0  0  0  0  0  0  0  0  0
   37.6516   30.6285   49.1876 C   0  0  0  0  0  0  0  0  0  0  0  0
   36.6089   29.7980   48.8646 N   0  0  0  0  0  0  0  0  0  0  0  0
   35.9243   29.1320   49.8388 C   0  0  0  0  0  0  0  0  0  0  0  0
   36.2429   29.2649   51.1264 N   0  0  0  0  0  0  0  0  0  0  0  0
   38.3450   31.3045   48.1069 C   0  0  0  0  0  0  0  0  0  0  0  0
   38.7968   32.5756   48.3536 C   0  0  0  0  0  0  0  0  0  0  0  0
   39.4801   33.2920   47.3558 C   0  0  0  0  0  0  0  0  0  0  0  0
   39.6781   32.6746   46.1264 C   0  0  0  0  0  0  0  0  0  0  0  0
   39.2377   31.4018   45.8459 C   0  0  0  0  0  0  0  0  0  0  0  0
   38.5652   30.7324   46.8696 C   0  0  0  0  0  0  0  0  0  0  0  0
   37.4870   30.1504   52.5452 H   0  0  0  0  0  0  0  0  0  0  0  0
   35.1292   28.5138   49.4394 H   0  0  0  0  0  0  0  0  0  0  0  0
   38.7192   33.1908   49.2269 H   0  0  0  0  0  0  0  0  0  0  0  0
   39.8710   34.2936   47.4587 H   0  0  0  0  0  0  0  0  0  0  0  0
   40.2032   33.1895   45.3188 H   0  0  0  0  0  0  0  0  0  0  0  0
   39.4137   30.9660   44.8814 H   0  0  0  0  0  0  0  0  0  0  0  0
   38.2087   29.7278   46.6724 H   0  0  0  0  0  0  0  0  0  0  0  0
   39.0599   31.5992   51.0118 C   0  0  0  0  0  0  0  0  0  0  0  0
   40.2488   31.1175   51.6992 C   0  0  0  0  0  0  0  0  0  0  0  0
   40.3533   30.0617   51.8515 H   0  0  0  0  0  0  0  0  0  0  0  0
   41.1475   32.0531   52.1017 C   0  0  0  0  0  0  0  0  0  0  0  0
   40.9170   33.4619   51.8492 C   0  0  0  0  0  0  0  0  0  0  0  0
   39.3028   33.4574   50.9750 S   0  0  0  0  0  0  0  0  0  0  0  0
   42.0555   31.7779   52.6179 H   0  0  0  0  0  0  0  0  0  0  0  0
   41.5475   34.2405   52.1199 H   0  0  0  0  0  0  0  0  0  0  0  0
  2  1  2  0
  3  2  1  0
  4  3  2  0
  4  5  1  0
  5  6  2  0
  6  1  1  0
  7  8  2  0
  7  3  1  0
  9  8  1  0
 10  9  2  0
 11 10  1  0
 11 12  2  0
 12  7  1  0
  1 13  1  0
  5 14  1  0
  8 15  1  0
  9 16  1  0
 10 17  1  0
 11 18  1  0
 12 19  1  0
 20 21  2  0
 21 22  1  0
 21 23  1  0
 23 24  2  0
 24 25  1  0
 25 20  1  0
 23 26  1  0
 24 27  1  0
  2 20  1  0
M  ISO  8  13  14  14  14  15  14  16  14  17  14  18  14  19  14  22  15
M  END
>  <DihAtoms>  (1) 
0,1,19,20

>  <DihDeg>  (1) 
-55.750744569285374

$$$$
