
     RDKit          3D

 27 29  0  0  0  0  0  0  0  0999 V2000
   35.1670   30.0080   46.7410 C   0  0  0  0  0  0  0  0  0  0  0  0
   36.4780   30.5600   46.7240 C   0  0  0  0  0  0  0  0  0  0  0  0
   37.0460   30.8740   45.5070 C   0  0  0  0  0  0  0  0  0  0  0  0
   36.3290   30.6450   44.3600 N   0  0  0  0  0  0  0  0  0  0  0  0
   35.0740   30.1140   44.4200 C   0  0  0  0  0  0  0  0  0  0  0  0
   34.5070   29.8030   45.5850 N   0  0  0  0  0  0  0  0  0  0  0  0
   38.3780   31.4360   45.3780 C   0  0  0  0  0  0  0  0  0  0  0  0
   39.4350   30.6000   45.6300 C   0  0  0  0  0  0  0  0  0  0  0  0
   40.7540   31.0730   45.5210 C   0  0  0  0  0  0  0  0  0  0  0  0
   40.9470   32.4000   45.1550 C   0  0  0  0  0  0  0  0  0  0  0  0
   39.9080   33.2640   44.8960 C   0  0  0  0  0  0  0  0  0  0  0  0
   38.6170   32.7470   45.0170 C   0  0  0  0  0  0  0  0  0  0  0  0
   37.0930   30.7310   48.0030 C   0  0  0  0  0  0  0  0  0  0  0  0
   37.1580   29.7240   49.0510 C   0  0  0  0  0  0  0  0  0  0  0  0
   37.7850   30.0780   50.2040 C   0  0  0  0  0  0  0  0  0  0  0  0
   38.3580   31.4000   50.3630 C   0  0  0  0  0  0  0  0  0  0  0  0
   37.9760   32.2020   48.7570 S   0  0  0  0  0  0  0  0  0  0  0  0
   34.6921   29.7485   47.6987 H   0  0  0  0  0  0  0  0  0  0  0  0
   34.5183   29.9388   43.4870 H   0  0  0  0  0  0  0  0  0  0  0  0
   39.2500   29.5548   45.9187 H   0  0  0  0  0  0  0  0  0  0  0  0
   41.6100   30.4113   45.7198 H   0  0  0  0  0  0  0  0  0  0  0  0
   41.9770   32.7764   45.0685 H   0  0  0  0  0  0  0  0  0  0  0  0
   40.0859   34.3106   44.6078 H   0  0  0  0  0  0  0  0  0  0  0  0
   37.7601   33.4073   44.8177 H   0  0  0  0  0  0  0  0  0  0  0  0
   36.7206   28.7237   48.9168 H   0  0  0  0  0  0  0  0  0  0  0  0
   37.8585   29.3519   51.0270 H   0  0  0  0  0  0  0  0  0  0  0  0
   38.8895   31.8184   51.2304 H   0  0  0  0  0  0  0  0  0  0  0  0
  2  1  2  0
  2 13  1  0
  3  2  1  0
  4  5  1  0
  4  3  2  0
  5  6  2  0
  6  1  1  0
  7  3  1  0
  7  8  2  0
  9  8  1  0
 10  9  2  0
 11 12  2  0
 11 10  1  0
 12  7  1  0
 13 17  1  0
 13 14  2  0
 14 15  1  0
 15 16  2  0
 17 16  1  0
  1 18  1  0
  5 19  1  0
  8 20  1  0
  9 21  1  0
 10 22  1  0
 11 23  1  0
 12 24  1  0
 14 25  1  0
 15 26  1  0
 16 27  1  0
M  ISO  8  18  14  19  14  20  14  21  14  22  14  23  14  24  14  25  14
M  ISO  2  26  14  27  14
M  END
>  <minimizedAffinity>  (1) 
-5.45830345

>  <minimizedRMSD>  (1) 
3.91087937

$$$$
