
     RDKit          3D

 27 29  0  0  0  0  0  0  0  0999 V2000
   37.2587   30.0681   51.4982 C   0  0  0  0  0  0  0  0  0  0  0  0
   37.9986   30.7806   50.5141 C   0  0  0  0  0  0  0  0  0  0  0  0
   37.6516   30.6285   49.1876 C   0  0  0  0  0  0  0  0  0  0  0  0
   36.6089   29.7980   48.8646 N   0  0  0  0  0  0  0  0  0  0  0  0
   35.9243   29.1320   49.8388 C   0  0  0  0  0  0  0  0  0  0  0  0
   36.2429   29.2649   51.1264 N   0  0  0  0  0  0  0  0  0  0  0  0
   38.3450   31.3045   48.1069 C   0  0  0  0  0  0  0  0  0  0  0  0
   38.7968   32.5756   48.3536 C   0  0  0  0  0  0  0  0  0  0  0  0
   39.4801   33.2920   47.3558 C   0  0  0  0  0  0  0  0  0  0  0  0
   39.6781   32.6746   46.1264 C   0  0  0  0  0  0  0  0  0  0  0  0
   39.2377   31.4018   45.8459 C   0  0  0  0  0  0  0  0  0  0  0  0
   38.5652   30.7324   46.8696 C   0  0  0  0  0  0  0  0  0  0  0  0
   37.4870   30.1504   52.5452 H   0  0  0  0  0  0  0  0  0  0  0  0
   35.1292   28.5138   49.4394 H   0  0  0  0  0  0  0  0  0  0  0  0
   38.7192   33.1908   49.2269 H   0  0  0  0  0  0  0  0  0  0  0  0
   39.8710   34.2936   47.4587 H   0  0  0  0  0  0  0  0  0  0  0  0
   40.2032   33.1895   45.3188 H   0  0  0  0  0  0  0  0  0  0  0  0
   39.4137   30.9660   44.8814 H   0  0  0  0  0  0  0  0  0  0  0  0
   38.2087   29.7278   46.6724 H   0  0  0  0  0  0  0  0  0  0  0  0
   39.0599   31.5992   51.0118 C   0  0  0  0  0  0  0  0  0  0  0  0
   38.9214   32.6501   52.0090 C   0  0  0  0  0  0  0  0  0  0  0  0
   37.9477   32.8374   52.4160 H   0  0  0  0  0  0  0  0  0  0  0  0
   40.0498   33.3234   52.3532 C   0  0  0  0  0  0  0  0  0  0  0  0
   41.3247   32.9965   51.7454 C   0  0  0  0  0  0  0  0  0  0  0  0
   40.8880   31.6308   50.5991 S   0  0  0  0  0  0  0  0  0  0  0  0
   40.0320   34.1170   53.0857 H   0  0  0  0  0  0  0  0  0  0  0  0
   42.2323   33.4569   51.9485 H   0  0  0  0  0  0  0  0  0  0  0  0
  2  1  2  0
  3  2  1  0
  4  3  2  0
  4  5  1  0
  5  6  2  0
  6  1  1  0
  7  8  2  0
  7  3  1  0
  9  8  1  0
 10  9  2  0
 11 10  1  0
 11 12  2  0
 12  7  1  0
  1 13  1  0
  5 14  1  0
  8 15  1  0
  9 16  1  0
 10 17  1  0
 11 18  1  0
 12 19  1  0
 20 21  2  0
 21 22  1  0
 21 23  1  0
 23 24  2  0
 24 25  1  0
 25 20  1  0
 23 26  1  0
 24 27  1  0
  2 20  1  0
M  ISO  8  13  14  14  14  15  14  16  14  17  14  18  14  19  14  22  15
M  END
>  <DihAtoms>  (1) 
0,1,19,20

>  <DihDeg>  (1) 
-55.750744569285374

$$$$
