
     RDKit          3D

 31 33  0  0  0  0  0  0  0  0999 V2000
   37.4708   31.4324   49.3863 C   0  0  0  0  0  0  0  0  0  0  0  0
   37.8682   32.7188   49.7039 C   0  0  0  0  0  0  0  0  0  0  0  0
   38.6823   33.3367   48.7530 C   0  0  0  0  0  0  0  0  0  0  0  0
   39.0288   32.6676   47.6081 N   0  0  0  0  0  0  0  0  0  0  0  0
   38.6149   31.4081   47.3409 C   0  0  0  0  0  0  0  0  0  0  0  0
   37.8191   30.7853   48.2565 N   0  0  0  0  0  0  0  0  0  0  0  0
   36.5683   30.7380   50.3647 C   0  0  0  0  0  0  0  0  0  0  0  0
   36.4682   29.3203   50.4658 C   0  0  0  0  0  0  0  0  0  0  0  0
   37.3517   30.0260   51.4882 C   0  0  0  0  0  0  0  0  0  0  0  0
   38.9746   30.6984   46.1224 C   0  0  0  0  0  0  0  0  0  0  0  0
   41.0554   31.5586   45.0198 C   0  0  0  0  0  0  0  0  0  0  0  0
   40.4547   32.2832   44.1836 O   0  0  0  0  0  0  0  0  0  0  0  0
   40.4220   30.7653   46.0057 N   0  0  0  0  0  0  0  0  0  0  0  0
   37.5544   33.1679   50.6159 H   0  0  0  0  0  0  0  0  0  0  0  0
   39.0270   34.3443   48.9430 H   0  0  0  0  0  0  0  0  0  0  0  0
   35.7593   31.4141   50.7266 H   0  0  0  0  0  0  0  0  0  0  0  0
   36.9404   28.5979   49.7697 H   0  0  0  0  0  0  0  0  0  0  0  0
   35.5018   28.8957   50.8593 H   0  0  0  0  0  0  0  0  0  0  0  0
   38.4272   29.8787   51.3756 H   0  0  0  0  0  0  0  0  0  0  0  0
   36.9246   30.1736   52.4920 H   0  0  0  0  0  0  0  0  0  0  0  0
   38.6969   29.6483   46.1724 H   0  0  0  0  0  0  0  0  0  0  0  0
   38.5197   31.1063   45.1964 H   0  0  0  0  0  0  0  0  0  0  0  0
   41.0201   30.2136   46.6665 H   0  0  0  0  0  0  0  0  0  0  0  0
   42.5328   31.5754   44.9191 C   0  0  0  0  0  0  0  0  0  0  0  0
   43.4273   30.5634   44.9502 C   0  0  0  0  0  0  0  0  0  0  0  0
   43.0353   29.5637   45.0666 H   0  0  0  0  0  0  0  0  0  0  0  0
   44.7568   30.8053   44.8391 C   0  0  0  0  0  0  0  0  0  0  0  0
   45.0997   32.2203   44.6886 C   0  0  0  0  0  0  0  0  0  0  0  0
   43.3915   33.0385   44.7296 S   0  0  0  0  0  0  0  0  0  0  0  0
   45.5338   30.0579   44.8543 H   0  0  0  0  0  0  0  0  0  0  0  0
   46.2298   32.5028   44.5873 H   0  0  0  0  0  0  0  0  0  0  0  0
  1  2  2  0
  1  7  1  0
  3  2  1  0
  4  3  2  0
  5  4  1  0
  5  6  2  0
  6  1  1  0
  7  8  1  0
  7  9  1  0
  8  9  1  0
 10  5  1  0
 11 13  1  0
 12 11  2  0
 13 10  1  0
  2 14  1  0
  3 15  1  0
  7 16  1  0
  8 17  1  0
  8 18  1  0
  9 19  1  0
  9 20  1  0
 10 21  1  0
 10 22  1  0
 13 23  1  0
 24 25  2  0
 25 26  1  0
 25 27  1  0
 27 28  2  0
 28 29  1  0
 29 24  1  0
 27 30  1  0
 28 31  1  0
 11 24  1  0
M  ISO  8  14  14  15  14  16  13  17  13  18  13  19  13  20  13  21   8
M  ISO  2  22   8  26  15
M  END
>  <DihAtoms>  (1) 
12,10,23,24

>  <DihDeg>  (1) 
0.001393223026988743

$$$$
