
     RDKit          3D

 19 20  0  0  0  0  0  0  0  0999 V2000
   37.2682   30.1840   51.4312 C   0  0  0  0  0  0  0  0  0  0  0  0
   38.0964   30.7566   50.4539 C   0  0  0  0  0  0  0  0  0  0  0  0
   37.8031   30.4926   49.1056 C   0  0  0  0  0  0  0  0  0  0  0  0
   36.7406   29.7023   48.8183 N   0  0  0  0  0  0  0  0  0  0  0  0
   35.9629   29.1665   49.7891 C   0  0  0  0  0  0  0  0  0  0  0  0
   36.2228   29.4036   51.0686 N   0  0  0  0  0  0  0  0  0  0  0  0
   34.8256   28.3156   49.4955 C   0  0  0  0  0  0  0  0  0  0  0  0
   33.6303   28.7118   49.5569 O   0  0  0  0  0  0  0  0  0  0  0  0
   37.5411   30.4208   52.4421 H   0  0  0  0  0  0  0  0  0  0  0  0
   38.9299   31.3784   50.7340 H   0  0  0  0  0  0  0  0  0  0  0  0
   38.4207   30.9182   48.3396 H   0  0  0  0  0  0  0  0  0  0  0  0
   35.0521   26.9271   49.1075 C   0  0  0  0  0  0  0  0  0  0  0  0
   35.4876   26.4072   47.9556 C   0  0  0  0  0  0  0  0  0  0  0  0
   35.7300   27.0942   47.1301 H   0  0  0  0  0  0  0  0  0  0  0  0
   35.6417   25.0759   47.7651 C   0  0  0  0  0  0  0  0  0  0  0  0
   35.2914   24.2792   48.9211 C   0  0  0  0  0  0  0  0  0  0  0  0
   34.7715   25.5640   50.1705 S   0  0  0  0  0  0  0  0  0  0  0  0
   35.9868   24.5830   46.8676 H   0  0  0  0  0  0  0  0  0  0  0  0
   35.4006   23.0761   48.8349 H   0  0  0  0  0  0  0  0  0  0  0  0
  2  1  2  0
  3  2  1  0
  4  3  2  0
  4  5  1  0
  5  6  2  0
  6  1  1  0
  7  8  2  0
  7  5  1  0
  1  9  1  0
  2 10  1  0
  3 11  1  0
 12 13  2  0
 13 14  1  0
 13 15  1  0
 15 16  2  0
 16 17  1  0
 17 12  1  0
 15 18  1  0
 16 19  1  0
  7 12  1  0
M  ISO  4   9  14  10  14  11  14  14  15
M  END
>  <DihAtoms>  (1) 
7,6,11,12

>  <DihDeg>  (1) 
0.003908902525629712

$$$$
