
     RDKit          3D

 19 20  0  0  0  0  0  0  0  0999 V2000
   37.7170   30.2700   51.1660 C   0  0  0  0  0  0  0  0  0  0  0  0
   38.2720   31.1720   50.2460 C   0  0  0  0  0  0  0  0  0  0  0  0
   37.4980   31.5350   49.1320 C   0  0  0  0  0  0  0  0  0  0  0  0
   36.2610   30.9980   49.0010 N   0  0  0  0  0  0  0  0  0  0  0  0
   35.7570   30.1290   49.9110 C   0  0  0  0  0  0  0  0  0  0  0  0
   36.4730   29.7740   50.9720 N   0  0  0  0  0  0  0  0  0  0  0  0
   34.4370   29.5450   49.7820 C   0  0  0  0  0  0  0  0  0  0  0  0
   33.5320   29.6780   50.6510 O   0  0  0  0  0  0  0  0  0  0  0  0
   34.1160   28.7560   48.5970 C   0  0  0  0  0  0  0  0  0  0  0  0
   34.0920   27.4330   48.4150 C   0  0  0  0  0  0  0  0  0  0  0  0
   33.7680   26.8630   47.2300 C   0  0  0  0  0  0  0  0  0  0  0  0
   33.4520   27.8190   46.1910 C   0  0  0  0  0  0  0  0  0  0  0  0
   33.6630   29.4580   47.0570 S   0  0  0  0  0  0  0  0  0  0  0  0
   38.2961   29.9643   52.0498 H   0  0  0  0  0  0  0  0  0  0  0  0
   39.2821   31.5822   50.3927 H   0  0  0  0  0  0  0  0  0  0  0  0
   37.8873   32.2396   48.3824 H   0  0  0  0  0  0  0  0  0  0  0  0
   34.3459   26.7794   49.2626 H   0  0  0  0  0  0  0  0  0  0  0  0
   33.7470   25.7746   47.0721 H   0  0  0  0  0  0  0  0  0  0  0  0
   33.1596   27.6269   45.1481 H   0  0  0  0  0  0  0  0  0  0  0  0
  2  1  2  0
  3  2  1  0
  4  3  2  0
  4  5  1  0
  5  6  2  0
  6  1  1  0
  7  5  1  0
  7  8  2  0
  9  7  1  0
 10  9  2  0
 11 10  1  0
 12 13  1  0
 12 11  2  0
 13  9  1  0
  1 14  1  0
  2 15  1  0
  3 16  1  0
 10 17  1  0
 11 18  1  0
 12 19  1  0
M  ISO  6  14  14  15  14  16  14  17  14  18  14  19  14
M  END
>  <minimizedAffinity>  (1) 
-4.06025076

>  <minimizedRMSD>  (1) 
2.16080046

$$$$
