
     RDKit          3D

 50 53  0  0  0  0  0  0  0  0999 V2000
   33.9171   28.3928   47.9491 C   0  0  0  0  0  0  0  0  0  0  0  0
   35.2070   30.6133   46.8884 F   0  0  0  0  0  0  0  0  0  0  0  0
   35.5836   30.0914   48.1036 C   0  0  0  0  0  0  0  0  0  0  0  0
   34.9627   28.9751   48.6939 C   0  0  0  0  0  0  0  0  0  0  0  0
   35.4788   28.6357   49.8667 C   0  0  0  0  0  0  0  0  0  0  0  0
   36.5134   29.2708   50.4901 C   0  0  0  0  0  0  0  0  0  0  0  0
   37.1294   30.3778   49.9039 C   0  0  0  0  0  0  0  0  0  0  0  0
   36.6068   30.7218   48.7164 C   0  0  0  0  0  0  0  0  0  0  0  0
   38.2415   31.0515   50.5726 C   0  0  0  0  0  0  0  0  0  0  0  0
   37.2544   31.8700   48.1164 O   0  0  0  0  0  0  0  0  0  0  0  0
   38.3737   31.5611   47.3780 C   0  0  0  0  0  0  0  0  0  0  0  0
   39.2357   32.4932   47.3643 O   0  0  0  0  0  0  0  0  0  0  0  0
   38.8060   30.4536   46.6237 N   0  0  0  0  0  0  0  0  0  0  0  0
   32.7468   27.8728   48.7286 C   0  0  0  0  0  0  0  0  0  0  0  0
   30.4203   27.2082   48.3709 C   0  0  0  0  0  0  0  0  0  0  0  0
   31.7336   27.2067   47.9553 C   0  0  0  0  0  0  0  0  0  0  0  0
   31.9570   26.5720   46.7992 C   0  0  0  0  0  0  0  0  0  0  0  0
   30.9710   25.9819   46.0982 N   0  0  0  0  0  0  0  0  0  0  0  0
   29.6839   25.9746   46.4885 C   0  0  0  0  0  0  0  0  0  0  0  0
   29.3976   26.5938   47.6383 N   0  0  0  0  0  0  0  0  0  0  0  0
   29.9885   27.7827   49.6841 C   0  0  1  0  0  0  0  0  0  0  0  0
   28.9145   28.7563   49.7020 C   0  0  0  0  0  0  0  0  0  0  0  0
   28.6506   27.2821   50.1471 C   0  0  2  0  0  0  0  0  0  0  0  0
   28.3332   27.1774   51.5621 C   0  0  0  0  0  0  0  0  0  0  0  0
   27.2117   26.6956   51.7956 O   0  0  0  0  0  0  0  0  0  0  0  0
   34.3461   27.5053   47.3992 H   0  0  0  0  0  0  0  0  0  0  0  0
   33.4761   29.0279   47.1493 H   0  0  0  0  0  0  0  0  0  0  0  0
   35.0245   27.7585   50.3793 H   0  0  0  0  0  0  0  0  0  0  0  0
   36.8586   28.8982   51.4656 H   0  0  0  0  0  0  0  0  0  0  0  0
   38.1074   31.0794   51.6568 H   0  0  0  0  0  0  0  0  0  0  0  0
   38.2160   32.1273   50.2420 H   0  0  0  0  0  0  0  0  0  0  0  0
   39.2508   30.6711   50.2640 H   0  0  0  0  0  0  0  0  0  0  0  0
   39.1209   30.5932   45.6269 H   0  0  0  0  0  0  0  0  0  0  0  0
   39.1229   30.5804   45.6268 H   0  0  0  0  0  0  0  0  0  0  0  0
   33.1321   27.2035   49.5241 H   0  0  0  0  0  0  0  0  0  0  0  0
   32.2927   28.7576   49.2526 H   0  0  0  0  0  0  0  0  0  0  0  0
   32.9369   26.4891   46.3504 H   0  0  0  0  0  0  0  0  0  0  0  0
   28.8596   25.5216   45.9714 H   0  0  0  0  0  0  0  0  0  0  0  0
   30.8072   27.9536   50.3723 H   0  0  0  0  0  0  0  0  0  0  0  0
   28.8633   29.5200   50.4782 H   0  0  0  0  0  0  0  0  0  0  0  0
   28.4908   29.0552   48.7260 H   0  0  0  0  0  0  0  0  0  0  0  0
   27.9427   26.7829   49.4149 H   0  0  0  0  0  0  0  0  0  0  0  0
   29.0382   27.5134   52.8236 C   0  0  0  0  0  0  0  0  0  0  0  0
   30.3117   27.4040   53.4430 C   0  0  0  0  0  0  0  0  0  0  0  0
   31.0885   26.9341   52.8909 H   0  0  0  0  0  0  0  0  0  0  0  0
   30.3420   27.9370   54.6833 C   0  0  0  0  0  0  0  0  0  0  0  0
   29.3242   28.5227   55.3282 C   0  0  0  0  0  0  0  0  0  0  0  0
   28.0003   28.3829   54.1034 S   0  0  0  0  0  0  0  0  0  0  0  0
   31.2826   27.8986   55.2393 H   0  0  0  0  0  0  0  0  0  0  0  0
   29.1947   28.9739   56.2711 H   0  0  0  0  0  0  0  0  0  0  0  0
  1  4  1  0
  1 14  1  0
  2  3  1  0
  3  4  2  0
  3  8  1  0
  4  5  1  0
  5  6  2  0
  7  6  1  0
  7  9  1  0
  8  7  2  0
 10  8  1  0
 11 10  1  0
 12 11  2  0
 13 11  1  0
 15 21  1  0
 16 15  1  0
 16 14  1  0
 17 16  2  0
 18 19  2  0
 18 17  1  0
 19 20  1  0
 20 15  2  0
 21 22  1  0
 21 23  1  0
 22 23  1  0
 23 24  1  0
 24 25  2  0
  1 26  1  0
  1 27  1  0
  5 28  1  0
  6 29  1  0
  9 30  1  0
  9 31  1  0
  9 32  1  0
 13 33  1  0
 13 34  1  0
 14 35  1  0
 14 36  1  0
 17 37  1  0
 19 38  1  0
 21 39  1  1
 22 40  1  0
 22 41  1  0
 23 42  1  6
 43 44  2  0
 44 45  1  0
 44 46  1  0
 46 47  2  0
 47 48  1  0
 48 43  1  0
 46 49  1  0
 47 50  1  0
 24 43  1  0
M  ISO  8  26   8  27   8  28  14  29  14  30   8  31   8  32   8  35   8
M  ISO  8  36   8  37  14  38  14  39  13  40  13  41  13  42  13  45  15
M  END
>  <DihAtoms>  (1) 
22,23,42,43

>  <DihDeg>  (1) 
0.7367390911939926

$$$$
