
     RDKit          3D

 32 34  0  0  0  0  0  0  0  0999 V2000
   37.3463   30.1496   51.3594 C   0  0  0  0  0  0  0  0  0  0  0  0
   38.0001   30.5082   50.1676 C   0  0  0  0  0  0  0  0  0  0  0  0
   37.4132   30.1505   48.9542 C   0  0  0  0  0  0  0  0  0  0  0  0
   36.2325   29.4695   48.9898 N   0  0  0  0  0  0  0  0  0  0  0  0
   35.6388   29.1451   50.1514 C   0  0  0  0  0  0  0  0  0  0  0  0
   36.1885   29.4809   51.3313 N   0  0  0  0  0  0  0  0  0  0  0  0
   37.8531   30.3845   47.6965 O   0  0  0  0  0  0  0  0  0  0  0  0
   39.0601   32.7310   48.1352 O   0  0  0  0  0  0  0  0  0  0  0  0
   38.7030   31.7201   47.1025 P   0  0  2  0  0  0  0  0  0  0  0  0
   37.8192   32.4527   45.8421 O   0  0  0  0  0  0  0  0  0  0  0  0
   40.1652   31.1798   46.4230 O   0  0  0  0  0  0  0  0  0  0  0  0
   37.9084   30.4873   52.2089 H   0  0  0  0  0  0  0  0  0  0  0  0
   38.9180   31.0365   50.0714 H   0  0  0  0  0  0  0  0  0  0  0  0
   34.6930   28.5996   50.1696 H   0  0  0  0  0  0  0  0  0  0  0  0
   37.9817   32.0078   44.9740 H   0  0  0  0  0  0  0  0  0  0  0  0
   40.9344   32.0560   45.6702 C   0  0  0  0  0  0  0  0  0  0  0  0
   41.0885   32.1010   44.3000 C   0  0  0  0  0  0  0  0  0  0  0  0
   40.5281   31.3470   43.7668 H   0  0  0  0  0  0  0  0  0  0  0  0
   41.8960   33.0432   43.7180 C   0  0  0  0  0  0  0  0  0  0  0  0
   42.5866   33.9814   44.4592 C   0  0  0  0  0  0  0  0  0  0  0  0
   42.4467   33.9542   45.8307 C   0  0  0  0  0  0  0  0  0  0  0  0
   43.1368   34.8921   46.5734 C   0  0  0  0  0  0  0  0  0  0  0  0
   43.0294   34.9058   47.9489 C   0  0  0  0  0  0  0  0  0  0  0  0
   42.2266   33.9737   48.5701 C   0  0  0  0  0  0  0  0  0  0  0  0
   41.5475   33.0471   47.8055 C   0  0  0  0  0  0  0  0  0  0  0  0
   41.6285   33.0002   46.4262 C   0  0  0  0  0  0  0  0  0  0  0  0
   41.9961   33.0515   42.6332 H   0  0  0  0  0  0  0  0  0  0  0  0
   43.2159   34.7169   44.0165 H   0  0  0  0  0  0  0  0  0  0  0  0
   43.7804   35.6444   46.1230 H   0  0  0  0  0  0  0  0  0  0  0  0
   43.5274   35.5968   48.6182 H   0  0  0  0  0  0  0  0  0  0  0  0
   42.1081   33.9415   49.6476 H   0  0  0  0  0  0  0  0  0  0  0  0
   40.9238   32.3258   48.3145 H   0  0  0  0  0  0  0  0  0  0  0  0
  2  1  2  0
  3  4  2  0
  3  2  1  0
  4  5  1  0
  5  6  2  0
  6  1  1  0
  7  3  1  0
  9  7  1  1
  9  8  2  0
 10  9  1  0
 11  9  1  0
  1 12  1  0
  2 13  1  0
  5 14  1  0
 10 15  1  0
 16 17  2  0
 17 18  1  0
 17 19  1  0
 19 20  2  0
 20 21  1  0
 21 22  2  0
 22 23  1  0
 23 24  2  0
 24 25  1  0
 25 26  2  0
 26 16  1  0
 26 21  1  0
 19 27  1  0
 20 28  1  0
 22 29  1  0
 23 30  1  0
 24 31  1  0
 25 32  1  0
 11 16  1  0
M  ISO  5  12  14  13  14  14  14  15   3  18  15
M  END
>  <DihAtoms>  (1) 
8,10,15,16

>  <DihDeg>  (1) 
0.0008990535334534655

$$$$
