
     RDKit          3D

 48 52  0  0  1  0  0  0  0  0999 V2000
   38.4100   31.7650   43.7770 C   0  0  0  0  0  0  0  0  0  0  0  0
   39.6050   31.0910   43.6100 C   0  0  0  0  0  0  0  0  0  0  0  0
   40.1890   31.1420   42.3590 C   0  0  0  0  0  0  0  0  0  0  0  0
   39.5690   31.8430   41.3630 C   0  0  0  0  0  0  0  0  0  0  0  0
   38.3560   32.5240   41.5370 C   0  0  0  0  0  0  0  0  0  0  0  0
   37.8180   32.4510   42.7700 N   0  0  0  0  0  0  0  0  0  0  0  0
   37.7640   31.7290   45.1040 C   0  0  0  0  0  0  0  0  0  0  0  0
   36.8040   30.9870   45.3360 O   0  0  0  0  0  0  0  0  0  0  0  0
   38.2970   32.5990   46.1320 N   0  0  0  0  0  0  0  0  0  0  0  0
   38.5410   31.3960   48.2980 C   0  0  2  0  0  0  0  0  0  0  0  0
   38.9080   32.8150   48.5480 C   0  0  0  0  0  0  0  0  0  0  0  0
   37.8720   32.3690   47.4960 C   0  0  1  0  0  0  0  0  0  0  0  0
   36.1130   29.0340   49.8290 C   0  0  0  0  0  0  0  0  0  0  0  0
   36.3800   29.2070   51.2140 C   0  0  0  0  0  0  0  0  0  0  0  0
   37.3990   30.1570   51.6100 C   0  0  0  0  0  0  0  0  0  0  0  0
   38.0660   30.8490   50.6380 N   0  0  0  0  0  0  0  0  0  0  0  0
   37.7530   30.6290   49.3330 C   0  0  0  0  0  0  0  0  0  0  0  0
   36.7870   29.7330   48.8890 N   0  0  0  0  0  0  0  0  0  0  0  0
   37.7220   33.2420   40.4460 C   0  0  0  0  0  0  0  0  0  0  0  0
   38.3770   34.1120   39.8230 O   0  0  0  0  0  0  0  0  0  0  0  0
   36.3750   33.1160   39.9190 C   0  0  0  0  0  0  0  0  0  0  0  0
   36.1330   32.1930   38.8960 C   0  0  0  0  0  0  0  0  0  0  0  0
   34.9110   31.9470   38.3070 C   0  0  0  0  0  0  0  0  0  0  0  0
   33.8290   32.6740   38.7610 C   0  0  0  0  0  0  0  0  0  0  0  0
   34.0090   33.5990   39.7690 C   0  0  0  0  0  0  0  0  0  0  0  0
   32.9330   34.3300   40.2220 C   0  0  0  0  0  0  0  0  0  0  0  0
   33.1000   35.2690   41.2330 C   0  0  0  0  0  0  0  0  0  0  0  0
   34.3650   35.4750   41.7910 C   0  0  0  0  0  0  0  0  0  0  0  0
   35.4160   34.7290   41.3150 C   0  0  0  0  0  0  0  0  0  0  0  0
   35.2530   33.8060   40.3230 C   0  0  0  0  0  0  0  0  0  0  0  0
   40.0714   30.5373   44.4382 H   0  0  0  0  0  0  0  0  0  0  0  0
   41.1408   30.6250   42.1671 H   0  0  0  0  0  0  0  0  0  0  0  0
   40.0469   31.8745   40.3727 H   0  0  0  0  0  0  0  0  0  0  0  0
   38.9562   33.3557   45.9001 H   0  0  0  0  0  0  0  0  0  0  0  0
   39.1328   30.4983   48.0659 H   0  0  0  0  0  0  0  0  0  0  0  0
   38.5876   33.3225   49.4698 H   0  0  0  0  0  0  0  0  0  0  0  0
   39.8317   33.4122   48.5573 H   0  0  0  0  0  0  0  0  0  0  0  0
   36.8089   32.5421   47.2726 H   0  0  0  0  0  0  0  0  0  0  0  0
   35.3412   28.3157   49.5153 H   0  0  0  0  0  0  0  0  0  0  0  0
   35.8246   28.6316   51.9693 H   0  0  0  0  0  0  0  0  0  0  0  0
   37.6318   30.3186   52.6729 H   0  0  0  0  0  0  0  0  0  0  0  0
   36.9928   31.6129   38.5296 H   0  0  0  0  0  0  0  0  0  0  0  0
   34.8025   31.2005   37.5064 H   0  0  0  0  0  0  0  0  0  0  0  0
   32.8321   32.5174   38.3231 H   0  0  0  0  0  0  0  0  0  0  0  0
   31.9377   34.1700   39.7819 H   0  0  0  0  0  0  0  0  0  0  0  0
   32.2379   35.8493   41.5936 H   0  0  0  0  0  0  0  0  0  0  0  0
   34.5151   36.2153   42.5906 H   0  0  0  0  0  0  0  0  0  0  0  0
   36.4169   34.8799   41.7455 H   0  0  0  0  0  0  0  0  0  0  0  0
  1  7  1  0
  2  1  2  0
  3  2  1  0
  4  5  1  0
  4  3  2  0
  5  6  2  0
  6  1  1  0
  7  8  2  0
  7  9  1  0
  9 12  1  0
 10 11  1  0
 10 17  1  0
 12 10  1  0
 12 11  1  0
 13 14  2  0
 14 15  1  0
 16 15  2  0
 17 16  1  0
 18 17  2  0
 18 13  1  0
 19  5  1  0
 20 19  2  0
 21 30  1  0
 21 19  1  0
 22 21  2  0
 23 24  2  0
 23 22  1  0
 24 25  1  0
 25 26  1  0
 25 30  2  0
 26 27  2  0
 27 28  1  0
 29 28  2  0
 30 29  1  0
  2 31  1  0
  3 32  1  0
  4 33  1  0
  9 34  1  0
 10 35  1  6
 11 36  1  0
 11 37  1  0
 12 38  1  1
 13 39  1  0
 14 40  1  0
 15 41  1  0
 22 42  1  0
 23 43  1  0
 24 44  1  0
 26 45  1  0
 27 46  1  0
 28 47  1  0
 29 48  1  0
M  ISO  8  31  14  32  14  33  14  35  13  36  13  37  13  38  13  39  14
M  ISO  8  40  14  41  14  42  14  43  14  44  14  45  14  46  14  47  14
M  ISO  1  48  14
M  END
>  <minimizedAffinity>  (1) 
-5.91115713

>  <minimizedRMSD>  (1) 
3.62479806

$$$$
