
     RDKit          3D

 43 47  0  0  0  0  0  0  0  0999 V2000
   33.8408   28.7835   48.2764 C   0  0  0  0  0  0  0  0  0  0  0  0
   34.4362   28.4228   49.4349 C   0  0  0  0  0  0  0  0  0  0  0  0
   35.7049   28.7900   49.8143 C   0  0  0  0  0  0  0  0  0  0  0  0
   36.4565   29.5799   48.9863 C   0  0  0  0  0  0  0  0  0  0  0  0
   35.8510   29.9571   47.7890 C   0  0  0  0  0  0  0  0  0  0  0  0
   34.6025   29.5717   47.4598 N   0  0  0  0  0  0  0  0  0  0  0  0
   31.6415   27.6738   48.6972 C   0  0  0  0  0  0  0  0  0  0  0  0
   32.5170   28.4013   47.8788 C   0  0  0  0  0  0  0  0  0  0  0  0
   32.0405   28.7441   46.6416 C   0  0  0  0  0  0  0  0  0  0  0  0
   30.7701   28.3725   46.2711 N   0  0  0  0  0  0  0  0  0  0  0  0
   29.9747   27.6719   47.1050 C   0  0  0  0  0  0  0  0  0  0  0  0
   30.4041   27.3181   48.3221 N   0  0  0  0  0  0  0  0  0  0  0  0
   37.7510   30.0479   49.2017 O   0  0  0  0  0  0  0  0  0  0  0  0
   38.1599   31.2948   48.7737 C   0  0  0  0  0  0  0  0  0  0  0  0
   37.8802   32.3149   49.6640 C   0  0  0  0  0  0  0  0  0  0  0  0
   38.3378   33.5247   49.1259 C   0  0  0  0  0  0  0  0  0  0  0  0
   38.8756   33.1872   47.9320 N   0  0  0  0  0  0  0  0  0  0  0  0
   38.7627   31.8928   47.7471 N   0  0  0  0  0  0  0  0  0  0  0  0
   33.9115   27.7991   50.1460 H   0  0  0  0  0  0  0  0  0  0  0  0
   36.1833   28.5018   50.7424 H   0  0  0  0  0  0  0  0  0  0  0  0
   36.3110   30.5852   47.0160 H   0  0  0  0  0  0  0  0  0  0  0  0
   31.9698   27.3797   49.6816 H   0  0  0  0  0  0  0  0  0  0  0  0
   32.6020   29.3047   45.9027 H   0  0  0  0  0  0  0  0  0  0  0  0
   28.9879   27.4127   46.7500 H   0  0  0  0  0  0  0  0  0  0  0  0
   37.4051   32.4070   50.6529 H   0  0  0  0  0  0  0  0  0  0  0  0
   38.3393   34.5574   49.4523 H   0  0  0  0  0  0  0  0  0  0  0  0
   39.5060   33.9349   46.8974 C   0  0  0  0  0  0  0  0  0  0  0  0
   40.8407   33.7967   46.5831 C   0  0  0  0  0  0  0  0  0  0  0  0
   41.4369   33.0777   47.1591 H   0  0  0  0  0  0  0  0  0  0  0  0
   41.5000   34.4935   45.5939 C   0  0  0  0  0  0  0  0  0  0  0  0
   40.7465   35.3972   44.8714 C   0  0  0  0  0  0  0  0  0  0  0  0
   39.3888   35.5981   45.1254 C   0  0  0  0  0  0  0  0  0  0  0  0
   38.6853   36.5133   44.3729 C   0  0  0  0  0  0  0  0  0  0  0  0
   37.3408   36.6483   44.6941 C   0  0  0  0  0  0  0  0  0  0  0  0
   36.6701   35.9563   45.6820 C   0  0  0  0  0  0  0  0  0  0  0  0
   37.4507   35.0799   46.3654 C   0  0  0  0  0  0  0  0  0  0  0  0
   38.7940   34.8538   46.1438 C   0  0  0  0  0  0  0  0  0  0  0  0
   42.5363   34.3743   45.3628 H   0  0  0  0  0  0  0  0  0  0  0  0
   41.2445   35.9541   44.0909 H   0  0  0  0  0  0  0  0  0  0  0  0
   39.1260   37.1002   43.5797 H   0  0  0  0  0  0  0  0  0  0  0  0
   36.7957   37.3840   44.0822 H   0  0  0  0  0  0  0  0  0  0  0  0
   35.6242   36.1246   45.8630 H   0  0  0  0  0  0  0  0  0  0  0  0
   37.0105   34.4780   47.1748 H   0  0  0  0  0  0  0  0  0  0  0  0
  1  2  2  0
  2  3  1  0
  4 13  1  0
  4  3  2  0
  5  4  1  0
  6  5  2  0
  6  1  1  0
  8  1  1  0
  8  7  2  0
  9  8  1  0
 10  9  2  0
 10 11  1  0
 11 12  2  0
 12  7  1  0
 14 13  1  0
 14 15  1  0
 16 15  2  0
 17 16  1  0
 18 17  1  0
 18 14  2  0
  2 19  1  0
  3 20  1  0
  5 21  1  0
  7 22  1  0
  9 23  1  0
 11 24  1  0
 15 25  1  0
 16 26  1  0
 27 28  2  0
 28 29  1  0
 28 30  1  0
 30 31  2  0
 31 32  1  0
 32 33  2  0
 33 34  1  0
 34 35  2  0
 35 36  1  0
 36 37  2  0
 37 27  1  0
 37 32  1  0
 30 38  1  0
 31 39  1  0
 33 40  1  0
 34 41  1  0
 35 42  1  0
 36 43  1  0
 17 27  1  0
M  ISO  8  19  14  20  14  21  14  22  14  23  14  24  14  25  14  26  14
M  ISO  1  29  15
M  END
>  <DihAtoms>  (1) 
15,16,26,27

>  <DihDeg>  (1) 
113.07732114622931

$$$$
