
     RDKit          3D

 27 29  0  0  0  0  0  0  0  0999 V2000
   37.3199   30.2270   51.4224 C   0  0  0  0  0  0  0  0  0  0  0  0
   38.0732   30.7329   50.3479 C   0  0  0  0  0  0  0  0  0  0  0  0
   37.6961   30.3709   49.0329 C   0  0  0  0  0  0  0  0  0  0  0  0
   36.6161   29.5479   48.9060 N   0  0  0  0  0  0  0  0  0  0  0  0
   35.9246   29.0878   49.9648 C   0  0  0  0  0  0  0  0  0  0  0  0
   36.2810   29.4302   51.2136 N   0  0  0  0  0  0  0  0  0  0  0  0
   34.8811   28.2784   49.6014 O   0  0  0  0  0  0  0  0  0  0  0  0
   37.6502   30.5343   52.4081 H   0  0  0  0  0  0  0  0  0  0  0  0
   38.9316   31.3849   50.4116 H   0  0  0  0  0  0  0  0  0  0  0  0
   38.2542   30.7424   48.1809 H   0  0  0  0  0  0  0  0  0  0  0  0
   33.9715   27.6374   50.3853 C   0  0  0  0  0  0  0  0  0  0  0  0
   33.0885   26.6166   50.1016 C   0  0  0  0  0  0  0  0  0  0  0  0
   33.1453   26.2843   49.0761 H   0  0  0  0  0  0  0  0  0  0  0  0
   32.2352   26.0961   51.0488 C   0  0  0  0  0  0  0  0  0  0  0  0
   32.2224   26.5750   52.3396 C   0  0  0  0  0  0  0  0  0  0  0  0
   33.0969   27.5966   52.6486 C   0  0  0  0  0  0  0  0  0  0  0  0
   33.0415   28.0376   53.9554 C   0  0  0  0  0  0  0  0  0  0  0  0
   33.8785   29.0522   54.3484 C   0  0  0  0  0  0  0  0  0  0  0  0
   34.7414   29.5986   53.4426 C   0  0  0  0  0  0  0  0  0  0  0  0
   34.7749   29.1426   52.1557 C   0  0  0  0  0  0  0  0  0  0  0  0
   33.9606   28.1266   51.6980 C   0  0  0  0  0  0  0  0  0  0  0  0
   31.5727   25.2898   50.7296 H   0  0  0  0  0  0  0  0  0  0  0  0
   31.5491   26.1552   53.0634 H   0  0  0  0  0  0  0  0  0  0  0  0
   32.3763   27.6260   54.6787 H   0  0  0  0  0  0  0  0  0  0  0  0
   33.8854   29.4444   55.3580 H   0  0  0  0  0  0  0  0  0  0  0  0
   35.4236   30.4024   53.7019 H   0  0  0  0  0  0  0  0  0  0  0  0
   35.4632   29.5820   51.4429 H   0  0  0  0  0  0  0  0  0  0  0  0
  2  1  2  0
  3  2  1  0
  4  3  2  0
  4  5  1  0
  5  6  2  0
  6  1  1  0
  7  5  1  0
  1  8  1  0
  2  9  1  0
  3 10  1  0
 11 12  2  0
 12 13  1  0
 12 14  1  0
 14 15  2  0
 15 16  1  0
 16 17  2  0
 17 18  1  0
 18 19  2  0
 19 20  1  0
 20 21  2  0
 21 11  1  0
 21 16  1  0
 14 22  1  0
 15 23  1  0
 17 24  1  0
 18 25  1  0
 19 26  1  0
 20 27  1  0
  7 11  1  0
M  ISO  4   8  14   9  14  10  14  13  15
M  END
>  <DihAtoms>  (1) 
4,6,10,11

>  <DihDeg>  (1) 
-0.0008460112987181391

$$$$
