
     RDKit          3D

 48 52  0  0  0  0  0  0  0  0999 V2000
   38.4483   31.1136   48.1640 C   0  0  2  0  0  0  0  0  0  0  0  0
   38.6963   32.5775   48.0868 C   0  0  0  0  0  0  0  0  0  0  0  0
   38.0802   31.7496   46.9413 C   0  0  1  0  0  0  0  0  0  0  0  0
   35.0860   30.2621   49.5023 C   0  0  0  0  0  0  0  0  0  0  0  0
   35.4207   29.5609   50.6917 C   0  0  0  0  0  0  0  0  0  0  0  0
   36.8202   29.3966   51.0304 C   0  0  0  0  0  0  0  0  0  0  0  0
   37.7641   29.9223   50.1922 N   0  0  0  0  0  0  0  0  0  0  0  0
   37.3652   30.5806   49.0708 C   0  0  0  0  0  0  0  0  0  0  0  0
   36.0406   30.7715   48.6920 N   0  0  0  0  0  0  0  0  0  0  0  0
   38.3524   31.9034   44.4819 C   0  0  0  0  0  0  0  0  0  0  0  0
   37.2438   32.4392   44.3834 O   0  0  0  0  0  0  0  0  0  0  0  0
   38.9384   31.6399   45.7798 N   0  0  0  0  0  0  0  0  0  0  0  0
   39.1285   31.5086   43.2899 C   0  0  0  0  0  0  0  0  0  0  0  0
   40.1340   30.5728   43.4415 C   0  0  0  0  0  0  0  0  0  0  0  0
   40.8473   30.2228   42.3110 C   0  0  0  0  0  0  0  0  0  0  0  0
   40.5301   30.8082   41.1171 C   0  0  0  0  0  0  0  0  0  0  0  0
   39.5087   31.7566   40.9681 C   0  0  0  0  0  0  0  0  0  0  0  0
   38.8368   32.0716   42.0927 N   0  0  0  0  0  0  0  0  0  0  0  0
   39.1943   32.3412   39.6767 C   0  0  0  0  0  0  0  0  0  0  0  0
   38.8162   33.5360   39.6215 O   0  0  0  0  0  0  0  0  0  0  0  0
   39.3579   30.4814   48.2305 H   0  0  0  0  0  0  0  0  0  0  0  0
   39.7234   32.9176   47.9742 H   0  0  0  0  0  0  0  0  0  0  0  0
   38.0342   33.2476   48.6659 H   0  0  0  0  0  0  0  0  0  0  0  0
   37.0184   32.0175   46.7584 H   0  0  0  0  0  0  0  0  0  0  0  0
   34.0416   30.3473   49.3128 H   0  0  0  0  0  0  0  0  0  0  0  0
   34.7080   29.1451   51.3558 H   0  0  0  0  0  0  0  0  0  0  0  0
   37.0698   28.8680   51.9276 H   0  0  0  0  0  0  0  0  0  0  0  0
   39.9275   31.3804   45.9157 H   0  0  0  0  0  0  0  0  0  0  0  0
   40.3912   30.1047   44.3832 H   0  0  0  0  0  0  0  0  0  0  0  0
   41.6517   29.5085   42.2978 H   0  0  0  0  0  0  0  0  0  0  0  0
   41.0599   30.5653   40.2118 H   0  0  0  0  0  0  0  0  0  0  0  0
   39.2474   31.7411   38.3565 C   0  0  0  0  0  0  0  0  0  0  0  0
   38.6656   30.4837   38.1595 C   0  0  0  0  0  0  0  0  0  0  0  0
   38.2055   30.0078   39.0362 H   0  0  0  0  0  0  0  0  0  0  0  0
   38.6213   29.7959   36.9652 C   0  0  0  0  0  0  0  0  0  0  0  0
   39.1994   30.3944   35.8649 C   0  0  0  0  0  0  0  0  0  0  0  0
   39.7887   31.6342   35.9989 C   0  0  0  0  0  0  0  0  0  0  0  0
   40.3715   32.2344   34.9044 C   0  0  0  0  0  0  0  0  0  0  0  0
   40.9729   33.4810   35.0266 C   0  0  0  0  0  0  0  0  0  0  0  0
   40.9878   34.1304   36.2642 C   0  0  0  0  0  0  0  0  0  0  0  0
   40.3973   33.5036   37.3354 C   0  0  0  0  0  0  0  0  0  0  0  0
   39.8057   32.2794   37.2173 C   0  0  0  0  0  0  0  0  0  0  0  0
   38.1393   28.8241   36.9410 H   0  0  0  0  0  0  0  0  0  0  0  0
   39.1564   29.8431   34.9361 H   0  0  0  0  0  0  0  0  0  0  0  0
   40.3544   31.7281   33.9616 H   0  0  0  0  0  0  0  0  0  0  0  0
   41.4331   33.9562   34.1638 H   0  0  0  0  0  0  0  0  0  0  0  0
   41.4708   35.0970   36.2941 H   0  0  0  0  0  0  0  0  0  0  0  0
   40.4365   34.0346   38.2677 H   0  0  0  0  0  0  0  0  0  0  0  0
  1  8  1  0
  2  1  1  0
  3  2  1  0
  3  1  1  0
  4  5  2  0
  5  6  1  0
  7  6  2  0
  8  7  1  0
  9  8  2  0
  9  4  1  0
 10 12  1  0
 11 10  2  0
 12  3  1  0
 13 14  2  0
 13 10  1  0
 15 14  1  0
 16 15  2  0
 17 16  1  0
 17 18  2  0
 18 13  1  0
 19 17  1  0
 20 19  2  0
  1 21  1  6
  2 22  1  0
  2 23  1  0
  3 24  1  6
  4 25  1  0
  5 26  1  0
  6 27  1  0
 12 28  1  0
 14 29  1  0
 15 30  1  0
 16 31  1  0
 32 33  2  0
 33 34  1  0
 33 35  1  0
 35 36  2  0
 36 37  1  0
 37 38  2  0
 38 39  1  0
 39 40  2  0
 40 41  1  0
 41 42  2  0
 42 32  1  0
 42 37  1  0
 35 43  1  0
 36 44  1  0
 38 45  1  0
 39 46  1  0
 40 47  1  0
 41 48  1  0
 19 32  1  0
M  ISO  8  21  13  22  13  23  13  24  13  25  14  26  14  27  14  29  14
M  ISO  3  30  14  31  14  34  15
M  END
>  <DihAtoms>  (1) 
16,18,31,32

>  <DihDeg>  (1) 
-132.18711325107407

$$$$
