
     RDKit          3D

 27 29  0  0  0  0  0  0  0  0999 V2000
   37.3199   30.2270   51.4224 C   0  0  0  0  0  0  0  0  0  0  0  0
   38.0732   30.7329   50.3479 C   0  0  0  0  0  0  0  0  0  0  0  0
   37.6961   30.3709   49.0329 C   0  0  0  0  0  0  0  0  0  0  0  0
   36.6161   29.5479   48.9060 N   0  0  0  0  0  0  0  0  0  0  0  0
   35.9246   29.0878   49.9648 C   0  0  0  0  0  0  0  0  0  0  0  0
   36.2810   29.4302   51.2136 N   0  0  0  0  0  0  0  0  0  0  0  0
   34.8811   28.2784   49.6014 O   0  0  0  0  0  0  0  0  0  0  0  0
   37.6502   30.5343   52.4081 H   0  0  0  0  0  0  0  0  0  0  0  0
   38.9316   31.3849   50.4116 H   0  0  0  0  0  0  0  0  0  0  0  0
   38.2542   30.7424   48.1809 H   0  0  0  0  0  0  0  0  0  0  0  0
   33.9715   27.6374   50.3853 C   0  0  0  0  0  0  0  0  0  0  0  0
   32.7648   27.0452   50.0765 C   0  0  0  0  0  0  0  0  0  0  0  0
   32.5191   27.1135   49.0275 H   0  0  0  0  0  0  0  0  0  0  0  0
   31.9772   26.4378   51.0287 C   0  0  0  0  0  0  0  0  0  0  0  0
   32.3608   26.3917   52.3502 C   0  0  0  0  0  0  0  0  0  0  0  0
   33.5645   26.9774   52.6848 C   0  0  0  0  0  0  0  0  0  0  0  0
   33.8991   26.9018   54.0218 C   0  0  0  0  0  0  0  0  0  0  0  0
   35.0813   27.4594   54.4416 C   0  0  0  0  0  0  0  0  0  0  0  0
   35.8940   28.0723   53.5320 C   0  0  0  0  0  0  0  0  0  0  0  0
   35.5378   28.1323   52.2148 C   0  0  0  0  0  0  0  0  0  0  0  0
   34.3643   27.5919   51.7293 C   0  0  0  0  0  0  0  0  0  0  0  0
   31.0389   25.9966   50.6882 H   0  0  0  0  0  0  0  0  0  0  0  0
   31.7319   25.9131   53.0775 H   0  0  0  0  0  0  0  0  0  0  0  0
   33.2804   26.4287   54.7487 H   0  0  0  0  0  0  0  0  0  0  0  0
   35.4028   27.4350   55.4756 H   0  0  0  0  0  0  0  0  0  0  0  0
   36.8386   28.5285   53.8116 H   0  0  0  0  0  0  0  0  0  0  0  0
   36.1890   28.6208   51.4991 H   0  0  0  0  0  0  0  0  0  0  0  0
  2  1  2  0
  3  2  1  0
  4  3  2  0
  4  5  1  0
  5  6  2  0
  6  1  1  0
  7  5  1  0
  1  8  1  0
  2  9  1  0
  3 10  1  0
 11 12  2  0
 12 13  1  0
 12 14  1  0
 14 15  2  0
 15 16  1  0
 16 17  2  0
 17 18  1  0
 18 19  2  0
 19 20  1  0
 20 21  2  0
 21 11  1  0
 21 16  1  0
 14 22  1  0
 15 23  1  0
 17 24  1  0
 18 25  1  0
 19 26  1  0
 20 27  1  0
  7 11  1  0
M  ISO  4   8  14   9  14  10  14  13  15
M  END
>  <DihAtoms>  (1) 
4,6,10,11

>  <DihDeg>  (1) 
-0.0008460112987181391

$$$$
