
     RDKit          3D

 37 40  0  0  1  0  0  0  0  0999 V2000
   40.1430   31.5440   43.1060 C   0  0  2  0  0  0  0  0  0  0  0  0
   40.6720   30.1940   43.2370 C   0  0  0  0  0  0  0  0  0  0  0  0
   39.3160   30.5970   43.8430 C   0  0  1  0  0  0  0  0  0  0  0  0
   38.4700   33.7420   40.6290 C   0  0  0  0  0  0  0  0  0  0  0  0
   38.7070   33.0400   39.4180 C   0  0  0  0  0  0  0  0  0  0  0  0
   39.4470   31.8100   39.4630 C   0  0  0  0  0  0  0  0  0  0  0  0
   39.8770   31.3930   40.6850 N   0  0  0  0  0  0  0  0  0  0  0  0
   39.6260   32.0990   41.8160 C   0  0  0  0  0  0  0  0  0  0  0  0
   38.9360   33.2570   41.8090 N   0  0  0  0  0  0  0  0  0  0  0  0
   38.4860   31.6450   45.9200 C   0  0  0  0  0  0  0  0  0  0  0  0
   37.6980   32.3370   45.2210 O   0  0  0  0  0  0  0  0  0  0  0  0
   39.3400   30.6880   45.3080 N   0  0  0  0  0  0  0  0  0  0  0  0
   38.3870   31.9580   47.3380 C   0  0  0  0  0  0  0  0  0  0  0  0
   39.1110   33.1090   47.6730 C   0  0  0  0  0  0  0  0  0  0  0  0
   39.1490   33.5810   48.9730 C   0  0  0  0  0  0  0  0  0  0  0  0
   38.4700   32.9290   49.9950 C   0  0  0  0  0  0  0  0  0  0  0  0
   37.7520   31.7820   49.6420 C   0  0  0  0  0  0  0  0  0  0  0  0
   37.0560   31.0800   50.5870 C   0  0  0  0  0  0  0  0  0  0  0  0
   36.3390   29.9330   50.2320 C   0  0  0  0  0  0  0  0  0  0  0  0
   36.3270   29.4900   48.9040 C   0  0  0  0  0  0  0  0  0  0  0  0
   37.0360   30.2000   47.9340 C   0  0  0  0  0  0  0  0  0  0  0  0
   37.7160   31.3150   48.3480 C   0  0  0  0  0  0  0  0  0  0  0  0
   40.5901   32.5254   43.3227 H   0  0  0  0  0  0  0  0  0  0  0  0
   40.7132   29.5268   42.3634 H   0  0  0  0  0  0  0  0  0  0  0  0
   41.6023   29.7449   43.6150 H   0  0  0  0  0  0  0  0  0  0  0  0
   38.2666   30.2747   43.7725 H   0  0  0  0  0  0  0  0  0  0  0  0
   37.9049   34.6856   40.6115 H   0  0  0  0  0  0  0  0  0  0  0  0
   38.3303   33.4315   38.4615 H   0  0  0  0  0  0  0  0  0  0  0  0
   39.6567   31.2313   38.5513 H   0  0  0  0  0  0  0  0  0  0  0  0
   39.9527   30.0811   45.8711 H   0  0  0  0  0  0  0  0  0  0  0  0
   39.6602   33.6484   46.8872 H   0  0  0  0  0  0  0  0  0  0  0  0
   39.7270   34.4886   49.2015 H   0  0  0  0  0  0  0  0  0  0  0  0
   38.4959   33.2971   51.0313 H   0  0  0  0  0  0  0  0  0  0  0  0
   37.0602   31.4198   51.6332 H   0  0  0  0  0  0  0  0  0  0  0  0
   35.7818   29.3762   50.9998 H   0  0  0  0  0  0  0  0  0  0  0  0
   35.7621   28.5877   48.6268 H   0  0  0  0  0  0  0  0  0  0  0  0
   37.0483   29.8782   46.8822 H   0  0  0  0  0  0  0  0  0  0  0  0
  1  2  1  0
  1  3  1  0
  2  3  1  0
  3 12  1  0
  4  9  2  0
  5  6  2  0
  5  4  1  0
  6  7  1  0
  7  8  2  0
  8  1  1  0
  9  8  1  0
 10 13  1  0
 11 10  2  0
 12 10  1  0
 13 14  2  0
 13 22  1  0
 14 15  1  0
 15 16  2  0
 17 16  1  0
 17 18  2  0
 19 18  1  0
 20 19  2  0
 21 22  2  0
 21 20  1  0
 22 17  1  0
  1 23  1  1
  2 24  1  0
  2 25  1  0
  3 26  1  6
  4 27  1  0
  5 28  1  0
  6 29  1  0
 12 30  1  0
 14 31  1  0
 15 32  1  0
 16 33  1  0
 18 34  1  0
 19 35  1  0
 20 36  1  0
 21 37  1  0
M  ISO  8  23  13  24  13  25  13  26  13  27  14  28  14  29  14  31  14
M  ISO  6  32  14  33  14  34  14  35  14  36  14  37  14
M  END
>  <minimizedAffinity>  (1) 
-6.49994946

>  <minimizedRMSD>  (1) 
5.25423622

$$$$
