
     RDKit          3D

 28 30  0  0  0  0  0  0  0  0999 V2000
   37.2657   30.1831   51.4183 C   0  0  0  0  0  0  0  0  0  0  0  0
   38.0956   30.7624   50.4512 C   0  0  0  0  0  0  0  0  0  0  0  0
   37.8071   30.4997   49.1072 C   0  0  0  0  0  0  0  0  0  0  0  0
   36.7440   29.7026   48.8382 N   0  0  0  0  0  0  0  0  0  0  0  0
   35.9642   29.1592   49.7760 C   0  0  0  0  0  0  0  0  0  0  0  0
   36.2224   29.3977   51.0697 N   0  0  0  0  0  0  0  0  0  0  0  0
   34.8245   28.3029   49.5021 C   0  0  0  0  0  0  0  0  0  0  0  0
   33.6265   28.7254   49.5563 O   0  0  0  0  0  0  0  0  0  0  0  0
   37.4881   30.3865   52.4762 H   0  0  0  0  0  0  0  0  0  0  0  0
   38.9226   31.3852   50.7343 H   0  0  0  0  0  0  0  0  0  0  0  0
   38.4115   30.9183   48.3122 H   0  0  0  0  0  0  0  0  0  0  0  0
   35.2848   26.9548   49.1749 C   0  0  0  0  0  0  0  0  0  0  0  0
   36.3405   26.7312   48.2876 C   0  0  0  0  0  0  0  0  0  0  0  0
   36.8461   27.5569   47.8223 H   0  0  0  0  0  0  0  0  0  0  0  0
   36.8125   25.4856   47.9400 C   0  0  0  0  0  0  0  0  0  0  0  0
   36.2172   24.3750   48.4934 C   0  0  0  0  0  0  0  0  0  0  0  0
   35.1713   24.5356   49.3752 C   0  0  0  0  0  0  0  0  0  0  0  0
   34.5754   23.4246   49.9303 C   0  0  0  0  0  0  0  0  0  0  0  0
   33.5252   23.5077   50.8205 C   0  0  0  0  0  0  0  0  0  0  0  0
   33.1043   24.7773   51.1237 C   0  0  0  0  0  0  0  0  0  0  0  0
   33.7056   25.8857   50.5640 C   0  0  0  0  0  0  0  0  0  0  0  0
   34.7473   25.7896   49.6815 C   0  0  0  0  0  0  0  0  0  0  0  0
   37.6331   25.3628   47.2482 H   0  0  0  0  0  0  0  0  0  0  0  0
   36.5547   23.3833   48.2492 H   0  0  0  0  0  0  0  0  0  0  0  0
   34.9574   22.4400   49.6478 H   0  0  0  0  0  0  0  0  0  0  0  0
   33.0829   22.6114   51.2356 H   0  0  0  0  0  0  0  0  0  0  0  0
   32.2669   24.8467   51.8334 H   0  0  0  0  0  0  0  0  0  0  0  0
   33.3041   26.8387   50.8661 H   0  0  0  0  0  0  0  0  0  0  0  0
  2  1  2  0
  3  2  1  0
  4  3  2  0
  4  5  1  0
  5  6  2  0
  6  1  1  0
  7  8  2  0
  7  5  1  0
  1  9  1  0
  2 10  1  0
  3 11  1  0
 12 13  2  0
 13 14  1  0
 13 15  1  0
 15 16  2  0
 16 17  1  0
 17 18  2  0
 18 19  1  0
 19 20  2  0
 20 21  1  0
 21 22  2  0
 22 12  1  0
 22 17  1  0
 15 23  1  0
 16 24  1  0
 18 25  1  0
 19 26  1  0
 20 27  1  0
 21 28  1  0
  7 12  1  0
M  ISO  4   9  14  10  14  11  14  14  15
M  END
>  <DihAtoms>  (1) 
7,6,11,12

>  <DihDeg>  (1) 
134.30585876524114

$$$$
