
     RDKit          3D

 28 30  0  0  0  0  0  0  0  0999 V2000
   37.2657   30.1831   51.4183 C   0  0  0  0  0  0  0  0  0  0  0  0
   38.0956   30.7624   50.4512 C   0  0  0  0  0  0  0  0  0  0  0  0
   37.8071   30.4997   49.1072 C   0  0  0  0  0  0  0  0  0  0  0  0
   36.7440   29.7026   48.8382 N   0  0  0  0  0  0  0  0  0  0  0  0
   35.9642   29.1592   49.7760 C   0  0  0  0  0  0  0  0  0  0  0  0
   36.2224   29.3977   51.0697 N   0  0  0  0  0  0  0  0  0  0  0  0
   34.8245   28.3029   49.5021 C   0  0  0  0  0  0  0  0  0  0  0  0
   33.6265   28.7254   49.5563 O   0  0  0  0  0  0  0  0  0  0  0  0
   37.4881   30.3865   52.4762 H   0  0  0  0  0  0  0  0  0  0  0  0
   38.9226   31.3852   50.7343 H   0  0  0  0  0  0  0  0  0  0  0  0
   38.4115   30.9183   48.3122 H   0  0  0  0  0  0  0  0  0  0  0  0
   35.2848   26.9548   49.1749 C   0  0  0  0  0  0  0  0  0  0  0  0
   36.2853   26.3178   49.9131 C   0  0  0  0  0  0  0  0  0  0  0  0
   36.7424   26.8107   50.7511 H   0  0  0  0  0  0  0  0  0  0  0  0
   36.7602   25.0531   49.6483 C   0  0  0  0  0  0  0  0  0  0  0  0
   36.2257   24.3545   48.5899 C   0  0  0  0  0  0  0  0  0  0  0  0
   35.2358   24.9334   47.8269 C   0  0  0  0  0  0  0  0  0  0  0  0
   34.6996   24.2346   46.7678 C   0  0  0  0  0  0  0  0  0  0  0  0
   33.7061   24.7489   45.9611 C   0  0  0  0  0  0  0  0  0  0  0  0
   33.2788   26.0126   46.2797 C   0  0  0  0  0  0  0  0  0  0  0  0
   33.8203   26.7069   47.3418 C   0  0  0  0  0  0  0  0  0  0  0  0
   34.8061   26.1851   48.1349 C   0  0  0  0  0  0  0  0  0  0  0  0
   37.5366   24.6016   50.2487 H   0  0  0  0  0  0  0  0  0  0  0  0
   36.5677   23.3637   48.3481 H   0  0  0  0  0  0  0  0  0  0  0  0
   35.0836   23.2312   46.5656 H   0  0  0  0  0  0  0  0  0  0  0  0
   33.3098   24.1689   45.1378 H   0  0  0  0  0  0  0  0  0  0  0  0
   32.4865   26.4253   45.6381 H   0  0  0  0  0  0  0  0  0  0  0  0
   33.4170   27.6914   47.5119 H   0  0  0  0  0  0  0  0  0  0  0  0
  2  1  2  0
  3  2  1  0
  4  3  2  0
  4  5  1  0
  5  6  2  0
  6  1  1  0
  7  8  2  0
  7  5  1  0
  1  9  1  0
  2 10  1  0
  3 11  1  0
 12 13  2  0
 13 14  1  0
 13 15  1  0
 15 16  2  0
 16 17  1  0
 17 18  2  0
 18 19  1  0
 19 20  2  0
 20 21  1  0
 21 22  2  0
 22 12  1  0
 22 17  1  0
 15 23  1  0
 16 24  1  0
 18 25  1  0
 19 26  1  0
 20 27  1  0
 21 28  1  0
  7 12  1  0
M  ISO  4   9  14  10  14  11  14  14  15
M  END
>  <DihAtoms>  (1) 
7,6,11,12

>  <DihDeg>  (1) 
134.30585876524114

$$$$
