
     RDKit          3D

 27 29  0  0  0  0  0  0  0  0999 V2000
   37.3199   30.2270   51.4224 C   0  0  0  0  0  0  0  0  0  0  0  0
   38.0732   30.7329   50.3479 C   0  0  0  0  0  0  0  0  0  0  0  0
   37.6961   30.3709   49.0329 C   0  0  0  0  0  0  0  0  0  0  0  0
   36.6161   29.5479   48.9060 N   0  0  0  0  0  0  0  0  0  0  0  0
   35.9246   29.0878   49.9648 C   0  0  0  0  0  0  0  0  0  0  0  0
   36.2810   29.4302   51.2136 N   0  0  0  0  0  0  0  0  0  0  0  0
   34.8811   28.2784   49.6014 O   0  0  0  0  0  0  0  0  0  0  0  0
   37.6502   30.5343   52.4081 H   0  0  0  0  0  0  0  0  0  0  0  0
   38.9316   31.3849   50.4116 H   0  0  0  0  0  0  0  0  0  0  0  0
   38.2542   30.7424   48.1809 H   0  0  0  0  0  0  0  0  0  0  0  0
   33.9715   27.6374   50.3853 C   0  0  0  0  0  0  0  0  0  0  0  0
   34.0709   27.1361   51.6663 C   0  0  0  0  0  0  0  0  0  0  0  0
   35.0461   27.2891   52.1033 H   0  0  0  0  0  0  0  0  0  0  0  0
   33.0184   26.5103   52.2962 C   0  0  0  0  0  0  0  0  0  0  0  0
   31.8021   26.3532   51.6705 C   0  0  0  0  0  0  0  0  0  0  0  0
   31.6773   26.8464   50.3879 C   0  0  0  0  0  0  0  0  0  0  0  0
   30.4378   26.6617   49.8092 C   0  0  0  0  0  0  0  0  0  0  0  0
   30.2269   27.1226   48.5334 C   0  0  0  0  0  0  0  0  0  0  0  0
   31.2423   27.7494   47.8703 C   0  0  0  0  0  0  0  0  0  0  0  0
   32.4588   27.9186   48.4674 C   0  0  0  0  0  0  0  0  0  0  0  0
   32.7349   27.4789   49.7463 C   0  0  0  0  0  0  0  0  0  0  0  0
   33.1930   26.1464   53.3102 H   0  0  0  0  0  0  0  0  0  0  0  0
   30.9938   25.8621   52.1793 H   0  0  0  0  0  0  0  0  0  0  0  0
   29.6316   26.1756   50.3078 H   0  0  0  0  0  0  0  0  0  0  0  0
   29.2788   27.0099   48.0220 H   0  0  0  0  0  0  0  0  0  0  0  0
   31.1277   28.1321   46.8608 H   0  0  0  0  0  0  0  0  0  0  0  0
   33.2597   28.4175   47.9338 H   0  0  0  0  0  0  0  0  0  0  0  0
  2  1  2  0
  3  2  1  0
  4  3  2  0
  4  5  1  0
  5  6  2  0
  6  1  1  0
  7  5  1  0
  1  8  1  0
  2  9  1  0
  3 10  1  0
 11 12  2  0
 12 13  1  0
 12 14  1  0
 14 15  2  0
 15 16  1  0
 16 17  2  0
 17 18  1  0
 18 19  2  0
 19 20  1  0
 20 21  2  0
 21 11  1  0
 21 16  1  0
 14 22  1  0
 15 23  1  0
 17 24  1  0
 18 25  1  0
 19 26  1  0
 20 27  1  0
  7 11  1  0
M  ISO  4   8  14   9  14  10  14  13  15
M  END
>  <DihAtoms>  (1) 
4,6,10,11

>  <DihDeg>  (1) 
-0.0008460112987181391

$$$$
