
     RDKit          3D

 28 30  0  0  0  0  0  0  0  0999 V2000
   37.2657   30.1831   51.4183 C   0  0  0  0  0  0  0  0  0  0  0  0
   38.0956   30.7624   50.4512 C   0  0  0  0  0  0  0  0  0  0  0  0
   37.8071   30.4997   49.1072 C   0  0  0  0  0  0  0  0  0  0  0  0
   36.7440   29.7026   48.8382 N   0  0  0  0  0  0  0  0  0  0  0  0
   35.9642   29.1592   49.7760 C   0  0  0  0  0  0  0  0  0  0  0  0
   36.2224   29.3977   51.0697 N   0  0  0  0  0  0  0  0  0  0  0  0
   34.8245   28.3029   49.5021 C   0  0  0  0  0  0  0  0  0  0  0  0
   33.6265   28.7254   49.5563 O   0  0  0  0  0  0  0  0  0  0  0  0
   37.4881   30.3865   52.4762 H   0  0  0  0  0  0  0  0  0  0  0  0
   38.9226   31.3852   50.7343 H   0  0  0  0  0  0  0  0  0  0  0  0
   38.4115   30.9183   48.3122 H   0  0  0  0  0  0  0  0  0  0  0  0
   35.2848   26.9548   49.1749 C   0  0  0  0  0  0  0  0  0  0  0  0
   34.4399   26.0092   48.5887 C   0  0  0  0  0  0  0  0  0  0  0  0
   33.4200   26.2567   48.3595 H   0  0  0  0  0  0  0  0  0  0  0  0
   34.8174   24.7259   48.2633 C   0  0  0  0  0  0  0  0  0  0  0  0
   36.1092   24.3303   48.5256 C   0  0  0  0  0  0  0  0  0  0  0  0
   36.9865   25.2215   49.1030 C   0  0  0  0  0  0  0  0  0  0  0  0
   38.2800   24.8267   49.3651 C   0  0  0  0  0  0  0  0  0  0  0  0
   39.2134   25.6636   49.9400 C   0  0  0  0  0  0  0  0  0  0  0  0
   38.7721   26.9273   50.2388 C   0  0  0  0  0  0  0  0  0  0  0  0
   37.4752   27.3161   49.9737 C   0  0  0  0  0  0  0  0  0  0  0  0
   36.5582   26.4756   49.4028 C   0  0  0  0  0  0  0  0  0  0  0  0
   34.1271   24.0292   47.8104 H   0  0  0  0  0  0  0  0  0  0  0  0
   36.4458   23.3368   48.2874 H   0  0  0  0  0  0  0  0  0  0  0  0
   38.5699   23.8056   49.1032 H   0  0  0  0  0  0  0  0  0  0  0  0
   40.2207   25.3168   50.1306 H   0  0  0  0  0  0  0  0  0  0  0  0
   39.5143   27.5970   50.6974 H   0  0  0  0  0  0  0  0  0  0  0  0
   37.2256   28.3287   50.2438 H   0  0  0  0  0  0  0  0  0  0  0  0
  2  1  2  0
  3  2  1  0
  4  3  2  0
  4  5  1  0
  5  6  2  0
  6  1  1  0
  7  8  2  0
  7  5  1  0
  1  9  1  0
  2 10  1  0
  3 11  1  0
 12 13  2  0
 13 14  1  0
 13 15  1  0
 15 16  2  0
 16 17  1  0
 17 18  2  0
 18 19  1  0
 19 20  2  0
 20 21  1  0
 21 22  2  0
 22 12  1  0
 22 17  1  0
 15 23  1  0
 16 24  1  0
 18 25  1  0
 19 26  1  0
 20 27  1  0
 21 28  1  0
  7 12  1  0
M  ISO  4   9  14  10  14  11  14  14  15
M  END
>  <DihAtoms>  (1) 
7,6,11,12

>  <DihDeg>  (1) 
134.30585876524114

$$$$
