
     RDKit          3D

 45 49  0  0  0  0  0  0  0  0999 V2000
   37.6793   31.3005   48.2039 C   0  0  0  0  0  0  0  0  0  0  0  0
   38.5380   32.3078   48.0910 C   0  0  0  0  0  0  0  0  0  0  0  0
   38.9338   32.7081   46.8634 C   0  0  0  0  0  0  0  0  0  0  0  0
   38.4145   32.0364   45.7838 C   0  0  0  0  0  0  0  0  0  0  0  0
   37.3203   30.7877   46.5698 S   0  0  0  0  0  0  0  0  0  0  0  0
   41.1461   31.2140   44.7203 Cl  0  0  0  0  0  0  0  0  0  0  0  0
   39.7823   31.8197   43.7987 C   0  0  0  0  0  0  0  0  0  0  0  0
   38.5899   32.1658   44.3590 C   0  0  0  0  0  0  0  0  0  0  0  0
   37.5065   32.6387   43.6878 C   0  0  0  0  0  0  0  0  0  0  0  0
   37.5892   32.7952   42.3053 C   0  0  0  0  0  0  0  0  0  0  0  0
   38.7708   32.4616   41.6809 C   0  0  0  0  0  0  0  0  0  0  0  0
   38.9784   32.6211   39.9482 Cl  0  0  0  0  0  0  0  0  0  0  0  0
   39.8463   31.9821   42.4221 C   0  0  0  0  0  0  0  0  0  0  0  0
   37.1521   29.9274   51.6831 C   0  0  0  0  0  0  0  0  0  0  0  0
   37.7886   30.5606   50.5995 C   0  0  0  0  0  0  0  0  0  0  0  0
   37.0736   30.6495   49.3824 C   0  0  0  0  0  0  0  0  0  0  0  0
   35.8543   30.1378   49.3250 N   0  0  0  0  0  0  0  0  0  0  0  0
   35.2651   29.5414   50.3593 C   0  0  0  0  0  0  0  0  0  0  0  0
   35.9074   29.4404   51.5167 N   0  0  0  0  0  0  0  0  0  0  0  0
   33.9237   29.0098   50.2095 C   0  0  0  0  0  0  0  0  0  0  0  0
   33.6828   28.2774   49.1974 O   0  0  0  0  0  0  0  0  0  0  0  0
   38.8950   32.7788   49.0022 H   0  0  0  0  0  0  0  0  0  0  0  0
   39.6235   33.5093   46.6265 H   0  0  0  0  0  0  0  0  0  0  0  0
   36.5758   32.9059   44.1467 H   0  0  0  0  0  0  0  0  0  0  0  0
   36.7475   33.1688   41.7379 H   0  0  0  0  0  0  0  0  0  0  0  0
   40.7803   31.7198   41.9182 H   0  0  0  0  0  0  0  0  0  0  0  0
   37.6730   29.8415   52.6340 H   0  0  0  0  0  0  0  0  0  0  0  0
   38.7748   30.9677   50.6668 H   0  0  0  0  0  0  0  0  0  0  0  0
   32.7115   29.1340   51.0106 C   0  0  0  0  0  0  0  0  0  0  0  0
   32.5707   28.4591   52.2226 C   0  0  0  0  0  0  0  0  0  0  0  0
   33.4015   27.8334   52.5387 H   0  0  0  0  0  0  0  0  0  0  0  0
   31.4536   28.5574   53.0013 C   0  0  0  0  0  0  0  0  0  0  0  0
   30.3991   29.3365   52.6244 C   0  0  0  0  0  0  0  0  0  0  0  0
   30.4806   30.0285   51.4344 C   0  0  0  0  0  0  0  0  0  0  0  0
   29.4195   30.8189   51.0418 C   0  0  0  0  0  0  0  0  0  0  0  0
   29.4879   31.5105   49.8603 C   0  0  0  0  0  0  0  0  0  0  0  0
   30.6064   31.4107   49.0821 C   0  0  0  0  0  0  0  0  0  0  0  0
   31.6476   30.6119   49.5052 C   0  0  0  0  0  0  0  0  0  0  0  0
   31.6217   29.9074   50.6721 C   0  0  0  0  0  0  0  0  0  0  0  0
   31.4149   28.0003   53.9366 H   0  0  0  0  0  0  0  0  0  0  0  0
   29.5351   29.3842   53.2728 H   0  0  0  0  0  0  0  0  0  0  0  0
   28.5501   30.8720   51.6862 H   0  0  0  0  0  0  0  0  0  0  0  0
   28.6386   32.1187   49.5859 H   0  0  0  0  0  0  0  0  0  0  0  0
   30.6540   31.9552   48.1571 H   0  0  0  0  0  0  0  0  0  0  0  0
   32.4984   30.5750   48.8463 H   0  0  0  0  0  0  0  0  0  0  0  0
  1 16  1  0
  2  1  2  0
  3  2  1  0
  4  5  1  0
  4  3  2  0
  5  1  1  0
  7  8  2  0
  7  6  1  0
  8  4  1  0
  9  8  1  0
 10  9  2  0
 11 10  1  0
 11 13  2  0
 12 11  1  0
 13  7  1  0
 15 14  2  0
 16 15  1  0
 17 16  2  0
 17 18  1  0
 18 19  2  0
 19 14  1  0
 20 18  1  0
 21 20  2  0
  2 22  1  0
  3 23  1  0
  9 24  1  0
 10 25  1  0
 13 26  1  0
 14 27  1  0
 15 28  1  0
 29 30  2  0
 30 31  1  0
 30 32  1  0
 32 33  2  0
 33 34  1  0
 34 35  2  0
 35 36  1  0
 36 37  2  0
 37 38  1  0
 38 39  2  0
 39 29  1  0
 39 34  1  0
 32 40  1  0
 33 41  1  0
 35 42  1  0
 36 43  1  0
 37 44  1  0
 38 45  1  0
 20 29  1  0
M  ISO  8  22  14  23  14  24  14  25  14  26  14  27  14  28  14  31  15
M  END
>  <DihAtoms>  (1) 
17,19,28,29

>  <DihDeg>  (1) 
-133.93610100588475

$$$$
