
     RDKit          3D

 28 30  0  0  0  0  0  0  0  0999 V2000
   37.2657   30.1831   51.4183 C   0  0  0  0  0  0  0  0  0  0  0  0
   38.0956   30.7624   50.4512 C   0  0  0  0  0  0  0  0  0  0  0  0
   37.8071   30.4997   49.1072 C   0  0  0  0  0  0  0  0  0  0  0  0
   36.7440   29.7026   48.8382 N   0  0  0  0  0  0  0  0  0  0  0  0
   35.9642   29.1592   49.7760 C   0  0  0  0  0  0  0  0  0  0  0  0
   36.2224   29.3977   51.0697 N   0  0  0  0  0  0  0  0  0  0  0  0
   34.8245   28.3029   49.5021 C   0  0  0  0  0  0  0  0  0  0  0  0
   33.6265   28.7254   49.5563 O   0  0  0  0  0  0  0  0  0  0  0  0
   37.4881   30.3865   52.4762 H   0  0  0  0  0  0  0  0  0  0  0  0
   38.9226   31.3852   50.7343 H   0  0  0  0  0  0  0  0  0  0  0  0
   38.4115   30.9183   48.3122 H   0  0  0  0  0  0  0  0  0  0  0  0
   35.2848   26.9548   49.1749 C   0  0  0  0  0  0  0  0  0  0  0  0
   36.5113   26.7268   48.5460 C   0  0  0  0  0  0  0  0  0  0  0  0
   37.1533   27.5487   48.2884 H   0  0  0  0  0  0  0  0  0  0  0  0
   36.9928   25.4814   48.2109 C   0  0  0  0  0  0  0  0  0  0  0  0
   36.2290   24.3756   48.5074 C   0  0  0  0  0  0  0  0  0  0  0  0
   35.0103   24.5407   49.1277 C   0  0  0  0  0  0  0  0  0  0  0  0
   34.2454   23.4344   49.4256 C   0  0  0  0  0  0  0  0  0  0  0  0
   33.0168   23.5221   50.0461 C   0  0  0  0  0  0  0  0  0  0  0  0
   32.5967   24.7912   50.3525 C   0  0  0  0  0  0  0  0  0  0  0  0
   33.3677   25.8948   50.0511 C   0  0  0  0  0  0  0  0  0  0  0  0
   34.5857   25.7943   49.4349 C   0  0  0  0  0  0  0  0  0  0  0  0
   37.9491   25.3551   47.7246 H   0  0  0  0  0  0  0  0  0  0  0  0
   36.5673   23.3843   48.2630 H   0  0  0  0  0  0  0  0  0  0  0  0
   34.6365   22.4500   49.1553 H   0  0  0  0  0  0  0  0  0  0  0  0
   32.4449   22.6294   50.2639 H   0  0  0  0  0  0  0  0  0  0  0  0
   31.6172   24.8642   50.8474 H   0  0  0  0  0  0  0  0  0  0  0  0
   32.9515   26.8477   50.3330 H   0  0  0  0  0  0  0  0  0  0  0  0
  2  1  2  0
  3  2  1  0
  4  3  2  0
  4  5  1  0
  5  6  2  0
  6  1  1  0
  7  8  2  0
  7  5  1  0
  1  9  1  0
  2 10  1  0
  3 11  1  0
 12 13  2  0
 13 14  1  0
 13 15  1  0
 15 16  2  0
 16 17  1  0
 17 18  2  0
 18 19  1  0
 19 20  2  0
 20 21  1  0
 21 22  2  0
 22 12  1  0
 22 17  1  0
 15 23  1  0
 16 24  1  0
 18 25  1  0
 19 26  1  0
 20 27  1  0
 21 28  1  0
  7 12  1  0
M  ISO  4   9  14  10  14  11  14  14  15
M  END
>  <DihAtoms>  (1) 
7,6,11,12

>  <DihDeg>  (1) 
134.30585876524114

$$$$
