
     RDKit          3D

 28 30  0  0  0  0  0  0  0  0999 V2000
   37.2657   30.1831   51.4183 C   0  0  0  0  0  0  0  0  0  0  0  0
   38.0956   30.7624   50.4512 C   0  0  0  0  0  0  0  0  0  0  0  0
   37.8071   30.4997   49.1072 C   0  0  0  0  0  0  0  0  0  0  0  0
   36.7440   29.7026   48.8382 N   0  0  0  0  0  0  0  0  0  0  0  0
   35.9642   29.1592   49.7760 C   0  0  0  0  0  0  0  0  0  0  0  0
   36.2224   29.3977   51.0697 N   0  0  0  0  0  0  0  0  0  0  0  0
   34.8245   28.3029   49.5021 C   0  0  0  0  0  0  0  0  0  0  0  0
   33.6265   28.7254   49.5563 O   0  0  0  0  0  0  0  0  0  0  0  0
   37.4881   30.3865   52.4762 H   0  0  0  0  0  0  0  0  0  0  0  0
   38.9226   31.3852   50.7343 H   0  0  0  0  0  0  0  0  0  0  0  0
   38.4115   30.9183   48.3122 H   0  0  0  0  0  0  0  0  0  0  0  0
   35.2848   26.9548   49.1749 C   0  0  0  0  0  0  0  0  0  0  0  0
   34.9204   25.8450   49.9412 C   0  0  0  0  0  0  0  0  0  0  0  0
   34.2825   25.9594   50.7979 H   0  0  0  0  0  0  0  0  0  0  0  0
   35.3268   24.5553   49.6829 C   0  0  0  0  0  0  0  0  0  0  0  0
   36.1468   24.3246   48.6019 C   0  0  0  0  0  0  0  0  0  0  0  0
   36.5380   25.3820   47.8106 C   0  0  0  0  0  0  0  0  0  0  0  0
   37.3581   25.1520   46.7280 C   0  0  0  0  0  0  0  0  0  0  0  0
   37.7892   26.1600   45.8912 C   0  0  0  0  0  0  0  0  0  0  0  0
   37.3479   27.4201   46.2049 C   0  0  0  0  0  0  0  0  0  0  0  0
   36.5267   27.6434   47.2908 C   0  0  0  0  0  0  0  0  0  0  0  0
   36.1059   26.6340   48.1137 C   0  0  0  0  0  0  0  0  0  0  0  0
   35.0182   23.7280   50.3052 H   0  0  0  0  0  0  0  0  0  0  0  0
   36.4876   23.3325   48.3642 H   0  0  0  0  0  0  0  0  0  0  0  0
   37.6754   24.1244   46.5313 H   0  0  0  0  0  0  0  0  0  0  0  0
   38.4335   25.9397   45.0499 H   0  0  0  0  0  0  0  0  0  0  0  0
   37.6901   28.2261   45.5393 H   0  0  0  0  0  0  0  0  0  0  0  0
   36.2333   28.6672   47.4531 H   0  0  0  0  0  0  0  0  0  0  0  0
  2  1  2  0
  3  2  1  0
  4  3  2  0
  4  5  1  0
  5  6  2  0
  6  1  1  0
  7  8  2  0
  7  5  1  0
  1  9  1  0
  2 10  1  0
  3 11  1  0
 12 13  2  0
 13 14  1  0
 13 15  1  0
 15 16  2  0
 16 17  1  0
 17 18  2  0
 18 19  1  0
 19 20  2  0
 20 21  1  0
 21 22  2  0
 22 12  1  0
 22 17  1  0
 15 23  1  0
 16 24  1  0
 18 25  1  0
 19 26  1  0
 20 27  1  0
 21 28  1  0
  7 12  1  0
M  ISO  4   9  14  10  14  11  14  14  15
M  END
>  <DihAtoms>  (1) 
7,6,11,12

>  <DihDeg>  (1) 
134.30585876524114

$$$$
