
     RDKit          3D

 27 29  0  0  0  0  0  0  0  0999 V2000
   37.3199   30.2270   51.4224 C   0  0  0  0  0  0  0  0  0  0  0  0
   38.0732   30.7329   50.3479 C   0  0  0  0  0  0  0  0  0  0  0  0
   37.6961   30.3709   49.0329 C   0  0  0  0  0  0  0  0  0  0  0  0
   36.6161   29.5479   48.9060 N   0  0  0  0  0  0  0  0  0  0  0  0
   35.9246   29.0878   49.9648 C   0  0  0  0  0  0  0  0  0  0  0  0
   36.2810   29.4302   51.2136 N   0  0  0  0  0  0  0  0  0  0  0  0
   34.8811   28.2784   49.6014 O   0  0  0  0  0  0  0  0  0  0  0  0
   37.6502   30.5343   52.4081 H   0  0  0  0  0  0  0  0  0  0  0  0
   38.9316   31.3849   50.4116 H   0  0  0  0  0  0  0  0  0  0  0  0
   38.2542   30.7424   48.1809 H   0  0  0  0  0  0  0  0  0  0  0  0
   33.9715   27.6374   50.3853 C   0  0  0  0  0  0  0  0  0  0  0  0
   33.6796   26.2968   50.5261 C   0  0  0  0  0  0  0  0  0  0  0  0
   34.2890   25.6655   49.8972 H   0  0  0  0  0  0  0  0  0  0  0  0
   32.7065   25.8412   51.3872 C   0  0  0  0  0  0  0  0  0  0  0  0
   31.9696   26.7119   52.1581 C   0  0  0  0  0  0  0  0  0  0  0  0
   32.2428   28.0588   52.0354 C   0  0  0  0  0  0  0  0  0  0  0  0
   31.4749   28.8853   52.8308 C   0  0  0  0  0  0  0  0  0  0  0  0
   31.6814   30.2412   52.7712 C   0  0  0  0  0  0  0  0  0  0  0  0
   32.6360   30.7379   51.9312 C   0  0  0  0  0  0  0  0  0  0  0  0
   33.3814   29.8967   51.1554 C   0  0  0  0  0  0  0  0  0  0  0  0
   33.2231   28.5256   51.1686 C   0  0  0  0  0  0  0  0  0  0  0  0
   32.5477   24.7623   51.4296 H   0  0  0  0  0  0  0  0  0  0  0  0
   31.2151   26.3361   52.8236 H   0  0  0  0  0  0  0  0  0  0  0  0
   30.7249   28.5196   53.4932 H   0  0  0  0  0  0  0  0  0  0  0  0
   31.1136   30.9443   53.3682 H   0  0  0  0  0  0  0  0  0  0  0  0
   32.8388   31.8010   51.8464 H   0  0  0  0  0  0  0  0  0  0  0  0
   34.1373   30.2994   50.4911 H   0  0  0  0  0  0  0  0  0  0  0  0
  2  1  2  0
  3  2  1  0
  4  3  2  0
  4  5  1  0
  5  6  2  0
  6  1  1  0
  7  5  1  0
  1  8  1  0
  2  9  1  0
  3 10  1  0
 11 12  2  0
 12 13  1  0
 12 14  1  0
 14 15  2  0
 15 16  1  0
 16 17  2  0
 17 18  1  0
 18 19  2  0
 19 20  1  0
 20 21  2  0
 21 11  1  0
 21 16  1  0
 14 22  1  0
 15 23  1  0
 17 24  1  0
 18 25  1  0
 19 26  1  0
 20 27  1  0
  7 11  1  0
M  ISO  4   8  14   9  14  10  14  13  15
M  END
>  <DihAtoms>  (1) 
4,6,10,11

>  <DihDeg>  (1) 
-0.0008460112987181391

$$$$
