
     RDKit          3D

 33 35  0  0  0  0  0  0  0  0999 V2000
   37.0602   29.4261   51.1758 C   0  0  0  0  0  0  0  0  0  0  0  0
   37.6850   30.0317   50.0968 C   0  0  0  0  0  0  0  0  0  0  0  0
   36.9148   30.4865   49.0534 C   0  0  0  0  0  0  0  0  0  0  0  0
   35.5498   30.3105   49.1447 N   0  0  0  0  0  0  0  0  0  0  0  0
   34.9589   29.7210   50.1982 C   0  0  0  0  0  0  0  0  0  0  0  0
   35.7261   29.2804   51.2129 N   0  0  0  0  0  0  0  0  0  0  0  0
   37.4381   31.1488   47.8433 C   0  0  0  0  0  0  0  0  0  0  0  0
   38.7328   31.8580   48.1316 C   0  0  0  0  0  0  0  0  0  0  0  0
   38.4875   33.3398   49.1204 S   0  0  0  0  0  0  0  0  0  0  0  0
   37.7185   29.0878   51.9678 H   0  0  0  0  0  0  0  0  0  0  0  0
   38.7562   30.1625   50.0396 H   0  0  0  0  0  0  0  0  0  0  0  0
   33.8746   29.6269   50.1805 H   0  0  0  0  0  0  0  0  0  0  0  0
   36.7108   31.9406   47.5599 H   0  0  0  0  0  0  0  0  0  0  0  0
   37.4963   30.4853   46.9615 H   0  0  0  0  0  0  0  0  0  0  0  0
   39.0881   32.2176   47.1203 H   0  0  0  0  0  0  0  0  0  0  0  0
   39.5504   31.2165   48.4837 H   0  0  0  0  0  0  0  0  0  0  0  0
   40.0891   34.1056   49.4049 C   0  0  0  0  0  0  0  0  0  0  0  0
   40.8474   34.5211   48.3114 C   0  0  0  0  0  0  0  0  0  0  0  0
   40.4765   34.3847   47.2984 H   0  0  0  0  0  0  0  0  0  0  0  0
   42.0905   35.1161   48.5171 C   0  0  0  0  0  0  0  0  0  0  0  0
   42.5844   35.3008   49.7961 C   0  0  0  0  0  0  0  0  0  0  0  0
   41.8395   34.8929   50.8626 C   0  0  0  0  0  0  0  0  0  0  0  0
   42.3095   35.0653   52.1578 C   0  0  0  0  0  0  0  0  0  0  0  0
   41.5203   34.6362   53.2165 C   0  0  0  0  0  0  0  0  0  0  0  0
   40.2765   34.0398   53.0372 C   0  0  0  0  0  0  0  0  0  0  0  0
   39.8161   33.8722   51.7395 C   0  0  0  0  0  0  0  0  0  0  0  0
   40.6087   34.3034   50.6698 C   0  0  0  0  0  0  0  0  0  0  0  0
   42.6875   35.4420   47.6841 H   0  0  0  0  0  0  0  0  0  0  0  0
   43.5333   35.7544   49.9668 H   0  0  0  0  0  0  0  0  0  0  0  0
   43.2754   35.5283   52.3001 H   0  0  0  0  0  0  0  0  0  0  0  0
   41.9419   34.7992   54.1871 H   0  0  0  0  0  0  0  0  0  0  0  0
   39.7260   33.7342   53.9245 H   0  0  0  0  0  0  0  0  0  0  0  0
   38.8401   33.4040   51.5999 H   0  0  0  0  0  0  0  0  0  0  0  0
  1  6  2  0
  2  1  1  0
  3  4  1  0
  3  2  2  0
  4  5  2  0
  5  6  1  0
  7  8  1  0
  7  3  1  0
  8  9  1  0
  1 10  1  0
  2 11  1  0
  5 12  1  0
  7 13  1  0
  7 14  1  0
  8 15  1  0
  8 16  1  0
 17 18  2  0
 18 19  1  0
 18 20  1  0
 20 21  2  0
 21 22  1  0
 22 23  2  0
 23 24  1  0
 24 25  2  0
 25 26  1  0
 26 27  2  0
 27 17  1  0
 27 22  1  0
 20 28  1  0
 21 29  1  0
 23 30  1  0
 24 31  1  0
 25 32  1  0
 26 33  1  0
  9 17  1  0
M  ISO  8  10  14  11  14  12  14  13   8  14   8  15   8  16   8  19  15
M  END
>  <DihAtoms>  (1) 
7,8,16,17

>  <DihDeg>  (1) 
0.00012467823979824455

$$$$
