
     RDKit          3D

 43 46  0  0  0  0  0  0  0  0999 V2000
   38.2110   31.9050   47.3870 C   0  0  0  0  0  0  0  0  0  0  0  0
   38.8000   32.7570   48.2850 C   0  0  0  0  0  0  0  0  0  0  0  0
   38.3790   32.8460   49.6190 C   0  0  0  0  0  0  0  0  0  0  0  0
   37.2820   31.9930   50.0310 C   0  0  0  0  0  0  0  0  0  0  0  0
   36.7460   31.1740   49.0890 C   0  0  0  0  0  0  0  0  0  0  0  0
   37.1510   31.0970   47.8190 C   0  0  0  0  0  0  0  0  0  0  0  0
   40.0180   31.2360   45.8700 C   0  0  0  0  0  0  0  0  0  0  0  0
   38.7800   31.9140   46.0560 C   0  0  0  0  0  0  0  0  0  0  0  0
   38.2600   32.4940   44.9250 C   0  0  0  0  0  0  0  0  0  0  0  0
   38.9030   32.4050   43.7500 N   0  0  0  0  0  0  0  0  0  0  0  0
   40.0530   31.7730   43.5950 C   0  0  0  0  0  0  0  0  0  0  0  0
   40.6000   31.1930   44.6550 N   0  0  0  0  0  0  0  0  0  0  0  0
   35.1340   30.0820   47.1800 C   0  0  0  0  0  0  0  0  0  0  0  0
   34.6260   30.6550   48.2150 O   0  0  0  0  0  0  0  0  0  0  0  0
   36.5500   30.2630   46.9130 N   0  0  0  0  0  0  0  0  0  0  0  0
   34.3140   29.3290   46.3900 O   0  0  0  0  0  0  0  0  0  0  0  0
   32.9680   29.5250   46.1710 C   0  0  0  0  0  0  0  0  0  0  0  0
   32.5430   30.4680   45.3860 O   0  0  0  0  0  0  0  0  0  0  0  0
   32.0610   28.5820   46.8690 C   0  0  0  0  0  0  0  0  0  0  0  0
   32.5400   27.5320   47.6230 C   0  0  0  0  0  0  0  0  0  0  0  0
   31.7700   26.6140   48.2870 C   0  0  0  0  0  0  0  0  0  0  0  0
   30.4010   26.7210   48.2160 C   0  0  0  0  0  0  0  0  0  0  0  0
   29.8840   27.7410   47.4840 C   0  0  0  0  0  0  0  0  0  0  0  0
   28.5070   27.8080   47.4430 C   0  0  0  0  0  0  0  0  0  0  0  0
   27.8670   28.7980   46.7350 C   0  0  0  0  0  0  0  0  0  0  0  0
   28.6850   29.7150   46.0710 C   0  0  0  0  0  0  0  0  0  0  0  0
   30.0560   29.6020   46.1460 C   0  0  0  0  0  0  0  0  0  0  0  0
   30.6980   28.6290   46.8410 C   0  0  0  0  0  0  0  0  0  0  0  0
   39.6317   33.3927   47.9471 H   0  0  0  0  0  0  0  0  0  0  0  0
   38.8624   33.5365   50.3258 H   0  0  0  0  0  0  0  0  0  0  0  0
   36.8998   32.0082   51.0624 H   0  0  0  0  0  0  0  0  0  0  0  0
   35.9137   30.5238   49.3964 H   0  0  0  0  0  0  0  0  0  0  0  0
   40.5037   30.7431   46.7251 H   0  0  0  0  0  0  0  0  0  0  0  0
   37.3056   33.0378   44.9826 H   0  0  0  0  0  0  0  0  0  0  0  0
   40.5443   31.7290   42.6118 H   0  0  0  0  0  0  0  0  0  0  0  0
   37.0469   29.8146   46.1301 H   0  0  0  0  0  0  0  0  0  0  0  0
   33.6319   27.4221   47.6977 H   0  0  0  0  0  0  0  0  0  0  0  0
   32.2387   25.8053   48.8669 H   0  0  0  0  0  0  0  0  0  0  0  0
   29.7469   26.0046   48.7346 H   0  0  0  0  0  0  0  0  0  0  0  0
   27.9118   27.0582   47.9848 H   0  0  0  0  0  0  0  0  0  0  0  0
   26.7698   28.8642   46.6938 H   0  0  0  0  0  0  0  0  0  0  0  0
   28.2332   30.5299   45.4864 H   0  0  0  0  0  0  0  0  0  0  0  0
   30.6664   30.3443   45.6109 H   0  0  0  0  0  0  0  0  0  0  0  0
  1  6  1  0
  1  2  2  0
  2  3  1  0
  3  4  2  0
  5  4  1  0
  6  5  2  0
  7  8  2  0
  8  1  1  0
  9  8  1  0
 10  9  2  0
 11 10  1  0
 11 12  2  0
 12  7  1  0
 13 14  2  0
 15 13  1  0
 15  6  1  0
 16 13  1  0
 17 16  1  0
 17 19  1  0
 18 17  2  0
 19 20  2  0
 20 21  1  0
 22 21  2  0
 23 22  1  0
 24 23  2  0
 25 24  1  0
 26 27  1  0
 26 25  2  0
 27 28  2  0
 28 19  1  0
 28 23  1  0
  2 29  1  0
  3 30  1  0
  4 31  1  0
  5 32  1  0
  7 33  1  0
  9 34  1  0
 11 35  1  0
 15 36  1  0
 20 37  1  0
 21 38  1  0
 22 39  1  0
 24 40  1  0
 25 41  1  0
 26 42  1  0
 27 43  1  0
M  ISO  8  29  14  30  14  31  14  32  14  33  14  34  14  35  14  37  14
M  ISO  6  38  14  39  14  40  14  41  14  42  14  43  14
M  END
>  <minimizedAffinity>  (1) 
-6.58453846

>  <minimizedRMSD>  (1) 
1.75410056

$$$$
