
     RDKit          3D

 28 30  0  0  0  0  0  0  0  0999 V2000
   37.2657   30.1831   51.4183 C   0  0  0  0  0  0  0  0  0  0  0  0
   38.0956   30.7624   50.4512 C   0  0  0  0  0  0  0  0  0  0  0  0
   37.8071   30.4997   49.1072 C   0  0  0  0  0  0  0  0  0  0  0  0
   36.7440   29.7026   48.8382 N   0  0  0  0  0  0  0  0  0  0  0  0
   35.9642   29.1592   49.7760 C   0  0  0  0  0  0  0  0  0  0  0  0
   36.2224   29.3977   51.0697 N   0  0  0  0  0  0  0  0  0  0  0  0
   34.8245   28.3029   49.5021 C   0  0  0  0  0  0  0  0  0  0  0  0
   33.6265   28.7254   49.5563 O   0  0  0  0  0  0  0  0  0  0  0  0
   37.4881   30.3865   52.4762 H   0  0  0  0  0  0  0  0  0  0  0  0
   38.9226   31.3852   50.7343 H   0  0  0  0  0  0  0  0  0  0  0  0
   38.4115   30.9183   48.3122 H   0  0  0  0  0  0  0  0  0  0  0  0
   35.2848   26.9548   49.1749 C   0  0  0  0  0  0  0  0  0  0  0  0
   35.2634   26.4656   47.8664 C   0  0  0  0  0  0  0  0  0  0  0  0
   34.9060   27.0794   47.0605 H   0  0  0  0  0  0  0  0  0  0  0  0
   35.6798   25.2053   47.5014 C   0  0  0  0  0  0  0  0  0  0  0  0
   36.1517   24.3567   48.4767 C   0  0  0  0  0  0  0  0  0  0  0  0
   36.1957   24.7860   49.7848 C   0  0  0  0  0  0  0  0  0  0  0  0
   36.6687   23.9376   50.7615 C   0  0  0  0  0  0  0  0  0  0  0  0
   36.7430   24.2981   52.0908 C   0  0  0  0  0  0  0  0  0  0  0  0
   36.3127   25.5665   52.3858 C   0  0  0  0  0  0  0  0  0  0  0  0
   35.8400   26.4109   51.4026 C   0  0  0  0  0  0  0  0  0  0  0  0
   35.7713   26.0409   50.0867 C   0  0  0  0  0  0  0  0  0  0  0  0
   35.6442   24.8715   46.4746 H   0  0  0  0  0  0  0  0  0  0  0  0
   36.4870   23.3636   48.2351 H   0  0  0  0  0  0  0  0  0  0  0  0
   36.9969   22.9389   50.4615 H   0  0  0  0  0  0  0  0  0  0  0  0
   37.1208   23.6033   52.8295 H   0  0  0  0  0  0  0  0  0  0  0  0
   36.3708   25.8568   53.4451 H   0  0  0  0  0  0  0  0  0  0  0  0
   35.5268   27.3869   51.7345 H   0  0  0  0  0  0  0  0  0  0  0  0
  2  1  2  0
  3  2  1  0
  4  3  2  0
  4  5  1  0
  5  6  2  0
  6  1  1  0
  7  8  2  0
  7  5  1  0
  1  9  1  0
  2 10  1  0
  3 11  1  0
 12 13  2  0
 13 14  1  0
 13 15  1  0
 15 16  2  0
 16 17  1  0
 17 18  2  0
 18 19  1  0
 19 20  2  0
 20 21  1  0
 21 22  2  0
 22 12  1  0
 22 17  1  0
 15 23  1  0
 16 24  1  0
 18 25  1  0
 19 26  1  0
 20 27  1  0
 21 28  1  0
  7 12  1  0
M  ISO  4   9  14  10  14  11  14  14  15
M  END
>  <DihAtoms>  (1) 
7,6,11,12

>  <DihDeg>  (1) 
134.30585876524114

$$$$
