
     RDKit          3D

 28 30  0  0  0  0  0  0  0  0999 V2000
   37.2657   30.1831   51.4183 C   0  0  0  0  0  0  0  0  0  0  0  0
   38.0956   30.7624   50.4512 C   0  0  0  0  0  0  0  0  0  0  0  0
   37.8071   30.4997   49.1072 C   0  0  0  0  0  0  0  0  0  0  0  0
   36.7440   29.7026   48.8382 N   0  0  0  0  0  0  0  0  0  0  0  0
   35.9642   29.1592   49.7760 C   0  0  0  0  0  0  0  0  0  0  0  0
   36.2224   29.3977   51.0697 N   0  0  0  0  0  0  0  0  0  0  0  0
   34.8245   28.3029   49.5021 C   0  0  0  0  0  0  0  0  0  0  0  0
   33.6265   28.7254   49.5563 O   0  0  0  0  0  0  0  0  0  0  0  0
   37.4881   30.3865   52.4762 H   0  0  0  0  0  0  0  0  0  0  0  0
   38.9226   31.3852   50.7343 H   0  0  0  0  0  0  0  0  0  0  0  0
   38.4115   30.9183   48.3122 H   0  0  0  0  0  0  0  0  0  0  0  0
   35.2848   26.9548   49.1749 C   0  0  0  0  0  0  0  0  0  0  0  0
   34.5227   25.8227   49.4737 C   0  0  0  0  0  0  0  0  0  0  0  0
   33.5670   25.9198   49.9543 H   0  0  0  0  0  0  0  0  0  0  0  0
   34.9075   24.5310   49.1930 C   0  0  0  0  0  0  0  0  0  0  0  0
   36.1204   24.3216   48.5773 C   0  0  0  0  0  0  0  0  0  0  0  0
   36.9140   25.4015   48.2592 C   0  0  0  0  0  0  0  0  0  0  0  0
   38.1278   25.1929   47.6421 C   0  0  0  0  0  0  0  0  0  0  0  0
   38.9743   26.2244   47.2932 C   0  0  0  0  0  0  0  0  0  0  0  0
   38.5306   27.4851   47.6009 C   0  0  0  0  0  0  0  0  0  0  0  0
   37.3138   27.6868   48.2191 C   0  0  0  0  0  0  0  0  0  0  0  0
   36.4828   26.6543   48.5603 C   0  0  0  0  0  0  0  0  0  0  0  0
   34.2828   23.6860   49.4436 H   0  0  0  0  0  0  0  0  0  0  0  0
   36.4595   23.3287   48.3401 H   0  0  0  0  0  0  0  0  0  0  0  0
   38.4243   24.1636   47.4236 H   0  0  0  0  0  0  0  0  0  0  0  0
   39.9206   26.0204   46.8093 H   0  0  0  0  0  0  0  0  0  0  0  0
   39.2036   28.3097   47.3238 H   0  0  0  0  0  0  0  0  0  0  0  0
   37.0542   28.7134   48.4177 H   0  0  0  0  0  0  0  0  0  0  0  0
  2  1  2  0
  3  2  1  0
  4  3  2  0
  4  5  1  0
  5  6  2  0
  6  1  1  0
  7  8  2  0
  7  5  1  0
  1  9  1  0
  2 10  1  0
  3 11  1  0
 12 13  2  0
 13 14  1  0
 13 15  1  0
 15 16  2  0
 16 17  1  0
 17 18  2  0
 18 19  1  0
 19 20  2  0
 20 21  1  0
 21 22  2  0
 22 12  1  0
 22 17  1  0
 15 23  1  0
 16 24  1  0
 18 25  1  0
 19 26  1  0
 20 27  1  0
 21 28  1  0
  7 12  1  0
M  ISO  4   9  14  10  14  11  14  14  15
M  END
>  <DihAtoms>  (1) 
7,6,11,12

>  <DihDeg>  (1) 
134.30585876524114

$$$$
