
     RDKit          3D

 28 30  0  0  0  0  0  0  0  0999 V2000
   37.2657   30.1831   51.4183 C   0  0  0  0  0  0  0  0  0  0  0  0
   38.0956   30.7624   50.4512 C   0  0  0  0  0  0  0  0  0  0  0  0
   37.8071   30.4997   49.1072 C   0  0  0  0  0  0  0  0  0  0  0  0
   36.7440   29.7026   48.8382 N   0  0  0  0  0  0  0  0  0  0  0  0
   35.9642   29.1592   49.7760 C   0  0  0  0  0  0  0  0  0  0  0  0
   36.2224   29.3977   51.0697 N   0  0  0  0  0  0  0  0  0  0  0  0
   34.8245   28.3029   49.5021 C   0  0  0  0  0  0  0  0  0  0  0  0
   33.6265   28.7254   49.5563 O   0  0  0  0  0  0  0  0  0  0  0  0
   37.4881   30.3865   52.4762 H   0  0  0  0  0  0  0  0  0  0  0  0
   38.9226   31.3852   50.7343 H   0  0  0  0  0  0  0  0  0  0  0  0
   38.4115   30.9183   48.3122 H   0  0  0  0  0  0  0  0  0  0  0  0
   35.2848   26.9548   49.1749 C   0  0  0  0  0  0  0  0  0  0  0  0
   36.4723   26.4345   49.6954 C   0  0  0  0  0  0  0  0  0  0  0  0
   37.0799   27.0210   50.3593 H   0  0  0  0  0  0  0  0  0  0  0  0
   36.9558   25.1756   49.4189 C   0  0  0  0  0  0  0  0  0  0  0  0
   36.2350   24.3611   48.5756 C   0  0  0  0  0  0  0  0  0  0  0  0
   35.0559   24.8220   48.0328 C   0  0  0  0  0  0  0  0  0  0  0  0
   34.3333   24.0072   47.1894 C   0  0  0  0  0  0  0  0  0  0  0  0
   33.1447   24.3997   46.6101 C   0  0  0  0  0  0  0  0  0  0  0  0
   32.7201   25.6646   46.9273 C   0  0  0  0  0  0  0  0  0  0  0  0
   33.4489   26.4755   47.7727 C   0  0  0  0  0  0  0  0  0  0  0  0
   34.6273   26.0739   48.3413 C   0  0  0  0  0  0  0  0  0  0  0  0
   37.8809   24.8168   49.8462 H   0  0  0  0  0  0  0  0  0  0  0  0
   36.5765   23.3704   48.3329 H   0  0  0  0  0  0  0  0  0  0  0  0
   34.7257   23.0094   46.9759 H   0  0  0  0  0  0  0  0  0  0  0  0
   32.6054   23.7307   45.9521 H   0  0  0  0  0  0  0  0  0  0  0  0
   31.7725   25.9804   46.4668 H   0  0  0  0  0  0  0  0  0  0  0  0
   33.0314   27.4506   47.9612 H   0  0  0  0  0  0  0  0  0  0  0  0
  2  1  2  0
  3  2  1  0
  4  3  2  0
  4  5  1  0
  5  6  2  0
  6  1  1  0
  7  8  2  0
  7  5  1  0
  1  9  1  0
  2 10  1  0
  3 11  1  0
 12 13  2  0
 13 14  1  0
 13 15  1  0
 15 16  2  0
 16 17  1  0
 17 18  2  0
 18 19  1  0
 19 20  2  0
 20 21  1  0
 21 22  2  0
 22 12  1  0
 22 17  1  0
 15 23  1  0
 16 24  1  0
 18 25  1  0
 19 26  1  0
 20 27  1  0
 21 28  1  0
  7 12  1  0
M  ISO  4   9  14  10  14  11  14  14  15
M  END
>  <DihAtoms>  (1) 
7,6,11,12

>  <DihDeg>  (1) 
134.30585876524114

$$$$
