
     RDKit          3D

 27 29  0  0  0  0  0  0  0  0999 V2000
   37.3199   30.2270   51.4224 C   0  0  0  0  0  0  0  0  0  0  0  0
   38.0732   30.7329   50.3479 C   0  0  0  0  0  0  0  0  0  0  0  0
   37.6961   30.3709   49.0329 C   0  0  0  0  0  0  0  0  0  0  0  0
   36.6161   29.5479   48.9060 N   0  0  0  0  0  0  0  0  0  0  0  0
   35.9246   29.0878   49.9648 C   0  0  0  0  0  0  0  0  0  0  0  0
   36.2810   29.4302   51.2136 N   0  0  0  0  0  0  0  0  0  0  0  0
   34.8811   28.2784   49.6014 O   0  0  0  0  0  0  0  0  0  0  0  0
   37.6502   30.5343   52.4081 H   0  0  0  0  0  0  0  0  0  0  0  0
   38.9316   31.3849   50.4116 H   0  0  0  0  0  0  0  0  0  0  0  0
   38.2542   30.7424   48.1809 H   0  0  0  0  0  0  0  0  0  0  0  0
   33.9715   27.6374   50.3853 C   0  0  0  0  0  0  0  0  0  0  0  0
   34.1336   26.6893   51.3738 C   0  0  0  0  0  0  0  0  0  0  0  0
   35.1674   26.4248   51.5373 H   0  0  0  0  0  0  0  0  0  0  0  0
   33.0684   26.1541   52.0630 C   0  0  0  0  0  0  0  0  0  0  0  0
   31.7754   26.5442   51.7956 C   0  0  0  0  0  0  0  0  0  0  0  0
   31.5868   27.4918   50.8106 C   0  0  0  0  0  0  0  0  0  0  0  0
   30.2718   27.8454   50.5844 C   0  0  0  0  0  0  0  0  0  0  0  0
   29.9941   28.7827   49.6207 C   0  0  0  0  0  0  0  0  0  0  0  0
   31.0191   29.3403   48.9122 C   0  0  0  0  0  0  0  0  0  0  0  0
   32.3111   28.9716   49.1571 C   0  0  0  0  0  0  0  0  0  0  0  0
   32.6568   28.0361   50.1112 C   0  0  0  0  0  0  0  0  0  0  0  0
   33.2964   25.4096   52.8277 H   0  0  0  0  0  0  0  0  0  0  0  0
   30.9585   26.1144   52.3447 H   0  0  0  0  0  0  0  0  0  0  0  0
   29.4566   27.4234   51.1251 H   0  0  0  0  0  0  0  0  0  0  0  0
   28.9850   29.1043   49.3937 H   0  0  0  0  0  0  0  0  0  0  0  0
   30.8538   30.0852   48.1400 H   0  0  0  0  0  0  0  0  0  0  0  0
   33.1191   29.4193   48.5899 H   0  0  0  0  0  0  0  0  0  0  0  0
  2  1  2  0
  3  2  1  0
  4  3  2  0
  4  5  1  0
  5  6  2  0
  6  1  1  0
  7  5  1  0
  1  8  1  0
  2  9  1  0
  3 10  1  0
 11 12  2  0
 12 13  1  0
 12 14  1  0
 14 15  2  0
 15 16  1  0
 16 17  2  0
 17 18  1  0
 18 19  2  0
 19 20  1  0
 20 21  2  0
 21 11  1  0
 21 16  1  0
 14 22  1  0
 15 23  1  0
 17 24  1  0
 18 25  1  0
 19 26  1  0
 20 27  1  0
  7 11  1  0
M  ISO  4   8  14   9  14  10  14  13  15
M  END
>  <DihAtoms>  (1) 
4,6,10,11

>  <DihDeg>  (1) 
-0.0008460112987181391

$$$$
