
     RDKit          3D

 45 48  0  0  0  0  0  0  0  0999 V2000
   37.5662   30.8176   49.5044 C   0  0  0  0  0  0  0  0  0  0  0  0
   37.4786   32.1395   49.9132 C   0  0  0  0  0  0  0  0  0  0  0  0
   37.9273   33.1305   49.0056 C   0  0  0  0  0  0  0  0  0  0  0  0
   38.4049   32.6841   47.8094 N   0  0  0  0  0  0  0  0  0  0  0  0
   38.4708   31.4143   47.4569 C   0  0  0  0  0  0  0  0  0  0  0  0
   38.0518   30.4836   48.3045 N   0  0  0  0  0  0  0  0  0  0  0  0
   38.9852   31.1375   46.1704 N   0  0  0  0  0  0  0  0  0  0  0  0
   40.3866   30.8721   45.9974 C   0  0  0  0  0  0  0  0  0  0  0  0
   40.9170   31.5512   44.7486 C   0  0  0  0  0  0  0  0  0  0  0  0
   40.0966   31.3027   43.6224 N   0  0  0  0  0  0  0  0  0  0  0  0
   38.9383   30.4748   43.8564 C   0  0  0  0  0  0  0  0  0  0  0  0
   38.1199   31.1149   44.9975 C   0  0  2  0  0  0  0  0  0  0  0  0
   37.1039   29.7436   50.4569 C   0  0  0  0  0  0  0  0  0  0  0  0
   35.8103   29.3592   50.1401 F   0  0  0  0  0  0  0  0  0  0  0  0
   38.0004   28.7307   50.4326 F   0  0  0  0  0  0  0  0  0  0  0  0
   37.0148   30.3503   51.7244 F   0  0  0  0  0  0  0  0  0  0  0  0
   37.4582   32.3519   44.6780 C   0  0  0  0  0  0  0  0  0  0  0  0
   37.4595   32.5804   43.4794 O   0  0  0  0  0  0  0  0  0  0  0  0
   37.0779   32.3642   50.8937 H   0  0  0  0  0  0  0  0  0  0  0  0
   37.8621   34.1554   49.3163 H   0  0  0  0  0  0  0  0  0  0  0  0
   41.0024   31.1762   46.8548 H   0  0  0  0  0  0  0  0  0  0  0  0
   40.4854   29.7785   45.8470 H   0  0  0  0  0  0  0  0  0  0  0  0
   41.9055   31.0497   44.5492 H   0  0  0  0  0  0  0  0  0  0  0  0
   41.1692   32.6186   44.9345 H   0  0  0  0  0  0  0  0  0  0  0  0
   40.5784   30.9798   42.7647 H   0  0  0  0  0  0  0  0  0  0  0  0
   39.1503   29.4486   44.1576 H   0  0  0  0  0  0  0  0  0  0  0  0
   38.2905   30.5086   42.9653 H   0  0  0  0  0  0  0  0  0  0  0  0
   37.4022   30.2659   45.2503 H   0  0  0  0  0  0  0  0  0  0  0  0
   36.7377   33.6272   44.6240 C   0  0  0  0  0  0  0  0  0  0  0  0
   36.0464   33.9927   45.8710 C   0  0  0  0  0  0  0  0  0  0  0  0
   35.7846   33.2369   46.6619 H   0  0  0  0  0  0  0  0  0  0  0  0
   35.6020   35.2566   46.3281 C   0  0  0  0  0  0  0  0  0  0  0  0
   35.8984   36.2253   45.4079 C   0  0  0  0  0  0  0  0  0  0  0  0
   36.5265   36.0501   44.2022 C   0  0  0  0  0  0  0  0  0  0  0  0
   36.6870   37.0680   43.3081 C   0  0  0  0  0  0  0  0  0  0  0  0
   37.2191   36.8099   42.0516 C   0  0  0  0  0  0  0  0  0  0  0  0
   37.5819   35.4989   41.7229 C   0  0  0  0  0  0  0  0  0  0  0  0
   37.3689   34.5702   42.7210 C   0  0  0  0  0  0  0  0  0  0  0  0
   36.8494   34.7652   43.9960 C   0  0  0  0  0  0  0  0  0  0  0  0
   35.1103   35.3980   47.2609 H   0  0  0  0  0  0  0  0  0  0  0  0
   35.5872   37.2207   45.7187 H   0  0  0  0  0  0  0  0  0  0  0  0
   36.3875   38.0770   43.6097 H   0  0  0  0  0  0  0  0  0  0  0  0
   37.3063   37.6819   41.4196 H   0  0  0  0  0  0  0  0  0  0  0  0
   37.9799   35.3447   40.7541 H   0  0  0  0  0  0  0  0  0  0  0  0
   37.6219   33.5582   42.3441 H   0  0  0  0  0  0  0  0  0  0  0  0
  1  2  2  0
  1 13  1  0
  3  2  1  0
  4  3  2  0
  5  4  1  0
  5  6  2  0
  6  1  1  0
  7  5  1  0
  8  7  1  0
  9  8  1  0
 10 11  1  0
 10  9  1  0
 11 12  1  0
 12  7  1  0
 13 16  1  0
 14 13  1  0
 15 13  1  0
 17 12  1  0
 18 17  2  0
  2 19  1  0
  3 20  1  0
  8 21  1  0
  8 22  1  0
  9 23  1  0
  9 24  1  0
 10 25  1  0
 11 26  1  0
 11 27  1  0
 12 28  1  1
 29 30  2  0
 30 31  1  0
 30 32  1  0
 32 33  2  0
 33 34  1  0
 34 35  2  0
 35 36  1  0
 36 37  2  0
 37 38  1  0
 38 39  2  0
 39 29  1  0
 39 34  1  0
 32 40  1  0
 33 41  1  0
 35 42  1  0
 36 43  1  0
 37 44  1  0
 38 45  1  0
 17 29  1  0
M  ISO  8  19  14  20  14  21  13  22  13  23  13  24  13  25   5  26  13
M  ISO  3  27  13  28  13  31  15
M  END
>  <DihAtoms>  (1) 
11,16,28,29

>  <DihDeg>  (1) 
-116.48582082553327

$$$$
