
     RDKit          3D

 27 29  0  0  0  0  0  0  0  0999 V2000
   37.3199   30.2270   51.4224 C   0  0  0  0  0  0  0  0  0  0  0  0
   38.0732   30.7329   50.3479 C   0  0  0  0  0  0  0  0  0  0  0  0
   37.6961   30.3709   49.0329 C   0  0  0  0  0  0  0  0  0  0  0  0
   36.6161   29.5479   48.9060 N   0  0  0  0  0  0  0  0  0  0  0  0
   35.9246   29.0878   49.9648 C   0  0  0  0  0  0  0  0  0  0  0  0
   36.2810   29.4302   51.2136 N   0  0  0  0  0  0  0  0  0  0  0  0
   34.8811   28.2784   49.6014 O   0  0  0  0  0  0  0  0  0  0  0  0
   37.6502   30.5343   52.4081 H   0  0  0  0  0  0  0  0  0  0  0  0
   38.9316   31.3849   50.4116 H   0  0  0  0  0  0  0  0  0  0  0  0
   38.2542   30.7424   48.1809 H   0  0  0  0  0  0  0  0  0  0  0  0
   33.9715   27.6374   50.3853 C   0  0  0  0  0  0  0  0  0  0  0  0
   33.2846   26.4562   50.1980 C   0  0  0  0  0  0  0  0  0  0  0  0
   33.5247   25.9739   49.2625 H   0  0  0  0  0  0  0  0  0  0  0  0
   32.3916   25.9682   51.1256 C   0  0  0  0  0  0  0  0  0  0  0  0
   32.1386   26.6437   52.2984 C   0  0  0  0  0  0  0  0  0  0  0  0
   32.8135   27.8285   52.5093 C   0  0  0  0  0  0  0  0  0  0  0  0
   32.5217   28.4628   53.7001 C   0  0  0  0  0  0  0  0  0  0  0  0
   33.1495   29.6487   53.9902 C   0  0  0  0  0  0  0  0  0  0  0  0
   34.0429   30.1702   53.0994 C   0  0  0  0  0  0  0  0  0  0  0  0
   34.3126   29.5209   51.9286 C   0  0  0  0  0  0  0  0  0  0  0  0
   33.7159   28.3268   51.5778 C   0  0  0  0  0  0  0  0  0  0  0  0
   31.8962   25.0251   50.8886 H   0  0  0  0  0  0  0  0  0  0  0  0
   31.4383   26.2459   53.0089 H   0  0  0  0  0  0  0  0  0  0  0  0
   31.8284   28.0743   54.4095 H   0  0  0  0  0  0  0  0  0  0  0  0
   32.9658   30.1968   54.9062 H   0  0  0  0  0  0  0  0  0  0  0  0
   34.5660   31.1040   53.2806 H   0  0  0  0  0  0  0  0  0  0  0  0
   35.0233   29.9419   51.2268 H   0  0  0  0  0  0  0  0  0  0  0  0
  2  1  2  0
  3  2  1  0
  4  3  2  0
  4  5  1  0
  5  6  2  0
  6  1  1  0
  7  5  1  0
  1  8  1  0
  2  9  1  0
  3 10  1  0
 11 12  2  0
 12 13  1  0
 12 14  1  0
 14 15  2  0
 15 16  1  0
 16 17  2  0
 17 18  1  0
 18 19  2  0
 19 20  1  0
 20 21  2  0
 21 11  1  0
 21 16  1  0
 14 22  1  0
 15 23  1  0
 17 24  1  0
 18 25  1  0
 19 26  1  0
 20 27  1  0
  7 11  1  0
M  ISO  4   8  14   9  14  10  14  13  15
M  END
>  <DihAtoms>  (1) 
4,6,10,11

>  <DihDeg>  (1) 
-0.0008460112987181391

$$$$
