
     RDKit          3D

 28 30  0  0  0  0  0  0  0  0999 V2000
   37.2657   30.1831   51.4183 C   0  0  0  0  0  0  0  0  0  0  0  0
   38.0956   30.7624   50.4512 C   0  0  0  0  0  0  0  0  0  0  0  0
   37.8071   30.4997   49.1072 C   0  0  0  0  0  0  0  0  0  0  0  0
   36.7440   29.7026   48.8382 N   0  0  0  0  0  0  0  0  0  0  0  0
   35.9642   29.1592   49.7760 C   0  0  0  0  0  0  0  0  0  0  0  0
   36.2224   29.3977   51.0697 N   0  0  0  0  0  0  0  0  0  0  0  0
   34.8245   28.3029   49.5021 C   0  0  0  0  0  0  0  0  0  0  0  0
   33.6265   28.7254   49.5563 O   0  0  0  0  0  0  0  0  0  0  0  0
   37.4881   30.3865   52.4762 H   0  0  0  0  0  0  0  0  0  0  0  0
   38.9226   31.3852   50.7343 H   0  0  0  0  0  0  0  0  0  0  0  0
   38.4115   30.9183   48.3122 H   0  0  0  0  0  0  0  0  0  0  0  0
   35.2848   26.9548   49.1749 C   0  0  0  0  0  0  0  0  0  0  0  0
   34.9880   26.3512   47.9504 C   0  0  0  0  0  0  0  0  0  0  0  0
   34.4095   26.8733   47.2110 H   0  0  0  0  0  0  0  0  0  0  0  0
   35.3909   25.0850   47.5906 C   0  0  0  0  0  0  0  0  0  0  0  0
   36.1364   24.3497   48.4838 C   0  0  0  0  0  0  0  0  0  0  0  0
   36.4590   24.8948   49.7069 C   0  0  0  0  0  0  0  0  0  0  0  0
   37.2059   24.1599   50.6012 C   0  0  0  0  0  0  0  0  0  0  0  0
   37.5676   24.6399   51.8426 C   0  0  0  0  0  0  0  0  0  0  0  0
   37.1341   25.9072   52.1374 C   0  0  0  0  0  0  0  0  0  0  0  0
   36.3863   26.6376   51.2371 C   0  0  0  0  0  0  0  0  0  0  0  0
   36.0338   26.1496   50.0079 C   0  0  0  0  0  0  0  0  0  0  0  0
   35.1364   24.6602   46.6305 H   0  0  0  0  0  0  0  0  0  0  0  0
   36.4717   23.3564   48.2431 H   0  0  0  0  0  0  0  0  0  0  0  0
   37.5208   23.1555   50.3061 H   0  0  0  0  0  0  0  0  0  0  0  0
   38.1555   24.0321   52.5181 H   0  0  0  0  0  0  0  0  0  0  0  0
   37.4211   26.2926   53.1268 H   0  0  0  0  0  0  0  0  0  0  0  0
   36.0949   27.6229   51.5611 H   0  0  0  0  0  0  0  0  0  0  0  0
  2  1  2  0
  3  2  1  0
  4  3  2  0
  4  5  1  0
  5  6  2  0
  6  1  1  0
  7  8  2  0
  7  5  1  0
  1  9  1  0
  2 10  1  0
  3 11  1  0
 12 13  2  0
 13 14  1  0
 13 15  1  0
 15 16  2  0
 16 17  1  0
 17 18  2  0
 18 19  1  0
 19 20  2  0
 20 21  1  0
 21 22  2  0
 22 12  1  0
 22 17  1  0
 15 23  1  0
 16 24  1  0
 18 25  1  0
 19 26  1  0
 20 27  1  0
 21 28  1  0
  7 12  1  0
M  ISO  4   9  14  10  14  11  14  14  15
M  END
>  <DihAtoms>  (1) 
7,6,11,12

>  <DihDeg>  (1) 
134.30585876524114

$$$$
