
     RDKit          3D

 28 30  0  0  0  0  0  0  0  0999 V2000
   38.6370   32.2210   47.4700 C   0  0  0  0  0  0  0  0  0  0  0  0
   39.0730   33.0960   48.2850 O   0  0  0  0  0  0  0  0  0  0  0  0
   37.5510   31.2610   47.7600 C   0  0  0  0  0  0  0  0  0  0  0  0
   36.7180   30.9500   46.6830 C   0  0  0  0  0  0  0  0  0  0  0  0
   35.6530   30.0760   46.7420 C   0  0  0  0  0  0  0  0  0  0  0  0
   35.3910   29.4660   47.9440 C   0  0  0  0  0  0  0  0  0  0  0  0
   36.2040   29.7620   49.0160 C   0  0  0  0  0  0  0  0  0  0  0  0
   36.0140   29.1920   50.2770 C   0  0  0  0  0  0  0  0  0  0  0  0
   36.8160   29.4760   51.3640 C   0  0  0  0  0  0  0  0  0  0  0  0
   37.8730   30.3710   51.2190 C   0  0  0  0  0  0  0  0  0  0  0  0
   38.0990   30.9600   49.9910 C   0  0  0  0  0  0  0  0  0  0  0  0
   37.2680   30.6360   48.9550 C   0  0  0  0  0  0  0  0  0  0  0  0
   39.2120   32.1050   46.1260 C   0  0  0  0  0  0  0  0  0  0  0  0
   40.1450   31.0910   45.9120 C   0  0  0  0  0  0  0  0  0  0  0  0
   40.7000   30.9730   44.6220 C   0  0  0  0  0  0  0  0  0  0  0  0
   40.2870   31.8660   43.6600 N   0  0  0  0  0  0  0  0  0  0  0  0
   39.3910   32.8250   43.9090 C   0  0  0  0  0  0  0  0  0  0  0  0
   38.8600   32.9400   45.1300 N   0  0  0  0  0  0  0  0  0  0  0  0
   36.9263   31.4370   45.7189 H   0  0  0  0  0  0  0  0  0  0  0  0
   35.0338   29.8742   45.8555 H   0  0  0  0  0  0  0  0  0  0  0  0
   34.5541   28.7597   48.0481 H   0  0  0  0  0  0  0  0  0  0  0  0
   35.1845   28.4819   50.4104 H   0  0  0  0  0  0  0  0  0  0  0  0
   36.6219   28.9995   52.3363 H   0  0  0  0  0  0  0  0  0  0  0  0
   38.5221   30.6066   52.0753 H   0  0  0  0  0  0  0  0  0  0  0  0
   38.9261   31.6714   49.8499 H   0  0  0  0  0  0  0  0  0  0  0  0
   40.4377   30.4068   46.7221 H   0  0  0  0  0  0  0  0  0  0  0  0
   41.4396   30.1921   44.3915 H   0  0  0  0  0  0  0  0  0  0  0  0
   39.0907   33.5190   43.1102 H   0  0  0  0  0  0  0  0  0  0  0  0
  1  3  1  0
  1  2  2  0
  3 12  2  0
  4  5  2  0
  4  3  1  0
  5  6  1  0
  6  7  2  0
  7  8  1  0
  8  9  2  0
 10  9  1  0
 11 10  2  0
 12  7  1  0
 12 11  1  0
 13  1  1  0
 14 13  2  0
 15 14  1  0
 16 17  1  0
 16 15  2  0
 17 18  2  0
 18 13  1  0
  4 19  1  0
  5 20  1  0
  6 21  1  0
  8 22  1  0
  9 23  1  0
 10 24  1  0
 11 25  1  0
 14 26  1  0
 15 27  1  0
 17 28  1  0
M  ISO  8  19  14  20  14  21  14  22  14  23  14  24  14  25  14  26  14
M  ISO  2  27  14  28  14
M  END
>  <minimizedAffinity>  (1) 
-6.82852554

>  <minimizedRMSD>  (1) 
4.6192255

$$$$
