
     RDKit          3D

 27 29  0  0  0  0  0  0  0  0999 V2000
   37.3199   30.2270   51.4224 C   0  0  0  0  0  0  0  0  0  0  0  0
   38.0732   30.7329   50.3479 C   0  0  0  0  0  0  0  0  0  0  0  0
   37.6961   30.3709   49.0329 C   0  0  0  0  0  0  0  0  0  0  0  0
   36.6161   29.5479   48.9060 N   0  0  0  0  0  0  0  0  0  0  0  0
   35.9246   29.0878   49.9648 C   0  0  0  0  0  0  0  0  0  0  0  0
   36.2810   29.4302   51.2136 N   0  0  0  0  0  0  0  0  0  0  0  0
   34.8811   28.2784   49.6014 O   0  0  0  0  0  0  0  0  0  0  0  0
   37.6502   30.5343   52.4081 H   0  0  0  0  0  0  0  0  0  0  0  0
   38.9316   31.3849   50.4116 H   0  0  0  0  0  0  0  0  0  0  0  0
   38.2542   30.7424   48.1809 H   0  0  0  0  0  0  0  0  0  0  0  0
   33.9715   27.6374   50.3853 C   0  0  0  0  0  0  0  0  0  0  0  0
   32.5966   27.7308   50.4420 C   0  0  0  0  0  0  0  0  0  0  0  0
   32.1938   28.4400   49.7347 H   0  0  0  0  0  0  0  0  0  0  0  0
   31.8431   26.9844   51.3201 C   0  0  0  0  0  0  0  0  0  0  0  0
   32.4326   26.0986   52.1938 C   0  0  0  0  0  0  0  0  0  0  0  0
   33.8074   25.9868   52.1566 C   0  0  0  0  0  0  0  0  0  0  0  0
   34.3445   25.0851   53.0531 C   0  0  0  0  0  0  0  0  0  0  0  0
   35.7060   24.9114   53.0829 C   0  0  0  0  0  0  0  0  0  0  0  0
   36.4927   25.6306   52.2301 C   0  0  0  0  0  0  0  0  0  0  0  0
   35.9341   26.5161   51.3531 C   0  0  0  0  0  0  0  0  0  0  0  0
   34.5739   26.7368   51.2733 C   0  0  0  0  0  0  0  0  0  0  0  0
   30.7616   27.1274   51.2910 H   0  0  0  0  0  0  0  0  0  0  0  0
   31.8268   25.5257   52.8709 H   0  0  0  0  0  0  0  0  0  0  0  0
   33.7499   24.5135   53.7275 H   0  0  0  0  0  0  0  0  0  0  0  0
   36.1909   24.2205   53.7616 H   0  0  0  0  0  0  0  0  0  0  0  0
   37.5736   25.5309   52.2133 H   0  0  0  0  0  0  0  0  0  0  0  0
   36.5660   27.0832   50.6793 H   0  0  0  0  0  0  0  0  0  0  0  0
  2  1  2  0
  3  2  1  0
  4  3  2  0
  4  5  1  0
  5  6  2  0
  6  1  1  0
  7  5  1  0
  1  8  1  0
  2  9  1  0
  3 10  1  0
 11 12  2  0
 12 13  1  0
 12 14  1  0
 14 15  2  0
 15 16  1  0
 16 17  2  0
 17 18  1  0
 18 19  2  0
 19 20  1  0
 20 21  2  0
 21 11  1  0
 21 16  1  0
 14 22  1  0
 15 23  1  0
 17 24  1  0
 18 25  1  0
 19 26  1  0
 20 27  1  0
  7 11  1  0
M  ISO  4   8  14   9  14  10  14  13  15
M  END
>  <DihAtoms>  (1) 
4,6,10,11

>  <DihDeg>  (1) 
-0.0008460112987181391

$$$$
