
     RDKit          3D

 32 34  0  0  0  0  0  0  0  0999 V2000
   37.3463   30.1496   51.3594 C   0  0  0  0  0  0  0  0  0  0  0  0
   38.0001   30.5082   50.1676 C   0  0  0  0  0  0  0  0  0  0  0  0
   37.4132   30.1505   48.9542 C   0  0  0  0  0  0  0  0  0  0  0  0
   36.2325   29.4695   48.9898 N   0  0  0  0  0  0  0  0  0  0  0  0
   35.6388   29.1451   50.1514 C   0  0  0  0  0  0  0  0  0  0  0  0
   36.1885   29.4809   51.3313 N   0  0  0  0  0  0  0  0  0  0  0  0
   37.8531   30.3845   47.6965 O   0  0  0  0  0  0  0  0  0  0  0  0
   39.0601   32.7310   48.1352 O   0  0  0  0  0  0  0  0  0  0  0  0
   38.7030   31.7201   47.1025 P   0  0  2  0  0  0  0  0  0  0  0  0
   37.8192   32.4527   45.8421 O   0  0  0  0  0  0  0  0  0  0  0  0
   40.1652   31.1798   46.4230 O   0  0  0  0  0  0  0  0  0  0  0  0
   37.9084   30.4873   52.2089 H   0  0  0  0  0  0  0  0  0  0  0  0
   38.9180   31.0365   50.0714 H   0  0  0  0  0  0  0  0  0  0  0  0
   34.6930   28.5996   50.1696 H   0  0  0  0  0  0  0  0  0  0  0  0
   37.9817   32.0078   44.9740 H   0  0  0  0  0  0  0  0  0  0  0  0
   40.9344   32.0560   45.6702 C   0  0  0  0  0  0  0  0  0  0  0  0
   42.2308   32.4700   45.8967 C   0  0  0  0  0  0  0  0  0  0  0  0
   42.6837   32.0432   46.7796 H   0  0  0  0  0  0  0  0  0  0  0  0
   42.8431   33.3491   45.0419 C   0  0  0  0  0  0  0  0  0  0  0  0
   42.2063   33.8586   43.9277 C   0  0  0  0  0  0  0  0  0  0  0  0
   40.9099   33.4579   43.6827 C   0  0  0  0  0  0  0  0  0  0  0  0
   40.2716   33.9666   42.5686 C   0  0  0  0  0  0  0  0  0  0  0  0
   38.9741   33.5959   42.2807 C   0  0  0  0  0  0  0  0  0  0  0  0
   38.3255   32.7136   43.1173 C   0  0  0  0  0  0  0  0  0  0  0  0
   38.9852   32.2195   44.2241 C   0  0  0  0  0  0  0  0  0  0  0  0
   40.2839   32.5659   44.5470 C   0  0  0  0  0  0  0  0  0  0  0  0
   43.8677   33.6561   45.2493 H   0  0  0  0  0  0  0  0  0  0  0  0
   42.6734   34.5416   43.2582 H   0  0  0  0  0  0  0  0  0  0  0  0
   40.7470   34.6647   41.8832 H   0  0  0  0  0  0  0  0  0  0  0  0
   38.3886   33.9369   41.4355 H   0  0  0  0  0  0  0  0  0  0  0  0
   37.3062   32.3905   42.9359 H   0  0  0  0  0  0  0  0  0  0  0  0
   38.4565   31.5288   44.8658 H   0  0  0  0  0  0  0  0  0  0  0  0
  2  1  2  0
  3  4  2  0
  3  2  1  0
  4  5  1  0
  5  6  2  0
  6  1  1  0
  7  3  1  0
  9  7  1  1
  9  8  2  0
 10  9  1  0
 11  9  1  0
  1 12  1  0
  2 13  1  0
  5 14  1  0
 10 15  1  0
 16 17  2  0
 17 18  1  0
 17 19  1  0
 19 20  2  0
 20 21  1  0
 21 22  2  0
 22 23  1  0
 23 24  2  0
 24 25  1  0
 25 26  2  0
 26 16  1  0
 26 21  1  0
 19 27  1  0
 20 28  1  0
 22 29  1  0
 23 30  1  0
 24 31  1  0
 25 32  1  0
 11 16  1  0
M  ISO  5  12  14  13  14  14  14  15   3  18  15
M  END
>  <DihAtoms>  (1) 
8,10,15,16

>  <DihDeg>  (1) 
0.0008990535334534655

$$$$
