
     RDKit          3D

 32 34  0  0  0  0  0  0  0  0999 V2000
   37.3463   30.1496   51.3594 C   0  0  0  0  0  0  0  0  0  0  0  0
   38.0001   30.5082   50.1676 C   0  0  0  0  0  0  0  0  0  0  0  0
   37.4132   30.1505   48.9542 C   0  0  0  0  0  0  0  0  0  0  0  0
   36.2325   29.4695   48.9898 N   0  0  0  0  0  0  0  0  0  0  0  0
   35.6388   29.1451   50.1514 C   0  0  0  0  0  0  0  0  0  0  0  0
   36.1885   29.4809   51.3313 N   0  0  0  0  0  0  0  0  0  0  0  0
   37.8531   30.3845   47.6965 O   0  0  0  0  0  0  0  0  0  0  0  0
   39.0601   32.7310   48.1352 O   0  0  0  0  0  0  0  0  0  0  0  0
   38.7030   31.7201   47.1025 P   0  0  2  0  0  0  0  0  0  0  0  0
   37.8192   32.4527   45.8421 O   0  0  0  0  0  0  0  0  0  0  0  0
   40.1652   31.1798   46.4230 O   0  0  0  0  0  0  0  0  0  0  0  0
   37.9084   30.4873   52.2089 H   0  0  0  0  0  0  0  0  0  0  0  0
   38.9180   31.0365   50.0714 H   0  0  0  0  0  0  0  0  0  0  0  0
   34.6930   28.5996   50.1696 H   0  0  0  0  0  0  0  0  0  0  0  0
   37.9817   32.0078   44.9740 H   0  0  0  0  0  0  0  0  0  0  0  0
   40.9344   32.0560   45.6702 C   0  0  0  0  0  0  0  0  0  0  0  0
   41.5018   33.2512   46.0611 C   0  0  0  0  0  0  0  0  0  0  0  0
   41.3082   33.5173   47.0899 H   0  0  0  0  0  0  0  0  0  0  0  0
   42.2387   33.9968   45.1782 C   0  0  0  0  0  0  0  0  0  0  0  0
   42.4490   33.5985   43.8729 C   0  0  0  0  0  0  0  0  0  0  0  0
   41.8905   32.4068   43.4614 C   0  0  0  0  0  0  0  0  0  0  0  0
   42.1000   32.0071   42.1562 C   0  0  0  0  0  0  0  0  0  0  0  0
   41.5620   30.8224   41.6969 C   0  0  0  0  0  0  0  0  0  0  0  0
   40.8149   30.0456   42.5557 C   0  0  0  0  0  0  0  0  0  0  0  0
   40.6203   30.4671   43.8552 C   0  0  0  0  0  0  0  0  0  0  0  0
   41.1419   31.6464   44.3534 C   0  0  0  0  0  0  0  0  0  0  0  0
   42.6733   34.9361   45.5187 H   0  0  0  0  0  0  0  0  0  0  0  0
   43.0196   34.1706   43.1801 H   0  0  0  0  0  0  0  0  0  0  0  0
   42.6827   32.5902   41.4465 H   0  0  0  0  0  0  0  0  0  0  0  0
   41.6679   30.4225   40.6957 H   0  0  0  0  0  0  0  0  0  0  0  0
   40.3704   29.1065   42.2445 H   0  0  0  0  0  0  0  0  0  0  0  0
   40.0310   29.8414   44.5106 H   0  0  0  0  0  0  0  0  0  0  0  0
  2  1  2  0
  3  4  2  0
  3  2  1  0
  4  5  1  0
  5  6  2  0
  6  1  1  0
  7  3  1  0
  9  7  1  1
  9  8  2  0
 10  9  1  0
 11  9  1  0
  1 12  1  0
  2 13  1  0
  5 14  1  0
 10 15  1  0
 16 17  2  0
 17 18  1  0
 17 19  1  0
 19 20  2  0
 20 21  1  0
 21 22  2  0
 22 23  1  0
 23 24  2  0
 24 25  1  0
 25 26  2  0
 26 16  1  0
 26 21  1  0
 19 27  1  0
 20 28  1  0
 22 29  1  0
 23 30  1  0
 24 31  1  0
 25 32  1  0
 11 16  1  0
M  ISO  5  12  14  13  14  14  14  15   3  18  15
M  END
>  <DihAtoms>  (1) 
8,10,15,16

>  <DihDeg>  (1) 
0.0008990535334534655

$$$$
