
     RDKit          3D

 32 34  0  0  0  0  0  0  0  0999 V2000
   37.3463   30.1496   51.3594 C   0  0  0  0  0  0  0  0  0  0  0  0
   38.0001   30.5082   50.1676 C   0  0  0  0  0  0  0  0  0  0  0  0
   37.4132   30.1505   48.9542 C   0  0  0  0  0  0  0  0  0  0  0  0
   36.2325   29.4695   48.9898 N   0  0  0  0  0  0  0  0  0  0  0  0
   35.6388   29.1451   50.1514 C   0  0  0  0  0  0  0  0  0  0  0  0
   36.1885   29.4809   51.3313 N   0  0  0  0  0  0  0  0  0  0  0  0
   37.8531   30.3845   47.6965 O   0  0  0  0  0  0  0  0  0  0  0  0
   39.0601   32.7310   48.1352 O   0  0  0  0  0  0  0  0  0  0  0  0
   38.7030   31.7201   47.1025 P   0  0  2  0  0  0  0  0  0  0  0  0
   37.8192   32.4527   45.8421 O   0  0  0  0  0  0  0  0  0  0  0  0
   40.1652   31.1798   46.4230 O   0  0  0  0  0  0  0  0  0  0  0  0
   37.9084   30.4873   52.2089 H   0  0  0  0  0  0  0  0  0  0  0  0
   38.9180   31.0365   50.0714 H   0  0  0  0  0  0  0  0  0  0  0  0
   34.6930   28.5996   50.1696 H   0  0  0  0  0  0  0  0  0  0  0  0
   37.9817   32.0078   44.9740 H   0  0  0  0  0  0  0  0  0  0  0  0
   40.9344   32.0560   45.6702 C   0  0  0  0  0  0  0  0  0  0  0  0
   41.7303   33.0932   46.1107 C   0  0  0  0  0  0  0  0  0  0  0  0
   41.7394   33.2191   47.1835 H   0  0  0  0  0  0  0  0  0  0  0  0
   42.4282   33.8658   45.2193 C   0  0  0  0  0  0  0  0  0  0  0  0
   42.3729   33.6511   43.8564 C   0  0  0  0  0  0  0  0  0  0  0  0
   41.5831   32.6194   43.3948 C   0  0  0  0  0  0  0  0  0  0  0  0
   41.5268   32.4035   42.0318 C   0  0  0  0  0  0  0  0  0  0  0  0
   40.7507   31.3834   41.5209 C   0  0  0  0  0  0  0  0  0  0  0  0
   40.0345   30.5852   42.3864 C   0  0  0  0  0  0  0  0  0  0  0  0
   40.1077   30.8216   43.7440 C   0  0  0  0  0  0  0  0  0  0  0  0
   40.8729   31.8324   44.2951 C   0  0  0  0  0  0  0  0  0  0  0  0
   43.0477   34.6772   45.5999 H   0  0  0  0  0  0  0  0  0  0  0  0
   42.9110   34.2456   43.1565 H   0  0  0  0  0  0  0  0  0  0  0  0
   42.0759   33.0098   41.3149 H   0  0  0  0  0  0  0  0  0  0  0  0
   40.6399   31.1334   40.4727 H   0  0  0  0  0  0  0  0  0  0  0  0
   39.4099   29.7708   42.0362 H   0  0  0  0  0  0  0  0  0  0  0  0
   39.5374   30.1827   44.4036 H   0  0  0  0  0  0  0  0  0  0  0  0
  2  1  2  0
  3  4  2  0
  3  2  1  0
  4  5  1  0
  5  6  2  0
  6  1  1  0
  7  3  1  0
  9  7  1  1
  9  8  2  0
 10  9  1  0
 11  9  1  0
  1 12  1  0
  2 13  1  0
  5 14  1  0
 10 15  1  0
 16 17  2  0
 17 18  1  0
 17 19  1  0
 19 20  2  0
 20 21  1  0
 21 22  2  0
 22 23  1  0
 23 24  2  0
 24 25  1  0
 25 26  2  0
 26 16  1  0
 26 21  1  0
 19 27  1  0
 20 28  1  0
 22 29  1  0
 23 30  1  0
 24 31  1  0
 25 32  1  0
 11 16  1  0
M  ISO  5  12  14  13  14  14  14  15   3  18  15
M  END
>  <DihAtoms>  (1) 
8,10,15,16

>  <DihDeg>  (1) 
0.0008990535334534655

$$$$
