
     RDKit          3D

 37 40  0  0  0  0  0  0  0  0999 V2000
   38.3655   30.5784   47.0919 C   0  0  2  0  0  0  0  0  0  0  0  0
   36.9736   30.5478   47.5220 C   0  0  0  0  0  0  0  0  0  0  0  0
   38.0866   31.1261   48.4145 C   0  0  1  0  0  0  0  0  0  0  0  0
   40.6112   32.6971   45.0357 C   0  0  0  0  0  0  0  0  0  0  0  0
   39.7172   33.1849   44.0468 C   0  0  0  0  0  0  0  0  0  0  0  0
   38.3407   32.7769   44.0944 C   0  0  0  0  0  0  0  0  0  0  0  0
   37.9811   31.9368   45.1016 N   0  0  0  0  0  0  0  0  0  0  0  0
   38.8723   31.4963   46.0249 C   0  0  0  0  0  0  0  0  0  0  0  0
   40.1708   31.8594   46.0088 N   0  0  0  0  0  0  0  0  0  0  0  0
   37.6841   30.5120   50.7723 C   0  0  0  0  0  0  0  0  0  0  0  0
   36.7684   31.3772   50.8101 O   0  0  0  0  0  0  0  0  0  0  0  0
   38.4026   30.2771   49.5689 N   0  0  0  0  0  0  0  0  0  0  0  0
   38.9897   29.6356   47.1289 H   0  0  0  0  0  0  0  0  0  0  0  0
   36.5678   29.5785   47.8676 H   0  0  0  0  0  0  0  0  0  0  0  0
   36.2443   31.2664   47.0738 H   0  0  0  0  0  0  0  0  0  0  0  0
   37.8618   32.1765   48.6581 H   0  0  0  0  0  0  0  0  0  0  0  0
   41.6374   33.0398   44.9485 H   0  0  0  0  0  0  0  0  0  0  0  0
   40.0663   33.8602   43.2609 H   0  0  0  0  0  0  0  0  0  0  0  0
   37.7011   33.1604   43.3386 H   0  0  0  0  0  0  0  0  0  0  0  0
   39.1155   29.4953   49.6181 H   0  0  0  0  0  0  0  0  0  0  0  0
   37.8689   29.8461   52.0538 C   0  0  0  0  0  0  0  0  0  0  0  0
   38.6472   30.6080   52.9339 C   0  0  0  0  0  0  0  0  0  0  0  0
   39.0696   31.5745   52.7119 H   0  0  0  0  0  0  0  0  0  0  0  0
   38.9432   30.1559   54.2069 C   0  0  0  0  0  0  0  0  0  0  0  0
   38.4786   28.9271   54.6596 C   0  0  0  0  0  0  0  0  0  0  0  0
   37.7030   28.1798   53.7670 C   0  0  0  0  0  0  0  0  0  0  0  0
   37.2069   26.9594   54.1332 C   0  0  0  0  0  0  0  0  0  0  0  0
   36.4315   26.2129   53.2399 C   0  0  0  0  0  0  0  0  0  0  0  0
   36.1552   26.7086   51.9599 C   0  0  0  0  0  0  0  0  0  0  0  0
   36.6587   27.9531   51.5790 C   0  0  0  0  0  0  0  0  0  0  0  0
   37.4104   28.6326   52.5016 C   0  0  0  0  0  0  0  0  0  0  0  0
   39.5410   30.7118   54.9202 H   0  0  0  0  0  0  0  0  0  0  0  0
   38.6976   28.5574   55.6454 H   0  0  0  0  0  0  0  0  0  0  0  0
   37.4158   26.5728   55.1142 H   0  0  0  0  0  0  0  0  0  0  0  0
   36.0648   25.2436   53.6004 H   0  0  0  0  0  0  0  0  0  0  0  0
   35.5450   26.0874   51.2997 H   0  0  0  0  0  0  0  0  0  0  0  0
   36.4409   28.3344   50.5820 H   0  0  0  0  0  0  0  0  0  0  0  0
  1  2  1  0
  1  3  1  0
  2  3  1  0
  3 12  1  0
  4  9  2  0
  5  6  2  0
  5  4  1  0
  6  7  1  0
  7  8  2  0
  8  1  1  0
  9  8  1  0
 10 11  2  0
 12 10  1  0
  1 13  1  1
  2 14  1  0
  2 15  1  0
  3 16  1  1
  4 17  1  0
  5 18  1  0
  6 19  1  0
 12 20  1  0
 21 22  2  0
 22 23  1  0
 22 24  1  0
 24 25  2  0
 25 26  1  0
 26 27  2  0
 27 28  1  0
 28 29  2  0
 29 30  1  0
 30 31  2  0
 31 21  1  0
 31 26  1  0
 24 32  1  0
 25 33  1  0
 27 34  1  0
 28 35  1  0
 29 36  1  0
 30 37  1  0
 10 21  1  0
M  ISO  8  13  13  14  13  15  13  16  13  17  14  18  14  19  14  23  15
M  END
>  <DihAtoms>  (1) 
10,9,20,21

>  <DihDeg>  (1) 
68.78163326867801

$$$$
