
     RDKit          3D

 27 29  0  0  0  0  0  0  0  0999 V2000
   37.3199   30.2270   51.4224 C   0  0  0  0  0  0  0  0  0  0  0  0
   38.0732   30.7329   50.3479 C   0  0  0  0  0  0  0  0  0  0  0  0
   37.6961   30.3709   49.0329 C   0  0  0  0  0  0  0  0  0  0  0  0
   36.6161   29.5479   48.9060 N   0  0  0  0  0  0  0  0  0  0  0  0
   35.9246   29.0878   49.9648 C   0  0  0  0  0  0  0  0  0  0  0  0
   36.2810   29.4302   51.2136 N   0  0  0  0  0  0  0  0  0  0  0  0
   34.8811   28.2784   49.6014 O   0  0  0  0  0  0  0  0  0  0  0  0
   37.6502   30.5343   52.4081 H   0  0  0  0  0  0  0  0  0  0  0  0
   38.9316   31.3849   50.4116 H   0  0  0  0  0  0  0  0  0  0  0  0
   38.2542   30.7424   48.1809 H   0  0  0  0  0  0  0  0  0  0  0  0
   33.9715   27.6374   50.3853 C   0  0  0  0  0  0  0  0  0  0  0  0
   32.6020   27.5179   50.2741 C   0  0  0  0  0  0  0  0  0  0  0  0
   32.2041   28.0281   49.4100 H   0  0  0  0  0  0  0  0  0  0  0  0
   31.8474   26.8147   51.1863 C   0  0  0  0  0  0  0  0  0  0  0  0
   32.4304   26.1896   52.2656 C   0  0  0  0  0  0  0  0  0  0  0  0
   33.7997   26.2943   52.3991 C   0  0  0  0  0  0  0  0  0  0  0  0
   34.3304   25.6491   53.4980 C   0  0  0  0  0  0  0  0  0  0  0  0
   35.6862   25.7025   53.7068 C   0  0  0  0  0  0  0  0  0  0  0  0
   36.4737   26.3887   52.8279 C   0  0  0  0  0  0  0  0  0  0  0  0
   35.9215   27.0179   51.7488 C   0  0  0  0  0  0  0  0  0  0  0  0
   34.5673   27.0023   51.4827 C   0  0  0  0  0  0  0  0  0  0  0  0
   30.7704   26.7763   51.0142 H   0  0  0  0  0  0  0  0  0  0  0  0
   31.8238   25.6460   52.9657 H   0  0  0  0  0  0  0  0  0  0  0  0
   33.7351   25.1081   54.1964 H   0  0  0  0  0  0  0  0  0  0  0  0
   36.1659   25.2185   54.5487 H   0  0  0  0  0  0  0  0  0  0  0  0
   37.5503   26.4616   52.9472 H   0  0  0  0  0  0  0  0  0  0  0  0
   36.5541   27.5606   51.0558 H   0  0  0  0  0  0  0  0  0  0  0  0
  2  1  2  0
  3  2  1  0
  4  3  2  0
  4  5  1  0
  5  6  2  0
  6  1  1  0
  7  5  1  0
  1  8  1  0
  2  9  1  0
  3 10  1  0
 11 12  2  0
 12 13  1  0
 12 14  1  0
 14 15  2  0
 15 16  1  0
 16 17  2  0
 17 18  1  0
 18 19  2  0
 19 20  1  0
 20 21  2  0
 21 11  1  0
 21 16  1  0
 14 22  1  0
 15 23  1  0
 17 24  1  0
 18 25  1  0
 19 26  1  0
 20 27  1  0
  7 11  1  0
M  ISO  4   8  14   9  14  10  14  13  15
M  END
>  <DihAtoms>  (1) 
4,6,10,11

>  <DihDeg>  (1) 
-0.0008460112987181391

$$$$
