
     RDKit          3D

 33 36  0  0  0  0  0  0  0  0999 V2000
   37.4940   31.1480   48.6220 C   0  0  0  0  0  0  0  0  0  0  0  0
   37.7180   30.1670   49.5890 C   0  0  0  0  0  0  0  0  0  0  0  0
   36.6560   29.2650   49.5640 C   0  0  0  0  0  0  0  0  0  0  0  0
   35.8150   29.7210   48.5850 N   0  0  0  0  0  0  0  0  0  0  0  0
   36.3420   30.8180   48.0650 N   0  0  0  0  0  0  0  0  0  0  0  0
   34.5890   29.1530   48.1680 C   0  0  0  0  0  0  0  0  0  0  0  0
   33.8880   28.5450   49.2140 C   0  0  0  0  0  0  0  0  0  0  0  0
   32.6670   27.9470   48.9430 C   0  0  0  0  0  0  0  0  0  0  0  0
   32.1090   27.9230   47.6900 C   0  0  0  0  0  0  0  0  0  0  0  0
   32.8200   28.5300   46.6740 C   0  0  0  0  0  0  0  0  0  0  0  0
   32.3610   28.5720   45.3630 C   0  0  0  0  0  0  0  0  0  0  0  0
   33.0630   29.1710   44.3600 C   0  0  0  0  0  0  0  0  0  0  0  0
   34.2910   29.7710   44.6430 C   0  0  0  0  0  0  0  0  0  0  0  0
   34.7900   29.7530   45.9360 C   0  0  0  0  0  0  0  0  0  0  0  0
   34.0350   29.1330   46.9070 C   0  0  0  0  0  0  0  0  0  0  0  0
   39.0920   32.4130   47.1720 C   0  0  0  0  0  0  0  0  0  0  0  0
   38.3960   32.2340   48.3820 C   0  0  0  0  0  0  0  0  0  0  0  0
   38.6210   33.1810   49.3720 C   0  0  0  0  0  0  0  0  0  0  0  0
   39.4800   34.2120   49.1390 N   0  0  0  0  0  0  0  0  0  0  0  0
   40.1310   34.3370   47.9440 C   0  0  0  0  0  0  0  0  0  0  0  0
   39.9360   33.4390   46.9610 N   0  0  0  0  0  0  0  0  0  0  0  0
   38.5884   30.1145   50.2596 H   0  0  0  0  0  0  0  0  0  0  0  0
   36.5220   28.3753   50.1968 H   0  0  0  0  0  0  0  0  0  0  0  0
   34.2984   28.5413   50.2346 H   0  0  0  0  0  0  0  0  0  0  0  0
   32.1208   27.4701   49.7702 H   0  0  0  0  0  0  0  0  0  0  0  0
   31.1379   27.4414   47.5030 H   0  0  0  0  0  0  0  0  0  0  0  0
   31.3942   28.1040   45.1257 H   0  0  0  0  0  0  0  0  0  0  0  0
   32.6646   29.1815   43.3347 H   0  0  0  0  0  0  0  0  0  0  0  0
   34.8630   30.2583   43.8396 H   0  0  0  0  0  0  0  0  0  0  0  0
   35.7567   30.2183   46.1786 H   0  0  0  0  0  0  0  0  0  0  0  0
   38.9393   31.6824   46.3639 H   0  0  0  0  0  0  0  0  0  0  0  0
   38.1073   33.0989   50.3412 H   0  0  0  0  0  0  0  0  0  0  0  0
   40.8205   35.1791   47.7843 H   0  0  0  0  0  0  0  0  0  0  0  0
  1  2  1  0
  3  2  2  0
  4  3  1  0
  5  4  1  0
  5  1  2  0
  6  4  1  0
  6  7  2  0
  8  7  1  0
  9  8  2  0
 10 15  2  0
 10  9  1  0
 11 10  1  0
 12 13  1  0
 12 11  2  0
 13 14  2  0
 14 15  1  0
 15  6  1  0
 16 17  2  0
 17  1  1  0
 17 18  1  0
 19 18  2  0
 20 19  1  0
 21 16  1  0
 21 20  2  0
  2 22  1  0
  3 23  1  0
  7 24  1  0
  8 25  1  0
  9 26  1  0
 11 27  1  0
 12 28  1  0
 13 29  1  0
 14 30  1  0
 16 31  1  0
 18 32  1  0
 20 33  1  0
M  ISO  8  22  14  23  14  24  14  25  14  26  14  27  14  28  14  29  14
M  ISO  4  30  14  31  14  32  14  33  14
M  END
>  <minimizedAffinity>  (1) 
-5.83149385

>  <minimizedRMSD>  (1) 
8.35407925

$$$$
