
     RDKit          3D

 40 43  0  0  1  0  0  0  0  0999 V2000
   38.1920   31.7240   50.0080 C   0  0  0  0  0  0  0  0  0  0  0  0
   38.8500   32.8460   49.5110 C   0  0  0  0  0  0  0  0  0  0  0  0
   38.6760   33.1290   48.1560 C   0  0  0  0  0  0  0  0  0  0  0  0
   37.8870   32.2950   47.4460 N   0  0  0  0  0  0  0  0  0  0  0  0
   37.2650   31.2250   47.9400 C   0  0  0  0  0  0  0  0  0  0  0  0
   37.4190   30.9350   49.2370 N   0  0  0  0  0  0  0  0  0  0  0  0
   36.4750   30.4290   47.1060 N   0  0  0  0  0  0  0  0  0  0  0  0
   35.3210   29.6820   47.6450 C   0  0  0  0  0  0  0  0  0  0  0  0
   34.1090   29.9980   46.8690 C   0  0  0  0  0  0  0  0  0  0  0  0
   34.2670   30.6380   45.6410 N   0  0  0  0  0  0  0  0  0  0  0  0
   35.4700   30.5870   44.9310 C   0  0  0  0  0  0  0  0  0  0  0  0
   36.7130   30.2580   45.7080 C   0  0  1  0  0  0  0  0  0  0  0  0
   37.9410   30.7420   45.1270 C   0  0  0  0  0  0  0  0  0  0  0  0
   39.1500   30.3400   45.7180 C   0  0  0  0  0  0  0  0  0  0  0  0
   40.3790   30.7660   45.2940 C   0  0  0  0  0  0  0  0  0  0  0  0
   40.4850   31.6490   44.2200 C   0  0  0  0  0  0  0  0  0  0  0  0
   39.3410   32.0820   43.5950 C   0  0  0  0  0  0  0  0  0  0  0  0
   39.3920   32.9500   42.5240 C   0  0  0  0  0  0  0  0  0  0  0  0
   38.2520   33.3940   41.8750 C   0  0  0  0  0  0  0  0  0  0  0  0
   37.0500   32.9130   42.3660 C   0  0  0  0  0  0  0  0  0  0  0  0
   37.0030   32.0470   43.4360 C   0  0  0  0  0  0  0  0  0  0  0  0
   38.1410   31.6100   44.0770 C   0  0  0  0  0  0  0  0  0  0  0  0
   38.3080   31.4719   51.0724 H   0  0  0  0  0  0  0  0  0  0  0  0
   39.4771   33.4790   50.1560 H   0  0  0  0  0  0  0  0  0  0  0  0
   39.1619   33.9964   47.6854 H   0  0  0  0  0  0  0  0  0  0  0  0
   35.5236   28.6027   47.5807 H   0  0  0  0  0  0  0  0  0  0  0  0
   35.1629   29.9701   48.6948 H   0  0  0  0  0  0  0  0  0  0  0  0
   33.5858   29.0493   46.6786 H   0  0  0  0  0  0  0  0  0  0  0  0
   33.5667   30.7258   47.4905 H   0  0  0  0  0  0  0  0  0  0  0  0
   33.5466   30.2474   45.0170 H   0  0  0  0  0  0  0  0  0  0  0  0
   35.3589   29.8243   44.1462 H   0  0  0  0  0  0  0  0  0  0  0  0
   35.6272   31.6127   44.5660 H   0  0  0  0  0  0  0  0  0  0  0  0
   36.9396   29.1856   45.6147 H   0  0  0  0  0  0  0  0  0  0  0  0
   39.1063   29.6442   46.5688 H   0  0  0  0  0  0  0  0  0  0  0  0
   41.2873   30.4105   45.8024 H   0  0  0  0  0  0  0  0  0  0  0  0
   41.4717   31.9943   43.8778 H   0  0  0  0  0  0  0  0  0  0  0  0
   40.3732   33.3021   42.1729 H   0  0  0  0  0  0  0  0  0  0  0  0
   38.2986   34.0865   41.0216 H   0  0  0  0  0  0  0  0  0  0  0  0
   36.1103   33.2300   41.8902 H   0  0  0  0  0  0  0  0  0  0  0  0
   36.0238   31.6926   43.7904 H   0  0  0  0  0  0  0  0  0  0  0  0
  2  1  2  0
  3  2  1  0
  4  5  1  0
  4  3  2  0
  5  6  2  0
  6  1  1  0
  7  8  1  0
  7  5  1  0
  9  8  1  0
 10  9  1  0
 11 10  1  0
 11 12  1  0
 12  7  1  0
 13 12  1  0
 13 14  2  0
 15 14  1  0
 16 15  2  0
 17 22  2  0
 17 16  1  0
 18 17  1  0
 19 20  1  0
 19 18  2  0
 20 21  2  0
 21 22  1  0
 22 13  1  0
  1 23  1  0
  2 24  1  0
  3 25  1  0
  8 26  1  0
  8 27  1  0
  9 28  1  0
  9 29  1  0
 10 30  1  0
 11 31  1  0
 11 32  1  0
 12 33  1  1
 14 34  1  0
 15 35  1  0
 16 36  1  0
 18 37  1  0
 19 38  1  0
 20 39  1  0
 21 40  1  0
M  ISO  8  23  14  24  14  25  14  26  13  27  13  28  13  29  13  30   5
M  ISO  8  31  13  32  13  33  13  34  14  35  14  36  14  37  14  38  14
M  ISO  2  39  14  40  14
M  END
>  <minimizedAffinity>  (1) 
-5.61862183

>  <minimizedRMSD>  (1) 
3.03823233

$$$$
