
     RDKit          3D

 50 54  0  0  0  0  0  0  0  0999 V2000
   31.4180   27.9910   47.3030 C   0  0  0  0  0  0  0  0  0  0  0  0
   31.0000   26.7190   47.2150 C   0  0  0  0  0  0  0  0  0  0  0  0
   29.8250   26.4110   46.6540 C   0  0  0  0  0  0  0  0  0  0  0  0
   29.0520   27.4180   46.1710 N   0  0  0  0  0  0  0  0  0  0  0  0
   29.4720   28.6730   46.2610 C   0  0  0  0  0  0  0  0  0  0  0  0
   30.6480   28.9830   46.8220 N   0  0  0  0  0  0  0  0  0  0  0  0
   27.5920   30.2400   46.4860 C   0  0  0  0  0  0  0  0  0  0  0  0
   28.5800   29.6510   45.6910 C   0  0  0  0  0  0  0  0  0  0  0  0
   28.7560   29.9250   44.3460 C   0  0  0  0  0  0  0  0  0  0  0  0
   27.9150   30.8330   43.7330 C   0  0  0  0  0  0  0  0  0  0  0  0
   26.9140   31.4600   44.4400 C   0  0  0  0  0  0  0  0  0  0  0  0
   26.8160   31.1290   45.7550 C   0  0  0  0  0  0  0  0  0  0  0  0
   27.3720   29.9490   48.1110 S   0  0  0  0  0  0  0  0  0  0  0  0
   26.3580   28.7690   47.9490 O   0  0  0  0  0  0  0  0  0  0  0  0
   26.6330   31.1330   48.6820 O   0  0  0  0  0  0  0  0  0  0  0  0
   27.8040   29.3100   49.5080 C   0  0  0  0  0  0  0  0  0  0  0  0
   26.9150   28.7560   50.4560 F   0  0  0  0  0  0  0  0  0  0  0  0
   28.1490   30.3750   50.4630 F   0  0  0  0  0  0  0  0  0  0  0  0
   29.1210   28.8110   49.7270 F   0  0  0  0  0  0  0  0  0  0  0  0
   34.2100   28.4070   49.6510 C   0  0  0  0  0  0  0  0  0  0  0  0
   35.1510   29.1010   48.8890 C   0  0  0  0  0  0  0  0  0  0  0  0
   34.8220   29.4270   47.5820 C   0  0  0  0  0  0  0  0  0  0  0  0
   33.5880   29.0300   47.1460 N   0  0  0  0  0  0  0  0  0  0  0  0
   32.7000   28.3600   47.9000 C   0  0  0  0  0  0  0  0  0  0  0  0
   33.0300   28.0580   49.1520 N   0  0  0  0  0  0  0  0  0  0  0  0
   35.6340   30.0710   46.5760 C   0  0  0  0  0  0  0  0  0  0  0  0
   35.2030   29.9420   45.2460 C   0  0  0  0  0  0  0  0  0  0  0  0
   35.8430   30.4970   44.1600 C   0  0  0  0  0  0  0  0  0  0  0  0
   36.9880   31.2360   44.3530 C   0  0  0  0  0  0  0  0  0  0  0  0
   37.4590   31.4020   45.6360 C   0  0  0  0  0  0  0  0  0  0  0  0
   38.5830   32.1650   45.8640 C   0  0  0  0  0  0  0  0  0  0  0  0
   39.0860   32.4000   47.1490 C   0  0  0  0  0  0  0  0  0  0  0  0
   38.3620   31.8010   48.1760 C   0  0  0  0  0  0  0  0  0  0  0  0
   37.2470   31.0430   47.9220 C   0  0  0  0  0  0  0  0  0  0  0  0
   36.7720   30.8220   46.6700 C   0  0  0  0  0  0  0  0  0  0  0  0
   31.6357   25.9138   47.6118 H   0  0  0  0  0  0  0  0  0  0  0  0
   29.4922   25.3648   46.5854 H   0  0  0  0  0  0  0  0  0  0  0  0
   29.5531   29.4275   43.7741 H   0  0  0  0  0  0  0  0  0  0  0  0
   28.0470   31.0584   42.6645 H   0  0  0  0  0  0  0  0  0  0  0  0
   26.2341   32.1854   43.9692 H   0  0  0  0  0  0  0  0  0  0  0  0
   26.0144   31.6332   46.3146 H   0  0  0  0  0  0  0  0  0  0  0  0
   34.4519   28.1425   50.6910 H   0  0  0  0  0  0  0  0  0  0  0  0
   36.1263   29.3815   49.3133 H   0  0  0  0  0  0  0  0  0  0  0  0
   34.2906   29.3569   45.0583 H   0  0  0  0  0  0  0  0  0  0  0  0
   35.4421   30.3508   43.1461 H   0  0  0  0  0  0  0  0  0  0  0  0
   37.5163   31.6851   43.4991 H   0  0  0  0  0  0  0  0  0  0  0  0
   39.1056   32.6068   45.0028 H   0  0  0  0  0  0  0  0  0  0  0  0
   39.9828   33.0100   47.3328 H   0  0  0  0  0  0  0  0  0  0  0  0
   38.6918   31.9387   49.2163 H   0  0  0  0  0  0  0  0  0  0  0  0
   36.7133   30.5936   48.7724 H   0  0  0  0  0  0  0  0  0  0  0  0
  1 24  1  0
  2  1  2  0
  3  2  1  0
  4  5  1  0
  4  3  2  0
  5  6  2  0
  6  1  1  0
  7 13  1  0
  8  5  1  0
  8  7  2  0
  9  8  1  0
 10  9  2  0
 10 11  1  0
 11 12  2  0
 12  7  1  0
 13 15  2  0
 13 16  1  0
 14 13  2  0
 16 19  1  0
 16 17  1  0
 16 18  1  0
 21 20  2  0
 22 21  1  0
 23 22  2  0
 23 24  1  0
 24 25  2  0
 25 20  1  0
 26 35  1  0
 26 22  1  0
 27 26  2  0
 28 29  2  0
 28 27  1  0
 29 30  1  0
 30 31  1  0
 30 35  2  0
 31 32  2  0
 32 33  1  0
 34 33  2  0
 35 34  1  0
  2 36  1  0
  3 37  1  0
  9 38  1  0
 10 39  1  0
 11 40  1  0
 12 41  1  0
 20 42  1  0
 21 43  1  0
 27 44  1  0
 28 45  1  0
 29 46  1  0
 31 47  1  0
 32 48  1  0
 33 49  1  0
 34 50  1  0
M  ISO  8  36  14  37  14  38  14  39  14  40  14  41  14  42  14  43  14
M  ISO  7  44  14  45  14  46  14  47  14  48  14  49  14  50  14
M  END
>  <minimizedAffinity>  (1) 
-7.56651974

>  <minimizedRMSD>  (1) 
4.83801746

$$$$
