
     RDKit          3D

 49 53  0  0  0  0  0  0  0  0999 V2000
   37.5520   32.0594   48.1244 Cl  0  0  0  0  0  0  0  0  0  0  0  0
   36.6794   31.0882   46.9985 C   0  0  0  0  0  0  0  0  0  0  0  0
   37.2022   30.8773   45.7335 C   0  0  0  0  0  0  0  0  0  0  0  0
   36.5483   30.1217   44.7979 C   0  0  0  0  0  0  0  0  0  0  0  0
   35.3358   29.5444   45.0979 C   0  0  0  0  0  0  0  0  0  0  0  0
   34.7788   29.7298   46.3495 C   0  0  0  0  0  0  0  0  0  0  0  0
   33.2416   29.0539   46.8559 Cl  0  0  0  0  0  0  0  0  0  0  0  0
   35.4832   30.5053   47.2633 C   0  0  0  0  0  0  0  0  0  0  0  0
   39.7540   33.2190   44.5451 C   0  0  0  0  0  0  0  0  0  0  0  0
   40.9650   32.5570   44.8169 C   0  0  0  0  0  0  0  0  0  0  0  0
   40.8755   31.2738   45.4222 C   0  0  0  0  0  0  0  0  0  0  0  0
   39.6370   30.7911   45.6889 N   0  0  0  0  0  0  0  0  0  0  0  0
   38.4850   31.4803   45.4026 C   0  0  0  0  0  0  0  0  0  0  0  0
   38.5747   32.6859   44.8335 N   0  0  0  0  0  0  0  0  0  0  0  0
   34.9019   30.7138   48.6354 C   0  0  0  0  0  0  0  0  0  0  0  0
   35.2860   27.9631   49.1113 F   0  0  0  0  0  0  0  0  0  0  0  0
   35.9977   28.8816   49.8558 C   0  0  0  0  0  0  0  0  0  0  0  0
   35.8400   30.2572   49.6790 C   0  0  0  0  0  0  0  0  0  0  0  0
   36.5705   31.0994   50.4793 C   0  0  0  0  0  0  0  0  0  0  0  0
   37.4462   30.6141   51.4350 C   0  0  0  0  0  0  0  0  0  0  0  0
   37.5853   29.2211   51.5895 C   0  0  0  0  0  0  0  0  0  0  0  0
   36.8529   28.3296   50.7925 C   0  0  0  0  0  0  0  0  0  0  0  0
   37.0171   30.0003   43.8308 H   0  0  0  0  0  0  0  0  0  0  0  0
   34.7963   28.9483   44.3928 H   0  0  0  0  0  0  0  0  0  0  0  0
   39.8619   34.1935   44.0842 H   0  0  0  0  0  0  0  0  0  0  0  0
   41.9435   32.9239   44.6130 H   0  0  0  0  0  0  0  0  0  0  0  0
   41.7324   30.6677   45.6790 H   0  0  0  0  0  0  0  0  0  0  0  0
   34.7799   31.8079   48.7541 H   0  0  0  0  0  0  0  0  0  0  0  0
   33.9279   30.1707   48.7210 H   0  0  0  0  0  0  0  0  0  0  0  0
   36.4721   32.1726   50.4836 H   0  0  0  0  0  0  0  0  0  0  0  0
   38.0306   31.2686   52.0707 H   0  0  0  0  0  0  0  0  0  0  0  0
   38.2647   28.8106   52.3313 H   0  0  0  0  0  0  0  0  0  0  0  0
   36.9964   26.8875   50.9550 C   0  0  0  0  0  0  0  0  0  0  0  0
   38.2035   26.2052   51.0885 C   0  0  0  0  0  0  0  0  0  0  0  0
   39.0882   26.8065   51.0677 H   0  0  0  0  0  0  0  0  0  0  0  0
   38.2083   24.8252   51.2373 C   0  0  0  0  0  0  0  0  0  0  0  0
   36.9980   24.1630   51.2485 C   0  0  0  0  0  0  0  0  0  0  0  0
   35.7710   24.7938   51.1196 C   0  0  0  0  0  0  0  0  0  0  0  0
   34.5832   24.0767   51.1378 C   0  0  0  0  0  0  0  0  0  0  0  0
   33.3857   24.7844   51.0021 C   0  0  0  0  0  0  0  0  0  0  0  0
   33.3584   26.1728   50.8511 C   0  0  0  0  0  0  0  0  0  0  0  0
   34.5867   26.7915   50.8455 C   0  0  0  0  0  0  0  0  0  0  0  0
   35.8007   26.1679   50.9730 C   0  0  0  0  0  0  0  0  0  0  0  0
   39.1465   24.3028   51.3403 H   0  0  0  0  0  0  0  0  0  0  0  0
   36.9620   23.0692   51.3645 H   0  0  0  0  0  0  0  0  0  0  0  0
   34.5936   23.0008   51.2542 H   0  0  0  0  0  0  0  0  0  0  0  0
   32.4245   24.2475   51.0121 H   0  0  0  0  0  0  0  0  0  0  0  0
   32.4306   26.6966   50.7486 H   0  0  0  0  0  0  0  0  0  0  0  0
   34.5603   27.8661   50.7284 H   0  0  0  0  0  0  0  0  0  0  0  0
  2  8  2  0
  2  1  1  0
  3  2  1  0
  4  5  1  0
  4  3  2  0
  5  6  2  0
  6  7  1  0
  6  8  1  0
  8 15  1  0
  9 10  2  0
  9 14  1  0
 10 11  1  0
 11 12  2  0
 13 12  1  0
 13  3  1  0
 14 13  2  0
 15 18  1  0
 16 17  1  0
 17 22  2  0
 18 17  1  0
 18 19  2  0
 19 20  1  0
 20 21  2  0
 22 21  1  0
  4 23  1  0
  5 24  1  0
  9 25  1  0
 10 26  1  0
 11 27  1  0
 15 28  1  0
 15 29  1  0
 19 30  1  0
 20 31  1  0
 21 32  1  0
 33 34  2  0
 34 35  1  0
 34 36  1  0
 36 37  2  0
 37 38  1  0
 38 39  2  0
 39 40  1  0
 40 41  2  0
 41 42  1  0
 42 43  2  0
 43 33  1  0
 43 38  1  0
 36 44  1  0
 37 45  1  0
 39 46  1  0
 40 47  1  0
 41 48  1  0
 42 49  1  0
 22 33  1  0
M  ISO  8  23  14  24  14  25  14  26  14  27  14  28   8  29   8  30  14
M  ISO  3  31  14  32  14  35  15
M  END
>  <DihAtoms>  (1) 
16,21,32,33

>  <DihDeg>  (1) 
89.99873603929629

$$$$
