
     RDKit          3D

 36 39  0  0  0  0  0  0  0  0999 V2000
   37.3787   31.3544   49.2119 C   0  0  0  0  0  0  0  0  0  0  0  0
   37.7196   32.6557   49.5895 C   0  0  0  0  0  0  0  0  0  0  0  0
   38.5880   33.3368   48.7647 C   0  0  0  0  0  0  0  0  0  0  0  0
   39.0625   32.7259   47.6455 N   0  0  0  0  0  0  0  0  0  0  0  0
   38.7079   31.4578   47.3101 C   0  0  0  0  0  0  0  0  0  0  0  0
   37.8377   30.7485   48.1219 N   0  0  0  0  0  0  0  0  0  0  0  0
   36.3905   30.6101   50.0499 C   0  0  0  0  0  0  0  0  0  0  0  0
   36.2757   29.1708   50.0406 C   0  0  0  0  0  0  0  0  0  0  0  0
   37.0327   29.8098   51.1832 C   0  0  0  0  0  0  0  0  0  0  0  0
   39.1738   30.8022   46.1067 C   0  0  0  0  0  0  0  0  0  0  0  0
   37.3065   33.0839   50.4924 H   0  0  0  0  0  0  0  0  0  0  0  0
   38.8854   34.3472   49.0105 H   0  0  0  0  0  0  0  0  0  0  0  0
   35.5512   31.2864   50.3563 H   0  0  0  0  0  0  0  0  0  0  0  0
   36.9490   28.6305   49.3231 H   0  0  0  0  0  0  0  0  0  0  0  0
   35.3227   28.6673   50.2242 H   0  0  0  0  0  0  0  0  0  0  0  0
   38.1228   29.7172   51.2293 H   0  0  0  0  0  0  0  0  0  0  0  0
   36.4801   29.8828   52.1342 H   0  0  0  0  0  0  0  0  0  0  0  0
   39.3558   31.5929   45.3215 H   0  0  0  0  0  0  0  0  0  0  0  0
   38.4265   30.1237   45.6925 H   0  0  0  0  0  0  0  0  0  0  0  0
   40.4348   30.0466   46.2565 C   0  0  0  0  0  0  0  0  0  0  0  0
   40.4100   29.0262   47.1774 C   0  0  0  0  0  0  0  0  0  0  0  0
   39.5240   28.7828   47.7631 H   0  0  0  0  0  0  0  0  0  0  0  0
   41.5125   28.2336   47.4261 C   0  0  0  0  0  0  0  0  0  0  0  0
   42.6866   28.4847   46.7137 C   0  0  0  0  0  0  0  0  0  0  0  0
   42.7257   29.5032   45.7886 C   0  0  0  0  0  0  0  0  0  0  0  0
   43.8803   29.7904   45.0521 C   0  0  0  0  0  0  0  0  0  0  0  0
   43.9202   30.8157   44.1205 C   0  0  0  0  0  0  0  0  0  0  0  0
   42.7562   31.5377   43.9605 C   0  0  0  0  0  0  0  0  0  0  0  0
   41.5752   31.3237   44.6427 C   0  0  0  0  0  0  0  0  0  0  0  0
   41.6119   30.2753   45.5628 C   0  0  0  0  0  0  0  0  0  0  0  0
   41.4691   27.4307   48.1606 H   0  0  0  0  0  0  0  0  0  0  0  0
   43.5730   27.8681   46.8952 H   0  0  0  0  0  0  0  0  0  0  0  0
   44.7570   29.1650   45.2456 H   0  0  0  0  0  0  0  0  0  0  0  0
   44.8129   31.0310   43.5572 H   0  0  0  0  0  0  0  0  0  0  0  0
   42.7796   32.3537   43.2227 H   0  0  0  0  0  0  0  0  0  0  0  0
   40.6960   31.9269   44.4699 H   0  0  0  0  0  0  0  0  0  0  0  0
  1  2  2  0
  1  7  1  0
  3  2  1  0
  4  3  2  0
  5  4  1  0
  5  6  2  0
  6  1  1  0
  7  9  1  0
  8  7  1  0
  8  9  1  0
 10  5  1  0
  2 11  1  0
  3 12  1  0
  7 13  1  0
  8 14  1  0
  8 15  1  0
  9 16  1  0
  9 17  1  0
 10 18  1  0
 10 19  1  0
 20 21  2  0
 21 22  1  0
 21 23  1  0
 23 24  2  0
 24 25  1  0
 25 26  2  0
 26 27  1  0
 27 28  2  0
 28 29  1  0
 29 30  2  0
 30 20  1  0
 30 25  1  0
 23 31  1  0
 24 32  1  0
 26 33  1  0
 27 34  1  0
 28 35  1  0
 29 36  1  0
 10 20  1  0
M  ISO  8  11  14  12  14  13  13  14  13  15  13  16  13  17  13  18   8
M  ISO  2  19   8  22  15
M  END
>  <DihAtoms>  (1) 
4,9,19,20

>  <DihDeg>  (1) 
-0.007492540687199156

$$$$
