
     RDKit          3D

 52 57  0  0  0  0  0  0  0  0999 V2000
   35.8446   28.9116   49.3712 C   0  0  0  0  0  0  0  0  0  0  0  0
   35.8540   30.0930   48.5824 C   0  0  0  0  0  0  0  0  0  0  0  0
   34.7761   30.3101   47.7114 C   0  0  0  0  0  0  0  0  0  0  0  0
   33.7656   29.4057   47.6316 N   0  0  0  0  0  0  0  0  0  0  0  0
   33.8170   28.2855   48.4145 C   0  0  0  0  0  0  0  0  0  0  0  0
   34.8304   28.0404   49.2677 N   0  0  0  0  0  0  0  0  0  0  0  0
   32.7351   27.3379   48.2720 N   0  0  0  0  0  0  0  0  0  0  0  0
   31.3621   27.6441   48.5376 C   0  0  0  0  0  0  0  0  0  0  0  0
   30.6159   26.4367   48.0577 C   0  0  0  0  0  0  0  0  0  0  0  0
   31.5857   25.6248   47.2245 C   0  0  0  0  0  0  0  0  0  0  0  0
   32.9034   25.9404   47.8315 C   0  0  0  0  0  0  0  0  0  0  0  0
   36.8349   31.1192   48.5372 C   0  0  0  0  0  0  0  0  0  0  0  0
   36.7880   32.0097   49.5606 N   0  0  0  0  0  0  0  0  0  0  0  0
   37.6742   33.0225   49.6013 C   0  0  0  0  0  0  0  0  0  0  0  0
   38.6470   33.2325   48.6667 N   0  0  0  0  0  0  0  0  0  0  0  0
   38.7190   32.3709   47.6458 C   0  0  0  0  0  0  0  0  0  0  0  0
   39.6734   32.4780   46.6462 C   0  0  0  0  0  0  0  0  0  0  0  0
   39.7294   31.5512   45.6006 C   0  0  0  0  0  0  0  0  0  0  0  0
   38.8043   30.5014   45.5685 C   0  0  0  0  0  0  0  0  0  0  0  0
   37.8639   30.4314   46.5879 C   0  0  0  0  0  0  0  0  0  0  0  0
   37.8170   31.3391   47.6031 C   0  0  0  0  0  0  0  0  0  0  0  0
   36.7048   28.8213   50.0172 H   0  0  0  0  0  0  0  0  0  0  0  0
   34.6371   31.1401   47.0713 H   0  0  0  0  0  0  0  0  0  0  0  0
   31.1930   27.8490   49.6017 H   0  0  0  0  0  0  0  0  0  0  0  0
   31.0120   28.5058   47.9001 H   0  0  0  0  0  0  0  0  0  0  0  0
   30.3676   25.8216   48.9552 H   0  0  0  0  0  0  0  0  0  0  0  0
   29.6840   26.6789   47.5183 H   0  0  0  0  0  0  0  0  0  0  0  0
   31.3993   24.5371   47.3274 H   0  0  0  0  0  0  0  0  0  0  0  0
   31.5311   25.9845   46.1769 H   0  0  0  0  0  0  0  0  0  0  0  0
   33.7694   25.8662   47.1581 H   0  0  0  0  0  0  0  0  0  0  0  0
   33.0503   25.3249   48.7478 H   0  0  0  0  0  0  0  0  0  0  0  0
   37.6781   33.7660   50.4040 H   0  0  0  0  0  0  0  0  0  0  0  0
   40.3473   33.3235   46.7549 H   0  0  0  0  0  0  0  0  0  0  0  0
   40.5152   31.7510   44.8936 H   0  0  0  0  0  0  0  0  0  0  0  0
   39.0259   29.9143   44.6919 H   0  0  0  0  0  0  0  0  0  0  0  0
   37.0815   29.2792   46.1713 C   0  0  0  0  0  0  0  0  0  0  0  0
   36.2826   29.0756   45.0575 C   0  0  0  0  0  0  0  0  0  0  0  0
   36.3072   29.9533   44.3901 H   0  0  0  0  0  0  0  0  0  0  0  0
   35.5482   27.9471   44.7916 C   0  0  0  0  0  0  0  0  0  0  0  0
   35.6159   26.9317   45.7178 C   0  0  0  0  0  0  0  0  0  0  0  0
   36.3638   26.9851   46.8718 C   0  0  0  0  0  0  0  0  0  0  0  0
   36.4352   25.9777   47.8054 C   0  0  0  0  0  0  0  0  0  0  0  0
   37.1955   26.0961   48.9348 C   0  0  0  0  0  0  0  0  0  0  0  0
   37.9124   27.2409   49.1606 C   0  0  0  0  0  0  0  0  0  0  0  0
   37.8299   28.2363   48.2187 C   0  0  0  0  0  0  0  0  0  0  0  0
   37.0647   28.1595   47.0472 C   0  0  0  0  0  0  0  0  0  0  0  0
   34.9730   27.9274   43.8873 H   0  0  0  0  0  0  0  0  0  0  0  0
   35.0399   26.0392   45.5148 H   0  0  0  0  0  0  0  0  0  0  0  0
   35.8491   25.0829   47.5874 H   0  0  0  0  0  0  0  0  0  0  0  0
   37.2366   25.2905   49.6557 H   0  0  0  0  0  0  0  0  0  0  0  0
   38.5147   27.3439   50.0482 H   0  0  0  0  0  0  0  0  0  0  0  0
   38.4172   29.1254   48.4432 H   0  0  0  0  0  0  0  0  0  0  0  0
  2  1  2  0
  3  2  1  0
  4  3  2  0
  4  5  1  0
  5  6  2  0
  6  1  1  0
  7  5  1  0
  7  8  1  0
  9  8  1  0
 10 11  1  0
 10  9  1  0
 11  7  1  0
 12  2  1  0
 12 13  2  0
 13 14  1  0
 15 14  2  0
 16 15  1  0
 17 16  2  0
 18 17  1  0
 19 18  2  0
 19 20  1  0
 20 21  2  0
 21 16  1  0
 21 12  1  0
  1 22  1  0
  3 23  1  0
  8 24  1  0
  8 25  1  0
  9 26  1  0
  9 27  1  0
 10 28  1  0
 10 29  1  0
 11 30  1  0
 11 31  1  0
 14 32  1  0
 17 33  1  0
 18 34  1  0
 19 35  1  0
 36 37  2  0
 37 38  1  0
 37 39  1  0
 39 40  2  0
 40 41  1  0
 41 42  2  0
 42 43  1  0
 43 44  2  0
 44 45  1  0
 45 46  2  0
 46 36  1  0
 46 41  1  0
 39 47  1  0
 40 48  1  0
 42 49  1  0
 43 50  1  0
 44 51  1  0
 45 52  1  0
 20 36  1  0
M  ISO  8  22  14  23  14  24  13  25  13  26  13  27  13  28  13  29  13
M  ISO  7  30  13  31  13  32  14  33  14  34  14  35  14  38  15
M  END
>  <DihAtoms>  (1) 
18,19,35,36

>  <DihDeg>  (1) 
100.61765552872367

$$$$
