
     RDKit          3D

 43 47  0  0  0  0  0  0  0  0999 V2000
   38.9102   30.8953   45.7682 C   0  0  0  0  0  0  0  0  0  0  0  0
   40.1150   31.5386   46.0186 C   0  0  0  0  0  0  0  0  0  0  0  0
   40.9521   31.4757   44.9069 C   0  0  0  0  0  0  0  0  0  0  0  0
   40.1955   30.7810   44.0163 N   0  0  0  0  0  0  0  0  0  0  0  0
   39.0208   30.4434   44.5032 N   0  0  0  0  0  0  0  0  0  0  0  0
   37.7874   30.7522   46.6738 C   0  0  0  0  0  0  0  0  0  0  0  0
   38.0114   30.9730   48.0611 C   0  0  0  0  0  0  0  0  0  0  0  0
   36.9146   30.8297   48.9114 C   0  0  0  0  0  0  0  0  0  0  0  0
   35.7141   30.4930   48.3765 N   0  0  0  0  0  0  0  0  0  0  0  0
   35.5324   30.2898   47.0543 C   0  0  0  0  0  0  0  0  0  0  0  0
   36.5791   30.4229   46.2139 N   0  0  0  0  0  0  0  0  0  0  0  0
   37.1289   31.0576   50.3742 C   0  0  0  0  0  0  0  0  0  0  0  0
   36.6036   32.2990   50.6324 F   0  0  0  0  0  0  0  0  0  0  0  0
   36.4678   30.1092   51.1547 F   0  0  0  0  0  0  0  0  0  0  0  0
   38.4768   31.0671   50.7062 F   0  0  0  0  0  0  0  0  0  0  0  0
   40.5538   30.4149   42.6519 C   0  0  0  0  0  0  0  0  0  0  0  0
   40.1749   31.1883   41.5495 C   0  0  0  0  0  0  0  0  0  0  0  0
   40.5439   30.8064   40.2973 C   0  0  0  0  0  0  0  0  0  0  0  0
   41.3016   29.6353   40.1044 C   0  0  0  0  0  0  0  0  0  0  0  0
   41.4771   29.0803   41.8591 S   0  0  0  0  0  0  0  0  0  0  0  0
   40.3839   32.0275   46.9456 H   0  0  0  0  0  0  0  0  0  0  0  0
   41.9316   31.8544   44.7466 H   0  0  0  0  0  0  0  0  0  0  0  0
   38.9934   31.2402   48.4322 H   0  0  0  0  0  0  0  0  0  0  0  0
   34.5589   30.0221   46.6645 H   0  0  0  0  0  0  0  0  0  0  0  0
   39.5780   32.1022   41.7141 H   0  0  0  0  0  0  0  0  0  0  0  0
   40.2890   31.4167   39.4610 H   0  0  0  0  0  0  0  0  0  0  0  0
   41.9349   28.8860   39.1321 C   0  0  0  0  0  0  0  0  0  0  0  0
   43.1688   28.2870   39.4400 C   0  0  0  0  0  0  0  0  0  0  0  0
   43.6862   28.3746   40.4009 H   0  0  0  0  0  0  0  0  0  0  0  0
   43.8878   27.5099   38.5585 C   0  0  0  0  0  0  0  0  0  0  0  0
   43.3871   27.2969   37.3060 C   0  0  0  0  0  0  0  0  0  0  0  0
   42.1899   27.8337   36.9060 C   0  0  0  0  0  0  0  0  0  0  0  0
   41.7110   27.5663   35.6450 C   0  0  0  0  0  0  0  0  0  0  0  0
   40.4895   28.0777   35.2564 C   0  0  0  0  0  0  0  0  0  0  0  0
   39.8193   28.8433   36.1944 C   0  0  0  0  0  0  0  0  0  0  0  0
   40.3424   29.0820   37.4428 C   0  0  0  0  0  0  0  0  0  0  0  0
   41.5496   28.5892   37.8484 C   0  0  0  0  0  0  0  0  0  0  0  0
   44.8300   27.0581   38.8022 H   0  0  0  0  0  0  0  0  0  0  0  0
   43.9461   26.6912   36.6113 H   0  0  0  0  0  0  0  0  0  0  0  0
   42.3210   26.9534   34.9919 H   0  0  0  0  0  0  0  0  0  0  0  0
   40.1983   27.8178   34.2575 H   0  0  0  0  0  0  0  0  0  0  0  0
   38.8560   29.2116   35.8088 H   0  0  0  0  0  0  0  0  0  0  0  0
   39.6761   29.6547   38.0131 H   0  0  0  0  0  0  0  0  0  0  0  0
  1  2  1  0
  1  6  1  0
  3  2  2  0
  4  5  1  0
  4  3  1  0
  5  1  2  0
  6  7  2  0
  7  8  1  0
  8 12  1  0
  9  8  2  0
 10  9  1  0
 11  6  1  0
 11 10  2  0
 12 13  1  0
 12 15  1  0
 12 14  1  0
 16  4  1  0
 17 16  2  0
 18 17  1  0
 19 18  2  0
 19 20  1  0
 20 16  1  0
  2 21  1  0
  3 22  1  0
  7 23  1  0
 10 24  1  0
 17 25  1  0
 18 26  1  0
 27 28  2  0
 28 29  1  0
 28 30  1  0
 30 31  2  0
 31 32  1  0
 32 33  2  0
 33 34  1  0
 34 35  2  0
 35 36  1  0
 36 37  2  0
 37 27  1  0
 37 32  1  0
 30 38  1  0
 31 39  1  0
 33 40  1  0
 34 41  1  0
 35 42  1  0
 36 43  1  0
 19 27  1  0
M  ISO  7  21  14  22  14  23  14  24  14  25  14  26  14  29  15
M  END
>  <DihAtoms>  (1) 
17,18,26,27

>  <DihDeg>  (1) 
156.2694294008932

$$$$
