
     RDKit          3D

 43 47  0  0  0  0  0  0  0  0999 V2000
   38.9102   30.8953   45.7682 C   0  0  0  0  0  0  0  0  0  0  0  0
   40.1150   31.5386   46.0186 C   0  0  0  0  0  0  0  0  0  0  0  0
   40.9521   31.4757   44.9069 C   0  0  0  0  0  0  0  0  0  0  0  0
   40.1955   30.7810   44.0163 N   0  0  0  0  0  0  0  0  0  0  0  0
   39.0208   30.4434   44.5032 N   0  0  0  0  0  0  0  0  0  0  0  0
   37.7874   30.7522   46.6738 C   0  0  0  0  0  0  0  0  0  0  0  0
   38.0114   30.9730   48.0611 C   0  0  0  0  0  0  0  0  0  0  0  0
   36.9146   30.8297   48.9114 C   0  0  0  0  0  0  0  0  0  0  0  0
   35.7141   30.4930   48.3765 N   0  0  0  0  0  0  0  0  0  0  0  0
   35.5324   30.2898   47.0543 C   0  0  0  0  0  0  0  0  0  0  0  0
   36.5791   30.4229   46.2139 N   0  0  0  0  0  0  0  0  0  0  0  0
   37.1289   31.0576   50.3742 C   0  0  0  0  0  0  0  0  0  0  0  0
   36.6036   32.2990   50.6324 F   0  0  0  0  0  0  0  0  0  0  0  0
   36.4678   30.1092   51.1547 F   0  0  0  0  0  0  0  0  0  0  0  0
   38.4768   31.0671   50.7062 F   0  0  0  0  0  0  0  0  0  0  0  0
   40.5538   30.4149   42.6519 C   0  0  0  0  0  0  0  0  0  0  0  0
   40.1749   31.1883   41.5495 C   0  0  0  0  0  0  0  0  0  0  0  0
   40.5439   30.8064   40.2973 C   0  0  0  0  0  0  0  0  0  0  0  0
   41.3016   29.6353   40.1044 C   0  0  0  0  0  0  0  0  0  0  0  0
   41.4771   29.0803   41.8591 S   0  0  0  0  0  0  0  0  0  0  0  0
   40.3839   32.0275   46.9456 H   0  0  0  0  0  0  0  0  0  0  0  0
   41.9316   31.8544   44.7466 H   0  0  0  0  0  0  0  0  0  0  0  0
   38.9934   31.2402   48.4322 H   0  0  0  0  0  0  0  0  0  0  0  0
   34.5589   30.0221   46.6645 H   0  0  0  0  0  0  0  0  0  0  0  0
   39.5780   32.1022   41.7141 H   0  0  0  0  0  0  0  0  0  0  0  0
   40.2890   31.4167   39.4610 H   0  0  0  0  0  0  0  0  0  0  0  0
   41.9349   28.8860   39.1321 C   0  0  0  0  0  0  0  0  0  0  0  0
   42.0062   29.3995   37.8254 C   0  0  0  0  0  0  0  0  0  0  0  0
   41.5843   30.3573   37.5039 H   0  0  0  0  0  0  0  0  0  0  0  0
   42.6200   28.7507   36.7765 C   0  0  0  0  0  0  0  0  0  0  0  0
   43.2005   27.5352   37.0009 C   0  0  0  0  0  0  0  0  0  0  0  0
   43.1892   26.9472   38.2400 C   0  0  0  0  0  0  0  0  0  0  0  0
   43.8137   25.7361   38.4250 C   0  0  0  0  0  0  0  0  0  0  0  0
   43.8325   25.1628   39.6802 C   0  0  0  0  0  0  0  0  0  0  0  0
   43.2027   25.8725   40.6876 C   0  0  0  0  0  0  0  0  0  0  0  0
   42.5914   27.0805   40.4502 C   0  0  0  0  0  0  0  0  0  0  0  0
   42.5577   27.6656   39.2168 C   0  0  0  0  0  0  0  0  0  0  0  0
   42.6678   29.1500   35.7817 H   0  0  0  0  0  0  0  0  0  0  0  0
   43.6807   27.0220   36.1835 H   0  0  0  0  0  0  0  0  0  0  0  0
   44.2759   25.2688   37.5634 H   0  0  0  0  0  0  0  0  0  0  0  0
   44.3408   24.2197   39.7285 H   0  0  0  0  0  0  0  0  0  0  0  0
   43.2630   25.3503   41.6549 H   0  0  0  0  0  0  0  0  0  0  0  0
   42.1997   27.4712   41.3397 H   0  0  0  0  0  0  0  0  0  0  0  0
  1  2  1  0
  1  6  1  0
  3  2  2  0
  4  5  1  0
  4  3  1  0
  5  1  2  0
  6  7  2  0
  7  8  1  0
  8 12  1  0
  9  8  2  0
 10  9  1  0
 11  6  1  0
 11 10  2  0
 12 13  1  0
 12 15  1  0
 12 14  1  0
 16  4  1  0
 17 16  2  0
 18 17  1  0
 19 18  2  0
 19 20  1  0
 20 16  1  0
  2 21  1  0
  3 22  1  0
  7 23  1  0
 10 24  1  0
 17 25  1  0
 18 26  1  0
 27 28  2  0
 28 29  1  0
 28 30  1  0
 30 31  2  0
 31 32  1  0
 32 33  2  0
 33 34  1  0
 34 35  2  0
 35 36  1  0
 36 37  2  0
 37 27  1  0
 37 32  1  0
 30 38  1  0
 31 39  1  0
 33 40  1  0
 34 41  1  0
 35 42  1  0
 36 43  1  0
 19 27  1  0
M  ISO  7  21  14  22  14  23  14  24  14  25  14  26  14  29  15
M  END
>  <DihAtoms>  (1) 
17,18,26,27

>  <DihDeg>  (1) 
156.2694294008932

$$$$
