
     RDKit          3D

 36 39  0  0  0  0  0  0  0  0999 V2000
   38.0101   33.1083   49.4771 C   0  0  0  0  0  0  0  0  0  0  0  0
   38.9717   33.2052   48.4642 C   0  0  0  0  0  0  0  0  0  0  0  0
   38.9474   32.2173   47.4659 C   0  0  0  0  0  0  0  0  0  0  0  0
   38.0168   31.2348   47.5226 N   0  0  0  0  0  0  0  0  0  0  0  0
   37.1080   31.1821   48.5201 C   0  0  0  0  0  0  0  0  0  0  0  0
   37.0953   32.1195   49.5090 N   0  0  0  0  0  0  0  0  0  0  0  0
   36.1008   30.1391   48.6005 C   0  0  0  0  0  0  0  0  0  0  0  0
   35.2809   29.9454   47.5269 C   0  0  0  0  0  0  0  0  0  0  0  0
   34.2935   28.9868   47.4967 C   0  0  0  0  0  0  0  0  0  0  0  0
   34.1546   28.1993   48.6285 C   0  0  0  0  0  0  0  0  0  0  0  0
   34.9639   28.3593   49.7426 C   0  0  0  0  0  0  0  0  0  0  0  0
   35.9419   29.3388   49.7199 C   0  0  0  0  0  0  0  0  0  0  0  0
   37.9545   33.8275   50.2893 H   0  0  0  0  0  0  0  0  0  0  0  0
   39.6574   34.0319   48.5290 H   0  0  0  0  0  0  0  0  0  0  0  0
   39.6971   32.3064   46.6909 H   0  0  0  0  0  0  0  0  0  0  0  0
   35.4032   30.5748   46.6411 H   0  0  0  0  0  0  0  0  0  0  0  0
   33.6318   28.8114   46.6630 H   0  0  0  0  0  0  0  0  0  0  0  0
   33.4130   27.4020   48.7409 H   0  0  0  0  0  0  0  0  0  0  0  0
   34.8958   27.7722   50.6478 H   0  0  0  0  0  0  0  0  0  0  0  0
   36.8761   29.6326   50.8141 C   0  0  0  0  0  0  0  0  0  0  0  0
   36.6337   28.8380   51.9411 C   0  0  0  0  0  0  0  0  0  0  0  0
   35.8511   28.0908   52.0090 H   0  0  0  0  0  0  0  0  0  0  0  0
   37.4586   29.0283   53.0442 C   0  0  0  0  0  0  0  0  0  0  0  0
   38.4790   29.9585   53.0434 C   0  0  0  0  0  0  0  0  0  0  0  0
   38.6713   30.7125   51.9066 C   0  0  0  0  0  0  0  0  0  0  0  0
   39.6684   31.6698   51.8102 C   0  0  0  0  0  0  0  0  0  0  0  0
   39.8416   32.4097   50.6666 C   0  0  0  0  0  0  0  0  0  0  0  0
   39.0319   32.2392   49.5522 C   0  0  0  0  0  0  0  0  0  0  0  0
   38.0212   31.2813   49.6248 C   0  0  0  0  0  0  0  0  0  0  0  0
   37.8772   30.5649   50.7751 C   0  0  0  0  0  0  0  0  0  0  0  0
   37.3362   28.4594   53.9428 H   0  0  0  0  0  0  0  0  0  0  0  0
   39.1250   30.1158   53.8896 H   0  0  0  0  0  0  0  0  0  0  0  0
   40.3175   31.8375   52.6429 H   0  0  0  0  0  0  0  0  0  0  0  0
   40.6113   33.1611   50.5677 H   0  0  0  0  0  0  0  0  0  0  0  0
   39.1342   32.7975   48.6381 H   0  0  0  0  0  0  0  0  0  0  0  0
   37.3861   31.1303   48.7849 H   0  0  0  0  0  0  0  0  0  0  0  0
  1  6  2  0
  2  1  1  0
  3  4  1  0
  3  2  2  0
  4  5  2  0
  5  7  1  0
  5  6  1  0
  7 12  1  0
  8  7  2  0
  9  8  1  0
  9 10  2  0
 10 11  1  0
 12 11  2  0
  1 13  1  0
  2 14  1  0
  3 15  1  0
  8 16  1  0
  9 17  1  0
 10 18  1  0
 11 19  1  0
 20 21  2  0
 21 22  1  0
 21 23  1  0
 23 24  2  0
 24 25  1  0
 25 26  2  0
 26 27  1  0
 27 28  2  0
 28 29  1  0
 29 30  2  0
 30 20  1  0
 30 25  1  0
 23 31  1  0
 24 32  1  0
 26 33  1  0
 27 34  1  0
 28 35  1  0
 29 36  1  0
 12 20  1  0
M  ISO  8  13  14  14  14  15  14  16  14  17  14  18  14  19  14  22  15
M  END
>  <DihAtoms>  (1) 
6,11,19,20

>  <DihDeg>  (1) 
-62.69208689547476

$$$$
