
     RDKit          3D

 36 39  0  0  0  0  0  0  0  0999 V2000
   37.3787   31.3544   49.2119 C   0  0  0  0  0  0  0  0  0  0  0  0
   37.7196   32.6557   49.5895 C   0  0  0  0  0  0  0  0  0  0  0  0
   38.5880   33.3368   48.7647 C   0  0  0  0  0  0  0  0  0  0  0  0
   39.0625   32.7259   47.6455 N   0  0  0  0  0  0  0  0  0  0  0  0
   38.7079   31.4578   47.3101 C   0  0  0  0  0  0  0  0  0  0  0  0
   37.8377   30.7485   48.1219 N   0  0  0  0  0  0  0  0  0  0  0  0
   36.3905   30.6101   50.0499 C   0  0  0  0  0  0  0  0  0  0  0  0
   36.2757   29.1708   50.0406 C   0  0  0  0  0  0  0  0  0  0  0  0
   37.0327   29.8098   51.1832 C   0  0  0  0  0  0  0  0  0  0  0  0
   39.1738   30.8022   46.1067 C   0  0  0  0  0  0  0  0  0  0  0  0
   37.3065   33.0839   50.4924 H   0  0  0  0  0  0  0  0  0  0  0  0
   38.8854   34.3472   49.0105 H   0  0  0  0  0  0  0  0  0  0  0  0
   35.5512   31.2864   50.3563 H   0  0  0  0  0  0  0  0  0  0  0  0
   36.9490   28.6305   49.3231 H   0  0  0  0  0  0  0  0  0  0  0  0
   35.3227   28.6673   50.2242 H   0  0  0  0  0  0  0  0  0  0  0  0
   38.1228   29.7172   51.2293 H   0  0  0  0  0  0  0  0  0  0  0  0
   36.4801   29.8828   52.1342 H   0  0  0  0  0  0  0  0  0  0  0  0
   39.3558   31.5929   45.3215 H   0  0  0  0  0  0  0  0  0  0  0  0
   38.4265   30.1237   45.6925 H   0  0  0  0  0  0  0  0  0  0  0  0
   40.4348   30.0466   46.2565 C   0  0  0  0  0  0  0  0  0  0  0  0
   41.1590   30.3189   47.3928 C   0  0  0  0  0  0  0  0  0  0  0  0
   40.8332   31.0424   48.1397 H   0  0  0  0  0  0  0  0  0  0  0  0
   42.3569   29.6911   47.6690 C   0  0  0  0  0  0  0  0  0  0  0  0
   42.8404   28.7502   46.7580 C   0  0  0  0  0  0  0  0  0  0  0  0
   42.1257   28.4677   45.6160 C   0  0  0  0  0  0  0  0  0  0  0  0
   42.5720   27.5323   44.6757 C   0  0  0  0  0  0  0  0  0  0  0  0
   41.8527   27.2475   43.5258 C   0  0  0  0  0  0  0  0  0  0  0  0
   40.6712   27.9390   43.3606 C   0  0  0  0  0  0  0  0  0  0  0  0
   40.1569   28.8759   44.2346 C   0  0  0  0  0  0  0  0  0  0  0  0
   40.9361   29.1090   45.3685 C   0  0  0  0  0  0  0  0  0  0  0  0
   42.9132   29.9232   48.5761 H   0  0  0  0  0  0  0  0  0  0  0  0
   43.7886   28.2402   46.9573 H   0  0  0  0  0  0  0  0  0  0  0  0
   43.5212   27.0320   44.8901 H   0  0  0  0  0  0  0  0  0  0  0  0
   42.2027   26.5261   42.8063 H   0  0  0  0  0  0  0  0  0  0  0  0
   40.0940   27.7187   42.4501 H   0  0  0  0  0  0  0  0  0  0  0  0
   39.2224   29.3836   44.0460 H   0  0  0  0  0  0  0  0  0  0  0  0
  1  2  2  0
  1  7  1  0
  3  2  1  0
  4  3  2  0
  5  4  1  0
  5  6  2  0
  6  1  1  0
  7  9  1  0
  8  7  1  0
  8  9  1  0
 10  5  1  0
  2 11  1  0
  3 12  1  0
  7 13  1  0
  8 14  1  0
  8 15  1  0
  9 16  1  0
  9 17  1  0
 10 18  1  0
 10 19  1  0
 20 21  2  0
 21 22  1  0
 21 23  1  0
 23 24  2  0
 24 25  1  0
 25 26  2  0
 26 27  1  0
 27 28  2  0
 28 29  1  0
 29 30  2  0
 30 20  1  0
 30 25  1  0
 23 31  1  0
 24 32  1  0
 26 33  1  0
 27 34  1  0
 28 35  1  0
 29 36  1  0
 10 20  1  0
M  ISO  8  11  14  12  14  13  13  14  13  15  13  16  13  17  13  18   8
M  ISO  2  19   8  22  15
M  END
>  <DihAtoms>  (1) 
4,9,19,20

>  <DihDeg>  (1) 
-0.007492540687199156

$$$$
