
     RDKit          3D

 36 39  0  0  0  0  0  0  0  0999 V2000
   38.0101   33.1083   49.4771 C   0  0  0  0  0  0  0  0  0  0  0  0
   38.9717   33.2052   48.4642 C   0  0  0  0  0  0  0  0  0  0  0  0
   38.9474   32.2173   47.4659 C   0  0  0  0  0  0  0  0  0  0  0  0
   38.0168   31.2348   47.5226 N   0  0  0  0  0  0  0  0  0  0  0  0
   37.1080   31.1821   48.5201 C   0  0  0  0  0  0  0  0  0  0  0  0
   37.0953   32.1195   49.5090 N   0  0  0  0  0  0  0  0  0  0  0  0
   36.1008   30.1391   48.6005 C   0  0  0  0  0  0  0  0  0  0  0  0
   35.2809   29.9454   47.5269 C   0  0  0  0  0  0  0  0  0  0  0  0
   34.2935   28.9868   47.4967 C   0  0  0  0  0  0  0  0  0  0  0  0
   34.1546   28.1993   48.6285 C   0  0  0  0  0  0  0  0  0  0  0  0
   34.9639   28.3593   49.7426 C   0  0  0  0  0  0  0  0  0  0  0  0
   35.9419   29.3388   49.7199 C   0  0  0  0  0  0  0  0  0  0  0  0
   37.9545   33.8275   50.2893 H   0  0  0  0  0  0  0  0  0  0  0  0
   39.6574   34.0319   48.5290 H   0  0  0  0  0  0  0  0  0  0  0  0
   39.6971   32.3064   46.6909 H   0  0  0  0  0  0  0  0  0  0  0  0
   35.4032   30.5748   46.6411 H   0  0  0  0  0  0  0  0  0  0  0  0
   33.6318   28.8114   46.6630 H   0  0  0  0  0  0  0  0  0  0  0  0
   33.4130   27.4020   48.7409 H   0  0  0  0  0  0  0  0  0  0  0  0
   34.8958   27.7722   50.6478 H   0  0  0  0  0  0  0  0  0  0  0  0
   36.8761   29.6326   50.8141 C   0  0  0  0  0  0  0  0  0  0  0  0
   36.2143   30.0653   51.9696 C   0  0  0  0  0  0  0  0  0  0  0  0
   35.1393   30.1745   52.0573 H   0  0  0  0  0  0  0  0  0  0  0  0
   36.9990   30.3744   53.0751 C   0  0  0  0  0  0  0  0  0  0  0  0
   38.3751   30.2641   53.0500 C   0  0  0  0  0  0  0  0  0  0  0  0
   38.9722   29.8333   51.8857 C   0  0  0  0  0  0  0  0  0  0  0  0
   40.3451   29.6909   51.7638 C   0  0  0  0  0  0  0  0  0  0  0  0
   40.9184   29.2595   50.5931 C   0  0  0  0  0  0  0  0  0  0  0  0
   40.1578   28.9448   49.4755 C   0  0  0  0  0  0  0  0  0  0  0  0
   38.7734   29.0800   49.5737 C   0  0  0  0  0  0  0  0  0  0  0  0
   38.2377   29.5106   50.7504 C   0  0  0  0  0  0  0  0  0  0  0  0
   36.5670   30.7119   53.9947 H   0  0  0  0  0  0  0  0  0  0  0  0
   38.9942   30.4995   53.8982 H   0  0  0  0  0  0  0  0  0  0  0  0
   40.9730   29.9214   52.5978 H   0  0  0  0  0  0  0  0  0  0  0  0
   41.9854   29.1407   50.4740 H   0  0  0  0  0  0  0  0  0  0  0  0
   40.5672   28.6038   48.5408 H   0  0  0  0  0  0  0  0  0  0  0  0
   38.1668   28.8456   48.7319 H   0  0  0  0  0  0  0  0  0  0  0  0
  1  6  2  0
  2  1  1  0
  3  4  1  0
  3  2  2  0
  4  5  2  0
  5  7  1  0
  5  6  1  0
  7 12  1  0
  8  7  2  0
  9  8  1  0
  9 10  2  0
 10 11  1  0
 12 11  2  0
  1 13  1  0
  2 14  1  0
  3 15  1  0
  8 16  1  0
  9 17  1  0
 10 18  1  0
 11 19  1  0
 20 21  2  0
 21 22  1  0
 21 23  1  0
 23 24  2  0
 24 25  1  0
 25 26  2  0
 26 27  1  0
 27 28  2  0
 28 29  1  0
 29 30  2  0
 30 20  1  0
 30 25  1  0
 23 31  1  0
 24 32  1  0
 26 33  1  0
 27 34  1  0
 28 35  1  0
 29 36  1  0
 12 20  1  0
M  ISO  8  13  14  14  14  15  14  16  14  17  14  18  14  19  14  22  15
M  END
>  <DihAtoms>  (1) 
6,11,19,20

>  <DihDeg>  (1) 
-62.69208689547476

$$$$
