
     RDKit          3D

 32 34  0  0  0  0  0  0  0  0999 V2000
   37.3837   30.2278   51.4009 C   0  0  0  0  0  0  0  0  0  0  0  0
   38.0949   30.8898   50.3830 C   0  0  0  0  0  0  0  0  0  0  0  0
   37.7392   30.6025   49.0789 C   0  0  0  0  0  0  0  0  0  0  0  0
   36.7298   29.7026   48.8559 N   0  0  0  0  0  0  0  0  0  0  0  0
   36.0732   29.0898   49.8526 C   0  0  0  0  0  0  0  0  0  0  0  0
   36.4001   29.3525   51.1322 N   0  0  0  0  0  0  0  0  0  0  0  0
   38.3852   31.2127   47.8753 C   0  0  0  0  0  0  0  0  0  0  0  0
   38.7198   32.6722   48.1830 C   0  0  0  0  0  0  0  0  0  0  0  0
   37.6554   30.4466   52.4242 H   0  0  0  0  0  0  0  0  0  0  0  0
   38.8853   31.5947   50.5612 H   0  0  0  0  0  0  0  0  0  0  0  0
   35.3011   28.4047   49.4962 H   0  0  0  0  0  0  0  0  0  0  0  0
   39.3815   30.6732   47.8031 H   0  0  0  0  0  0  0  0  0  0  0  0
   37.7714   31.0625   46.9982 H   0  0  0  0  0  0  0  0  0  0  0  0
   37.8296   33.2392   48.5126 H   0  0  0  0  0  0  0  0  0  0  0  0
   39.5112   32.6850   48.9697 H   0  0  0  0  0  0  0  0  0  0  0  0
   39.3467   33.2385   46.9440 C   0  0  0  0  0  0  0  0  0  0  0  0
   38.9643   32.8607   45.6575 C   0  0  0  0  0  0  0  0  0  0  0  0
   38.1802   32.0983   45.5599 H   0  0  0  0  0  0  0  0  0  0  0  0
   39.5749   33.4447   44.5727 C   0  0  0  0  0  0  0  0  0  0  0  0
   40.5630   34.4012   44.6766 C   0  0  0  0  0  0  0  0  0  0  0  0
   40.9424   34.7756   45.9508 C   0  0  0  0  0  0  0  0  0  0  0  0
   41.9336   35.7263   46.0718 C   0  0  0  0  0  0  0  0  0  0  0  0
   42.3624   36.1382   47.3269 C   0  0  0  0  0  0  0  0  0  0  0  0
   41.7860   35.5859   48.4619 C   0  0  0  0  0  0  0  0  0  0  0  0
   40.7845   34.6254   48.2822 C   0  0  0  0  0  0  0  0  0  0  0  0
   40.3347   34.1941   47.0397 C   0  0  0  0  0  0  0  0  0  0  0  0
   39.2807   33.1532   43.5596 H   0  0  0  0  0  0  0  0  0  0  0  0
   41.0425   34.8616   43.8212 H   0  0  0  0  0  0  0  0  0  0  0  0
   42.4393   36.2115   45.2611 H   0  0  0  0  0  0  0  0  0  0  0  0
   43.1401   36.8843   47.4582 H   0  0  0  0  0  0  0  0  0  0  0  0
   42.1161   35.9021   49.4352 H   0  0  0  0  0  0  0  0  0  0  0  0
   40.4014   34.2473   49.1991 H   0  0  0  0  0  0  0  0  0  0  0  0
  2  1  2  0
  3  2  1  0
  4  3  2  0
  4  5  1  0
  5  6  2  0
  6  1  1  0
  7  8  1  0
  7  3  1  0
  1  9  1  0
  2 10  1  0
  5 11  1  0
  7 12  1  0
  7 13  1  0
  8 14  1  0
  8 15  1  0
 16 17  2  0
 17 18  1  0
 17 19  1  0
 19 20  2  0
 20 21  1  0
 21 22  2  0
 22 23  1  0
 23 24  2  0
 24 25  1  0
 25 26  2  0
 26 16  1  0
 26 21  1  0
 19 27  1  0
 20 28  1  0
 22 29  1  0
 23 30  1  0
 24 31  1  0
 25 32  1  0
  8 16  1  0
M  ISO  8   9  14  10  14  11  14  12   8  13   8  14   8  15   8  18  15
M  END
>  <DihAtoms>  (1) 
6,7,15,16

>  <DihDeg>  (1) 
-100.28934733812781

$$$$
