
     RDKit          3D

 32 34  0  0  0  0  0  0  0  0999 V2000
   37.3837   30.2278   51.4009 C   0  0  0  0  0  0  0  0  0  0  0  0
   38.0949   30.8898   50.3830 C   0  0  0  0  0  0  0  0  0  0  0  0
   37.7392   30.6025   49.0789 C   0  0  0  0  0  0  0  0  0  0  0  0
   36.7298   29.7026   48.8559 N   0  0  0  0  0  0  0  0  0  0  0  0
   36.0732   29.0898   49.8526 C   0  0  0  0  0  0  0  0  0  0  0  0
   36.4001   29.3525   51.1322 N   0  0  0  0  0  0  0  0  0  0  0  0
   38.3852   31.2127   47.8753 C   0  0  0  0  0  0  0  0  0  0  0  0
   38.7198   32.6722   48.1830 C   0  0  0  0  0  0  0  0  0  0  0  0
   37.6554   30.4466   52.4242 H   0  0  0  0  0  0  0  0  0  0  0  0
   38.8853   31.5947   50.5612 H   0  0  0  0  0  0  0  0  0  0  0  0
   35.3011   28.4047   49.4962 H   0  0  0  0  0  0  0  0  0  0  0  0
   39.3815   30.6732   47.8031 H   0  0  0  0  0  0  0  0  0  0  0  0
   37.7714   31.0625   46.9982 H   0  0  0  0  0  0  0  0  0  0  0  0
   37.8296   33.2392   48.5126 H   0  0  0  0  0  0  0  0  0  0  0  0
   39.5112   32.6850   48.9697 H   0  0  0  0  0  0  0  0  0  0  0  0
   39.3467   33.2385   46.9440 C   0  0  0  0  0  0  0  0  0  0  0  0
   38.6591   33.3766   45.7390 C   0  0  0  0  0  0  0  0  0  0  0  0
   37.6167   33.0337   45.7023 H   0  0  0  0  0  0  0  0  0  0  0  0
   39.3012   33.9264   44.6544 C   0  0  0  0  0  0  0  0  0  0  0  0
   40.6102   34.3596   44.6815 C   0  0  0  0  0  0  0  0  0  0  0  0
   41.2919   34.2227   45.8749 C   0  0  0  0  0  0  0  0  0  0  0  0
   42.6036   34.6453   45.9168 C   0  0  0  0  0  0  0  0  0  0  0  0
   43.3428   34.5271   47.0866 C   0  0  0  0  0  0  0  0  0  0  0  0
   42.7520   33.9794   48.2164 C   0  0  0  0  0  0  0  0  0  0  0  0
   41.4186   33.5669   48.1192 C   0  0  0  0  0  0  0  0  0  0  0  0
   40.6541   33.6730   46.9631 C   0  0  0  0  0  0  0  0  0  0  0  0
   38.7685   34.0378   43.7048 H   0  0  0  0  0  0  0  0  0  0  0  0
   41.1148   34.7937   43.8267 H   0  0  0  0  0  0  0  0  0  0  0  0
   43.1485   35.0799   45.1028 H   0  0  0  0  0  0  0  0  0  0  0  0
   44.3772   34.8497   47.1542 H   0  0  0  0  0  0  0  0  0  0  0  0
   43.3217   33.8858   49.1237 H   0  0  0  0  0  0  0  0  0  0  0  0
   41.0443   33.1524   49.0240 H   0  0  0  0  0  0  0  0  0  0  0  0
  2  1  2  0
  3  2  1  0
  4  3  2  0
  4  5  1  0
  5  6  2  0
  6  1  1  0
  7  8  1  0
  7  3  1  0
  1  9  1  0
  2 10  1  0
  5 11  1  0
  7 12  1  0
  7 13  1  0
  8 14  1  0
  8 15  1  0
 16 17  2  0
 17 18  1  0
 17 19  1  0
 19 20  2  0
 20 21  1  0
 21 22  2  0
 22 23  1  0
 23 24  2  0
 24 25  1  0
 25 26  2  0
 26 16  1  0
 26 21  1  0
 19 27  1  0
 20 28  1  0
 22 29  1  0
 23 30  1  0
 24 31  1  0
 25 32  1  0
  8 16  1  0
M  ISO  8   9  14  10  14  11  14  12   8  13   8  14   8  15   8  18  15
M  END
>  <DihAtoms>  (1) 
6,7,15,16

>  <DihDeg>  (1) 
-100.28934733812781

$$$$
