
     RDKit          3D

 48 52  0  0  1  0  0  0  0  0999 V2000
   36.2560   30.5110   46.7820 N   0  0  0  0  0  0  0  0  0  0  0  0
   37.1840   31.1440   47.7470 C   0  0  0  0  0  0  0  0  0  0  0  0
   37.1310   30.1930   48.9200 C   0  0  0  0  0  0  0  0  0  0  0  0
   35.7020   29.7090   48.9310 C   0  0  0  0  0  0  0  0  0  0  0  0
   35.1110   30.3290   47.6590 C   0  0  2  0  0  0  0  0  0  0  0  0
   34.1610   29.3460   47.1840 C   0  0  0  0  0  0  0  0  0  0  0  0
   34.3410   27.9990   47.4100 C   0  0  0  0  0  0  0  0  0  0  0  0
   33.4650   27.0220   46.9980 C   0  0  0  0  0  0  0  0  0  0  0  0
   32.3100   27.3390   46.3080 C   0  0  0  0  0  0  0  0  0  0  0  0
   32.0750   28.6760   46.0530 C   0  0  0  0  0  0  0  0  0  0  0  0
   30.9350   29.0280   45.3710 C   0  0  0  0  0  0  0  0  0  0  0  0
   30.6500   30.3470   45.0910 C   0  0  0  0  0  0  0  0  0  0  0  0
   31.5470   31.3310   45.5150 C   0  0  0  0  0  0  0  0  0  0  0  0
   32.6700   30.9040   46.1930 C   0  0  0  0  0  0  0  0  0  0  0  0
   33.0010   29.6160   46.4960 C   0  0  0  0  0  0  0  0  0  0  0  0
   35.1220   29.3720   45.0100 C   0  0  0  0  0  0  0  0  0  0  0  0
   36.2630   30.1250   45.4220 C   0  0  0  0  0  0  0  0  0  0  0  0
   37.2460   30.3880   44.4710 C   0  0  0  0  0  0  0  0  0  0  0  0
   37.0730   29.9160   43.2020 N   0  0  0  0  0  0  0  0  0  0  0  0
   35.9760   29.2050   42.8510 C   0  0  0  0  0  0  0  0  0  0  0  0
   35.0120   28.9360   43.7450 N   0  0  0  0  0  0  0  0  0  0  0  0
   38.4350   31.1370   44.7820 C   0  0  0  0  0  0  0  0  0  0  0  0
   38.4400   32.4760   44.5720 C   0  0  0  0  0  0  0  0  0  0  0  0
   39.5420   33.2720   44.8440 C   0  0  0  0  0  0  0  0  0  0  0  0
   40.6800   32.6220   45.3550 C   0  0  0  0  0  0  0  0  0  0  0  0
   40.7390   31.2360   45.5940 C   0  0  0  0  0  0  0  0  0  0  0  0
   39.5810   30.5260   45.2900 C   0  0  0  0  0  0  0  0  0  0  0  0
   38.2017   31.2112   47.3349 H   0  0  0  0  0  0  0  0  0  0  0  0
   36.9106   32.1774   48.0064 H   0  0  0  0  0  0  0  0  0  0  0  0
   37.8273   29.3538   48.7751 H   0  0  0  0  0  0  0  0  0  0  0  0
   37.4243   30.6704   49.8666 H   0  0  0  0  0  0  0  0  0  0  0  0
   35.6575   28.6106   48.8916 H   0  0  0  0  0  0  0  0  0  0  0  0
   35.1573   29.9948   49.8429 H   0  0  0  0  0  0  0  0  0  0  0  0
   34.5913   31.2931   47.7616 H   0  0  0  0  0  0  0  0  0  0  0  0
   35.2433   27.6847   47.9550 H   0  0  0  0  0  0  0  0  0  0  0  0
   33.6878   25.9683   47.2218 H   0  0  0  0  0  0  0  0  0  0  0  0
   31.6080   26.5598   45.9762 H   0  0  0  0  0  0  0  0  0  0  0  0
   30.2377   28.2431   45.0428 H   0  0  0  0  0  0  0  0  0  0  0  0
   29.7349   30.6196   44.5448 H   0  0  0  0  0  0  0  0  0  0  0  0
   31.3659   32.3978   45.3171 H   0  0  0  0  0  0  0  0  0  0  0  0
   33.3718   31.6838   46.5238 H   0  0  0  0  0  0  0  0  0  0  0  0
   34.3262   29.1472   45.7353 H   0  0  0  0  0  0  0  0  0  0  0  0
   35.8732   28.8423   41.8176 H   0  0  0  0  0  0  0  0  0  0  0  0
   37.5329   32.9504   44.1694 H   0  0  0  0  0  0  0  0  0  0  0  0
   39.5272   34.3579   44.6689 H   0  0  0  0  0  0  0  0  0  0  0  0
   41.5700   33.2282   45.5795 H   0  0  0  0  0  0  0  0  0  0  0  0
   41.6395   30.7470   45.9940 H   0  0  0  0  0  0  0  0  0  0  0  0
   39.5694   29.4389   45.4573 H   0  0  0  0  0  0  0  0  0  0  0  0
  1  5  1  0
  1  2  1  0
  2  3  1  0
  3  4  1  0
  5  4  1  0
  6  7  2  0
  6  5  1  0
  8  7  1  0
  9  8  2  0
 10  9  1  0
 10 15  2  0
 11 10  1  0
 12 11  2  0
 12 13  1  0
 13 14  2  0
 14 15  1  0
 15  6  1  0
 16 17  2  0
 17  1  1  0
 18 22  1  0
 18 17  1  0
 19 18  2  0
 20 19  1  0
 20 21  2  0
 21 16  1  0
 22 27  1  0
 23 22  2  0
 23 24  1  0
 24 25  2  0
 25 26  1  0
 27 26  2  0
  2 28  1  0
  2 29  1  0
  3 30  1  0
  3 31  1  0
  4 32  1  0
  4 33  1  0
  5 34  1  1
  7 35  1  0
  8 36  1  0
  9 37  1  0
 11 38  1  0
 12 39  1  0
 13 40  1  0
 14 41  1  0
 16 42  1  0
 20 43  1  0
 23 44  1  0
 24 45  1  0
 25 46  1  0
 26 47  1  0
 27 48  1  0
M  ISO  8  28  13  29  13  30  13  31  13  32  13  33  13  34  13  35  14
M  ISO  8  36  14  37  14  38  14  39  14  40  14  41  14  42  14  43  14
M  ISO  5  44  14  45  14  46  14  47  14  48  14
M  END
>  <minimizedAffinity>  (1) 
-5.97798109

>  <minimizedRMSD>  (1) 
3.2202754

$$$$
