
     RDKit          3D

 29 31  0  0  0  0  0  0  0  0999 V2000
   37.1010   29.6840   51.3720 C   0  0  0  0  0  0  0  0  0  0  0  0
   37.9750   30.6320   50.8410 C   0  0  0  0  0  0  0  0  0  0  0  0
   37.6880   31.2100   49.6160 C   0  0  0  0  0  0  0  0  0  0  0  0
   36.5400   30.7810   49.0210 N   0  0  0  0  0  0  0  0  0  0  0  0
   35.7090   29.8770   49.5270 C   0  0  0  0  0  0  0  0  0  0  0  0
   36.0070   29.3440   50.7000 N   0  0  0  0  0  0  0  0  0  0  0  0
   38.4790   32.1460   48.8560 C   0  0  0  0  0  0  0  0  0  0  0  0
   38.7980   33.3490   49.4980 C   0  0  0  0  0  0  0  0  0  0  0  0
   39.5430   34.3540   48.9560 C   0  0  0  0  0  0  0  0  0  0  0  0
   40.0410   34.2180   47.6800 C   0  0  0  0  0  0  0  0  0  0  0  0
   39.7660   33.0650   47.0050 C   0  0  0  0  0  0  0  0  0  0  0  0
   40.2760   32.8810   45.7400 C   0  0  0  0  0  0  0  0  0  0  0  0
   40.0570   31.7120   45.0230 C   0  0  0  0  0  0  0  0  0  0  0  0
   39.2980   30.7400   45.6450 C   0  0  0  0  0  0  0  0  0  0  0  0
   38.8070   30.9510   46.8940 C   0  0  0  0  0  0  0  0  0  0  0  0
   39.0150   32.0880   47.5970 C   0  0  0  0  0  0  0  0  0  0  0  0
   34.4980   29.5070   48.7530 C   0  0  0  0  0  0  0  0  0  0  0  0
   33.4810   29.0280   49.5610 F   0  0  0  0  0  0  0  0  0  0  0  0
   33.9960   30.5870   48.0450 F   0  0  0  0  0  0  0  0  0  0  0  0
   34.7580   28.5400   47.7970 F   0  0  0  0  0  0  0  0  0  0  0  0
   37.3171   29.2189   52.3451 H   0  0  0  0  0  0  0  0  0  0  0  0
   38.8841   30.9180   51.3903 H   0  0  0  0  0  0  0  0  0  0  0  0
   38.4176   33.4945   50.5198 H   0  0  0  0  0  0  0  0  0  0  0  0
   39.7448   35.2675   49.5346 H   0  0  0  0  0  0  0  0  0  0  0  0
   40.6425   35.0150   47.2186 H   0  0  0  0  0  0  0  0  0  0  0  0
   40.8745   33.6832   45.2836 H   0  0  0  0  0  0  0  0  0  0  0  0
   40.4667   31.5677   44.0124 H   0  0  0  0  0  0  0  0  0  0  0  0
   39.0904   29.7919   45.1273 H   0  0  0  0  0  0  0  0  0  0  0  0
   38.2079   30.1542   47.3589 H   0  0  0  0  0  0  0  0  0  0  0  0
  2  1  2  0
  3  2  1  0
  4  5  1  0
  4  3  2  0
  5  6  2  0
  6  1  1  0
  7  8  2  0
  7  3  1  0
  9  8  1  0
 10  9  2  0
 11 16  2  0
 11 10  1  0
 12 11  1  0
 13 14  1  0
 13 12  2  0
 14 15  2  0
 15 16  1  0
 16  7  1  0
 17  5  1  0
 17 18  1  0
 19 17  1  0
 20 17  1  0
  1 21  1  0
  2 22  1  0
  8 23  1  0
  9 24  1  0
 10 25  1  0
 12 26  1  0
 13 27  1  0
 14 28  1  0
 15 29  1  0
M  ISO  8  21  14  22  14  23  14  24  14  25  14  26  14  27  14  28  14
M  ISO  1  29  14
M  END
>  <minimizedAffinity>  (1) 
-7.43234825

>  <minimizedRMSD>  (1) 
3.30694914

$$$$
