
     RDKit          3D

 36 39  0  0  0  0  0  0  0  0999 V2000
   37.3787   31.3544   49.2119 C   0  0  0  0  0  0  0  0  0  0  0  0
   37.7196   32.6557   49.5895 C   0  0  0  0  0  0  0  0  0  0  0  0
   38.5880   33.3368   48.7647 C   0  0  0  0  0  0  0  0  0  0  0  0
   39.0625   32.7259   47.6455 N   0  0  0  0  0  0  0  0  0  0  0  0
   38.7079   31.4578   47.3101 C   0  0  0  0  0  0  0  0  0  0  0  0
   37.8377   30.7485   48.1219 N   0  0  0  0  0  0  0  0  0  0  0  0
   36.3905   30.6101   50.0499 C   0  0  0  0  0  0  0  0  0  0  0  0
   36.2757   29.1708   50.0406 C   0  0  0  0  0  0  0  0  0  0  0  0
   37.0327   29.8098   51.1832 C   0  0  0  0  0  0  0  0  0  0  0  0
   39.1738   30.8022   46.1067 C   0  0  0  0  0  0  0  0  0  0  0  0
   37.3065   33.0839   50.4924 H   0  0  0  0  0  0  0  0  0  0  0  0
   38.8854   34.3472   49.0105 H   0  0  0  0  0  0  0  0  0  0  0  0
   35.5512   31.2864   50.3563 H   0  0  0  0  0  0  0  0  0  0  0  0
   36.9490   28.6305   49.3231 H   0  0  0  0  0  0  0  0  0  0  0  0
   35.3227   28.6673   50.2242 H   0  0  0  0  0  0  0  0  0  0  0  0
   38.1228   29.7172   51.2293 H   0  0  0  0  0  0  0  0  0  0  0  0
   36.4801   29.8828   52.1342 H   0  0  0  0  0  0  0  0  0  0  0  0
   39.3558   31.5929   45.3215 H   0  0  0  0  0  0  0  0  0  0  0  0
   38.4265   30.1237   45.6925 H   0  0  0  0  0  0  0  0  0  0  0  0
   40.4348   30.0466   46.2565 C   0  0  0  0  0  0  0  0  0  0  0  0
   40.3331   28.8466   46.9194 C   0  0  0  0  0  0  0  0  0  0  0  0
   39.3894   28.4688   47.3122 H   0  0  0  0  0  0  0  0  0  0  0  0
   41.4257   28.0311   47.1352 C   0  0  0  0  0  0  0  0  0  0  0  0
   42.6707   28.4478   46.6607 C   0  0  0  0  0  0  0  0  0  0  0  0
   42.7874   29.6471   45.9952 C   0  0  0  0  0  0  0  0  0  0  0  0
   44.0148   30.1042   45.5027 C   0  0  0  0  0  0  0  0  0  0  0  0
   44.1327   31.3115   44.8326 C   0  0  0  0  0  0  0  0  0  0  0  0
   42.9706   32.0377   44.6787 C   0  0  0  0  0  0  0  0  0  0  0  0
   41.7209   31.6638   45.1312 C   0  0  0  0  0  0  0  0  0  0  0  0
   41.6813   30.4374   45.7956 C   0  0  0  0  0  0  0  0  0  0  0  0
   41.3206   27.0844   47.6632 H   0  0  0  0  0  0  0  0  0  0  0  0
   43.5508   27.8164   46.8209 H   0  0  0  0  0  0  0  0  0  0  0  0
   44.8841   29.4613   45.6713 H   0  0  0  0  0  0  0  0  0  0  0  0
   45.0812   31.6570   44.4562 H   0  0  0  0  0  0  0  0  0  0  0  0
   43.0556   32.9977   44.1478 H   0  0  0  0  0  0  0  0  0  0  0  0
   40.8475   32.2803   44.9775 H   0  0  0  0  0  0  0  0  0  0  0  0
  1  2  2  0
  1  7  1  0
  3  2  1  0
  4  3  2  0
  5  4  1  0
  5  6  2  0
  6  1  1  0
  7  9  1  0
  8  7  1  0
  8  9  1  0
 10  5  1  0
  2 11  1  0
  3 12  1  0
  7 13  1  0
  8 14  1  0
  8 15  1  0
  9 16  1  0
  9 17  1  0
 10 18  1  0
 10 19  1  0
 20 21  2  0
 21 22  1  0
 21 23  1  0
 23 24  2  0
 24 25  1  0
 25 26  2  0
 26 27  1  0
 27 28  2  0
 28 29  1  0
 29 30  2  0
 30 20  1  0
 30 25  1  0
 23 31  1  0
 24 32  1  0
 26 33  1  0
 27 34  1  0
 28 35  1  0
 29 36  1  0
 10 20  1  0
M  ISO  8  11  14  12  14  13  13  14  13  15  13  16  13  17  13  18   8
M  ISO  2  19   8  22  15
M  END
>  <DihAtoms>  (1) 
4,9,19,20

>  <DihDeg>  (1) 
-0.007492540687199156

$$$$
