
     RDKit          3D

 46 49  0  0  0  0  0  0  0  0999 V2000
   34.0012   28.8177   48.2970 C   0  0  0  0  0  0  0  0  0  0  0  0
   34.6253   28.3676   49.4167 C   0  0  0  0  0  0  0  0  0  0  0  0
   35.8594   28.8017   49.8562 C   0  0  0  0  0  0  0  0  0  0  0  0
   36.5352   29.7511   49.1435 C   0  0  0  0  0  0  0  0  0  0  0  0
   35.9066   30.2197   47.9957 C   0  0  0  0  0  0  0  0  0  0  0  0
   34.6974   29.7614   47.6091 N   0  0  0  0  0  0  0  0  0  0  0  0
   31.9061   27.4825   48.5430 C   0  0  0  0  0  0  0  0  0  0  0  0
   32.7292   28.3619   47.8445 C   0  0  0  0  0  0  0  0  0  0  0  0
   32.2470   28.7955   46.6295 C   0  0  0  0  0  0  0  0  0  0  0  0
   31.0360   28.3687   46.1728 N   0  0  0  0  0  0  0  0  0  0  0  0
   30.2836   27.5093   46.9059 C   0  0  0  0  0  0  0  0  0  0  0  0
   30.7119   27.0586   48.0972 N   0  0  0  0  0  0  0  0  0  0  0  0
   37.7768   30.3026   49.4321 O   0  0  0  0  0  0  0  0  0  0  0  0
   38.3640   31.2718   48.6436 C   0  0  0  0  0  0  0  0  0  0  0  0
   38.4357   32.5305   49.2228 C   0  0  0  0  0  0  0  0  0  0  0  0
   39.0508   33.3728   48.2958 C   0  0  0  0  0  0  0  0  0  0  0  0
   39.3209   32.6058   47.2154 N   0  0  0  0  0  0  0  0  0  0  0  0
   38.9182   31.3873   47.4268 N   0  0  0  0  0  0  0  0  0  0  0  0
   39.9699   33.1109   46.0289 C   0  0  0  0  0  0  0  0  0  0  0  0
   40.6539   31.9445   45.3623 C   0  0  0  0  0  0  0  0  0  0  0  0
   34.1649   27.6158   50.0436 H   0  0  0  0  0  0  0  0  0  0  0  0
   36.3548   28.4403   50.7495 H   0  0  0  0  0  0  0  0  0  0  0  0
   36.3507   30.9720   47.3564 H   0  0  0  0  0  0  0  0  0  0  0  0
   32.2606   27.1197   49.5126 H   0  0  0  0  0  0  0  0  0  0  0  0
   32.7723   29.4807   45.9691 H   0  0  0  0  0  0  0  0  0  0  0  0
   29.3477   27.2437   46.4433 H   0  0  0  0  0  0  0  0  0  0  0  0
   38.1361   32.9558   50.1687 H   0  0  0  0  0  0  0  0  0  0  0  0
   39.2885   34.4461   48.3790 H   0  0  0  0  0  0  0  0  0  0  0  0
   39.2685   33.6352   45.3518 H   0  0  0  0  0  0  0  0  0  0  0  0
   40.6984   33.8661   46.3474 H   0  0  0  0  0  0  0  0  0  0  0  0
   39.8819   31.1350   45.1408 H   0  0  0  0  0  0  0  0  0  0  0  0
   41.3147   31.4386   46.1059 H   0  0  0  0  0  0  0  0  0  0  0  0
   42.6780   35.7654   44.3821 H   0  0  0  0  0  0  0  0  0  0  0  0
   41.6807   34.8720   44.7535 S   0  0  0  0  0  0  0  0  0  0  0  0
   41.9934   34.5269   46.1781 O   0  0  0  0  0  0  0  0  0  0  0  0
   40.3452   35.5419   44.6111 O   0  0  0  0  0  0  0  0  0  0  0  0
   41.8641   33.4606   43.7489 C   0  0  0  0  0  0  0  0  0  0  0  0
   41.3899   32.2342   44.1441 C   0  0  0  0  0  0  0  0  0  0  0  0
   41.6116   31.1527   43.2779 C   0  0  0  0  0  0  0  0  0  0  0  0
   41.2718   30.1370   43.5052 H   0  0  0  0  0  0  0  0  0  0  0  0
   42.2698   31.2521   42.0673 C   0  0  0  0  0  0  0  0  0  0  0  0
   42.4256   30.4024   41.4222 H   0  0  0  0  0  0  0  0  0  0  0  0
   42.7390   32.5108   41.6925 C   0  0  0  0  0  0  0  0  0  0  0  0
   42.5363   33.5976   42.5258 C   0  0  0  0  0  0  0  0  0  0  0  0
   43.2722   32.6777   40.7456 H   0  0  0  0  0  0  0  0  0  0  0  0
   42.8969   34.6032   42.2547 H   0  0  0  0  0  0  0  0  0  0  0  0
  1  2  2  0
  2  3  1  0
  4 13  1  0
  4  3  2  0
  5  4  1  0
  6  5  2  0
  6  1  1  0
  8  1  1  0
  8  7  2  0
  9  8  1  0
 10  9  2  0
 10 11  1  0
 11 12  2  0
 12  7  1  0
 14 15  1  0
 14 13  1  0
 16 15  2  0
 17 18  1  0
 17 16  1  0
 18 14  2  0
 19 17  1  0
 20 19  1  0
  2 21  1  0
  3 22  1  0
  5 23  1  0
  7 24  1  0
  9 25  1  0
 11 26  1  0
 15 27  1  0
 16 28  1  0
 19 29  1  0
 19 30  1  0
 20 31  1  0
 20 32  1  0
 33 34  1  0
 34 35  2  0
 34 36  2  0
 34 37  1  0
 37 38  2  0
 38 39  1  0
 39 40  1  0
 39 41  2  0
 41 42  1  0
 41 43  1  0
 43 44  2  0
 44 37  1  0
 43 45  1  0
 44 46  1  0
 20 38  1  0
M  ISO  8  21  14  22  14  23  14  24  14  25  14  26  14  27  14  28  14
M  ISO  7  29   8  30   8  31   8  32   8  33  12  40  15  42  16
M  END
>  <DihAtoms>  (1) 
18,19,37,36

>  <DihDeg>  (1) 
80.79765634150351

$$$$
