
     RDKit          3D

 31 32  0  0  0  0  0  0  0  0999 V2000
   35.3810   29.8520   46.1450 O   0  0  0  0  0  0  0  0  0  0  0  0
   34.4510   29.5880   47.2880 P   0  0  1  0  0  0  0  0  0  0  0  0
   34.6450   28.0320   47.9360 O   0  0  0  0  0  0  0  0  0  0  0  0
   34.7230   30.6780   48.6010 O   0  0  0  0  0  0  0  0  0  0  0  0
   35.9050   30.6820   49.3260 C   0  0  0  0  0  0  0  0  0  0  0  0
   36.1580   29.9530   50.4780 C   0  0  0  0  0  0  0  0  0  0  0  0
   37.3920   30.0650   51.0870 C   0  0  0  0  0  0  0  0  0  0  0  0
   38.3330   30.8900   50.5370 N   0  0  0  0  0  0  0  0  0  0  0  0
   38.0540   31.5970   49.3970 C   0  0  0  0  0  0  0  0  0  0  0  0
   36.8380   31.4870   48.7970 N   0  0  0  0  0  0  0  0  0  0  0  0
   35.0910   29.1480   50.9230 N   0  0  0  0  0  0  0  0  0  0  0  0
   32.8930   29.8270   46.6880 O   0  0  0  0  0  0  0  0  0  0  0  0
   31.4860   28.0560   46.1570 C   0  0  0  0  0  0  0  0  0  0  0  0
   32.4180   28.9890   45.6870 C   0  0  0  0  0  0  0  0  0  0  0  0
   32.7750   29.0090   44.3550 C   0  0  0  0  0  0  0  0  0  0  0  0
   32.2260   28.1170   43.4540 C   0  0  0  0  0  0  0  0  0  0  0  0
   31.2910   27.1750   43.9010 C   0  0  0  0  0  0  0  0  0  0  0  0
   30.9480   27.1710   45.2370 C   0  0  0  0  0  0  0  0  0  0  0  0
   30.9610   27.9340   47.8070 S   0  0  0  0  0  0  0  0  0  0  0  0
   31.9600   27.2070   48.6640 O   0  0  0  0  0  0  0  0  0  0  0  0
   29.6670   27.1380   47.9090 O   0  0  0  0  0  0  0  0  0  0  0  0
   34.6386   28.0831   48.9247 H   0  0  0  0  0  0  0  0  0  0  0  0
   37.6150   29.4978   52.0027 H   0  0  0  0  0  0  0  0  0  0  0  0
   38.8188   32.2584   48.9638 H   0  0  0  0  0  0  0  0  0  0  0  0
   35.1976   28.5748   51.7721 H   0  0  0  0  0  0  0  0  0  0  0  0
   34.2042   29.1326   50.3993 H   0  0  0  0  0  0  0  0  0  0  0  0
   33.5099   29.7483   44.0037 H   0  0  0  0  0  0  0  0  0  0  0  0
   32.5208   28.1464   42.3946 H   0  0  0  0  0  0  0  0  0  0  0  0
   30.8404   26.4546   43.2025 H   0  0  0  0  0  0  0  0  0  0  0  0
   30.2136   26.4311   45.5880 H   0  0  0  0  0  0  0  0  0  0  0  0
   30.7997   29.2240   48.2393 H   0  0  0  0  0  0  0  0  0  0  0  0
  2  1  2  0
  2  3  1  0
  2  4  1  0
  4  5  1  0
  5  6  2  0
  6 11  1  0
  6  7  1  0
  8  7  2  0
  9  8  1  0
 10  5  1  0
 10  9  2  0
 12  2  1  0
 13 19  1  0
 14 13  2  0
 14 12  1  0
 15 14  1  0
 16 17  1  0
 16 15  2  0
 17 18  2  0
 18 13  1  0
 19 21  2  0
 19 20  2  0
  3 22  1  0
  7 23  1  0
  9 24  1  0
 11 25  1  0
 11 26  1  0
 15 27  1  0
 16 28  1  0
 17 29  1  0
 18 30  1  0
 19 31  1  0
M  ISO  8  22   3  23  14  24  14  27  14  28  14  29  14  30  14  31  11
M  END
>  <minimizedAffinity>  (1) 
-3.94204187

>  <minimizedRMSD>  (1) 
2.13534117

$$$$
