
     RDKit          3D

 26 27  0  0  0  0  0  0  0  0999 V2000
   38.3013   31.2456   50.1229 C   0  0  0  0  0  0  0  0  0  0  0  0
   38.2799   31.6138   48.7586 C   0  0  0  0  0  0  0  0  0  0  0  0
   37.2004   31.2205   47.9863 C   0  0  0  0  0  0  0  0  0  0  0  0
   36.2408   30.5040   48.6162 N   0  0  0  0  0  0  0  0  0  0  0  0
   36.2697   30.1612   49.9046 C   0  0  0  0  0  0  0  0  0  0  0  0
   37.3020   30.5347   50.6524 N   0  0  0  0  0  0  0  0  0  0  0  0
   35.1339   29.3738   50.4352 C   0  0  0  0  0  0  0  0  0  0  0  0
   35.2601   29.1157   51.7980 F   0  0  0  0  0  0  0  0  0  0  0  0
   33.9224   30.0724   50.3010 F   0  0  0  0  0  0  0  0  0  0  0  0
   34.9384   28.1701   49.8289 F   0  0  0  0  0  0  0  0  0  0  0  0
   39.0969   31.5124   50.7747 H   0  0  0  0  0  0  0  0  0  0  0  0
   39.0960   32.1866   48.3544 H   0  0  0  0  0  0  0  0  0  0  0  0
   35.2401   33.6467   48.1776 H   0  0  0  0  0  0  0  0  0  0  0  0
   34.7711   32.8825   47.1592 S   0  0  0  0  0  0  0  0  0  0  0  0
   33.9010   31.7302   47.6442 O   0  0  0  0  0  0  0  0  0  0  0  0
   33.8251   33.7649   46.3759 O   0  0  0  0  0  0  0  0  0  0  0  0
   36.0372   32.2940   46.1068 C   0  0  0  0  0  0  0  0  0  0  0  0
   37.0903   31.5531   46.5734 C   0  0  0  0  0  0  0  0  0  0  0  0
   38.0165   31.1519   45.6466 C   0  0  0  0  0  0  0  0  0  0  0  0
   38.8830   30.5639   45.9151 H   0  0  0  0  0  0  0  0  0  0  0  0
   37.9583   31.4401   44.2995 C   0  0  0  0  0  0  0  0  0  0  0  0
   38.6953   31.1168   43.5835 H   0  0  0  0  0  0  0  0  0  0  0  0
   36.9008   32.1854   43.8231 C   0  0  0  0  0  0  0  0  0  0  0  0
   35.9626   32.5949   44.7459 C   0  0  0  0  0  0  0  0  0  0  0  0
   36.8095   32.4379   42.7769 H   0  0  0  0  0  0  0  0  0  0  0  0
   35.1372   33.1845   44.3319 H   0  0  0  0  0  0  0  0  0  0  0  0
  1  6  2  0
  2  1  1  0
  3  4  1  0
  3  2  2  0
  4  5  2  0
  5  7  1  0
  5  6  1  0
  7  8  1  0
  9  7  1  0
 10  7  1  0
  1 11  1  0
  2 12  1  0
 13 14  1  0
 14 15  2  0
 14 16  2  0
 14 17  1  0
 17 18  2  0
 18 19  1  0
 19 20  1  0
 19 21  2  0
 21 22  1  0
 21 23  1  0
 23 24  2  0
 24 17  1  0
 23 25  1  0
 24 26  1  0
  3 18  1  0
M  ISO  5  11  14  12  14  13  12  20  15  22  16
M  END
>  <DihAtoms>  (1) 
3,2,17,16

>  <DihDeg>  (1) 
0.058799441221521184

$$$$
