
     RDKit          3D

 36 39  0  0  0  0  0  0  0  0999 V2000
   37.0655   30.6951   46.7575 C   0  0  0  0  0  0  0  0  0  0  0  0
   37.6992   31.1312   47.9134 C   0  0  0  0  0  0  0  0  0  0  0  0
   38.7172   32.0726   47.8461 C   0  0  0  0  0  0  0  0  0  0  0  0
   39.0478   32.5361   46.5664 C   0  0  0  0  0  0  0  0  0  0  0  0
   39.9929   33.4443   46.2415 N   0  0  0  0  0  0  0  0  0  0  0  0
   39.9884   33.6063   44.9381 C   0  0  0  0  0  0  0  0  0  0  0  0
   39.0550   32.8149   44.4126 N   0  0  0  0  0  0  0  0  0  0  0  0
   38.4444   32.1300   45.3942 C   0  0  0  0  0  0  0  0  0  0  0  0
   37.4299   31.1862   45.5039 C   0  0  0  0  0  0  0  0  0  0  0  0
   37.4058   30.1483   51.5419 C   0  0  0  0  0  0  0  0  0  0  0  0
   37.9203   30.7294   50.3882 C   0  0  0  0  0  0  0  0  0  0  0  0
   37.2542   30.5673   49.1834 C   0  0  0  0  0  0  0  0  0  0  0  0
   36.1017   29.8344   49.1670 N   0  0  0  0  0  0  0  0  0  0  0  0
   35.6197   29.2764   50.3100 C   0  0  0  0  0  0  0  0  0  0  0  0
   36.2688   29.4374   51.4707 N   0  0  0  0  0  0  0  0  0  0  0  0
   36.2641   29.9608   46.7549 H   0  0  0  0  0  0  0  0  0  0  0  0
   39.2153   32.4176   48.7360 H   0  0  0  0  0  0  0  0  0  0  0  0
   40.6097   33.9011   46.9051 H   0  0  0  0  0  0  0  0  0  0  0  0
   36.9435   30.8536   44.5992 H   0  0  0  0  0  0  0  0  0  0  0  0
   37.9948   30.3304   52.4304 H   0  0  0  0  0  0  0  0  0  0  0  0
   38.8199   31.3024   50.3965 H   0  0  0  0  0  0  0  0  0  0  0  0
   34.6956   28.6972   50.2583 H   0  0  0  0  0  0  0  0  0  0  0  0
   37.8397   34.5027   42.4712 H   0  0  0  0  0  0  0  0  0  0  0  0
   38.9906   33.9931   41.9569 S   0  0  0  0  0  0  0  0  0  0  0  0
   39.0447   32.4915   41.9982 O   0  0  0  0  0  0  0  0  0  0  0  0
   38.9513   34.3278   40.4610 O   0  0  0  0  0  0  0  0  0  0  0  0
   40.3545   34.7519   42.7121 C   0  0  0  0  0  0  0  0  0  0  0  0
   40.7120   34.4558   44.0033 C   0  0  0  0  0  0  0  0  0  0  0  0
   41.8715   35.1441   44.3871 C   0  0  0  0  0  0  0  0  0  0  0  0
   42.2866   35.0102   45.4001 H   0  0  0  0  0  0  0  0  0  0  0  0
   42.6039   36.0153   43.6277 C   0  0  0  0  0  0  0  0  0  0  0  0
   43.4837   36.5040   43.9988 H   0  0  0  0  0  0  0  0  0  0  0  0
   42.1896   36.2679   42.3457 C   0  0  0  0  0  0  0  0  0  0  0  0
   41.0585   35.6219   41.9094 C   0  0  0  0  0  0  0  0  0  0  0  0
   42.7334   36.9397   41.7265 H   0  0  0  0  0  0  0  0  0  0  0  0
   40.7677   35.8510   40.8915 H   0  0  0  0  0  0  0  0  0  0  0  0
  1  2  2  0
  2 12  1  0
  3  2  1  0
  4  3  2  0
  5  4  1  0
  6  5  1  0
  7  6  2  0
  7  8  1  0
  8  9  2  0
  8  4  1  0
  9  1  1  0
 11 10  2  0
 12 11  1  0
 13 12  2  0
 13 14  1  0
 14 15  2  0
 15 10  1  0
  1 16  1  0
  3 17  1  0
  5 18  1  0
  9 19  1  0
 10 20  1  0
 11 21  1  0
 14 22  1  0
 23 24  1  0
 24 25  2  0
 24 26  2  0
 24 27  1  0
 27 28  2  0
 28 29  1  0
 29 30  1  0
 29 31  2  0
 31 32  1  0
 31 33  1  0
 33 34  2  0
 34 27  1  0
 33 35  1  0
 34 36  1  0
  6 28  1  0
M  ISO  8  16  14  17  14  18   9  19  14  20  14  21  14  22  14  23  12
M  ISO  2  30  15  32  16
M  END
>  <DihAtoms>  (1) 
4,5,27,26

>  <DihDeg>  (1) 
-11.681382459614689

$$$$
