
     RDKit          3D

 51 55  0  0  0  0  0  0  0  0999 V2000
   38.5190   31.3800   42.5530 C   0  0  0  0  0  0  0  0  0  0  0  0
   39.4400   31.1250   43.5420 C   0  0  0  0  0  0  0  0  0  0  0  0
   40.6040   30.4570   43.3250 C   0  0  0  0  0  0  0  0  0  0  0  0
   40.8980   30.0000   42.0490 C   0  0  0  0  0  0  0  0  0  0  0  0
   41.9360   29.3290   41.5400 N   0  0  0  0  0  0  0  0  0  0  0  0
   41.7020   29.1460   40.2450 C   0  0  0  0  0  0  0  0  0  0  0  0
   40.5080   29.7040   39.9210 N   0  0  0  0  0  0  0  0  0  0  0  0
   39.9890   30.2450   41.0480 C   0  0  0  0  0  0  0  0  0  0  0  0
   38.7850   30.9320   41.2530 C   0  0  0  0  0  0  0  0  0  0  0  0
   39.1080   31.6150   44.8710 C   0  0  0  0  0  0  0  0  0  0  0  0
   37.9630   32.1650   45.0520 O   0  0  0  0  0  0  0  0  0  0  0  0
   39.9400   31.5460   46.0140 N   0  0  0  0  0  0  0  0  0  0  0  0
   38.2100   30.1060   47.5270 F   0  0  0  0  0  0  0  0  0  0  0  0
   38.4710   31.3660   47.9480 C   0  0  0  0  0  0  0  0  0  0  0  0
   37.8780   31.8510   49.0760 C   0  0  0  0  0  0  0  0  0  0  0  0
   38.1920   33.1420   49.4460 C   0  0  0  0  0  0  0  0  0  0  0  0
   39.0600   33.9280   48.7240 C   0  0  0  0  0  0  0  0  0  0  0  0
   39.6520   33.4100   47.5780 C   0  0  0  0  0  0  0  0  0  0  0  0
   39.3460   32.1120   47.1930 C   0  0  0  0  0  0  0  0  0  0  0  0
   36.4450   29.4680   51.6390 C   0  0  0  0  0  0  0  0  0  0  0  0
   37.3400   30.3070   50.9490 C   0  0  0  0  0  0  0  0  0  0  0  0
   36.9630   30.9760   49.8060 C   0  0  0  0  0  0  0  0  0  0  0  0
   35.6750   30.7880   49.3670 N   0  0  0  0  0  0  0  0  0  0  0  0
   34.8220   29.9910   50.0210 C   0  0  0  0  0  0  0  0  0  0  0  0
   35.1920   29.3460   51.1280 N   0  0  0  0  0  0  0  0  0  0  0  0
   37.8780   31.1750   40.2480 O   0  0  0  0  0  0  0  0  0  0  0  0
   36.5420   33.2540   39.8400 C   0  0  0  0  0  0  0  0  0  0  0  0
   37.6040   32.3920   39.6720 C   0  0  0  0  0  0  0  0  0  0  0  0
   38.6120   32.7580   38.7760 C   0  0  0  0  0  0  0  0  0  0  0  0
   38.5610   33.9520   38.0670 C   0  0  0  0  0  0  0  0  0  0  0  0
   37.4850   34.7950   38.2540 C   0  0  0  0  0  0  0  0  0  0  0  0
   36.4860   34.4390   39.1370 C   0  0  0  0  0  0  0  0  0  0  0  0
   35.3540   32.6770   40.9860 S   0  0  0  0  0  0  0  0  0  0  0  0
   35.6550   33.3620   42.3120 O   0  0  0  0  0  0  0  0  0  0  0  0
   33.9750   33.1290   40.5960 O   0  0  0  0  0  0  0  0  0  0  0  0
   37.5909   31.9256   42.7788 H   0  0  0  0  0  0  0  0  0  0  0  0
   41.3058   30.2807   44.1534 H   0  0  0  0  0  0  0  0  0  0  0  0
   42.7674   29.0111   42.0583 H   0  0  0  0  0  0  0  0  0  0  0  0
   42.3711   28.6240   39.5451 H   0  0  0  0  0  0  0  0  0  0  0  0
   40.8819   31.1295   46.0015 H   0  0  0  0  0  0  0  0  0  0  0  0
   37.7307   33.5592   50.3533 H   0  0  0  0  0  0  0  0  0  0  0  0
   39.2830   34.9547   49.0499 H   0  0  0  0  0  0  0  0  0  0  0  0
   40.3514   34.0186   46.9860 H   0  0  0  0  0  0  0  0  0  0  0  0
   36.7468   28.9343   52.5523 H   0  0  0  0  0  0  0  0  0  0  0  0
   38.3639   30.4311   51.3315 H   0  0  0  0  0  0  0  0  0  0  0  0
   33.7981   29.8657   49.6390 H   0  0  0  0  0  0  0  0  0  0  0  0
   39.4681   32.0833   38.6281 H   0  0  0  0  0  0  0  0  0  0  0  0
   39.3661   34.2209   37.3674 H   0  0  0  0  0  0  0  0  0  0  0  0
   37.4238   35.7449   37.7027 H   0  0  0  0  0  0  0  0  0  0  0  0
   35.6290   35.1131   39.2828 H   0  0  0  0  0  0  0  0  0  0  0  0
   35.4054   31.3091   41.0417 H   0  0  0  0  0  0  0  0  0  0  0  0
  1  2  2  0
  2 10  1  0
  3  2  1  0
  4  3  2  0
  5  4  1  0
  6  5  1  0
  7  6  2  0
  7  8  1  0
  8  9  2  0
  8  4  1  0
  9  1  1  0
 10 11  2  0
 10 12  1  0
 12 19  1  0
 13 14  1  0
 14 15  2  0
 15 16  1  0
 15 22  1  0
 17 16  2  0
 18 17  1  0
 19 18  2  0
 19 14  1  0
 21 20  2  0
 22 21  1  0
 23 22  2  0
 23 24  1  0
 24 25  2  0
 25 20  1  0
 26  9  1  0
 27 33  1  0
 28 27  2  0
 28 26  1  0
 29 28  1  0
 30 31  1  0
 30 29  2  0
 31 32  2  0
 32 27  1  0
 33 34  2  0
 35 33  2  0
  1 36  1  0
  3 37  1  0
  5 38  1  0
  6 39  1  0
 12 40  1  0
 16 41  1  0
 17 42  1  0
 18 43  1  0
 20 44  1  0
 21 45  1  0
 24 46  1  0
 29 47  1  0
 30 48  1  0
 31 49  1  0
 32 50  1  0
 33 51  1  0
M  ISO  8  36  14  37  14  38   9  39  14  41  14  42  14  43  14  44  14
M  ISO  7  45  14  46  14  47  14  48  14  49  14  50  14  51  11
M  END
>  <minimizedAffinity>  (1) 
-6.9728117

>  <minimizedRMSD>  (1) 
1.97688782

$$$$
