
     RDKit          3D

 44 47  0  0  1  0  0  0  0  0999 V2000
   34.8960   30.0060   47.1790 C   0  0  0  0  0  0  0  0  0  0  0  0
   35.5860   30.0270   45.9770 C   0  0  0  0  0  0  0  0  0  0  0  0
   36.8040   30.6720   46.2110 C   0  0  0  0  0  0  0  0  0  0  0  0
   36.8020   31.0080   47.5170 N   0  0  0  0  0  0  0  0  0  0  0  0
   35.6710   30.6030   48.0530 N   0  0  0  0  0  0  0  0  0  0  0  0
   38.5310   32.6850   47.4920 N   0  0  0  0  0  0  0  0  0  0  0  0
   39.1910   33.5040   48.4820 C   0  0  0  0  0  0  0  0  0  0  0  0
   38.5050   33.2590   49.8120 C   0  0  0  0  0  0  0  0  0  0  0  0
   37.2430   32.5040   49.3850 C   0  0  0  0  0  0  0  0  0  0  0  0
   37.8140   31.6830   48.2550 C   0  0  1  0  0  0  0  0  0  0  0  0
   38.7140   30.6940   48.8050 N   0  0  0  0  0  0  0  0  0  0  0  0
   33.2500   28.4690   48.2930 C   0  0  0  0  0  0  0  0  0  0  0  0
   33.5770   29.4080   47.3180 C   0  0  0  0  0  0  0  0  0  0  0  0
   32.5580   29.7900   46.4240 C   0  0  0  0  0  0  0  0  0  0  0  0
   31.3370   29.2260   46.5670 N   0  0  0  0  0  0  0  0  0  0  0  0
   31.0730   28.3130   47.5380 C   0  0  0  0  0  0  0  0  0  0  0  0
   32.0480   27.9330   48.4110 N   0  0  0  0  0  0  0  0  0  0  0  0
   29.4280   26.5910   46.9310 C   0  0  0  0  0  0  0  0  0  0  0  0
   29.7430   27.7020   47.6910 C   0  0  0  0  0  0  0  0  0  0  0  0
   28.8140   28.2250   48.5810 C   0  0  0  0  0  0  0  0  0  0  0  0
   27.5650   27.6830   48.7500 C   0  0  0  0  0  0  0  0  0  0  0  0
   27.2040   26.5800   48.0190 C   0  0  0  0  0  0  0  0  0  0  0  0
   28.1400   26.0870   47.1510 C   0  0  0  0  0  0  0  0  0  0  0  0
   30.5200   25.8670   45.7960 S   0  0  0  0  0  0  0  0  0  0  0  0
   30.6160   24.4080   46.0620 O   0  0  0  0  0  0  0  0  0  0  0  0
   29.9040   26.0230   44.4120 O   0  0  0  0  0  0  0  0  0  0  0  0
   35.2399   29.6135   45.0183 H   0  0  0  0  0  0  0  0  0  0  0  0
   37.6017   30.8660   45.4788 H   0  0  0  0  0  0  0  0  0  0  0  0
   39.2216   32.2412   46.8699 H   0  0  0  0  0  0  0  0  0  0  0  0
   40.2530   33.2260   48.5511 H   0  0  0  0  0  0  0  0  0  0  0  0
   39.1301   34.5671   48.2063 H   0  0  0  0  0  0  0  0  0  0  0  0
   39.1310   32.6467   50.4778 H   0  0  0  0  0  0  0  0  0  0  0  0
   38.3009   34.1776   50.3816 H   0  0  0  0  0  0  0  0  0  0  0  0
   36.8500   31.8710   50.1942 H   0  0  0  0  0  0  0  0  0  0  0  0
   36.3862   33.1391   49.1157 H   0  0  0  0  0  0  0  0  0  0  0  0
   38.6791   30.7324   49.8337 H   0  0  0  0  0  0  0  0  0  0  0  0
   38.4300   29.7565   48.4866 H   0  0  0  0  0  0  0  0  0  0  0  0
   34.0322   28.1576   49.0010 H   0  0  0  0  0  0  0  0  0  0  0  0
   32.7500   30.5274   45.6306 H   0  0  0  0  0  0  0  0  0  0  0  0
   29.0906   29.1091   49.1741 H   0  0  0  0  0  0  0  0  0  0  0  0
   26.8590   28.1293   49.4658 H   0  0  0  0  0  0  0  0  0  0  0  0
   26.2126   26.1154   48.1251 H   0  0  0  0  0  0  0  0  0  0  0  0
   27.8505   25.2024   46.5648 H   0  0  0  0  0  0  0  0  0  0  0  0
   31.7540   26.4544   45.8915 H   0  0  0  0  0  0  0  0  0  0  0  0
  1 13  1  0
  1  5  2  0
  2  3  2  0
  2  1  1  0
  3  4  1  0
  4  5  1  0
  4 10  1  0
  6 10  1  0
  6  7  1  0
  7  8  1  0
  9  8  1  0
 10 11  1  1
 10  9  1  0
 12 17  2  0
 13 12  1  0
 14 15  1  0
 14 13  2  0
 15 16  2  0
 16 19  1  0
 16 17  1  0
 18 23  2  0
 18 19  1  0
 19 20  2  0
 20 21  1  0
 22 21  2  0
 23 22  1  0
 24 25  2  0
 24 18  1  0
 26 24  2  0
  2 27  1  0
  3 28  1  0
  6 29  1  0
  7 30  1  0
  7 31  1  0
  8 32  1  0
  8 33  1  0
  9 34  1  0
  9 35  1  0
 11 36  1  0
 11 37  1  0
 12 38  1  0
 14 39  1  0
 20 40  1  0
 21 41  1  0
 22 42  1  0
 23 43  1  0
 24 44  1  0
M  ISO  8  27  14  28  14  29   5  30  13  31  13  32  13  33  13  34  13
M  ISO  8  35  13  36   5  37   5  38  14  39  14  40  14  41  14  42  14
M  ISO  2  43  14  44  11
M  END
>  <minimizedAffinity>  (1) 
-5.7150588

>  <minimizedRMSD>  (1) 
1.28310096

$$$$
