
     RDKit          3D

 37 39  0  0  0  0  0  0  0  0999 V2000
   35.1732   28.6664   50.0198 C   0  0  0  0  0  0  0  0  0  0  0  0
   36.2410   29.5945   49.8488 C   0  0  0  0  0  0  0  0  0  0  0  0
   36.1531   30.5048   48.8016 C   0  0  0  0  0  0  0  0  0  0  0  0
   35.0531   30.4639   47.9935 N   0  0  0  0  0  0  0  0  0  0  0  0
   34.0570   29.5555   48.1988 C   0  0  0  0  0  0  0  0  0  0  0  0
   34.1113   28.6709   49.1923 N   0  0  0  0  0  0  0  0  0  0  0  0
   33.0280   29.7111   47.2364 N   0  0  0  0  0  0  0  0  0  0  0  0
   37.2245   31.4669   48.5971 C   0  0  0  0  0  0  0  0  0  0  0  0
   37.1905   32.5060   49.5087 C   0  0  0  0  0  0  0  0  0  0  0  0
   38.1509   33.5034   49.4441 C   0  0  0  0  0  0  0  0  0  0  0  0
   39.1333   33.4439   48.4640 C   0  0  0  0  0  0  0  0  0  0  0  0
   39.1453   32.4018   47.5703 C   0  0  0  0  0  0  0  0  0  0  0  0
   38.1959   31.4732   47.6829 N   0  0  0  0  0  0  0  0  0  0  0  0
   37.3878   29.5397   50.7977 C   0  0  0  0  0  0  0  0  0  0  0  0
   38.5814   29.8194   50.1643 F   0  0  0  0  0  0  0  0  0  0  0  0
   37.1840   30.5009   51.7649 F   0  0  0  0  0  0  0  0  0  0  0  0
   37.5189   28.3286   51.4288 F   0  0  0  0  0  0  0  0  0  0  0  0
   35.2321   27.9507   50.8351 H   0  0  0  0  0  0  0  0  0  0  0  0
   32.7568   29.0032   46.5399 H   0  0  0  0  0  0  0  0  0  0  0  0
   32.4843   30.6070   47.2090 H   0  0  0  0  0  0  0  0  0  0  0  0
   36.4634   32.6445   50.3106 H   0  0  0  0  0  0  0  0  0  0  0  0
   38.1547   34.3420   50.1505 H   0  0  0  0  0  0  0  0  0  0  0  0
   39.8478   34.2283   48.4518 H   0  0  0  0  0  0  0  0  0  0  0  0
   40.6369   35.1158   47.9723 H   0  0  0  0  0  0  0  0  0  0  0  0
   41.6292   34.1768   47.8652 S   0  0  0  0  0  0  0  0  0  0  0  0
   42.8829   34.9685   47.5218 O   0  0  0  0  0  0  0  0  0  0  0  0
   41.9185   33.5018   49.1765 O   0  0  0  0  0  0  0  0  0  0  0  0
   41.3016   33.0523   46.5761 C   0  0  0  0  0  0  0  0  0  0  0  0
   40.1524   32.2912   46.5234 C   0  0  0  0  0  0  0  0  0  0  0  0
   40.0034   31.4347   45.4522 C   0  0  0  0  0  0  0  0  0  0  0  0
   39.1444   30.8102   45.3346 H   0  0  0  0  0  0  0  0  0  0  0  0
   40.9338   31.3068   44.4494 C   0  0  0  0  0  0  0  0  0  0  0  0
   40.8161   30.6322   43.6058 H   0  0  0  0  0  0  0  0  0  0  0  0
   42.0846   32.0498   44.4751 C   0  0  0  0  0  0  0  0  0  0  0  0
   42.2375   32.9072   45.5441 C   0  0  0  0  0  0  0  0  0  0  0  0
   42.8409   31.9791   43.7069 H   0  0  0  0  0  0  0  0  0  0  0  0
   43.1544   33.5052   45.5734 H   0  0  0  0  0  0  0  0  0  0  0  0
  2  1  2  0
  2 14  1  0
  3  2  1  0
  4  5  1  0
  4  3  2  0
  5  6  2  0
  6  1  1  0
  7  5  1  0
  8  3  1  0
  8  9  2  0
 10  9  1  0
 11 10  2  0
 12 13  2  0
 12 11  1  0
 13  8  1  0
 14 17  1  0
 14 16  1  0
 15 14  1  0
  1 18  1  0
  7 19  1  0
  7 20  1  0
  9 21  1  0
 10 22  1  0
 11 23  1  0
 24 25  1  0
 25 26  2  0
 25 27  2  0
 25 28  1  0
 28 29  2  0
 29 30  1  0
 30 31  1  0
 30 32  2  0
 32 33  1  0
 32 34  1  0
 34 35  2  0
 35 28  1  0
 34 36  1  0
 35 37  1  0
 12 29  1  0
M  ISO  7  18  14  21  14  22  14  23  14  24  12  31  15  33  16
M  END
>  <DihAtoms>  (1) 
12,11,28,27

>  <DihDeg>  (1) 
-0.04337641743707353

$$$$
