
     RDKit          3D

 46 50  0  0  0  0  0  0  0  0999 V2000
   38.0380   31.3310   47.1270 C   0  0  0  0  0  0  0  0  0  0  0  0
   38.7990   32.4620   47.3240 C   0  0  0  0  0  0  0  0  0  0  0  0
   39.8300   32.8320   46.4900 C   0  0  0  0  0  0  0  0  0  0  0  0
   40.1380   32.0600   45.4050 C   0  0  0  0  0  0  0  0  0  0  0  0
   39.3600   30.9390   45.2370 C   0  0  0  0  0  0  0  0  0  0  0  0
   38.3660   30.5830   46.0420 N   0  0  0  0  0  0  0  0  0  0  0  0
   38.9220   28.9260   43.7900 C   0  0  0  0  0  0  0  0  0  0  0  0
   39.6380   30.0740   44.0980 C   0  0  0  0  0  0  0  0  0  0  0  0
   40.6610   30.3160   43.2000 C   0  0  0  0  0  0  0  0  0  0  0  0
   40.9750   29.5420   42.1090 C   0  0  0  0  0  0  0  0  0  0  0  0
   41.9150   29.6310   41.1540 N   0  0  0  0  0  0  0  0  0  0  0  0
   41.7650   28.5920   40.3230 C   0  0  0  0  0  0  0  0  0  0  0  0
   40.7150   27.8100   40.7330 C   0  0  0  0  0  0  0  0  0  0  0  0
   40.2220   28.4280   41.8720 C   0  0  0  0  0  0  0  0  0  0  0  0
   39.1900   28.1170   42.7160 C   0  0  0  0  0  0  0  0  0  0  0  0
   35.6610   31.0160   50.0270 C   0  0  0  0  0  0  0  0  0  0  0  0
   36.7500   31.4780   49.2830 C   0  0  0  0  0  0  0  0  0  0  0  0
   36.9550   30.9510   48.0100 C   0  0  0  0  0  0  0  0  0  0  0  0
   36.0740   30.0170   47.5810 N   0  0  0  0  0  0  0  0  0  0  0  0
   35.0250   29.5830   48.3170 C   0  0  0  0  0  0  0  0  0  0  0  0
   34.8310   30.0920   49.5390 N   0  0  0  0  0  0  0  0  0  0  0  0
   33.2520   28.8710   46.7390 C   0  0  0  0  0  0  0  0  0  0  0  0
   34.1520   28.5700   47.7300 C   0  0  0  0  0  0  0  0  0  0  0  0
   34.2530   27.2790   48.2040 C   0  0  0  0  0  0  0  0  0  0  0  0
   33.4610   26.2620   47.6990 C   0  0  0  0  0  0  0  0  0  0  0  0
   32.5440   26.5280   46.7010 C   0  0  0  0  0  0  0  0  0  0  0  0
   32.4680   27.8210   46.2520 C   0  0  0  0  0  0  0  0  0  0  0  0
   33.1070   30.4970   46.1260 S   0  0  0  0  0  0  0  0  0  0  0  0
   31.6410   30.7820   45.8460 O   0  0  0  0  0  0  0  0  0  0  0  0
   33.7900   30.6090   44.7890 O   0  0  0  0  0  0  0  0  0  0  0  0
   38.5719   33.1009   48.1901 H   0  0  0  0  0  0  0  0  0  0  0  0
   40.4046   33.7470   46.6964 H   0  0  0  0  0  0  0  0  0  0  0  0
   40.9532   32.3181   44.7130 H   0  0  0  0  0  0  0  0  0  0  0  0
   38.0866   28.6474   44.4492 H   0  0  0  0  0  0  0  0  0  0  0  0
   41.2794   31.2088   43.3747 H   0  0  0  0  0  0  0  0  0  0  0  0
   42.6277   30.3703   41.0746 H   0  0  0  0  0  0  0  0  0  0  0  0
   42.3917   28.3944   39.4409 H   0  0  0  0  0  0  0  0  0  0  0  0
   40.3436   26.8893   40.2593 H   0  0  0  0  0  0  0  0  0  0  0  0
   38.5781   27.2214   42.5332 H   0  0  0  0  0  0  0  0  0  0  0  0
   35.4846   31.4217   51.0341 H   0  0  0  0  0  0  0  0  0  0  0  0
   37.4293   32.2399   49.6930 H   0  0  0  0  0  0  0  0  0  0  0  0
   34.9778   27.0526   48.9998 H   0  0  0  0  0  0  0  0  0  0  0  0
   33.5622   25.2401   48.0933 H   0  0  0  0  0  0  0  0  0  0  0  0
   31.9028   25.7370   46.2847 H   0  0  0  0  0  0  0  0  0  0  0  0
   31.7427   28.0471   45.4565 H   0  0  0  0  0  0  0  0  0  0  0  0
   33.6532   31.3527   47.0459 H   0  0  0  0  0  0  0  0  0  0  0  0
  1  2  2  0
  1 18  1  0
  3  2  1  0
  4  3  2  0
  5  4  1  0
  5  6  2  0
  6  1  1  0
  7  8  2  0
  8  5  1  0
  9  8  1  0
 10  9  2  0
 11 10  1  0
 12 13  2  0
 12 11  1  0
 13 14  1  0
 14 10  1  0
 14 15  2  0
 15  7  1  0
 17 16  2  0
 18 17  1  0
 19 18  2  0
 19 20  1  0
 20 21  2  0
 21 16  1  0
 22 23  2  0
 23 24  1  0
 23 20  1  0
 25 24  2  0
 26 25  1  0
 27 26  2  0
 27 22  1  0
 28 22  1  0
 29 28  2  0
 30 28  2  0
  2 31  1  0
  3 32  1  0
  4 33  1  0
  7 34  1  0
  9 35  1  0
 11 36  1  0
 12 37  1  0
 13 38  1  0
 15 39  1  0
 16 40  1  0
 17 41  1  0
 24 42  1  0
 25 43  1  0
 26 44  1  0
 27 45  1  0
 28 46  1  0
M  ISO  8  31  14  32  14  33  14  34  14  35  14  36   9  37  14  38  14
M  ISO  8  39  14  40  14  41  14  42  14  43  14  44  14  45  14  46  11
M  END
>  <minimizedAffinity>  (1) 
-6.91771126

>  <minimizedRMSD>  (1) 
1.41034722

$$$$
