
     RDKit          3D

 39 41  0  0  0  0  0  0  0  0999 V2000
   37.9088   31.6213   49.8471 C   0  0  0  0  0  0  0  0  0  0  0  0
   37.9272   31.6447   48.4477 C   0  0  0  0  0  0  0  0  0  0  0  0
   37.0807   30.8217   47.7674 C   0  0  0  0  0  0  0  0  0  0  0  0
   36.2433   30.0233   48.4971 N   0  0  0  0  0  0  0  0  0  0  0  0
   36.2278   30.0178   49.8401 C   0  0  0  0  0  0  0  0  0  0  0  0
   37.0682   30.8156   50.4992 N   0  0  0  0  0  0  0  0  0  0  0  0
   38.2100   31.1993   45.6314 C   0  0  0  0  0  0  0  0  0  0  0  0
   37.0894   30.8039   46.3260 C   0  0  0  0  0  0  0  0  0  0  0  0
   35.9514   30.4622   45.6270 C   0  0  0  0  0  0  0  0  0  0  0  0
   35.8665   30.4994   44.2516 C   0  0  0  0  0  0  0  0  0  0  0  0
   36.9677   30.8970   43.5258 C   0  0  0  0  0  0  0  0  0  0  0  0
   38.0875   31.2288   44.2359 C   0  0  0  0  0  0  0  0  0  0  0  0
   39.6658   31.6580   46.4003 S   0  0  0  0  0  0  0  0  0  0  0  0
   40.1202   32.9992   46.0722 O   0  0  0  0  0  0  0  0  0  0  0  0
   40.7114   30.9210   45.5705 O   0  0  0  0  0  0  0  0  0  0  0  0
   35.1747   29.2104   50.4918 C   0  0  0  0  0  0  0  0  0  0  0  0
   35.3700   29.1017   51.8535 F   0  0  0  0  0  0  0  0  0  0  0  0
   33.8959   29.8565   50.3869 F   0  0  0  0  0  0  0  0  0  0  0  0
   34.9654   28.0082   49.9595 F   0  0  0  0  0  0  0  0  0  0  0  0
   38.5069   32.1892   50.5765 H   0  0  0  0  0  0  0  0  0  0  0  0
   38.6047   32.4296   48.2175 H   0  0  0  0  0  0  0  0  0  0  0  0
   35.0869   30.1492   46.2255 H   0  0  0  0  0  0  0  0  0  0  0  0
   34.9328   30.2113   43.8309 H   0  0  0  0  0  0  0  0  0  0  0  0
   36.9228   30.9356   42.4632 H   0  0  0  0  0  0  0  0  0  0  0  0
   38.9453   31.5404   43.6270 H   0  0  0  0  0  0  0  0  0  0  0  0
   39.6030   28.8941   45.2128 H   0  0  0  0  0  0  0  0  0  0  0  0
   39.1145   28.6359   46.4481 S   0  0  0  0  0  0  0  0  0  0  0  0
   39.1593   27.1200   46.5756 O   0  0  0  0  0  0  0  0  0  0  0  0
   37.6899   28.9979   46.6611 O   0  0  0  0  0  0  0  0  0  0  0  0
   40.1835   29.3582   47.6603 C   0  0  0  0  0  0  0  0  0  0  0  0
   40.4312   30.7154   47.6356 C   0  0  0  0  0  0  0  0  0  0  0  0
   41.2794   31.1438   48.6369 C   0  0  0  0  0  0  0  0  0  0  0  0
   41.4729   32.2303   48.6135 H   0  0  0  0  0  0  0  0  0  0  0  0
   41.8646   30.3552   49.6040 C   0  0  0  0  0  0  0  0  0  0  0  0
   42.4906   30.8654   50.2927 H   0  0  0  0  0  0  0  0  0  0  0  0
   41.5920   29.0069   49.5917 C   0  0  0  0  0  0  0  0  0  0  0  0
   40.7514   28.5212   48.6168 C   0  0  0  0  0  0  0  0  0  0  0  0
   42.0445   28.3824   50.3427 H   0  0  0  0  0  0  0  0  0  0  0  0
   40.5052   27.4698   48.5633 H   0  0  0  0  0  0  0  0  0  0  0  0
  1  6  2  0
  2  1  1  0
  3  2  2  0
  3  4  1  0
  4  5  2  0
  5 16  1  0
  5  6  1  0
  7  8  1  0
  7 13  1  0
  8  3  1  0
  9  8  2  0
 10  9  1  0
 11 12  1  0
 11 10  2  0
 12  7  2  0
 14 13  2  0
 15 13  2  0
 16 17  1  0
 18 16  1  0
 19 16  1  0
  1 20  1  0
  2 21  1  0
  9 22  1  0
 10 23  1  0
 11 24  1  0
 12 25  1  0
 26 27  1  0
 27 28  2  0
 27 29  2  0
 27 30  1  0
 30 31  2  0
 31 32  1  0
 32 33  1  0
 32 34  2  0
 34 35  1  0
 34 36  1  0
 36 37  2  0
 37 30  1  0
 36 38  1  0
 37 39  1  0
 13 31  1  0
M  ISO  8  20  14  21  14  22  14  23  14  24  14  25  14  26  12  33  15
M  ISO  1  35  16
M  END
>  <DihAtoms>  (1) 
6,12,30,29

>  <DihDeg>  (1) 
-169.84849309518816

$$$$
