
     RDKit          3D

 48 51  0  0  0  0  0  0  0  0999 V2000
   34.1190   29.3340   48.1740 C   0  0  0  0  0  0  0  0  0  0  0  0
   33.8560   27.9800   48.7430 C   0  0  0  0  0  0  0  0  0  0  0  0
   32.5240   27.4360   48.3570 C   0  0  0  0  0  0  0  0  0  0  0  0
   32.4240   26.6940   47.1970 C   0  0  0  0  0  0  0  0  0  0  0  0
   31.2450   26.1620   46.7730 C   0  0  0  0  0  0  0  0  0  0  0  0
   30.1610   26.3600   47.4920 N   0  0  0  0  0  0  0  0  0  0  0  0
   30.2290   27.0850   48.6350 C   0  0  0  0  0  0  0  0  0  0  0  0
   31.3960   27.6170   49.0640 N   0  0  0  0  0  0  0  0  0  0  0  0
   27.9120   27.9170   48.9100 C   0  0  0  0  0  0  0  0  0  0  0  0
   29.0380   27.3270   49.4640 C   0  0  0  0  0  0  0  0  0  0  0  0
   29.0150   26.9750   50.8180 C   0  0  0  0  0  0  0  0  0  0  0  0
   27.9180   27.1870   51.6230 C   0  0  0  0  0  0  0  0  0  0  0  0
   26.7950   27.7630   51.1140 C   0  0  0  0  0  0  0  0  0  0  0  0
   26.8320   28.1060   49.7800 C   0  0  0  0  0  0  0  0  0  0  0  0
   27.8320   28.3930   47.2510 S   0  0  0  0  0  0  0  0  0  0  0  0
   26.3690   28.4980   46.8580 O   0  0  0  0  0  0  0  0  0  0  0  0
   28.4010   29.7970   47.1390 O   0  0  0  0  0  0  0  0  0  0  0  0
   34.3460   30.2720   49.2140 O   0  0  0  0  0  0  0  0  0  0  0  0
   37.2850   29.9710   51.3020 C   0  0  0  0  0  0  0  0  0  0  0  0
   38.2000   30.7380   50.5370 C   0  0  0  0  0  0  0  0  0  0  0  0
   37.7550   31.3030   49.3660 C   0  0  0  0  0  0  0  0  0  0  0  0
   36.4410   31.0700   49.0380 N   0  0  0  0  0  0  0  0  0  0  0  0
   35.5930   30.3490   49.7610 C   0  0  0  0  0  0  0  0  0  0  0  0
   36.0270   29.7930   50.9120 N   0  0  0  0  0  0  0  0  0  0  0  0
   38.9440   33.8920   49.8500 F   0  0  0  0  0  0  0  0  0  0  0  0
   39.1130   33.3160   48.6660 C   0  0  0  0  0  0  0  0  0  0  0  0
   38.5460   32.1080   48.4720 C   0  0  0  0  0  0  0  0  0  0  0  0
   38.7850   31.5880   47.1890 C   0  0  0  0  0  0  0  0  0  0  0  0
   39.5240   32.2510   46.2360 C   0  0  0  0  0  0  0  0  0  0  0  0
   40.0700   33.4680   46.4940 C   0  0  0  0  0  0  0  0  0  0  0  0
   39.8590   34.0120   47.7380 C   0  0  0  0  0  0  0  0  0  0  0  0
   35.0071   29.2888   47.5265 H   0  0  0  0  0  0  0  0  0  0  0  0
   33.2421   29.6526   47.5913 H   0  0  0  0  0  0  0  0  0  0  0  0
   34.6340   27.2910   48.3826 H   0  0  0  0  0  0  0  0  0  0  0  0
   33.8680   28.0752   49.8388 H   0  0  0  0  0  0  0  0  0  0  0  0
   33.3289   26.5269   46.5943 H   0  0  0  0  0  0  0  0  0  0  0  0
   31.1992   25.5755   45.8435 H   0  0  0  0  0  0  0  0  0  0  0  0
   29.9098   26.5099   51.2574 H   0  0  0  0  0  0  0  0  0  0  0  0
   27.9496   26.8896   52.6816 H   0  0  0  0  0  0  0  0  0  0  0  0
   25.9051   27.9451   51.7345 H   0  0  0  0  0  0  0  0  0  0  0  0
   25.9285   28.5718   49.3596 H   0  0  0  0  0  0  0  0  0  0  0  0
   28.5095   27.4965   46.4673 H   0  0  0  0  0  0  0  0  0  0  0  0
   37.6250   29.5117   52.2419 H   0  0  0  0  0  0  0  0  0  0  0  0
   39.2385   30.8770   50.8720 H   0  0  0  0  0  0  0  0  0  0  0  0
   38.3617   30.6052   46.9343 H   0  0  0  0  0  0  0  0  0  0  0  0
   39.6750   31.7882   45.2496 H   0  0  0  0  0  0  0  0  0  0  0  0
   40.6606   33.9995   45.7333 H   0  0  0  0  0  0  0  0  0  0  0  0
   40.2819   34.9952   47.9918 H   0  0  0  0  0  0  0  0  0  0  0  0
  1  2  1  0
  1 18  1  0
  3  2  1  0
  3  8  1  0
  4  3  2  0
  5  4  1  0
  5  6  2  0
  6  7  1  0
  7  8  2  0
  7 10  1  0
  9 10  2  0
  9 14  1  0
 10 11  1  0
 11 12  2  0
 13 12  1  0
 14 13  2  0
 15  9  1  0
 16 15  2  0
 17 15  2  0
 18 23  1  0
 20 19  2  0
 21 20  1  0
 22 21  2  0
 22 23  1  0
 23 24  2  0
 24 19  1  0
 26 25  1  0
 27 26  2  0
 27 21  1  0
 28 27  1  0
 29 30  1  0
 29 28  2  0
 30 31  2  0
 31 26  1  0
  1 32  1  0
  1 33  1  0
  2 34  1  0
  2 35  1  0
  4 36  1  0
  5 37  1  0
 11 38  1  0
 12 39  1  0
 13 40  1  0
 14 41  1  0
 15 42  1  0
 19 43  1  0
 20 44  1  0
 28 45  1  0
 29 46  1  0
 30 47  1  0
 31 48  1  0
M  ISO  8  32   8  33   8  34   8  35   8  36  14  37  14  38  14  39  14
M  ISO  8  40  14  41  14  42  11  43  14  44  14  45  14  46  14  47  14
M  ISO  1  48  14
M  END
>  <minimizedAffinity>  (1) 
-8.06891537

>  <minimizedRMSD>  (1) 
3.66982985

$$$$
