
     RDKit          3D

 30 31  0  0  0  0  0  0  0  0999 V2000
   37.3254   30.2024   51.4239 C   0  0  0  0  0  0  0  0  0  0  0  0
   38.0547   30.6559   50.3046 C   0  0  0  0  0  0  0  0  0  0  0  0
   37.6138   30.2868   49.0366 C   0  0  0  0  0  0  0  0  0  0  0  0
   36.4946   29.5031   48.9605 N   0  0  0  0  0  0  0  0  0  0  0  0
   35.8310   29.0943   50.0572 C   0  0  0  0  0  0  0  0  0  0  0  0
   36.2516   29.4477   51.2920 N   0  0  0  0  0  0  0  0  0  0  0  0
   34.7386   28.3173   49.7478 O   0  0  0  0  0  0  0  0  0  0  0  0
   34.1895   28.3951   48.4500 C   0  0  0  0  0  0  0  0  0  0  0  0
   33.8558   27.0284   47.9293 C   0  0  0  0  0  0  0  0  0  0  0  0
   37.6362   30.4675   52.4151 H   0  0  0  0  0  0  0  0  0  0  0  0
   38.9380   31.2765   50.4196 H   0  0  0  0  0  0  0  0  0  0  0  0
   38.1273   30.5990   48.1360 H   0  0  0  0  0  0  0  0  0  0  0  0
   34.9618   28.8123   47.7388 H   0  0  0  0  0  0  0  0  0  0  0  0
   33.3304   29.0705   48.3570 H   0  0  0  0  0  0  0  0  0  0  0  0
   34.7795   26.3966   47.9185 H   0  0  0  0  0  0  0  0  0  0  0  0
   33.1603   26.5029   48.6102 H   0  0  0  0  0  0  0  0  0  0  0  0
   32.2341   25.0992   48.8070 H   0  0  0  0  0  0  0  0  0  0  0  0
   31.4800   25.1681   47.6701 S   0  0  0  0  0  0  0  0  0  0  0  0
   30.0562   25.5377   48.0210 O   0  0  0  0  0  0  0  0  0  0  0  0
   31.4874   23.7584   47.1020 O   0  0  0  0  0  0  0  0  0  0  0  0
   32.1712   26.2055   46.4635 C   0  0  0  0  0  0  0  0  0  0  0  0
   33.2688   27.0681   46.5687 C   0  0  0  0  0  0  0  0  0  0  0  0
   33.6552   27.8076   45.4776 C   0  0  0  0  0  0  0  0  0  0  0  0
   34.5106   28.4382   45.6672 H   0  0  0  0  0  0  0  0  0  0  0  0
   32.9761   27.7095   44.2848 C   0  0  0  0  0  0  0  0  0  0  0  0
   33.3340   28.3258   43.4506 H   0  0  0  0  0  0  0  0  0  0  0  0
   31.8898   26.8742   44.1332 C   0  0  0  0  0  0  0  0  0  0  0  0
   31.4945   26.1199   45.2436 C   0  0  0  0  0  0  0  0  0  0  0  0
   31.3819   26.8247   43.1801 H   0  0  0  0  0  0  0  0  0  0  0  0
   30.6343   25.4948   45.0303 H   0  0  0  0  0  0  0  0  0  0  0  0
  2  1  2  0
  3  2  1  0
  4  3  2  0
  4  5  1  0
  5  6  2  0
  6  1  1  0
  7  5  1  0
  8  7  1  0
  9  8  1  0
  1 10  1  0
  2 11  1  0
  3 12  1  0
  8 13  1  0
  8 14  1  0
  9 15  1  0
  9 16  1  0
 17 18  1  0
 18 19  2  0
 18 20  2  0
 18 21  1  0
 21 22  2  0
 22 23  1  0
 23 24  1  0
 23 25  2  0
 25 26  1  0
 25 27  1  0
 27 28  2  0
 28 21  1  0
 27 29  1  0
 28 30  1  0
  9 22  1  0
M  ISO  8  10  14  11  14  12  14  13   8  14   8  15   8  16   8  17  12
M  ISO  2  24  15  26  16
M  END
>  <DihAtoms>  (1) 
7,8,21,20

>  <DihDeg>  (1) 
-76.35719983573183

$$$$
