
     RDKit          3D

 44 46  0  0  1  0  0  0  0  0999 V2000
   38.5830   32.1140   47.7660 C   0  0  2  0  0  0  0  0  0  0  0  0
   37.9700   31.0610   48.6630 C   0  0  1  0  0  0  0  0  0  0  0  0
   38.5530   31.5360   50.0000 C   0  0  0  0  0  0  0  0  0  0  0  0
   38.2340   32.8860   49.9660 O   0  0  0  0  0  0  0  0  0  0  0  0
   38.4650   33.3260   48.6870 C   0  0  0  0  0  0  0  0  0  0  0  0
   36.6000   31.2920   48.6680 O   0  0  0  0  0  0  0  0  0  0  0  0
   35.6060   29.4080   47.1740 O   0  0  0  0  0  0  0  0  0  0  0  0
   35.7050   29.8730   48.6020 P   0  0  1  0  0  0  0  0  0  0  0  0
   36.4990   28.6450   49.5000 O   0  0  0  0  0  0  0  0  0  0  0  0
   34.1590   30.1270   49.2530 O   0  0  0  0  0  0  0  0  0  0  0  0
   33.8020   28.9660   49.9150 C   0  0  0  0  0  0  0  0  0  0  0  0
   32.9080   28.0900   49.1230 C   0  0  0  0  0  0  0  0  0  0  0  0
   33.5110   27.2050   48.2630 C   0  0  0  0  0  0  0  0  0  0  0  0
   32.7190   26.3520   47.4900 C   0  0  0  0  0  0  0  0  0  0  0  0
   31.3680   26.4540   47.6410 N   0  0  0  0  0  0  0  0  0  0  0  0
   30.7980   27.3310   48.4940 C   0  0  0  0  0  0  0  0  0  0  0  0
   31.5690   28.1580   49.2430 N   0  0  0  0  0  0  0  0  0  0  0  0
   37.8210   32.2210   46.6320 O   0  0  0  0  0  0  0  0  0  0  0  0
   38.9880   31.9440   44.6210 C   0  0  0  0  0  0  0  0  0  0  0  0
   37.9320   31.5830   45.4330 C   0  0  0  0  0  0  0  0  0  0  0  0
   37.0890   30.6050   44.9420 C   0  0  0  0  0  0  0  0  0  0  0  0
   37.2580   30.0000   43.7200 C   0  0  0  0  0  0  0  0  0  0  0  0
   38.3300   30.4110   42.9700 C   0  0  0  0  0  0  0  0  0  0  0  0
   39.2300   31.3880   43.3820 C   0  0  0  0  0  0  0  0  0  0  0  0
   40.1240   33.1770   45.1390 S   0  0  0  0  0  0  0  0  0  0  0  0
   41.4620   32.5470   45.3600 O   0  0  0  0  0  0  0  0  0  0  0  0
   40.2460   34.2850   44.1640 O   0  0  0  0  0  0  0  0  0  0  0  0
   39.6067   31.9406   47.4027 H   0  0  0  0  0  0  0  0  0  0  0  0
   38.1508   30.0061   48.4089 H   0  0  0  0  0  0  0  0  0  0  0  0
   38.0748   31.0297   50.8514 H   0  0  0  0  0  0  0  0  0  0  0  0
   39.6258   31.3276   50.1254 H   0  0  0  0  0  0  0  0  0  0  0  0
   39.3997   33.9053   48.6580 H   0  0  0  0  0  0  0  0  0  0  0  0
   37.6357   33.9686   48.3563 H   0  0  0  0  0  0  0  0  0  0  0  0
   36.3865   28.8190   50.4681 H   0  0  0  0  0  0  0  0  0  0  0  0
   34.7175   28.4052   50.1544 H   0  0  0  0  0  0  0  0  0  0  0  0
   33.2493   29.2634   50.8184 H   0  0  0  0  0  0  0  0  0  0  0  0
   34.6075   27.1681   48.1835 H   0  0  0  0  0  0  0  0  0  0  0  0
   33.1659   25.6301   46.7906 H   0  0  0  0  0  0  0  0  0  0  0  0
   29.7024   27.3752   48.5822 H   0  0  0  0  0  0  0  0  0  0  0  0
   36.2361   30.2937   45.5630 H   0  0  0  0  0  0  0  0  0  0  0  0
   36.5668   29.2234   43.3606 H   0  0  0  0  0  0  0  0  0  0  0  0
   38.4868   29.9417   41.9876 H   0  0  0  0  0  0  0  0  0  0  0  0
   40.0817   31.6980   42.7587 H   0  0  0  0  0  0  0  0  0  0  0  0
   39.6476   33.7199   46.3031 H   0  0  0  0  0  0  0  0  0  0  0  0
  1  2  1  0
  1  5  1  0
  2  6  1  0
  2  3  1  0
  4  3  1  0
  5  4  1  0
  8  7  2  0
  8  6  1  0
  8 10  1  0
  8  9  1  0
 10 11  1  0
 12 17  1  0
 12 11  1  0
 13 12  2  0
 14 15  2  0
 14 13  1  0
 15 16  1  0
 16 17  2  0
 18  1  1  0
 19 25  1  0
 19 20  2  0
 20 18  1  0
 21 20  1  0
 22 21  2  0
 23 24  2  0
 23 22  1  0
 24 19  1  0
 25 26  2  0
 27 25  2  0
  1 28  1  6
  2 29  1  6
  3 30  1  0
  3 31  1  0
  5 32  1  0
  5 33  1  0
  9 34  1  0
 11 35  1  0
 11 36  1  0
 13 37  1  0
 14 38  1  0
 16 39  1  0
 21 40  1  0
 22 41  1  0
 23 42  1  0
 24 43  1  0
 25 44  1  0
M  ISO  8  28  13  29  13  30  13  31  13  32  13  33  13  34   3  35   8
M  ISO  8  36   8  37  14  38  14  39  14  40  14  41  14  42  14  43  14
M  ISO  1  44  11
M  END
>  <minimizedAffinity>  (1) 
-4.71723747

>  <minimizedRMSD>  (1) 
1.37514853

$$$$
