
     RDKit          3D

 38 40  0  0  1  0  0  0  0  0999 V2000
   37.8610   31.3980   49.5160 C   0  0  1  0  0  0  0  0  0  0  0  0
   36.9400   32.3420   50.1130 C   0  0  0  0  0  0  0  0  0  0  0  0
   36.4230   31.1450   49.4240 C   0  0  2  0  0  0  0  0  0  0  0  0
   38.5740   31.7390   48.2410 C   0  0  0  0  0  0  0  0  0  0  0  0
   39.0740   33.0600   48.1520 C   0  0  0  0  0  0  0  0  0  0  0  0
   39.7290   33.3410   46.9720 C   0  0  0  0  0  0  0  0  0  0  0  0
   39.8560   32.3810   46.0020 N   0  0  0  0  0  0  0  0  0  0  0  0
   39.3620   31.1380   46.1390 C   0  0  0  0  0  0  0  0  0  0  0  0
   38.7020   30.8150   47.2930 N   0  0  0  0  0  0  0  0  0  0  0  0
   39.5000   30.1450   45.1630 N   0  0  0  0  0  0  0  0  0  0  0  0
   35.9210   30.1240   50.2290 O   0  0  0  0  0  0  0  0  0  0  0  0
   34.7260   27.9570   49.5810 O   0  0  0  0  0  0  0  0  0  0  0  0
   34.5230   29.4660   49.5200 P   0  0  1  0  0  0  0  0  0  0  0  0
   33.2270   29.7550   50.5610 O   0  0  0  0  0  0  0  0  0  0  0  0
   34.3580   30.0630   48.0110 O   0  0  0  0  0  0  0  0  0  0  0  0
   33.3810   29.1260   45.9060 C   0  0  0  0  0  0  0  0  0  0  0  0
   34.2790   29.7290   46.7450 C   0  0  0  0  0  0  0  0  0  0  0  0
   35.4820   30.1270   46.1280 C   0  0  0  0  0  0  0  0  0  0  0  0
   35.7240   29.9140   44.7610 C   0  0  0  0  0  0  0  0  0  0  0  0
   34.7310   29.2910   44.0210 C   0  0  0  0  0  0  0  0  0  0  0  0
   33.5340   28.8800   44.5630 C   0  0  0  0  0  0  0  0  0  0  0  0
   31.9170   28.6490   46.6830 S   0  0  0  0  0  0  0  0  0  0  0  0
   30.8600   28.2590   45.6460 O   0  0  0  0  0  0  0  0  0  0  0  0
   32.2120   27.3530   47.4190 O   0  0  0  0  0  0  0  0  0  0  0  0
   38.7381   30.8563   49.8997 H   0  0  0  0  0  0  0  0  0  0  0  0
   36.8664   32.4211   51.2077 H   0  0  0  0  0  0  0  0  0  0  0  0
   36.7698   33.4250   50.0231 H   0  0  0  0  0  0  0  0  0  0  0  0
   35.7073   30.9597   48.6095 H   0  0  0  0  0  0  0  0  0  0  0  0
   38.9504   33.8000   48.9564 H   0  0  0  0  0  0  0  0  0  0  0  0
   40.1527   34.3427   46.8077 H   0  0  0  0  0  0  0  0  0  0  0  0
   39.1010   29.2086   45.3210 H   0  0  0  0  0  0  0  0  0  0  0  0
   40.0006   30.3504   44.2866 H   0  0  0  0  0  0  0  0  0  0  0  0
   33.5356   29.6862   51.4992 H   0  0  0  0  0  0  0  0  0  0  0  0
   36.2552   30.6196   46.7358 H   0  0  0  0  0  0  0  0  0  0  0  0
   36.6683   30.2304   44.2939 H   0  0  0  0  0  0  0  0  0  0  0  0
   34.9079   29.1167   42.9494 H   0  0  0  0  0  0  0  0  0  0  0  0
   32.7542   28.3888   43.9625 H   0  0  0  0  0  0  0  0  0  0  0  0
   31.4811   29.6761   47.4780 H   0  0  0  0  0  0  0  0  0  0  0  0
  1  2  1  0
  3  1  1  0
  3  2  1  0
  3 11  1  0
  4  1  1  0
  5  4  2  0
  6  5  1  0
  7  8  1  0
  7  6  2  0
  8  9  2  0
  9  4  1  0
 10  8  1  0
 13 12  2  0
 13 11  1  0
 13 14  1  0
 15 13  1  0
 16 22  1  0
 16 17  2  0
 17 15  1  0
 18 17  1  0
 19 18  2  0
 20 21  2  0
 20 19  1  0
 21 16  1  0
 22 24  2  0
 23 22  2  0
  1 25  1  1
  2 26  1  0
  2 27  1  0
  3 28  1  6
  5 29  1  0
  6 30  1  0
 10 31  1  0
 10 32  1  0
 14 33  1  0
 18 34  1  0
 19 35  1  0
 20 36  1  0
 21 37  1  0
 22 38  1  0
M  ISO  8  25  13  26  13  27  13  28  13  29  14  30  14  33   3  34  14
M  ISO  4  35  14  36  14  37  14  38  11
M  END
>  <minimizedAffinity>  (1) 
-5.35501766

>  <minimizedRMSD>  (1) 
1.92448783

$$$$
