
     RDKit          3D

 52 56  0  0  0  0  0  0  0  0999 V2000
   36.9512   31.3897   47.3939 C   0  0  1  0  0  0  0  0  0  0  0  0
   38.1391   31.9932   48.0516 C   0  0  0  0  0  0  0  0  0  0  0  0
   38.4469   30.8917   47.1639 C   0  0  2  0  0  0  0  0  0  0  0  0
   39.1232   31.3741   45.9135 C   0  0  0  0  0  0  0  0  0  0  0  0
   39.6128   32.6726   46.0959 C   0  0  0  0  0  0  0  0  0  0  0  0
   40.3564   33.2694   45.1096 C   0  0  0  0  0  0  0  0  0  0  0  0
   40.6432   32.6061   43.9105 C   0  0  0  0  0  0  0  0  0  0  0  0
   40.1422   31.3209   43.7655 C   0  0  0  0  0  0  0  0  0  0  0  0
   40.3474   30.5667   42.6397 C   0  0  0  0  0  0  0  0  0  0  0  0
   39.8561   29.2958   42.4752 C   0  0  0  0  0  0  0  0  0  0  0  0
   39.1093   28.7378   43.5029 C   0  0  0  0  0  0  0  0  0  0  0  0
   38.9016   29.4944   44.6370 C   0  0  0  0  0  0  0  0  0  0  0  0
   39.4142   30.7660   44.7578 C   0  0  0  0  0  0  0  0  0  0  0  0
   34.4301   28.7608   48.3819 C   0  0  0  0  0  0  0  0  0  0  0  0
   35.1796   29.6807   47.5950 C   0  0  0  0  0  0  0  0  0  0  0  0
   36.1637   30.4124   48.1872 C   0  0  0  0  0  0  0  0  0  0  0  0
   36.3582   30.1952   49.5395 N   0  0  0  0  0  0  0  0  0  0  0  0
   35.6459   29.3281   50.2648 C   0  0  0  0  0  0  0  0  0  0  0  0
   34.6718   28.5968   49.7017 N   0  0  0  0  0  0  0  0  0  0  0  0
   35.9818   29.2110   51.7319 C   0  0  0  0  0  0  0  0  0  0  0  0
   37.3475   29.8946   51.9341 C   0  0  0  0  0  0  0  0  0  0  0  0
   36.4820   31.7571   46.4916 H   0  0  0  0  0  0  0  0  0  0  0  0
   38.2151   31.7435   49.1703 H   0  0  0  0  0  0  0  0  0  0  0  0
   38.1356   33.0665   47.9014 H   0  0  0  0  0  0  0  0  0  0  0  0
   38.4655   29.8217   47.3269 H   0  0  0  0  0  0  0  0  0  0  0  0
   39.5859   33.4131   46.8678 H   0  0  0  0  0  0  0  0  0  0  0  0
   40.8100   34.2499   45.0733 H   0  0  0  0  0  0  0  0  0  0  0  0
   41.2116   32.9573   43.0572 H   0  0  0  0  0  0  0  0  0  0  0  0
   40.9301   30.9913   41.8269 H   0  0  0  0  0  0  0  0  0  0  0  0
   40.0498   28.7443   41.5601 H   0  0  0  0  0  0  0  0  0  0  0  0
   38.6962   27.7509   43.4400 H   0  0  0  0  0  0  0  0  0  0  0  0
   38.3050   29.0320   45.4432 H   0  0  0  0  0  0  0  0  0  0  0  0
   33.6458   28.1742   47.9189 H   0  0  0  0  0  0  0  0  0  0  0  0
   34.9219   29.7476   46.5566 H   0  0  0  0  0  0  0  0  0  0  0  0
   35.2061   29.6105   52.3820 H   0  0  0  0  0  0  0  0  0  0  0  0
   36.1494   28.1352   51.9776 H   0  0  0  0  0  0  0  0  0  0  0  0
   37.2626   30.9563   51.6414 H   0  0  0  0  0  0  0  0  0  0  0  0
   38.0684   29.4388   51.2525 H   0  0  0  0  0  0  0  0  0  0  0  0
   35.6582   27.7457   52.2291 H   0  0  0  0  0  0  0  0  0  0  0  0
   36.2062   27.4603   53.4437 S   0  0  0  0  0  0  0  0  0  0  0  0
   35.0314   27.2989   54.3905 O   0  0  0  0  0  0  0  0  0  0  0  0
   36.9066   26.1129   53.4346 O   0  0  0  0  0  0  0  0  0  0  0  0
   37.2382   28.7323   54.0434 C   0  0  0  0  0  0  0  0  0  0  0  0
   37.7451   29.8217   53.3664 C   0  0  0  0  0  0  0  0  0  0  0  0
   38.5524   30.7353   54.0114 C   0  0  0  0  0  0  0  0  0  0  0  0
   38.9248   31.5736   53.4329 H   0  0  0  0  0  0  0  0  0  0  0  0
   38.8727   30.5818   55.3503 C   0  0  0  0  0  0  0  0  0  0  0  0
   39.5170   31.3178   55.8504 H   0  0  0  0  0  0  0  0  0  0  0  0
   38.3679   29.4926   56.0344 C   0  0  0  0  0  0  0  0  0  0  0  0
   37.5530   28.5691   55.3848 C   0  0  0  0  0  0  0  0  0  0  0  0
   38.6604   29.4335   57.0853 H   0  0  0  0  0  0  0  0  0  0  0  0
   37.2355   27.7669   56.0589 H   0  0  0  0  0  0  0  0  0  0  0  0
  1  2  1  0
  1 16  1  0
  3  1  1  0
  3  2  1  0
  4  5  2  0
  4  3  1  0
  6  5  1  0
  7  6  2  0
  8  7  1  0
  8 13  2  0
  9  8  1  0
 10  9  2  0
 10 11  1  0
 11 12  2  0
 12 13  1  0
 13  4  1  0
 14 19  2  0
 15 16  2  0
 15 14  1  0
 16 17  1  0
 17 18  2  0
 18 20  1  0
 19 18  1  0
 20 21  1  0
  1 22  1  6
  2 23  1  0
  2 24  1  0
  3 25  1  1
  5 26  1  0
  6 27  1  0
  7 28  1  0
  9 29  1  0
 10 30  1  0
 11 31  1  0
 12 32  1  0
 14 33  1  0
 15 34  1  0
 20 35  1  0
 20 36  1  0
 21 37  1  0
 21 38  1  0
 39 40  1  0
 40 41  2  0
 40 42  2  0
 40 43  1  0
 43 44  2  0
 44 45  1  0
 45 46  1  0
 45 47  2  0
 47 48  1  0
 47 49  1  0
 49 50  2  0
 50 43  1  0
 49 51  1  0
 50 52  1  0
 21 44  1  0
M  ISO  8  22  13  23  13  24  13  25  13  26  14  27  14  28  14  29  14
M  ISO  8  30  14  31  14  32  14  33  14  34  14  35   8  36   8  37   8
M  ISO  4  38   8  39  12  46  15  48  16
M  END
>  <DihAtoms>  (1) 
19,20,43,42

>  <DihDeg>  (1) 
-76.58296063888356

$$$$
