
     RDKit          3D

 45 49  0  0  0  0  0  0  0  0999 V2000
   37.1030   29.5470   49.9130 C   0  0  0  0  0  0  0  0  0  0  0  0
   37.8060   29.0010   50.8020 O   0  0  0  0  0  0  0  0  0  0  0  0
   37.5890   30.5880   49.0430 C   0  0  0  0  0  0  0  0  0  0  0  0
   38.2330   31.6730   49.6470 C   0  0  0  0  0  0  0  0  0  0  0  0
   38.7210   32.7030   48.8520 C   0  0  0  0  0  0  0  0  0  0  0  0
   38.5310   32.5740   47.5050 N   0  0  0  0  0  0  0  0  0  0  0  0
   37.9140   31.5310   46.9450 C   0  0  0  0  0  0  0  0  0  0  0  0
   37.4470   30.5470   47.7100 N   0  0  0  0  0  0  0  0  0  0  0  0
   38.6810   32.2450   44.6600 C   0  0  0  0  0  0  0  0  0  0  0  0
   37.8130   31.5770   45.4930 C   0  0  0  0  0  0  0  0  0  0  0  0
   36.7880   30.9200   44.8510 C   0  0  0  0  0  0  0  0  0  0  0  0
   36.6250   30.9200   43.4710 C   0  0  0  0  0  0  0  0  0  0  0  0
   37.5130   31.5980   42.6690 C   0  0  0  0  0  0  0  0  0  0  0  0
   38.5460   32.2610   43.2980 C   0  0  0  0  0  0  0  0  0  0  0  0
   40.0120   33.1070   45.3600 S   0  0  0  0  0  0  0  0  0  0  0  0
   40.2840   34.3950   44.6170 O   0  0  0  0  0  0  0  0  0  0  0  0
   41.2630   32.2900   45.3200 O   0  0  0  0  0  0  0  0  0  0  0  0
   35.7240   29.1180   49.7370 C   0  0  0  0  0  0  0  0  0  0  0  0
   34.7250   29.5470   50.5400 C   0  0  0  0  0  0  0  0  0  0  0  0
   33.5420   28.9430   50.0900 C   0  0  0  0  0  0  0  0  0  0  0  0
   33.9260   28.1580   49.0000 C   0  0  0  0  0  0  0  0  0  0  0  0
   35.2040   28.3170   48.8650 O   0  0  0  0  0  0  0  0  0  0  0  0
   33.3590   26.3220   47.4180 C   0  0  0  0  0  0  0  0  0  0  0  0
   32.9680   27.3510   48.2350 C   0  0  0  0  0  0  0  0  0  0  0  0
   31.6470   27.6880   48.3940 C   0  0  0  0  0  0  0  0  0  0  0  0
   30.7050   26.9570   47.7030 C   0  0  0  0  0  0  0  0  0  0  0  0
   29.3570   27.0510   47.6640 N   0  0  0  0  0  0  0  0  0  0  0  0
   28.9110   26.1030   46.8440 N   0  0  0  0  0  0  0  0  0  0  0  0
   29.9470   25.4130   46.3630 C   0  0  0  0  0  0  0  0  0  0  0  0
   31.1210   25.9290   46.8910 C   0  0  0  0  0  0  0  0  0  0  0  0
   32.4470   25.5770   46.7190 C   0  0  0  0  0  0  0  0  0  0  0  0
   38.3519   31.7105   50.7399 H   0  0  0  0  0  0  0  0  0  0  0  0
   39.2329   33.5756   49.2840 H   0  0  0  0  0  0  0  0  0  0  0  0
   36.0601   30.3662   45.4620 H   0  0  0  0  0  0  0  0  0  0  0  0
   35.7829   30.3759   43.0185 H   0  0  0  0  0  0  0  0  0  0  0  0
   37.4042   31.6109   41.5745 H   0  0  0  0  0  0  0  0  0  0  0  0
   39.2777   32.8150   42.6916 H   0  0  0  0  0  0  0  0  0  0  0  0
   39.6618   33.3768   46.6567 H   0  0  0  0  0  0  0  0  0  0  0  0
   34.8218   30.2406   51.3883 H   0  0  0  0  0  0  0  0  0  0  0  0
   32.5304   29.0617   50.5055 H   0  0  0  0  0  0  0  0  0  0  0  0
   34.4298   26.0894   47.3217 H   0  0  0  0  0  0  0  0  0  0  0  0
   31.3491   28.5167   49.0532 H   0  0  0  0  0  0  0  0  0  0  0  0
   28.7797   27.7330   48.1763 H   0  0  0  0  0  0  0  0  0  0  0  0
   29.8804   24.5696   45.6600 H   0  0  0  0  0  0  0  0  0  0  0  0
   32.7507   24.7494   46.0611 H   0  0  0  0  0  0  0  0  0  0  0  0
  1  2  2  0
  3  4  2  0
  3  1  1  0
  5  4  1  0
  6  5  2  0
  7  6  1  0
  7  8  2  0
  8  3  1  0
  9 15  1  0
  9 10  2  0
 10  7  1  0
 11 10  1  0
 12 11  2  0
 13 14  2  0
 13 12  1  0
 14  9  1  0
 16 15  2  0
 17 15  2  0
 18  1  1  0
 18 19  2  0
 20 19  1  0
 21 20  2  0
 22 21  1  0
 22 18  1  0
 23 24  2  0
 24 25  1  0
 24 21  1  0
 26 25  2  0
 27 26  1  0
 28 27  1  0
 29 28  2  0
 29 30  1  0
 30 26  1  0
 31 30  2  0
 31 23  1  0
  4 32  1  0
  5 33  1  0
 11 34  1  0
 12 35  1  0
 13 36  1  0
 14 37  1  0
 15 38  1  0
 19 39  1  0
 20 40  1  0
 23 41  1  0
 25 42  1  0
 27 43  1  0
 29 44  1  0
 31 45  1  0
M  END
>  <minimizedAffinity>  (1) 
-7.0844326

>  <minimizedRMSD>  (1) 
1.05955625

$$$$
