
     RDKit          3D

 26 27  0  0  0  0  0  0  0  0999 V2000
   38.3013   31.2456   50.1229 C   0  0  0  0  0  0  0  0  0  0  0  0
   38.2799   31.6138   48.7586 C   0  0  0  0  0  0  0  0  0  0  0  0
   37.2004   31.2205   47.9863 C   0  0  0  0  0  0  0  0  0  0  0  0
   36.2408   30.5040   48.6162 N   0  0  0  0  0  0  0  0  0  0  0  0
   36.2697   30.1612   49.9046 C   0  0  0  0  0  0  0  0  0  0  0  0
   37.3020   30.5347   50.6524 N   0  0  0  0  0  0  0  0  0  0  0  0
   35.1339   29.3738   50.4352 C   0  0  0  0  0  0  0  0  0  0  0  0
   35.2601   29.1157   51.7980 F   0  0  0  0  0  0  0  0  0  0  0  0
   33.9224   30.0724   50.3010 F   0  0  0  0  0  0  0  0  0  0  0  0
   34.9384   28.1701   49.8289 F   0  0  0  0  0  0  0  0  0  0  0  0
   39.0969   31.5124   50.7747 H   0  0  0  0  0  0  0  0  0  0  0  0
   39.0960   32.1866   48.3544 H   0  0  0  0  0  0  0  0  0  0  0  0
   38.2779   34.1529   48.0600 H   0  0  0  0  0  0  0  0  0  0  0  0
   37.1675   34.1954   47.2815 S   0  0  0  0  0  0  0  0  0  0  0  0
   35.8851   34.3061   48.0959 O   0  0  0  0  0  0  0  0  0  0  0  0
   37.2421   35.4985   46.5177 O   0  0  0  0  0  0  0  0  0  0  0  0
   37.0676   32.8583   46.1594 C   0  0  0  0  0  0  0  0  0  0  0  0
   37.0903   31.5531   46.5734 C   0  0  0  0  0  0  0  0  0  0  0  0
   37.0049   30.5976   45.5949 C   0  0  0  0  0  0  0  0  0  0  0  0
   37.0145   29.5402   45.8197 H   0  0  0  0  0  0  0  0  0  0  0  0
   36.8994   30.8598   44.2454 C   0  0  0  0  0  0  0  0  0  0  0  0
   36.8330   30.0963   43.4884 H   0  0  0  0  0  0  0  0  0  0  0  0
   36.8759   32.1715   43.8218 C   0  0  0  0  0  0  0  0  0  0  0  0
   36.9613   33.1418   44.7968 C   0  0  0  0  0  0  0  0  0  0  0  0
   36.7946   32.4294   42.7760 H   0  0  0  0  0  0  0  0  0  0  0  0
   36.9395   34.1717   44.4238 H   0  0  0  0  0  0  0  0  0  0  0  0
  1  6  2  0
  2  1  1  0
  3  4  1  0
  3  2  2  0
  4  5  2  0
  5  7  1  0
  5  6  1  0
  7  8  1  0
  9  7  1  0
 10  7  1  0
  1 11  1  0
  2 12  1  0
 13 14  1  0
 14 15  2  0
 14 16  2  0
 14 17  1  0
 17 18  2  0
 18 19  1  0
 19 20  1  0
 19 21  2  0
 21 22  1  0
 21 23  1  0
 23 24  2  0
 24 17  1  0
 23 25  1  0
 24 26  1  0
  3 18  1  0
M  ISO  5  11  14  12  14  13  12  20  15  22  16
M  END
>  <DihAtoms>  (1) 
3,2,17,16

>  <DihDeg>  (1) 
0.058799441221521184

$$$$
