
     RDKit          3D

 26 27  0  0  0  0  0  0  0  0999 V2000
   38.3013   31.2456   50.1229 C   0  0  0  0  0  0  0  0  0  0  0  0
   38.2799   31.6138   48.7586 C   0  0  0  0  0  0  0  0  0  0  0  0
   37.2004   31.2205   47.9863 C   0  0  0  0  0  0  0  0  0  0  0  0
   36.2408   30.5040   48.6162 N   0  0  0  0  0  0  0  0  0  0  0  0
   36.2697   30.1612   49.9046 C   0  0  0  0  0  0  0  0  0  0  0  0
   37.3020   30.5347   50.6524 N   0  0  0  0  0  0  0  0  0  0  0  0
   35.1339   29.3738   50.4352 C   0  0  0  0  0  0  0  0  0  0  0  0
   35.2601   29.1157   51.7980 F   0  0  0  0  0  0  0  0  0  0  0  0
   33.9224   30.0724   50.3010 F   0  0  0  0  0  0  0  0  0  0  0  0
   34.9384   28.1701   49.8289 F   0  0  0  0  0  0  0  0  0  0  0  0
   39.0969   31.5124   50.7747 H   0  0  0  0  0  0  0  0  0  0  0  0
   39.0960   32.1866   48.3544 H   0  0  0  0  0  0  0  0  0  0  0  0
   34.3472   30.0842   47.4085 H   0  0  0  0  0  0  0  0  0  0  0  0
   35.1194   29.6649   46.3746 S   0  0  0  0  0  0  0  0  0  0  0  0
   35.9049   28.4024   46.7046 O   0  0  0  0  0  0  0  0  0  0  0  0
   34.1622   29.2386   45.2841 O   0  0  0  0  0  0  0  0  0  0  0  0
   36.1868   30.9105   45.7695 C   0  0  0  0  0  0  0  0  0  0  0  0
   37.0903   31.5531   46.5734 C   0  0  0  0  0  0  0  0  0  0  0  0
   37.8693   32.5102   45.9778 C   0  0  0  0  0  0  0  0  0  0  0  0
   38.6114   33.0729   46.5269 H   0  0  0  0  0  0  0  0  0  0  0  0
   37.8041   32.8620   44.6462 C   0  0  0  0  0  0  0  0  0  0  0  0
   38.4244   33.6173   44.1933 H   0  0  0  0  0  0  0  0  0  0  0  0
   36.8969   32.2190   43.8313 C   0  0  0  0  0  0  0  0  0  0  0  0
   36.1074   31.2541   44.4190 C   0  0  0  0  0  0  0  0  0  0  0  0
   36.8069   32.4580   42.7818 H   0  0  0  0  0  0  0  0  0  0  0  0
   35.3989   30.7645   43.7418 H   0  0  0  0  0  0  0  0  0  0  0  0
  1  6  2  0
  2  1  1  0
  3  4  1  0
  3  2  2  0
  4  5  2  0
  5  7  1  0
  5  6  1  0
  7  8  1  0
  9  7  1  0
 10  7  1  0
  1 11  1  0
  2 12  1  0
 13 14  1  0
 14 15  2  0
 14 16  2  0
 14 17  1  0
 17 18  2  0
 18 19  1  0
 19 20  1  0
 19 21  2  0
 21 22  1  0
 21 23  1  0
 23 24  2  0
 24 17  1  0
 23 25  1  0
 24 26  1  0
  3 18  1  0
M  ISO  5  11  14  12  14  13  12  20  15  22  16
M  END
>  <DihAtoms>  (1) 
3,2,17,16

>  <DihDeg>  (1) 
0.058799441221521184

$$$$
