
     RDKit          3D

 30 31  0  0  0  0  0  0  0  0999 V2000
   32.9360   27.5760   48.4280 C   0  0  0  0  0  0  0  0  0  0  0  0
   31.1020   28.4760   47.2080 C   0  0  0  0  0  0  0  0  0  0  0  0
   31.4820   27.8630   48.4080 C   0  0  0  0  0  0  0  0  0  0  0  0
   30.5340   27.6090   49.3680 C   0  0  0  0  0  0  0  0  0  0  0  0
   29.2160   27.9510   49.1640 C   0  0  0  0  0  0  0  0  0  0  0  0
   28.7950   28.5560   47.9990 C   0  0  0  0  0  0  0  0  0  0  0  0
   29.7590   28.8150   47.0190 C   0  0  0  0  0  0  0  0  0  0  0  0
   32.0840   28.9080   45.8450 S   0  0  0  0  0  0  0  0  0  0  0  0
   31.3350   28.8380   44.5320 O   0  0  0  0  0  0  0  0  0  0  0  0
   32.5440   30.3400   46.0630 O   0  0  0  0  0  0  0  0  0  0  0  0
   33.7070   28.5770   49.2380 C   0  0  0  0  0  0  0  0  0  0  0  0
   35.0050   28.1010   49.5220 O   0  0  0  0  0  0  0  0  0  0  0  0
   37.2420   30.2560   51.3660 C   0  0  0  0  0  0  0  0  0  0  0  0
   37.9770   30.8100   50.2960 C   0  0  0  0  0  0  0  0  0  0  0  0
   37.6600   30.4100   49.0010 C   0  0  0  0  0  0  0  0  0  0  0  0
   36.6490   29.4990   48.8520 N   0  0  0  0  0  0  0  0  0  0  0  0
   35.9750   28.9980   49.9020 C   0  0  0  0  0  0  0  0  0  0  0  0
   36.2770   29.3810   51.1630 N   0  0  0  0  0  0  0  0  0  0  0  0
   33.3133   27.5922   47.3948 H   0  0  0  0  0  0  0  0  0  0  0  0
   33.0761   26.5893   48.8936 H   0  0  0  0  0  0  0  0  0  0  0  0
   30.8308   27.1267   50.3110 H   0  0  0  0  0  0  0  0  0  0  0  0
   28.4791   27.7357   49.9518 H   0  0  0  0  0  0  0  0  0  0  0  0
   27.7395   28.8252   47.8457 H   0  0  0  0  0  0  0  0  0  0  0  0
   29.4534   29.2963   46.0783 H   0  0  0  0  0  0  0  0  0  0  0  0
   33.1243   28.0206   45.7606 H   0  0  0  0  0  0  0  0  0  0  0  0
   33.7837   29.5167   48.6714 H   0  0  0  0  0  0  0  0  0  0  0  0
   33.1777   28.7438   50.1877 H   0  0  0  0  0  0  0  0  0  0  0  0
   37.4804   30.5620   52.3953 H   0  0  0  0  0  0  0  0  0  0  0  0
   38.7797   31.5391   50.4807 H   0  0  0  0  0  0  0  0  0  0  0  0
   38.2009   30.8104   48.1309 H   0  0  0  0  0  0  0  0  0  0  0  0
  1 11  1  0
  2  3  2  0
  3  1  1  0
  3  4  1  0
  5  4  2  0
  6  5  1  0
  7  2  1  0
  7  6  2  0
  8 10  2  0
  8  2  1  0
  9  8  2  0
 11 12  1  0
 12 17  1  0
 14 13  2  0
 15 14  1  0
 16 15  2  0
 16 17  1  0
 17 18  2  0
 18 13  1  0
  1 19  1  0
  1 20  1  0
  4 21  1  0
  5 22  1  0
  6 23  1  0
  7 24  1  0
  8 25  1  0
 11 26  1  0
 11 27  1  0
 13 28  1  0
 14 29  1  0
 15 30  1  0
M  ISO  8  19   8  20   8  21  14  22  14  23  14  24  14  25  11  26   8
M  ISO  4  27   8  28  14  29  14  30  14
M  END
>  <minimizedAffinity>  (1) 
-4.57274818

>  <minimizedRMSD>  (1) 
2.99187851

$$$$
