
     RDKit          3D

 33 35  0  0  0  0  0  0  0  0999 V2000
   37.5691   31.6605   48.9417 C   0  0  0  0  0  0  0  0  0  0  0  0
   38.1878   32.7315   49.5064 C   0  0  0  0  0  0  0  0  0  0  0  0
   39.0613   33.5606   48.8189 C   0  0  0  0  0  0  0  0  0  0  0  0
   39.3438   33.3195   47.4899 C   0  0  0  0  0  0  0  0  0  0  0  0
   38.7024   32.2229   46.9345 C   0  0  0  0  0  0  0  0  0  0  0  0
   37.8609   31.4455   47.6431 N   0  0  0  0  0  0  0  0  0  0  0  0
   36.9587   30.1658   50.8717 C   0  0  0  0  0  0  0  0  0  0  0  0
   36.6548   30.7932   49.6623 C   0  0  0  0  0  0  0  0  0  0  0  0
   35.3906   30.5702   49.1138 C   0  0  0  0  0  0  0  0  0  0  0  0
   34.5144   29.7578   49.7748 N   0  0  0  0  0  0  0  0  0  0  0  0
   34.8525   29.1730   50.9411 C   0  0  0  0  0  0  0  0  0  0  0  0
   36.0713   29.3699   51.4985 N   0  0  0  0  0  0  0  0  0  0  0  0
   40.1995   34.0847   46.7142 O   0  0  0  0  0  0  0  0  0  0  0  0
   38.0173   32.9835   50.5398 H   0  0  0  0  0  0  0  0  0  0  0  0
   39.5579   34.4171   49.2652 H   0  0  0  0  0  0  0  0  0  0  0  0
   38.8357   31.9252   45.9076 H   0  0  0  0  0  0  0  0  0  0  0  0
   37.9492   30.3780   51.2420 H   0  0  0  0  0  0  0  0  0  0  0  0
   35.0356   31.0015   48.1783 H   0  0  0  0  0  0  0  0  0  0  0  0
   34.1295   28.5300   51.4432 H   0  0  0  0  0  0  0  0  0  0  0  0
   40.8758   33.2119   49.7097 H   0  0  0  0  0  0  0  0  0  0  0  0
   41.2025   32.2690   48.7556 S   0  0  0  0  0  0  0  0  0  0  0  0
   39.9776   31.6792   48.1180 O   0  0  0  0  0  0  0  0  0  0  0  0
   41.9886   31.1462   49.3634 O   0  0  0  0  0  0  0  0  0  0  0  0
   42.1489   33.0128   47.4868 C   0  0  0  0  0  0  0  0  0  0  0  0
   41.5423   33.8589   46.5797 C   0  0  0  0  0  0  0  0  0  0  0  0
   42.2832   34.4511   45.5737 C   0  0  0  0  0  0  0  0  0  0  0  0
   41.8164   35.1260   44.8447 H   0  0  0  0  0  0  0  0  0  0  0  0
   43.6441   34.1699   45.5054 C   0  0  0  0  0  0  0  0  0  0  0  0
   44.2450   34.6344   44.7099 H   0  0  0  0  0  0  0  0  0  0  0  0
   44.2820   33.3242   46.4018 C   0  0  0  0  0  0  0  0  0  0  0  0
   43.5161   32.7422   47.4029 C   0  0  0  0  0  0  0  0  0  0  0  0
   45.3244   33.0890   46.3754 H   0  0  0  0  0  0  0  0  0  0  0  0
   43.9758   32.0867   48.1086 H   0  0  0  0  0  0  0  0  0  0  0  0
  1  2  2  0
  1  8  1  0
  3  2  1  0
  4  3  2  0
  5  4  1  0
  5  6  2  0
  6  1  1  0
  7 12  2  0
  8  7  1  0
  9  8  2  0
  9 10  1  0
 10 11  2  0
 11 12  1  0
 13  4  1  0
  2 14  1  0
  3 15  1  0
  5 16  1  0
  7 17  1  0
  9 18  1  0
 11 19  1  0
 20 21  1  0
 21 22  2  0
 21 23  2  0
 21 24  1  0
 24 25  2  0
 25 26  1  0
 26 27  1  0
 26 28  2  0
 28 29  1  0
 28 30  1  0
 30 31  2  0
 31 24  1  0
 30 32  1  0
 31 33  1  0
 13 25  1  0
M  ISO  8  14  14  15  14  16  14  17  14  18  14  19  14  20  12  27  15
M  ISO  1  29  16
M  END
>  <DihAtoms>  (1) 
3,12,24,23

>  <DihDeg>  (1) 
179.99988095536588

$$$$
