
     RDKit          3D

 40 43  0  0  0  0  0  0  0  0999 V2000
   33.8345   28.7901   48.2789 C   0  0  0  0  0  0  0  0  0  0  0  0
   34.4304   28.4292   49.4432 C   0  0  0  0  0  0  0  0  0  0  0  0
   35.7015   28.8007   49.8205 C   0  0  0  0  0  0  0  0  0  0  0  0
   36.4516   29.5886   48.9937 C   0  0  0  0  0  0  0  0  0  0  0  0
   35.8437   29.9664   47.7883 C   0  0  0  0  0  0  0  0  0  0  0  0
   34.5968   29.5780   47.4625 N   0  0  0  0  0  0  0  0  0  0  0  0
   31.6533   27.6460   48.6825 C   0  0  0  0  0  0  0  0  0  0  0  0
   32.5166   28.4055   47.8792 C   0  0  0  0  0  0  0  0  0  0  0  0
   32.0284   28.7710   46.6539 C   0  0  0  0  0  0  0  0  0  0  0  0
   30.7618   28.3948   46.2727 N   0  0  0  0  0  0  0  0  0  0  0  0
   29.9800   27.6583   47.1027 C   0  0  0  0  0  0  0  0  0  0  0  0
   30.4121   27.2783   48.3070 N   0  0  0  0  0  0  0  0  0  0  0  0
   37.7446   30.0502   49.2223 O   0  0  0  0  0  0  0  0  0  0  0  0
   38.1644   31.3022   48.7747 C   0  0  0  0  0  0  0  0  0  0  0  0
   37.8819   32.3251   49.6799 C   0  0  0  0  0  0  0  0  0  0  0  0
   38.3493   33.5064   49.1126 C   0  0  0  0  0  0  0  0  0  0  0  0
   38.8846   33.1741   47.9172 N   0  0  0  0  0  0  0  0  0  0  0  0
   38.7716   31.8840   47.7293 N   0  0  0  0  0  0  0  0  0  0  0  0
   33.9052   27.8058   50.1545 H   0  0  0  0  0  0  0  0  0  0  0  0
   36.1651   28.5087   50.7472 H   0  0  0  0  0  0  0  0  0  0  0  0
   36.3349   30.5876   47.0527 H   0  0  0  0  0  0  0  0  0  0  0  0
   31.9873   27.3295   49.6617 H   0  0  0  0  0  0  0  0  0  0  0  0
   32.6701   29.3624   46.0005 H   0  0  0  0  0  0  0  0  0  0  0  0
   29.0380   27.4819   46.6006 H   0  0  0  0  0  0  0  0  0  0  0  0
   37.4184   32.4301   50.6558 H   0  0  0  0  0  0  0  0  0  0  0  0
   38.3435   34.5321   49.4564 H   0  0  0  0  0  0  0  0  0  0  0  0
   40.5211   35.4770   49.8199 H   0  0  0  0  0  0  0  0  0  0  0  0
   41.2554   34.7221   48.9248 S   0  0  0  0  0  0  0  0  0  0  0  0
   42.7170   35.1048   48.9580 O   0  0  0  0  0  0  0  0  0  0  0  0
   41.1245   33.2906   49.3736 O   0  0  0  0  0  0  0  0  0  0  0  0
   40.5985   34.8368   47.3052 C   0  0  0  0  0  0  0  0  0  0  0  0
   39.4881   34.0540   46.9758 C   0  0  0  0  0  0  0  0  0  0  0  0
   38.9298   34.1047   45.7148 C   0  0  0  0  0  0  0  0  0  0  0  0
   38.0730   33.5030   45.4550 H   0  0  0  0  0  0  0  0  0  0  0  0
   39.4766   34.9483   44.7479 C   0  0  0  0  0  0  0  0  0  0  0  0
   39.0900   35.0382   43.7396 H   0  0  0  0  0  0  0  0  0  0  0  0
   40.5723   35.7163   45.0838 C   0  0  0  0  0  0  0  0  0  0  0  0
   41.1396   35.6788   46.3306 C   0  0  0  0  0  0  0  0  0  0  0  0
   41.0033   36.3816   44.3205 H   0  0  0  0  0  0  0  0  0  0  0  0
   42.0122   36.2886   46.6024 H   0  0  0  0  0  0  0  0  0  0  0  0
  1  2  2  0
  2  3  1  0
  4 13  1  0
  4  3  2  0
  5  4  1  0
  6  5  2  0
  6  1  1  0
  8  1  1  0
  8  7  2  0
  9  8  1  0
 10  9  2  0
 10 11  1  0
 11 12  2  0
 12  7  1  0
 14 13  1  0
 14 15  1  0
 16 15  2  0
 17 16  1  0
 18 17  1  0
 18 14  2  0
  2 19  1  0
  3 20  1  0
  5 21  1  0
  7 22  1  0
  9 23  1  0
 11 24  1  0
 15 25  1  0
 16 26  1  0
 27 28  1  0
 28 29  2  0
 28 30  2  0
 28 31  1  0
 31 32  2  0
 32 33  1  0
 33 34  1  0
 33 35  2  0
 35 36  1  0
 35 37  1  0
 37 38  2  0
 38 31  1  0
 37 39  1  0
 38 40  1  0
 17 32  1  0
M  ISO  8  19  14  20  14  21  14  22  14  23  14  24  14  25  14  26  14
M  ISO  3  27  12  34  15  36  16
M  END
>  <DihAtoms>  (1) 
15,16,31,30

>  <DihDeg>  (1) 
89.11623510135269

$$$$
