
     RDKit          3D

 39 41  0  0  0  0  0  0  0  0999 V2000
   37.9088   31.6213   49.8471 C   0  0  0  0  0  0  0  0  0  0  0  0
   37.9272   31.6447   48.4477 C   0  0  0  0  0  0  0  0  0  0  0  0
   37.0807   30.8217   47.7674 C   0  0  0  0  0  0  0  0  0  0  0  0
   36.2433   30.0233   48.4971 N   0  0  0  0  0  0  0  0  0  0  0  0
   36.2278   30.0178   49.8401 C   0  0  0  0  0  0  0  0  0  0  0  0
   37.0682   30.8156   50.4992 N   0  0  0  0  0  0  0  0  0  0  0  0
   38.2100   31.1993   45.6314 C   0  0  0  0  0  0  0  0  0  0  0  0
   37.0894   30.8039   46.3260 C   0  0  0  0  0  0  0  0  0  0  0  0
   35.9514   30.4622   45.6270 C   0  0  0  0  0  0  0  0  0  0  0  0
   35.8665   30.4994   44.2516 C   0  0  0  0  0  0  0  0  0  0  0  0
   36.9677   30.8970   43.5258 C   0  0  0  0  0  0  0  0  0  0  0  0
   38.0875   31.2288   44.2359 C   0  0  0  0  0  0  0  0  0  0  0  0
   39.6658   31.6580   46.4003 S   0  0  0  0  0  0  0  0  0  0  0  0
   40.1202   32.9992   46.0722 O   0  0  0  0  0  0  0  0  0  0  0  0
   40.7114   30.9210   45.5705 O   0  0  0  0  0  0  0  0  0  0  0  0
   35.1747   29.2104   50.4918 C   0  0  0  0  0  0  0  0  0  0  0  0
   35.3700   29.1017   51.8535 F   0  0  0  0  0  0  0  0  0  0  0  0
   33.8959   29.8565   50.3869 F   0  0  0  0  0  0  0  0  0  0  0  0
   34.9654   28.0082   49.9595 F   0  0  0  0  0  0  0  0  0  0  0  0
   38.5069   32.1892   50.5765 H   0  0  0  0  0  0  0  0  0  0  0  0
   38.6047   32.4296   48.2175 H   0  0  0  0  0  0  0  0  0  0  0  0
   35.0869   30.1492   46.2255 H   0  0  0  0  0  0  0  0  0  0  0  0
   34.9328   30.2113   43.8309 H   0  0  0  0  0  0  0  0  0  0  0  0
   36.9228   30.9356   42.4632 H   0  0  0  0  0  0  0  0  0  0  0  0
   38.9453   31.5404   43.6270 H   0  0  0  0  0  0  0  0  0  0  0  0
   40.2921   29.1008   44.9436 H   0  0  0  0  0  0  0  0  0  0  0  0
   39.7059   28.6050   46.0581 S   0  0  0  0  0  0  0  0  0  0  0  0
   40.0252   27.1172   46.0369 O   0  0  0  0  0  0  0  0  0  0  0  0
   38.2229   28.6799   46.0882 O   0  0  0  0  0  0  0  0  0  0  0  0
   40.4488   29.3439   47.4851 C   0  0  0  0  0  0  0  0  0  0  0  0
   40.4312   30.7154   47.6356 C   0  0  0  0  0  0  0  0  0  0  0  0
   41.0433   31.1554   48.7921 C   0  0  0  0  0  0  0  0  0  0  0  0
   41.0250   32.2529   48.9082 H   0  0  0  0  0  0  0  0  0  0  0  0
   41.6386   30.3655   49.7519 C   0  0  0  0  0  0  0  0  0  0  0  0
   42.0595   30.8861   50.5755 H   0  0  0  0  0  0  0  0  0  0  0  0
   41.6351   29.0031   49.5621 C   0  0  0  0  0  0  0  0  0  0  0  0
   41.0379   28.5051   48.4270 C   0  0  0  0  0  0  0  0  0  0  0  0
   42.0978   28.3775   50.3059 H   0  0  0  0  0  0  0  0  0  0  0  0
   41.0081   27.4424   48.2308 H   0  0  0  0  0  0  0  0  0  0  0  0
  1  6  2  0
  2  1  1  0
  3  2  2  0
  3  4  1  0
  4  5  2  0
  5 16  1  0
  5  6  1  0
  7  8  1  0
  7 13  1  0
  8  3  1  0
  9  8  2  0
 10  9  1  0
 11 12  1  0
 11 10  2  0
 12  7  2  0
 14 13  2  0
 15 13  2  0
 16 17  1  0
 18 16  1  0
 19 16  1  0
  1 20  1  0
  2 21  1  0
  9 22  1  0
 10 23  1  0
 11 24  1  0
 12 25  1  0
 26 27  1  0
 27 28  2  0
 27 29  2  0
 27 30  1  0
 30 31  2  0
 31 32  1  0
 32 33  1  0
 32 34  2  0
 34 35  1  0
 34 36  1  0
 36 37  2  0
 37 30  1  0
 36 38  1  0
 37 39  1  0
 13 31  1  0
M  ISO  8  20  14  21  14  22  14  23  14  24  14  25  14  26  12  33  15
M  ISO  1  35  16
M  END
>  <DihAtoms>  (1) 
6,12,30,29

>  <DihDeg>  (1) 
-169.84849309518816

$$$$
