
     RDKit          3D

 39 42  0  0  0  0  0  0  0  0999 V2000
   37.4030   29.7980   50.5890 C   0  0  0  0  0  0  0  0  0  0  0  0
   38.3350   30.5310   49.8520 C   0  0  0  0  0  0  0  0  0  0  0  0
   38.0140   30.7820   48.5430 C   0  0  0  0  0  0  0  0  0  0  0  0
   36.8450   30.3140   48.0830 N   0  0  0  0  0  0  0  0  0  0  0  0
   35.9450   29.6230   48.7530 C   0  0  0  0  0  0  0  0  0  0  0  0
   36.2950   29.4030   50.0010 N   0  0  0  0  0  0  0  0  0  0  0  0
   34.6430   29.0740   48.3880 C   0  0  0  0  0  0  0  0  0  0  0  0
   33.8640   28.4090   49.2730 N   0  0  0  0  0  0  0  0  0  0  0  0
   32.6650   27.9260   48.9330 C   0  0  0  0  0  0  0  0  0  0  0  0
   32.1230   28.0480   47.7140 N   0  0  0  0  0  0  0  0  0  0  0  0
   32.8510   28.7030   46.7800 C   0  0  0  0  0  0  0  0  0  0  0  0
   32.3200   28.8410   45.5200 C   0  0  0  0  0  0  0  0  0  0  0  0
   33.0110   29.4930   44.5360 C   0  0  0  0  0  0  0  0  0  0  0  0
   34.2420   29.9880   44.8800 C   0  0  0  0  0  0  0  0  0  0  0  0
   34.7460   29.8320   46.1520 C   0  0  0  0  0  0  0  0  0  0  0  0
   34.0760   29.1880   47.1500 C   0  0  0  0  0  0  0  0  0  0  0  0
   39.1660   32.8750   47.6460 C   0  0  0  0  0  0  0  0  0  0  0  0
   38.7860   31.5660   47.6000 C   0  0  0  0  0  0  0  0  0  0  0  0
   39.2670   30.9010   46.4620 C   0  0  0  0  0  0  0  0  0  0  0  0
   40.0320   31.4160   45.4610 C   0  0  0  0  0  0  0  0  0  0  0  0
   40.3940   32.7390   45.5390 C   0  0  0  0  0  0  0  0  0  0  0  0
   39.9510   33.4390   46.6340 C   0  0  0  0  0  0  0  0  0  0  0  0
   38.7860   33.8830   48.9900 S   0  0  0  0  0  0  0  0  0  0  0  0
   39.8370   33.8650   50.0750 O   0  0  0  0  0  0  0  0  0  0  0  0
   37.4140   33.6100   49.4950 O   0  0  0  0  0  0  0  0  0  0  0  0
   37.6240   29.4680   51.9860 N   0  0  0  0  0  0  0  0  0  0  0  0
   39.2755   30.8877   50.2973 H   0  0  0  0  0  0  0  0  0  0  0  0
   32.0865   27.3946   49.7030 H   0  0  0  0  0  0  0  0  0  0  0  0
   31.3270   28.4219   45.3001 H   0  0  0  0  0  0  0  0  0  0  0  0
   32.6007   29.6137   43.5226 H   0  0  0  0  0  0  0  0  0  0  0  0
   34.8392   30.5204   44.1250 H   0  0  0  0  0  0  0  0  0  0  0  0
   35.7397   30.2481   46.3744 H   0  0  0  0  0  0  0  0  0  0  0  0
   38.9940   29.8396   46.3678 H   0  0  0  0  0  0  0  0  0  0  0  0
   40.3512   30.7910   44.6140 H   0  0  0  0  0  0  0  0  0  0  0  0
   41.0094   33.2148   44.7613 H   0  0  0  0  0  0  0  0  0  0  0  0
   40.2280   34.5000   46.7204 H   0  0  0  0  0  0  0  0  0  0  0  0
   38.7962   35.1738   48.5312 H   0  0  0  0  0  0  0  0  0  0  0  0
   36.9186   28.9257   52.5049 H   0  0  0  0  0  0  0  0  0  0  0  0
   38.4861   29.7763   52.4578 H   0  0  0  0  0  0  0  0  0  0  0  0
  1 26  1  0
  2  1  2  0
  3  2  1  0
  4  3  2  0
  4  5  1  0
  5  6  2  0
  6  1  1  0
  7  5  1  0
  7  8  2  0
  9  8  1  0
 10  9  2  0
 11 16  2  0
 11 10  1  0
 12 11  1  0
 13 14  1  0
 13 12  2  0
 14 15  2  0
 15 16  1  0
 16  7  1  0
 17 23  1  0
 18 17  2  0
 18  3  1  0
 19 18  1  0
 20 21  1  0
 20 19  2  0
 21 22  2  0
 22 17  1  0
 23 25  2  0
 23 24  2  0
  2 27  1  0
  9 28  1  0
 12 29  1  0
 13 30  1  0
 14 31  1  0
 15 32  1  0
 19 33  1  0
 20 34  1  0
 21 35  1  0
 22 36  1  0
 23 37  1  0
 26 38  1  0
 26 39  1  0
M  ISO  8  27  14  28  14  29  14  30  14  31  14  32  14  33  14  34  14
M  ISO  3  35  14  36  14  37  11
M  END
>  <minimizedAffinity>  (1) 
-7.10391569

>  <minimizedRMSD>  (1) 
1.30240405

$$$$
