
     RDKit          3D

 33 35  0  0  0  0  0  0  0  0999 V2000
   37.9885   33.1653   49.4387 C   0  0  0  0  0  0  0  0  0  0  0  0
   39.0184   33.1581   48.4623 C   0  0  0  0  0  0  0  0  0  0  0  0
   39.0046   32.1236   47.5303 C   0  0  0  0  0  0  0  0  0  0  0  0
   38.0187   31.1847   47.6012 N   0  0  0  0  0  0  0  0  0  0  0  0
   37.0541   31.2260   48.5472 C   0  0  0  0  0  0  0  0  0  0  0  0
   37.0524   32.2201   49.4567 N   0  0  0  0  0  0  0  0  0  0  0  0
   37.2614   29.3608   51.0549 Br  0  0  0  0  0  0  0  0  0  0  0  0
   35.9503   29.3189   49.6598 C   0  0  0  0  0  0  0  0  0  0  0  0
   35.9993   30.2158   48.6178 C   0  0  0  0  0  0  0  0  0  0  0  0
   35.0231   30.1224   47.6548 C   0  0  0  0  0  0  0  0  0  0  0  0
   34.0025   29.1738   47.6881 C   0  0  0  0  0  0  0  0  0  0  0  0
   33.9992   28.3045   48.7466 C   0  0  0  0  0  0  0  0  0  0  0  0
   34.9656   28.3770   49.7245 C   0  0  0  0  0  0  0  0  0  0  0  0
   37.9246   33.9396   50.2061 H   0  0  0  0  0  0  0  0  0  0  0  0
   39.7584   33.9409   48.4805 H   0  0  0  0  0  0  0  0  0  0  0  0
   39.7803   32.0904   46.7696 H   0  0  0  0  0  0  0  0  0  0  0  0
   35.1097   30.8626   46.8458 H   0  0  0  0  0  0  0  0  0  0  0  0
   33.1919   27.5860   48.7320 H   0  0  0  0  0  0  0  0  0  0  0  0
   34.9079   27.6574   50.5403 H   0  0  0  0  0  0  0  0  0  0  0  0
   31.0571   31.0577   48.5218 H   0  0  0  0  0  0  0  0  0  0  0  0
   31.9345   31.4291   47.5594 S   0  0  0  0  0  0  0  0  0  0  0  0
   33.2432   31.9210   48.1148 O   0  0  0  0  0  0  0  0  0  0  0  0
   31.2994   32.6172   46.8496 O   0  0  0  0  0  0  0  0  0  0  0  0
   32.1072   30.1854   46.3727 C   0  0  0  0  0  0  0  0  0  0  0  0
   33.0742   29.2515   46.5661 C   0  0  0  0  0  0  0  0  0  0  0  0
   33.1873   28.2602   45.5847 C   0  0  0  0  0  0  0  0  0  0  0  0
   33.9432   27.4621   45.6584 H   0  0  0  0  0  0  0  0  0  0  0  0
   32.4017   28.1809   44.4736 C   0  0  0  0  0  0  0  0  0  0  0  0
   32.5114   27.4046   43.7322 H   0  0  0  0  0  0  0  0  0  0  0  0
   31.4268   29.1262   44.2830 C   0  0  0  0  0  0  0  0  0  0  0  0
   31.3000   30.1083   45.2360 C   0  0  0  0  0  0  0  0  0  0  0  0
   30.7616   29.1270   43.4194 H   0  0  0  0  0  0  0  0  0  0  0  0
   30.5290   30.8808   45.1137 H   0  0  0  0  0  0  0  0  0  0  0  0
  1  6  2  0
  2  1  1  0
  3  4  1  0
  3  2  2  0
  4  5  2  0
  5  9  1  0
  5  6  1  0
  8 13  2  0
  8  7  1  0
  9  8  1  0
 10 11  1  0
 10  9  2  0
 11 12  2  0
 12 13  1  0
  1 14  1  0
  2 15  1  0
  3 16  1  0
 10 17  1  0
 12 18  1  0
 13 19  1  0
 20 21  1  0
 21 22  2  0
 21 23  2  0
 21 24  1  0
 24 25  2  0
 25 26  1  0
 26 27  1  0
 26 28  2  0
 28 29  1  0
 28 30  1  0
 30 31  2  0
 31 24  1  0
 30 32  1  0
 31 33  1  0
 11 25  1  0
M  ISO  8  14  14  15  14  16  14  17  14  18  14  19  14  20  12  27  15
M  ISO  1  29  16
M  END
>  <DihAtoms>  (1) 
9,10,24,23

>  <DihDeg>  (1) 
-134.35822745644987

$$$$
