
     RDKit          3D

 33 35  0  0  0  0  0  0  0  0999 V2000
   37.2609   30.0637   51.4932 C   0  0  0  0  0  0  0  0  0  0  0  0
   38.0181   30.7919   50.5220 C   0  0  0  0  0  0  0  0  0  0  0  0
   37.6468   30.6273   49.1847 C   0  0  0  0  0  0  0  0  0  0  0  0
   36.6064   29.8000   48.8701 N   0  0  0  0  0  0  0  0  0  0  0  0
   35.9165   29.1280   49.8230 C   0  0  0  0  0  0  0  0  0  0  0  0
   36.2451   29.2625   51.1244 N   0  0  0  0  0  0  0  0  0  0  0  0
   38.3390   31.3082   48.1152 C   0  0  0  0  0  0  0  0  0  0  0  0
   38.7970   32.5762   48.3369 C   0  0  0  0  0  0  0  0  0  0  0  0
   39.4788   33.3009   47.3634 C   0  0  0  0  0  0  0  0  0  0  0  0
   39.6785   32.6737   46.1335 C   0  0  0  0  0  0  0  0  0  0  0  0
   39.2344   31.3797   45.8429 C   0  0  0  0  0  0  0  0  0  0  0  0
   38.5666   30.7409   46.8788 C   0  0  0  0  0  0  0  0  0  0  0  0
   37.4689   30.1260   52.5383 H   0  0  0  0  0  0  0  0  0  0  0  0
   35.0958   28.4756   49.5653 H   0  0  0  0  0  0  0  0  0  0  0  0
   38.7025   33.1858   49.2185 H   0  0  0  0  0  0  0  0  0  0  0  0
   39.8675   34.3020   47.4698 H   0  0  0  0  0  0  0  0  0  0  0  0
   40.2029   33.1645   45.3100 H   0  0  0  0  0  0  0  0  0  0  0  0
   39.4121   30.9360   44.8749 H   0  0  0  0  0  0  0  0  0  0  0  0
   38.2101   29.7407   46.6894 H   0  0  0  0  0  0  0  0  0  0  0  0
   37.1422   32.9126   49.3658 H   0  0  0  0  0  0  0  0  0  0  0  0
   37.8958   33.8113   50.0467 S   0  0  0  0  0  0  0  0  0  0  0  0
   38.4725   34.7459   48.9949 O   0  0  0  0  0  0  0  0  0  0  0  0
   37.0058   34.6161   50.9774 O   0  0  0  0  0  0  0  0  0  0  0  0
   39.1732   32.9950   50.9045 C   0  0  0  0  0  0  0  0  0  0  0  0
   39.1005   31.6008   51.0418 C   0  0  0  0  0  0  0  0  0  0  0  0
   40.0958   30.8829   51.7211 C   0  0  0  0  0  0  0  0  0  0  0  0
   40.0559   29.8248   51.8341 H   0  0  0  0  0  0  0  0  0  0  0  0
   41.1503   31.5789   52.2527 C   0  0  0  0  0  0  0  0  0  0  0  0
   41.9339   31.0327   52.7847 H   0  0  0  0  0  0  0  0  0  0  0  0
   41.1917   32.9492   52.1000 C   0  0  0  0  0  0  0  0  0  0  0  0
   40.2357   33.6910   51.4407 C   0  0  0  0  0  0  0  0  0  0  0  0
   42.0674   33.4286   52.5545 H   0  0  0  0  0  0  0  0  0  0  0  0
   40.3108   34.7689   51.3457 H   0  0  0  0  0  0  0  0  0  0  0  0
  2  1  2  0
  3  2  1  0
  4  3  2  0
  4  5  1  0
  5  6  2  0
  6  1  1  0
  7  8  2  0
  7  3  1  0
  9  8  1  0
 10  9  2  0
 11 10  1  0
 11 12  2  0
 12  7  1  0
  1 13  1  0
  5 14  1  0
  8 15  1  0
  9 16  1  0
 10 17  1  0
 11 18  1  0
 12 19  1  0
 20 21  1  0
 21 22  2  0
 21 23  2  0
 21 24  1  0
 24 25  2  0
 25 26  1  0
 26 27  1  0
 26 28  2  0
 28 29  1  0
 28 30  1  0
 30 31  2  0
 31 24  1  0
 30 32  1  0
 31 33  1  0
  2 25  1  0
M  ISO  8  13  14  14  14  15  14  16  14  17  14  18  14  19  14  20  12
M  ISO  2  27  15  29  16
M  END
>  <DihAtoms>  (1) 
0,1,24,23

>  <DihDeg>  (1) 
-58.48673284810037

$$$$
