
     RDKit          3D

 33 35  0  0  0  0  0  0  0  0999 V2000
   37.2609   30.0637   51.4932 C   0  0  0  0  0  0  0  0  0  0  0  0
   38.0181   30.7919   50.5220 C   0  0  0  0  0  0  0  0  0  0  0  0
   37.6468   30.6273   49.1847 C   0  0  0  0  0  0  0  0  0  0  0  0
   36.6064   29.8000   48.8701 N   0  0  0  0  0  0  0  0  0  0  0  0
   35.9165   29.1280   49.8230 C   0  0  0  0  0  0  0  0  0  0  0  0
   36.2451   29.2625   51.1244 N   0  0  0  0  0  0  0  0  0  0  0  0
   38.3390   31.3082   48.1152 C   0  0  0  0  0  0  0  0  0  0  0  0
   38.7970   32.5762   48.3369 C   0  0  0  0  0  0  0  0  0  0  0  0
   39.4788   33.3009   47.3634 C   0  0  0  0  0  0  0  0  0  0  0  0
   39.6785   32.6737   46.1335 C   0  0  0  0  0  0  0  0  0  0  0  0
   39.2344   31.3797   45.8429 C   0  0  0  0  0  0  0  0  0  0  0  0
   38.5666   30.7409   46.8788 C   0  0  0  0  0  0  0  0  0  0  0  0
   37.4689   30.1260   52.5383 H   0  0  0  0  0  0  0  0  0  0  0  0
   35.0958   28.4756   49.5653 H   0  0  0  0  0  0  0  0  0  0  0  0
   38.7025   33.1858   49.2185 H   0  0  0  0  0  0  0  0  0  0  0  0
   39.8675   34.3020   47.4698 H   0  0  0  0  0  0  0  0  0  0  0  0
   40.2029   33.1645   45.3100 H   0  0  0  0  0  0  0  0  0  0  0  0
   39.4121   30.9360   44.8749 H   0  0  0  0  0  0  0  0  0  0  0  0
   38.2101   29.7407   46.6894 H   0  0  0  0  0  0  0  0  0  0  0  0
   36.9935   30.8551   52.8774 H   0  0  0  0  0  0  0  0  0  0  0  0
   38.0871   31.3134   53.5354 S   0  0  0  0  0  0  0  0  0  0  0  0
   37.5879   32.4359   54.4316 O   0  0  0  0  0  0  0  0  0  0  0  0
   38.6521   30.2076   54.4095 O   0  0  0  0  0  0  0  0  0  0  0  0
   39.2619   31.9157   52.3992 C   0  0  0  0  0  0  0  0  0  0  0  0
   39.1005   31.6008   51.0418 C   0  0  0  0  0  0  0  0  0  0  0  0
   40.0108   32.0540   50.0757 C   0  0  0  0  0  0  0  0  0  0  0  0
   39.9028   31.8242   49.0415 H   0  0  0  0  0  0  0  0  0  0  0  0
   41.0710   32.8178   50.4899 C   0  0  0  0  0  0  0  0  0  0  0  0
   41.7886   33.1785   49.7480 H   0  0  0  0  0  0  0  0  0  0  0  0
   41.2006   33.1095   51.8319 C   0  0  0  0  0  0  0  0  0  0  0  0
   40.3297   32.6844   52.8114 C   0  0  0  0  0  0  0  0  0  0  0  0
   42.0748   33.7246   52.0786 H   0  0  0  0  0  0  0  0  0  0  0  0
   40.4726   32.9391   53.8561 H   0  0  0  0  0  0  0  0  0  0  0  0
  2  1  2  0
  3  2  1  0
  4  3  2  0
  4  5  1  0
  5  6  2  0
  6  1  1  0
  7  8  2  0
  7  3  1  0
  9  8  1  0
 10  9  2  0
 11 10  1  0
 11 12  2  0
 12  7  1  0
  1 13  1  0
  5 14  1  0
  8 15  1  0
  9 16  1  0
 10 17  1  0
 11 18  1  0
 12 19  1  0
 20 21  1  0
 21 22  2  0
 21 23  2  0
 21 24  1  0
 24 25  2  0
 25 26  1  0
 26 27  1  0
 26 28  2  0
 28 29  1  0
 28 30  1  0
 30 31  2  0
 31 24  1  0
 30 32  1  0
 31 33  1  0
  2 25  1  0
M  ISO  8  13  14  14  14  15  14  16  14  17  14  18  14  19  14  20  12
M  ISO  2  27  15  29  16
M  END
>  <DihAtoms>  (1) 
0,1,24,23

>  <DihDeg>  (1) 
-58.48673284810037

$$$$
