
     RDKit          3D

 33 35  0  0  0  0  0  0  0  0999 V2000
   37.9994   33.1048   49.4890 C   0  0  0  0  0  0  0  0  0  0  0  0
   38.9689   33.2084   48.4657 C   0  0  0  0  0  0  0  0  0  0  0  0
   38.9532   32.2111   47.4464 C   0  0  0  0  0  0  0  0  0  0  0  0
   38.0145   31.2449   47.5355 N   0  0  0  0  0  0  0  0  0  0  0  0
   37.1112   31.1829   48.5241 C   0  0  0  0  0  0  0  0  0  0  0  0
   37.1033   32.1128   49.5015 N   0  0  0  0  0  0  0  0  0  0  0  0
   36.1025   30.1357   48.6021 C   0  0  0  0  0  0  0  0  0  0  0  0
   35.2820   29.9538   47.5048 C   0  0  0  0  0  0  0  0  0  0  0  0
   34.2961   28.9849   47.5011 C   0  0  0  0  0  0  0  0  0  0  0  0
   34.1511   28.2003   48.6291 C   0  0  0  0  0  0  0  0  0  0  0  0
   34.9649   28.3593   49.7559 C   0  0  0  0  0  0  0  0  0  0  0  0
   35.9381   29.3371   49.7188 C   0  0  0  0  0  0  0  0  0  0  0  0
   38.0299   33.8805   50.2611 H   0  0  0  0  0  0  0  0  0  0  0  0
   39.6976   34.0089   48.4460 H   0  0  0  0  0  0  0  0  0  0  0  0
   39.6885   32.2795   46.6620 H   0  0  0  0  0  0  0  0  0  0  0  0
   35.3943   30.5714   46.6157 H   0  0  0  0  0  0  0  0  0  0  0  0
   33.6807   28.8831   46.6168 H   0  0  0  0  0  0  0  0  0  0  0  0
   33.3450   27.4586   48.5392 H   0  0  0  0  0  0  0  0  0  0  0  0
   34.7736   27.6996   50.5824 H   0  0  0  0  0  0  0  0  0  0  0  0
   34.7230   31.2947   53.3275 H   0  0  0  0  0  0  0  0  0  0  0  0
   34.8044   30.2788   52.4096 S   0  0  0  0  0  0  0  0  0  0  0  0
   34.1298   29.0768   52.9782 O   0  0  0  0  0  0  0  0  0  0  0  0
   34.1084   30.6627   51.1469 O   0  0  0  0  0  0  0  0  0  0  0  0
   36.4934   29.9062   52.1688 C   0  0  0  0  0  0  0  0  0  0  0  0
   36.7995   29.5035   50.8838 C   0  0  0  0  0  0  0  0  0  0  0  0
   38.1264   29.1851   50.5953 C   0  0  0  0  0  0  0  0  0  0  0  0
   38.5368   28.8524   49.6396 H   0  0  0  0  0  0  0  0  0  0  0  0
   39.1110   29.2718   51.5779 C   0  0  0  0  0  0  0  0  0  0  0  0
   40.1524   29.0383   51.4136 H   0  0  0  0  0  0  0  0  0  0  0  0
   38.7696   29.6829   52.8705 C   0  0  0  0  0  0  0  0  0  0  0  0
   37.4510   29.9917   53.1279 C   0  0  0  0  0  0  0  0  0  0  0  0
   39.5227   29.7622   53.6680 H   0  0  0  0  0  0  0  0  0  0  0  0
   37.1610   30.3127   54.1249 H   0  0  0  0  0  0  0  0  0  0  0  0
  1  6  2  0
  2  1  1  0
  3  4  1  0
  3  2  2  0
  4  5  2  0
  5  7  1  0
  5  6  1  0
  7 12  1  0
  8  7  2  0
  9  8  1  0
  9 10  2  0
 10 11  1  0
 12 11  2  0
  1 13  1  0
  2 14  1  0
  3 15  1  0
  8 16  1  0
  9 17  1  0
 10 18  1  0
 11 19  1  0
 20 21  1  0
 21 22  2  0
 21 23  2  0
 21 24  1  0
 24 25  2  0
 25 26  1  0
 26 27  1  0
 26 28  2  0
 28 29  1  0
 28 30  1  0
 30 31  2  0
 31 24  1  0
 30 32  1  0
 31 33  1  0
 12 25  1  0
M  ISO  8  13  14  14  14  15  14  16  14  17  14  18  14  19  14  20  12
M  ISO  2  27  15  29  16
M  END
>  <DihAtoms>  (1) 
6,11,24,23

>  <DihDeg>  (1) 
100.288678169961

$$$$
