
     RDKit          3D

 37 39  0  0  0  0  0  0  0  0999 V2000
   37.4691   31.4343   49.3842 C   0  0  0  0  0  0  0  0  0  0  0  0
   37.8677   32.7204   49.7008 C   0  0  0  0  0  0  0  0  0  0  0  0
   38.6739   33.3346   48.7506 C   0  0  0  0  0  0  0  0  0  0  0  0
   39.0165   32.6729   47.6070 N   0  0  0  0  0  0  0  0  0  0  0  0
   38.6043   31.4192   47.3400 C   0  0  0  0  0  0  0  0  0  0  0  0
   37.8126   30.7952   48.2579 N   0  0  0  0  0  0  0  0  0  0  0  0
   36.5698   30.7305   50.3642 C   0  0  0  0  0  0  0  0  0  0  0  0
   36.4904   29.3118   50.4670 C   0  0  0  0  0  0  0  0  0  0  0  0
   37.3612   30.0271   51.4890 C   0  0  0  0  0  0  0  0  0  0  0  0
   38.9649   30.7166   46.1115 C   0  0  0  0  0  0  0  0  0  0  0  0
   41.0463   31.5202   45.0159 C   0  0  0  0  0  0  0  0  0  0  0  0
   40.4875   32.2974   44.1985 O   0  0  0  0  0  0  0  0  0  0  0  0
   40.4148   30.7588   46.0124 N   0  0  0  0  0  0  0  0  0  0  0  0
   37.5578   33.1811   50.6237 H   0  0  0  0  0  0  0  0  0  0  0  0
   39.0173   34.3337   48.9375 H   0  0  0  0  0  0  0  0  0  0  0  0
   35.7637   31.4106   50.7314 H   0  0  0  0  0  0  0  0  0  0  0  0
   37.0946   28.6822   49.7650 H   0  0  0  0  0  0  0  0  0  0  0  0
   35.5850   28.8080   50.8135 H   0  0  0  0  0  0  0  0  0  0  0  0
   36.9603   30.2016   52.4970 H   0  0  0  0  0  0  0  0  0  0  0  0
   38.4658   29.9807   51.3919 H   0  0  0  0  0  0  0  0  0  0  0  0
   38.5847   29.6765   46.1320 H   0  0  0  0  0  0  0  0  0  0  0  0
   38.5417   31.3029   45.2693 H   0  0  0  0  0  0  0  0  0  0  0  0
   41.0574   30.2447   46.6525 H   0  0  0  0  0  0  0  0  0  0  0  0
   41.6634   34.4759   43.5065 H   0  0  0  0  0  0  0  0  0  0  0  0
   42.4115   34.2128   44.6222 S   0  0  0  0  0  0  0  0  0  0  0  0
   41.5405   34.2177   45.8434 O   0  0  0  0  0  0  0  0  0  0  0  0
   43.4458   35.2864   44.8341 O   0  0  0  0  0  0  0  0  0  0  0  0
   43.2613   32.6901   44.4996 C   0  0  0  0  0  0  0  0  0  0  0  0
   42.4901   31.5787   44.7067 C   0  0  0  0  0  0  0  0  0  0  0  0
   43.0441   30.3055   44.6372 C   0  0  0  0  0  0  0  0  0  0  0  0
   42.5684   29.3609   44.7749 H   0  0  0  0  0  0  0  0  0  0  0  0
   44.3972   30.2066   44.3525 C   0  0  0  0  0  0  0  0  0  0  0  0
   44.9135   29.2431   44.2799 H   0  0  0  0  0  0  0  0  0  0  0  0
   45.2112   31.3074   44.1368 C   0  0  0  0  0  0  0  0  0  0  0  0
   44.6033   32.5426   44.2191 C   0  0  0  0  0  0  0  0  0  0  0  0
   46.2666   31.2202   43.9149 H   0  0  0  0  0  0  0  0  0  0  0  0
   45.1655   33.4759   44.0629 H   0  0  0  0  0  0  0  0  0  0  0  0
  1  2  2  0
  1  7  1  0
  3  2  1  0
  4  3  2  0
  5  4  1  0
  5  6  2  0
  6  1  1  0
  7  8  1  0
  7  9  1  0
  8  9  1  0
 10  5  1  0
 11 13  1  0
 12 11  2  0
 13 10  1  0
  2 14  1  0
  3 15  1  0
  7 16  1  0
  8 17  1  0
  8 18  1  0
  9 19  1  0
  9 20  1  0
 10 21  1  0
 10 22  1  0
 13 23  1  0
 24 25  1  0
 25 26  2  0
 25 27  2  0
 25 28  1  0
 28 29  2  0
 29 30  1  0
 30 31  1  0
 30 32  2  0
 32 33  1  0
 32 34  1  0
 34 35  2  0
 35 28  1  0
 34 36  1  0
 35 37  1  0
 11 29  1  0
M  ISO  8  14  14  15  14  16  13  17  13  18  13  19  13  20  13  21   8
M  ISO  4  22   8  24  12  31  15  33  16
M  END
>  <DihAtoms>  (1) 
12,10,28,27

>  <DihDeg>  (1) 
-118.01965028104478

$$$$
