
     RDKit          3D

 37 39  0  0  0  0  0  0  0  0999 V2000
   37.4691   31.4343   49.3842 C   0  0  0  0  0  0  0  0  0  0  0  0
   37.8677   32.7204   49.7008 C   0  0  0  0  0  0  0  0  0  0  0  0
   38.6739   33.3346   48.7506 C   0  0  0  0  0  0  0  0  0  0  0  0
   39.0165   32.6729   47.6070 N   0  0  0  0  0  0  0  0  0  0  0  0
   38.6043   31.4192   47.3400 C   0  0  0  0  0  0  0  0  0  0  0  0
   37.8126   30.7952   48.2579 N   0  0  0  0  0  0  0  0  0  0  0  0
   36.5698   30.7305   50.3642 C   0  0  0  0  0  0  0  0  0  0  0  0
   36.4904   29.3118   50.4670 C   0  0  0  0  0  0  0  0  0  0  0  0
   37.3612   30.0271   51.4890 C   0  0  0  0  0  0  0  0  0  0  0  0
   38.9649   30.7166   46.1115 C   0  0  0  0  0  0  0  0  0  0  0  0
   41.0463   31.5202   45.0159 C   0  0  0  0  0  0  0  0  0  0  0  0
   40.4875   32.2974   44.1985 O   0  0  0  0  0  0  0  0  0  0  0  0
   40.4148   30.7588   46.0124 N   0  0  0  0  0  0  0  0  0  0  0  0
   37.5578   33.1811   50.6237 H   0  0  0  0  0  0  0  0  0  0  0  0
   39.0173   34.3337   48.9375 H   0  0  0  0  0  0  0  0  0  0  0  0
   35.7637   31.4106   50.7314 H   0  0  0  0  0  0  0  0  0  0  0  0
   37.0946   28.6822   49.7650 H   0  0  0  0  0  0  0  0  0  0  0  0
   35.5850   28.8080   50.8135 H   0  0  0  0  0  0  0  0  0  0  0  0
   36.9603   30.2016   52.4970 H   0  0  0  0  0  0  0  0  0  0  0  0
   38.4658   29.9807   51.3919 H   0  0  0  0  0  0  0  0  0  0  0  0
   38.5847   29.6765   46.1320 H   0  0  0  0  0  0  0  0  0  0  0  0
   38.5417   31.3029   45.2693 H   0  0  0  0  0  0  0  0  0  0  0  0
   41.0574   30.2447   46.6525 H   0  0  0  0  0  0  0  0  0  0  0  0
   42.1210   28.3642   44.4869 H   0  0  0  0  0  0  0  0  0  0  0  0
   42.3665   29.2513   43.4738 S   0  0  0  0  0  0  0  0  0  0  0  0
   41.0791   29.6708   42.8286 O   0  0  0  0  0  0  0  0  0  0  0  0
   43.1935   28.6078   42.3924 O   0  0  0  0  0  0  0  0  0  0  0  0
   43.2431   30.6578   44.0300 C   0  0  0  0  0  0  0  0  0  0  0  0
   42.4901   31.5787   44.7067 C   0  0  0  0  0  0  0  0  0  0  0  0
   43.0664   32.7427   45.2025 C   0  0  0  0  0  0  0  0  0  0  0  0
   42.6064   33.5390   45.7427 H   0  0  0  0  0  0  0  0  0  0  0  0
   44.4225   32.9325   44.9862 C   0  0  0  0  0  0  0  0  0  0  0  0
   44.9555   33.8211   45.3421 H   0  0  0  0  0  0  0  0  0  0  0  0
   45.2185   32.0244   44.3062 C   0  0  0  0  0  0  0  0  0  0  0  0
   44.5889   30.8897   43.8390 C   0  0  0  0  0  0  0  0  0  0  0  0
   46.2764   32.1812   44.1424 H   0  0  0  0  0  0  0  0  0  0  0  0
   45.1359   30.1097   43.2877 H   0  0  0  0  0  0  0  0  0  0  0  0
  1  2  2  0
  1  7  1  0
  3  2  1  0
  4  3  2  0
  5  4  1  0
  5  6  2  0
  6  1  1  0
  7  8  1  0
  7  9  1  0
  8  9  1  0
 10  5  1  0
 11 13  1  0
 12 11  2  0
 13 10  1  0
  2 14  1  0
  3 15  1  0
  7 16  1  0
  8 17  1  0
  8 18  1  0
  9 19  1  0
  9 20  1  0
 10 21  1  0
 10 22  1  0
 13 23  1  0
 24 25  1  0
 25 26  2  0
 25 27  2  0
 25 28  1  0
 28 29  2  0
 29 30  1  0
 30 31  1  0
 30 32  2  0
 32 33  1  0
 32 34  1  0
 34 35  2  0
 35 28  1  0
 34 36  1  0
 35 37  1  0
 11 29  1  0
M  ISO  8  14  14  15  14  16  13  17  13  18  13  19  13  20  13  21   8
M  ISO  4  22   8  24  12  31  15  33  16
M  END
>  <DihAtoms>  (1) 
12,10,28,27

>  <DihDeg>  (1) 
-118.01965028104478

$$$$
