
     RDKit          3D

 35 37  0  0  0  0  0  0  0  0999 V2000
   36.7408   31.8032   50.2332 Cl  0  0  0  0  0  0  0  0  0  0  0  0
   37.3872   31.7380   48.6258 C   0  0  0  0  0  0  0  0  0  0  0  0
   36.7411   30.8519   47.8149 C   0  0  0  0  0  0  0  0  0  0  0  0
   37.1879   30.7192   46.4801 C   0  0  0  0  0  0  0  0  0  0  0  0
   38.2351   31.4514   46.0046 C   0  0  0  0  0  0  0  0  0  0  0  0
   38.8625   32.3343   46.8494 C   0  0  0  0  0  0  0  0  0  0  0  0
   40.2062   33.2862   46.2733 Cl  0  0  0  0  0  0  0  0  0  0  0  0
   38.4384   32.4647   48.1273 C   0  0  0  0  0  0  0  0  0  0  0  0
   35.7908   28.9870   49.1128 C   0  0  0  0  0  0  0  0  0  0  0  0
   35.5930   29.9574   48.1054 C   0  0  0  0  0  0  0  0  0  0  0  0
   34.3716   30.0209   47.4591 C   0  0  0  0  0  0  0  0  0  0  0  0
   33.4027   29.1492   47.8132 N   0  0  0  0  0  0  0  0  0  0  0  0
   33.6105   28.2202   48.7865 C   0  0  0  0  0  0  0  0  0  0  0  0
   34.8080   28.1419   49.4353 N   0  0  0  0  0  0  0  0  0  0  0  0
   39.0597   33.3890   49.0908 C   0  0  0  0  0  0  0  0  0  0  0  0
   39.4125   34.5645   48.9462 O   0  0  0  0  0  0  0  0  0  0  0  0
   36.7367   30.0427   45.7670 H   0  0  0  0  0  0  0  0  0  0  0  0
   38.6039   31.3762   44.9902 H   0  0  0  0  0  0  0  0  0  0  0  0
   36.7290   28.9082   49.6375 H   0  0  0  0  0  0  0  0  0  0  0  0
   34.2577   30.7789   46.6917 H   0  0  0  0  0  0  0  0  0  0  0  0
   32.7665   27.5677   48.9946 H   0  0  0  0  0  0  0  0  0  0  0  0
   36.3366   33.2028   50.1986 H   0  0  0  0  0  0  0  0  0  0  0  0
   36.9636   33.7557   51.2802 S   0  0  0  0  0  0  0  0  0  0  0  0
   36.1229   33.5119   52.5247 O   0  0  0  0  0  0  0  0  0  0  0  0
   37.0475   35.2672   51.1516 O   0  0  0  0  0  0  0  0  0  0  0  0
   38.5247   33.0493   51.5593 C   0  0  0  0  0  0  0  0  0  0  0  0
   39.3502   32.9593   50.4576 C   0  0  0  0  0  0  0  0  0  0  0  0
   40.6065   32.4128   50.5857 C   0  0  0  0  0  0  0  0  0  0  0  0
   41.3578   32.2827   49.7955 H   0  0  0  0  0  0  0  0  0  0  0  0
   41.0562   31.9495   51.8121 C   0  0  0  0  0  0  0  0  0  0  0  0
   42.0503   31.5051   51.9659 H   0  0  0  0  0  0  0  0  0  0  0  0
   40.2228   32.0416   52.9191 C   0  0  0  0  0  0  0  0  0  0  0  0
   38.9477   32.5963   52.7888 C   0  0  0  0  0  0  0  0  0  0  0  0
   40.4861   31.7048   53.9256 H   0  0  0  0  0  0  0  0  0  0  0  0
   38.2461   32.6948   53.6285 H   0  0  0  0  0  0  0  0  0  0  0  0
  2  1  1  0
  3 10  1  0
  3  2  2  0
  4  3  1  0
  5  4  2  0
  5  6  1  0
  6  8  2  0
  7  6  1  0
  8  2  1  0
  8 15  1  0
  9 14  2  0
 10  9  1  0
 11 12  1  0
 11 10  2  0
 12 13  2  0
 13 14  1  0
 16 15  2  0
  4 17  1  0
  5 18  1  0
  9 19  1  0
 11 20  1  0
 13 21  1  0
 22 23  1  0
 23 24  2  0
 23 25  2  0
 23 26  1  0
 26 27  2  0
 27 28  1  0
 28 29  1  0
 28 30  2  0
 30 31  1  0
 30 32  1  0
 32 33  2  0
 33 26  1  0
 32 34  1  0
 33 35  1  0
 15 27  1  0
M  ISO  8  17  14  18  14  19  14  20  14  21  14  22  12  29  15  31  16
M  END
>  <DihAtoms>  (1) 
7,14,26,25

>  <DihDeg>  (1) 
-135.0000889360456

$$$$
