
     RDKit          3D

 34 36  0  0  0  0  0  0  0  0999 V2000
   38.3733   30.5929   47.1008 C   0  0  2  0  0  0  0  0  0  0  0  0
   36.9806   30.5400   47.5230 C   0  0  0  0  0  0  0  0  0  0  0  0
   38.0774   31.1389   48.4195 C   0  0  1  0  0  0  0  0  0  0  0  0
   40.6159   32.6758   45.0145 C   0  0  0  0  0  0  0  0  0  0  0  0
   39.7248   33.1775   44.0350 C   0  0  0  0  0  0  0  0  0  0  0  0
   38.3466   32.7888   44.1045 C   0  0  0  0  0  0  0  0  0  0  0  0
   37.9593   31.9561   45.1094 N   0  0  0  0  0  0  0  0  0  0  0  0
   38.8647   31.5071   46.0208 C   0  0  0  0  0  0  0  0  0  0  0  0
   40.1820   31.8391   46.0075 N   0  0  0  0  0  0  0  0  0  0  0  0
   37.6940   30.5320   50.7827 C   0  0  0  0  0  0  0  0  0  0  0  0
   36.7253   31.3299   50.8069 O   0  0  0  0  0  0  0  0  0  0  0  0
   38.4302   30.2920   49.5673 N   0  0  0  0  0  0  0  0  0  0  0  0
   39.0087   29.6608   47.1322 H   0  0  0  0  0  0  0  0  0  0  0  0
   36.6035   29.5710   47.9043 H   0  0  0  0  0  0  0  0  0  0  0  0
   36.2156   31.2478   47.1630 H   0  0  0  0  0  0  0  0  0  0  0  0
   37.8293   32.1650   48.7160 H   0  0  0  0  0  0  0  0  0  0  0  0
   41.6257   33.0055   44.9020 H   0  0  0  0  0  0  0  0  0  0  0  0
   40.0730   33.8326   43.2593 H   0  0  0  0  0  0  0  0  0  0  0  0
   37.6466   33.1568   43.3686 H   0  0  0  0  0  0  0  0  0  0  0  0
   39.1515   29.5496   49.5768 H   0  0  0  0  0  0  0  0  0  0  0  0
   36.3172   26.5277   51.8270 H   0  0  0  0  0  0  0  0  0  0  0  0
   36.8334   27.6347   51.2015 S   0  0  0  0  0  0  0  0  0  0  0  0
   37.7798   27.2356   50.0836 O   0  0  0  0  0  0  0  0  0  0  0  0
   35.6928   28.3961   50.6053 O   0  0  0  0  0  0  0  0  0  0  0  0
   37.7016   28.5700   52.3772 C   0  0  0  0  0  0  0  0  0  0  0  0
   38.0229   29.8712   52.0460 C   0  0  0  0  0  0  0  0  0  0  0  0
   38.7199   30.6947   52.9307 C   0  0  0  0  0  0  0  0  0  0  0  0
   38.9955   31.7228   52.7180 H   0  0  0  0  0  0  0  0  0  0  0  0
   39.1147   30.2221   54.1850 C   0  0  0  0  0  0  0  0  0  0  0  0
   39.6550   30.8526   54.8798 H   0  0  0  0  0  0  0  0  0  0  0  0
   38.7949   28.9156   54.5230 C   0  0  0  0  0  0  0  0  0  0  0  0
   38.1003   28.1197   53.6206 C   0  0  0  0  0  0  0  0  0  0  0  0
   39.0785   28.5012   55.4843 H   0  0  0  0  0  0  0  0  0  0  0  0
   37.8451   27.0901   53.8761 H   0  0  0  0  0  0  0  0  0  0  0  0
  1  2  1  0
  1  3  1  0
  2  3  1  0
  3 12  1  0
  4  9  2  0
  5  6  2  0
  5  4  1  0
  6  7  1  0
  7  8  2  0
  8  1  1  0
  9  8  1  0
 10 11  2  0
 12 10  1  0
  1 13  1  1
  2 14  1  0
  2 15  1  0
  3 16  1  1
  4 17  1  0
  5 18  1  0
  6 19  1  0
 12 20  1  0
 21 22  1  0
 22 23  2  0
 22 24  2  0
 22 25  1  0
 25 26  2  0
 26 27  1  0
 27 28  1  0
 27 29  2  0
 29 30  1  0
 29 31  1  0
 31 32  2  0
 32 25  1  0
 31 33  1  0
 32 34  1  0
 10 26  1  0
M  ISO  8  13  13  14  13  15  13  16  13  17  14  18  14  19  14  21  12
M  ISO  2  28  15  30  16
M  END
>  <DihAtoms>  (1) 
10,9,25,24

>  <DihDeg>  (1) 
-77.56088695506084

$$$$
