
     RDKit          3D

 43 45  0  0  1  0  0  0  0  0999 V2000
   35.7560   30.5040   49.0100 C   0  0  2  0  0  0  0  0  0  0  0  0
   36.5830   31.4460   49.8350 C   0  0  0  0  0  0  0  0  0  0  0  0
   37.5490   30.7250   50.7570 C   0  0  0  0  0  0  0  0  0  0  0  0
   36.7820   29.7690   51.6720 C   0  0  0  0  0  0  0  0  0  0  0  0
   35.6380   29.0650   51.0000 C   0  0  0  0  0  0  0  0  0  0  0  0
   35.8740   29.0970   49.4800 C   0  0  1  0  0  0  0  0  0  0  0  0
   36.1500   30.5680   47.5800 C   0  0  0  0  0  0  0  0  0  0  0  0
   37.4230   31.1140   47.3160 C   0  0  0  0  0  0  0  0  0  0  0  0
   37.8050   31.1780   45.9750 C   0  0  0  0  0  0  0  0  0  0  0  0
   36.9380   30.7140   45.0070 N   0  0  0  0  0  0  0  0  0  0  0  0
   35.7070   30.1890   45.3200 C   0  0  0  0  0  0  0  0  0  0  0  0
   35.3370   30.1280   46.6120 N   0  0  0  0  0  0  0  0  0  0  0  0
   33.7070   27.9430   48.8110 C   0  0  0  0  0  0  0  0  0  0  0  0
   32.8100   28.5130   49.4890 O   0  0  0  0  0  0  0  0  0  0  0  0
   35.1070   28.1520   48.7420 N   0  0  0  0  0  0  0  0  0  0  0  0
   31.6260   26.7090   48.0360 C   0  0  0  0  0  0  0  0  0  0  0  0
   32.9820   26.9320   48.0350 C   0  0  0  0  0  0  0  0  0  0  0  0
   33.8110   26.1580   47.2340 C   0  0  0  0  0  0  0  0  0  0  0  0
   33.2680   25.1690   46.4450 C   0  0  0  0  0  0  0  0  0  0  0  0
   31.9130   24.9210   46.4250 C   0  0  0  0  0  0  0  0  0  0  0  0
   31.1000   25.7060   47.2320 C   0  0  0  0  0  0  0  0  0  0  0  0
   30.6690   27.7390   49.0830 S   0  0  0  0  0  0  0  0  0  0  0  0
   29.6740   28.4860   48.2260 O   0  0  0  0  0  0  0  0  0  0  0  0
   29.8490   26.9050   50.0420 O   0  0  0  0  0  0  0  0  0  0  0  0
   34.7100   30.8247   49.1239 H   0  0  0  0  0  0  0  0  0  0  0  0
   37.1598   32.0931   49.1578 H   0  0  0  0  0  0  0  0  0  0  0  0
   35.8940   32.0274   50.4653 H   0  0  0  0  0  0  0  0  0  0  0  0
   38.2699   30.1530   50.1544 H   0  0  0  0  0  0  0  0  0  0  0  0
   38.0820   31.4648   51.3723 H   0  0  0  0  0  0  0  0  0  0  0  0
   37.4845   29.0091   52.0449 H   0  0  0  0  0  0  0  0  0  0  0  0
   36.3499   30.3792   52.4788 H   0  0  0  0  0  0  0  0  0  0  0  0
   35.5884   28.0222   51.3464 H   0  0  0  0  0  0  0  0  0  0  0  0
   34.6895   29.5649   51.2459 H   0  0  0  0  0  0  0  0  0  0  0  0
   36.8980   28.7509   49.2761 H   0  0  0  0  0  0  0  0  0  0  0  0
   38.0797   31.4703   48.1234 H   0  0  0  0  0  0  0  0  0  0  0  0
   38.7842   31.5928   45.6936 H   0  0  0  0  0  0  0  0  0  0  0  0
   35.0360   29.8251   44.5280 H   0  0  0  0  0  0  0  0  0  0  0  0
   35.6273   27.5535   48.0847 H   0  0  0  0  0  0  0  0  0  0  0  0
   34.8968   26.3342   47.2298 H   0  0  0  0  0  0  0  0  0  0  0  0
   33.9333   24.5611   45.8143 H   0  0  0  0  0  0  0  0  0  0  0  0
   31.4894   24.1280   45.7912 H   0  0  0  0  0  0  0  0  0  0  0  0
   30.0143   25.5294   47.2345 H   0  0  0  0  0  0  0  0  0  0  0  0
   31.5146   28.5713   49.7680 H   0  0  0  0  0  0  0  0  0  0  0  0
  1  6  1  0
  1  2  1  0
  2  3  1  0
  3  4  1  0
  5  4  1  0
  6  5  1  0
  7  1  1  0
  8  7  2  0
  9  8  1  0
 10 11  1  0
 10  9  2  0
 11 12  2  0
 12  7  1  0
 13 14  2  0
 15 13  1  0
 15  6  1  0
 16 22  1  0
 17 16  2  0
 17 13  1  0
 18 17  1  0
 19 18  2  0
 20 19  1  0
 20 21  2  0
 21 16  1  0
 22 24  2  0
 23 22  2  0
  1 25  1  6
  2 26  1  0
  2 27  1  0
  3 28  1  0
  3 29  1  0
  4 30  1  0
  4 31  1  0
  5 32  1  0
  5 33  1  0
  6 34  1  1
  8 35  1  0
  9 36  1  0
 11 37  1  0
 15 38  1  0
 18 39  1  0
 19 40  1  0
 20 41  1  0
 21 42  1  0
 22 43  1  0
M  ISO  8  25  13  26  13  27  13  28  13  29  13  30  13  31  13  32  13
M  ISO  8  33  13  34  13  35  14  36  14  37  14  39  14  40  14  41  14
M  ISO  2  42  14  43  11
M  END
>  <minimizedAffinity>  (1) 
-6.22273445

>  <minimizedRMSD>  (1) 
0.843959808

$$$$
