
     RDKit          3D

 43 45  0  0  0  0  0  0  0  0999 V2000
   36.0768   30.6870   49.0639 C   0  0  2  0  0  0  0  0  0  0  0  0
   37.0153   31.6434   49.7396 C   0  0  0  0  0  0  0  0  0  0  0  0
   38.0456   30.9423   50.6045 C   0  0  0  0  0  0  0  0  0  0  0  0
   37.3451   30.0742   51.6514 C   0  0  0  0  0  0  0  0  0  0  0  0
   36.1154   29.3766   51.1443 C   0  0  0  0  0  0  0  0  0  0  0  0
   36.1951   29.3066   49.6089 C   0  0  1  0  0  0  0  0  0  0  0  0
   36.3251   30.6485   47.6000 C   0  0  0  0  0  0  0  0  0  0  0  0
   37.5876   31.1099   47.1771 C   0  0  0  0  0  0  0  0  0  0  0  0
   37.8326   31.0766   45.8030 C   0  0  0  0  0  0  0  0  0  0  0  0
   36.8504   30.6048   44.9569 N   0  0  0  0  0  0  0  0  0  0  0  0
   35.6338   30.1649   45.4238 C   0  0  0  0  0  0  0  0  0  0  0  0
   35.3974   30.1976   46.7474 N   0  0  0  0  0  0  0  0  0  0  0  0
   33.9333   28.2043   49.2344 C   0  0  0  0  0  0  0  0  0  0  0  0
   33.1287   28.8505   49.9583 O   0  0  0  0  0  0  0  0  0  0  0  0
   35.3257   28.3497   49.0143 N   0  0  0  0  0  0  0  0  0  0  0  0
   34.9883   30.9881   49.1605 H   0  0  0  0  0  0  0  0  0  0  0  0
   36.3569   32.1824   50.5069 H   0  0  0  0  0  0  0  0  0  0  0  0
   37.4351   32.4283   49.1447 H   0  0  0  0  0  0  0  0  0  0  0  0
   38.7186   30.2850   50.0427 H   0  0  0  0  0  0  0  0  0  0  0  0
   38.5915   31.7267   51.1416 H   0  0  0  0  0  0  0  0  0  0  0  0
   37.0392   30.6988   52.5166 H   0  0  0  0  0  0  0  0  0  0  0  0
   38.0851   29.3163   51.9711 H   0  0  0  0  0  0  0  0  0  0  0  0
   35.1637   29.8142   51.4632 H   0  0  0  0  0  0  0  0  0  0  0  0
   36.1107   28.3153   51.4674 H   0  0  0  0  0  0  0  0  0  0  0  0
   37.1665   28.9063   49.4941 H   0  0  0  0  0  0  0  0  0  0  0  0
   38.4228   31.4813   47.7433 H   0  0  0  0  0  0  0  0  0  0  0  0
   38.7524   31.4002   45.3320 H   0  0  0  0  0  0  0  0  0  0  0  0
   34.9689   29.8237   44.6556 H   0  0  0  0  0  0  0  0  0  0  0  0
   35.6527   27.6130   48.3170 H   0  0  0  0  0  0  0  0  0  0  0  0
   34.3976   26.0701   51.0871 H   0  0  0  0  0  0  0  0  0  0  0  0
   34.3373   25.2696   49.9897 S   0  0  0  0  0  0  0  0  0  0  0  0
   33.9197   23.9004   50.4752 O   0  0  0  0  0  0  0  0  0  0  0  0
   35.6822   25.0828   49.3229 O   0  0  0  0  0  0  0  0  0  0  0  0
   33.1470   25.8219   48.8271 C   0  0  0  0  0  0  0  0  0  0  0  0
   33.0994   27.1773   48.6010 C   0  0  0  0  0  0  0  0  0  0  0  0
   32.1863   27.6960   47.6933 C   0  0  0  0  0  0  0  0  0  0  0  0
   32.0950   28.7499   47.4624 H   0  0  0  0  0  0  0  0  0  0  0  0
   31.3329   26.8479   47.0241 C   0  0  0  0  0  0  0  0  0  0  0  0
   30.5859   27.1784   46.3000 H   0  0  0  0  0  0  0  0  0  0  0  0
   31.3570   25.4864   47.2289 C   0  0  0  0  0  0  0  0  0  0  0  0
   32.2763   24.9854   48.1405 C   0  0  0  0  0  0  0  0  0  0  0  0
   30.7155   24.7747   46.7335 H   0  0  0  0  0  0  0  0  0  0  0  0
   32.3548   23.9344   48.3480 H   0  0  0  0  0  0  0  0  0  0  0  0
  1  6  1  0
  1  2  1  0
  2  3  1  0
  3  4  1  0
  5  4  1  0
  6  5  1  0
  7  1  1  0
  8  7  2  0
  9  8  1  0
 10 11  1  0
 10  9  2  0
 11 12  2  0
 12  7  1  0
 13 14  2  0
 15 13  1  0
 15  6  1  0
  1 16  1  6
  2 17  1  0
  2 18  1  0
  3 19  1  0
  3 20  1  0
  4 21  1  0
  4 22  1  0
  5 23  1  0
  5 24  1  0
  6 25  1  1
  8 26  1  0
  9 27  1  0
 11 28  1  0
 15 29  1  0
 30 31  1  0
 31 32  2  0
 31 33  2  0
 31 34  1  0
 34 35  2  0
 35 36  1  0
 36 37  1  0
 36 38  2  0
 38 39  1  0
 38 40  1  0
 40 41  2  0
 41 34  1  0
 40 42  1  0
 41 43  1  0
 13 35  1  0
M  ISO  8  16  13  17  13  18  13  19  13  20  13  21  13  22  13  23  13
M  ISO  8  24  13  25  13  26  14  27  14  28  14  30  12  37  15  39  16
M  END
>  <DihAtoms>  (1) 
13,12,34,33

>  <DihDeg>  (1) 
38.3229108067535

$$$$
