
     RDKit          3D

 48 51  0  0  0  0  0  0  0  0999 V2000
   35.6082   28.2531   49.6234 C   0  0  0  0  0  0  0  0  0  0  0  0
   36.5467   29.2641   49.4603 C   0  0  0  0  0  0  0  0  0  0  0  0
   36.3984   30.2868   48.5564 C   0  0  0  0  0  0  0  0  0  0  0  0
   35.2620   30.2605   47.8244 N   0  0  0  0  0  0  0  0  0  0  0  0
   34.3591   29.2930   47.9817 C   0  0  0  0  0  0  0  0  0  0  0  0
   34.5348   28.3382   48.8395 N   0  0  0  0  0  0  0  0  0  0  0  0
   36.2984   32.4527   50.5030 Cl  0  0  0  0  0  0  0  0  0  0  0  0
   37.4484   32.3619   49.2198 C   0  0  0  0  0  0  0  0  0  0  0  0
   37.4238   31.3069   48.3536 C   0  0  0  0  0  0  0  0  0  0  0  0
   38.3795   31.2912   47.3490 C   0  0  0  0  0  0  0  0  0  0  0  0
   39.3334   32.2540   47.1732 C   0  0  0  0  0  0  0  0  0  0  0  0
   39.3090   33.3271   48.1048 C   0  0  0  0  0  0  0  0  0  0  0  0
   40.5165   34.5649   47.8903 Cl  0  0  0  0  0  0  0  0  0  0  0  0
   38.3719   33.3886   49.1288 C   0  0  0  0  0  0  0  0  0  0  0  0
   32.1631   28.4456   47.1401 C   0  0  0  0  0  0  0  0  0  0  0  0
   33.1674   29.3802   47.1459 C   0  0  0  0  0  0  0  0  0  0  0  0
   33.0326   30.4331   46.2577 C   0  0  0  0  0  0  0  0  0  0  0  0
   31.9700   30.5868   45.3854 C   0  0  0  0  0  0  0  0  0  0  0  0
   30.9884   29.6463   45.3931 C   0  0  0  0  0  0  0  0  0  0  0  0
   31.0989   28.5961   46.2649 C   0  0  0  0  0  0  0  0  0  0  0  0
   32.2340   27.1247   48.2085 S   0  0  0  0  0  0  0  0  0  0  0  0
   30.8872   26.6400   48.4704 O   0  0  0  0  0  0  0  0  0  0  0  0
   32.7340   25.8683   47.5267 O   0  0  0  0  0  0  0  0  0  0  0  0
   37.6983   29.2148   50.3113 N   0  0  0  0  0  0  0  0  0  0  0  0
   35.7948   27.4755   50.3557 H   0  0  0  0  0  0  0  0  0  0  0  0
   38.3447   30.4430   46.6682 H   0  0  0  0  0  0  0  0  0  0  0  0
   40.0586   32.2229   46.3953 H   0  0  0  0  0  0  0  0  0  0  0  0
   38.3801   34.2140   49.8175 H   0  0  0  0  0  0  0  0  0  0  0  0
   33.7826   31.2330   46.1901 H   0  0  0  0  0  0  0  0  0  0  0  0
   31.8835   31.4085   44.7060 H   0  0  0  0  0  0  0  0  0  0  0  0
   30.1008   29.6525   44.7534 H   0  0  0  0  0  0  0  0  0  0  0  0
   30.3194   27.8194   46.2934 H   0  0  0  0  0  0  0  0  0  0  0  0
   37.6209   28.8706   51.2778 H   0  0  0  0  0  0  0  0  0  0  0  0
   38.5685   29.5417   49.8820 H   0  0  0  0  0  0  0  0  0  0  0  0
   29.7258   28.8191   49.7318 H   0  0  0  0  0  0  0  0  0  0  0  0
   29.8783   27.5693   50.3226 S   0  0  0  0  0  0  0  0  0  0  0  0
   29.3345   26.4635   49.5046 O   0  0  0  0  0  0  0  0  0  0  0  0
   28.9727   27.6483   51.5354 O   0  0  0  0  0  0  0  0  0  0  0  0
   31.5085   27.3126   50.8955 C   0  0  0  0  0  0  0  0  0  0  0  0
   32.4259   27.1881   49.9082 C   0  0  0  0  0  0  0  0  0  0  0  0
   33.7547   26.9798   50.3483 C   0  0  0  0  0  0  0  0  0  0  0  0
   34.6064   26.8602   49.6593 H   0  0  0  0  0  0  0  0  0  0  0  0
   34.0875   26.9104   51.6756 C   0  0  0  0  0  0  0  0  0  0  0  0
   35.1052   26.7512   52.0047 H   0  0  0  0  0  0  0  0  0  0  0  0
   33.0832   27.0495   52.6035 C   0  0  0  0  0  0  0  0  0  0  0  0
   31.7642   27.2541   52.2760 C   0  0  0  0  0  0  0  0  0  0  0  0
   33.2886   27.0037   53.6624 H   0  0  0  0  0  0  0  0  0  0  0  0
   30.9280   27.3712   52.9485 H   0  0  0  0  0  0  0  0  0  0  0  0
  2  1  2  0
  2 24  1  0
  3  2  1  0
  4  5  1  0
  4  3  2  0
  5  6  2  0
  6  1  1  0
  8  7  1  0
  9  3  1  0
  9  8  2  0
 10  9  1  0
 11 10  2  0
 11 12  1  0
 12 14  2  0
 13 12  1  0
 14  8  1  0
 15 16  1  0
 15 21  1  0
 16  5  1  0
 17 16  2  0
 18 17  1  0
 19 18  2  0
 19 20  1  0
 20 15  2  0
 21 22  2  0
 23 21  2  0
  1 25  1  0
 10 26  1  0
 11 27  1  0
 14 28  1  0
 17 29  1  0
 18 30  1  0
 19 31  1  0
 20 32  1  0
 24 33  1  0
 24 34  1  0
 35 36  1  0
 36 37  2  0
 36 38  2  0
 36 39  1  0
 39 40  2  0
 40 41  1  0
 41 42  1  0
 41 43  2  0
 43 44  1  0
 43 45  1  0
 45 46  2  0
 46 39  1  0
 45 47  1  0
 46 48  1  0
 21 40  1  0
M  ISO  8  25  14  26  14  27  14  28  14  29  14  30  14  31  14  32  14
M  ISO  3  35  12  42  15  44  16
M  END
>  <DihAtoms>  (1) 
14,20,39,38

>  <DihDeg>  (1) 
41.94294360723525

$$$$
