
     RDKit          3D

 29 31  0  0  0  0  0  0  0  0999 V2000
   37.3046   31.4047   49.2559 C   0  0  0  0  0  0  0  0  0  0  0  0
   38.1617   32.4749   49.4647 C   0  0  0  0  0  0  0  0  0  0  0  0
   38.8728   33.0070   48.3825 C   0  0  0  0  0  0  0  0  0  0  0  0
   38.6726   32.4226   47.1532 N   0  0  0  0  0  0  0  0  0  0  0  0
   37.8319   31.3814   46.9791 C   0  0  0  0  0  0  0  0  0  0  0  0
   37.1585   30.8868   48.0375 N   0  0  0  0  0  0  0  0  0  0  0  0
   36.5233   30.7968   50.3285 C   0  0  0  0  0  0  0  0  0  0  0  0
   37.3266   30.1499   51.4096 C   0  0  0  0  0  0  0  0  0  0  0  0
   38.2836   32.8971   50.4476 H   0  0  0  0  0  0  0  0  0  0  0  0
   39.5370   33.8282   48.5161 H   0  0  0  0  0  0  0  0  0  0  0  0
   37.7151   30.9607   45.9805 H   0  0  0  0  0  0  0  0  0  0  0  0
   35.9737   31.6549   50.8210 H   0  0  0  0  0  0  0  0  0  0  0  0
   35.7612   30.1068   49.9795 H   0  0  0  0  0  0  0  0  0  0  0  0
   38.0009   29.3615   51.0611 H   0  0  0  0  0  0  0  0  0  0  0  0
   37.9422   30.9197   51.9428 H   0  0  0  0  0  0  0  0  0  0  0  0
   36.3523   29.6133   52.3668 N   0  0  0  0  0  0  0  0  0  0  0  0
   36.6742   28.9495   53.4946 C   0  0  0  0  0  0  0  0  0  0  0  0
   37.6732   28.7141   53.8622 H   0  0  0  0  0  0  0  0  0  0  0  0
   35.5771   28.5741   54.1795 N   0  0  0  0  0  0  0  0  0  0  0  0
   34.5207   29.0079   53.4736 C   0  0  0  0  0  0  0  0  0  0  0  0
   33.1353   28.9520   53.6203 C   0  0  0  0  0  0  0  0  0  0  0  0
   32.7134   28.2678   54.8104 N   0  0  0  0  0  0  0  0  0  0  0  0
   32.5897   27.2654   55.0819 H   0  0  0  0  0  0  0  0  0  0  0  0
   32.3003   29.5043   52.7028 N   0  0  0  0  0  0  0  0  0  0  0  0
   32.8590   30.1160   51.6319 C   0  0  0  0  0  0  0  0  0  0  0  0
   32.1334   30.5403   50.9302 H   0  0  0  0  0  0  0  0  0  0  0  0
   34.1885   30.1906   51.4550 N   0  0  0  0  0  0  0  0  0  0  0  0
   35.0231   29.6452   52.3609 C   0  0  0  0  0  0  0  0  0  0  0  0
   32.4547   28.8541   55.6376 H   0  0  0  0  0  0  0  0  0  0  0  0
  1  2  2  0
  1  7  1  0
  3  2  1  0
  4  3  2  0
  5  4  1  0
  5  6  2  0
  6  1  1  0
  7  8  1  0
  2  9  1  0
  3 10  1  0
  5 11  1  0
  7 12  1  0
  7 13  1  0
  8 14  1  0
  8 15  1  0
 16 17  1  0
 17 18  1  0
 17 19  2  0
 19 20  1  0
 20 21  2  0
 21 22  1  0
 22 23  1  0
 21 24  1  0
 24 25  2  0
 25 26  1  0
 25 27  1  0
 27 28  2  0
 28 16  1  0
 28 20  1  0
 22 29  1  0
  8 16  1  0
M  ISO  8   9  14  10  14  11  14  12   8  13   8  14   8  15   8  18  15
M  ISO  2  23   5  26  16
M  END
>  <DihAtoms>  (1) 
6,7,15,16

>  <DihDeg>  (1) 
-89.99919269181427

$$$$
