
     RDKit          3D

 42 46  0  0  0  0  0  0  0  0999 V2000
   37.6808   31.2964   48.2032 C   0  0  0  0  0  0  0  0  0  0  0  0
   38.5367   32.3089   48.0861 C   0  0  0  0  0  0  0  0  0  0  0  0
   38.9263   32.7084   46.8669 C   0  0  0  0  0  0  0  0  0  0  0  0
   38.4119   32.0389   45.7833 C   0  0  0  0  0  0  0  0  0  0  0  0
   37.3274   30.7896   46.5688 S   0  0  0  0  0  0  0  0  0  0  0  0
   41.1548   31.2387   44.7200 Cl  0  0  0  0  0  0  0  0  0  0  0  0
   39.7771   31.8326   43.7991 C   0  0  0  0  0  0  0  0  0  0  0  0
   38.5839   32.1684   44.3554 C   0  0  0  0  0  0  0  0  0  0  0  0
   37.5112   32.6238   43.6912 C   0  0  0  0  0  0  0  0  0  0  0  0
   37.6083   32.7743   42.2986 C   0  0  0  0  0  0  0  0  0  0  0  0
   38.7760   32.4551   41.6829 C   0  0  0  0  0  0  0  0  0  0  0  0
   38.9637   32.6190   39.9530 Cl  0  0  0  0  0  0  0  0  0  0  0  0
   39.8458   31.9909   42.4210 C   0  0  0  0  0  0  0  0  0  0  0  0
   37.1554   29.9136   51.6728 C   0  0  0  0  0  0  0  0  0  0  0  0
   37.7907   30.5461   50.5886 C   0  0  0  0  0  0  0  0  0  0  0  0
   37.0814   30.6456   49.3880 C   0  0  0  0  0  0  0  0  0  0  0  0
   35.8473   30.1397   49.3309 N   0  0  0  0  0  0  0  0  0  0  0  0
   35.2609   29.5426   50.3714 C   0  0  0  0  0  0  0  0  0  0  0  0
   35.9132   29.4332   51.5292 N   0  0  0  0  0  0  0  0  0  0  0  0
   33.9136   29.0309   50.1876 C   0  0  0  0  0  0  0  0  0  0  0  0
   33.6765   28.2862   49.2091 O   0  0  0  0  0  0  0  0  0  0  0  0
   38.8935   32.7819   49.0011 H   0  0  0  0  0  0  0  0  0  0  0  0
   39.6120   33.5116   46.6217 H   0  0  0  0  0  0  0  0  0  0  0  0
   36.5485   32.8961   44.1296 H   0  0  0  0  0  0  0  0  0  0  0  0
   36.7599   33.1409   41.7250 H   0  0  0  0  0  0  0  0  0  0  0  0
   40.7732   31.7402   41.9102 H   0  0  0  0  0  0  0  0  0  0  0  0
   37.7175   29.8452   52.5931 H   0  0  0  0  0  0  0  0  0  0  0  0
   38.7946   30.9491   50.6606 H   0  0  0  0  0  0  0  0  0  0  0  0
   33.8778   30.1811   52.8357 H   0  0  0  0  0  0  0  0  0  0  0  0
   33.0190   29.9162   52.3421 N   0  0  0  0  0  0  0  0  0  0  0  0
   32.8508   29.3779   51.1273 C   0  0  0  0  0  0  0  0  0  0  0  0
   31.5296   29.2050   50.9070 N   0  0  0  0  0  0  0  0  0  0  0  0
   30.8410   29.6415   52.0020 C   0  0  0  0  0  0  0  0  0  0  0  0
   29.4832   29.6873   52.2892 C   0  0  0  0  0  0  0  0  0  0  0  0
   28.5944   29.2049   51.2995 N   0  0  0  0  0  0  0  0  0  0  0  0
   27.6287   29.5398   51.0506 H   0  0  0  0  0  0  0  0  0  0  0  0
   29.1184   30.1896   53.4922 N   0  0  0  0  0  0  0  0  0  0  0  0
   30.0600   30.6281   54.3740 C   0  0  0  0  0  0  0  0  0  0  0  0
   29.6262   30.9988   55.2839 H   0  0  0  0  0  0  0  0  0  0  0  0
   31.3938   30.5816   54.0883 N   0  0  0  0  0  0  0  0  0  0  0  0
   31.8031   30.0839   52.8900 C   0  0  0  0  0  0  0  0  0  0  0  0
   28.8589   28.4119   50.6930 H   0  0  0  0  0  0  0  0  0  0  0  0
  1 16  1  0
  2  1  2  0
  3  2  1  0
  4  5  1  0
  4  3  2  0
  5  1  1  0
  7  8  2  0
  7  6  1  0
  8  4  1  0
  9  8  1  0
 10  9  2  0
 11 10  1  0
 11 13  2  0
 12 11  1  0
 13  7  1  0
 15 14  2  0
 16 15  1  0
 17 16  2  0
 17 18  1  0
 18 19  2  0
 19 14  1  0
 20 18  1  0
 21 20  2  0
  2 22  1  0
  3 23  1  0
  9 24  1  0
 10 25  1  0
 13 26  1  0
 14 27  1  0
 15 28  1  0
 29 30  1  0
 30 31  1  0
 31 32  2  0
 32 33  1  0
 33 34  2  0
 34 35  1  0
 35 36  1  0
 34 37  1  0
 37 38  2  0
 38 39  1  0
 38 40  1  0
 40 41  2  0
 41 30  1  0
 41 33  1  0
 35 42  1  0
 20 31  1  0
M  ISO  8  22  14  23  14  24  14  25  14  26  14  27  14  28  14  29   9
M  ISO  2  36   5  39  16
M  END
>  <DihAtoms>  (1) 
17,19,30,29

>  <DihDeg>  (1) 
179.99975116481548

$$$$
