
     RDKit          3D

 42 45  0  0  0  0  0  0  0  0999 V2000
   35.3587   29.8304   46.7685 O   0  0  0  0  0  0  0  0  0  0  0  0
   34.1009   29.9947   47.6150 P   0  0  2  0  0  0  0  0  0  0  0  0
   33.1036   31.0305   46.7194 O   0  0  0  0  0  0  0  0  0  0  0  0
   34.3975   30.6541   49.1590 O   0  0  0  0  0  0  0  0  0  0  0  0
   35.6309   30.5073   49.7885 C   0  0  0  0  0  0  0  0  0  0  0  0
   35.9688   29.4854   50.7062 C   0  0  0  0  0  0  0  0  0  0  0  0
   37.2483   29.4870   51.2423 C   0  0  0  0  0  0  0  0  0  0  0  0
   38.1206   30.4748   50.8585 N   0  0  0  0  0  0  0  0  0  0  0  0
   37.7679   31.4441   49.9744 C   0  0  0  0  0  0  0  0  0  0  0  0
   36.5153   31.4583   49.4377 N   0  0  0  0  0  0  0  0  0  0  0  0
   33.3404   28.5104   47.8401 O   0  0  0  0  0  0  0  0  0  0  0  0
   33.0890   27.3384   45.8735 C   0  0  1  0  0  0  0  0  0  0  0  0
   33.9223   27.4758   47.1679 C   0  0  2  0  0  0  0  0  0  0  0  0
   33.8368   26.2405   47.7288 O   0  0  0  0  0  0  0  0  0  0  0  0
   34.0580   25.3677   46.6816 C   0  0  0  0  0  0  0  0  0  0  0  0
   33.4562   25.9550   45.4395 C   0  0  2  0  0  0  0  0  0  0  0  0
   31.7459   27.5256   46.1457 O   0  0  0  0  0  0  0  0  0  0  0  0
   34.3819   25.9988   44.4124 O   0  0  0  0  0  0  0  0  0  0  0  0
   32.6242   30.5429   46.0093 H   0  0  0  0  0  0  0  0  0  0  0  0
   35.1851   28.7784   50.9141 H   0  0  0  0  0  0  0  0  0  0  0  0
   37.4896   28.7139   51.9307 H   0  0  0  0  0  0  0  0  0  0  0  0
   38.4810   32.2034   49.6973 H   0  0  0  0  0  0  0  0  0  0  0  0
   33.4713   28.1467   45.2029 H   0  0  0  0  0  0  0  0  0  0  0  0
   34.9489   27.7125   46.8162 H   0  0  0  0  0  0  0  0  0  0  0  0
   35.1748   25.2883   46.5498 H   0  0  0  0  0  0  0  0  0  0  0  0
   33.7227   24.3325   46.9002 H   0  0  0  0  0  0  0  0  0  0  0  0
   32.5692   25.3429   45.1643 H   0  0  0  0  0  0  0  0  0  0  0  0
   31.2676   27.7456   45.3260 H   0  0  0  0  0  0  0  0  0  0  0  0
   33.1892   26.8652   42.0813 H   0  0  0  0  0  0  0  0  0  0  0  0
   33.5769   25.9005   42.1329 N   0  0  0  0  0  0  0  0  0  0  0  0
   34.1854   25.3433   43.2028 C   0  0  0  0  0  0  0  0  0  0  0  0
   34.5463   24.0846   42.8779 N   0  0  0  0  0  0  0  0  0  0  0  0
   34.1719   23.8229   41.5940 C   0  0  0  0  0  0  0  0  0  0  0  0
   34.3194   22.6890   40.8202 C   0  0  0  0  0  0  0  0  0  0  0  0
   34.9668   21.5365   41.3799 N   0  0  0  0  0  0  0  0  0  0  0  0
   35.0262   20.6933   40.7684 H   0  0  0  0  0  0  0  0  0  0  0  0
   33.8454   22.7093   39.5585 N   0  0  0  0  0  0  0  0  0  0  0  0
   33.2447   23.8487   39.1117 C   0  0  0  0  0  0  0  0  0  0  0  0
   32.8465   23.9169   38.1047 H   0  0  0  0  0  0  0  0  0  0  0  0
   33.0995   24.9654   39.8737 N   0  0  0  0  0  0  0  0  0  0  0  0
   33.5628   24.9916   41.1544 C   0  0  0  0  0  0  0  0  0  0  0  0
   35.0240   20.6818   40.7526 H   0  0  0  0  0  0  0  0  0  0  0  0
  2  1  2  0
  2 11  1  1
  2  4  1  0
  3  2  1  0
  4  5  1  0
  5  6  2  0
  6  7  1  0
  8  7  2  0
  9  8  1  0
 10  5  1  0
 10  9  2  0
 12 17  1  0
 12 13  1  0
 13 14  1  0
 13 11  1  0
 15 14  1  0
 16 18  1  0
 16 12  1  0
 16 15  1  0
  3 19  1  0
  6 20  1  0
  7 21  1  0
  9 22  1  0
 12 23  1  6
 13 24  1  6
 15 25  1  0
 15 26  1  0
 16 27  1  6
 17 28  1  0
 29 30  1  0
 30 31  1  0
 31 32  2  0
 32 33  1  0
 33 34  2  0
 34 35  1  0
 35 36  1  0
 34 37  1  0
 37 38  2  0
 38 39  1  0
 38 40  1  0
 40 41  2  0
 41 30  1  0
 41 33  1  0
 35 42  1  0
 18 31  1  0
M  ISO  8  19   3  20  14  21  14  22  14  23  13  24  13  25  13  26  13
M  ISO  5  27  13  28   3  29   9  36   5  39  16
M  END
>  <DihAtoms>  (1) 
15,17,30,29

>  <DihDeg>  (1) 
179.99839996200996

$$$$
