
     RDKit          3D

 30 32  0  0  0  0  0  0  0  0999 V2000
   37.0527   29.4143   51.1723 C   0  0  0  0  0  0  0  0  0  0  0  0
   37.6737   30.0277   50.0755 C   0  0  0  0  0  0  0  0  0  0  0  0
   36.8982   30.4901   49.0385 C   0  0  0  0  0  0  0  0  0  0  0  0
   35.5479   30.3187   49.1461 N   0  0  0  0  0  0  0  0  0  0  0  0
   34.9714   29.7256   50.2111 C   0  0  0  0  0  0  0  0  0  0  0  0
   35.7279   29.2707   51.2299 N   0  0  0  0  0  0  0  0  0  0  0  0
   37.4520   31.1456   47.8458 C   0  0  0  0  0  0  0  0  0  0  0  0
   38.7556   31.8507   48.1541 C   0  0  0  0  0  0  0  0  0  0  0  0
   38.4736   33.3596   49.1036 S   0  0  0  0  0  0  0  0  0  0  0  0
   37.6398   29.0420   51.9999 H   0  0  0  0  0  0  0  0  0  0  0  0
   38.7499   30.1321   50.0528 H   0  0  0  0  0  0  0  0  0  0  0  0
   33.8764   29.6790   50.1198 H   0  0  0  0  0  0  0  0  0  0  0  0
   36.7258   31.9486   47.5466 H   0  0  0  0  0  0  0  0  0  0  0  0
   37.5523   30.4498   46.9839 H   0  0  0  0  0  0  0  0  0  0  0  0
   39.5503   31.2085   48.5275 H   0  0  0  0  0  0  0  0  0  0  0  0
   39.1190   32.2003   47.1403 H   0  0  0  0  0  0  0  0  0  0  0  0
   39.3624   35.0634   46.7944 H   0  0  0  0  0  0  0  0  0  0  0  0
   38.3407   35.1083   47.0843 N   0  0  0  0  0  0  0  0  0  0  0  0
   37.5983   34.4999   48.0528 C   0  0  0  0  0  0  0  0  0  0  0  0
   36.3314   34.9483   47.9499 N   0  0  0  0  0  0  0  0  0  0  0  0
   36.2729   35.8255   46.9340 C   0  0  0  0  0  0  0  0  0  0  0  0
   35.2801   36.5940   46.3614 C   0  0  0  0  0  0  0  0  0  0  0  0
   33.9927   36.4689   46.9404 N   0  0  0  0  0  0  0  0  0  0  0  0
   34.0198   37.0646   47.7899 H   0  0  0  0  0  0  0  0  0  0  0  0
   35.4673   37.4277   45.3145 N   0  0  0  0  0  0  0  0  0  0  0  0
   36.7175   37.5135   44.7927 C   0  0  0  0  0  0  0  0  0  0  0  0
   36.9207   38.1752   43.9437 H   0  0  0  0  0  0  0  0  0  0  0  0
   37.7097   36.7794   45.3246 N   0  0  0  0  0  0  0  0  0  0  0  0
   37.5359   35.9452   46.3675 C   0  0  0  0  0  0  0  0  0  0  0  0
   33.0394   36.0537   46.9011 H   0  0  0  0  0  0  0  0  0  0  0  0
  1  6  2  0
  2  1  1  0
  3  4  1  0
  3  2  2  0
  4  5  2  0
  5  6  1  0
  7  8  1  0
  7  3  1  0
  8  9  1  0
  1 10  1  0
  2 11  1  0
  5 12  1  0
  7 13  1  0
  7 14  1  0
  8 15  1  0
  8 16  1  0
 17 18  1  0
 18 19  1  0
 19 20  2  0
 20 21  1  0
 21 22  2  0
 22 23  1  0
 23 24  1  0
 22 25  1  0
 25 26  2  0
 26 27  1  0
 26 28  1  0
 28 29  2  0
 29 18  1  0
 29 21  1  0
 23 30  1  0
  9 19  1  0
M  ISO  8  10  14  11  14  12  14  13   8  14   8  15   8  16   8  17   9
M  ISO  2  24   5  27  16
M  END
>  <DihAtoms>  (1) 
7,8,18,17

>  <DihDeg>  (1) 
-90.29731792077514

$$$$
