
     RDKit          3D

 29 31  0  0  0  0  0  0  0  0999 V2000
   37.3802   30.2510   51.4165 C   0  0  0  0  0  0  0  0  0  0  0  0
   38.0385   30.9131   50.3670 C   0  0  0  0  0  0  0  0  0  0  0  0
   37.6974   30.6159   49.0577 C   0  0  0  0  0  0  0  0  0  0  0  0
   36.7256   29.6821   48.8409 N   0  0  0  0  0  0  0  0  0  0  0  0
   36.1080   29.0600   49.8643 C   0  0  0  0  0  0  0  0  0  0  0  0
   36.4282   29.3377   51.1432 N   0  0  0  0  0  0  0  0  0  0  0  0
   38.3223   31.2493   47.8636 C   0  0  0  0  0  0  0  0  0  0  0  0
   38.8257   32.6409   48.2088 C   0  0  0  0  0  0  0  0  0  0  0  0
   37.6378   30.4744   52.4439 H   0  0  0  0  0  0  0  0  0  0  0  0
   38.7936   31.6385   50.5406 H   0  0  0  0  0  0  0  0  0  0  0  0
   35.3566   28.3415   49.5549 H   0  0  0  0  0  0  0  0  0  0  0  0
   37.5722   31.3409   47.0660 H   0  0  0  0  0  0  0  0  0  0  0  0
   39.1638   30.6526   47.4595 H   0  0  0  0  0  0  0  0  0  0  0  0
   38.0081   33.2794   48.5607 H   0  0  0  0  0  0  0  0  0  0  0  0
   39.6636   32.5384   48.9298 H   0  0  0  0  0  0  0  0  0  0  0  0
   39.4182   33.1712   46.9724 N   0  0  0  0  0  0  0  0  0  0  0  0
   39.5271   32.6095   45.7671 C   0  0  0  0  0  0  0  0  0  0  0  0
   39.1555   31.6155   45.5609 H   0  0  0  0  0  0  0  0  0  0  0  0
   40.1514   33.4775   44.9233 N   0  0  0  0  0  0  0  0  0  0  0  0
   40.4180   34.5907   45.6649 C   0  0  0  0  0  0  0  0  0  0  0  0
   41.0342   35.7777   45.3220 C   0  0  0  0  0  0  0  0  0  0  0  0
   41.5317   36.0411   44.0141 N   0  0  0  0  0  0  0  0  0  0  0  0
   42.5527   35.8652   43.8524 H   0  0  0  0  0  0  0  0  0  0  0  0
   41.1674   36.7317   46.2826 N   0  0  0  0  0  0  0  0  0  0  0  0
   40.7331   36.5759   47.5346 C   0  0  0  0  0  0  0  0  0  0  0  0
   40.8594   37.3597   48.2662 H   0  0  0  0  0  0  0  0  0  0  0  0
   40.1317   35.4169   47.8684 N   0  0  0  0  0  0  0  0  0  0  0  0
   39.9618   34.4157   46.9629 C   0  0  0  0  0  0  0  0  0  0  0  0
   40.6180   36.3615   43.5852 H   0  0  0  0  0  0  0  0  0  0  0  0
  2  1  2  0
  3  2  1  0
  4  3  2  0
  4  5  1  0
  5  6  2  0
  6  1  1  0
  7  8  1  0
  7  3  1  0
  1  9  1  0
  2 10  1  0
  5 11  1  0
  7 12  1  0
  7 13  1  0
  8 14  1  0
  8 15  1  0
 16 17  1  0
 17 18  1  0
 17 19  2  0
 19 20  1  0
 20 21  2  0
 21 22  1  0
 22 23  1  0
 21 24  1  0
 24 25  2  0
 25 26  1  0
 25 27  1  0
 27 28  2  0
 28 16  1  0
 28 20  1  0
 22 29  1  0
  8 16  1  0
M  ISO  8   9  14  10  14  11  14  12   8  13   8  14   8  15   8  18  15
M  ISO  2  23   5  26  16
M  END
>  <DihAtoms>  (1) 
6,7,15,16

>  <DihDeg>  (1) 
-89.99681741963035

$$$$
