
     RDKit          3D

 29 31  0  0  0  0  0  0  0  0999 V2000
   37.3046   31.4047   49.2559 C   0  0  0  0  0  0  0  0  0  0  0  0
   38.1617   32.4749   49.4647 C   0  0  0  0  0  0  0  0  0  0  0  0
   38.8728   33.0070   48.3825 C   0  0  0  0  0  0  0  0  0  0  0  0
   38.6726   32.4226   47.1532 N   0  0  0  0  0  0  0  0  0  0  0  0
   37.8319   31.3814   46.9791 C   0  0  0  0  0  0  0  0  0  0  0  0
   37.1585   30.8868   48.0375 N   0  0  0  0  0  0  0  0  0  0  0  0
   36.5233   30.7968   50.3285 C   0  0  0  0  0  0  0  0  0  0  0  0
   37.3266   30.1499   51.4096 C   0  0  0  0  0  0  0  0  0  0  0  0
   38.2836   32.8971   50.4476 H   0  0  0  0  0  0  0  0  0  0  0  0
   39.5370   33.8282   48.5161 H   0  0  0  0  0  0  0  0  0  0  0  0
   37.7151   30.9607   45.9805 H   0  0  0  0  0  0  0  0  0  0  0  0
   35.9737   31.6549   50.8210 H   0  0  0  0  0  0  0  0  0  0  0  0
   35.7612   30.1068   49.9795 H   0  0  0  0  0  0  0  0  0  0  0  0
   38.0009   29.3615   51.0611 H   0  0  0  0  0  0  0  0  0  0  0  0
   37.9422   30.9197   51.9428 H   0  0  0  0  0  0  0  0  0  0  0  0
   36.3523   29.6133   52.3668 N   0  0  0  0  0  0  0  0  0  0  0  0
   35.0151   29.7178   52.2366 C   0  0  0  0  0  0  0  0  0  0  0  0
   34.4640   30.2000   51.4288 H   0  0  0  0  0  0  0  0  0  0  0  0
   34.3694   29.1335   53.2638 N   0  0  0  0  0  0  0  0  0  0  0  0
   35.3165   28.6395   54.0771 C   0  0  0  0  0  0  0  0  0  0  0  0
   35.3263   27.9377   55.2819 C   0  0  0  0  0  0  0  0  0  0  0  0
   34.0132   27.6663   55.7963 N   0  0  0  0  0  0  0  0  0  0  0  0
   33.3060   28.2112   56.3412 H   0  0  0  0  0  0  0  0  0  0  0  0
   36.4880   27.5654   55.8784 N   0  0  0  0  0  0  0  0  0  0  0  0
   37.6464   27.8994   55.2623 C   0  0  0  0  0  0  0  0  0  0  0  0
   38.5461   27.5710   55.7929 H   0  0  0  0  0  0  0  0  0  0  0  0
   37.6785   28.5747   54.1015 N   0  0  0  0  0  0  0  0  0  0  0  0
   36.5303   28.9474   53.5038 C   0  0  0  0  0  0  0  0  0  0  0  0
   33.6120   26.7166   55.6174 H   0  0  0  0  0  0  0  0  0  0  0  0
  1  2  2  0
  1  7  1  0
  3  2  1  0
  4  3  2  0
  5  4  1  0
  5  6  2  0
  6  1  1  0
  7  8  1  0
  2  9  1  0
  3 10  1  0
  5 11  1  0
  7 12  1  0
  7 13  1  0
  8 14  1  0
  8 15  1  0
 16 17  1  0
 17 18  1  0
 17 19  2  0
 19 20  1  0
 20 21  2  0
 21 22  1  0
 22 23  1  0
 21 24  1  0
 24 25  2  0
 25 26  1  0
 25 27  1  0
 27 28  2  0
 28 16  1  0
 28 20  1  0
 22 29  1  0
  8 16  1  0
M  ISO  8   9  14  10  14  11  14  12   8  13   8  14   8  15   8  18  15
M  ISO  2  23   5  26  16
M  END
>  <DihAtoms>  (1) 
6,7,15,16

>  <DihDeg>  (1) 
-89.99919269181427

$$$$
