
     RDKit          3D

 30 32  0  0  0  0  0  0  0  0999 V2000
   37.0527   29.4143   51.1723 C   0  0  0  0  0  0  0  0  0  0  0  0
   37.6737   30.0277   50.0755 C   0  0  0  0  0  0  0  0  0  0  0  0
   36.8982   30.4901   49.0385 C   0  0  0  0  0  0  0  0  0  0  0  0
   35.5479   30.3187   49.1461 N   0  0  0  0  0  0  0  0  0  0  0  0
   34.9714   29.7256   50.2111 C   0  0  0  0  0  0  0  0  0  0  0  0
   35.7279   29.2707   51.2299 N   0  0  0  0  0  0  0  0  0  0  0  0
   37.4520   31.1456   47.8458 C   0  0  0  0  0  0  0  0  0  0  0  0
   38.7556   31.8507   48.1541 C   0  0  0  0  0  0  0  0  0  0  0  0
   38.4736   33.3596   49.1036 S   0  0  0  0  0  0  0  0  0  0  0  0
   37.6398   29.0420   51.9999 H   0  0  0  0  0  0  0  0  0  0  0  0
   38.7499   30.1321   50.0528 H   0  0  0  0  0  0  0  0  0  0  0  0
   33.8764   29.6790   50.1198 H   0  0  0  0  0  0  0  0  0  0  0  0
   36.7258   31.9486   47.5466 H   0  0  0  0  0  0  0  0  0  0  0  0
   37.5523   30.4498   46.9839 H   0  0  0  0  0  0  0  0  0  0  0  0
   39.5503   31.2085   48.5275 H   0  0  0  0  0  0  0  0  0  0  0  0
   39.1190   32.2003   47.1403 H   0  0  0  0  0  0  0  0  0  0  0  0
   36.5382   32.9414   46.8442 H   0  0  0  0  0  0  0  0  0  0  0  0
   36.7849   33.9400   47.1124 N   0  0  0  0  0  0  0  0  0  0  0  0
   37.5983   34.4999   48.0528 C   0  0  0  0  0  0  0  0  0  0  0  0
   37.5175   35.8396   47.9292 N   0  0  0  0  0  0  0  0  0  0  0  0
   36.6679   36.1229   46.9277 C   0  0  0  0  0  0  0  0  0  0  0  0
   36.1931   37.2806   46.3460 C   0  0  0  0  0  0  0  0  0  0  0  0
   36.6825   38.4919   46.8951 N   0  0  0  0  0  0  0  0  0  0  0  0
   37.6230   38.6182   46.4745 H   0  0  0  0  0  0  0  0  0  0  0  0
   35.3165   37.3152   45.3180 N   0  0  0  0  0  0  0  0  0  0  0  0
   34.8749   36.1297   44.8261 C   0  0  0  0  0  0  0  0  0  0  0  0
   34.1638   36.1045   43.9931 H   0  0  0  0  0  0  0  0  0  0  0  0
   35.3155   34.9816   45.3679 N   0  0  0  0  0  0  0  0  0  0  0  0
   36.1887   34.9338   46.3921 C   0  0  0  0  0  0  0  0  0  0  0  0
   36.5285   39.3062   47.5243 H   0  0  0  0  0  0  0  0  0  0  0  0
  1  6  2  0
  2  1  1  0
  3  4  1  0
  3  2  2  0
  4  5  2  0
  5  6  1  0
  7  8  1  0
  7  3  1  0
  8  9  1  0
  1 10  1  0
  2 11  1  0
  5 12  1  0
  7 13  1  0
  7 14  1  0
  8 15  1  0
  8 16  1  0
 17 18  1  0
 18 19  1  0
 19 20  2  0
 20 21  1  0
 21 22  2  0
 22 23  1  0
 23 24  1  0
 22 25  1  0
 25 26  2  0
 26 27  1  0
 26 28  1  0
 28 29  2  0
 29 18  1  0
 29 21  1  0
 23 30  1  0
  9 19  1  0
M  ISO  8  10  14  11  14  12  14  13   8  14   8  15   8  16   8  17   9
M  ISO  2  24   5  27  16
M  END
>  <DihAtoms>  (1) 
7,8,18,17

>  <DihDeg>  (1) 
-90.29731792077514

$$$$
