
     RDKit          3D

 29 31  0  0  0  0  0  0  0  0999 V2000
   37.3802   30.2510   51.4165 C   0  0  0  0  0  0  0  0  0  0  0  0
   38.0385   30.9131   50.3670 C   0  0  0  0  0  0  0  0  0  0  0  0
   37.6974   30.6159   49.0577 C   0  0  0  0  0  0  0  0  0  0  0  0
   36.7256   29.6821   48.8409 N   0  0  0  0  0  0  0  0  0  0  0  0
   36.1080   29.0600   49.8643 C   0  0  0  0  0  0  0  0  0  0  0  0
   36.4282   29.3377   51.1432 N   0  0  0  0  0  0  0  0  0  0  0  0
   38.3223   31.2493   47.8636 C   0  0  0  0  0  0  0  0  0  0  0  0
   38.8257   32.6409   48.2088 C   0  0  0  0  0  0  0  0  0  0  0  0
   37.6378   30.4744   52.4439 H   0  0  0  0  0  0  0  0  0  0  0  0
   38.7936   31.6385   50.5406 H   0  0  0  0  0  0  0  0  0  0  0  0
   35.3566   28.3415   49.5549 H   0  0  0  0  0  0  0  0  0  0  0  0
   37.5722   31.3409   47.0660 H   0  0  0  0  0  0  0  0  0  0  0  0
   39.1638   30.6526   47.4595 H   0  0  0  0  0  0  0  0  0  0  0  0
   38.0081   33.2794   48.5607 H   0  0  0  0  0  0  0  0  0  0  0  0
   39.6636   32.5384   48.9298 H   0  0  0  0  0  0  0  0  0  0  0  0
   39.4182   33.1712   46.9724 N   0  0  0  0  0  0  0  0  0  0  0  0
   39.3004   32.7411   45.7149 C   0  0  0  0  0  0  0  0  0  0  0  0
   38.7011   31.8793   45.4563 H   0  0  0  0  0  0  0  0  0  0  0  0
   40.0310   33.5474   44.8956 N   0  0  0  0  0  0  0  0  0  0  0  0
   40.5985   34.4859   45.7064 C   0  0  0  0  0  0  0  0  0  0  0  0
   41.4333   35.5459   45.4139 C   0  0  0  0  0  0  0  0  0  0  0  0
   41.8683   35.8457   44.0916 N   0  0  0  0  0  0  0  0  0  0  0  0
   42.8078   35.4763   43.8079 H   0  0  0  0  0  0  0  0  0  0  0  0
   41.8538   36.3331   46.4405 N   0  0  0  0  0  0  0  0  0  0  0  0
   41.4996   36.1308   47.7110 C   0  0  0  0  0  0  0  0  0  0  0  0
   41.8567   36.7806   48.4958 H   0  0  0  0  0  0  0  0  0  0  0  0
   40.6846   35.0958   47.9957 N   0  0  0  0  0  0  0  0  0  0  0  0
   40.2226   34.2642   47.0229 C   0  0  0  0  0  0  0  0  0  0  0  0
   41.0169   36.4000   43.7929 H   0  0  0  0  0  0  0  0  0  0  0  0
  2  1  2  0
  3  2  1  0
  4  3  2  0
  4  5  1  0
  5  6  2  0
  6  1  1  0
  7  8  1  0
  7  3  1  0
  1  9  1  0
  2 10  1  0
  5 11  1  0
  7 12  1  0
  7 13  1  0
  8 14  1  0
  8 15  1  0
 16 17  1  0
 17 18  1  0
 17 19  2  0
 19 20  1  0
 20 21  2  0
 21 22  1  0
 22 23  1  0
 21 24  1  0
 24 25  2  0
 25 26  1  0
 25 27  1  0
 27 28  2  0
 28 16  1  0
 28 20  1  0
 22 29  1  0
  8 16  1  0
M  ISO  8   9  14  10  14  11  14  12   8  13   8  14   8  15   8  18  15
M  ISO  2  23   5  26  16
M  END
>  <DihAtoms>  (1) 
6,7,15,16

>  <DihDeg>  (1) 
-89.99681741963035

$$$$
