
     RDKit          3D

 24 26  0  0  0  0  0  0  0  0999 V2000
   33.0700   28.4940   48.7380 N   0  0  0  0  0  0  0  0  0  0  0  0
   33.6700   29.1390   47.7170 C   0  0  0  0  0  0  0  0  0  0  0  0
   32.8800   29.0640   46.6500 N   0  0  0  0  0  0  0  0  0  0  0  0
   31.7740   28.3690   46.9870 C   0  0  0  0  0  0  0  0  0  0  0  0
   30.6310   27.9710   46.3420 C   0  0  0  0  0  0  0  0  0  0  0  0
   29.7030   27.2660   47.0060 N   0  0  0  0  0  0  0  0  0  0  0  0
   29.8360   26.9250   48.2910 C   0  0  0  0  0  0  0  0  0  0  0  0
   30.9580   27.3000   48.9690 N   0  0  0  0  0  0  0  0  0  0  0  0
   31.8940   28.0080   48.3110 C   0  0  0  0  0  0  0  0  0  0  0  0
   30.5160   28.3510   44.9680 N   0  0  0  0  0  0  0  0  0  0  0  0
   35.2140   30.0250   47.5060 S   0  0  0  0  0  0  0  0  0  0  0  0
   36.2510   29.4730   51.2840 C   0  0  0  0  0  0  0  0  0  0  0  0
   37.4450   30.1810   51.4310 C   0  0  0  0  0  0  0  0  0  0  0  0
   37.9670   30.8650   50.3200 C   0  0  0  0  0  0  0  0  0  0  0  0
   37.2670   30.7960   49.1520 N   0  0  0  0  0  0  0  0  0  0  0  0
   36.1240   30.1090   49.0420 C   0  0  0  0  0  0  0  0  0  0  0  0
   35.6040   29.4430   50.1010 N   0  0  0  0  0  0  0  0  0  0  0  0
   33.4515   28.3912   49.6892 H   0  0  0  0  0  0  0  0  0  0  0  0
   29.0482   26.3475   48.7969 H   0  0  0  0  0  0  0  0  0  0  0  0
   29.6813   28.0826   44.4276 H   0  0  0  0  0  0  0  0  0  0  0  0
   31.2679   28.8931   44.5189 H   0  0  0  0  0  0  0  0  0  0  0  0
   35.8319   28.9319   52.1451 H   0  0  0  0  0  0  0  0  0  0  0  0
   37.9676   30.2031   52.3987 H   0  0  0  0  0  0  0  0  0  0  0  0
   38.9053   31.4348   50.3900 H   0  0  0  0  0  0  0  0  0  0  0  0
  2  1  1  0
  3  4  1  0
  3  2  2  0
  4  9  2  0
  5  4  1  0
  5  6  2  0
  6  7  1  0
  7  8  2  0
  9  1  1  0
  9  8  1  0
 10  5  1  0
 11  2  1  0
 11 16  1  0
 12 13  2  0
 14 13  1  0
 15 14  2  0
 16 15  1  0
 16 17  2  0
 17 12  1  0
  1 18  1  0
  7 19  1  0
 10 20  1  0
 10 21  1  0
 12 22  1  0
 13 23  1  0
 14 24  1  0
M  ISO  5  18   9  19  14  22  14  23  14  24  14
M  END
>  <minimizedAffinity>  (1) 
-4.49847984

>  <minimizedRMSD>  (1) 
4.55737162

$$$$
