
     RDKit          3D

 38 41  0  0  0  0  0  0  0  0999 V2000
   38.0008   31.3991   47.6379 C   0  0  0  0  0  0  0  0  0  0  0  0
   37.0801   31.3284   48.6766 C   0  0  0  0  0  0  0  0  0  0  0  0
   37.1983   32.3509   49.6180 C   0  0  0  0  0  0  0  0  0  0  0  0
   38.1692   33.3445   49.4972 C   0  0  0  0  0  0  0  0  0  0  0  0
   39.0507   33.3277   48.4130 C   0  0  0  0  0  0  0  0  0  0  0  0
   38.9580   32.3300   47.4673 C   0  0  0  0  0  0  0  0  0  0  0  0
   34.9400   30.3524   47.9863 C   0  0  0  0  0  0  0  0  0  0  0  0
   36.0855   30.3100   48.7998 C   0  0  0  0  0  0  0  0  0  0  0  0
   36.1988   29.2569   49.7049 C   0  0  0  0  0  0  0  0  0  0  0  0
   35.1969   28.3329   49.7488 N   0  0  0  0  0  0  0  0  0  0  0  0
   34.1008   28.4067   48.9443 C   0  0  0  0  0  0  0  0  0  0  0  0
   33.9792   29.4148   48.0690 N   0  0  0  0  0  0  0  0  0  0  0  0
   37.3731   29.1563   50.5837 C   0  0  0  0  0  0  0  0  0  0  0  0
   37.9434   30.3917   46.6390 O   0  0  0  0  0  0  0  0  0  0  0  0
   39.8412   32.3417   46.4113 O   0  0  0  0  0  0  0  0  0  0  0  0
   36.5258   32.3819   50.4642 H   0  0  0  0  0  0  0  0  0  0  0  0
   38.2274   34.1252   50.2546 H   0  0  0  0  0  0  0  0  0  0  0  0
   39.7929   34.1025   48.3368 H   0  0  0  0  0  0  0  0  0  0  0  0
   34.8220   31.1617   47.2697 H   0  0  0  0  0  0  0  0  0  0  0  0
   33.3128   27.6705   48.9863 H   0  0  0  0  0  0  0  0  0  0  0  0
   36.9867   28.9542   51.6214 H   0  0  0  0  0  0  0  0  0  0  0  0
   37.9958   28.2976   50.2726 H   0  0  0  0  0  0  0  0  0  0  0  0
   37.9274   30.1102   50.5525 H   0  0  0  0  0  0  0  0  0  0  0  0
   38.7167   29.7351   46.6569 H   0  0  0  0  0  0  0  0  0  0  0  0
   40.0716   30.7602   44.0535 H   0  0  0  0  0  0  0  0  0  0  0  0
   39.5683   31.6495   44.0175 N   0  0  0  0  0  0  0  0  0  0  0  0
   39.4341   32.4295   45.1054 C   0  0  0  0  0  0  0  0  0  0  0  0
   38.7223   33.5074   44.6909 N   0  0  0  0  0  0  0  0  0  0  0  0
   38.4324   33.3840   43.3854 C   0  0  0  0  0  0  0  0  0  0  0  0
   37.7626   34.1027   42.3976 C   0  0  0  0  0  0  0  0  0  0  0  0
   37.1819   35.3437   42.7902 N   0  0  0  0  0  0  0  0  0  0  0  0
   37.6512   36.2514   43.0248 H   0  0  0  0  0  0  0  0  0  0  0  0
   37.6708   33.6443   41.1358 N   0  0  0  0  0  0  0  0  0  0  0  0
   38.2313   32.4581   40.7798 C   0  0  0  0  0  0  0  0  0  0  0  0
   38.1903   32.0404   39.7862 H   0  0  0  0  0  0  0  0  0  0  0  0
   38.8986   31.7019   41.6827 N   0  0  0  0  0  0  0  0  0  0  0  0
   38.9725   32.1899   42.9388 C   0  0  0  0  0  0  0  0  0  0  0  0
   36.1449   35.2018   42.8101 H   0  0  0  0  0  0  0  0  0  0  0  0
  1  2  2  0
  2  8  1  0
  2  3  1  0
  4  3  2  0
  5  4  1  0
  6  1  1  0
  6  5  2  0
  7 12  2  0
  7  8  1  0
  8  9  2  0
  9 10  1  0
  9 13  1  0
 11 10  2  0
 12 11  1  0
 14  1  1  0
 15  6  1  0
  3 16  1  0
  4 17  1  0
  5 18  1  0
  7 19  1  0
 11 20  1  0
 13 21  1  0
 13 22  1  0
 13 23  1  0
 14 24  1  0
 25 26  1  0
 26 27  1  0
 27 28  2  0
 28 29  1  0
 29 30  2  0
 30 31  1  0
 31 32  1  0
 30 33  1  0
 33 34  2  0
 34 35  1  0
 34 36  1  0
 36 37  2  0
 37 26  1  0
 37 29  1  0
 31 38  1  0
 15 27  1  0
M  ISO  8  16  14  17  14  18  14  19  14  20  14  21   8  22   8  23   8
M  ISO  4  24   3  25   9  32   5  35  16
M  END
>  <DihAtoms>  (1) 
5,14,26,25

>  <DihDeg>  (1) 
0.0035668435820083878

$$$$
