
     RDKit          3D

 36 39  0  0  0  0  0  0  0  0999 V2000
   37.9832   30.5059   47.1730 C   0  0  0  0  0  0  0  0  0  0  0  0
   38.9772   31.2405   46.4440 C   0  0  0  0  0  0  0  0  0  0  0  0
   39.2485   32.5503   46.7339 C   0  0  0  0  0  0  0  0  0  0  0  0
   40.2224   33.2676   46.0044 C   0  0  0  0  0  0  0  0  0  0  0  0
   40.8600   32.5519   45.0009 N   0  0  0  0  0  0  0  0  0  0  0  0
   40.5573   31.2578   44.7528 C   0  0  0  0  0  0  0  0  0  0  0  0
   39.6168   30.6078   45.4758 N   0  0  0  0  0  0  0  0  0  0  0  0
   37.1400   31.2224   48.1572 C   0  0  0  0  0  0  0  0  0  0  0  0
   37.2582   30.6949   49.5321 C   0  0  0  0  0  0  0  0  0  0  0  0
   36.3230   29.8161   50.0493 C   0  0  0  0  0  0  0  0  0  0  0  0
   36.6864   29.4999   51.3277 C   0  0  0  0  0  0  0  0  0  0  0  0
   37.8132   30.1728   51.5720 N   0  0  0  0  0  0  0  0  0  0  0  0
   38.1439   30.8720   50.5159 N   0  0  0  0  0  0  0  0  0  0  0  0
   38.5166   29.6903   47.7500 H   0  0  0  0  0  0  0  0  0  0  0  0
   37.3832   29.9120   46.4190 H   0  0  0  0  0  0  0  0  0  0  0  0
   38.8235   33.1952   47.4821 H   0  0  0  0  0  0  0  0  0  0  0  0
   40.5343   34.2780   46.1173 H   0  0  0  0  0  0  0  0  0  0  0  0
   41.0944   30.7490   43.9499 H   0  0  0  0  0  0  0  0  0  0  0  0
   37.2461   32.3086   48.2292 H   0  0  0  0  0  0  0  0  0  0  0  0
   36.0730   31.1060   47.7865 H   0  0  0  0  0  0  0  0  0  0  0  0
   35.4266   29.4139   49.5554 H   0  0  0  0  0  0  0  0  0  0  0  0
   36.1260   28.8185   51.9865 H   0  0  0  0  0  0  0  0  0  0  0  0
   38.9371   27.9869   52.8189 H   0  0  0  0  0  0  0  0  0  0  0  0
   38.9713   28.9017   53.3213 N   0  0  0  0  0  0  0  0  0  0  0  0
   38.4643   30.0601   52.8403 C   0  0  0  0  0  0  0  0  0  0  0  0
   38.6959   31.0308   53.7696 N   0  0  0  0  0  0  0  0  0  0  0  0
   39.3385   30.4490   54.7987 C   0  0  0  0  0  0  0  0  0  0  0  0
   39.8389   30.8704   56.0137 C   0  0  0  0  0  0  0  0  0  0  0  0
   39.7016   32.2380   56.3820 N   0  0  0  0  0  0  0  0  0  0  0  0
   39.0292   32.9500   56.0232 H   0  0  0  0  0  0  0  0  0  0  0  0
   40.4578   30.0629   56.8879 N   0  0  0  0  0  0  0  0  0  0  0  0
   40.6202   28.7746   56.6080 C   0  0  0  0  0  0  0  0  0  0  0  0
   41.1063   28.0533   57.2533 H   0  0  0  0  0  0  0  0  0  0  0  0
   40.1466   28.3214   55.4322 N   0  0  0  0  0  0  0  0  0  0  0  0
   39.5211   29.1101   54.5357 C   0  0  0  0  0  0  0  0  0  0  0  0
   40.2873   32.7099   57.0893 H   0  0  0  0  0  0  0  0  0  0  0  0
  1  8  1  0
  2  3  2  0
  2  1  1  0
  4  3  1  0
  5  4  2  0
  6  5  1  0
  6  7  2  0
  7  2  1  0
  8  9  1  0
  9 10  1  0
  9 13  2  0
 10 11  2  0
 11 12  1  0
 13 12  1  0
  1 14  1  0
  1 15  1  0
  3 16  1  0
  4 17  1  0
  6 18  1  0
  8 19  1  0
  8 20  1  0
 10 21  1  0
 11 22  1  0
 23 24  1  0
 24 25  1  0
 25 26  2  0
 26 27  1  0
 27 28  2  0
 28 29  1  0
 29 30  1  0
 28 31  1  0
 31 32  2  0
 32 33  1  0
 32 34  1  0
 34 35  2  0
 35 24  1  0
 35 27  1  0
 29 36  1  0
 12 25  1  0
M  ISO  8  14   8  15   8  16  14  17  14  18  14  19   8  20   8  21  14
M  ISO  4  22  14  23   9  30   5  33  16
M  END
>  <DihAtoms>  (1) 
10,11,24,23

>  <DihDeg>  (1) 
62.57577006097056

$$$$
