
     RDKit          3D

 37 40  0  0  0  0  0  0  0  0999 V2000
   34.7978   29.5372   47.5223 S   0  0  0  0  0  0  0  0  0  0  0  0
   37.3621   29.4833   50.5307 C   0  0  0  0  0  0  0  0  0  0  0  0
   37.9805   30.7278   50.5223 C   0  0  0  0  0  0  0  0  0  0  0  0
   37.5814   31.6381   49.5277 C   0  0  0  0  0  0  0  0  0  0  0  0
   36.6246   31.2476   48.6448 N   0  0  0  0  0  0  0  0  0  0  0  0
   36.0485   30.0327   48.6851 C   0  0  0  0  0  0  0  0  0  0  0  0
   36.4177   29.1398   49.6348 N   0  0  0  0  0  0  0  0  0  0  0  0
   32.3944   28.3563   47.4660 C   0  0  2  0  0  0  0  0  0  0  0  0
   33.6324   28.4020   48.3411 C   0  0  1  0  0  0  0  0  0  0  0  0
   34.2035   27.1493   48.3406 O   0  0  0  0  0  0  0  0  0  0  0  0
   33.5449   26.3665   47.4270 C   0  0  0  0  0  0  0  0  0  0  0  0
   32.8458   27.3340   46.4596 C   0  0  1  0  0  0  0  0  0  0  0  0
   32.1287   29.5997   46.9026 O   0  0  0  0  0  0  0  0  0  0  0  0
   31.7937   26.6978   45.8223 O   0  0  0  0  0  0  0  0  0  0  0  0
   37.7058   28.8171   51.3185 H   0  0  0  0  0  0  0  0  0  0  0  0
   38.7300   31.0814   51.1860 H   0  0  0  0  0  0  0  0  0  0  0  0
   37.9660   32.6565   49.3798 H   0  0  0  0  0  0  0  0  0  0  0  0
   31.5179   27.9529   48.0206 H   0  0  0  0  0  0  0  0  0  0  0  0
   33.3531   28.7622   49.3438 H   0  0  0  0  0  0  0  0  0  0  0  0
   32.8438   25.6279   47.8456 H   0  0  0  0  0  0  0  0  0  0  0  0
   34.3233   25.8473   46.8133 H   0  0  0  0  0  0  0  0  0  0  0  0
   33.5587   27.7390   45.7297 H   0  0  0  0  0  0  0  0  0  0  0  0
   31.7077   30.1351   47.6408 H   0  0  0  0  0  0  0  0  0  0  0  0
   30.7322   28.3185   43.7390 H   0  0  0  0  0  0  0  0  0  0  0  0
   31.2385   27.4385   43.4849 N   0  0  0  0  0  0  0  0  0  0  0  0
   31.7555   26.6443   44.4428 C   0  0  0  0  0  0  0  0  0  0  0  0
   32.3414   25.5992   43.8354 N   0  0  0  0  0  0  0  0  0  0  0  0
   32.2049   25.7171   42.5097 C   0  0  0  0  0  0  0  0  0  0  0  0
   32.5738   24.9963   41.3943 C   0  0  0  0  0  0  0  0  0  0  0  0
   33.2943   23.7909   41.5784 N   0  0  0  0  0  0  0  0  0  0  0  0
   32.9029   22.9500   41.0884 H   0  0  0  0  0  0  0  0  0  0  0  0
   32.2615   25.4180   40.1382 N   0  0  0  0  0  0  0  0  0  0  0  0
   31.5709   26.5768   40.0018 C   0  0  0  0  0  0  0  0  0  0  0  0
   31.3710   26.8258   38.9533 H   0  0  0  0  0  0  0  0  0  0  0  0
   31.1848   27.3211   41.0507 N   0  0  0  0  0  0  0  0  0  0  0  0
   31.4974   26.8968   42.2838 C   0  0  0  0  0  0  0  0  0  0  0  0
   34.1748   23.6582   42.1529 H   0  0  0  0  0  0  0  0  0  0  0  0
  1  6  1  0
  3  2  2  0
  4  3  1  0
  5  6  1  0
  5  4  2  0
  6  7  2  0
  7  2  1  0
  8 13  1  0
  8  9  1  0
  9  1  1  0
  9 10  1  0
 11 10  1  0
 12 14  1  0
 12 11  1  0
 12  8  1  0
  2 15  1  0
  3 16  1  0
  4 17  1  0
  8 18  1  1
  9 19  1  1
 11 20  1  0
 11 21  1  0
 12 22  1  6
 13 23  1  0
 24 25  1  0
 25 26  1  0
 26 27  2  0
 27 28  1  0
 28 29  2  0
 29 30  1  0
 30 31  1  0
 29 32  1  0
 32 33  2  0
 33 34  1  0
 33 35  1  0
 35 36  2  0
 36 25  1  0
 36 28  1  0
 30 37  1  0
 14 26  1  0
M  ISO  8  15  14  16  14  17  14  18  13  19  13  20  13  21  13  22  13
M  ISO  4  23   3  24   9  31   5  34  16
M  END
>  <DihAtoms>  (1) 
11,13,25,24

>  <DihDeg>  (1) 
-0.001533937536182052

$$$$
