
     RDKit          3D

 44 48  0  0  0  0  0  0  0  0999 V2000
   38.0081   32.6108   49.4920 C   0  0  0  0  0  0  0  0  0  0  0  0
   38.7399   32.8707   48.3402 C   0  0  0  0  0  0  0  0  0  0  0  0
   38.3754   32.1496   47.1864 C   0  0  0  0  0  0  0  0  0  0  0  0
   37.3501   31.2578   47.2596 N   0  0  0  0  0  0  0  0  0  0  0  0
   36.6709   31.0434   48.4072 C   0  0  0  0  0  0  0  0  0  0  0  0
   37.0103   31.7261   49.5142 N   0  0  0  0  0  0  0  0  0  0  0  0
   39.0638   32.3291   45.9133 C   0  0  0  0  0  0  0  0  0  0  0  0
   40.3861   32.0032   45.6930 C   0  0  0  0  0  0  0  0  0  0  0  0
   40.7351   32.2842   44.4174 N   0  0  0  0  0  0  0  0  0  0  0  0
   39.6433   32.7855   43.8290 C   0  0  0  0  0  0  0  0  0  0  0  0
   38.6563   32.8056   44.7338 N   0  0  0  0  0  0  0  0  0  0  0  0
   38.0823   33.1151   41.9867 C   0  0  0  0  0  0  0  0  0  0  0  0
   37.1941   32.6013   42.6794 O   0  0  0  0  0  0  0  0  0  0  0  0
   39.4051   33.2535   42.5109 N   0  0  0  0  0  0  0  0  0  0  0  0
   36.9160   28.9315   50.4540 Cl  0  0  0  0  0  0  0  0  0  0  0  0
   35.5986   29.0461   49.3366 C   0  0  0  0  0  0  0  0  0  0  0  0
   35.5790   30.0714   48.4197 C   0  0  0  0  0  0  0  0  0  0  0  0
   34.5602   30.1962   47.5238 C   0  0  0  0  0  0  0  0  0  0  0  0
   33.5106   29.3009   47.5012 C   0  0  0  0  0  0  0  0  0  0  0  0
   33.5042   28.2669   48.4058 C   0  0  0  0  0  0  0  0  0  0  0  0
   32.2212   27.0631   48.4745 Cl  0  0  0  0  0  0  0  0  0  0  0  0
   34.5475   28.1642   49.3012 C   0  0  0  0  0  0  0  0  0  0  0  0
   38.3197   33.1849   50.3550 H   0  0  0  0  0  0  0  0  0  0  0  0
   39.5439   33.5577   48.2470 H   0  0  0  0  0  0  0  0  0  0  0  0
   41.0764   31.5817   46.4118 H   0  0  0  0  0  0  0  0  0  0  0  0
   41.6426   32.1646   43.9208 H   0  0  0  0  0  0  0  0  0  0  0  0
   37.8631   33.4762   40.9463 H   0  0  0  0  0  0  0  0  0  0  0  0
   40.1731   33.6866   41.9397 H   0  0  0  0  0  0  0  0  0  0  0  0
   34.5880   31.0238   46.8173 H   0  0  0  0  0  0  0  0  0  0  0  0
   32.6864   29.3902   46.7867 H   0  0  0  0  0  0  0  0  0  0  0  0
   34.5818   27.1015   50.2623 N   0  0  0  0  0  0  0  0  0  0  0  0
   35.6325   27.0224   51.1165 C   0  0  0  0  0  0  0  0  0  0  0  0
   36.5030   27.6412   51.2218 H   0  0  0  0  0  0  0  0  0  0  0  0
   35.4649   25.9492   51.9362 N   0  0  0  0  0  0  0  0  0  0  0  0
   34.3230   25.3582   51.6039 C   0  0  0  0  0  0  0  0  0  0  0  0
   33.5695   24.2711   51.9982 C   0  0  0  0  0  0  0  0  0  0  0  0
   34.0764   23.4787   53.0743 N   0  0  0  0  0  0  0  0  0  0  0  0
   34.5740   22.5723   53.2427 H   0  0  0  0  0  0  0  0  0  0  0  0
   32.3846   23.9367   51.4077 N   0  0  0  0  0  0  0  0  0  0  0  0
   31.9135   24.7028   50.3815 C   0  0  0  0  0  0  0  0  0  0  0  0
   30.9703   24.3326   50.0030 H   0  0  0  0  0  0  0  0  0  0  0  0
   32.6158   25.7737   49.9631 N   0  0  0  0  0  0  0  0  0  0  0  0
   33.7640   26.0783   50.5524 C   0  0  0  0  0  0  0  0  0  0  0  0
   33.9019   23.9412   54.0132 H   0  0  0  0  0  0  0  0  0  0  0  0
  1  6  2  0
  2  1  1  0
  3  4  1  0
  3  2  2  0
  4  5  2  0
  5 17  1  0
  5  6  1  0
  7  3  1  0
  8  7  2  0
  9  8  1  0
 10  9  1  0
 10 11  2  0
 11  7  1  0
 12 14  1  0
 12 13  2  0
 14 10  1  0
 16 15  1  0
 17 16  2  0
 18 17  1  0
 19 18  2  0
 19 20  1  0
 20 21  1  0
 20 22  2  0
 22 16  1  0
  1 23  1  0
  2 24  1  0
  8 25  1  0
  9 26  1  0
 12 27  1  0
 14 28  1  0
 18 29  1  0
 19 30  1  0
 31 32  1  0
 32 33  1  0
 32 34  2  0
 34 35  1  0
 35 36  2  0
 36 37  1  0
 37 38  1  0
 36 39  1  0
 39 40  2  0
 40 41  1  0
 40 42  1  0
 42 43  2  0
 43 31  1  0
 43 35  1  0
 37 44  1  0
 22 31  1  0
M  ISO  8  23  14  24  14  25  14  26   9  27   6  29  14  30  14  33  15
M  ISO  2  38   5  41  16
M  END
>  <DihAtoms>  (1) 
19,21,30,31

>  <DihDeg>  (1) 
-90.8205219576384

$$$$
