
     RDKit          3D

 38 41  0  0  0  0  0  0  0  0999 V2000
   33.5884   28.7207   49.0362 N   0  0  0  0  0  0  0  0  0  0  0  0
   34.4347   29.8752   48.9233 C   0  0  2  0  0  0  0  0  0  0  0  0
   34.3737   30.3852   47.4966 C   0  0  0  0  0  0  0  0  0  0  0  0
   33.2493   29.8538   46.8354 O   0  0  0  0  0  0  0  0  0  0  0  0
   33.5404   28.5010   46.6616 C   0  0  0  0  0  0  0  0  0  0  0  0
   33.9268   27.8201   47.9534 C   0  0  2  0  0  0  0  0  0  0  0  0
   33.1813   26.6351   48.1296 O   0  0  0  0  0  0  0  0  0  0  0  0
   36.1856   29.4454   49.3089 S   0  0  0  0  0  0  0  0  0  0  0  0
   37.2876   30.7402   48.8134 C   0  0  0  0  0  0  0  0  0  0  0  0
   37.2223   31.8544   49.6594 C   0  0  0  0  0  0  0  0  0  0  0  0
   38.0455   32.9447   49.3737 C   0  0  0  0  0  0  0  0  0  0  0  0
   38.8700   32.8541   48.2766 N   0  0  0  0  0  0  0  0  0  0  0  0
   38.9026   31.7763   47.4966 C   0  0  0  0  0  0  0  0  0  0  0  0
   38.1177   30.7329   47.7664 N   0  0  0  0  0  0  0  0  0  0  0  0
   33.7250   28.2599   49.9586 H   0  0  0  0  0  0  0  0  0  0  0  0
   34.0770   30.6163   49.6657 H   0  0  0  0  0  0  0  0  0  0  0  0
   34.2110   31.4798   47.5491 H   0  0  0  0  0  0  0  0  0  0  0  0
   35.2977   30.2183   46.9279 H   0  0  0  0  0  0  0  0  0  0  0  0
   34.4018   28.4234   45.9504 H   0  0  0  0  0  0  0  0  0  0  0  0
   32.6806   28.0199   46.1647 H   0  0  0  0  0  0  0  0  0  0  0  0
   35.0117   27.5795   47.9502 H   0  0  0  0  0  0  0  0  0  0  0  0
   33.5305   25.9925   47.4657 H   0  0  0  0  0  0  0  0  0  0  0  0
   36.6217   32.0127   50.5219 H   0  0  0  0  0  0  0  0  0  0  0  0
   38.0704   33.8439   49.9589 H   0  0  0  0  0  0  0  0  0  0  0  0
   39.7500   31.6673   46.3582 N   0  0  0  0  0  0  0  0  0  0  0  0
   40.3384   30.5466   45.8509 C   0  0  0  0  0  0  0  0  0  0  0  0
   40.1693   29.5914   46.3428 H   0  0  0  0  0  0  0  0  0  0  0  0
   41.0630   30.9039   44.7554 N   0  0  0  0  0  0  0  0  0  0  0  0
   40.9202   32.2091   44.5985 C   0  0  0  0  0  0  0  0  0  0  0  0
   41.4688   33.0320   43.6192 C   0  0  0  0  0  0  0  0  0  0  0  0
   42.3112   32.4922   42.6044 N   0  0  0  0  0  0  0  0  0  0  0  0
   43.3049   32.8042   42.5869 H   0  0  0  0  0  0  0  0  0  0  0  0
   41.1548   34.3449   43.6962 N   0  0  0  0  0  0  0  0  0  0  0  0
   40.3481   34.8137   44.6811 C   0  0  0  0  0  0  0  0  0  0  0  0
   40.1742   35.8963   44.6273 H   0  0  0  0  0  0  0  0  0  0  0  0
   39.8230   34.0085   45.6230 N   0  0  0  0  0  0  0  0  0  0  0  0
   40.1006   32.6930   45.5970 C   0  0  0  0  0  0  0  0  0  0  0  0
   41.6603   31.8521   42.0741 H   0  0  0  0  0  0  0  0  0  0  0  0
  2  1  1  0
  2  8  1  0
  3  2  1  0
  4  3  1  0
  5  4  1  0
  5  6  1  0
  6  7  1  0
  6  1  1  0
  9  8  1  0
  9 10  2  0
 11 10  1  0
 12 11  2  0
 13 14  2  0
 13 12  1  0
 14  9  1  0
  1 15  1  0
  2 16  1  1
  3 17  1  0
  3 18  1  0
  5 19  1  0
  5 20  1  0
  6 21  1  6
  7 22  1  0
 10 23  1  0
 11 24  1  0
 25 26  1  0
 26 27  1  0
 26 28  2  0
 28 29  1  0
 29 30  2  0
 30 31  1  0
 31 32  1  0
 30 33  1  0
 33 34  2  0
 34 35  1  0
 34 36  1  0
 36 37  2  0
 37 25  1  0
 37 29  1  0
 31 38  1  0
 13 25  1  0
M  ISO  8  15   5  16  13  17  13  18  13  19  13  20  13  21  13  22   3
M  ISO  5  23  14  24  14  27  15  32   5  35  16
M  END
>  <DihAtoms>  (1) 
13,12,24,25

>  <DihDeg>  (1) 
-32.27626784846595

$$$$
