
     RDKit          3D

 38 41  0  0  1  0  0  0  0  0999 V2000
   37.5330   30.6840   48.9210 C   0  0  0  0  0  0  0  0  0  0  0  0
   37.6750   31.8120   49.7390 C   0  0  0  0  0  0  0  0  0  0  0  0
   38.4340   32.8800   49.2580 C   0  0  0  0  0  0  0  0  0  0  0  0
   38.9950   32.7550   48.0080 N   0  0  0  0  0  0  0  0  0  0  0  0
   38.8370   31.6640   47.2620 C   0  0  0  0  0  0  0  0  0  0  0  0
   38.1120   30.6420   47.7180 N   0  0  0  0  0  0  0  0  0  0  0  0
   39.4100   31.5190   45.9670 N   0  0  0  0  0  0  0  0  0  0  0  0
   40.6460   31.0450   45.6430 C   0  0  0  0  0  0  0  0  0  0  0  0
   40.7760   31.0810   44.2880 N   0  0  0  0  0  0  0  0  0  0  0  0
   39.6470   31.5660   43.7990 C   0  0  0  0  0  0  0  0  0  0  0  0
   39.3020   31.7930   42.4700 C   0  0  0  0  0  0  0  0  0  0  0  0
   38.0690   32.3020   42.2500 N   0  0  0  0  0  0  0  0  0  0  0  0
   37.2300   32.5710   43.2810 C   0  0  0  0  0  0  0  0  0  0  0  0
   37.5740   32.3480   44.5640 N   0  0  0  0  0  0  0  0  0  0  0  0
   38.7880   31.8430   44.8430 C   0  0  0  0  0  0  0  0  0  0  0  0
   40.2180   31.4940   41.4200 N   0  0  0  0  0  0  0  0  0  0  0  0
   36.5450   29.4210   49.6730 S   0  0  0  0  0  0  0  0  0  0  0  0
   34.0280   28.4890   49.2930 N   0  0  0  0  0  0  0  0  0  0  0  0
   34.7480   29.7270   49.3970 C   0  0  2  0  0  0  0  0  0  0  0  0
   34.5900   30.4920   48.0980 C   0  0  0  0  0  0  0  0  0  0  0  0
   33.5060   29.9800   47.3580 O   0  0  0  0  0  0  0  0  0  0  0  0
   33.9290   28.7250   46.9220 C   0  0  0  0  0  0  0  0  0  0  0  0
   34.4240   27.8540   48.0520 C   0  0  2  0  0  0  0  0  0  0  0  0
   33.8100   26.5840   48.0030 O   0  0  0  0  0  0  0  0  0  0  0  0
   37.2023   31.8549   50.7313 H   0  0  0  0  0  0  0  0  0  0  0  0
   38.5787   33.7906   49.8579 H   0  0  0  0  0  0  0  0  0  0  0  0
   41.4080   30.6936   46.3542 H   0  0  0  0  0  0  0  0  0  0  0  0
   36.2348   32.9853   43.0620 H   0  0  0  0  0  0  0  0  0  0  0  0
   39.9520   31.6661   40.4399 H   0  0  0  0  0  0  0  0  0  0  0  0
   41.1461   31.1058   41.6412 H   0  0  0  0  0  0  0  0  0  0  0  0
   34.2614   27.8791   50.0895 H   0  0  0  0  0  0  0  0  0  0  0  0
   34.3457   30.2976   50.2470 H   0  0  0  0  0  0  0  0  0  0  0  0
   34.4075   31.5534   48.3218 H   0  0  0  0  0  0  0  0  0  0  0  0
   35.5104   30.3848   47.5053 H   0  0  0  0  0  0  0  0  0  0  0  0
   33.0842   28.2193   46.4315 H   0  0  0  0  0  0  0  0  0  0  0  0
   34.7683   28.8789   46.2278 H   0  0  0  0  0  0  0  0  0  0  0  0
   35.5146   27.7328   47.9748 H   0  0  0  0  0  0  0  0  0  0  0  0
   33.6523   26.2579   48.9244 H   0  0  0  0  0  0  0  0  0  0  0  0
  1 17  1  0
  1  2  2  0
  3  2  1  0
  4  3  2  0
  5  6  2  0
  5  4  1  0
  6  1  1  0
  7  5  1  0
  8  7  1  0
  9  8  2  0
 10  9  1  0
 10 15  2  0
 11 10  1  0
 12 11  2  0
 12 13  1  0
 13 14  2  0
 14 15  1  0
 15  7  1  0
 16 11  1  0
 18 19  1  0
 19 17  1  0
 20 19  1  0
 21 20  1  0
 22 21  1  0
 22 23  1  0
 23 18  1  0
 24 23  1  0
  2 25  1  0
  3 26  1  0
  8 27  1  0
 13 28  1  0
 16 29  1  0
 16 30  1  0
 18 31  1  0
 19 32  1  1
 20 33  1  0
 20 34  1  0
 22 35  1  0
 22 36  1  0
 23 37  1  1
 24 38  1  0
M  ISO  8  25  14  26  14  27  14  28  14  31   5  32  13  33  13  34  13
M  ISO  4  35  13  36  13  37  13  38   3
M  END
>  <minimizedAffinity>  (1) 
-6.64396572

>  <minimizedRMSD>  (1) 
0.74390626

$$$$
