
     RDKit          3D

 38 41  0  0  0  0  0  0  0  0999 V2000
   33.5884   28.7207   49.0362 N   0  0  0  0  0  0  0  0  0  0  0  0
   34.4347   29.8752   48.9233 C   0  0  2  0  0  0  0  0  0  0  0  0
   34.3737   30.3852   47.4966 C   0  0  0  0  0  0  0  0  0  0  0  0
   33.2493   29.8538   46.8354 O   0  0  0  0  0  0  0  0  0  0  0  0
   33.5404   28.5010   46.6616 C   0  0  0  0  0  0  0  0  0  0  0  0
   33.9268   27.8201   47.9534 C   0  0  2  0  0  0  0  0  0  0  0  0
   33.1813   26.6351   48.1296 O   0  0  0  0  0  0  0  0  0  0  0  0
   36.1856   29.4454   49.3089 S   0  0  0  0  0  0  0  0  0  0  0  0
   37.2876   30.7402   48.8134 C   0  0  0  0  0  0  0  0  0  0  0  0
   37.2223   31.8544   49.6594 C   0  0  0  0  0  0  0  0  0  0  0  0
   38.0455   32.9447   49.3737 C   0  0  0  0  0  0  0  0  0  0  0  0
   38.8700   32.8541   48.2766 N   0  0  0  0  0  0  0  0  0  0  0  0
   38.9026   31.7763   47.4966 C   0  0  0  0  0  0  0  0  0  0  0  0
   38.1177   30.7329   47.7664 N   0  0  0  0  0  0  0  0  0  0  0  0
   33.7250   28.2599   49.9586 H   0  0  0  0  0  0  0  0  0  0  0  0
   34.0770   30.6163   49.6657 H   0  0  0  0  0  0  0  0  0  0  0  0
   34.2110   31.4798   47.5491 H   0  0  0  0  0  0  0  0  0  0  0  0
   35.2977   30.2183   46.9279 H   0  0  0  0  0  0  0  0  0  0  0  0
   34.4018   28.4234   45.9504 H   0  0  0  0  0  0  0  0  0  0  0  0
   32.6806   28.0199   46.1647 H   0  0  0  0  0  0  0  0  0  0  0  0
   35.0117   27.5795   47.9502 H   0  0  0  0  0  0  0  0  0  0  0  0
   33.5305   25.9925   47.4657 H   0  0  0  0  0  0  0  0  0  0  0  0
   36.6217   32.0127   50.5219 H   0  0  0  0  0  0  0  0  0  0  0  0
   38.0704   33.8439   49.9589 H   0  0  0  0  0  0  0  0  0  0  0  0
   39.7500   31.6673   46.3582 N   0  0  0  0  0  0  0  0  0  0  0  0
   40.7555   30.7724   46.1397 C   0  0  0  0  0  0  0  0  0  0  0  0
   40.9763   30.0283   46.9017 H   0  0  0  0  0  0  0  0  0  0  0  0
   41.3003   31.0324   44.9197 N   0  0  0  0  0  0  0  0  0  0  0  0
   40.6439   32.0595   44.4071 C   0  0  0  0  0  0  0  0  0  0  0  0
   40.8359   32.6892   43.1809 C   0  0  0  0  0  0  0  0  0  0  0  0
   41.8505   32.2427   42.2853 N   0  0  0  0  0  0  0  0  0  0  0  0
   42.6320   32.8991   42.0769 H   0  0  0  0  0  0  0  0  0  0  0  0
   40.0140   33.7272   42.9062 N   0  0  0  0  0  0  0  0  0  0  0  0
   39.0616   34.1171   43.7902 C   0  0  0  0  0  0  0  0  0  0  0  0
   38.4645   34.9705   43.4433 H   0  0  0  0  0  0  0  0  0  0  0  0
   38.8848   33.5005   44.9733 N   0  0  0  0  0  0  0  0  0  0  0  0
   39.6732   32.4616   45.3010 C   0  0  0  0  0  0  0  0  0  0  0  0
   41.5293   31.2693   42.0324 H   0  0  0  0  0  0  0  0  0  0  0  0
  2  1  1  0
  2  8  1  0
  3  2  1  0
  4  3  1  0
  5  4  1  0
  5  6  1  0
  6  7  1  0
  6  1  1  0
  9  8  1  0
  9 10  2  0
 11 10  1  0
 12 11  2  0
 13 14  2  0
 13 12  1  0
 14  9  1  0
  1 15  1  0
  2 16  1  1
  3 17  1  0
  3 18  1  0
  5 19  1  0
  5 20  1  0
  6 21  1  6
  7 22  1  0
 10 23  1  0
 11 24  1  0
 25 26  1  0
 26 27  1  0
 26 28  2  0
 28 29  1  0
 29 30  2  0
 30 31  1  0
 31 32  1  0
 30 33  1  0
 33 34  2  0
 34 35  1  0
 34 36  1  0
 36 37  2  0
 37 25  1  0
 37 29  1  0
 31 38  1  0
 13 25  1  0
M  ISO  8  15   5  16  13  17  13  18  13  19  13  20  13  21  13  22   3
M  ISO  5  23  14  24  14  27  15  32   5  35  16
M  END
>  <DihAtoms>  (1) 
13,12,24,25

>  <DihDeg>  (1) 
-32.27626784846595

$$$$
