
     RDKit          3D

 50 55  0  0  1  0  0  0  0  0999 V2000
   39.7590   29.7390   41.8780 N   0  0  0  0  0  0  0  0  0  0  0  0
   39.8410   31.1220   41.3580 C   0  0  1  0  0  0  0  0  0  0  0  0
   38.6350   31.3960   40.5850 C   0  0  0  0  0  0  0  0  0  0  0  0
   38.6290   30.5550   39.4560 O   0  0  0  0  0  0  0  0  0  0  0  0
   38.7230   29.2210   39.7240 C   0  0  0  0  0  0  0  0  0  0  0  0
   39.8260   28.8960   40.7050 C   0  0  1  0  0  0  0  0  0  0  0  0
   41.1090   29.1400   40.0370 N   0  0  0  0  0  0  0  0  0  0  0  0
   41.8990   30.2280   40.0770 C   0  0  0  0  0  0  0  0  0  0  0  0
   42.9950   30.0430   39.3190 N   0  0  0  0  0  0  0  0  0  0  0  0
   42.9280   28.8240   38.7740 C   0  0  0  0  0  0  0  0  0  0  0  0
   43.8100   28.1840   37.9290 C   0  0  0  0  0  0  0  0  0  0  0  0
   43.4570   26.9410   37.5470 N   0  0  0  0  0  0  0  0  0  0  0  0
   42.2960   26.3790   37.9870 C   0  0  0  0  0  0  0  0  0  0  0  0
   41.4530   27.0260   38.8130 N   0  0  0  0  0  0  0  0  0  0  0  0
   41.7450   28.2540   39.2230 C   0  0  0  0  0  0  0  0  0  0  0  0
   45.0200   28.7800   37.4750 N   0  0  0  0  0  0  0  0  0  0  0  0
   39.9240   31.9200   42.5320 O   0  0  0  0  0  0  0  0  0  0  0  0
   36.1160   30.2860   46.7510 C   0  0  0  0  0  0  0  0  0  0  0  0
   37.2430   30.4850   47.5470 C   0  0  0  0  0  0  0  0  0  0  0  0
   38.4480   30.8920   46.9960 C   0  0  0  0  0  0  0  0  0  0  0  0
   38.4710   31.0890   45.6220 C   0  0  0  0  0  0  0  0  0  0  0  0
   39.5300   31.4880   44.8550 N   0  0  0  0  0  0  0  0  0  0  0  0
   39.0840   31.5400   43.5930 C   0  0  0  0  0  0  0  0  0  0  0  0
   37.8150   31.1960   43.5390 N   0  0  0  0  0  0  0  0  0  0  0  0
   37.3840   30.9050   44.7940 C   0  0  0  0  0  0  0  0  0  0  0  0
   36.1800   30.4930   45.3780 C   0  0  0  0  0  0  0  0  0  0  0  0
   37.7490   30.3290   51.2660 C   0  0  0  0  0  0  0  0  0  0  0  0
   37.9970   30.6340   49.9320 C   0  0  0  0  0  0  0  0  0  0  0  0
   37.0830   30.2290   48.9660 C   0  0  0  0  0  0  0  0  0  0  0  0
   35.9790   29.5470   49.3860 N   0  0  0  0  0  0  0  0  0  0  0  0
   35.7470   29.2560   50.6820 C   0  0  0  0  0  0  0  0  0  0  0  0
   36.6220   29.6440   51.5980 N   0  0  0  0  0  0  0  0  0  0  0  0
   40.5474   29.5425   42.5110 H   0  0  0  0  0  0  0  0  0  0  0  0
   40.6929   31.3138   40.6891 H   0  0  0  0  0  0  0  0  0  0  0  0
   37.7458   31.1968   41.2011 H   0  0  0  0  0  0  0  0  0  0  0  0
   38.6194   32.4500   40.2707 H   0  0  0  0  0  0  0  0  0  0  0  0
   37.7662   28.8791   40.1453 H   0  0  0  0  0  0  0  0  0  0  0  0
   38.9594   28.7097   38.7792 H   0  0  0  0  0  0  0  0  0  0  0  0
   39.7190   27.8486   41.0235 H   0  0  0  0  0  0  0  0  0  0  0  0
   41.6796   31.1413   40.6495 H   0  0  0  0  0  0  0  0  0  0  0  0
   42.0391   25.3620   37.6558 H   0  0  0  0  0  0  0  0  0  0  0  0
   45.6454   28.2592   36.8438 H   0  0  0  0  0  0  0  0  0  0  0  0
   45.2703   29.7322   37.7777 H   0  0  0  0  0  0  0  0  0  0  0  0
   35.1708   29.9634   47.2120 H   0  0  0  0  0  0  0  0  0  0  0  0
   39.3420   31.0511   47.6169 H   0  0  0  0  0  0  0  0  0  0  0  0
   40.4820   31.7055   45.1826 H   0  0  0  0  0  0  0  0  0  0  0  0
   35.2888   30.3339   44.7531 H   0  0  0  0  0  0  0  0  0  0  0  0
   38.4590   30.6395   52.0467 H   0  0  0  0  0  0  0  0  0  0  0  0
   38.9032   31.1877   49.6454 H   0  0  0  0  0  0  0  0  0  0  0  0
   34.8423   28.7032   50.9751 H   0  0  0  0  0  0  0  0  0  0  0  0
  2  1  1  0
  2 17  1  0
  3  2  1  0
  4  5  1  0
  4  3  1  0
  5  6  1  0
  6  1  1  0
  7  8  1  0
  7  6  1  0
  9  8  2  0
 10 15  2  0
 10  9  1  0
 11 10  1  0
 12 11  2  0
 12 13  1  0
 13 14  2  0
 14 15  1  0
 15  7  1  0
 16 11  1  0
 17 23  1  0
 18 19  2  0
 19 29  1  0
 20 19  1  0
 21 20  2  0
 22 21  1  0
 23 22  1  0
 24 23  2  0
 24 25  1  0
 25 26  2  0
 25 21  1  0
 26 18  1  0
 27 32  2  0
 28 27  1  0
 29 30  1  0
 29 28  2  0
 30 31  2  0
 31 32  1  0
  1 33  1  0
  2 34  1  6
  3 35  1  0
  3 36  1  0
  5 37  1  0
  5 38  1  0
  6 39  1  1
  8 40  1  0
 13 41  1  0
 16 42  1  0
 16 43  1  0
 18 44  1  0
 20 45  1  0
 22 46  1  0
 26 47  1  0
 27 48  1  0
 28 49  1  0
 31 50  1  0
M  ISO  8  33   5  34  13  35  13  36  13  37  13  38  13  39  13  40  14
M  ISO  8  41  14  44  14  45  14  46   9  47  14  48  14  49  14  50  14
M  END
>  <minimizedAffinity>  (1) 
-6.07090187

>  <minimizedRMSD>  (1) 
3.62443042

$$$$
