
     RDKit          3D

 36 39  0  0  0  0  0  0  0  0999 V2000
   31.1470   29.9710   45.4140 C   0  0  0  0  0  0  0  0  0  0  0  0
   30.2540   29.8140   44.3720 C   0  0  0  0  0  0  0  0  0  0  0  0
   29.1010   29.3860   44.8600 N   0  0  0  0  0  0  0  0  0  0  0  0
   29.2000   29.2550   46.1880 C   0  0  0  0  0  0  0  0  0  0  0  0
   30.4650   29.6160   46.5400 N   0  0  0  0  0  0  0  0  0  0  0  0
   28.0910   28.8060   46.9590 N   0  0  0  0  0  0  0  0  0  0  0  0
   27.7990   27.4990   47.2250 C   0  0  0  0  0  0  0  0  0  0  0  0
   26.6720   27.4450   47.9870 N   0  0  0  0  0  0  0  0  0  0  0  0
   26.2920   28.7120   48.1750 C   0  0  0  0  0  0  0  0  0  0  0  0
   25.2410   29.3000   48.8510 C   0  0  0  0  0  0  0  0  0  0  0  0
   25.0900   30.6530   48.8810 N   0  0  0  0  0  0  0  0  0  0  0  0
   25.9570   31.4700   48.2540 C   0  0  0  0  0  0  0  0  0  0  0  0
   26.9920   30.9280   47.5860 N   0  0  0  0  0  0  0  0  0  0  0  0
   27.1510   29.5940   47.5500 C   0  0  0  0  0  0  0  0  0  0  0  0
   24.2720   28.5240   49.5460 N   0  0  0  0  0  0  0  0  0  0  0  0
   32.4820   30.4020   45.3920 O   0  0  0  0  0  0  0  0  0  0  0  0
   34.7430   29.1850   45.5190 O   0  0  0  0  0  0  0  0  0  0  0  0
   33.5620   29.5690   46.3860 P   0  0  2  0  0  0  0  0  0  0  0  0
   32.8200   28.2120   47.0710 O   0  0  0  0  0  0  0  0  0  0  0  0
   34.0350   30.5790   47.6820 O   0  0  0  0  0  0  0  0  0  0  0  0
   34.8510   30.1300   48.7160 C   0  0  0  0  0  0  0  0  0  0  0  0
   34.4150   29.6170   49.9510 C   0  0  0  0  0  0  0  0  0  0  0  0
   35.3930   29.2240   50.8450 C   0  0  0  0  0  0  0  0  0  0  0  0
   36.6980   29.3320   50.5340 N   0  0  0  0  0  0  0  0  0  0  0  0
   37.0820   29.8390   49.3140 C   0  0  0  0  0  0  0  0  0  0  0  0
   36.1550   30.2340   48.4140 N   0  0  0  0  0  0  0  0  0  0  0  0
   30.4664   30.0122   43.3111 H   0  0  0  0  0  0  0  0  0  0  0  0
   28.2578   29.1848   44.3038 H   0  0  0  0  0  0  0  0  0  0  0  0
   28.3798   26.6309   46.8798 H   0  0  0  0  0  0  0  0  0  0  0  0
   25.8219   32.5612   48.2871 H   0  0  0  0  0  0  0  0  0  0  0  0
   23.4985   28.9897   50.0417 H   0  0  0  0  0  0  0  0  0  0  0  0
   24.3440   27.4965   49.5534 H   0  0  0  0  0  0  0  0  0  0  0  0
   32.8566   28.2789   48.0581 H   0  0  0  0  0  0  0  0  0  0  0  0
   33.3455   29.5325   50.1940 H   0  0  0  0  0  0  0  0  0  0  0  0
   35.1007   28.8173   51.8244 H   0  0  0  0  0  0  0  0  0  0  0  0
   38.1512   29.9233   49.0696 H   0  0  0  0  0  0  0  0  0  0  0  0
  1  5  1  0
  2  3  1  0
  2  1  2  0
  3  4  1  0
  4  5  2  0
  4  6  1  0
  6  7  1  0
  6 14  1  0
  7  8  2  0
  8  9  1  0
  9 10  2  0
 10 11  1  0
 10 15  1  0
 12 11  2  0
 13 12  1  0
 14 13  2  0
 14  9  1  0
 16  1  1  0
 16 18  1  0
 18 17  2  0
 18 19  1  0
 18 20  1  0
 20 21  1  0
 21 22  2  0
 22 23  1  0
 24 23  2  0
 25 24  1  0
 26 21  1  0
 26 25  2  0
  2 27  1  0
  3 28  1  0
  7 29  1  0
 12 30  1  0
 15 31  1  0
 15 32  1  0
 19 33  1  0
 22 34  1  0
 23 35  1  0
 25 36  1  0
M  ISO  8  27  14  28   9  29  14  30  14  33   3  34  14  35  14  36  14
M  END
>  <minimizedAffinity>  (1) 
-6.22043371

>  <minimizedRMSD>  (1) 
2.56234479

$$$$
