
     RDKit          3D

 50 55  0  0  0  0  0  0  0  0999 V2000
   36.2359   30.1850   46.8658 C   0  0  0  0  0  0  0  0  0  0  0  0
   37.0777   30.7691   47.8111 C   0  0  0  0  0  0  0  0  0  0  0  0
   38.0568   31.6762   47.4374 C   0  0  0  0  0  0  0  0  0  0  0  0
   38.1528   31.9676   46.0834 C   0  0  0  0  0  0  0  0  0  0  0  0
   39.0287   32.8229   45.4753 N   0  0  0  0  0  0  0  0  0  0  0  0
   38.7492   32.7818   44.1655 C   0  0  0  0  0  0  0  0  0  0  0  0
   37.7548   31.9524   43.9334 N   0  0  0  0  0  0  0  0  0  0  0  0
   37.3449   31.4157   45.1122 C   0  0  0  0  0  0  0  0  0  0  0  0
   36.3635   30.5027   45.5189 C   0  0  0  0  0  0  0  0  0  0  0  0
   37.5005   30.1736   51.4964 C   0  0  0  0  0  0  0  0  0  0  0  0
   37.7899   30.6149   50.2085 C   0  0  0  0  0  0  0  0  0  0  0  0
   36.8776   30.3640   49.1898 C   0  0  0  0  0  0  0  0  0  0  0  0
   35.7355   29.6912   49.5126 N   0  0  0  0  0  0  0  0  0  0  0  0
   35.4647   29.2676   50.7650 C   0  0  0  0  0  0  0  0  0  0  0  0
   36.3384   29.5097   51.7318 N   0  0  0  0  0  0  0  0  0  0  0  0
   39.4691   33.5533   43.2361 O   0  0  0  0  0  0  0  0  0  0  0  0
   39.5540   31.8466   41.7208 N   0  0  0  0  0  0  0  0  0  0  0  0
   39.2061   33.2779   41.8663 C   0  0  1  0  0  0  0  0  0  0  0  0
   37.7977   33.4460   41.5255 C   0  0  0  0  0  0  0  0  0  0  0  0
   37.6285   33.1397   40.1626 O   0  0  0  0  0  0  0  0  0  0  0  0
   38.0581   31.9005   39.7868 C   0  0  0  0  0  0  0  0  0  0  0  0
   39.4407   31.5785   40.3049 C   0  0  1  0  0  0  0  0  0  0  0  0
   35.4574   29.4746   47.0987 H   0  0  0  0  0  0  0  0  0  0  0  0
   38.7035   32.1231   48.1804 H   0  0  0  0  0  0  0  0  0  0  0  0
   39.7638   33.3861   45.9680 H   0  0  0  0  0  0  0  0  0  0  0  0
   35.7361   30.0775   44.7478 H   0  0  0  0  0  0  0  0  0  0  0  0
   38.2579   30.4091   52.2207 H   0  0  0  0  0  0  0  0  0  0  0  0
   38.7010   31.1472   49.9719 H   0  0  0  0  0  0  0  0  0  0  0  0
   34.5488   28.7359   50.9889 H   0  0  0  0  0  0  0  0  0  0  0  0
   40.5595   31.7667   41.9904 H   0  0  0  0  0  0  0  0  0  0  0  0
   39.8228   33.8908   41.1912 H   0  0  0  0  0  0  0  0  0  0  0  0
   36.9894   32.9582   41.9959 H   0  0  0  0  0  0  0  0  0  0  0  0
   37.5723   34.5557   41.5659 H   0  0  0  0  0  0  0  0  0  0  0  0
   38.1437   31.9034   38.6807 H   0  0  0  0  0  0  0  0  0  0  0  0
   37.3257   31.0966   40.0258 H   0  0  0  0  0  0  0  0  0  0  0  0
   39.6489   30.5193   40.0654 H   0  0  0  0  0  0  0  0  0  0  0  0
   40.3988   32.4346   39.5968 N   0  0  0  0  0  0  0  0  0  0  0  0
   41.5614   32.9549   40.0294 C   0  0  0  0  0  0  0  0  0  0  0  0
   41.9790   32.8089   41.0141 H   0  0  0  0  0  0  0  0  0  0  0  0
   42.1381   33.6881   39.0603 N   0  0  0  0  0  0  0  0  0  0  0  0
   41.3524   33.6523   37.9812 C   0  0  0  0  0  0  0  0  0  0  0  0
   41.5171   34.2461   36.7467 C   0  0  0  0  0  0  0  0  0  0  0  0
   42.6429   35.0500   36.4180 N   0  0  0  0  0  0  0  0  0  0  0  0
   43.4138   34.3478   36.2653 H   0  0  0  0  0  0  0  0  0  0  0  0
   40.5355   34.0191   35.8525 N   0  0  0  0  0  0  0  0  0  0  0  0
   39.4605   33.2474   36.1769 C   0  0  0  0  0  0  0  0  0  0  0  0
   38.6703   33.0708   35.4419 H   0  0  0  0  0  0  0  0  0  0  0  0
   39.3239   32.6793   37.3889 N   0  0  0  0  0  0  0  0  0  0  0  0
   40.2575   32.8653   38.3137 C   0  0  0  0  0  0  0  0  0  0  0  0
   42.6286   36.0962   36.3611 H   0  0  0  0  0  0  0  0  0  0  0  0
  1  2  2  0
  2 12  1  0
  3  2  1  0
  4  3  2  0
  5  4  1  0
  6  5  1  0
  7  6  2  0
  7  8  1  0
  8  9  2  0
  8  4  1  0
  9  1  1  0
 10 15  2  0
 11 10  1  0
 12 13  1  0
 12 11  2  0
 13 14  2  0
 14 15  1  0
 16  6  1  0
 17 18  1  0
 18 16  1  0
 19 18  1  0
 20 19  1  0
 21 20  1  0
 21 22  1  0
 22 17  1  0
  1 23  1  0
  3 24  1  0
  5 25  1  0
  9 26  1  0
 10 27  1  0
 11 28  1  0
 14 29  1  0
 17 30  1  0
 18 31  1  6
 19 32  1  0
 19 33  1  0
 21 34  1  0
 21 35  1  0
 22 36  1  1
 37 38  1  0
 38 39  1  0
 38 40  2  0
 40 41  1  0
 41 42  2  0
 42 43  1  0
 43 44  1  0
 42 45  1  0
 45 46  2  0
 46 47  1  0
 46 48  1  0
 48 49  2  0
 49 37  1  0
 49 41  1  0
 43 50  1  0
 22 37  1  0
M  ISO  8  23  14  24  14  25   9  26  14  27  14  28  14  29  14  30   5
M  ISO  8  31  13  32  13  33  13  34  13  35  13  36  13  39  15  44   5
M  ISO  1  47  16
M  END
>  <DihAtoms>  (1) 
20,21,36,37

>  <DihDeg>  (1) 
-2.025923914409566

$$$$
