
     RDKit          3D

 46 51  0  0  0  0  0  0  0  0999 V2000
   37.5508   32.0691   48.5053 C   0  0  1  0  0  0  0  0  0  0  0  0
   38.7872   32.7991   48.8352 C   0  0  0  0  0  0  0  0  0  0  0  0
   38.9211   31.6420   47.9132 C   0  0  2  0  0  0  0  0  0  0  0  0
   39.2878   32.0966   46.5473 C   0  0  0  0  0  0  0  0  0  0  0  0
   39.7433   33.4226   46.5799 C   0  0  0  0  0  0  0  0  0  0  0  0
   40.2218   34.0419   45.4450 C   0  0  0  0  0  0  0  0  0  0  0  0
   40.2627   33.3563   44.2365 C   0  0  0  0  0  0  0  0  0  0  0  0
   39.8137   32.0558   44.2200 C   0  0  0  0  0  0  0  0  0  0  0  0
   39.7857   31.2738   43.0889 C   0  0  0  0  0  0  0  0  0  0  0  0
   39.3201   29.9720   43.0677 C   0  0  0  0  0  0  0  0  0  0  0  0
   38.8511   29.4079   44.2480 C   0  0  0  0  0  0  0  0  0  0  0  0
   38.8749   30.1782   45.3808 C   0  0  0  0  0  0  0  0  0  0  0  0
   39.3467   31.4714   45.3577 C   0  0  0  0  0  0  0  0  0  0  0  0
   35.2833   29.5890   50.2102 C   0  0  0  0  0  0  0  0  0  0  0  0
   35.7857   30.5121   49.2405 C   0  0  0  0  0  0  0  0  0  0  0  0
   37.0066   31.1026   49.4783 C   0  0  0  0  0  0  0  0  0  0  0  0
   37.6596   30.7570   50.6418 N   0  0  0  0  0  0  0  0  0  0  0  0
   37.1698   29.8912   51.5324 C   0  0  0  0  0  0  0  0  0  0  0  0
   35.9770   29.2924   51.3364 N   0  0  0  0  0  0  0  0  0  0  0  0
   36.8997   32.4299   47.7235 H   0  0  0  0  0  0  0  0  0  0  0  0
   38.7155   33.8506   48.6212 H   0  0  0  0  0  0  0  0  0  0  0  0
   39.1350   32.6105   49.9153 H   0  0  0  0  0  0  0  0  0  0  0  0
   39.0564   30.5796   48.0509 H   0  0  0  0  0  0  0  0  0  0  0  0
   39.8627   34.1936   47.3125 H   0  0  0  0  0  0  0  0  0  0  0  0
   40.6020   35.0346   45.2957 H   0  0  0  0  0  0  0  0  0  0  0  0
   40.6066   33.6904   43.2527 H   0  0  0  0  0  0  0  0  0  0  0  0
   40.1444   31.6796   42.1466 H   0  0  0  0  0  0  0  0  0  0  0  0
   39.3138   29.3864   42.1540 H   0  0  0  0  0  0  0  0  0  0  0  0
   38.4739   28.3973   44.3020 H   0  0  0  0  0  0  0  0  0  0  0  0
   38.4976   29.7107   46.3080 H   0  0  0  0  0  0  0  0  0  0  0  0
   34.3432   29.1194   50.0515 H   0  0  0  0  0  0  0  0  0  0  0  0
   35.1880   30.6981   48.3784 H   0  0  0  0  0  0  0  0  0  0  0  0
   38.0644   29.7327   52.6313 N   0  0  0  0  0  0  0  0  0  0  0  0
   38.6293   28.5100   52.7879 C   0  0  0  0  0  0  0  0  0  0  0  0
   38.6318   27.5281   52.3211 H   0  0  0  0  0  0  0  0  0  0  0  0
   39.4470   28.5485   53.8802 N   0  0  0  0  0  0  0  0  0  0  0  0
   39.3970   29.7994   54.4134 C   0  0  0  0  0  0  0  0  0  0  0  0
   39.9441   30.5102   55.4723 C   0  0  0  0  0  0  0  0  0  0  0  0
   40.8472   29.7769   56.3073 N   0  0  0  0  0  0  0  0  0  0  0  0
   41.8271   29.4377   56.0756 H   0  0  0  0  0  0  0  0  0  0  0  0
   39.6231   31.8014   55.6689 N   0  0  0  0  0  0  0  0  0  0  0  0
   38.7668   32.4612   54.8602 C   0  0  0  0  0  0  0  0  0  0  0  0
   38.5486   33.4942   55.0682 H   0  0  0  0  0  0  0  0  0  0  0  0
   38.2138   31.7892   53.8122 N   0  0  0  0  0  0  0  0  0  0  0  0
   38.5265   30.5024   53.6068 C   0  0  0  0  0  0  0  0  0  0  0  0
   40.8442   29.3841   57.2890 H   0  0  0  0  0  0  0  0  0  0  0  0
  1  2  1  0
  1 16  1  0
  3  1  1  0
  3  2  1  0
  4  5  2  0
  4  3  1  0
  6  5  1  0
  7  6  2  0
  8  7  1  0
  8 13  2  0
  9  8  1  0
 10  9  2  0
 10 11  1  0
 11 12  2  0
 13 12  1  0
 13  4  1  0
 14 19  2  0
 15 16  2  0
 15 14  1  0
 16 17  1  0
 17 18  2  0
 19 18  1  0
  1 20  1  6
  2 21  1  0
  2 22  1  0
  3 23  1  1
  5 24  1  0
  6 25  1  0
  7 26  1  0
  9 27  1  0
 10 28  1  0
 11 29  1  0
 12 30  1  0
 14 31  1  0
 15 32  1  0
 33 34  1  0
 34 35  1  0
 34 36  2  0
 36 37  1  0
 37 38  2  0
 38 39  1  0
 39 40  1  0
 38 41  1  0
 41 42  2  0
 42 43  1  0
 42 44  1  0
 44 45  2  0
 45 33  1  0
 45 37  1  0
 39 46  1  0
 18 33  1  0
M  ISO  8  20  13  21  13  22  13  23  13  24  14  25  14  26  14  27  14
M  ISO  8  28  14  29  14  30  14  31  14  32  14  35  15  40   5  43  16
M  END
>  <DihAtoms>  (1) 
16,17,32,33

>  <DihDeg>  (1) 
-99.69162861066614

$$$$
