
     RDKit          3D

 24 26  0  0  0  0  0  0  0  0999 V2000
   37.1550   29.8310   51.2680 C   0  0  0  0  0  0  0  0  0  0  0  0
   37.8920   30.5080   50.2870 C   0  0  0  0  0  0  0  0  0  0  0  0
   37.2400   30.8070   49.0890 C   0  0  0  0  0  0  0  0  0  0  0  0
   35.9430   30.4370   48.9290 N   0  0  0  0  0  0  0  0  0  0  0  0
   35.2550   29.7750   49.9140 C   0  0  0  0  0  0  0  0  0  0  0  0
   35.8690   29.4830   51.0640 N   0  0  0  0  0  0  0  0  0  0  0  0
   37.8760   31.4900   48.0150 N   0  0  0  0  0  0  0  0  0  0  0  0
   38.8500   32.3860   48.2790 C   0  0  0  0  0  0  0  0  0  0  0  0
   39.3060   32.9060   47.1060 N   0  0  0  0  0  0  0  0  0  0  0  0
   38.5960   32.3150   46.1390 C   0  0  0  0  0  0  0  0  0  0  0  0
   38.5560   32.3870   44.7550 C   0  0  0  0  0  0  0  0  0  0  0  0
   37.6990   31.6370   44.0290 N   0  0  0  0  0  0  0  0  0  0  0  0
   36.8320   30.7760   44.6240 C   0  0  0  0  0  0  0  0  0  0  0  0
   36.8440   30.6800   45.9750 N   0  0  0  0  0  0  0  0  0  0  0  0
   37.6970   31.4260   46.6940 C   0  0  0  0  0  0  0  0  0  0  0  0
   39.4270   33.2590   44.0760 N   0  0  0  0  0  0  0  0  0  0  0  0
   37.9250   29.5970   52.4050 O   0  0  0  0  0  0  0  0  0  0  0  0
   38.9414   30.7923   50.4539 H   0  0  0  0  0  0  0  0  0  0  0  0
   34.2050   29.4866   49.7580 H   0  0  0  0  0  0  0  0  0  0  0  0
   39.2167   32.6534   49.2810 H   0  0  0  0  0  0  0  0  0  0  0  0
   36.1370   30.1715   44.0227 H   0  0  0  0  0  0  0  0  0  0  0  0
   39.4007   33.3157   43.0479 H   0  0  0  0  0  0  0  0  0  0  0  0
   40.0908   33.8406   44.6071 H   0  0  0  0  0  0  0  0  0  0  0  0
   37.5310   29.1255   53.1812 H   0  0  0  0  0  0  0  0  0  0  0  0
  1 17  1  0
  2  1  2  0
  3  2  1  0
  4  3  2  0
  4  5  1  0
  5  6  2  0
  6  1  1  0
  7  8  1  0
  7  3  1  0
  9  8  2  0
 10 15  2  0
 10  9  1  0
 11 10  1  0
 12 13  1  0
 12 11  2  0
 13 14  2  0
 14 15  1  0
 15  7  1  0
 16 11  1  0
  2 18  1  0
  5 19  1  0
  8 20  1  0
 13 21  1  0
 16 22  1  0
 16 23  1  0
 17 24  1  0
M  ISO  5  18  14  19  14  20  14  21  14  24   3
M  END
>  <minimizedAffinity>  (1) 
-6.08897209

>  <minimizedRMSD>  (1) 
1.0865252

$$$$
