
     RDKit          3D

 35 38  0  0  0  0  0  0  0  0999 V2000
   38.0924   33.1449   49.5005 C   0  0  0  0  0  0  0  0  0  0  0  0
   38.9416   33.0659   48.3904 C   0  0  0  0  0  0  0  0  0  0  0  0
   38.7136   32.0489   47.4495 C   0  0  0  0  0  0  0  0  0  0  0  0
   37.6814   31.1771   47.6440 N   0  0  0  0  0  0  0  0  0  0  0  0
   36.8844   31.2924   48.7350 C   0  0  0  0  0  0  0  0  0  0  0  0
   37.0905   32.2557   49.6379 N   0  0  0  0  0  0  0  0  0  0  0  0
   35.8074   30.3516   48.9005 N   0  0  0  0  0  0  0  0  0  0  0  0
   34.7257   30.1966   47.9556 C   0  0  0  0  0  0  0  0  0  0  0  0
   34.0213   28.9523   48.3656 C   0  0  0  0  0  0  0  0  0  0  0  0
   34.8825   28.3141   49.4365 C   0  0  0  0  0  0  0  0  0  0  0  0
   35.6601   29.4405   50.0235 C   0  0  0  0  0  0  0  0  0  0  0  0
   38.3123   33.9342   50.1794 H   0  0  0  0  0  0  0  0  0  0  0  0
   39.3173   31.8997   46.5493 H   0  0  0  0  0  0  0  0  0  0  0  0
   35.0898   30.0601   46.8985 H   0  0  0  0  0  0  0  0  0  0  0  0
   34.0214   31.0793   47.9761 H   0  0  0  0  0  0  0  0  0  0  0  0
   33.0467   29.2087   48.8301 H   0  0  0  0  0  0  0  0  0  0  0  0
   33.8586   28.2572   47.5160 H   0  0  0  0  0  0  0  0  0  0  0  0
   35.6156   27.5790   49.0078 H   0  0  0  0  0  0  0  0  0  0  0  0
   34.2523   27.7857   50.1775 H   0  0  0  0  0  0  0  0  0  0  0  0
   36.6717   29.1891   50.3769 H   0  0  0  0  0  0  0  0  0  0  0  0
   35.1167   29.9851   50.8210 H   0  0  0  0  0  0  0  0  0  0  0  0
   40.0356   33.9226   48.1042 N   0  0  0  0  0  0  0  0  0  0  0  0
   40.0844   35.1942   47.7040 C   0  0  0  0  0  0  0  0  0  0  0  0
   39.2084   35.8025   47.5265 H   0  0  0  0  0  0  0  0  0  0  0  0
   41.3887   35.5692   47.5659 N   0  0  0  0  0  0  0  0  0  0  0  0
   42.1349   34.4983   47.8908 C   0  0  0  0  0  0  0  0  0  0  0  0
   43.5121   34.3454   47.9175 C   0  0  0  0  0  0  0  0  0  0  0  0
   44.4360   35.3748   47.5797 N   0  0  0  0  0  0  0  0  0  0  0  0
   44.7062   36.1497   48.2324 H   0  0  0  0  0  0  0  0  0  0  0  0
   44.0036   33.1488   48.2857 N   0  0  0  0  0  0  0  0  0  0  0  0
   43.2050   32.1200   48.6213 C   0  0  0  0  0  0  0  0  0  0  0  0
   43.5263   31.1439   48.9230 H   0  0  0  0  0  0  0  0  0  0  0  0
   41.8668   32.2693   48.5952 N   0  0  0  0  0  0  0  0  0  0  0  0
   41.3023   33.4304   48.2392 C   0  0  0  0  0  0  0  0  0  0  0  0
   44.3817   35.8847   48.5042 H   0  0  0  0  0  0  0  0  0  0  0  0
  1  6  2  0
  2  1  1  0
  3  4  1  0
  3  2  2  0
  4  5  2  0
  5  7  1  0
  5  6  1  0
  7 11  1  0
  8  9  1  0
  8  7  1  0
  9 10  1  0
 10 11  1  0
  1 12  1  0
  3 13  1  0
  8 14  1  0
  8 15  1  0
  9 16  1  0
  9 17  1  0
 10 18  1  0
 10 19  1  0
 11 20  1  0
 11 21  1  0
 22 23  1  0
 23 24  1  0
 23 25  2  0
 25 26  1  0
 26 27  2  0
 27 28  1  0
 28 29  1  0
 27 30  1  0
 30 31  2  0
 31 32  1  0
 31 33  1  0
 33 34  2  0
 34 22  1  0
 34 26  1  0
 28 35  1  0
  2 22  1  0
M  ISO  8  12  14  13  14  14  13  15  13  16  13  17  13  18  13  19  13
M  ISO  5  20  13  21  13  24  15  29   5  32  16
M  END
>  <DihAtoms>  (1) 
0,1,21,22

>  <DihDeg>  (1) 
123.22603688333356

$$$$
