
     RDKit          3D

 33 35  0  0  0  0  0  0  0  0999 V2000
   37.1698   31.2228   48.6003 C   0  0  0  0  0  0  0  0  0  0  0  0
   38.1098   32.2387   48.4069 C   0  0  0  0  0  0  0  0  0  0  0  0
   38.4502   32.4156   47.0820 C   0  0  0  0  0  0  0  0  0  0  0  0
   37.9179   31.6665   46.0795 N   0  0  0  0  0  0  0  0  0  0  0  0
   37.0202   30.6995   46.3088 C   0  0  0  0  0  0  0  0  0  0  0  0
   36.6433   30.4740   47.5703 N   0  0  0  0  0  0  0  0  0  0  0  0
   36.6338   31.0449   50.0187 C   0  0  0  0  0  0  0  0  0  0  0  0
   35.8761   29.9101   50.3928 C   0  0  0  0  0  0  0  0  0  0  0  0
   37.3677   29.8172   50.6633 C   0  0  0  0  0  0  0  0  0  0  0  0
   38.7075   32.9778   49.5063 C   0  0  0  0  0  0  0  0  0  0  0  0
   39.4567   34.2050   49.1301 C   0  0  0  0  0  0  0  0  0  0  0  0
   39.1693   33.1775   46.8024 H   0  0  0  0  0  0  0  0  0  0  0  0
   36.5322   30.0448   45.6053 H   0  0  0  0  0  0  0  0  0  0  0  0
   36.7484   31.9334   50.7070 H   0  0  0  0  0  0  0  0  0  0  0  0
   35.1845   29.9500   51.2572 H   0  0  0  0  0  0  0  0  0  0  0  0
   35.4953   29.2404   49.5783 H   0  0  0  0  0  0  0  0  0  0  0  0
   37.9476   29.1589   50.0271 H   0  0  0  0  0  0  0  0  0  0  0  0
   37.6545   29.9748   51.7015 H   0  0  0  0  0  0  0  0  0  0  0  0
   38.0397   33.2588   50.3300 H   0  0  0  0  0  0  0  0  0  0  0  0
   39.4632   32.2805   49.9842 H   0  0  0  0  0  0  0  0  0  0  0  0
   38.7993   34.9577   48.5993 H   0  0  0  0  0  0  0  0  0  0  0  0
   40.2526   33.9312   48.4016 H   0  0  0  0  0  0  0  0  0  0  0  0
   39.9121   32.5173   51.5603 Cl  0  0  0  0  0  0  0  0  0  0  0  0
   40.3290   34.2294   51.4293 C   0  0  0  0  0  0  0  0  0  0  0  0
   40.0818   34.9277   50.2395 C   0  0  0  0  0  0  0  0  0  0  0  0
   40.4580   36.2542   50.2800 C   0  0  0  0  0  0  0  0  0  0  0  0
   40.2896   36.8335   49.3965 H   0  0  0  0  0  0  0  0  0  0  0  0
   41.0275   36.8702   51.3725 C   0  0  0  0  0  0  0  0  0  0  0  0
   41.2558   36.1391   52.5341 C   0  0  0  0  0  0  0  0  0  0  0  0
   41.9782   36.9229   53.9228 Cl  0  0  0  0  0  0  0  0  0  0  0  0
   40.8926   34.7881   52.5470 C   0  0  0  0  0  0  0  0  0  0  0  0
   41.0689   34.2120   53.4542 H   0  0  0  0  0  0  0  0  0  0  0  0
   41.2846   37.9397   51.2876 H   0  0  0  0  0  0  0  0  0  0  0  0
  1  7  1  0
  2  1  1  0
  2 10  1  0
  3  2  2  0
  4  5  2  0
  4  3  1  0
  5  6  1  0
  6  1  2  0
  7  8  1  0
  7  9  1  0
  8  9  1  0
 11 10  1  0
  3 12  1  0
  5 13  1  0
  7 14  1  0
  8 15  1  0
  8 16  1  0
  9 17  1  0
  9 18  1  0
 10 19  1  0
 10 20  1  0
 11 21  1  0
 11 22  1  0
 23 24  1  0
 24 25  2  0
 25 26  1  0
 26 27  1  0
 26 28  2  0
 28 29  1  0
 29 30  1  0
 29 31  2  0
 31 32  1  0
 31 24  1  0
 28 33  1  0
 11 25  1  0
M  ISO  8  12  14  13  14  14  13  15  13  16  13  17  13  18  13  19   8
M  ISO  5  20   8  21   8  22   8  27  16  32  15
M  END
>  <DihAtoms>  (1) 
9,10,24,23

>  <DihDeg>  (1) 
156.26793871418462

$$$$
