
     RDKit          3D

 26 27  0  0  0  0  0  0  0  0999 V2000
   34.4640   28.4750   48.0930 C   0  0  0  0  0  0  0  0  0  0  0  0
   33.2910   29.6120   45.4980 Cl  0  0  0  0  0  0  0  0  0  0  0  0
   32.3480   28.8170   46.7430 C   0  0  0  0  0  0  0  0  0  0  0  0
   33.0270   28.3620   47.8460 C   0  0  0  0  0  0  0  0  0  0  0  0
   32.1970   27.7400   48.7880 C   0  0  0  0  0  0  0  0  0  0  0  0
   30.8280   27.5710   48.6780 C   0  0  0  0  0  0  0  0  0  0  0  0
   30.2190   28.0560   47.5360 C   0  0  0  0  0  0  0  0  0  0  0  0
   28.4900   27.8020   47.4780 Cl  0  0  0  0  0  0  0  0  0  0  0  0
   30.9810   28.6780   46.5730 C   0  0  0  0  0  0  0  0  0  0  0  0
   34.8550   28.3000   49.5350 C   0  0  0  0  0  0  0  0  0  0  0  0
   37.3470   30.2400   51.4390 C   0  0  0  0  0  0  0  0  0  0  0  0
   38.1230   30.7830   50.4150 C   0  0  0  0  0  0  0  0  0  0  0  0
   37.7940   30.4880   49.0590 C   0  0  0  0  0  0  0  0  0  0  0  0
   36.7220   29.6800   48.8500 N   0  0  0  0  0  0  0  0  0  0  0  0
   36.0060   29.1820   49.8810 C   0  0  0  0  0  0  0  0  0  0  0  0
   36.3110   29.4560   51.1590 N   0  0  0  0  0  0  0  0  0  0  0  0
   34.7937   29.4716   47.7642 H   0  0  0  0  0  0  0  0  0  0  0  0
   34.9472   27.6612   47.5324 H   0  0  0  0  0  0  0  0  0  0  0  0
   32.6773   27.3506   49.6978 H   0  0  0  0  0  0  0  0  0  0  0  0
   30.2479   27.0709   49.4675 H   0  0  0  0  0  0  0  0  0  0  0  0
   30.5009   29.0670   45.6629 H   0  0  0  0  0  0  0  0  0  0  0  0
   33.9981   28.5572   50.1750 H   0  0  0  0  0  0  0  0  0  0  0  0
   35.1516   27.2530   49.6958 H   0  0  0  0  0  0  0  0  0  0  0  0
   37.5946   30.4626   52.4874 H   0  0  0  0  0  0  0  0  0  0  0  0
   38.9795   31.4317   50.6508 H   0  0  0  0  0  0  0  0  0  0  0  0
   38.3803   30.8953   48.2222 H   0  0  0  0  0  0  0  0  0  0  0  0
  1 10  1  0
  2  3  1  0
  3  4  2  0
  4  1  1  0
  4  5  1  0
  6  5  2  0
  7  6  1  0
  8  7  1  0
  9  3  1  0
  9  7  2  0
 10 15  1  0
 12 11  2  0
 13 12  1  0
 14 13  2  0
 14 15  1  0
 15 16  2  0
 16 11  1  0
  1 17  1  0
  1 18  1  0
  5 19  1  0
  6 20  1  0
  9 21  1  0
 10 22  1  0
 10 23  1  0
 11 24  1  0
 12 25  1  0
 13 26  1  0
M  ISO  8  17   8  18   8  19  14  20  14  21  14  22   8  23   8  24  14
M  ISO  2  25  14  26  14
M  END
>  <minimizedAffinity>  (1) 
-4.81762838

>  <minimizedRMSD>  (1) 
1.50210381

$$$$
