
     RDKit          3D

 34 36  0  0  0  0  0  0  0  0999 V2000
   38.0190   30.3191   50.1890 C   0  0  0  0  0  0  0  0  0  0  0  0
   37.3894   30.5004   48.9163 C   0  0  0  0  0  0  0  0  0  0  0  0
   36.0603   30.1022   48.7975 C   0  0  0  0  0  0  0  0  0  0  0  0
   35.4245   29.5653   49.8801 N   0  0  0  0  0  0  0  0  0  0  0  0
   36.0685   29.4081   51.0891 C   0  0  0  0  0  0  0  0  0  0  0  0
   37.3609   29.7871   51.2315 N   0  0  0  0  0  0  0  0  0  0  0  0
   38.1946   31.0769   47.8858 C   0  0  0  0  0  0  0  0  0  0  0  0
   38.5203   30.2702   46.8180 C   0  0  0  0  0  0  0  0  0  0  0  0
   39.2907   30.6662   45.7347 C   0  0  0  0  0  0  0  0  0  0  0  0
   39.7761   31.9770   45.7164 C   0  0  0  0  0  0  0  0  0  0  0  0
   39.4540   32.7909   46.7822 C   0  0  0  0  0  0  0  0  0  0  0  0
   38.6854   32.3871   47.8576 C   0  0  0  0  0  0  0  0  0  0  0  0
   38.2646   33.4192   49.2305 S   0  0  0  0  0  0  0  0  0  0  0  0
   35.2881   30.2318   47.5415 C   0  0  0  0  0  0  0  0  0  0  0  0
   34.0173   30.7654   47.8317 F   0  0  0  0  0  0  0  0  0  0  0  0
   35.8516   30.9767   46.5583 F   0  0  0  0  0  0  0  0  0  0  0  0
   34.9956   28.9644   47.0388 F   0  0  0  0  0  0  0  0  0  0  0  0
   39.0530   30.6169   50.3209 H   0  0  0  0  0  0  0  0  0  0  0  0
   35.4898   28.9738   51.8954 H   0  0  0  0  0  0  0  0  0  0  0  0
   38.1814   29.2443   46.7617 H   0  0  0  0  0  0  0  0  0  0  0  0
   39.5246   30.0009   44.9143 H   0  0  0  0  0  0  0  0  0  0  0  0
   40.3806   32.3172   44.8848 H   0  0  0  0  0  0  0  0  0  0  0  0
   39.8254   33.7962   46.7697 H   0  0  0  0  0  0  0  0  0  0  0  0
   38.1375   35.3745   46.8287 Cl  0  0  0  0  0  0  0  0  0  0  0  0
   36.7671   35.1798   47.9298 C   0  0  0  0  0  0  0  0  0  0  0  0
   36.7653   34.3205   49.0215 C   0  0  0  0  0  0  0  0  0  0  0  0
   35.6216   34.2750   49.7919 C   0  0  0  0  0  0  0  0  0  0  0  0
   35.6859   33.5880   50.6237 H   0  0  0  0  0  0  0  0  0  0  0  0
   34.5183   35.0486   49.4981 C   0  0  0  0  0  0  0  0  0  0  0  0
   34.5574   35.8924   48.4030 C   0  0  0  0  0  0  0  0  0  0  0  0
   33.1545   36.8938   48.0067 Cl  0  0  0  0  0  0  0  0  0  0  0  0
   35.6882   35.9704   47.5991 C   0  0  0  0  0  0  0  0  0  0  0  0
   35.6504   36.6475   46.7635 H   0  0  0  0  0  0  0  0  0  0  0  0
   33.6568   34.9755   50.1277 H   0  0  0  0  0  0  0  0  0  0  0  0
  1  6  2  0
  2  1  1  0
  3  2  2  0
  3  4  1  0
  4  5  2  0
  5  6  1  0
  7  2  1  0
  8  7  2  0
  9  8  1  0
 10  9  2  0
 10 11  1  0
 11 12  2  0
 12  7  1  0
 12 13  1  0
 14 15  1  0
 14  3  1  0
 16 14  1  0
 17 14  1  0
  1 18  1  0
  5 19  1  0
  8 20  1  0
  9 21  1  0
 10 22  1  0
 11 23  1  0
 24 25  1  0
 25 26  2  0
 26 27  1  0
 27 28  1  0
 27 29  2  0
 29 30  1  0
 30 31  1  0
 30 32  2  0
 32 33  1  0
 32 25  1  0
 29 34  1  0
 13 26  1  0
M  ISO  8  18  14  19  14  20  14  21  14  22  14  23  14  28  16  33  15
M  END
>  <DihAtoms>  (1) 
11,12,25,24

>  <DihDeg>  (1) 
-90.00119488784188

$$$$
