
     RDKit          3D

 49 52  0  0  0  0  0  0  0  0999 V2000
   34.8221   30.0951   46.8636 C   0  0  0  0  0  0  0  0  0  0  0  0
   36.1471   30.5806   46.9420 C   0  0  0  0  0  0  0  0  0  0  0  0
   36.8451   30.7430   45.7386 C   0  0  0  0  0  0  0  0  0  0  0  0
   36.2096   30.4251   44.5762 N   0  0  0  0  0  0  0  0  0  0  0  0
   34.9546   29.9676   44.5419 C   0  0  0  0  0  0  0  0  0  0  0  0
   34.2647   29.8029   45.6742 N   0  0  0  0  0  0  0  0  0  0  0  0
   36.6431   30.8563   48.2710 N   0  0  0  0  0  0  0  0  0  0  0  0
   37.0611   31.9498   49.0832 C   0  0  0  0  0  0  0  0  0  0  0  0
   38.3920   31.4825   49.6170 C   0  0  0  0  0  0  0  0  0  0  0  0
   38.1950   29.9768   49.7797 C   0  0  0  0  0  0  0  0  0  0  0  0
   36.8386   29.7291   49.2362 C   0  0  1  0  0  0  0  0  0  0  0  0
   34.7828   28.9852   50.4129 C   0  0  0  0  0  0  0  0  0  0  0  0
   34.5043   28.0395   49.6001 O   0  0  0  0  0  0  0  0  0  0  0  0
   35.8675   29.9113   50.3121 N   0  0  0  0  0  0  0  0  0  0  0  0
   38.1879   31.2338   45.7047 C   0  0  0  0  0  0  0  0  0  0  0  0
   38.4718   32.4439   46.2626 C   0  0  0  0  0  0  0  0  0  0  0  0
   39.7166   33.0218   46.2948 C   0  0  0  0  0  0  0  0  0  0  0  0
   40.7329   32.2971   45.7066 C   0  0  0  0  0  0  0  0  0  0  0  0
   40.5413   31.0757   45.1185 C   0  0  0  0  0  0  0  0  0  0  0  0
   39.2339   30.5730   45.1397 C   0  0  0  0  0  0  0  0  0  0  0  0
   39.0100   29.2389   44.5274 C   0  0  0  0  0  0  0  0  0  0  0  0
   34.1800   29.9419   47.7130 H   0  0  0  0  0  0  0  0  0  0  0  0
   34.4986   29.7360   43.5922 H   0  0  0  0  0  0  0  0  0  0  0  0
   36.9961   32.9553   48.7603 H   0  0  0  0  0  0  0  0  0  0  0  0
   36.3791   31.9152   49.9926 H   0  0  0  0  0  0  0  0  0  0  0  0
   38.5410   31.9933   50.5854 H   0  0  0  0  0  0  0  0  0  0  0  0
   39.2321   31.7220   48.9573 H   0  0  0  0  0  0  0  0  0  0  0  0
   39.0326   29.4961   49.2786 H   0  0  0  0  0  0  0  0  0  0  0  0
   38.2001   29.7938   50.8921 H   0  0  0  0  0  0  0  0  0  0  0  0
   36.6915   28.7761   48.7384 H   0  0  0  0  0  0  0  0  0  0  0  0
   34.0012   28.8844   51.1567 H   0  0  0  0  0  0  0  0  0  0  0  0
   35.7025   30.5488   51.1131 H   0  0  0  0  0  0  0  0  0  0  0  0
   37.7829   33.1412   46.7037 H   0  0  0  0  0  0  0  0  0  0  0  0
   40.0348   33.9470   46.7011 H   0  0  0  0  0  0  0  0  0  0  0  0
   41.7857   32.6274   45.6552 H   0  0  0  0  0  0  0  0  0  0  0  0
   41.3001   30.4987   44.6553 H   0  0  0  0  0  0  0  0  0  0  0  0
   39.0260   29.3343   43.4329 H   0  0  0  0  0  0  0  0  0  0  0  0
   37.9255   28.9313   44.7405 H   0  0  0  0  0  0  0  0  0  0  0  0
   41.7245   28.1438   43.3135 Cl  0  0  0  0  0  0  0  0  0  0  0  0
   41.0359   27.4813   44.7641 C   0  0  0  0  0  0  0  0  0  0  0  0
   39.8983   28.1705   45.0562 C   0  0  0  0  0  0  0  0  0  0  0  0
   39.2890   27.7091   46.2562 C   0  0  0  0  0  0  0  0  0  0  0  0
   38.3626   28.0947   46.7311 H   0  0  0  0  0  0  0  0  0  0  0  0
   39.7640   26.6727   47.0658 C   0  0  0  0  0  0  0  0  0  0  0  0
   40.9158   26.0292   46.6958 C   0  0  0  0  0  0  0  0  0  0  0  0
   41.6039   24.7154   47.6190 Cl  0  0  0  0  0  0  0  0  0  0  0  0
   41.5112   26.4667   45.5461 C   0  0  0  0  0  0  0  0  0  0  0  0
   42.4278   26.0120   45.1707 H   0  0  0  0  0  0  0  0  0  0  0  0
   39.2995   26.3219   47.9768 H   0  0  0  0  0  0  0  0  0  0  0  0
  1  2  2  0
  2  7  1  0
  3  2  1  0
  4  3  2  0
  5  4  1  0
  5  6  2  0
  6  1  1  0
  7  8  1  0
  7 11  1  0
  8  9  1  0
  9 10  1  0
 11 10  1  0
 11 14  1  0
 13 12  2  0
 14 12  1  0
 15  3  1  0
 15 16  2  0
 16 17  1  0
 18 17  2  0
 19 20  2  0
 19 18  1  0
 20 15  1  0
 21 20  1  0
  1 22  1  0
  5 23  1  0
  8 24  1  0
  8 25  1  0
  9 26  1  0
  9 27  1  0
 10 28  1  0
 10 29  1  0
 11 30  1  6
 12 31  1  0
 14 32  1  0
 16 33  1  0
 17 34  1  0
 18 35  1  0
 19 36  1  0
 21 37  1  0
 21 38  1  0
 39 40  1  0
 40 41  2  0
 41 42  1  0
 42 43  1  0
 42 44  2  0
 44 45  1  0
 45 46  1  0
 45 47  2  0
 47 48  1  0
 47 40  1  0
 44 49  1  0
 21 41  1  0
M  ISO  8  22  14  23  14  24  13  25  13  26  13  27  13  28  13  29  13
M  ISO  8  30  13  31   6  33  14  34  14  35  14  36  14  37   8  38   8
M  ISO  2  43  16  48  15
M  END
>  <DihAtoms>  (1) 
19,20,40,39

>  <DihDeg>  (1) 
80.23438605281916

$$$$
