
     RDKit          3D

 41 44  0  0  0  0  0  0  0  0999 V2000
   34.6460   28.8960   48.4070 C   0  0  0  0  0  0  0  0  0  0  0  0
   34.2570   27.6560   48.8750 C   0  0  0  0  0  0  0  0  0  0  0  0
   33.1120   27.1820   48.2880 C   0  0  0  0  0  0  0  0  0  0  0  0
   32.4130   27.8720   47.3220 C   0  0  0  0  0  0  0  0  0  0  0  0
   32.8780   29.0960   46.9230 C   0  0  0  0  0  0  0  0  0  0  0  0
   33.9950   29.5970   47.4730 N   0  0  0  0  0  0  0  0  0  0  0  0
   29.8510   29.0620   47.0330 Cl  0  0  0  0  0  0  0  0  0  0  0  0
   30.8110   29.9230   45.8730 C   0  0  0  0  0  0  0  0  0  0  0  0
   32.1820   29.8710   45.9130 C   0  0  0  0  0  0  0  0  0  0  0  0
   32.8130   30.6110   44.9220 C   0  0  0  0  0  0  0  0  0  0  0  0
   32.1680   31.3450   43.9680 C   0  0  0  0  0  0  0  0  0  0  0  0
   30.7810   31.3720   43.9610 C   0  0  0  0  0  0  0  0  0  0  0  0
   29.9330   32.3010   42.7530 Cl  0  0  0  0  0  0  0  0  0  0  0  0
   30.1110   30.6550   44.9220 C   0  0  0  0  0  0  0  0  0  0  0  0
   37.3290   29.8650   50.7340 C   0  0  0  0  0  0  0  0  0  0  0  0
   38.1480   30.6610   49.9360 C   0  0  0  0  0  0  0  0  0  0  0  0
   37.7910   30.8620   48.6240 C   0  0  0  0  0  0  0  0  0  0  0  0
   36.6530   30.2620   48.2060 N   0  0  0  0  0  0  0  0  0  0  0  0
   35.8650   29.5010   48.9650 C   0  0  0  0  0  0  0  0  0  0  0  0
   36.2290   29.3160   50.2380 N   0  0  0  0  0  0  0  0  0  0  0  0
   39.0940   33.6480   49.2490 Cl  0  0  0  0  0  0  0  0  0  0  0  0
   39.1180   32.8400   47.7220 C   0  0  0  0  0  0  0  0  0  0  0  0
   38.4930   31.6250   47.6210 C   0  0  0  0  0  0  0  0  0  0  0  0
   38.5660   31.1170   46.3390 C   0  0  0  0  0  0  0  0  0  0  0  0
   39.1900   31.7480   45.2870 C   0  0  0  0  0  0  0  0  0  0  0  0
   39.8000   32.9660   45.4580 C   0  0  0  0  0  0  0  0  0  0  0  0
   40.5830   33.7430   44.1050 Cl  0  0  0  0  0  0  0  0  0  0  0  0
   39.7520   33.5090   46.7090 C   0  0  0  0  0  0  0  0  0  0  0  0
   37.6250   29.5990   52.1230 N   0  0  0  0  0  0  0  0  0  0  0  0
   34.8129   27.1015   49.6454 H   0  0  0  0  0  0  0  0  0  0  0  0
   32.7318   26.1997   48.6049 H   0  0  0  0  0  0  0  0  0  0  0  0
   31.4994   27.4477   46.8801 H   0  0  0  0  0  0  0  0  0  0  0  0
   33.9128   30.6056   44.9040 H   0  0  0  0  0  0  0  0  0  0  0  0
   32.7404   31.9071   43.2154 H   0  0  0  0  0  0  0  0  0  0  0  0
   29.0111   30.6604   44.9388 H   0  0  0  0  0  0  0  0  0  0  0  0
   39.0601   31.1185   50.3469 H   0  0  0  0  0  0  0  0  0  0  0  0
   38.0937   30.1426   46.1456 H   0  0  0  0  0  0  0  0  0  0  0  0
   39.2001   31.2702   44.2962 H   0  0  0  0  0  0  0  0  0  0  0  0
   40.2225   34.4840   46.9038 H   0  0  0  0  0  0  0  0  0  0  0  0
   36.9939   29.0049   52.6794 H   0  0  0  0  0  0  0  0  0  0  0  0
   38.4671   30.0035   52.5567 H   0  0  0  0  0  0  0  0  0  0  0  0
  1  2  2  0
  1 19  1  0
  3  2  1  0
  4  3  2  0
  5  4  1  0
  5  6  2  0
  6  1  1  0
  8  9  2  0
  8  7  1  0
  9  5  1  0
 10  9  1  0
 11 10  2  0
 12 11  1  0
 12 14  2  0
 13 12  1  0
 14  8  1  0
 15 29  1  0
 16 15  2  0
 17 16  1  0
 18 17  2  0
 18 19  1  0
 19 20  2  0
 20 15  1  0
 22 21  1  0
 23 22  2  0
 23 17  1  0
 24 23  1  0
 25 26  1  0
 25 24  2  0
 26 28  2  0
 27 26  1  0
 28 22  1  0
  2 30  1  0
  3 31  1  0
  4 32  1  0
 10 33  1  0
 11 34  1  0
 14 35  1  0
 16 36  1  0
 24 37  1  0
 25 38  1  0
 28 39  1  0
 29 40  1  0
 29 41  1  0
M  ISO  8  30  14  31  14  32  14  33  14  34  14  35  14  36  14  37  14
M  ISO  2  38  14  39  14
M  END
>  <minimizedAffinity>  (1) 
-7.41319656

>  <minimizedRMSD>  (1) 
0.942097425

$$$$
