
     RDKit          3D

 26 27  0  0  0  0  0  0  0  0999 V2000
   37.3888   30.2487   51.4255 C   0  0  0  0  0  0  0  0  0  0  0  0
   38.0328   30.8656   50.3586 C   0  0  0  0  0  0  0  0  0  0  0  0
   37.7132   30.5967   49.0411 C   0  0  0  0  0  0  0  0  0  0  0  0
   36.7285   29.6900   48.8300 N   0  0  0  0  0  0  0  0  0  0  0  0
   36.0996   29.0870   49.8700 C   0  0  0  0  0  0  0  0  0  0  0  0
   36.4304   29.3674   51.1459 N   0  0  0  0  0  0  0  0  0  0  0  0
   38.3680   31.2313   47.8733 C   0  0  0  0  0  0  0  0  0  0  0  0
   38.7646   32.6633   48.2175 C   0  0  0  0  0  0  0  0  0  0  0  0
   37.6238   30.4456   52.4484 H   0  0  0  0  0  0  0  0  0  0  0  0
   38.7987   31.5678   50.5969 H   0  0  0  0  0  0  0  0  0  0  0  0
   35.3345   28.3845   49.5482 H   0  0  0  0  0  0  0  0  0  0  0  0
   39.3150   30.6835   47.5920 H   0  0  0  0  0  0  0  0  0  0  0  0
   37.6863   31.2068   47.0199 H   0  0  0  0  0  0  0  0  0  0  0  0
   37.8262   33.2251   48.4095 H   0  0  0  0  0  0  0  0  0  0  0  0
   39.4482   32.7049   49.0771 H   0  0  0  0  0  0  0  0  0  0  0  0
   40.6642   30.8202   46.9061 Cl  0  0  0  0  0  0  0  0  0  0  0  0
   40.3181   32.4582   46.3432 C   0  0  0  0  0  0  0  0  0  0  0  0
   39.4062   33.2679   47.0162 C   0  0  0  0  0  0  0  0  0  0  0  0
   39.1998   34.5297   46.5043 C   0  0  0  0  0  0  0  0  0  0  0  0
   38.4869   35.1260   47.0540 H   0  0  0  0  0  0  0  0  0  0  0  0
   39.8831   34.9349   45.3769 C   0  0  0  0  0  0  0  0  0  0  0  0
   40.7740   34.1255   44.7308 C   0  0  0  0  0  0  0  0  0  0  0  0
   41.6333   34.6624   43.2964 Cl  0  0  0  0  0  0  0  0  0  0  0  0
   41.0000   32.8609   45.2192 C   0  0  0  0  0  0  0  0  0  0  0  0
   41.7084   32.2316   44.6970 H   0  0  0  0  0  0  0  0  0  0  0  0
   39.7062   35.9182   44.9995 H   0  0  0  0  0  0  0  0  0  0  0  0
  2  1  2  0
  3  2  1  0
  4  3  2  0
  4  5  1  0
  5  6  2  0
  6  1  1  0
  7  8  1  0
  7  3  1  0
  1  9  1  0
  2 10  1  0
  5 11  1  0
  7 12  1  0
  7 13  1  0
  8 14  1  0
  8 15  1  0
 16 17  1  0
 17 18  2  0
 18 19  1  0
 19 20  1  0
 19 21  2  0
 21 22  1  0
 22 23  1  0
 22 24  2  0
 24 25  1  0
 24 17  1  0
 21 26  1  0
  8 18  1  0
M  ISO  8   9  14  10  14  11  14  12   8  13   8  14   8  15   8  20  16
M  ISO  1  25  15
M  END
>  <DihAtoms>  (1) 
6,7,17,16

>  <DihDeg>  (1) 
76.44691283338403

$$$$
