
     RDKit          3D

 51 55  0  0  0  0  0  0  0  0999 V2000
   37.5164   32.0881   49.0513 C   0  0  0  0  0  0  0  0  0  0  0  0
   38.0776   33.2274   49.5979 C   0  0  0  0  0  0  0  0  0  0  0  0
   39.0964   33.8173   48.8418 C   0  0  0  0  0  0  0  0  0  0  0  0
   39.4813   33.2821   47.6577 N   0  0  0  0  0  0  0  0  0  0  0  0
   38.9106   32.1620   47.1462 C   0  0  0  0  0  0  0  0  0  0  0  0
   37.9139   31.5634   47.8615 N   0  0  0  0  0  0  0  0  0  0  0  0
   40.0589   32.3862   45.0201 C   0  0  0  0  0  0  0  0  0  0  0  0
   39.3277   31.5857   45.8626 C   0  0  0  0  0  0  0  0  0  0  0  0
   39.0122   30.2935   45.4827 C   0  0  0  0  0  0  0  0  0  0  0  0
   39.4057   29.7604   44.2719 C   0  0  0  0  0  0  0  0  0  0  0  0
   39.2239   28.5512   43.6728 N   0  0  0  0  0  0  0  0  0  0  0  0
   39.8509   28.6500   42.4799 C   0  0  0  0  0  0  0  0  0  0  0  0
   40.4020   29.8670   42.3356 N   0  0  0  0  0  0  0  0  0  0  0  0
   40.1383   30.5870   43.4452 C   0  0  0  0  0  0  0  0  0  0  0  0
   40.4671   31.8800   43.8011 C   0  0  0  0  0  0  0  0  0  0  0  0
   36.4248   31.4093   49.8360 C   0  0  1  0  0  0  0  0  0  0  0  0
   35.3965   30.6142   49.1847 C   0  0  2  0  0  0  0  0  0  0  0  0
   36.6046   29.8869   49.8214 C   0  0  2  0  0  0  0  0  0  0  0  0
   35.3725   30.5762   47.8471 O   0  0  0  0  0  0  0  0  0  0  0  0
   34.5492   30.2698   46.8464 C   0  0  0  0  0  0  0  0  0  0  0  0
   35.0395   29.4505   46.0080 O   0  0  0  0  0  0  0  0  0  0  0  0
   33.3189   30.8427   46.8203 N   0  0  0  0  0  0  0  0  0  0  0  0
   36.4747   29.2790   51.1803 C   0  0  0  0  0  0  0  0  0  0  0  0
   37.4067   29.7729   52.2075 C   0  0  0  0  0  0  0  0  0  0  0  0
   37.7995   33.6716   50.5244 H   0  0  0  0  0  0  0  0  0  0  0  0
   39.6064   34.7286   49.1918 H   0  0  0  0  0  0  0  0  0  0  0  0
   40.3585   33.4080   45.2154 H   0  0  0  0  0  0  0  0  0  0  0  0
   38.4343   29.6993   46.1766 H   0  0  0  0  0  0  0  0  0  0  0  0
   38.7129   27.7417   44.0592 H   0  0  0  0  0  0  0  0  0  0  0  0
   39.9290   27.8901   41.7135 H   0  0  0  0  0  0  0  0  0  0  0  0
   41.0474   32.4461   43.0757 H   0  0  0  0  0  0  0  0  0  0  0  0
   36.1941   31.9062   50.8009 H   0  0  0  0  0  0  0  0  0  0  0  0
   34.5781   30.3241   49.9175 H   0  0  0  0  0  0  0  0  0  0  0  0
   37.3274   29.4323   49.1487 H   0  0  0  0  0  0  0  0  0  0  0  0
   32.3244   31.1586   46.7257 H   0  0  0  0  0  0  0  0  0  0  0  0
   32.3559   31.2550   46.7817 H   0  0  0  0  0  0  0  0  0  0  0  0
   35.4406   29.5438   51.5311 H   0  0  0  0  0  0  0  0  0  0  0  0
   36.4561   28.1748   51.0677 H   0  0  0  0  0  0  0  0  0  0  0  0
   37.1704   29.4499   53.2384 H   0  0  0  0  0  0  0  0  0  0  0  0
   37.2760   30.9046   52.2525 H   0  0  0  0  0  0  0  0  0  0  0  0
   39.1390   31.4266   53.9653 Cl  0  0  0  0  0  0  0  0  0  0  0  0
   39.6974   30.2882   52.7640 C   0  0  0  0  0  0  0  0  0  0  0  0
   38.8449   29.5421   51.9705 C   0  0  0  0  0  0  0  0  0  0  0  0
   39.2451   28.6447   51.0360 C   0  0  0  0  0  0  0  0  0  0  0  0
   38.6503   28.0344   50.4101 H   0  0  0  0  0  0  0  0  0  0  0  0
   40.6023   28.4659   50.8639 C   0  0  0  0  0  0  0  0  0  0  0  0
   41.5534   29.1639   51.6061 C   0  0  0  0  0  0  0  0  0  0  0  0
   43.2758   28.9235   51.3794 Cl  0  0  0  0  0  0  0  0  0  0  0  0
   41.0565   30.0464   52.5260 C   0  0  0  0  0  0  0  0  0  0  0  0
   41.7697   30.5980   53.1177 H   0  0  0  0  0  0  0  0  0  0  0  0
   41.0045   27.7641   50.1319 H   0  0  0  0  0  0  0  0  0  0  0  0
  1  2  2  0
  1 16  1  0
  3  2  1  0
  4  3  2  0
  5  4  1  0
  5  6  2  0
  6  1  1  0
  7  8  2  0
  8  5  1  0
  9  8  1  0
 10  9  2  0
 11 10  1  0
 12 11  1  0
 13 12  2  0
 13 14  1  0
 14 15  2  0
 14 10  1  0
 15  7  1  0
 16 18  1  0
 17 16  1  0
 17 18  1  0
 18 23  1  0
 19 17  1  0
 20 22  1  0
 20 19  1  0
 21 20  2  0
 23 24  1  0
  2 25  1  0
  3 26  1  0
  7 27  1  0
  9 28  1  0
 11 29  1  0
 12 30  1  0
 15 31  1  0
 16 32  1  1
 17 33  1  1
 18 34  1  6
 22 35  1  0
 22 36  1  0
 23 37  1  0
 23 38  1  0
 24 39  1  0
 24 40  1  0
 41 42  1  0
 42 43  2  0
 43 44  1  0
 44 45  1  0
 44 46  2  0
 46 47  1  0
 47 48  1  0
 47 49  2  0
 49 50  1  0
 49 42  1  0
 46 51  1  0
 24 43  1  0
M  ISO  8  25  14  26  14  27  14  28  14  29   9  30  14  31  14  32  13
M  ISO  8  33  13  34  13  37   8  38   8  39   8  40   8  45  16  50  15
M  END
>  <DihAtoms>  (1) 
22,23,42,41

>  <DihDeg>  (1) 
164.8325486569853

$$$$
