
     RDKit          3D

 42 46  0  0  0  0  0  0  0  0999 V2000
   35.8100   29.1540   49.8360 C   0  0  0  0  0  0  0  0  0  0  0  0
   34.7690   29.6220   50.5770 C   0  0  0  0  0  0  0  0  0  0  0  0
   33.6110   29.0210   50.0710 C   0  0  0  0  0  0  0  0  0  0  0  0
   34.0400   28.1990   49.0180 C   0  0  0  0  0  0  0  0  0  0  0  0
   35.3310   28.3270   48.9400 O   0  0  0  0  0  0  0  0  0  0  0  0
   33.5360   26.4210   47.3540 C   0  0  0  0  0  0  0  0  0  0  0  0
   33.1080   27.4020   48.2380 C   0  0  0  0  0  0  0  0  0  0  0  0
   31.7740   27.6600   48.4160 C   0  0  0  0  0  0  0  0  0  0  0  0
   30.8490   26.9290   47.7030 C   0  0  0  0  0  0  0  0  0  0  0  0
   29.5090   26.9580   47.6730 N   0  0  0  0  0  0  0  0  0  0  0  0
   29.0890   26.0370   46.8080 N   0  0  0  0  0  0  0  0  0  0  0  0
   30.1760   25.4200   46.2860 C   0  0  0  0  0  0  0  0  0  0  0  0
   31.3140   25.9610   46.8320 C   0  0  0  0  0  0  0  0  0  0  0  0
   32.6560   25.6800   46.6310 C   0  0  0  0  0  0  0  0  0  0  0  0
   37.1770   29.5680   50.0840 C   0  0  0  0  0  0  0  0  0  0  0  0
   37.8370   28.9810   50.9840 O   0  0  0  0  0  0  0  0  0  0  0  0
   37.7060   30.6350   49.2790 C   0  0  0  0  0  0  0  0  0  0  0  0
   37.7520   31.8980   49.8540 C   0  0  0  0  0  0  0  0  0  0  0  0
   38.2570   32.9630   49.1060 C   0  0  0  0  0  0  0  0  0  0  0  0
   38.6770   32.6910   47.8480 N   0  0  0  0  0  0  0  0  0  0  0  0
   38.6270   31.4730   47.3100 C   0  0  0  0  0  0  0  0  0  0  0  0
   38.1410   30.4670   48.0370 N   0  0  0  0  0  0  0  0  0  0  0  0
   40.3440   33.5970   46.2110 Cl  0  0  0  0  0  0  0  0  0  0  0  0
   39.9050   32.1580   45.3210 C   0  0  0  0  0  0  0  0  0  0  0  0
   39.0910   31.2340   45.9490 C   0  0  0  0  0  0  0  0  0  0  0  0
   38.7320   30.0910   45.2640 C   0  0  0  0  0  0  0  0  0  0  0  0
   39.1890   29.8810   43.9590 C   0  0  0  0  0  0  0  0  0  0  0  0
   40.0010   30.8380   43.3840 C   0  0  0  0  0  0  0  0  0  0  0  0
   40.6230   30.6530   41.7380 Cl  0  0  0  0  0  0  0  0  0  0  0  0
   40.3830   31.9950   44.0320 C   0  0  0  0  0  0  0  0  0  0  0  0
   34.8267   30.3351   51.4125 H   0  0  0  0  0  0  0  0  0  0  0  0
   32.5793   29.1634   50.4251 H   0  0  0  0  0  0  0  0  0  0  0  0
   34.6144   26.2390   47.2359 H   0  0  0  0  0  0  0  0  0  0  0  0
   31.4461   28.4402   49.1187 H   0  0  0  0  0  0  0  0  0  0  0  0
   28.9071   27.5857   48.2249 H   0  0  0  0  0  0  0  0  0  0  0  0
   30.1511   24.6114   45.5407 H   0  0  0  0  0  0  0  0  0  0  0  0
   32.9892   24.9028   45.9275 H   0  0  0  0  0  0  0  0  0  0  0  0
   37.3961   32.0569   50.8827 H   0  0  0  0  0  0  0  0  0  0  0  0
   38.3114   33.9802   49.5212 H   0  0  0  0  0  0  0  0  0  0  0  0
   38.0848   29.3432   45.7456 H   0  0  0  0  0  0  0  0  0  0  0  0
   38.9079   28.9741   43.4035 H   0  0  0  0  0  0  0  0  0  0  0  0
   41.0298   32.7443   43.5521 H   0  0  0  0  0  0  0  0  0  0  0  0
  1 15  1  0
  1  2  2  0
  3  2  1  0
  4  3  2  0
  5  4  1  0
  5  1  1  0
  6  7  2  0
  7  8  1  0
  7  4  1  0
  9  8  2  0
 10  9  1  0
 11 10  1  0
 12 11  2  0
 12 13  1  0
 13  9  1  0
 14 13  2  0
 14  6  1  0
 15 16  2  0
 17 18  2  0
 17 15  1  0
 19 18  1  0
 20 19  2  0
 21 20  1  0
 21 22  2  0
 22 17  1  0
 24 25  2  0
 24 23  1  0
 25 21  1  0
 26 25  1  0
 27 26  2  0
 28 27  1  0
 28 30  2  0
 29 28  1  0
 30 24  1  0
  2 31  1  0
  3 32  1  0
  6 33  1  0
  8 34  1  0
 10 35  1  0
 12 36  1  0
 14 37  1  0
 18 38  1  0
 19 39  1  0
 26 40  1  0
 27 41  1  0
 30 42  1  0
M  ISO  8  31  14  32  14  33  14  34  14  35   9  36  14  37  14  38  14
M  ISO  4  39  14  40  14  41  14  42  14
M  END
>  <minimizedAffinity>  (1) 
-7.66584063

>  <minimizedRMSD>  (1) 
0.476062059

$$$$
