
     RDKit          3D

 26 27  0  0  0  0  0  0  0  0999 V2000
   37.3888   30.2487   51.4255 C   0  0  0  0  0  0  0  0  0  0  0  0
   38.0328   30.8656   50.3586 C   0  0  0  0  0  0  0  0  0  0  0  0
   37.7132   30.5967   49.0411 C   0  0  0  0  0  0  0  0  0  0  0  0
   36.7285   29.6900   48.8300 N   0  0  0  0  0  0  0  0  0  0  0  0
   36.0996   29.0870   49.8700 C   0  0  0  0  0  0  0  0  0  0  0  0
   36.4304   29.3674   51.1459 N   0  0  0  0  0  0  0  0  0  0  0  0
   38.3680   31.2313   47.8733 C   0  0  0  0  0  0  0  0  0  0  0  0
   38.7646   32.6633   48.2175 C   0  0  0  0  0  0  0  0  0  0  0  0
   37.6238   30.4456   52.4484 H   0  0  0  0  0  0  0  0  0  0  0  0
   38.7987   31.5678   50.5969 H   0  0  0  0  0  0  0  0  0  0  0  0
   35.3345   28.3845   49.5482 H   0  0  0  0  0  0  0  0  0  0  0  0
   39.3150   30.6835   47.5920 H   0  0  0  0  0  0  0  0  0  0  0  0
   37.6863   31.2068   47.0199 H   0  0  0  0  0  0  0  0  0  0  0  0
   37.8262   33.2251   48.4095 H   0  0  0  0  0  0  0  0  0  0  0  0
   39.4482   32.7049   49.0771 H   0  0  0  0  0  0  0  0  0  0  0  0
   41.5653   33.4592   48.7155 Cl  0  0  0  0  0  0  0  0  0  0  0  0
   40.7301   33.6710   47.1736 C   0  0  0  0  0  0  0  0  0  0  0  0
   39.4062   33.2679   47.0162 C   0  0  0  0  0  0  0  0  0  0  0  0
   38.8376   33.4722   45.7786 C   0  0  0  0  0  0  0  0  0  0  0  0
   37.8110   33.1472   45.6971 H   0  0  0  0  0  0  0  0  0  0  0  0
   39.5771   34.0515   44.7689 C   0  0  0  0  0  0  0  0  0  0  0  0
   40.8751   34.4403   44.9432 C   0  0  0  0  0  0  0  0  0  0  0  0
   41.7982   35.1765   43.6433 Cl  0  0  0  0  0  0  0  0  0  0  0  0
   41.4686   34.2488   46.1680 C   0  0  0  0  0  0  0  0  0  0  0  0
   42.4969   34.5619   46.2909 H   0  0  0  0  0  0  0  0  0  0  0  0
   39.1136   34.1999   43.8182 H   0  0  0  0  0  0  0  0  0  0  0  0
  2  1  2  0
  3  2  1  0
  4  3  2  0
  4  5  1  0
  5  6  2  0
  6  1  1  0
  7  8  1  0
  7  3  1  0
  1  9  1  0
  2 10  1  0
  5 11  1  0
  7 12  1  0
  7 13  1  0
  8 14  1  0
  8 15  1  0
 16 17  1  0
 17 18  2  0
 18 19  1  0
 19 20  1  0
 19 21  2  0
 21 22  1  0
 22 23  1  0
 22 24  2  0
 24 25  1  0
 24 17  1  0
 21 26  1  0
  8 18  1  0
M  ISO  8   9  14  10  14  11  14  12   8  13   8  14   8  15   8  20  16
M  ISO  1  25  15
M  END
>  <DihAtoms>  (1) 
6,7,17,16

>  <DihDeg>  (1) 
76.44691283338403

$$$$
