
     RDKit          3D

 43 47  0  0  0  0  0  0  0  0999 V2000
   38.8000   31.5140   47.0710 C   0  0  0  0  0  0  0  0  0  0  0  0
   39.4450   32.7240   47.0300 C   0  0  0  0  0  0  0  0  0  0  0  0
   40.2450   33.1210   45.9830 C   0  0  0  0  0  0  0  0  0  0  0  0
   40.4340   32.2950   44.9100 C   0  0  0  0  0  0  0  0  0  0  0  0
   39.7790   31.0890   44.9730 C   0  0  0  0  0  0  0  0  0  0  0  0
   39.0100   30.7270   45.9960 N   0  0  0  0  0  0  0  0  0  0  0  0
   39.1290   29.0320   43.6720 C   0  0  0  0  0  0  0  0  0  0  0  0
   39.9200   30.1440   43.8760 C   0  0  0  0  0  0  0  0  0  0  0  0
   40.9100   30.2990   42.9040 C   0  0  0  0  0  0  0  0  0  0  0  0
   41.1110   29.4520   41.8340 C   0  0  0  0  0  0  0  0  0  0  0  0
   41.9900   29.4340   40.8180 N   0  0  0  0  0  0  0  0  0  0  0  0
   41.7220   28.3550   40.0530 C   0  0  0  0  0  0  0  0  0  0  0  0
   40.6440   27.6570   40.5870 C   0  0  0  0  0  0  0  0  0  0  0  0
   40.2830   28.3710   41.7030 C   0  0  0  0  0  0  0  0  0  0  0  0
   39.2890   28.1580   42.6220 C   0  0  0  0  0  0  0  0  0  0  0  0
   37.3480   30.8800   50.4910 C   0  0  0  0  0  0  0  0  0  0  0  0
   38.2510   31.3360   49.5150 C   0  0  0  0  0  0  0  0  0  0  0  0
   37.9570   31.0960   48.1730 C   0  0  0  0  0  0  0  0  0  0  0  0
   36.8160   30.4350   47.8830 N   0  0  0  0  0  0  0  0  0  0  0  0
   35.9550   30.0000   48.8520 C   0  0  0  0  0  0  0  0  0  0  0  0
   36.2210   30.2220   50.1250 N   0  0  0  0  0  0  0  0  0  0  0  0
   35.4520   30.1220   45.9630 Cl  0  0  0  0  0  0  0  0  0  0  0  0
   34.4170   29.2860   47.0680 C   0  0  0  0  0  0  0  0  0  0  0  0
   34.7540   29.2960   48.4060 C   0  0  0  0  0  0  0  0  0  0  0  0
   33.9800   28.6490   49.3640 C   0  0  0  0  0  0  0  0  0  0  0  0
   32.8350   27.9730   48.9640 C   0  0  0  0  0  0  0  0  0  0  0  0
   32.5050   27.9680   47.6210 C   0  0  0  0  0  0  0  0  0  0  0  0
   31.0560   27.1050   47.1670 Cl  0  0  0  0  0  0  0  0  0  0  0  0
   33.2800   28.6140   46.6670 C   0  0  0  0  0  0  0  0  0  0  0  0
   39.3161   33.4127   47.8780 H   0  0  0  0  0  0  0  0  0  0  0  0
   40.7339   34.1060   46.0095 H   0  0  0  0  0  0  0  0  0  0  0  0
   41.0667   32.5766   44.0554 H   0  0  0  0  0  0  0  0  0  0  0  0
   38.3220   28.8325   44.3923 H   0  0  0  0  0  0  0  0  0  0  0  0
   41.5824   31.1643   42.9988 H   0  0  0  0  0  0  0  0  0  0  0  0
   42.7374   30.1230   40.6521 H   0  0  0  0  0  0  0  0  0  0  0  0
   42.2729   28.0705   39.1444 H   0  0  0  0  0  0  0  0  0  0  0  0
   40.1825   26.7363   40.2006 H   0  0  0  0  0  0  0  0  0  0  0  0
   38.6207   27.2902   42.5202 H   0  0  0  0  0  0  0  0  0  0  0  0
   37.5569   31.0579   51.5562 H   0  0  0  0  0  0  0  0  0  0  0  0
   39.1685   31.8699   49.8031 H   0  0  0  0  0  0  0  0  0  0  0  0
   34.2713   28.6727   50.4245 H   0  0  0  0  0  0  0  0  0  0  0  0
   32.2040   27.4526   49.6995 H   0  0  0  0  0  0  0  0  0  0  0  0
   32.9916   28.5905   45.6057 H   0  0  0  0  0  0  0  0  0  0  0  0
  1 18  1  0
  2  1  2  0
  3  2  1  0
  4  5  1  0
  4  3  2  0
  5  6  2  0
  6  1  1  0
  7  8  2  0
  8  5  1  0
  9  8  1  0
 10  9  2  0
 11 10  1  0
 12 13  2  0
 12 11  1  0
 13 14  1  0
 14 10  1  0
 14 15  2  0
 15  7  1  0
 17 16  2  0
 18 17  1  0
 19 18  2  0
 19 20  1  0
 20 21  2  0
 21 16  1  0
 22 23  1  0
 23 24  2  0
 24 20  1  0
 24 25  1  0
 26 25  2  0
 27 26  1  0
 28 27  1  0
 29 23  1  0
 29 27  2  0
  2 30  1  0
  3 31  1  0
  4 32  1  0
  7 33  1  0
  9 34  1  0
 11 35  1  0
 12 36  1  0
 13 37  1  0
 15 38  1  0
 16 39  1  0
 17 40  1  0
 25 41  1  0
 26 42  1  0
 29 43  1  0
M  END
>  <minimizedAffinity>  (1) 
-7.95012569

>  <minimizedRMSD>  (1) 
1.09945619

$$$$
