
     RDKit          3D

 34 37  0  0  0  0  0  0  0  0999 V2000
   36.8539   30.5539   46.9062 C   0  0  0  0  0  0  0  0  0  0  0  0
   37.5174   31.0349   48.0228 C   0  0  0  0  0  0  0  0  0  0  0  0
   38.5099   31.9871   47.9069 C   0  0  0  0  0  0  0  0  0  0  0  0
   38.8038   32.4328   46.6158 C   0  0  0  0  0  0  0  0  0  0  0  0
   39.7257   33.3538   46.2285 N   0  0  0  0  0  0  0  0  0  0  0  0
   39.6389   33.4446   44.9022 C   0  0  0  0  0  0  0  0  0  0  0  0
   38.7102   32.6299   44.4241 N   0  0  0  0  0  0  0  0  0  0  0  0
   38.1586   31.9723   45.4744 C   0  0  0  0  0  0  0  0  0  0  0  0
   37.1686   31.0175   45.6286 C   0  0  0  0  0  0  0  0  0  0  0  0
   37.3823   30.0826   51.6645 C   0  0  0  0  0  0  0  0  0  0  0  0
   37.8761   30.6464   50.4906 C   0  0  0  0  0  0  0  0  0  0  0  0
   37.1334   30.5028   49.3251 C   0  0  0  0  0  0  0  0  0  0  0  0
   35.9463   29.8103   49.3892 N   0  0  0  0  0  0  0  0  0  0  0  0
   35.5040   29.2798   50.5465 C   0  0  0  0  0  0  0  0  0  0  0  0
   36.2177   29.4171   51.6693 N   0  0  0  0  0  0  0  0  0  0  0  0
   40.4493   34.3060   44.1635 O   0  0  0  0  0  0  0  0  0  0  0  0
   36.0637   29.8054   46.9246 H   0  0  0  0  0  0  0  0  0  0  0  0
   39.0338   32.3716   48.7528 H   0  0  0  0  0  0  0  0  0  0  0  0
   40.3690   33.8773   46.8728 H   0  0  0  0  0  0  0  0  0  0  0  0
   36.6586   30.6508   44.7469 H   0  0  0  0  0  0  0  0  0  0  0  0
   37.9895   30.2167   52.5475 H   0  0  0  0  0  0  0  0  0  0  0  0
   38.8076   31.1942   50.4219 H   0  0  0  0  0  0  0  0  0  0  0  0
   34.5593   28.7479   50.5176 H   0  0  0  0  0  0  0  0  0  0  0  0
   37.9959   35.7054   43.1158 Cl  0  0  0  0  0  0  0  0  0  0  0  0
   39.2018   34.8978   42.1295 C   0  0  0  0  0  0  0  0  0  0  0  0
   40.2626   34.3090   42.7867 C   0  0  0  0  0  0  0  0  0  0  0  0
   41.2206   33.6679   42.0110 C   0  0  0  0  0  0  0  0  0  0  0  0
   42.0896   33.1788   42.4640 H   0  0  0  0  0  0  0  0  0  0  0  0
   41.1206   33.6182   40.6307 C   0  0  0  0  0  0  0  0  0  0  0  0
   40.0445   34.2195   40.0139 C   0  0  0  0  0  0  0  0  0  0  0  0
   39.8502   34.1977   38.2695 Cl  0  0  0  0  0  0  0  0  0  0  0  0
   39.0743   34.8652   40.7553 C   0  0  0  0  0  0  0  0  0  0  0  0
   38.2410   35.3292   40.2588 H   0  0  0  0  0  0  0  0  0  0  0  0
   41.8379   33.1326   39.9793 H   0  0  0  0  0  0  0  0  0  0  0  0
  1  2  2  0
  2 12  1  0
  3  2  1  0
  4  3  2  0
  5  4  1  0
  6  5  1  0
  7  6  2  0
  7  8  1  0
  8  9  2  0
  8  4  1  0
  9  1  1  0
 10 15  2  0
 11 10  1  0
 12 13  1  0
 12 11  2  0
 13 14  2  0
 14 15  1  0
 16  6  1  0
  1 17  1  0
  3 18  1  0
  5 19  1  0
  9 20  1  0
 10 21  1  0
 11 22  1  0
 14 23  1  0
 24 25  1  0
 25 26  2  0
 26 27  1  0
 27 28  1  0
 27 29  2  0
 29 30  1  0
 30 31  1  0
 30 32  2  0
 32 33  1  0
 32 25  1  0
 29 34  1  0
 16 26  1  0
M  ISO  8  17  14  18  14  19   9  20  14  21  14  22  14  23  14  28  16
M  ISO  1  33  15
M  END
>  <DihAtoms>  (1) 
5,15,25,24

>  <DihDeg>  (1) 
-60.00243198932356

$$$$
