
     RDKit          3D

 30 32  0  0  0  0  0  0  0  0999 V2000
   37.3684   31.3685   49.2062 C   0  0  0  0  0  0  0  0  0  0  0  0
   37.7040   32.6648   49.6018 C   0  0  0  0  0  0  0  0  0  0  0  0
   38.5802   33.3336   48.7773 C   0  0  0  0  0  0  0  0  0  0  0  0
   39.0644   32.7177   47.6465 N   0  0  0  0  0  0  0  0  0  0  0  0
   38.7048   31.4496   47.3047 C   0  0  0  0  0  0  0  0  0  0  0  0
   37.8359   30.7575   48.1043 N   0  0  0  0  0  0  0  0  0  0  0  0
   36.3854   30.6150   50.0669 C   0  0  0  0  0  0  0  0  0  0  0  0
   36.2578   29.1809   50.0453 C   0  0  0  0  0  0  0  0  0  0  0  0
   37.0676   29.7958   51.1717 C   0  0  0  0  0  0  0  0  0  0  0  0
   39.1986   30.7886   46.0992 C   0  0  0  0  0  0  0  0  0  0  0  0
   37.2820   33.0850   50.5070 H   0  0  0  0  0  0  0  0  0  0  0  0
   38.8844   34.3442   49.0238 H   0  0  0  0  0  0  0  0  0  0  0  0
   35.5230   31.2459   50.4139 H   0  0  0  0  0  0  0  0  0  0  0  0
   35.2941   28.7112   50.2724 H   0  0  0  0  0  0  0  0  0  0  0  0
   36.8449   28.6389   49.2508 H   0  0  0  0  0  0  0  0  0  0  0  0
   36.5565   29.8538   52.1394 H   0  0  0  0  0  0  0  0  0  0  0  0
   38.1655   29.7119   51.1780 H   0  0  0  0  0  0  0  0  0  0  0  0
   39.1817   29.6697   46.2415 H   0  0  0  0  0  0  0  0  0  0  0  0
   40.2321   31.0827   45.8461 H   0  0  0  0  0  0  0  0  0  0  0  0
   37.4088   28.4220   45.3512 Cl  0  0  0  0  0  0  0  0  0  0  0  0
   37.4767   29.9881   44.5704 C   0  0  0  0  0  0  0  0  0  0  0  0
   38.2921   31.0434   44.9241 C   0  0  0  0  0  0  0  0  0  0  0  0
   38.2218   32.2146   44.2019 C   0  0  0  0  0  0  0  0  0  0  0  0
   38.8862   33.0111   44.5244 H   0  0  0  0  0  0  0  0  0  0  0  0
   37.3629   32.3486   43.1470 C   0  0  0  0  0  0  0  0  0  0  0  0
   36.5322   31.2883   42.7783 C   0  0  0  0  0  0  0  0  0  0  0  0
   35.4503   31.5082   41.4209 Cl  0  0  0  0  0  0  0  0  0  0  0  0
   36.5912   30.1037   43.4952 C   0  0  0  0  0  0  0  0  0  0  0  0
   35.9210   29.3286   43.1540 H   0  0  0  0  0  0  0  0  0  0  0  0
   37.3857   33.3129   42.6448 H   0  0  0  0  0  0  0  0  0  0  0  0
  1  2  2  0
  1  7  1  0
  3  2  1  0
  4  3  2  0
  5  4  1  0
  5  6  2  0
  6  1  1  0
  7  9  1  0
  8  7  1  0
  8  9  1  0
 10  5  1  0
  2 11  1  0
  3 12  1  0
  7 13  1  0
  8 14  1  0
  8 15  1  0
  9 16  1  0
  9 17  1  0
 10 18  1  0
 10 19  1  0
 20 21  1  0
 21 22  2  0
 22 23  1  0
 23 24  1  0
 23 25  2  0
 25 26  1  0
 26 27  1  0
 26 28  2  0
 28 29  1  0
 28 21  1  0
 25 30  1  0
 10 22  1  0
M  ISO  8  11  14  12  14  13  13  14  13  15  13  16  13  17  13  18   8
M  ISO  3  19   8  24  16  29  15
M  END
>  <DihAtoms>  (1) 
4,9,21,20

>  <DihDeg>  (1) 
76.07968777833553

$$$$
