
     RDKit          3D

 30 32  0  0  0  0  0  0  0  0999 V2000
   38.0164   33.1035   49.4699 C   0  0  0  0  0  0  0  0  0  0  0  0
   38.9752   33.2146   48.4696 C   0  0  0  0  0  0  0  0  0  0  0  0
   38.9445   32.2232   47.4699 C   0  0  0  0  0  0  0  0  0  0  0  0
   38.0120   31.2447   47.5337 N   0  0  0  0  0  0  0  0  0  0  0  0
   37.1001   31.1775   48.5255 C   0  0  0  0  0  0  0  0  0  0  0  0
   37.1144   32.1142   49.4870 N   0  0  0  0  0  0  0  0  0  0  0  0
   36.0943   30.1336   48.6068 C   0  0  0  0  0  0  0  0  0  0  0  0
   35.2815   29.9601   47.4998 C   0  0  0  0  0  0  0  0  0  0  0  0
   34.3008   28.9777   47.5157 C   0  0  0  0  0  0  0  0  0  0  0  0
   34.1515   28.1927   48.6295 C   0  0  0  0  0  0  0  0  0  0  0  0
   34.9547   28.3569   49.7361 C   0  0  0  0  0  0  0  0  0  0  0  0
   35.9395   29.3373   49.7307 C   0  0  0  0  0  0  0  0  0  0  0  0
   38.0417   33.8744   50.2459 H   0  0  0  0  0  0  0  0  0  0  0  0
   39.7288   33.9693   48.3807 H   0  0  0  0  0  0  0  0  0  0  0  0
   39.6600   32.2415   46.6556 H   0  0  0  0  0  0  0  0  0  0  0  0
   35.4086   30.5848   46.6285 H   0  0  0  0  0  0  0  0  0  0  0  0
   33.6961   28.8920   46.6171 H   0  0  0  0  0  0  0  0  0  0  0  0
   33.3574   27.4444   48.5596 H   0  0  0  0  0  0  0  0  0  0  0  0
   34.8090   27.7197   50.5980 H   0  0  0  0  0  0  0  0  0  0  0  0
   34.7573   30.5892   52.2548 Cl  0  0  0  0  0  0  0  0  0  0  0  0
   36.4360   30.0765   52.1057 C   0  0  0  0  0  0  0  0  0  0  0  0
   36.8008   29.5291   50.8918 C   0  0  0  0  0  0  0  0  0  0  0  0
   38.1221   29.1258   50.7781 C   0  0  0  0  0  0  0  0  0  0  0  0
   38.4657   28.6917   49.8558 H   0  0  0  0  0  0  0  0  0  0  0  0
   39.0603   29.2394   51.7821 C   0  0  0  0  0  0  0  0  0  0  0  0
   38.6734   29.7849   52.9744 C   0  0  0  0  0  0  0  0  0  0  0  0
   39.8277   29.9549   54.2920 Cl  0  0  0  0  0  0  0  0  0  0  0  0
   37.3726   30.1960   53.1247 C   0  0  0  0  0  0  0  0  0  0  0  0
   37.0405   30.6306   54.0571 H   0  0  0  0  0  0  0  0  0  0  0  0
   40.0852   28.9073   51.6422 H   0  0  0  0  0  0  0  0  0  0  0  0
  1  6  2  0
  2  1  1  0
  3  4  1  0
  3  2  2  0
  4  5  2  0
  5  7  1  0
  5  6  1  0
  7 12  1  0
  8  7  2  0
  9  8  1  0
  9 10  2  0
 10 11  1  0
 12 11  2  0
  1 13  1  0
  2 14  1  0
  3 15  1  0
  8 16  1  0
  9 17  1  0
 10 18  1  0
 11 19  1  0
 20 21  1  0
 21 22  2  0
 22 23  1  0
 23 24  1  0
 23 25  2  0
 25 26  1  0
 26 27  1  0
 26 28  2  0
 28 29  1  0
 28 21  1  0
 25 30  1  0
 12 22  1  0
M  ISO  8  13  14  14  14  15  14  16  14  17  14  18  14  19  14  24  16
M  ISO  1  29  15
M  END
>  <DihAtoms>  (1) 
6,11,21,20

>  <DihDeg>  (1) 
92.99024597375214

$$$$
