
     RDKit          3D

 38 40  0  0  1  0  0  0  0  0999 V2000
   35.2550   30.3800   48.0160 N   0  0  0  0  0  0  0  0  0  0  0  0
   34.2260   30.3980   49.0310 C   0  0  0  0  0  0  0  0  0  0  0  0
   34.7870   30.0980   50.3860 C   0  0  0  0  0  0  0  0  0  0  0  0
   35.7230   28.9180   50.2540 C   0  0  0  0  0  0  0  0  0  0  0  0
   36.9250   29.3280   49.4770 C   0  0  0  0  0  0  0  0  0  0  0  0
   36.5420   30.4740   48.5660 C   0  0  1  0  0  0  0  0  0  0  0  0
   37.7370   33.1060   49.4430 Cl  0  0  0  0  0  0  0  0  0  0  0  0
   38.2810   32.2020   48.0170 C   0  0  0  0  0  0  0  0  0  0  0  0
   37.6260   30.9900   47.7310 C   0  0  0  0  0  0  0  0  0  0  0  0
   38.1670   30.4220   46.6000 C   0  0  0  0  0  0  0  0  0  0  0  0
   39.1930   30.9200   45.8290 C   0  0  0  0  0  0  0  0  0  0  0  0
   39.7610   32.1180   46.2030 C   0  0  0  0  0  0  0  0  0  0  0  0
   41.0680   32.7960   45.2570 Cl  0  0  0  0  0  0  0  0  0  0  0  0
   39.3100   32.7880   47.3170 C   0  0  0  0  0  0  0  0  0  0  0  0
   34.9370   29.6770   46.8620 C   0  0  0  0  0  0  0  0  0  0  0  0
   33.4900   29.5430   46.6490 C   0  0  0  0  0  0  0  0  0  0  0  0
   32.8380   30.5740   45.9480 C   0  0  0  0  0  0  0  0  0  0  0  0
   31.4570   30.5080   45.7230 C   0  0  0  0  0  0  0  0  0  0  0  0
   30.8050   29.4220   46.2070 N   0  0  0  0  0  0  0  0  0  0  0  0
   31.4290   28.4390   46.8760 C   0  0  0  0  0  0  0  0  0  0  0  0
   32.7570   28.5100   47.0870 N   0  0  0  0  0  0  0  0  0  0  0  0
   33.7597   31.3941   49.0497 H   0  0  0  0  0  0  0  0  0  0  0  0
   33.4848   29.6233   48.7850 H   0  0  0  0  0  0  0  0  0  0  0  0
   35.3388   30.9716   50.7633 H   0  0  0  0  0  0  0  0  0  0  0  0
   33.9762   29.8652   51.0920 H   0  0  0  0  0  0  0  0  0  0  0  0
   36.0302   28.5789   51.2543 H   0  0  0  0  0  0  0  0  0  0  0  0
   35.2095   28.0968   49.7325 H   0  0  0  0  0  0  0  0  0  0  0  0
   37.7192   29.6515   50.1659 H   0  0  0  0  0  0  0  0  0  0  0  0
   37.2945   28.4807   48.8807 H   0  0  0  0  0  0  0  0  0  0  0  0
   36.4008   31.3401   49.2293 H   0  0  0  0  0  0  0  0  0  0  0  0
   37.7317   29.4649   46.2766 H   0  0  0  0  0  0  0  0  0  0  0  0
   39.5487   30.3774   44.9407 H   0  0  0  0  0  0  0  0  0  0  0  0
   39.7507   33.7453   47.6323 H   0  0  0  0  0  0  0  0  0  0  0  0
   35.3703   30.2051   45.9998 H   0  0  0  0  0  0  0  0  0  0  0  0
   35.3475   28.6625   46.9725 H   0  0  0  0  0  0  0  0  0  0  0  0
   33.4141   31.4340   45.5757 H   0  0  0  0  0  0  0  0  0  0  0  0
   30.9251   31.3018   45.1780 H   0  0  0  0  0  0  0  0  0  0  0  0
   30.8566   27.5777   47.2508 H   0  0  0  0  0  0  0  0  0  0  0  0
  1  6  1  0
  1  2  1  0
  2  3  1  0
  4  3  1  0
  5  4  1  0
  6  5  1  0
  8  7  1  0
  9  8  2  0
  9  6  1  0
 10  9  1  0
 11 12  1  0
 11 10  2  0
 12 14  2  0
 13 12  1  0
 14  8  1  0
 15  1  1  0
 16 15  1  0
 16 21  1  0
 17 16  2  0
 18 17  1  0
 18 19  2  0
 19 20  1  0
 20 21  2  0
  2 22  1  0
  2 23  1  0
  3 24  1  0
  3 25  1  0
  4 26  1  0
  4 27  1  0
  5 28  1  0
  5 29  1  0
  6 30  1  1
 10 31  1  0
 11 32  1  0
 14 33  1  0
 15 34  1  0
 15 35  1  0
 17 36  1  0
 18 37  1  0
 20 38  1  0
M  ISO  8  22  13  23  13  24  13  25  13  26  13  27  13  28  13  29  13
M  ISO  8  30  13  31  14  32  14  33  14  34   8  35   8  36  14  37  14
M  ISO  1  38  14
M  END
>  <minimizedAffinity>  (1) 
-5.88619041

>  <minimizedRMSD>  (1) 
2.99304152

$$$$
