
     RDKit          3D

 42 45  0  0  0  0  0  0  0  0999 V2000
   39.2700   33.2350   45.4380 O   0  0  0  0  0  0  0  0  0  0  0  0
   37.0430   32.5270   43.5120 Cl  0  0  0  0  0  0  0  0  0  0  0  0
   38.5600   31.6560   43.6510 C   0  0  0  0  0  0  0  0  0  0  0  0
   39.4490   32.1620   44.6110 C   0  0  0  0  0  0  0  0  0  0  0  0
   40.6450   31.5010   44.7430 C   0  0  0  0  0  0  0  0  0  0  0  0
   41.0080   30.3980   44.0000 C   0  0  0  0  0  0  0  0  0  0  0  0
   40.1220   29.9140   43.0590 C   0  0  0  0  0  0  0  0  0  0  0  0
   38.9140   30.5440   42.8950 C   0  0  0  0  0  0  0  0  0  0  0  0
   38.8330   31.7660   40.0970 Cl  0  0  0  0  0  0  0  0  0  0  0  0
   37.6500   30.6110   40.6650 C   0  0  0  0  0  0  0  0  0  0  0  0
   37.8610   30.1770   41.9570 C   0  0  0  0  0  0  0  0  0  0  0  0
   36.9930   29.2580   42.5270 C   0  0  0  0  0  0  0  0  0  0  0  0
   35.9020   28.7650   41.8030 C   0  0  0  0  0  0  0  0  0  0  0  0
   35.7060   29.2070   40.5130 C   0  0  0  0  0  0  0  0  0  0  0  0
   34.3630   28.6470   39.5190 Cl  0  0  0  0  0  0  0  0  0  0  0  0
   36.5750   30.1230   39.9540 C   0  0  0  0  0  0  0  0  0  0  0  0
   38.3390   32.2310   47.4350 C   0  0  0  0  0  0  0  0  0  0  0  0
   38.1550   32.1140   48.8100 C   0  0  0  0  0  0  0  0  0  0  0  0
   38.8440   33.0430   49.5810 C   0  0  0  0  0  0  0  0  0  0  0  0
   39.6560   34.0100   48.9800 C   0  0  0  0  0  0  0  0  0  0  0  0
   39.7890   34.0650   47.6120 C   0  0  0  0  0  0  0  0  0  0  0  0
   39.1220   33.1620   46.8300 C   0  0  0  0  0  0  0  0  0  0  0  0
   35.9340   31.2060   49.3390 C   0  0  0  0  0  0  0  0  0  0  0  0
   37.3230   31.1190   49.3980 C   0  0  0  0  0  0  0  0  0  0  0  0
   37.8540   30.0000   50.0660 C   0  0  0  0  0  0  0  0  0  0  0  0
   37.0020   29.0880   50.6060 N   0  0  0  0  0  0  0  0  0  0  0  0
   35.6670   29.2240   50.5170 C   0  0  0  0  0  0  0  0  0  0  0  0
   35.1280   30.2800   49.8870 N   0  0  0  0  0  0  0  0  0  0  0  0
   37.6790   31.3330   46.5780 O   0  0  0  0  0  0  0  0  0  0  0  0
   41.3601   31.8758   45.4901 H   0  0  0  0  0  0  0  0  0  0  0  0
   41.9836   29.9137   44.1539 H   0  0  0  0  0  0  0  0  0  0  0  0
   40.3805   29.0358   42.4492 H   0  0  0  0  0  0  0  0  0  0  0  0
   37.1637   28.9135   43.5576 H   0  0  0  0  0  0  0  0  0  0  0  0
   35.2127   28.0371   42.2559 H   0  0  0  0  0  0  0  0  0  0  0  0
   36.4063   30.4691   38.9236 H   0  0  0  0  0  0  0  0  0  0  0  0
   38.7494   33.0172   50.6766 H   0  0  0  0  0  0  0  0  0  0  0  0
   40.1944   34.7348   49.6083 H   0  0  0  0  0  0  0  0  0  0  0  0
   40.4284   34.8311   47.1491 H   0  0  0  0  0  0  0  0  0  0  0  0
   35.4792   32.0652   48.8243 H   0  0  0  0  0  0  0  0  0  0  0  0
   38.9424   29.8650   50.1501 H   0  0  0  0  0  0  0  0  0  0  0  0
   35.0107   28.4631   50.9645 H   0  0  0  0  0  0  0  0  0  0  0  0
   37.8003   31.4041   45.5980 H   0  0  0  0  0  0  0  0  0  0  0  0
  1 22  1  0
  2  3  1  0
  3  4  2  0
  4  5  1  0
  4  1  1  0
  6  5  2  0
  7  6  1  0
  8  7  2  0
  8  3  1  0
  9 10  1  0
 10 11  2  0
 11 12  1  0
 11  8  1  0
 13 12  2  0
 14 13  1  0
 15 14  1  0
 16 14  2  0
 16 10  1  0
 17 18  2  0
 18 24  1  0
 18 19  1  0
 20 19  2  0
 21 20  1  0
 22 17  1  0
 22 21  2  0
 23 24  2  0
 23 28  1  0
 24 25  1  0
 25 26  2  0
 27 26  1  0
 28 27  2  0
 29 17  1  0
  5 30  1  0
  6 31  1  0
  7 32  1  0
 12 33  1  0
 13 34  1  0
 16 35  1  0
 19 36  1  0
 20 37  1  0
 21 38  1  0
 23 39  1  0
 25 40  1  0
 27 41  1  0
 29 42  1  0
M  ISO  8  30  14  31  14  32  14  33  14  34  14  35  14  36  14  37  14
M  ISO  5  38  14  39  14  40  14  41  14  42   3
M  END
>  <minimizedAffinity>  (1) 
-5.5475421

>  <minimizedRMSD>  (1) 
0.698305309

$$$$
