
     RDKit          3D

 33 36  0  0  0  0  0  0  0  0999 V2000
   37.0873   30.6764   46.7660 C   0  0  0  0  0  0  0  0  0  0  0  0
   37.7080   31.1356   47.9207 C   0  0  0  0  0  0  0  0  0  0  0  0
   38.7007   32.0833   47.8458 C   0  0  0  0  0  0  0  0  0  0  0  0
   39.0462   32.5508   46.5803 C   0  0  0  0  0  0  0  0  0  0  0  0
   39.9761   33.4702   46.2298 N   0  0  0  0  0  0  0  0  0  0  0  0
   39.9798   33.6203   44.9118 C   0  0  0  0  0  0  0  0  0  0  0  0
   39.0584   32.8045   44.4036 N   0  0  0  0  0  0  0  0  0  0  0  0
   38.4621   32.1288   45.4025 C   0  0  0  0  0  0  0  0  0  0  0  0
   37.4507   31.1602   45.5051 C   0  0  0  0  0  0  0  0  0  0  0  0
   37.4155   30.1091   51.5337 C   0  0  0  0  0  0  0  0  0  0  0  0
   37.9393   30.6941   50.3771 C   0  0  0  0  0  0  0  0  0  0  0  0
   37.2543   30.5673   49.1822 C   0  0  0  0  0  0  0  0  0  0  0  0
   36.0869   29.8714   49.1811 N   0  0  0  0  0  0  0  0  0  0  0  0
   35.5890   29.3074   50.3145 C   0  0  0  0  0  0  0  0  0  0  0  0
   36.2568   29.4306   51.4809 N   0  0  0  0  0  0  0  0  0  0  0  0
   36.2947   29.9257   46.7711 H   0  0  0  0  0  0  0  0  0  0  0  0
   39.1834   32.4411   48.7373 H   0  0  0  0  0  0  0  0  0  0  0  0
   40.5714   33.9584   46.9074 H   0  0  0  0  0  0  0  0  0  0  0  0
   36.9792   30.8149   44.5963 H   0  0  0  0  0  0  0  0  0  0  0  0
   38.0370   30.2746   52.4039 H   0  0  0  0  0  0  0  0  0  0  0  0
   38.8618   31.2479   50.3613 H   0  0  0  0  0  0  0  0  0  0  0  0
   34.6558   28.7545   50.2991 H   0  0  0  0  0  0  0  0  0  0  0  0
   38.6522   36.1446   43.6107 Cl  0  0  0  0  0  0  0  0  0  0  0  0
   40.2866   35.5797   43.3806 C   0  0  0  0  0  0  0  0  0  0  0  0
   40.7530   34.4533   44.0104 C   0  0  0  0  0  0  0  0  0  0  0  0
   42.0654   34.1885   43.6896 C   0  0  0  0  0  0  0  0  0  0  0  0
   42.5659   33.3094   44.1280 H   0  0  0  0  0  0  0  0  0  0  0  0
   42.8494   34.9358   42.8452 C   0  0  0  0  0  0  0  0  0  0  0  0
   42.3193   36.0532   42.2467 C   0  0  0  0  0  0  0  0  0  0  0  0
   43.3320   36.9819   41.1826 Cl  0  0  0  0  0  0  0  0  0  0  0  0
   41.0098   36.3741   42.5261 C   0  0  0  0  0  0  0  0  0  0  0  0
   40.6414   37.2554   42.0347 H   0  0  0  0  0  0  0  0  0  0  0  0
   43.8729   34.6548   42.6487 H   0  0  0  0  0  0  0  0  0  0  0  0
  1  2  2  0
  2 12  1  0
  3  2  1  0
  4  3  2  0
  5  4  1  0
  6  5  1  0
  7  6  2  0
  7  8  1  0
  8  9  2  0
  8  4  1  0
  9  1  1  0
 11 10  2  0
 12 11  1  0
 13 12  2  0
 13 14  1  0
 14 15  2  0
 15 10  1  0
  1 16  1  0
  3 17  1  0
  5 18  1  0
  9 19  1  0
 10 20  1  0
 11 21  1  0
 14 22  1  0
 23 24  1  0
 24 25  2  0
 25 26  1  0
 26 27  1  0
 26 28  2  0
 28 29  1  0
 29 30  1  0
 29 31  2  0
 31 32  1  0
 31 24  1  0
 28 33  1  0
  6 25  1  0
M  ISO  8  16  14  17  14  18   9  19  14  20  14  21  14  22  14  27  16
M  ISO  1  32  15
M  END
>  <DihAtoms>  (1) 
4,5,24,23

>  <DihDeg>  (1) 
-0.0013692249578056205

$$$$
