
     RDKit          3D

 33 36  0  0  0  0  0  0  0  0999 V2000
   36.4910   29.1800   50.1700 C   0  0  0  0  0  0  0  0  0  0  0  0
   37.2400   29.9460   49.2700 C   0  0  0  0  0  0  0  0  0  0  0  0
   36.7180   30.1980   48.0070 C   0  0  0  0  0  0  0  0  0  0  0  0
   35.5060   29.6820   47.7210 N   0  0  0  0  0  0  0  0  0  0  0  0
   34.7850   28.9410   48.5980 C   0  0  0  0  0  0  0  0  0  0  0  0
   35.2730   28.6920   49.8090 N   0  0  0  0  0  0  0  0  0  0  0  0
   36.9740   30.7970   45.6860 C   0  0  0  0  0  0  0  0  0  0  0  0
   37.4030   30.9760   46.9930 C   0  0  0  0  0  0  0  0  0  0  0  0
   38.4180   31.8530   47.2620 C   0  0  0  0  0  0  0  0  0  0  0  0
   38.9880   32.5370   46.1970 C   0  0  0  0  0  0  0  0  0  0  0  0
   40.0020   33.4480   46.2260 N   0  0  0  0  0  0  0  0  0  0  0  0
   40.2190   33.8470   44.9560 C   0  0  0  0  0  0  0  0  0  0  0  0
   39.3740   33.2150   44.1250 N   0  0  0  0  0  0  0  0  0  0  0  0
   38.5970   32.3930   44.8780 C   0  0  0  0  0  0  0  0  0  0  0  0
   37.5640   31.4990   44.6290 C   0  0  0  0  0  0  0  0  0  0  0  0
   34.4280   28.6520   45.5960 Cl  0  0  0  0  0  0  0  0  0  0  0  0
   33.2300   28.2690   46.8230 C   0  0  0  0  0  0  0  0  0  0  0  0
   33.4840   28.4330   48.1780 C   0  0  0  0  0  0  0  0  0  0  0  0
   32.5240   28.1250   49.1200 C   0  0  0  0  0  0  0  0  0  0  0  0
   31.2840   27.6410   48.6990 C   0  0  0  0  0  0  0  0  0  0  0  0
   31.0790   27.4940   47.3440 C   0  0  0  0  0  0  0  0  0  0  0  0
   29.5310   26.8890   46.8250 Cl  0  0  0  0  0  0  0  0  0  0  0  0
   32.0000   27.7870   46.3630 C   0  0  0  0  0  0  0  0  0  0  0  0
   36.8886   28.9712   51.1742 H   0  0  0  0  0  0  0  0  0  0  0  0
   38.2252   30.3420   49.5573 H   0  0  0  0  0  0  0  0  0  0  0  0
   36.1564   30.0914   45.4770 H   0  0  0  0  0  0  0  0  0  0  0  0
   38.7718   32.0114   48.2914 H   0  0  0  0  0  0  0  0  0  0  0  0
   40.5084   33.7715   47.0626 H   0  0  0  0  0  0  0  0  0  0  0  0
   40.9766   34.5819   44.6463 H   0  0  0  0  0  0  0  0  0  0  0  0
   37.2091   31.3425   43.5997 H   0  0  0  0  0  0  0  0  0  0  0  0
   32.7335   28.2594   50.1915 H   0  0  0  0  0  0  0  0  0  0  0  0
   30.4973   27.3856   49.4241 H   0  0  0  0  0  0  0  0  0  0  0  0
   31.7837   27.6516   45.2930 H   0  0  0  0  0  0  0  0  0  0  0  0
  2  1  2  0
  3  2  1  0
  4  3  2  0
  4  5  1  0
  5  6  2  0
  6  1  1  0
  7  8  2  0
  8  9  1  0
  8  3  1  0
 10 11  1  0
 10  9  2  0
 12 11  1  0
 13 14  1  0
 13 12  2  0
 14 10  1  0
 15 14  2  0
 15  7  1  0
 16 17  1  0
 17 18  2  0
 18  5  1  0
 18 19  1  0
 20 19  2  0
 21 20  1  0
 22 21  1  0
 23 17  1  0
 23 21  2  0
  1 24  1  0
  2 25  1  0
  7 26  1  0
  9 27  1  0
 11 28  1  0
 12 29  1  0
 15 30  1  0
 19 31  1  0
 20 32  1  0
 23 33  1  0
M  ISO  8  24  14  25  14  26  14  27  14  28   9  29  14  30  14  31  14
M  ISO  2  32  14  33  14
M  END
>  <minimizedAffinity>  (1) 
-6.37299061

>  <minimizedRMSD>  (1) 
1.962502

$$$$
