
     RDKit          3D

 44 47  0  0  0  0  0  0  0  0999 V2000
   32.1681   28.5245   47.4231 C   0  0  2  0  0  0  0  0  0  0  0  0
   33.4091   28.3629   48.2508 C   0  0  1  0  0  0  0  0  0  0  0  0
   33.8086   27.0633   48.1618 O   0  0  0  0  0  0  0  0  0  0  0  0
   33.1116   26.4384   47.1335 C   0  0  0  0  0  0  0  0  0  0  0  0
   32.5083   27.5211   46.2759 C   0  0  1  0  0  0  0  0  0  0  0  0
   32.0943   29.8255   46.8854 O   0  0  0  0  0  0  0  0  0  0  0  0
   34.7165   29.4118   47.4964 S   0  0  0  0  0  0  0  0  0  0  0  0
   37.1307   29.2926   50.6365 C   0  0  0  0  0  0  0  0  0  0  0  0
   37.6349   30.5848   50.7615 C   0  0  0  0  0  0  0  0  0  0  0  0
   37.2063   31.5419   49.8265 C   0  0  0  0  0  0  0  0  0  0  0  0
   36.3287   31.1607   48.8559 N   0  0  0  0  0  0  0  0  0  0  0  0
   35.8695   29.8916   48.7794 C   0  0  0  0  0  0  0  0  0  0  0  0
   36.2624   28.9415   49.6657 N   0  0  0  0  0  0  0  0  0  0  0  0
   31.3650   27.0395   45.6874 O   0  0  0  0  0  0  0  0  0  0  0  0
   29.8835   29.1127   44.2114 Cl  0  0  0  0  0  0  0  0  0  0  0  0
   29.3380   28.1231   45.5449 C   0  0  0  0  0  0  0  0  0  0  0  0
   30.1244   27.1712   46.1513 C   0  0  0  0  0  0  0  0  0  0  0  0
   29.5669   26.4243   47.1912 C   0  0  0  0  0  0  0  0  0  0  0  0
   28.2660   26.6413   47.5927 C   0  0  0  0  0  0  0  0  0  0  0  0
   27.4664   27.5966   46.9899 C   0  0  0  0  0  0  0  0  0  0  0  0
   28.0128   28.3388   45.9598 C   0  0  0  0  0  0  0  0  0  0  0  0
   31.2453   28.1722   47.8702 H   0  0  0  0  0  0  0  0  0  0  0  0
   33.2597   28.6674   49.3043 H   0  0  0  0  0  0  0  0  0  0  0  0
   32.4254   25.7450   47.5929 H   0  0  0  0  0  0  0  0  0  0  0  0
   33.8044   25.8725   46.4583 H   0  0  0  0  0  0  0  0  0  0  0  0
   33.2432   28.0102   45.6345 H   0  0  0  0  0  0  0  0  0  0  0  0
   32.7631   30.4333   47.2936 H   0  0  0  0  0  0  0  0  0  0  0  0
   37.3953   28.4826   51.3021 H   0  0  0  0  0  0  0  0  0  0  0  0
   38.3328   30.7938   51.5712 H   0  0  0  0  0  0  0  0  0  0  0  0
   37.5847   32.5360   49.9104 H   0  0  0  0  0  0  0  0  0  0  0  0
   30.1064   25.6565   47.7181 H   0  0  0  0  0  0  0  0  0  0  0  0
   27.7706   26.1032   48.3873 H   0  0  0  0  0  0  0  0  0  0  0  0
   26.4365   27.8008   47.2744 H   0  0  0  0  0  0  0  0  0  0  0  0
   26.8599   27.8096   43.1838 Cl  0  0  0  0  0  0  0  0  0  0  0  0
   26.5933   29.2838   44.0850 C   0  0  0  0  0  0  0  0  0  0  0  0
   27.1849   29.3510   45.3121 C   0  0  0  0  0  0  0  0  0  0  0  0
   27.0389   30.4840   46.1206 C   0  0  0  0  0  0  0  0  0  0  0  0
   27.4666   30.6385   47.1099 H   0  0  0  0  0  0  0  0  0  0  0  0
   26.2748   31.5609   45.6608 C   0  0  0  0  0  0  0  0  0  0  0  0
   25.6845   31.4734   44.4164 C   0  0  0  0  0  0  0  0  0  0  0  0
   24.7185   32.8256   43.8262 Cl  0  0  0  0  0  0  0  0  0  0  0  0
   25.8303   30.3555   43.6224 C   0  0  0  0  0  0  0  0  0  0  0  0
   25.3768   30.2553   42.6346 H   0  0  0  0  0  0  0  0  0  0  0  0
   26.1200   32.4691   46.2346 H   0  0  0  0  0  0  0  0  0  0  0  0
  1  2  1  0
  3  2  1  0
  4  3  1  0
  5  4  1  0
  5  1  1  0
  6  1  1  0
  7  2  1  0
  7 12  1  0
  8  9  2  0
 10  9  1  0
 11 10  2  0
 12 11  1  0
 12 13  2  0
 13  8  1  0
 14 17  1  0
 14  5  1  0
 15 16  1  0
 16 21  2  0
 16 17  1  0
 17 18  2  0
 18 19  1  0
 20 19  2  0
 21 20  1  0
  1 22  1  1
  2 23  1  1
  4 24  1  0
  4 25  1  0
  5 26  1  6
  6 27  1  0
  8 28  1  0
  9 29  1  0
 10 30  1  0
 18 31  1  0
 19 32  1  0
 20 33  1  0
 34 35  1  0
 35 36  2  0
 36 37  1  0
 37 38  1  0
 37 39  2  0
 39 40  1  0
 40 41  1  0
 40 42  2  0
 42 43  1  0
 42 35  1  0
 39 44  1  0
 21 36  1  0
M  ISO  8  22  13  23  13  24  13  25  13  26  13  27   3  28  14  29  14
M  ISO  6  30  14  31  14  32  14  33  14  38  16  43  15
M  END
>  <DihAtoms>  (1) 
15,20,35,34

>  <DihDeg>  (1) 
-89.9994656711764

$$$$
