
     RDKit          3D

 35 37  0  0  0  0  0  0  0  0999 V2000
   35.1920   29.3045   48.3782 C   0  0  0  0  0  0  0  0  0  0  0  0
   34.6309   29.8605   47.2316 C   0  0  0  0  0  0  0  0  0  0  0  0
   33.3641   29.4277   46.8793 C   0  0  0  0  0  0  0  0  0  0  0  0
   32.7359   28.4999   47.6495 N   0  0  0  0  0  0  0  0  0  0  0  0
   33.3019   27.9877   48.7419 C   0  0  0  0  0  0  0  0  0  0  0  0
   34.5279   28.3910   49.1036 N   0  0  0  0  0  0  0  0  0  0  0  0
   36.4845   29.6027   48.9109 N   0  0  0  0  0  0  0  0  0  0  0  0
   36.9958   29.3070   50.1955 C   0  0  0  0  0  0  0  0  0  0  0  0
   37.6619   30.3625   50.9411 C   0  0  0  0  0  0  0  0  0  0  0  0
   38.3128   31.4684   50.1987 C   0  0  0  0  0  0  0  0  0  0  0  0
   37.8122   31.6225   48.7939 C   0  0  0  0  0  0  0  0  0  0  0  0
   37.5381   30.2747   48.1798 C   0  0  0  0  0  0  0  0  0  0  0  0
   35.2164   30.5743   46.7148 H   0  0  0  0  0  0  0  0  0  0  0  0
   32.9180   29.8469   45.9979 H   0  0  0  0  0  0  0  0  0  0  0  0
   32.7605   27.2520   49.3209 H   0  0  0  0  0  0  0  0  0  0  0  0
   37.6326   28.3779   50.0665 H   0  0  0  0  0  0  0  0  0  0  0  0
   36.1290   28.9086   50.8034 H   0  0  0  0  0  0  0  0  0  0  0  0
   36.8979   30.8251   51.6360 H   0  0  0  0  0  0  0  0  0  0  0  0
   38.3821   29.8942   51.6605 H   0  0  0  0  0  0  0  0  0  0  0  0
   38.0363   32.4502   50.7356 H   0  0  0  0  0  0  0  0  0  0  0  0
   36.8255   32.1710   48.8429 H   0  0  0  0  0  0  0  0  0  0  0  0
   38.5338   32.1823   48.1598 H   0  0  0  0  0  0  0  0  0  0  0  0
   37.2052   30.4974   47.1200 H   0  0  0  0  0  0  0  0  0  0  0  0
   38.4584   29.6733   48.1410 H   0  0  0  0  0  0  0  0  0  0  0  0
   39.3729   30.7261   47.5629 Cl  0  0  0  0  0  0  0  0  0  0  0  0
   40.3684   31.1234   48.9753 C   0  0  0  0  0  0  0  0  0  0  0  0
   39.7846   31.4765   50.2004 C   0  0  0  0  0  0  0  0  0  0  0  0
   40.7256   31.7443   51.1595 C   0  0  0  0  0  0  0  0  0  0  0  0
   40.3399   32.0068   52.1180 H   0  0  0  0  0  0  0  0  0  0  0  0
   42.0833   31.6823   50.9690 C   0  0  0  0  0  0  0  0  0  0  0  0
   42.6119   31.3303   49.7455 C   0  0  0  0  0  0  0  0  0  0  0  0
   44.3348   31.2824   49.6114 Cl  0  0  0  0  0  0  0  0  0  0  0  0
   41.7237   31.0458   48.7305 C   0  0  0  0  0  0  0  0  0  0  0  0
   42.1485   30.7711   47.7770 H   0  0  0  0  0  0  0  0  0  0  0  0
   42.7129   31.9168   51.8037 H   0  0  0  0  0  0  0  0  0  0  0  0
  1  7  1  0
  1  6  1  0
  2  1  2  0
  3  2  1  0
  3  4  2  0
  4  5  1  0
  5  6  2  0
  7  8  1  0
  8  9  1  0
 10  9  1  0
 11 10  1  0
 12 11  1  0
 12  7  1  0
  2 13  1  0
  3 14  1  0
  5 15  1  0
  8 16  1  0
  8 17  1  0
  9 18  1  0
  9 19  1  0
 10 20  1  0
 11 21  1  0
 11 22  1  0
 12 23  1  0
 12 24  1  0
 25 26  1  0
 26 27  2  0
 27 28  1  0
 28 29  1  0
 28 30  2  0
 30 31  1  0
 31 32  1  0
 31 33  2  0
 33 34  1  0
 33 26  1  0
 30 35  1  0
 10 27  1  0
M  ISO  8  13  14  14  14  15  14  16  13  17  13  18  13  19  13  20  13
M  ISO  6  21  13  22  13  23  13  24  13  29  16  34  15
M  END
>  <DihAtoms>  (1) 
8,9,26,25

>  <DihDeg>  (1) 
-72.21968254426531

$$$$
