
     RDKit          3D

 37 39  0  0  0  0  0  0  0  0999 V2000
   38.1123   31.8863   47.4136 C   0  0  0  0  0  0  0  0  0  0  0  0
   38.5799   32.7899   48.3256 C   0  0  0  0  0  0  0  0  0  0  0  0
   38.0793   32.8674   49.6298 C   0  0  0  0  0  0  0  0  0  0  0  0
   37.0267   31.9379   49.9909 C   0  0  0  0  0  0  0  0  0  0  0  0
   36.6086   31.0681   49.0418 C   0  0  0  0  0  0  0  0  0  0  0  0
   37.0963   31.0036   47.7877 C   0  0  0  0  0  0  0  0  0  0  0  0
   40.0012   31.2653   45.9888 C   0  0  0  0  0  0  0  0  0  0  0  0
   38.7489   31.9133   46.1145 C   0  0  0  0  0  0  0  0  0  0  0  0
   38.2855   32.4895   44.9583 C   0  0  0  0  0  0  0  0  0  0  0  0
   38.9969   32.4195   43.8204 N   0  0  0  0  0  0  0  0  0  0  0  0
   40.1580   31.8132   43.7229 C   0  0  0  0  0  0  0  0  0  0  0  0
   40.6513   31.2404   44.8090 N   0  0  0  0  0  0  0  0  0  0  0  0
   35.1597   29.9682   46.9423 C   0  0  0  0  0  0  0  0  0  0  0  0
   34.5221   30.6292   47.8559 O   0  0  0  0  0  0  0  0  0  0  0  0
   36.6010   30.1117   46.8705 N   0  0  0  0  0  0  0  0  0  0  0  0
   34.4515   29.1652   46.0898 O   0  0  0  0  0  0  0  0  0  0  0  0
   33.3659   29.5786   45.3268 C   0  0  0  0  0  0  0  0  0  0  0  0
   33.3639   30.7238   44.6793 O   0  0  0  0  0  0  0  0  0  0  0  0
   39.3797   33.5056   48.0745 H   0  0  0  0  0  0  0  0  0  0  0  0
   38.5006   33.6148   50.3034 H   0  0  0  0  0  0  0  0  0  0  0  0
   36.7499   32.1141   51.0037 H   0  0  0  0  0  0  0  0  0  0  0  0
   35.8584   30.4704   49.5347 H   0  0  0  0  0  0  0  0  0  0  0  0
   40.4507   30.7827   46.8380 H   0  0  0  0  0  0  0  0  0  0  0  0
   37.3271   32.9861   45.0531 H   0  0  0  0  0  0  0  0  0  0  0  0
   40.6336   31.8235   42.7578 H   0  0  0  0  0  0  0  0  0  0  0  0
   37.1768   29.5941   46.2018 H   0  0  0  0  0  0  0  0  0  0  0  0
   33.0626   27.3683   47.2886 Cl  0  0  0  0  0  0  0  0  0  0  0  0
   31.8756   27.6765   46.0170 C   0  0  0  0  0  0  0  0  0  0  0  0
   32.1536   28.7401   45.1803 C   0  0  0  0  0  0  0  0  0  0  0  0
   31.2421   28.9896   44.1910 C   0  0  0  0  0  0  0  0  0  0  0  0
   31.4039   29.8071   43.5056 H   0  0  0  0  0  0  0  0  0  0  0  0
   30.0973   28.2420   44.0084 C   0  0  0  0  0  0  0  0  0  0  0  0
   29.8423   27.1850   44.8572 C   0  0  0  0  0  0  0  0  0  0  0  0
   28.4188   26.1739   44.7115 Cl  0  0  0  0  0  0  0  0  0  0  0  0
   30.7419   26.9064   45.8659 C   0  0  0  0  0  0  0  0  0  0  0  0
   30.5912   26.0867   46.5624 H   0  0  0  0  0  0  0  0  0  0  0  0
   29.3700   28.4287   43.2313 H   0  0  0  0  0  0  0  0  0  0  0  0
  1  6  1  0
  1  2  2  0
  2  3  1  0
  3  4  2  0
  5  4  1  0
  6  5  2  0
  7  8  2  0
  8  1  1  0
  9  8  1  0
 10  9  2  0
 11 10  1  0
 11 12  2  0
 12  7  1  0
 13 14  2  0
 15 13  1  0
 15  6  1  0
 16 13  1  0
 17 16  1  0
 18 17  2  0
  2 19  1  0
  3 20  1  0
  4 21  1  0
  5 22  1  0
  7 23  1  0
  9 24  1  0
 11 25  1  0
 15 26  1  0
 27 28  1  0
 28 29  2  0
 29 30  1  0
 30 31  1  0
 30 32  2  0
 32 33  1  0
 33 34  1  0
 33 35  2  0
 35 36  1  0
 35 28  1  0
 32 37  1  0
 17 29  1  0
M  ISO  8  19  14  20  14  21  14  22  14  23  14  24  14  25  14  31  16
M  ISO  1  36  15
M  END
>  <DihAtoms>  (1) 
15,16,28,27

>  <DihDeg>  (1) 
0.994444878342387

$$$$
