
     RDKit          3D

 39 42  0  0  0  0  0  0  0  0999 V2000
   37.6803   31.2987   48.2026 C   0  0  0  0  0  0  0  0  0  0  0  0
   38.5406   32.3031   48.0930 C   0  0  0  0  0  0  0  0  0  0  0  0
   38.9357   32.7014   46.8664 C   0  0  0  0  0  0  0  0  0  0  0  0
   38.4147   32.0317   45.7848 C   0  0  0  0  0  0  0  0  0  0  0  0
   37.3317   30.8023   46.5765 S   0  0  0  0  0  0  0  0  0  0  0  0
   41.1525   31.2224   44.7130 Cl  0  0  0  0  0  0  0  0  0  0  0  0
   39.7750   31.8254   43.7965 C   0  0  0  0  0  0  0  0  0  0  0  0
   38.5907   32.1621   44.3592 C   0  0  0  0  0  0  0  0  0  0  0  0
   37.5138   32.6267   43.6932 C   0  0  0  0  0  0  0  0  0  0  0  0
   37.6000   32.7836   42.3036 C   0  0  0  0  0  0  0  0  0  0  0  0
   38.7679   32.4599   41.6867 C   0  0  0  0  0  0  0  0  0  0  0  0
   38.9485   32.6307   39.9491 Cl  0  0  0  0  0  0  0  0  0  0  0  0
   39.8587   31.9814   42.4200 C   0  0  0  0  0  0  0  0  0  0  0  0
   37.1476   29.9313   51.6850 C   0  0  0  0  0  0  0  0  0  0  0  0
   37.7868   30.5640   50.5994 C   0  0  0  0  0  0  0  0  0  0  0  0
   37.0753   30.6512   49.3793 C   0  0  0  0  0  0  0  0  0  0  0  0
   35.8578   30.1366   49.3284 N   0  0  0  0  0  0  0  0  0  0  0  0
   35.2645   29.5412   50.3607 C   0  0  0  0  0  0  0  0  0  0  0  0
   35.8999   29.4396   51.5232 N   0  0  0  0  0  0  0  0  0  0  0  0
   33.9218   29.0121   50.1866 C   0  0  0  0  0  0  0  0  0  0  0  0
   33.6791   28.2776   49.1996 O   0  0  0  0  0  0  0  0  0  0  0  0
   38.9022   32.7764   49.0017 H   0  0  0  0  0  0  0  0  0  0  0  0
   39.6281   33.5015   46.6234 H   0  0  0  0  0  0  0  0  0  0  0  0
   36.5692   32.8947   44.1470 H   0  0  0  0  0  0  0  0  0  0  0  0
   36.7537   33.1544   41.7379 H   0  0  0  0  0  0  0  0  0  0  0  0
   40.7799   31.7284   41.9155 H   0  0  0  0  0  0  0  0  0  0  0  0
   37.7278   29.8915   52.5837 H   0  0  0  0  0  0  0  0  0  0  0  0
   38.7693   30.9798   50.6390 H   0  0  0  0  0  0  0  0  0  0  0  0
   33.6957   31.8829   50.9623 Cl  0  0  0  0  0  0  0  0  0  0  0  0
   32.6285   30.5946   51.4795 C   0  0  0  0  0  0  0  0  0  0  0  0
   32.7781   29.2622   51.0864 C   0  0  0  0  0  0  0  0  0  0  0  0
   31.9136   28.2764   51.5177 C   0  0  0  0  0  0  0  0  0  0  0  0
   32.0812   27.2636   51.1791 H   0  0  0  0  0  0  0  0  0  0  0  0
   30.8926   28.6166   52.3458 C   0  0  0  0  0  0  0  0  0  0  0  0
   30.6596   29.9121   52.7928 C   0  0  0  0  0  0  0  0  0  0  0  0
   29.3508   30.3760   53.8601 Cl  0  0  0  0  0  0  0  0  0  0  0  0
   31.5623   30.8377   52.3205 C   0  0  0  0  0  0  0  0  0  0  0  0
   31.4391   31.8802   52.6327 H   0  0  0  0  0  0  0  0  0  0  0  0
   30.1971   27.8425   52.6967 H   0  0  0  0  0  0  0  0  0  0  0  0
  1 16  1  0
  2  1  2  0
  3  2  1  0
  4  5  1  0
  4  3  2  0
  5  1  1  0
  7  8  2  0
  7  6  1  0
  8  4  1  0
  9  8  1  0
 10  9  2  0
 11 10  1  0
 11 13  2  0
 12 11  1  0
 13  7  1  0
 15 14  2  0
 16 15  1  0
 17 16  2  0
 17 18  1  0
 18 19  2  0
 19 14  1  0
 20 18  1  0
 21 20  2  0
  2 22  1  0
  3 23  1  0
  9 24  1  0
 10 25  1  0
 13 26  1  0
 14 27  1  0
 15 28  1  0
 29 30  1  0
 30 31  2  0
 31 32  1  0
 32 33  1  0
 32 34  2  0
 34 35  1  0
 35 36  1  0
 35 37  2  0
 37 38  1  0
 37 30  1  0
 34 39  1  0
 20 31  1  0
M  ISO  8  22  14  23  14  24  14  25  14  26  14  27  14  28  14  33  16
M  ISO  1  38  15
M  END
>  <DihAtoms>  (1) 
17,19,30,29

>  <DihDeg>  (1) 
-135.00036687276284

$$$$
