
     RDKit          3D

 31 33  0  0  0  0  0  0  0  0999 V2000
   38.3663   30.5965   47.0963 C   0  0  2  0  0  0  0  0  0  0  0  0
   36.9739   30.5501   47.5242 C   0  0  0  0  0  0  0  0  0  0  0  0
   38.0887   31.1288   48.4199 C   0  0  1  0  0  0  0  0  0  0  0  0
   40.6123   32.6868   45.0252 C   0  0  0  0  0  0  0  0  0  0  0  0
   39.7194   33.1784   44.0335 C   0  0  0  0  0  0  0  0  0  0  0  0
   38.3434   32.7711   44.1029 C   0  0  0  0  0  0  0  0  0  0  0  0
   37.9759   31.9466   45.1036 N   0  0  0  0  0  0  0  0  0  0  0  0
   38.8647   31.5061   46.0226 C   0  0  0  0  0  0  0  0  0  0  0  0
   40.1774   31.8525   46.0137 N   0  0  0  0  0  0  0  0  0  0  0  0
   37.6749   30.5053   50.7715 C   0  0  0  0  0  0  0  0  0  0  0  0
   36.7502   31.3572   50.8134 O   0  0  0  0  0  0  0  0  0  0  0  0
   38.4268   30.2904   49.5653 N   0  0  0  0  0  0  0  0  0  0  0  0
   38.9272   29.5975   47.1258 H   0  0  0  0  0  0  0  0  0  0  0  0
   36.5257   29.6305   47.9005 H   0  0  0  0  0  0  0  0  0  0  0  0
   36.2607   31.3279   47.1776 H   0  0  0  0  0  0  0  0  0  0  0  0
   37.9658   32.1869   48.6499 H   0  0  0  0  0  0  0  0  0  0  0  0
   41.6253   33.0436   44.8967 H   0  0  0  0  0  0  0  0  0  0  0  0
   40.0606   33.8286   43.2604 H   0  0  0  0  0  0  0  0  0  0  0  0
   37.6934   33.1581   43.3390 H   0  0  0  0  0  0  0  0  0  0  0  0
   39.1843   29.5803   49.4715 H   0  0  0  0  0  0  0  0  0  0  0  0
   40.4783   30.5919   52.0514 Cl  0  0  0  0  0  0  0  0  0  0  0  0
   39.2426   29.5072   52.6359 C   0  0  0  0  0  0  0  0  0  0  0  0
   38.0809   29.6533   51.9150 C   0  0  0  0  0  0  0  0  0  0  0  0
   36.9628   28.8679   52.2313 C   0  0  0  0  0  0  0  0  0  0  0  0
   35.9694   28.8369   51.7869 H   0  0  0  0  0  0  0  0  0  0  0  0
   37.0297   27.9393   53.2761 C   0  0  0  0  0  0  0  0  0  0  0  0
   38.2169   27.8213   53.9793 C   0  0  0  0  0  0  0  0  0  0  0  0
   38.3886   26.6700   55.3092 Cl  0  0  0  0  0  0  0  0  0  0  0  0
   39.3059   28.5931   53.6645 C   0  0  0  0  0  0  0  0  0  0  0  0
   40.2664   28.5752   54.1494 H   0  0  0  0  0  0  0  0  0  0  0  0
   36.2350   27.2898   53.6002 H   0  0  0  0  0  0  0  0  0  0  0  0
  1  2  1  0
  1  3  1  0
  2  3  1  0
  3 12  1  0
  4  9  2  0
  5  6  2  0
  5  4  1  0
  6  7  1  0
  7  8  2  0
  8  1  1  0
  9  8  1  0
 10 11  2  0
 12 10  1  0
  1 13  1  1
  2 14  1  0
  2 15  1  0
  3 16  1  1
  4 17  1  0
  5 18  1  0
  6 19  1  0
 12 20  1  0
 21 22  1  0
 22 23  2  0
 23 24  1  0
 24 25  1  0
 24 26  2  0
 26 27  1  0
 27 28  1  0
 27 29  2  0
 29 30  1  0
 29 22  1  0
 26 31  1  0
 10 23  1  0
M  ISO  8  13  13  14  13  15  13  16  13  17  14  18  14  19  14  25  16
M  ISO  1  30  15
M  END
>  <DihAtoms>  (1) 
10,9,22,21

>  <DihDeg>  (1) 
-103.45203720478514

$$$$
