
     RDKit          3D

 22 23  0  0  0  0  0  0  0  0999 V2000
   37.2637   30.1834   51.4203 C   0  0  0  0  0  0  0  0  0  0  0  0
   38.0957   30.7603   50.4508 C   0  0  0  0  0  0  0  0  0  0  0  0
   37.8028   30.4930   49.1117 C   0  0  0  0  0  0  0  0  0  0  0  0
   36.7394   29.6980   48.8453 N   0  0  0  0  0  0  0  0  0  0  0  0
   35.9601   29.1588   49.7870 C   0  0  0  0  0  0  0  0  0  0  0  0
   36.2374   29.4123   51.0621 N   0  0  0  0  0  0  0  0  0  0  0  0
   34.8243   28.3088   49.4777 C   0  0  0  0  0  0  0  0  0  0  0  0
   33.6267   28.7184   49.5641 O   0  0  0  0  0  0  0  0  0  0  0  0
   37.5344   30.4218   52.4300 H   0  0  0  0  0  0  0  0  0  0  0  0
   38.9540   31.3999   50.6094 H   0  0  0  0  0  0  0  0  0  0  0  0
   38.3070   30.8318   48.2408 H   0  0  0  0  0  0  0  0  0  0  0  0
   37.4192   27.0026   49.8914 Cl  0  0  0  0  0  0  0  0  0  0  0  0
   36.0230   26.1806   49.1818 C   0  0  0  0  0  0  0  0  0  0  0  0
   34.8414   26.9108   49.0367 C   0  0  0  0  0  0  0  0  0  0  0  0
   33.7738   26.2381   48.4801 C   0  0  0  0  0  0  0  0  0  0  0  0
   32.8514   26.7896   48.3609 H   0  0  0  0  0  0  0  0  0  0  0  0
   33.8852   24.9186   48.0944 C   0  0  0  0  0  0  0  0  0  0  0  0
   35.0738   24.2424   48.2590 C   0  0  0  0  0  0  0  0  0  0  0  0
   35.3141   22.5527   47.7963 Cl  0  0  0  0  0  0  0  0  0  0  0  0
   36.1886   24.8438   48.8080 C   0  0  0  0  0  0  0  0  0  0  0  0
   37.1494   24.3779   48.9667 H   0  0  0  0  0  0  0  0  0  0  0  0
   33.0677   24.3867   47.6629 H   0  0  0  0  0  0  0  0  0  0  0  0
  2  1  2  0
  3  2  1  0
  4  3  2  0
  4  5  1  0
  5  6  2  0
  6  1  1  0
  7  8  2  0
  7  5  1  0
  1  9  1  0
  2 10  1  0
  3 11  1  0
 12 13  1  0
 13 14  2  0
 14 15  1  0
 15 16  1  0
 15 17  2  0
 17 18  1  0
 18 19  1  0
 18 20  2  0
 20 21  1  0
 20 13  1  0
 17 22  1  0
  7 14  1  0
M  ISO  5   9  14  10  14  11  14  16  16  21  15
M  END
>  <DihAtoms>  (1) 
7,6,13,12

>  <DihDeg>  (1) 
45.00077170521486

$$$$
