
     RDKit          3D

 22 23  0  0  0  0  0  0  0  0999 V2000
   37.2637   30.1834   51.4203 C   0  0  0  0  0  0  0  0  0  0  0  0
   38.0957   30.7603   50.4508 C   0  0  0  0  0  0  0  0  0  0  0  0
   37.8028   30.4930   49.1117 C   0  0  0  0  0  0  0  0  0  0  0  0
   36.7394   29.6980   48.8453 N   0  0  0  0  0  0  0  0  0  0  0  0
   35.9601   29.1588   49.7870 C   0  0  0  0  0  0  0  0  0  0  0  0
   36.2374   29.4123   51.0621 N   0  0  0  0  0  0  0  0  0  0  0  0
   34.8243   28.3088   49.4777 C   0  0  0  0  0  0  0  0  0  0  0  0
   33.6267   28.7184   49.5641 O   0  0  0  0  0  0  0  0  0  0  0  0
   37.5344   30.4218   52.4300 H   0  0  0  0  0  0  0  0  0  0  0  0
   38.9540   31.3999   50.6094 H   0  0  0  0  0  0  0  0  0  0  0  0
   38.3070   30.8318   48.2408 H   0  0  0  0  0  0  0  0  0  0  0  0
   36.6797   26.6378   51.0192 Cl  0  0  0  0  0  0  0  0  0  0  0  0
   35.6867   26.0147   49.6946 C   0  0  0  0  0  0  0  0  0  0  0  0
   34.8414   26.9108   49.0367 C   0  0  0  0  0  0  0  0  0  0  0  0
   34.0823   26.3903   48.0096 C   0  0  0  0  0  0  0  0  0  0  0  0
   33.4225   27.0713   47.4900 H   0  0  0  0  0  0  0  0  0  0  0  0
   34.1664   25.0573   47.6656 C   0  0  0  0  0  0  0  0  0  0  0  0
   35.0165   24.2142   48.3464 C   0  0  0  0  0  0  0  0  0  0  0  0
   35.1938   22.4934   47.9797 Cl  0  0  0  0  0  0  0  0  0  0  0  0
   35.8095   24.6568   49.3860 C   0  0  0  0  0  0  0  0  0  0  0  0
   36.4965   24.0558   49.9625 H   0  0  0  0  0  0  0  0  0  0  0  0
   33.5851   24.6420   46.8737 H   0  0  0  0  0  0  0  0  0  0  0  0
  2  1  2  0
  3  2  1  0
  4  3  2  0
  4  5  1  0
  5  6  2  0
  6  1  1  0
  7  8  2  0
  7  5  1  0
  1  9  1  0
  2 10  1  0
  3 11  1  0
 12 13  1  0
 13 14  2  0
 14 15  1  0
 15 16  1  0
 15 17  2  0
 17 18  1  0
 18 19  1  0
 18 20  2  0
 20 21  1  0
 20 13  1  0
 17 22  1  0
  7 14  1  0
M  ISO  5   9  14  10  14  11  14  16  16  21  15
M  END
>  <DihAtoms>  (1) 
7,6,13,12

>  <DihDeg>  (1) 
45.00077170521486

$$$$
