
     RDKit          3D

 22 23  0  0  0  0  0  0  0  0999 V2000
   37.2637   30.1834   51.4203 C   0  0  0  0  0  0  0  0  0  0  0  0
   38.0957   30.7603   50.4508 C   0  0  0  0  0  0  0  0  0  0  0  0
   37.8028   30.4930   49.1117 C   0  0  0  0  0  0  0  0  0  0  0  0
   36.7394   29.6980   48.8453 N   0  0  0  0  0  0  0  0  0  0  0  0
   35.9601   29.1588   49.7870 C   0  0  0  0  0  0  0  0  0  0  0  0
   36.2374   29.4123   51.0621 N   0  0  0  0  0  0  0  0  0  0  0  0
   34.8243   28.3088   49.4777 C   0  0  0  0  0  0  0  0  0  0  0  0
   33.6267   28.7184   49.5641 O   0  0  0  0  0  0  0  0  0  0  0  0
   37.5344   30.4218   52.4300 H   0  0  0  0  0  0  0  0  0  0  0  0
   38.9540   31.3999   50.6094 H   0  0  0  0  0  0  0  0  0  0  0  0
   38.3070   30.8318   48.2408 H   0  0  0  0  0  0  0  0  0  0  0  0
   36.1063   26.5082   51.4077 Cl  0  0  0  0  0  0  0  0  0  0  0  0
   35.4261   25.9558   49.8713 C   0  0  0  0  0  0  0  0  0  0  0  0
   34.8414   26.9108   49.0367 C   0  0  0  0  0  0  0  0  0  0  0  0
   34.3214   26.4444   47.8475 C   0  0  0  0  0  0  0  0  0  0  0  0
   33.8652   27.1714   47.1900 H   0  0  0  0  0  0  0  0  0  0  0  0
   34.3843   25.1065   47.5178 C   0  0  0  0  0  0  0  0  0  0  0  0
   34.9720   24.2041   48.3765 C   0  0  0  0  0  0  0  0  0  0  0  0
   35.1005   22.4724   48.0428 Cl  0  0  0  0  0  0  0  0  0  0  0  0
   35.5156   24.5903   49.5852 C   0  0  0  0  0  0  0  0  0  0  0  0
   35.9903   23.9413   50.3056 H   0  0  0  0  0  0  0  0  0  0  0  0
   33.9862   24.7327   46.6018 H   0  0  0  0  0  0  0  0  0  0  0  0
  2  1  2  0
  3  2  1  0
  4  3  2  0
  4  5  1  0
  5  6  2  0
  6  1  1  0
  7  8  2  0
  7  5  1  0
  1  9  1  0
  2 10  1  0
  3 11  1  0
 12 13  1  0
 13 14  2  0
 14 15  1  0
 15 16  1  0
 15 17  2  0
 17 18  1  0
 18 19  1  0
 18 20  2  0
 20 21  1  0
 20 13  1  0
 17 22  1  0
  7 14  1  0
M  ISO  5   9  14  10  14  11  14  16  16  21  15
M  END
>  <DihAtoms>  (1) 
7,6,13,12

>  <DihDeg>  (1) 
45.00077170521486

$$$$
