
     RDKit          3D

 23 24  0  0  0  0  0  0  0  0999 V2000
   37.2590   29.1160   50.5110 Cl  0  0  0  0  0  0  0  0  0  0  0  0
   35.9720   29.2020   49.3510 C   0  0  0  0  0  0  0  0  0  0  0  0
   35.9230   30.2470   48.4470 C   0  0  0  0  0  0  0  0  0  0  0  0
   34.9210   30.3450   47.5190 C   0  0  0  0  0  0  0  0  0  0  0  0
   33.9140   29.3830   47.4600 C   0  0  0  0  0  0  0  0  0  0  0  0
   33.9310   28.3320   48.3410 C   0  0  0  0  0  0  0  0  0  0  0  0
   32.7290   27.0610   48.3700 Cl  0  0  0  0  0  0  0  0  0  0  0  0
   34.9670   28.2710   49.2670 C   0  0  0  0  0  0  0  0  0  0  0  0
   38.0360   33.0400   49.5220 C   0  0  0  0  0  0  0  0  0  0  0  0
   38.9710   33.1440   48.4840 C   0  0  0  0  0  0  0  0  0  0  0  0
   38.8590   32.2330   47.4090 C   0  0  0  0  0  0  0  0  0  0  0  0
   37.8550   31.3240   47.4570 N   0  0  0  0  0  0  0  0  0  0  0  0
   36.9630   31.2600   48.4920 C   0  0  0  0  0  0  0  0  0  0  0  0
   37.0700   32.1190   49.5060 N   0  0  0  0  0  0  0  0  0  0  0  0
   39.8030   32.2700   46.2740 C   0  0  0  0  0  0  0  0  0  0  0  0
   34.9106   31.1896   46.8144 H   0  0  0  0  0  0  0  0  0  0  0  0
   33.1115   29.4662   46.7123 H   0  0  0  0  0  0  0  0  0  0  0  0
   34.9818   27.4276   49.9730 H   0  0  0  0  0  0  0  0  0  0  0  0
   38.0995   33.7352   50.3721 H   0  0  0  0  0  0  0  0  0  0  0  0
   39.7634   33.9067   48.5047 H   0  0  0  0  0  0  0  0  0  0  0  0
   40.8339   32.3104   46.6557 H   0  0  0  0  0  0  0  0  0  0  0  0
   39.6743   31.3661   45.6604 H   0  0  0  0  0  0  0  0  0  0  0  0
   39.6040   33.1610   45.6604 H   0  0  0  0  0  0  0  0  0  0  0  0
  2  1  1  0
  3 13  1  0
  3  2  2  0
  4  3  1  0
  5  4  2  0
  5  6  1  0
  6  7  1  0
  6  8  2  0
  8  2  1  0
 10  9  2  0
 11 12  2  0
 11 10  1  0
 12 13  1  0
 13 14  2  0
 14  9  1  0
 15 11  1  0
  4 16  1  0
  5 17  1  0
  8 18  1  0
  9 19  1  0
 10 20  1  0
 15 21  1  0
 15 22  1  0
 15 23  1  0
M  ISO  8  16  14  17  14  18  14  19  14  20  14  21   8  22   8  23   8
M  END
>  <minimizedAffinity>  (1) 
-5.74156427

>  <minimizedRMSD>  (1) 
0.142585814

$$$$
