
     RDKit          3D

 40 42  0  0  0  0  0  0  0  0999 V2000
   38.6940   32.8240   48.3480 C   0  0  0  0  0  0  0  0  0  0  0  0
   39.0100   32.1700   47.1550 C   0  0  0  0  0  0  0  0  0  0  0  0
   38.5280   30.8980   46.9880 C   0  0  0  0  0  0  0  0  0  0  0  0
   37.7780   30.3560   47.9890 N   0  0  0  0  0  0  0  0  0  0  0  0
   37.5060   31.0020   49.0920 C   0  0  0  0  0  0  0  0  0  0  0  0
   37.9620   32.2850   49.3170 N   0  0  0  0  0  0  0  0  0  0  0  0
   39.7680   32.8360   46.2490 O   0  0  0  0  0  0  0  0  0  0  0  0
   39.9350   32.3000   44.9760 C   0  0  0  0  0  0  0  0  0  0  0  0
   40.6570   31.1680   44.6220 C   0  0  0  0  0  0  0  0  0  0  0  0
   40.7030   30.7990   43.3270 C   0  0  0  0  0  0  0  0  0  0  0  0
   40.0360   31.5560   42.3960 C   0  0  0  0  0  0  0  0  0  0  0  0
   39.3110   32.6960   42.7610 C   0  0  0  0  0  0  0  0  0  0  0  0
   39.2820   33.0420   44.0740 N   0  0  0  0  0  0  0  0  0  0  0  0
   38.5920   33.5030   41.7170 C   0  0  0  0  0  0  0  0  0  0  0  0
   36.4950   30.0250   50.2320 S   0  0  0  0  0  0  0  0  0  0  0  0
   34.7740   30.4940   49.8080 C   0  0  0  0  0  0  0  0  0  0  0  0
   34.3750   27.7650   49.8400 F   0  0  0  0  0  0  0  0  0  0  0  0
   34.2780   28.4280   48.6490 C   0  0  0  0  0  0  0  0  0  0  0  0
   34.4610   29.8040   48.5180 C   0  0  0  0  0  0  0  0  0  0  0  0
   34.3520   30.4130   47.3020 C   0  0  0  0  0  0  0  0  0  0  0  0
   34.0530   29.6670   46.1490 C   0  0  0  0  0  0  0  0  0  0  0  0
   33.8710   28.3030   46.2670 C   0  0  0  0  0  0  0  0  0  0  0  0
   33.9840   27.6980   47.5110 C   0  0  0  0  0  0  0  0  0  0  0  0
   33.7880   26.2310   47.6400 C   0  0  0  0  0  0  0  0  0  0  0  0
   39.0737   33.8460   48.4940 H   0  0  0  0  0  0  0  0  0  0  0  0
   38.7407   30.3295   46.0706 H   0  0  0  0  0  0  0  0  0  0  0  0
   41.1841   30.5806   45.3882 H   0  0  0  0  0  0  0  0  0  0  0  0
   41.2662   29.9052   43.0205 H   0  0  0  0  0  0  0  0  0  0  0  0
   40.0723   31.2593   41.3374 H   0  0  0  0  0  0  0  0  0  0  0  0
   37.9373   34.2379   42.2082 H   0  0  0  0  0  0  0  0  0  0  0  0
   39.3268   34.0284   41.0893 H   0  0  0  0  0  0  0  0  0  0  0  0
   37.9856   32.8335   41.0893 H   0  0  0  0  0  0  0  0  0  0  0  0
   34.0826   30.1614   50.5962 H   0  0  0  0  0  0  0  0  0  0  0  0
   34.6660   31.5849   49.7164 H   0  0  0  0  0  0  0  0  0  0  0  0
   34.4998   31.5002   47.2231 H   0  0  0  0  0  0  0  0  0  0  0  0
   33.9655   30.1607   45.1699 H   0  0  0  0  0  0  0  0  0  0  0  0
   33.6373   27.6984   45.3783 H   0  0  0  0  0  0  0  0  0  0  0  0
   33.7516   25.9582   48.7050 H   0  0  0  0  0  0  0  0  0  0  0  0
   32.8434   25.9432   47.1553 H   0  0  0  0  0  0  0  0  0  0  0  0
   34.6239   25.7054   47.1553 H   0  0  0  0  0  0  0  0  0  0  0  0
  1  6  2  0
  2  1  1  0
  3  2  2  0
  3  4  1  0
  4  5  2  0
  5  6  1  0
  5 15  1  0
  7  2  1  0
  8  7  1  0
  9  8  2  0
 10  9  1  0
 11 12  1  0
 11 10  2  0
 12 13  2  0
 13  8  1  0
 14 12  1  0
 16 15  1  0
 18 17  1  0
 19 18  2  0
 19 16  1  0
 20 19  1  0
 21 22  1  0
 21 20  2  0
 22 23  2  0
 23 24  1  0
 23 18  1  0
  1 25  1  0
  3 26  1  0
  9 27  1  0
 10 28  1  0
 11 29  1  0
 14 30  1  0
 14 31  1  0
 14 32  1  0
 16 33  1  0
 16 34  1  0
 20 35  1  0
 21 36  1  0
 22 37  1  0
 24 38  1  0
 24 39  1  0
 24 40  1  0
M  ISO  8  25  14  26  14  27  14  28  14  29  14  30   8  31   8  32   8
M  ISO  8  33   8  34   8  35  14  36  14  37  14  38   8  39   8  40   8
M  END
>  <minimizedAffinity>  (1) 
-6.18293047

>  <minimizedRMSD>  (1) 
1.68107939

$$$$
