
     RDKit          3D

 23 24  0  0  0  0  0  0  0  0999 V2000
   37.2800   29.3490   51.0410 Br  0  0  0  0  0  0  0  0  0  0  0  0
   35.9640   29.3230   49.6680 C   0  0  0  0  0  0  0  0  0  0  0  0
   36.0050   30.2340   48.6210 C   0  0  0  0  0  0  0  0  0  0  0  0
   35.0130   30.1540   47.6570 C   0  0  0  0  0  0  0  0  0  0  0  0
   33.9960   29.2140   47.6980 C   0  0  0  0  0  0  0  0  0  0  0  0
   33.9850   28.3290   48.7470 C   0  0  0  0  0  0  0  0  0  0  0  0
   34.9750   28.3890   49.7310 C   0  0  0  0  0  0  0  0  0  0  0  0
   37.9830   33.1780   49.4470 C   0  0  0  0  0  0  0  0  0  0  0  0
   39.0170   33.1760   48.4780 C   0  0  0  0  0  0  0  0  0  0  0  0
   39.0120   32.1470   47.5500 C   0  0  0  0  0  0  0  0  0  0  0  0
   38.0270   31.1950   47.6050 N   0  0  0  0  0  0  0  0  0  0  0  0
   37.0560   31.2320   48.5450 C   0  0  0  0  0  0  0  0  0  0  0  0
   37.0370   32.2310   49.4700 N   0  0  0  0  0  0  0  0  0  0  0  0
   33.0130   29.2530   46.6030 C   0  0  0  0  0  0  0  0  0  0  0  0
   35.0338   30.8691   46.8214 H   0  0  0  0  0  0  0  0  0  0  0  0
   33.1928   27.5687   48.8133 H   0  0  0  0  0  0  0  0  0  0  0  0
   34.9554   27.6735   50.5663 H   0  0  0  0  0  0  0  0  0  0  0  0
   37.9570   33.9791   50.2004 H   0  0  0  0  0  0  0  0  0  0  0  0
   39.7906   33.9579   48.4631 H   0  0  0  0  0  0  0  0  0  0  0  0
   39.7917   32.0944   46.7758 H   0  0  0  0  0  0  0  0  0  0  0  0
   31.9973   29.2933   47.0234 H   0  0  0  0  0  0  0  0  0  0  0  0
   33.1892   30.1449   45.9837 H   0  0  0  0  0  0  0  0  0  0  0  0
   33.1180   28.3500   45.9837 H   0  0  0  0  0  0  0  0  0  0  0  0
  2  7  2  0
  2  1  1  0
  3  2  1  0
  4  5  1  0
  4  3  2  0
  5  6  2  0
  6  7  1  0
  8 13  2  0
  9  8  1  0
 10 11  1  0
 10  9  2  0
 11 12  2  0
 12  3  1  0
 12 13  1  0
 14  5  1  0
  4 15  1  0
  6 16  1  0
  7 17  1  0
  8 18  1  0
  9 19  1  0
 10 20  1  0
 14 21  1  0
 14 22  1  0
 14 23  1  0
M  ISO  8  15  14  16  14  17  14  18  14  19  14  20  14  21   8  22   8
M  ISO  1  23   8
M  END
>  <minimizedAffinity>  (1) 
-5.58142138

>  <minimizedRMSD>  (1) 
0.0232410859

$$$$
