
     RDKit          3D

 23 24  0  0  0  0  0  0  0  0999 V2000
   37.4790   29.4770   50.5180 C   0  0  0  0  0  0  0  0  0  0  0  0
   38.1290   30.7110   50.3840 C   0  0  0  0  0  0  0  0  0  0  0  0
   37.6560   31.5810   49.3930 C   0  0  0  0  0  0  0  0  0  0  0  0
   36.6110   31.1950   48.6240 N   0  0  0  0  0  0  0  0  0  0  0  0
   36.0190   29.9890   48.7950 C   0  0  0  0  0  0  0  0  0  0  0  0
   36.4400   29.1150   49.7400 N   0  0  0  0  0  0  0  0  0  0  0  0
   34.9150   29.5700   47.9930 N   0  0  0  0  0  0  0  0  0  0  0  0
   34.7510   30.0980   46.7750 C   0  0  0  0  0  0  0  0  0  0  0  0
   33.6590   29.6340   46.0780 C   0  0  0  0  0  0  0  0  0  0  0  0
   32.7750   28.7010   46.5540 C   0  0  0  0  0  0  0  0  0  0  0  0
   31.7810   28.2890   45.9000 O   0  0  0  0  0  0  0  0  0  0  0  0
   32.9880   28.1980   47.7930 N   0  0  0  0  0  0  0  0  0  0  0  0
   34.0590   28.6490   48.4820 C   0  0  0  0  0  0  0  0  0  0  0  0
   34.2920   28.1980   49.6560 O   0  0  0  0  0  0  0  0  0  0  0  0
   32.0860   27.2200   48.3240 C   0  0  0  0  0  0  0  0  0  0  0  0
   37.8309   28.7758   51.2890 H   0  0  0  0  0  0  0  0  0  0  0  0
   38.9758   30.9854   51.0303 H   0  0  0  0  0  0  0  0  0  0  0  0
   38.1270   32.5635   49.2420 H   0  0  0  0  0  0  0  0  0  0  0  0
   35.4395   30.8490   46.3604 H   0  0  0  0  0  0  0  0  0  0  0  0
   33.4837   30.0394   45.0706 H   0  0  0  0  0  0  0  0  0  0  0  0
   32.1158   27.2523   49.4231 H   0  0  0  0  0  0  0  0  0  0  0  0
   31.0646   27.4373   47.9783 H   0  0  0  0  0  0  0  0  0  0  0  0
   32.3850   26.2195   47.9783 H   0  0  0  0  0  0  0  0  0  0  0  0
  2  1  2  0
  3  2  1  0
  4  5  1  0
  4  3  2  0
  5  6  2  0
  6  1  1  0
  7 13  1  0
  7  5  1  0
  8  7  1  0
  9 10  1  0
  9  8  2  0
 10 12  1  0
 11 10  2  0
 12 15  1  0
 12 13  1  0
 13 14  2  0
  1 16  1  0
  2 17  1  0
  3 18  1  0
  8 19  1  0
  9 20  1  0
 15 21  1  0
 15 22  1  0
 15 23  1  0
M  ISO  8  16  14  17  14  18  14  19  14  20  14  21   8  22   8  23   8
M  END
>  <minimizedAffinity>  (1) 
-4.64744377

>  <minimizedRMSD>  (1) 
1.29343319

$$$$
