
     RDKit          3D

 23 24  0  0  0  0  0  0  0  0999 V2000
   37.2328   29.1003   50.5654 Cl  0  0  0  0  0  0  0  0  0  0  0  0
   35.9522   29.1832   49.3865 C   0  0  0  0  0  0  0  0  0  0  0  0
   35.9317   30.2231   48.4778 C   0  0  0  0  0  0  0  0  0  0  0  0
   34.9475   30.3298   47.5349 C   0  0  0  0  0  0  0  0  0  0  0  0
   33.9386   29.3922   47.4654 C   0  0  0  0  0  0  0  0  0  0  0  0
   33.9265   28.3387   48.3576 C   0  0  0  0  0  0  0  0  0  0  0  0
   32.7059   27.0808   48.3792 Cl  0  0  0  0  0  0  0  0  0  0  0  0
   34.9429   28.2703   49.2955 C   0  0  0  0  0  0  0  0  0  0  0  0
   37.9740   33.1000   49.5040 C   0  0  0  0  0  0  0  0  0  0  0  0
   39.0039   33.1098   48.5649 C   0  0  0  0  0  0  0  0  0  0  0  0
   38.9861   32.1046   47.5652 C   0  0  0  0  0  0  0  0  0  0  0  0
   37.9684   31.2074   47.5960 N   0  0  0  0  0  0  0  0  0  0  0  0
   36.9822   31.2280   48.5256 C   0  0  0  0  0  0  0  0  0  0  0  0
   37.0102   32.1819   49.4640 N   0  0  0  0  0  0  0  0  0  0  0  0
   34.9069   31.1401   46.8056 H   0  0  0  0  0  0  0  0  0  0  0  0
   33.1343   29.4358   46.7322 H   0  0  0  0  0  0  0  0  0  0  0  0
   38.0549   33.8947   50.2328 H   0  0  0  0  0  0  0  0  0  0  0  0
   39.8339   33.7733   48.4707 H   0  0  0  0  0  0  0  0  0  0  0  0
   39.6819   31.9462   46.7640 H   0  0  0  0  0  0  0  0  0  0  0  0
   34.9553   27.1322   50.2814 C   0  0  0  0  0  0  0  0  0  0  0  0
   34.0198   26.5426   50.2444 H   0  0  0  0  0  0  0  0  0  0  0  0
   35.7704   26.4567   49.8903 H   0  0  0  0  0  0  0  0  0  0  0  0
   35.2564   27.4461   51.2887 H   0  0  0  0  0  0  0  0  0  0  0  0
  2  1  1  0
  3 13  1  0
  3  2  2  0
  4  3  1  0
  5  4  2  0
  5  6  1  0
  6  7  1  0
  6  8  2  0
  8  2  1  0
 10  9  2  0
 11 12  2  0
 11 10  1  0
 12 13  1  0
 13 14  2  0
 14  9  1  0
  4 15  1  0
  5 16  1  0
  9 17  1  0
 10 18  1  0
 11 19  1  0
 20 21  1  0
 20 22  1  0
 20 23  1  0
  8 20  1  0
M  ISO  6  15  14  16  14  17  14  18  14  19  14  21   8
M  END
>  <DihAtoms>  (1) 
5,7,19,20

>  <DihDeg>  (1) 
-24.508622585513248

$$$$
