
     RDKit          3D

 48 52  0  0  0  0  0  0  0  0999 V2000
   35.8470   28.9186   49.4005 C   0  0  0  0  0  0  0  0  0  0  0  0
   35.8587   30.1069   48.5767 C   0  0  0  0  0  0  0  0  0  0  0  0
   34.7598   30.3389   47.6884 C   0  0  0  0  0  0  0  0  0  0  0  0
   33.7673   29.4270   47.6427 N   0  0  0  0  0  0  0  0  0  0  0  0
   33.8043   28.3138   48.4288 C   0  0  0  0  0  0  0  0  0  0  0  0
   34.8146   28.0634   49.2917 N   0  0  0  0  0  0  0  0  0  0  0  0
   32.7370   27.3501   48.2759 N   0  0  0  0  0  0  0  0  0  0  0  0
   31.3638   27.6454   48.5152 C   0  0  0  0  0  0  0  0  0  0  0  0
   30.6247   26.4415   48.0163 C   0  0  0  0  0  0  0  0  0  0  0  0
   31.6208   25.6209   47.2230 C   0  0  0  0  0  0  0  0  0  0  0  0
   32.9104   25.9483   47.8517 C   0  0  0  0  0  0  0  0  0  0  0  0
   36.8724   31.0816   48.5552 C   0  0  0  0  0  0  0  0  0  0  0  0
   36.8113   31.9641   49.5640 N   0  0  0  0  0  0  0  0  0  0  0  0
   37.6734   33.0081   49.5998 C   0  0  0  0  0  0  0  0  0  0  0  0
   38.6309   33.2373   48.6519 N   0  0  0  0  0  0  0  0  0  0  0  0
   38.6968   32.3635   47.6483 C   0  0  0  0  0  0  0  0  0  0  0  0
   39.6153   32.4804   46.6214 C   0  0  0  0  0  0  0  0  0  0  0  0
   39.6924   31.5774   45.5881 C   0  0  0  0  0  0  0  0  0  0  0  0
   38.8256   30.5238   45.5809 C   0  0  0  0  0  0  0  0  0  0  0  0
   37.8854   30.3806   46.5960 C   0  0  0  0  0  0  0  0  0  0  0  0
   37.8291   31.2943   47.6032 C   0  0  0  0  0  0  0  0  0  0  0  0
   36.6920   28.8069   50.0577 H   0  0  0  0  0  0  0  0  0  0  0  0
   34.7287   31.2062   47.0827 H   0  0  0  0  0  0  0  0  0  0  0  0
   31.2291   27.7943   49.6225 H   0  0  0  0  0  0  0  0  0  0  0  0
   31.0243   28.5340   47.9550 H   0  0  0  0  0  0  0  0  0  0  0  0
   30.3344   25.8041   48.8918 H   0  0  0  0  0  0  0  0  0  0  0  0
   29.7024   26.6693   47.4853 H   0  0  0  0  0  0  0  0  0  0  0  0
   31.3649   24.5508   47.1788 H   0  0  0  0  0  0  0  0  0  0  0  0
   31.6244   26.0969   46.1989 H   0  0  0  0  0  0  0  0  0  0  0  0
   33.8158   25.8282   47.2257 H   0  0  0  0  0  0  0  0  0  0  0  0
   33.0105   25.3346   48.7821 H   0  0  0  0  0  0  0  0  0  0  0  0
   37.6619   33.7463   50.3978 H   0  0  0  0  0  0  0  0  0  0  0  0
   40.2659   33.3635   46.7246 H   0  0  0  0  0  0  0  0  0  0  0  0
   40.4584   31.8309   44.8902 H   0  0  0  0  0  0  0  0  0  0  0  0
   39.0529   29.9322   44.6999 H   0  0  0  0  0  0  0  0  0  0  0  0
   35.7056   28.1717   48.1488 O   0  0  0  0  0  0  0  0  0  0  0  0
   36.9955   28.3586   47.6838 C   0  0  2  0  0  0  0  0  0  0  0  0
   37.1378   29.1466   46.3642 C   0  0  2  0  0  0  0  0  0  0  0  0
   38.0182   28.1754   45.6590 C   0  0  1  0  0  0  0  0  0  0  0  0
   37.4519   27.5422   44.9226 H   0  0  0  0  0  0  0  0  0  0  0  0
   38.6379   27.4077   46.5994 O   0  0  0  0  0  0  0  0  0  0  0  0
   37.5228   27.0009   47.3305 C   0  0  1  0  0  0  0  0  0  0  0  0
   37.6957   26.3412   48.1543 H   0  0  0  0  0  0  0  0  0  0  0  0
   35.2042   27.4377   47.7229 H   0  0  0  0  0  0  0  0  0  0  0  0
   37.5134   28.8530   48.5136 H   0  0  0  0  0  0  0  0  0  0  0  0
   36.1030   29.0843   46.2446 H   0  0  0  0  0  0  0  0  0  0  0  0
   38.8828   28.6713   45.1320 H   0  0  0  0  0  0  0  0  0  0  0  0
   36.8681   26.4821   46.6033 H   0  0  0  0  0  0  0  0  0  0  0  0
  2  1  2  0
  3  2  1  0
  4  3  2  0
  4  5  1  0
  5  6  2  0
  6  1  1  0
  7  5  1  0
  7  8  1  0
  9  8  1  0
 10 11  1  0
 10  9  1  0
 11  7  1  0
 12  2  1  0
 12 13  2  0
 13 14  1  0
 15 14  2  0
 16 15  1  0
 17 16  2  0
 18 17  1  0
 19 18  2  0
 19 20  1  0
 20 21  2  0
 21 16  1  0
 21 12  1  0
  1 22  1  0
  3 23  1  0
  8 24  1  0
  8 25  1  0
  9 26  1  0
  9 27  1  0
 10 28  1  0
 10 29  1  0
 11 30  1  0
 11 31  1  0
 14 32  1  0
 17 33  1  0
 18 34  1  0
 19 35  1  0
 36 37  1  0
 37 38  1  0
 38 39  1  0
 39 40  1  6
 39 41  1  0
 41 42  1  0
 42 43  1  1
 42 37  1  0
 36 44  1  0
 37 45  1  1
 38 46  1  6
 39 47  1  0
 42 48  1  0
 20 38  1  0
M  ISO  8  22  14  23  14  24  13  25  13  26  13  27  13  28  13  29  13
M  ISO  8  30  13  31  13  32  14  33  14  34  14  35  14  40  15  43  16
M  END
>  <DihAtoms>  (1) 
18,19,37,36

>  <DihDeg>  (1) 
45.009974773396124

$$$$
