
     RDKit          3D

 23 24  0  0  0  0  0  0  0  0999 V2000
   37.3039   29.9944   51.1813 C   0  0  0  0  0  0  0  0  0  0  0  0
   37.9494   30.9132   50.3573 C   0  0  0  0  0  0  0  0  0  0  0  0
   37.2718   31.3906   49.2273 C   0  0  0  0  0  0  0  0  0  0  0  0
   36.0177   30.9333   48.9912 N   0  0  0  0  0  0  0  0  0  0  0  0
   35.4040   30.0294   49.8167 C   0  0  0  0  0  0  0  0  0  0  0  0
   36.0598   29.5766   50.8975 N   0  0  0  0  0  0  0  0  0  0  0  0
   38.0873   29.6065   52.2608 O   0  0  0  0  0  0  0  0  0  0  0  0
   38.9355   31.3276   50.4669 H   0  0  0  0  0  0  0  0  0  0  0  0
   37.7192   32.1057   48.5477 H   0  0  0  0  0  0  0  0  0  0  0  0
   38.2049   30.1710   53.0881 H   0  0  0  0  0  0  0  0  0  0  0  0
   34.2885   27.3434   48.5457 O   0  0  0  0  0  0  0  0  0  0  0  0
   34.0019   28.6802   48.3009 C   0  0  2  0  0  0  0  0  0  0  0  0
   34.0319   29.5333   49.5524 C   0  0  2  0  0  0  0  0  0  0  0  0
   33.1162   30.6756   49.0897 C   0  0  2  0  0  0  0  0  0  0  0  0
   33.5948   31.1886   48.2570 H   0  0  0  0  0  0  0  0  0  0  0  0
   32.0443   29.9389   48.6001 O   0  0  0  0  0  0  0  0  0  0  0  0
   32.5638   28.8978   47.8552 C   0  0  2  0  0  0  0  0  0  0  0  0
   32.0308   27.9351   48.1039 H   0  0  0  0  0  0  0  0  0  0  0  0
   34.4660   26.9533   47.6308 H   0  0  0  0  0  0  0  0  0  0  0  0
   34.6976   29.1396   47.5722 H   0  0  0  0  0  0  0  0  0  0  0  0
   33.5994   29.0300   50.4399 H   0  0  0  0  0  0  0  0  0  0  0  0
   32.7852   31.3131   49.9237 H   0  0  0  0  0  0  0  0  0  0  0  0
   32.5062   29.0589   46.7667 H   0  0  0  0  0  0  0  0  0  0  0  0
  1  7  1  0
  2  1  2  0
  3  2  1  0
  4  3  2  0
  4  5  1  0
  5  6  2  0
  6  1  1  0
  2  8  1  0
  3  9  1  0
  7 10  1  0
 11 12  1  0
 12 13  1  0
 13 14  1  0
 14 15  1  6
 14 16  1  0
 16 17  1  0
 17 18  1  6
 17 12  1  0
 11 19  1  0
 12 20  1  6
 13 21  1  1
 14 22  1  0
 17 23  1  0
  5 13  1  0
M  ISO  5   8  14   9  14  10   3  15  15  18  16
M  END
>  <DihAtoms>  (1) 
3,4,12,11

>  <DihDeg>  (1) 
52.4669397848261

$$$$
