
     RDKit          3D

 29 31  0  0  0  0  0  0  0  0999 V2000
   37.0088   31.1585   49.2462 C   0  0  0  0  0  0  0  0  0  0  0  0
   37.3185   32.4448   49.7181 C   0  0  0  0  0  0  0  0  0  0  0  0
   38.3074   33.1238   49.0146 C   0  0  0  0  0  0  0  0  0  0  0  0
   38.9065   32.5367   47.9440 N   0  0  0  0  0  0  0  0  0  0  0  0
   38.5738   31.2789   47.5164 C   0  0  0  0  0  0  0  0  0  0  0  0
   37.6204   30.6118   48.1870 N   0  0  0  0  0  0  0  0  0  0  0  0
   35.9355   30.3899   49.9646 C   0  0  1  0  0  0  0  0  0  0  0  0
   35.8069   28.9429   49.8530 C   0  0  2  0  0  0  0  0  0  0  0  0
   36.4570   29.5016   51.0760 C   0  0  0  0  0  0  0  0  0  0  0  0
   36.8410   32.8900   50.5562 H   0  0  0  0  0  0  0  0  0  0  0  0
   38.6186   34.1184   49.2972 H   0  0  0  0  0  0  0  0  0  0  0  0
   39.1097   30.9092   46.6587 H   0  0  0  0  0  0  0  0  0  0  0  0
   35.0808   31.0712   50.2426 H   0  0  0  0  0  0  0  0  0  0  0  0
   34.7483   28.5807   50.0442 H   0  0  0  0  0  0  0  0  0  0  0  0
   35.8691   29.5768   52.0147 H   0  0  0  0  0  0  0  0  0  0  0  0
   37.5290   29.4996   51.2627 H   0  0  0  0  0  0  0  0  0  0  0  0
   35.6612   28.5962   46.7169 O   0  0  0  0  0  0  0  0  0  0  0  0
   35.5738   27.6836   47.7646 C   0  0  2  0  0  0  0  0  0  0  0  0
   36.5307   28.0562   48.9144 C   0  0  2  0  0  0  0  0  0  0  0  0
   36.9713   26.7341   49.3772 C   0  0  2  0  0  0  0  0  0  0  0  0
   36.8886   26.4983   50.4472 H   0  0  0  0  0  0  0  0  0  0  0  0
   36.2375   25.7582   48.6687 O   0  0  0  0  0  0  0  0  0  0  0  0
   36.1358   26.3251   47.3993 C   0  0  2  0  0  0  0  0  0  0  0  0
   37.0850   26.4310   46.8736 H   0  0  0  0  0  0  0  0  0  0  0  0
   35.6287   29.5041   47.1299 H   0  0  0  0  0  0  0  0  0  0  0  0
   34.5596   27.6024   48.1759 H   0  0  0  0  0  0  0  0  0  0  0  0
   37.3293   28.6632   48.4128 H   0  0  0  0  0  0  0  0  0  0  0  0
   38.0451   26.5221   49.0948 H   0  0  0  0  0  0  0  0  0  0  0  0
   35.4185   25.7032   46.8383 H   0  0  0  0  0  0  0  0  0  0  0  0
  1  2  2  0
  1  7  1  0
  3  2  1  0
  4  3  2  0
  5  4  1  0
  5  6  2  0
  6  1  1  0
  7  9  1  0
  8  7  1  0
  8  9  1  0
  2 10  1  0
  3 11  1  0
  5 12  1  0
  7 13  1  1
  8 14  1  1
  9 15  1  0
  9 16  1  0
 17 18  1  0
 18 19  1  0
 19 20  1  0
 20 21  1  1
 20 22  1  0
 22 23  1  0
 23 24  1  6
 23 18  1  0
 17 25  1  0
 18 26  1  1
 19 27  1  6
 20 28  1  0
 23 29  1  0
  8 19  1  0
M  ISO  8  10  14  11  14  12  14  13  13  14  13  15  13  16  13  21  15
M  ISO  1  24  16
M  END
>  <DihAtoms>  (1) 
6,7,18,17

>  <DihDeg>  (1) 
-177.42203343012497

$$$$
