
     RDKit          3D

 51 54  0  0  1  0  0  0  0  0999 V2000
   38.6430   27.4010   52.7040 S   0  0  0  0  0  0  0  0  0  0  0  0
   40.3220   25.2140   53.3900 C   0  0  0  0  0  0  0  0  0  0  0  0
   39.7550   26.0700   52.4300 C   0  0  0  0  0  0  0  0  0  0  0  0
   40.1310   25.8180   51.1170 C   0  0  0  0  0  0  0  0  0  0  0  0
   40.9830   24.8240   50.7460 C   0  0  0  0  0  0  0  0  0  0  0  0
   41.4960   24.3700   49.6180 N   0  0  0  0  0  0  0  0  0  0  0  0
   42.3270   23.3120   49.8080 C   0  0  0  0  0  0  0  0  0  0  0  0
   42.3390   23.0780   51.1650 C   0  0  0  0  0  0  0  0  0  0  0  0
   41.5030   24.0190   51.7450 C   0  0  0  0  0  0  0  0  0  0  0  0
   41.1820   24.2010   53.0700 C   0  0  0  0  0  0  0  0  0  0  0  0
   42.9940   24.0440   54.6360 C   0  0  1  0  0  0  0  0  0  0  0  0
   41.7820   23.3050   54.0850 C   0  0  1  0  0  0  0  0  0  0  0  0
   40.9390   23.0520   55.2840 C   0  0  0  0  0  0  0  0  0  0  0  0
   41.6780   23.4470   56.3920 O   0  0  0  0  0  0  0  0  0  0  0  0
   42.4960   24.4790   56.0010 C   0  0  0  0  0  0  0  0  0  0  0  0
   44.0570   23.1720   54.7010 O   0  0  0  0  0  0  0  0  0  0  0  0
   38.1330   28.2420   51.2140 C   0  0  0  0  0  0  0  0  0  0  0  0
   37.1110   29.3370   51.4360 C   0  0  0  0  0  0  0  0  0  0  0  0
   37.4680   30.5380   50.9120 C   0  0  0  0  0  0  0  0  0  0  0  0
   37.4750   30.1860   49.5910 O   0  0  0  0  0  0  0  0  0  0  0  0
   38.0890   31.0210   48.6930 C   0  0  0  0  0  0  0  0  0  0  0  0
   38.3780   32.2560   49.2230 C   0  0  0  0  0  0  0  0  0  0  0  0
   39.0110   33.2130   48.4120 C   0  0  0  0  0  0  0  0  0  0  0  0
   39.3000   32.8420   47.1220 N   0  0  0  0  0  0  0  0  0  0  0  0
   39.0000   31.6110   46.6320 C   0  0  0  0  0  0  0  0  0  0  0  0
   38.3970   30.7240   47.4350 N   0  0  0  0  0  0  0  0  0  0  0  0
   39.9400   32.4220   44.5870 C   0  0  0  0  0  0  0  0  0  0  0  0
   40.1760   33.5670   45.0600 O   0  0  0  0  0  0  0  0  0  0  0  0
   39.3500   31.3460   45.2780 N   0  0  0  0  0  0  0  0  0  0  0  0
   40.0615   25.3664   54.4478 H   0  0  0  0  0  0  0  0  0  0  0  0
   39.7143   26.4617   50.3283 H   0  0  0  0  0  0  0  0  0  0  0  0
   41.2888   24.7741   48.6935 H   0  0  0  0  0  0  0  0  0  0  0  0
   42.8779   22.7557   49.0353 H   0  0  0  0  0  0  0  0  0  0  0  0
   42.9046   22.2934   51.6890 H   0  0  0  0  0  0  0  0  0  0  0  0
   43.3537   24.8942   54.0379 H   0  0  0  0  0  0  0  0  0  0  0  0
   41.9657   22.3445   53.5813 H   0  0  0  0  0  0  0  0  0  0  0  0
   40.0094   23.6368   55.2222 H   0  0  0  0  0  0  0  0  0  0  0  0
   40.6655   21.9888   55.3538 H   0  0  0  0  0  0  0  0  0  0  0  0
   43.3336   24.6034   56.7030 H   0  0  0  0  0  0  0  0  0  0  0  0
   41.9776   25.4489   55.9770 H   0  0  0  0  0  0  0  0  0  0  0  0
   44.2778   22.9909   55.6489 H   0  0  0  0  0  0  0  0  0  0  0  0
   37.6981   27.4982   50.5301 H   0  0  0  0  0  0  0  0  0  0  0  0
   39.0306   28.7271   50.8028 H   0  0  0  0  0  0  0  0  0  0  0  0
   36.1632   29.0251   50.9729 H   0  0  0  0  0  0  0  0  0  0  0  0
   37.0241   29.4766   52.5236 H   0  0  0  0  0  0  0  0  0  0  0  0
   36.7273   31.3218   51.1286 H   0  0  0  0  0  0  0  0  0  0  0  0
   38.4037   30.9693   51.2974 H   0  0  0  0  0  0  0  0  0  0  0  0
   38.1178   32.4913   50.2656 H   0  0  0  0  0  0  0  0  0  0  0  0
   39.2634   34.2135   48.7931 H   0  0  0  0  0  0  0  0  0  0  0  0
   40.2209   32.2476   43.5379 H   0  0  0  0  0  0  0  0  0  0  0  0
   39.1834   30.4313   44.8346 H   0  0  0  0  0  0  0  0  0  0  0  0
  3  1  1  0
  3  2  2  0
  4  3  1  0
  5  4  2  0
  5  9  1  0
  6  7  1  0
  6  5  1  0
  7  8  2  0
  8  9  1  0
  9 10  2  0
 10  2  1  0
 11 16  1  0
 11 15  1  0
 12 10  1  0
 12 11  1  0
 12 13  1  0
 13 14  1  0
 15 14  1  0
 17 18  1  0
 17  1  1  0
 19 18  1  0
 20 19  1  0
 21 22  2  0
 21 20  1  0
 23 22  1  0
 24 23  2  0
 25 24  1  0
 25 26  2  0
 26 21  1  0
 27 28  2  0
 27 29  1  0
 29 25  1  0
  2 30  1  0
  4 31  1  0
  6 32  1  0
  7 33  1  0
  8 34  1  0
 11 35  1  6
 12 36  1  6
 13 37  1  0
 13 38  1  0
 15 39  1  0
 15 40  1  0
 16 41  1  0
 17 42  1  0
 17 43  1  0
 18 44  1  0
 18 45  1  0
 19 46  1  0
 19 47  1  0
 22 48  1  0
 23 49  1  0
 27 50  1  0
 29 51  1  0
M  ISO  8  30  14  31  14  32   9  33  14  34  14  35  13  36  13  37  13
M  ISO  8  38  13  39  13  40  13  41   3  42   8  43   8  44   8  45   8
M  ISO  5  46   8  47   8  48  14  49  14  50   6
M  END
>  <minimizedAffinity>  (1) 
-4.61791897

>  <minimizedRMSD>  (1) 
0.616827071

$$$$
