
     RDKit          3D

 33 34  0  0  0  0  0  0  0  0999 V2000
   38.1974   31.6003   47.7761 C   0  0  0  0  0  0  0  0  0  0  0  0
   38.2262   32.5743   48.6311 C   0  0  0  0  0  0  0  0  0  0  0  0
   40.6007   32.7282   45.1511 C   0  0  0  0  0  0  0  0  0  0  0  0
   39.8076   32.6627   46.2925 C   0  0  0  0  0  0  0  0  0  0  0  0
   39.0009   31.5836   46.5768 C   0  0  0  0  0  0  0  0  0  0  0  0
   39.0050   30.5713   45.6981 N   0  0  0  0  0  0  0  0  0  0  0  0
   39.7786   30.6462   44.5945 C   0  0  0  0  0  0  0  0  0  0  0  0
   40.5581   31.6825   44.3085 N   0  0  0  0  0  0  0  0  0  0  0  0
   37.3478   32.4742   49.8314 C   0  0  2  0  0  0  0  0  0  0  0  0
   36.3620   30.9470   49.6781 S   0  0  0  0  0  0  0  0  0  0  0  0
   36.7414   29.8101   51.0191 C   0  0  0  0  0  0  0  0  0  0  0  0
   37.5312   30.3907   52.0048 F   0  0  0  0  0  0  0  0  0  0  0  0
   35.6001   29.2391   51.5438 F   0  0  0  0  0  0  0  0  0  0  0  0
   37.4769   28.7421   50.4572 F   0  0  0  0  0  0  0  0  0  0  0  0
   37.5579   30.7386   47.9175 H   0  0  0  0  0  0  0  0  0  0  0  0
   38.8103   33.4487   48.5802 H   0  0  0  0  0  0  0  0  0  0  0  0
   41.2422   33.5770   44.9145 H   0  0  0  0  0  0  0  0  0  0  0  0
   39.9183   33.5708   46.9098 H   0  0  0  0  0  0  0  0  0  0  0  0
   39.8035   29.8430   43.8656 H   0  0  0  0  0  0  0  0  0  0  0  0
   37.9482   32.4563   50.7695 H   0  0  0  0  0  0  0  0  0  0  0  0
   34.1263   35.1208   51.8342 O   0  0  0  0  0  0  0  0  0  0  0  0
   34.5691   34.8936   50.5227 C   0  0  2  0  0  0  0  0  0  0  0  0
   35.0637   33.4358   50.4025 C   0  0  1  0  0  0  0  0  0  0  0  0
   35.1540   32.9760   51.3913 H   0  0  0  0  0  0  0  0  0  0  0  0
   36.3980   33.6273   49.7851 C   0  0  1  0  0  0  0  0  0  0  0  0
   36.8850   34.7524   50.4971 O   0  0  0  0  0  0  0  0  0  0  0  0
   35.8554   35.6819   50.2753 C   0  0  1  0  0  0  0  0  0  0  0  0
   35.9467   36.0080   49.1993 H   0  0  0  0  0  0  0  0  0  0  0  0
   34.6471   35.9027   52.2244 H   0  0  0  0  0  0  0  0  0  0  0  0
   33.8302   35.1244   49.7437 H   0  0  0  0  0  0  0  0  0  0  0  0
   34.4140   32.8779   49.7000 H   0  0  0  0  0  0  0  0  0  0  0  0
   36.2494   33.9783   48.7218 H   0  0  0  0  0  0  0  0  0  0  0  0
   35.8580   36.5289   50.9692 H   0  0  0  0  0  0  0  0  0  0  0  0
  1  2  2  0
  2  9  1  0
  3  4  2  0
  4  5  1  0
  5  1  1  0
  6  5  2  0
  7  6  1  0
  8  7  2  0
  8  3  1  0
 10  9  1  0
 10 11  1  0
 11 13  1  0
 11 12  1  0
 14 11  1  0
  1 15  1  0
  2 16  1  0
  3 17  1  0
  4 18  1  0
  7 19  1  0
  9 20  1  1
 21 22  1  0
 22 23  1  0
 23 24  1  1
 23 25  1  0
 25 26  1  0
 26 27  1  0
 27 28  1  6
 27 22  1  0
 21 29  1  0
 22 30  1  6
 23 31  1  0
 25 32  1  6
 27 33  1  0
  9 25  1  0
M  ISO  6  17  14  18  14  19  14  20   8  24   8  28  16
M  END
>  <DihAtoms>  (1) 
1,8,24,22

>  <DihDeg>  (1) 
-179.57552371591854

$$$$
