
     RDKit          3D

 29 31  0  0  0  0  0  0  0  0999 V2000
   37.0088   31.1585   49.2462 C   0  0  0  0  0  0  0  0  0  0  0  0
   37.3185   32.4448   49.7181 C   0  0  0  0  0  0  0  0  0  0  0  0
   38.3074   33.1238   49.0146 C   0  0  0  0  0  0  0  0  0  0  0  0
   38.9065   32.5367   47.9440 N   0  0  0  0  0  0  0  0  0  0  0  0
   38.5738   31.2789   47.5164 C   0  0  0  0  0  0  0  0  0  0  0  0
   37.6204   30.6118   48.1870 N   0  0  0  0  0  0  0  0  0  0  0  0
   35.9355   30.3899   49.9646 C   0  0  1  0  0  0  0  0  0  0  0  0
   35.8069   28.9429   49.8530 C   0  0  2  0  0  0  0  0  0  0  0  0
   36.4570   29.5016   51.0760 C   0  0  0  0  0  0  0  0  0  0  0  0
   36.8410   32.8900   50.5562 H   0  0  0  0  0  0  0  0  0  0  0  0
   38.6186   34.1184   49.2972 H   0  0  0  0  0  0  0  0  0  0  0  0
   39.1097   30.9092   46.6587 H   0  0  0  0  0  0  0  0  0  0  0  0
   35.0808   31.0712   50.2426 H   0  0  0  0  0  0  0  0  0  0  0  0
   34.7483   28.5807   50.0442 H   0  0  0  0  0  0  0  0  0  0  0  0
   35.8691   29.5768   52.0147 H   0  0  0  0  0  0  0  0  0  0  0  0
   37.5290   29.4996   51.2627 H   0  0  0  0  0  0  0  0  0  0  0  0
   38.1416   29.4802   47.7946 O   0  0  0  0  0  0  0  0  0  0  0  0
   36.8957   28.8738   47.6595 C   0  0  2  0  0  0  0  0  0  0  0  0
   36.5307   28.0562   48.9144 C   0  0  2  0  0  0  0  0  0  0  0  0
   35.8260   26.9086   48.3292 C   0  0  2  0  0  0  0  0  0  0  0  0
   34.8317   26.6493   48.7184 H   0  0  0  0  0  0  0  0  0  0  0  0
   35.6929   27.1404   46.9430 O   0  0  0  0  0  0  0  0  0  0  0  0
   36.8989   27.7644   46.6280 C   0  0  2  0  0  0  0  0  0  0  0  0
   37.7797   27.1328   46.7463 H   0  0  0  0  0  0  0  0  0  0  0  0
   38.1525   29.9047   48.6976 H   0  0  0  0  0  0  0  0  0  0  0  0
   36.0889   29.5942   47.4736 H   0  0  0  0  0  0  0  0  0  0  0  0
   37.5244   27.8079   49.3712 H   0  0  0  0  0  0  0  0  0  0  0  0
   36.4386   25.9605   48.3866 H   0  0  0  0  0  0  0  0  0  0  0  0
   36.7938   28.1401   45.5967 H   0  0  0  0  0  0  0  0  0  0  0  0
  1  2  2  0
  1  7  1  0
  3  2  1  0
  4  3  2  0
  5  4  1  0
  5  6  2  0
  6  1  1  0
  7  9  1  0
  8  7  1  0
  8  9  1  0
  2 10  1  0
  3 11  1  0
  5 12  1  0
  7 13  1  1
  8 14  1  1
  9 15  1  0
  9 16  1  0
 17 18  1  0
 18 19  1  0
 19 20  1  0
 20 21  1  1
 20 22  1  0
 22 23  1  0
 23 24  1  6
 23 18  1  0
 17 25  1  0
 18 26  1  6
 19 27  1  1
 20 28  1  0
 23 29  1  0
  8 19  1  0
M  ISO  8  10  14  11  14  12  14  13  13  14  13  15  13  16  13  21  15
M  ISO  1  24  16
M  END
>  <DihAtoms>  (1) 
6,7,18,17

>  <DihDeg>  (1) 
-177.42203343012497

$$$$
