
     RDKit          3D

 23 24  0  0  0  0  0  0  0  0999 V2000
   37.3039   29.9944   51.1813 C   0  0  0  0  0  0  0  0  0  0  0  0
   37.9494   30.9132   50.3573 C   0  0  0  0  0  0  0  0  0  0  0  0
   37.2718   31.3906   49.2273 C   0  0  0  0  0  0  0  0  0  0  0  0
   36.0177   30.9333   48.9912 N   0  0  0  0  0  0  0  0  0  0  0  0
   35.4040   30.0294   49.8167 C   0  0  0  0  0  0  0  0  0  0  0  0
   36.0598   29.5766   50.8975 N   0  0  0  0  0  0  0  0  0  0  0  0
   38.0873   29.6065   52.2608 O   0  0  0  0  0  0  0  0  0  0  0  0
   38.9355   31.3276   50.4669 H   0  0  0  0  0  0  0  0  0  0  0  0
   37.7192   32.1057   48.5477 H   0  0  0  0  0  0  0  0  0  0  0  0
   38.2049   30.1710   53.0881 H   0  0  0  0  0  0  0  0  0  0  0  0
   33.4611   30.2848   47.3199 O   0  0  0  0  0  0  0  0  0  0  0  0
   33.2690   30.5066   48.6774 C   0  0  2  0  0  0  0  0  0  0  0  0
   34.0319   29.5333   49.5524 C   0  0  2  0  0  0  0  0  0  0  0  0
   33.1667   29.6151   50.8182 C   0  0  2  0  0  0  0  0  0  0  0  0
   33.2279   30.6268   51.2158 H   0  0  0  0  0  0  0  0  0  0  0  0
   31.9075   29.4335   50.2588 O   0  0  0  0  0  0  0  0  0  0  0  0
   31.8435   30.2152   49.1216 C   0  0  2  0  0  0  0  0  0  0  0  0
   31.3849   29.6322   48.2716 H   0  0  0  0  0  0  0  0  0  0  0  0
   33.1049   31.1198   46.8764 H   0  0  0  0  0  0  0  0  0  0  0  0
   33.5611   31.5283   48.9888 H   0  0  0  0  0  0  0  0  0  0  0  0
   34.0388   28.4977   49.1582 H   0  0  0  0  0  0  0  0  0  0  0  0
   33.3836   28.8029   51.5287 H   0  0  0  0  0  0  0  0  0  0  0  0
   31.2716   31.1476   49.2554 H   0  0  0  0  0  0  0  0  0  0  0  0
  1  7  1  0
  2  1  2  0
  3  2  1  0
  4  3  2  0
  4  5  1  0
  5  6  2  0
  6  1  1  0
  2  8  1  0
  3  9  1  0
  7 10  1  0
 11 12  1  0
 12 13  1  0
 13 14  1  0
 14 15  1  1
 14 16  1  0
 16 17  1  0
 17 18  1  6
 17 12  1  0
 11 19  1  0
 12 20  1  1
 13 21  1  6
 14 22  1  0
 17 23  1  0
  5 13  1  0
M  ISO  5   8  14   9  14  10   3  15  15  18  16
M  END
>  <DihAtoms>  (1) 
3,4,12,11

>  <DihDeg>  (1) 
52.4669397848261

$$$$
