
     RDKit          3D

 28 29  0  0  1  0  0  0  0  0999 V2000
   37.9450   31.6640   48.7000 C   0  0  0  0  0  0  0  0  0  0  0  0
   36.6850   31.1890   48.3360 C   0  0  0  0  0  0  0  0  0  0  0  0
   35.9730   30.3910   49.2210 C   0  0  0  0  0  0  0  0  0  0  0  0
   36.5340   30.1010   50.4150 N   0  0  0  0  0  0  0  0  0  0  0  0
   37.7680   30.5730   50.7580 C   0  0  0  0  0  0  0  0  0  0  0  0
   38.4710   31.3580   49.8910 N   0  0  0  0  0  0  0  0  0  0  0  0
   34.6300   29.0230   47.6050 C   0  0  1  0  0  0  0  0  0  0  0  0
   34.6610   29.8920   48.8480 C   0  0  1  0  0  0  0  0  0  0  0  0
   34.0780   28.9040   49.8360 C   0  0  0  0  0  0  0  0  0  0  0  0
   33.0820   28.2300   49.1550 O   0  0  0  0  0  0  0  0  0  0  0  0
   33.2330   28.4310   47.8040 C   0  0  0  0  0  0  0  0  0  0  0  0
   34.7460   29.7450   46.4350 O   0  0  0  0  0  0  0  0  0  0  0  0
   38.7770   32.4640   47.9410 O   0  0  0  0  0  0  0  0  0  0  0  0
   39.3240   30.6690   46.0290 O   0  0  0  0  0  0  0  0  0  0  0  0
   39.1050   32.1420   46.2800 P   0  0  0  0  0  0  0  0  0  0  0  0
   37.7870   32.7520   45.4180 O   0  0  0  0  0  0  0  0  0  0  0  0
   40.5320   32.9440   45.8350 O   0  0  0  0  0  0  0  0  0  0  0  0
   36.2587   31.4449   47.3548 H   0  0  0  0  0  0  0  0  0  0  0  0
   38.1979   30.3193   51.7382 H   0  0  0  0  0  0  0  0  0  0  0  0
   35.4532   28.3007   47.5017 H   0  0  0  0  0  0  0  0  0  0  0  0
   34.1224   30.8461   48.7506 H   0  0  0  0  0  0  0  0  0  0  0  0
   34.8524   28.2006   50.1759 H   0  0  0  0  0  0  0  0  0  0  0  0
   33.6844   29.4109   50.7294 H   0  0  0  0  0  0  0  0  0  0  0  0
   32.4681   29.1308   47.4363 H   0  0  0  0  0  0  0  0  0  0  0  0
   33.1174   27.4896   47.2469 H   0  0  0  0  0  0  0  0  0  0  0  0
   34.8993   30.6992   46.6499 H   0  0  0  0  0  0  0  0  0  0  0  0
   37.0971   33.0713   46.0522 H   0  0  0  0  0  0  0  0  0  0  0  0
   41.0231   33.2200   46.6491 H   0  0  0  0  0  0  0  0  0  0  0  0
  1  6  2  0
  2  1  1  0
  2  3  2  0
  3  4  1  0
  4  5  2  0
  6  5  1  0
  7 12  1  0
  7 11  1  0
  7  8  1  0
  8  3  1  0
  8  9  1  0
 10  9  1  0
 11 10  1  0
 13  1  1  0
 14 15  2  0
 15 13  1  0
 16 15  1  0
 17 15  1  0
  2 18  1  0
  5 19  1  0
  7 20  1  1
  8 21  1  6
  9 22  1  0
  9 23  1  0
 11 24  1  0
 11 25  1  0
 12 26  1  0
 16 27  1  0
 17 28  1  0
M  ISO  8  18  14  19  14  20  13  21  13  22  13  23  13  24  13  25  13
M  ISO  3  26   3  27   3  28   3
M  END
>  <minimizedAffinity>  (1) 
-5.19306707

>  <minimizedRMSD>  (1) 
5.01097679

$$$$
