
     RDKit          3D

 39 41  0  0  0  0  0  0  0  0999 V2000
   39.4850   31.7874   46.5216 C   0  0  0  0  0  0  0  0  0  0  0  0
   39.7878   30.6769   45.7776 C   0  0  0  0  0  0  0  0  0  0  0  0
   40.2159   30.8218   44.5120 C   0  0  0  0  0  0  0  0  0  0  0  0
   40.3370   32.0885   44.0017 C   0  0  0  0  0  0  0  0  0  0  0  0
   40.0309   33.2025   44.7549 C   0  0  0  0  0  0  0  0  0  0  0  0
   39.6027   33.0142   46.0260 N   0  0  0  0  0  0  0  0  0  0  0  0
   40.1790   34.5828   44.1521 C   0  0  0  0  0  0  0  0  0  0  0  0
   39.0253   31.8358   47.8543 O   0  0  0  0  0  0  0  0  0  0  0  0
   38.0983   30.3668   49.4169 C   0  0  0  0  0  0  0  0  0  0  0  0
   37.9756   31.0564   48.1969 C   0  0  0  0  0  0  0  0  0  0  0  0
   36.8004   30.8782   47.4594 C   0  0  0  0  0  0  0  0  0  0  0  0
   35.8630   30.0500   47.9785 N   0  0  0  0  0  0  0  0  0  0  0  0
   36.0324   29.4225   49.1388 C   0  0  0  0  0  0  0  0  0  0  0  0
   37.1605   29.5552   49.9087 N   0  0  0  0  0  0  0  0  0  0  0  0
   34.5459   28.4129   49.4726 S   0  0  0  0  0  0  0  0  0  0  0  0
   33.5512   29.4481   50.5971 C   0  0  0  0  0  0  0  0  0  0  0  0
   39.6317   29.7475   46.3486 H   0  0  0  0  0  0  0  0  0  0  0  0
   40.4419   29.9158   43.9668 H   0  0  0  0  0  0  0  0  0  0  0  0
   40.6867   32.1752   42.9709 H   0  0  0  0  0  0  0  0  0  0  0  0
   39.6631   35.3134   44.7858 H   0  0  0  0  0  0  0  0  0  0  0  0
   41.2609   34.8235   44.2393 H   0  0  0  0  0  0  0  0  0  0  0  0
   39.8551   34.6016   43.0903 H   0  0  0  0  0  0  0  0  0  0  0  0
   38.9762   30.4347   50.0741 H   0  0  0  0  0  0  0  0  0  0  0  0
   36.7620   31.4213   46.5479 H   0  0  0  0  0  0  0  0  0  0  0  0
   33.3553   30.4519   50.1788 H   0  0  0  0  0  0  0  0  0  0  0  0
   32.6079   28.9036   50.8593 H   0  0  0  0  0  0  0  0  0  0  0  0
   33.0325   29.6860   55.1379 O   0  0  0  0  0  0  0  0  0  0  0  0
   34.0781   29.8655   54.2234 C   0  0  0  0  0  0  0  0  0  0  0  0
   33.5712   30.4114   52.9075 C   0  0  0  0  0  0  0  0  0  0  0  0
   32.4857   30.1839   52.8398 H   0  0  0  0  0  0  0  0  0  0  0  0
   34.3148   29.5671   51.9004 C   0  0  0  0  0  0  0  0  0  0  0  0
   34.3262   28.3153   52.5138 O   0  0  0  0  0  0  0  0  0  0  0  0
   34.6180   28.5012   53.8529 C   0  0  0  0  0  0  0  0  0  0  0  0
   35.7088   28.4387   53.9834 H   0  0  0  0  0  0  0  0  0  0  0  0
   32.2879   30.2722   54.8437 H   0  0  0  0  0  0  0  0  0  0  0  0
   34.8901   30.4945   54.6725 H   0  0  0  0  0  0  0  0  0  0  0  0
   33.8139   31.4898   52.8106 H   0  0  0  0  0  0  0  0  0  0  0  0
   35.3371   29.9468   51.7572 H   0  0  0  0  0  0  0  0  0  0  0  0
   34.1339   27.6947   54.4494 H   0  0  0  0  0  0  0  0  0  0  0  0
  1  8  1  0
  2  1  2  0
  3  2  1  0
  4  3  2  0
  4  5  1  0
  5  6  2  0
  6  1  1  0
  7  5  1  0
  8 10  1  0
  9 14  2  0
 10  9  1  0
 11 12  1  0
 11 10  2  0
 12 13  2  0
 13 15  1  0
 13 14  1  0
 15 16  1  0
  2 17  1  0
  3 18  1  0
  4 19  1  0
  7 20  1  0
  7 21  1  0
  7 22  1  0
  9 23  1  0
 11 24  1  0
 16 25  1  0
 16 26  1  0
 27 28  1  0
 28 29  1  0
 29 30  1  0
 29 31  1  0
 31 32  1  0
 32 33  1  0
 33 34  1  0
 33 28  1  0
 27 35  1  0
 28 36  1  0
 29 37  1  0
 31 38  1  0
 33 39  1  0
 16 31  1  0
M  ISO  8  17  14  18  14  19  14  20   8  21   8  22   8  23  14  24  14
M  ISO  4  25   8  26   8  30   8  34  16
M  END
>  <DihAtoms>  (1) 
14,15,30,28

>  <DihDeg>  (1) 
179.99097424836202

$$$$
