
     RDKit          3D

 23 24  0  0  0  0  0  0  0  0999 V2000
   37.3039   29.9944   51.1813 C   0  0  0  0  0  0  0  0  0  0  0  0
   37.9494   30.9132   50.3573 C   0  0  0  0  0  0  0  0  0  0  0  0
   37.2718   31.3906   49.2273 C   0  0  0  0  0  0  0  0  0  0  0  0
   36.0177   30.9333   48.9912 N   0  0  0  0  0  0  0  0  0  0  0  0
   35.4040   30.0294   49.8167 C   0  0  0  0  0  0  0  0  0  0  0  0
   36.0598   29.5766   50.8975 N   0  0  0  0  0  0  0  0  0  0  0  0
   38.0873   29.6065   52.2608 O   0  0  0  0  0  0  0  0  0  0  0  0
   38.9355   31.3276   50.4669 H   0  0  0  0  0  0  0  0  0  0  0  0
   37.7192   32.1057   48.5477 H   0  0  0  0  0  0  0  0  0  0  0  0
   38.2049   30.1710   53.0881 H   0  0  0  0  0  0  0  0  0  0  0  0
   32.6714   31.4972   49.1437 O   0  0  0  0  0  0  0  0  0  0  0  0
   32.9985   30.5137   50.0681 C   0  0  2  0  0  0  0  0  0  0  0  0
   34.0319   29.5333   49.5524 C   0  0  2  0  0  0  0  0  0  0  0  0
   33.7001   28.3347   50.4527 C   0  0  2  0  0  0  0  0  0  0  0  0
   33.9053   28.6093   51.4861 H   0  0  0  0  0  0  0  0  0  0  0  0
   32.3231   28.2760   50.2742 O   0  0  0  0  0  0  0  0  0  0  0  0
   31.8407   29.5683   50.3506 C   0  0  2  0  0  0  0  0  0  0  0  0
   31.0984   29.7581   49.5226 H   0  0  0  0  0  0  0  0  0  0  0  0
   32.1761   32.1934   49.6828 H   0  0  0  0  0  0  0  0  0  0  0  0
   33.3860   30.9318   51.0175 H   0  0  0  0  0  0  0  0  0  0  0  0
   33.8911   29.2638   48.4868 H   0  0  0  0  0  0  0  0  0  0  0  0
   34.1655   27.4019   50.0992 H   0  0  0  0  0  0  0  0  0  0  0  0
   31.3601   29.8065   51.3131 H   0  0  0  0  0  0  0  0  0  0  0  0
  1  7  1  0
  2  1  2  0
  3  2  1  0
  4  3  2  0
  4  5  1  0
  5  6  2  0
  6  1  1  0
  2  8  1  0
  3  9  1  0
  7 10  1  0
 11 12  1  0
 12 13  1  0
 13 14  1  0
 14 15  1  1
 14 16  1  0
 16 17  1  0
 17 18  1  6
 17 12  1  0
 11 19  1  0
 12 20  1  1
 13 21  1  6
 14 22  1  0
 17 23  1  0
  5 13  1  0
M  ISO  5   8  14   9  14  10   3  15  15  18  16
M  END
>  <DihAtoms>  (1) 
3,4,12,11

>  <DihDeg>  (1) 
52.4669397848261

$$$$
