
     RDKit          3D

 23 24  0  0  0  0  0  0  0  0999 V2000
   37.3039   29.9944   51.1813 C   0  0  0  0  0  0  0  0  0  0  0  0
   37.9494   30.9132   50.3573 C   0  0  0  0  0  0  0  0  0  0  0  0
   37.2718   31.3906   49.2273 C   0  0  0  0  0  0  0  0  0  0  0  0
   36.0177   30.9333   48.9912 N   0  0  0  0  0  0  0  0  0  0  0  0
   35.4040   30.0294   49.8167 C   0  0  0  0  0  0  0  0  0  0  0  0
   36.0598   29.5766   50.8975 N   0  0  0  0  0  0  0  0  0  0  0  0
   38.0873   29.6065   52.2608 O   0  0  0  0  0  0  0  0  0  0  0  0
   38.9355   31.3276   50.4669 H   0  0  0  0  0  0  0  0  0  0  0  0
   37.7192   32.1057   48.5477 H   0  0  0  0  0  0  0  0  0  0  0  0
   38.2049   30.1710   53.0881 H   0  0  0  0  0  0  0  0  0  0  0  0
   32.5428   30.9518   50.8350 O   0  0  0  0  0  0  0  0  0  0  0  0
   33.1543   29.7063   50.7750 C   0  0  2  0  0  0  0  0  0  0  0  0
   34.0319   29.5333   49.5524 C   0  0  2  0  0  0  0  0  0  0  0  0
   34.0129   28.0012   49.4546 C   0  0  2  0  0  0  0  0  0  0  0  0
   34.4942   27.5907   50.3408 H   0  0  0  0  0  0  0  0  0  0  0  0
   32.6451   27.7730   49.5465 O   0  0  0  0  0  0  0  0  0  0  0  0
   32.1591   28.5760   50.5602 C   0  0  2  0  0  0  0  0  0  0  0  0
   31.2054   29.0829   50.2343 H   0  0  0  0  0  0  0  0  0  0  0  0
   32.1973   31.0163   51.7823 H   0  0  0  0  0  0  0  0  0  0  0  0
   33.7811   29.4950   51.6631 H   0  0  0  0  0  0  0  0  0  0  0  0
   33.6030   29.9820   48.6344 H   0  0  0  0  0  0  0  0  0  0  0  0
   34.3910   27.6370   48.4871 H   0  0  0  0  0  0  0  0  0  0  0  0
   31.9645   28.0351   51.5004 H   0  0  0  0  0  0  0  0  0  0  0  0
  1  7  1  0
  2  1  2  0
  3  2  1  0
  4  3  2  0
  4  5  1  0
  5  6  2  0
  6  1  1  0
  2  8  1  0
  3  9  1  0
  7 10  1  0
 11 12  1  0
 12 13  1  0
 13 14  1  0
 14 15  1  1
 14 16  1  0
 16 17  1  0
 17 18  1  6
 17 12  1  0
 11 19  1  0
 12 20  1  1
 13 21  1  6
 14 22  1  0
 17 23  1  0
  5 13  1  0
M  ISO  5   8  14   9  14  10   3  15  15  18  16
M  END
>  <DihAtoms>  (1) 
3,4,12,11

>  <DihDeg>  (1) 
52.4669397848261

$$$$
