
     RDKit          3D

 23 24  0  0  0  0  0  0  0  0999 V2000
   37.3039   29.9944   51.1813 C   0  0  0  0  0  0  0  0  0  0  0  0
   37.9494   30.9132   50.3573 C   0  0  0  0  0  0  0  0  0  0  0  0
   37.2718   31.3906   49.2273 C   0  0  0  0  0  0  0  0  0  0  0  0
   36.0177   30.9333   48.9912 N   0  0  0  0  0  0  0  0  0  0  0  0
   35.4040   30.0294   49.8167 C   0  0  0  0  0  0  0  0  0  0  0  0
   36.0598   29.5766   50.8975 N   0  0  0  0  0  0  0  0  0  0  0  0
   38.0873   29.6065   52.2608 O   0  0  0  0  0  0  0  0  0  0  0  0
   38.9355   31.3276   50.4669 H   0  0  0  0  0  0  0  0  0  0  0  0
   37.7192   32.1057   48.5477 H   0  0  0  0  0  0  0  0  0  0  0  0
   38.2049   30.1710   53.0881 H   0  0  0  0  0  0  0  0  0  0  0  0
   33.0134   31.1360   48.0461 O   0  0  0  0  0  0  0  0  0  0  0  0
   33.0716   30.6890   49.3598 C   0  0  2  0  0  0  0  0  0  0  0  0
   34.0319   29.5333   49.5524 C   0  0  2  0  0  0  0  0  0  0  0  0
   33.4192   28.9168   50.8181 C   0  0  2  0  0  0  0  0  0  0  0  0
   33.5063   29.6354   51.6315 H   0  0  0  0  0  0  0  0  0  0  0  0
   32.0870   28.8467   50.4286 O   0  0  0  0  0  0  0  0  0  0  0  0
   31.7716   30.0442   49.8161 C   0  0  2  0  0  0  0  0  0  0  0  0
   31.1886   29.8571   48.8686 H   0  0  0  0  0  0  0  0  0  0  0  0
   32.5403   32.0267   48.1049 H   0  0  0  0  0  0  0  0  0  0  0  0
   33.3683   31.4858   50.0692 H   0  0  0  0  0  0  0  0  0  0  0  0
   34.0134   28.8010   48.7209 H   0  0  0  0  0  0  0  0  0  0  0  0
   33.8052   27.9065   51.0227 H   0  0  0  0  0  0  0  0  0  0  0  0
   31.1916   30.7300   50.4545 H   0  0  0  0  0  0  0  0  0  0  0  0
  1  7  1  0
  2  1  2  0
  3  2  1  0
  4  3  2  0
  4  5  1  0
  5  6  2  0
  6  1  1  0
  2  8  1  0
  3  9  1  0
  7 10  1  0
 11 12  1  0
 12 13  1  0
 13 14  1  0
 14 15  1  1
 14 16  1  0
 16 17  1  0
 17 18  1  6
 17 12  1  0
 11 19  1  0
 12 20  1  1
 13 21  1  6
 14 22  1  0
 17 23  1  0
  5 13  1  0
M  ISO  5   8  14   9  14  10   3  15  15  18  16
M  END
>  <DihAtoms>  (1) 
3,4,12,11

>  <DihDeg>  (1) 
52.4669397848261

$$$$
