
     RDKit          3D

 32 34  0  0  1  0  0  0  0  0999 V2000
   37.9770   31.7490   47.9550 C   0  0  1  0  0  0  0  0  0  0  0  0
   38.5770   32.9930   48.6110 C   0  0  0  0  0  0  0  0  0  0  0  0
   39.3050   32.2440   47.5660 C   0  0  2  0  0  0  0  0  0  0  0  0
   40.6840   32.0210   45.5010 C   0  0  2  0  0  0  0  0  0  0  0  0
   39.5120   32.7460   46.1760 C   0  0  1  0  0  0  0  0  0  0  0  0
   38.3850   32.1490   45.3250 C   0  0  0  0  0  0  0  0  0  0  0  0
   38.8620   32.0600   44.0360 O   0  0  0  0  0  0  0  0  0  0  0  0
   40.2450   32.0880   44.0740 C   0  0  0  0  0  0  0  0  0  0  0  0
   40.6820   30.7050   45.9160 O   0  0  0  0  0  0  0  0  0  0  0  0
   37.7760   30.5920   48.8720 C   0  0  0  0  0  0  0  0  0  0  0  0
   34.7950   28.4150   49.4850 C   0  0  0  0  0  0  0  0  0  0  0  0
   36.0980   28.9700   49.6030 C   0  0  0  0  0  0  0  0  0  0  0  0
   36.4100   30.0090   48.7490 C   0  0  0  0  0  0  0  0  0  0  0  0
   35.4900   30.4490   47.8570 N   0  0  0  0  0  0  0  0  0  0  0  0
   34.2660   29.8920   47.7830 C   0  0  0  0  0  0  0  0  0  0  0  0
   33.9260   28.8830   48.5930 N   0  0  0  0  0  0  0  0  0  0  0  0
   37.0948   31.4649   47.3625 H   0  0  0  0  0  0  0  0  0  0  0  0
   38.1634   33.9886   48.3927 H   0  0  0  0  0  0  0  0  0  0  0  0
   38.7898   33.3137   49.6415 H   0  0  0  0  0  0  0  0  0  0  0  0
   40.3249   31.8332   47.5331 H   0  0  0  0  0  0  0  0  0  0  0  0
   41.6837   32.4330   45.7032 H   0  0  0  0  0  0  0  0  0  0  0  0
   39.6124   33.8399   46.2339 H   0  0  0  0  0  0  0  0  0  0  0  0
   38.1170   31.1499   45.6991 H   0  0  0  0  0  0  0  0  0  0  0  0
   37.4831   32.7772   45.3689 H   0  0  0  0  0  0  0  0  0  0  0  0
   40.6485   31.2268   43.5213 H   0  0  0  0  0  0  0  0  0  0  0  0
   40.6151   33.0141   43.6100 H   0  0  0  0  0  0  0  0  0  0  0  0
   40.6819   30.6710   46.9054 H   0  0  0  0  0  0  0  0  0  0  0  0
   38.5162   29.8151   48.6301 H   0  0  0  0  0  0  0  0  0  0  0  0
   37.8983   30.9528   49.9039 H   0  0  0  0  0  0  0  0  0  0  0  0
   34.4999   27.5841   50.1426 H   0  0  0  0  0  0  0  0  0  0  0  0
   36.8224   28.5904   50.3386 H   0  0  0  0  0  0  0  0  0  0  0  0
   33.5388   30.2704   47.0495 H   0  0  0  0  0  0  0  0  0  0  0  0
  1  2  1  0
  1 10  1  0
  3  1  1  0
  3  2  1  0
  4  9  1  0
  4  5  1  0
  5  6  1  0
  5  3  1  0
  7  8  1  0
  7  6  1  0
  8  4  1  0
 11 12  2  0
 13 10  1  0
 13 12  1  0
 14 13  2  0
 15 14  1  0
 15 16  2  0
 16 11  1  0
  1 17  1  6
  2 18  1  0
  2 19  1  0
  3 20  1  1
  4 21  1  6
  5 22  1  1
  6 23  1  0
  6 24  1  0
  8 25  1  0
  8 26  1  0
  9 27  1  0
 10 28  1  0
 10 29  1  0
 11 30  1  0
 12 31  1  0
 15 32  1  0
M  ISO  8  17  13  18  13  19  13  20  13  21  13  22  13  23  13  24  13
M  ISO  8  25  13  26  13  27   3  28   8  29   8  30  14  31  14  32  14
M  END
>  <minimizedAffinity>  (1) 
-5.65951157

>  <minimizedRMSD>  (1) 
2.72609401

$$$$
