
     RDKit          3D

 23 24  0  0  1  0  0  0  0  0999 V2000
   37.4850   30.1970   51.0180 C   0  0  0  0  0  0  0  0  0  0  0  0
   38.3060   31.0790   50.3200 C   0  0  0  0  0  0  0  0  0  0  0  0
   37.8480   31.6010   49.1020 C   0  0  0  0  0  0  0  0  0  0  0  0
   36.6240   31.2180   48.6630 N   0  0  0  0  0  0  0  0  0  0  0  0
   35.8350   30.3480   49.3670 C   0  0  0  0  0  0  0  0  0  0  0  0
   36.2810   29.8540   50.5340 N   0  0  0  0  0  0  0  0  0  0  0  0
   33.8350   28.9930   49.8650 C   0  0  2  0  0  0  0  0  0  0  0  0
   34.4970   29.9350   48.8790 C   0  0  2  0  0  0  0  0  0  0  0  0
   34.6210   28.9830   47.6810 C   0  0  0  0  0  0  0  0  0  0  0  0
   33.3220   28.4920   47.6310 O   0  0  0  0  0  0  0  0  0  0  0  0
   32.9410   28.1980   48.9260 C   0  0  0  0  0  0  0  0  0  0  0  0
   33.1170   29.6550   50.8530 O   0  0  0  0  0  0  0  0  0  0  0  0
   38.0610   29.7600   52.2040 O   0  0  0  0  0  0  0  0  0  0  0  0
   39.2930   31.3602   50.7159 H   0  0  0  0  0  0  0  0  0  0  0  0
   38.4643   32.3014   48.5192 H   0  0  0  0  0  0  0  0  0  0  0  0
   34.5397   28.3861   50.4524 H   0  0  0  0  0  0  0  0  0  0  0  0
   33.9628   30.8766   48.6842 H   0  0  0  0  0  0  0  0  0  0  0  0
   34.8911   29.5191   46.7592 H   0  0  0  0  0  0  0  0  0  0  0  0
   35.4040   28.2163   47.7762 H   0  0  0  0  0  0  0  0  0  0  0  0
   31.8896   28.4820   49.0804 H   0  0  0  0  0  0  0  0  0  0  0  0
   33.0411   27.1200   49.1208 H   0  0  0  0  0  0  0  0  0  0  0  0
   33.4345   29.3623   51.7439 H   0  0  0  0  0  0  0  0  0  0  0  0
   37.5718   29.1282   52.7885 H   0  0  0  0  0  0  0  0  0  0  0  0
  1 13  1  0
  2  1  2  0
  3  2  1  0
  4  3  2  0
  4  5  1  0
  5  6  2  0
  6  1  1  0
  7 12  1  0
  8  5  1  0
  8  7  1  0
  9  8  1  0
 10  9  1  0
 10 11  1  0
 11  7  1  0
  2 14  1  0
  3 15  1  0
  7 16  1  1
  8 17  1  6
  9 18  1  0
  9 19  1  0
 11 20  1  0
 11 21  1  0
 12 22  1  0
 13 23  1  0
M  ISO  8  14  14  15  14  16  13  17  13  18  13  19  13  20  13  21  13
M  ISO  2  22   3  23   3
M  END
>  <minimizedAffinity>  (1) 
-4.87498713

>  <minimizedRMSD>  (1) 
0.928795457

$$$$
