
     RDKit          3D

 26 27  0  0  0  0  0  0  0  0999 V2000
   36.9499   30.3777   48.9727 C   0  0  0  0  0  0  0  0  0  0  0  0
   38.1444   30.8514   48.4113 C   0  0  0  0  0  0  0  0  0  0  0  0
   38.1523   31.0621   47.0153 C   0  0  0  0  0  0  0  0  0  0  0  0
   37.0309   30.8021   46.3022 N   0  0  0  0  0  0  0  0  0  0  0  0
   35.9147   30.3492   46.8976 C   0  0  0  0  0  0  0  0  0  0  0  0
   35.8995   30.1494   48.2036 N   0  0  0  0  0  0  0  0  0  0  0  0
   37.0879   30.1526   50.7337 S   0  0  0  0  0  0  0  0  0  0  0  0
   35.5893   29.3444   51.2988 C   0  0  0  0  0  0  0  0  0  0  0  0
   39.0688   31.0725   48.9492 H   0  0  0  0  0  0  0  0  0  0  0  0
   39.0612   31.4312   46.5271 H   0  0  0  0  0  0  0  0  0  0  0  0
   35.0249   30.1485   46.3037 H   0  0  0  0  0  0  0  0  0  0  0  0
   35.7306   29.1082   52.3954 H   0  0  0  0  0  0  0  0  0  0  0  0
   35.4224   28.3564   50.8295 H   0  0  0  0  0  0  0  0  0  0  0  0
   31.5615   30.8100   49.1262 O   0  0  0  0  0  0  0  0  0  0  0  0
   32.5484   31.0583   50.0698 C   0  0  2  0  0  0  0  0  0  0  0  0
   33.8390   30.2815   49.7678 C   0  0  1  0  0  0  0  0  0  0  0  0
   33.6047   29.2515   49.4341 H   0  0  0  0  0  0  0  0  0  0  0  0
   34.3510   30.1565   51.2106 C   0  0  1  0  0  0  0  0  0  0  0  0
   33.2370   29.6675   51.8316 O   0  0  0  0  0  0  0  0  0  0  0  0
   32.2297   30.5461   51.4454 C   0  0  1  0  0  0  0  0  0  0  0  0
   32.1962   31.3752   52.2086 H   0  0  0  0  0  0  0  0  0  0  0  0
   30.7557   31.3086   49.4456 H   0  0  0  0  0  0  0  0  0  0  0  0
   32.8434   32.1341   50.0780 H   0  0  0  0  0  0  0  0  0  0  0  0
   34.5228   30.8262   49.1163 H   0  0  0  0  0  0  0  0  0  0  0  0
   34.5170   31.2027   51.5587 H   0  0  0  0  0  0  0  0  0  0  0  0
   31.2192   30.0442   51.4217 H   0  0  0  0  0  0  0  0  0  0  0  0
  1  7  1  0
  2  1  2  0
  3  2  1  0
  4  5  1  0
  4  3  2  0
  5  6  2  0
  6  1  1  0
  7  8  1  0
  2  9  1  0
  3 10  1  0
  5 11  1  0
  8 12  1  0
  8 13  1  0
 14 15  1  0
 15 16  1  0
 16 17  1  6
 16 18  1  0
 18 19  1  0
 19 20  1  0
 20 21  1  1
 20 15  1  0
 14 22  1  0
 15 23  1  1
 16 24  1  0
 18 25  1  1
 20 26  1  0
  8 18  1  0
M  ISO  7   9  14  10  14  11  14  12   8  13   8  17   8  21  16
M  END
>  <DihAtoms>  (1) 
6,7,17,15

>  <DihDeg>  (1) 
-60.112154742750384

$$$$
