
     RDKit          3D

 26 27  0  0  0  0  0  0  0  0999 V2000
   36.9499   30.3777   48.9727 C   0  0  0  0  0  0  0  0  0  0  0  0
   38.1444   30.8514   48.4113 C   0  0  0  0  0  0  0  0  0  0  0  0
   38.1523   31.0621   47.0153 C   0  0  0  0  0  0  0  0  0  0  0  0
   37.0309   30.8021   46.3022 N   0  0  0  0  0  0  0  0  0  0  0  0
   35.9147   30.3492   46.8976 C   0  0  0  0  0  0  0  0  0  0  0  0
   35.8995   30.1494   48.2036 N   0  0  0  0  0  0  0  0  0  0  0  0
   37.0879   30.1526   50.7337 S   0  0  0  0  0  0  0  0  0  0  0  0
   35.5893   29.3444   51.2988 C   0  0  0  0  0  0  0  0  0  0  0  0
   39.0688   31.0725   48.9492 H   0  0  0  0  0  0  0  0  0  0  0  0
   39.0612   31.4312   46.5271 H   0  0  0  0  0  0  0  0  0  0  0  0
   35.0249   30.1485   46.3037 H   0  0  0  0  0  0  0  0  0  0  0  0
   35.7306   29.1082   52.3954 H   0  0  0  0  0  0  0  0  0  0  0  0
   35.4224   28.3564   50.8295 H   0  0  0  0  0  0  0  0  0  0  0  0
   33.1817   33.5005   51.1521 O   0  0  0  0  0  0  0  0  0  0  0  0
   33.1596   32.1341   51.3940 C   0  0  2  0  0  0  0  0  0  0  0  0
   34.5564   31.5882   51.7277 C   0  0  1  0  0  0  0  0  0  0  0  0
   35.3211   32.0463   51.0701 H   0  0  0  0  0  0  0  0  0  0  0  0
   34.3510   30.1565   51.2106 C   0  0  1  0  0  0  0  0  0  0  0  0
   33.8558   30.4082   49.9627 O   0  0  0  0  0  0  0  0  0  0  0  0
   32.8136   31.3004   50.1934 C   0  0  1  0  0  0  0  0  0  0  0  0
   31.8793   30.6909   50.3564 H   0  0  0  0  0  0  0  0  0  0  0  0
   32.2473   33.7397   50.8882 H   0  0  0  0  0  0  0  0  0  0  0  0
   32.5244   31.8865   52.2770 H   0  0  0  0  0  0  0  0  0  0  0  0
   34.7881   31.6300   52.7924 H   0  0  0  0  0  0  0  0  0  0  0  0
   33.5314   29.7298   51.8347 H   0  0  0  0  0  0  0  0  0  0  0  0
   32.6420   31.9847   49.3126 H   0  0  0  0  0  0  0  0  0  0  0  0
  1  7  1  0
  2  1  2  0
  3  2  1  0
  4  5  1  0
  4  3  2  0
  5  6  2  0
  6  1  1  0
  7  8  1  0
  2  9  1  0
  3 10  1  0
  5 11  1  0
  8 12  1  0
  8 13  1  0
 14 15  1  0
 15 16  1  0
 16 17  1  6
 16 18  1  0
 18 19  1  0
 19 20  1  0
 20 21  1  1
 20 15  1  0
 14 22  1  0
 15 23  1  1
 16 24  1  0
 18 25  1  1
 20 26  1  0
  8 18  1  0
M  ISO  7   9  14  10  14  11  14  12   8  13   8  17   8  21  16
M  END
>  <DihAtoms>  (1) 
6,7,17,15

>  <DihDeg>  (1) 
-60.112154742750384

$$$$
