
     RDKit          3D

 50 53  0  0  0  0  0  0  0  0999 V2000
   37.3271   30.1782   51.5241 C   0  0  0  0  0  0  0  0  0  0  0  0
   38.0576   30.8711   50.5232 C   0  0  0  0  0  0  0  0  0  0  0  0
   37.6991   30.6587   49.1915 C   0  0  0  0  0  0  0  0  0  0  0  0
   36.6623   29.7888   48.9907 N   0  0  0  0  0  0  0  0  0  0  0  0
   35.9846   29.1449   49.9362 C   0  0  0  0  0  0  0  0  0  0  0  0
   36.3324   29.3510   51.2276 N   0  0  0  0  0  0  0  0  0  0  0  0
   38.9341   33.2692   48.9990 F   0  0  0  0  0  0  0  0  0  0  0  0
   38.9062   32.4786   47.9453 C   0  0  0  0  0  0  0  0  0  0  0  0
   38.3298   31.2753   48.0568 C   0  0  0  0  0  0  0  0  0  0  0  0
   38.3575   30.5190   46.8747 C   0  0  0  0  0  0  0  0  0  0  0  0
   38.9244   30.9762   45.7155 C   0  0  0  0  0  0  0  0  0  0  0  0
   39.5064   32.2267   45.6544 C   0  0  0  0  0  0  0  0  0  0  0  0
   39.4852   32.9706   46.7976 C   0  0  0  0  0  0  0  0  0  0  0  0
   35.0019   28.3414   49.4467 O   0  0  0  0  0  0  0  0  0  0  0  0
   34.4452   28.6410   48.1761 C   0  0  0  0  0  0  0  0  0  0  0  0
   33.5603   27.5292   47.7097 C   0  0  0  0  0  0  0  0  0  0  0  0
   32.1212   27.8949   47.7386 C   0  0  0  0  0  0  0  0  0  0  0  0
   31.3816   27.4687   48.8429 C   0  0  0  0  0  0  0  0  0  0  0  0
   30.0370   27.7576   48.9637 C   0  0  0  0  0  0  0  0  0  0  0  0
   29.4266   28.4637   47.9986 N   0  0  0  0  0  0  0  0  0  0  0  0
   30.1816   28.8646   46.9321 C   0  0  0  0  0  0  0  0  0  0  0  0
   31.4828   28.6074   46.7755 N   0  0  0  0  0  0  0  0  0  0  0  0
   29.4421   29.6373   45.8895 C   0  0  0  0  0  0  0  0  0  0  0  0
   37.6175   30.3539   52.5514 H   0  0  0  0  0  0  0  0  0  0  0  0
   38.8630   31.5441   50.7176 H   0  0  0  0  0  0  0  0  0  0  0  0
   37.9225   29.5168   46.8231 H   0  0  0  0  0  0  0  0  0  0  0  0
   38.9398   30.3825   44.8080 H   0  0  0  0  0  0  0  0  0  0  0  0
   39.9512   32.5777   44.7335 H   0  0  0  0  0  0  0  0  0  0  0  0
   39.9383   33.9498   46.7578 H   0  0  0  0  0  0  0  0  0  0  0  0
   33.9024   29.6011   48.3104 H   0  0  0  0  0  0  0  0  0  0  0  0
   35.2754   28.8711   47.4801 H   0  0  0  0  0  0  0  0  0  0  0  0
   33.7123   26.5867   48.2629 H   0  0  0  0  0  0  0  0  0  0  0  0
   33.8556   27.3168   46.6440 H   0  0  0  0  0  0  0  0  0  0  0  0
   31.8643   26.9013   49.6220 H   0  0  0  0  0  0  0  0  0  0  0  0
   29.4812   27.4187   49.8265 H   0  0  0  0  0  0  0  0  0  0  0  0
   28.3950   29.2871   45.8399 H   0  0  0  0  0  0  0  0  0  0  0  0
   29.8791   29.4648   44.8915 H   0  0  0  0  0  0  0  0  0  0  0  0
   30.7104   33.9411   47.5734 O   0  0  0  0  0  0  0  0  0  0  0  0
   30.8099   32.9568   46.5941 C   0  0  1  0  0  0  0  0  0  0  0  0
   30.4675   31.5675   47.1444 C   0  0  1  0  0  0  0  0  0  0  0  0
   31.3659   30.9601   47.2331 H   0  0  0  0  0  0  0  0  0  0  0  0
   29.4614   31.1139   46.1465 C   0  0  1  0  0  0  0  0  0  0  0  0
   29.6162   31.8711   45.0057 O   0  0  0  0  0  0  0  0  0  0  0  0
   29.7873   33.1652   45.4911 C   0  0  2  0  0  0  0  0  0  0  0  0
   30.1903   33.7963   44.6733 H   0  0  0  0  0  0  0  0  0  0  0  0
   31.3729   33.7297   48.2629 H   0  0  0  0  0  0  0  0  0  0  0  0
   31.8146   32.8882   46.1539 H   0  0  0  0  0  0  0  0  0  0  0  0
   30.0158   31.7568   48.1577 H   0  0  0  0  0  0  0  0  0  0  0  0
   28.4618   31.3705   46.5589 H   0  0  0  0  0  0  0  0  0  0  0  0
   28.8395   33.5961   45.9079 H   0  0  0  0  0  0  0  0  0  0  0  0
  2  1  2  0
  3  2  1  0
  4  3  2  0
  4  5  1  0
  5  6  2  0
  6  1  1  0
  8  9  2  0
  8  7  1  0
  9  3  1  0
 10  9  1  0
 11 10  2  0
 12 11  1  0
 12 13  2  0
 13  8  1  0
 14  5  1  0
 15 14  1  0
 16 17  1  0
 16 15  1  0
 17 18  2  0
 18 19  1  0
 20 19  2  0
 21 20  1  0
 22 21  2  0
 22 17  1  0
 23 21  1  0
  1 24  1  0
  2 25  1  0
 10 26  1  0
 11 27  1  0
 12 28  1  0
 13 29  1  0
 15 30  1  0
 15 31  1  0
 16 32  1  0
 16 33  1  0
 18 34  1  0
 19 35  1  0
 23 36  1  0
 23 37  1  0
 38 39  1  0
 39 40  1  0
 40 41  1  1
 40 42  1  0
 42 43  1  0
 43 44  1  0
 44 45  1  6
 44 39  1  0
 38 46  1  0
 39 47  1  6
 40 48  1  0
 42 49  1  1
 44 50  1  0
 23 42  1  0
M  ISO  8  24  14  25  14  26  14  27  14  28  14  29  14  30   8  31   8
M  ISO  8  32   8  33   8  34  14  35  14  36   8  37   8  41   8  45  16
M  END
>  <DihAtoms>  (1) 
20,22,41,39

>  <DihDeg>  (1) 
-59.997095664780744

$$$$
