
     RDKit          3D

 44 46  0  0  0  0  0  0  0  0999 V2000
   37.0782   30.9473   49.0291 C   0  0  0  0  0  0  0  0  0  0  0  0
   36.8138   31.8725   50.0386 C   0  0  0  0  0  0  0  0  0  0  0  0
   37.4282   33.1226   50.0686 C   0  0  0  0  0  0  0  0  0  0  0  0
   38.3363   33.4621   49.0559 C   0  0  0  0  0  0  0  0  0  0  0  0
   38.5826   32.5451   48.0769 C   0  0  0  0  0  0  0  0  0  0  0  0
   37.9518   31.3108   48.0835 C   0  0  0  0  0  0  0  0  0  0  0  0
   36.4672   29.6375   49.0175 C   0  0  1  0  0  0  0  0  0  0  0  0
   36.8675   28.8982   49.9942 O   0  0  0  0  0  0  0  0  0  0  0  0
   33.6146   30.1529   46.8260 C   0  0  0  0  0  0  0  0  0  0  0  0
   32.9547   28.9392   46.8403 C   0  0  0  0  0  0  0  0  0  0  0  0
   33.4489   27.9385   47.6601 C   0  0  0  0  0  0  0  0  0  0  0  0
   34.5694   28.1840   48.4238 N   0  0  0  0  0  0  0  0  0  0  0  0
   35.1573   29.3620   48.3658 C   0  0  0  0  0  0  0  0  0  0  0  0
   34.6867   30.3504   47.5725 N   0  0  0  0  0  0  0  0  0  0  0  0
   38.3430   30.4193   47.0109 C   0  0  0  0  0  0  0  0  0  0  0  0
   38.8176   30.8346   45.8360 C   0  0  0  0  0  0  0  0  0  0  0  0
   39.2907   30.0275   44.6973 C   0  0  0  0  0  0  0  0  0  0  0  0
   39.1845   30.9814   43.1769 S   0  0  0  0  0  0  0  0  0  0  0  0
   36.1016   31.5875   50.8118 H   0  0  0  0  0  0  0  0  0  0  0  0
   37.1780   33.7949   50.8957 H   0  0  0  0  0  0  0  0  0  0  0  0
   38.7933   34.4480   49.1209 H   0  0  0  0  0  0  0  0  0  0  0  0
   39.3035   32.9370   47.3591 H   0  0  0  0  0  0  0  0  0  0  0  0
   37.0086   29.0550   48.1731 H   0  0  0  0  0  0  0  0  0  0  0  0
   36.9001   27.9015   49.9087 H   0  0  0  0  0  0  0  0  0  0  0  0
   33.1933   30.9102   46.1664 H   0  0  0  0  0  0  0  0  0  0  0  0
   32.0921   28.7309   46.2508 H   0  0  0  0  0  0  0  0  0  0  0  0
   32.9659   26.9640   47.7098 H   0  0  0  0  0  0  0  0  0  0  0  0
   38.3657   29.3312   46.8983 H   0  0  0  0  0  0  0  0  0  0  0  0
   38.9141   31.9232   45.6687 H   0  0  0  0  0  0  0  0  0  0  0  0
   38.7154   29.0780   44.6355 H   0  0  0  0  0  0  0  0  0  0  0  0
   40.3598   29.7231   44.8457 H   0  0  0  0  0  0  0  0  0  0  0  0
   37.8703   29.3873   40.5225 O   0  0  0  0  0  0  0  0  0  0  0  0
   39.0507   30.0882   40.5539 C   0  0  0  0  0  0  0  0  0  0  0  0
   39.8084   29.9286   41.8574 C   0  0  0  0  0  0  0  0  0  0  0  0
   41.1949   30.3316   41.3835 C   0  0  0  0  0  0  0  0  0  0  0  0
   41.2055   31.4398   41.3237 H   0  0  0  0  0  0  0  0  0  0  0  0
   41.3439   29.8396   40.1012 O   0  0  0  0  0  0  0  0  0  0  0  0
   40.0945   29.5429   39.5971 C   0  0  0  0  0  0  0  0  0  0  0  0
   39.9887   28.4326   39.5804 H   0  0  0  0  0  0  0  0  0  0  0  0
   37.1472   29.9949   40.8746 H   0  0  0  0  0  0  0  0  0  0  0  0
   38.9425   31.1671   40.3107 H   0  0  0  0  0  0  0  0  0  0  0  0
   39.7795   28.8548   42.1353 H   0  0  0  0  0  0  0  0  0  0  0  0
   41.9801   29.9906   42.0847 H   0  0  0  0  0  0  0  0  0  0  0  0
   39.9486   29.9082   38.5533 H   0  0  0  0  0  0  0  0  0  0  0  0
  1  7  1  0
  1  2  2  0
  2  3  1  0
  4  3  2  0
  5  6  2  0
  5  4  1  0
  6  1  1  0
  7  8  1  0
  9 10  2  0
  9 14  1  0
 10 11  1  0
 11 12  2  0
 13 12  1  0
 13  7  1  0
 14 13  2  0
 15  6  1  0
 16 15  2  0
 17 16  1  0
 18 17  1  0
  2 19  1  0
  3 20  1  0
  4 21  1  0
  5 22  1  0
  7 23  1  6
  8 24  1  0
  9 25  1  0
 10 26  1  0
 11 27  1  0
 15 28  1  0
 16 29  1  0
 17 30  1  0
 17 31  1  0
 32 33  1  0
 33 34  1  0
 34 35  1  0
 35 36  1  0
 35 37  1  0
 37 38  1  0
 38 39  1  0
 38 33  1  0
 32 40  1  0
 33 41  1  0
 34 42  1  0
 35 43  1  0
 38 44  1  0
 18 34  1  0
M  ISO  8  19  14  20  14  21  14  22  14  23   8  24   3  25  14  26  14
M  ISO  5  27  14  30   8  31   8  36  15  39  16
M  END
>  <DihAtoms>  (1) 
16,17,33,32

>  <DihDeg>  (1) 
142.55084422589906

$$$$
