
     RDKit          3D

 52 55  0  0  1  0  0  0  0  0999 V2000
   37.2110   31.6120   47.8770 C   0  0  0  0  0  0  0  0  0  0  0  0
   37.7500   32.3120   48.9420 C   0  0  0  0  0  0  0  0  0  0  0  0
   38.9110   33.0070   48.6940 C   0  0  0  0  0  0  0  0  0  0  0  0
   39.4620   32.9770   47.4470 N   0  0  0  0  0  0  0  0  0  0  0  0
   38.9210   32.2850   46.4060 C   0  0  0  0  0  0  0  0  0  0  0  0
   37.7750   31.5950   46.6420 N   0  0  0  0  0  0  0  0  0  0  0  0
   39.5290   32.2860   45.1230 N   0  0  0  0  0  0  0  0  0  0  0  0
   35.9180   30.8500   48.1190 C   0  0  1  0  0  0  0  0  0  0  0  0
   35.3600   29.9990   47.1310 C   0  0  0  0  0  0  0  0  0  0  0  0
   36.1350   29.3790   48.2480 C   0  0  2  0  0  0  0  0  0  0  0  0
   35.9760   28.6340   50.5950 C   0  0  2  0  0  0  0  0  0  0  0  0
   35.3710   28.5850   49.2720 C   0  0  1  0  0  0  0  0  0  0  0  0
   34.0270   29.1190   49.4490 C   0  0  0  0  0  0  0  0  0  0  0  0
   34.0220   29.9480   50.5860 O   0  0  0  0  0  0  0  0  0  0  0  0
   34.7020   29.1700   51.4520 C   0  0  0  0  0  0  0  0  0  0  0  0
   36.8130   29.7330   50.7560 O   0  0  0  0  0  0  0  0  0  0  0  0
   37.3770   29.9490   51.8880 C   0  0  0  0  0  0  0  0  0  0  0  0
   39.6850   30.8490   44.2040 S   0  0  0  0  0  0  0  0  0  0  0  0
   39.2470   29.6340   44.9610 O   0  0  0  0  0  0  0  0  0  0  0  0
   41.1370   30.6610   43.8670 O   0  0  0  0  0  0  0  0  0  0  0  0
   38.8600   30.9510   42.7510 O   0  0  0  0  0  0  0  0  0  0  0  0
   36.5940   31.3220   43.2490 C   0  0  1  0  0  0  0  0  0  0  0  0
   37.8900   31.9230   42.7390 C   0  0  2  0  0  0  0  0  0  0  0  0
   37.4800   32.3070   41.3210 C   0  0  0  0  0  0  0  0  0  0  0  0
   36.1570   32.6970   41.4040 O   0  0  0  0  0  0  0  0  0  0  0  0
   35.5290   31.8130   42.2750 C   0  0  0  0  0  0  0  0  0  0  0  0
   36.6160   29.9300   43.1670 O   0  0  0  0  0  0  0  0  0  0  0  0
   37.2753   32.3127   49.9343 H   0  0  0  0  0  0  0  0  0  0  0  0
   39.3924   33.5839   49.4974 H   0  0  0  0  0  0  0  0  0  0  0  0
   39.8846   33.1717   44.7357 H   0  0  0  0  0  0  0  0  0  0  0  0
   35.4640   31.6671   48.6988 H   0  0  0  0  0  0  0  0  0  0  0  0
   34.2697   29.8620   47.0816 H   0  0  0  0  0  0  0  0  0  0  0  0
   35.4220   29.9516   46.0338 H   0  0  0  0  0  0  0  0  0  0  0  0
   37.0125   28.7256   48.3627 H   0  0  0  0  0  0  0  0  0  0  0  0
   36.4942   27.6916   50.8260 H   0  0  0  0  0  0  0  0  0  0  0  0
   35.3698   27.5556   48.8842 H   0  0  0  0  0  0  0  0  0  0  0  0
   33.7403   29.7035   48.5624 H   0  0  0  0  0  0  0  0  0  0  0  0
   33.3087   28.2962   49.5794 H   0  0  0  0  0  0  0  0  0  0  0  0
   34.0796   28.3292   51.7921 H   0  0  0  0  0  0  0  0  0  0  0  0
   35.0043   29.7148   52.3585 H   0  0  0  0  0  0  0  0  0  0  0  0
   36.6837   29.6835   52.6997 H   0  0  0  0  0  0  0  0  0  0  0  0
   38.2866   29.3356   51.9674 H   0  0  0  0  0  0  0  0  0  0  0  0
   37.6442   31.0131   51.9674 H   0  0  0  0  0  0  0  0  0  0  0  0
   39.3105   29.8102   45.9331 H   0  0  0  0  0  0  0  0  0  0  0  0
   41.6636   30.5928   44.7026 H   0  0  0  0  0  0  0  0  0  0  0  0
   36.4200   31.6058   44.2974 H   0  0  0  0  0  0  0  0  0  0  0  0
   38.3014   32.7642   43.3162 H   0  0  0  0  0  0  0  0  0  0  0  0
   37.5835   31.4449   40.6456 H   0  0  0  0  0  0  0  0  0  0  0  0
   38.1146   33.1110   40.9199 H   0  0  0  0  0  0  0  0  0  0  0  0
   34.7245   32.3272   42.8213 H   0  0  0  0  0  0  0  0  0  0  0  0
   35.0783   30.9725   41.7268 H   0  0  0  0  0  0  0  0  0  0  0  0
   36.6221   29.5457   44.0794 H   0  0  0  0  0  0  0  0  0  0  0  0
  1  8  1  0
  1  2  2  0
  3  2  1  0
  4  3  2  0
  5  6  2  0
  5  4  1  0
  6  1  1  0
  7  5  1  0
  8 10  1  0
  9  8  1  0
  9 10  1  0
 10 12  1  0
 11 16  1  0
 11 15  1  0
 12 13  1  0
 12 11  1  0
 13 14  1  0
 14 15  1  0
 16 17  1  0
 18 19  1  0
 18  7  1  0
 20 18  1  0
 21 18  1  0
 22 27  1  0
 23 21  1  0
 23 22  1  0
 24 25  1  0
 24 23  1  0
 25 26  1  0
 26 22  1  0
  2 28  1  0
  3 29  1  0
  7 30  1  0
  8 31  1  1
  9 32  1  0
  9 33  1  0
 10 34  1  6
 11 35  1  1
 12 36  1  6
 13 37  1  0
 13 38  1  0
 15 39  1  0
 15 40  1  0
 17 41  1  0
 17 42  1  0
 17 43  1  0
 19 44  1  0
 20 45  1  0
 22 46  1  1
 23 47  1  1
 24 48  1  0
 24 49  1  0
 26 50  1  0
 26 51  1  0
 27 52  1  0
M  ISO  8  28  14  29  14  31  13  32  13  33  13  34  13  35  13  36  13
M  ISO  8  37  13  38  13  39  13  40  13  41   8  42   8  43   8  44   3
M  ISO  8  45   3  46  13  47  13  48  13  49  13  50  13  51  13  52   3
M  END
>  <minimizedAffinity>  (1) 
-5.24520779

>  <minimizedRMSD>  (1) 
4.25151348

$$$$
