
     RDKit          3D

 44 46  0  0  1  0  0  0  0  0999 V2000
   36.9960   30.9090   49.0590 C   0  0  0  0  0  0  0  0  0  0  0  0
   36.6900   31.7950   50.0920 C   0  0  0  0  0  0  0  0  0  0  0  0
   37.2790   33.0550   50.1780 C   0  0  0  0  0  0  0  0  0  0  0  0
   38.2040   33.4440   49.1990 C   0  0  0  0  0  0  0  0  0  0  0  0
   38.4920   32.5650   48.1970 C   0  0  0  0  0  0  0  0  0  0  0  0
   37.8850   31.3200   48.1480 C   0  0  0  0  0  0  0  0  0  0  0  0
   36.4110   29.5880   48.9900 C   0  0  2  0  0  0  0  0  0  0  0  0
   33.5730   30.0670   46.7740 C   0  0  0  0  0  0  0  0  0  0  0  0
   32.8640   28.8850   46.8720 C   0  0  0  0  0  0  0  0  0  0  0  0
   33.3220   27.9240   47.7580 C   0  0  0  0  0  0  0  0  0  0  0  0
   34.4540   28.1760   48.5020 N   0  0  0  0  0  0  0  0  0  0  0  0
   35.0880   29.3220   48.3620 C   0  0  0  0  0  0  0  0  0  0  0  0
   34.6550   30.2720   47.5020 N   0  0  0  0  0  0  0  0  0  0  0  0
   36.8550   28.8040   49.9120 O   0  0  0  0  0  0  0  0  0  0  0  0
   38.3190   30.4710   47.0570 C   0  0  0  0  0  0  0  0  0  0  0  0
   38.8210   30.9340   45.9110 C   0  0  0  0  0  0  0  0  0  0  0  0
   39.3370   30.1720   44.7590 C   0  0  0  0  0  0  0  0  0  0  0  0
   40.3290   31.2410   43.7070 S   0  0  0  0  0  0  0  0  0  0  0  0
   40.7920   28.9810   42.1680 C   0  0  1  0  0  0  0  0  0  0  0  0
   40.4170   30.4480   42.0940 C   0  0  1  0  0  0  0  0  0  0  0  0
   39.0610   30.3190   41.4230 C   0  0  0  0  0  0  0  0  0  0  0  0
   39.1570   29.2890   40.5070 O   0  0  0  0  0  0  0  0  0  0  0  0
   40.2630   28.5260   40.8200 C   0  0  0  0  0  0  0  0  0  0  0  0
   42.1400   28.7710   42.3180 O   0  0  0  0  0  0  0  0  0  0  0  0
   35.9637   31.4907   50.8600 H   0  0  0  0  0  0  0  0  0  0  0  0
   37.0216   33.7354   51.0031 H   0  0  0  0  0  0  0  0  0  0  0  0
   38.6849   34.4325   49.2381 H   0  0  0  0  0  0  0  0  0  0  0  0
   39.2152   32.8476   47.4178 H   0  0  0  0  0  0  0  0  0  0  0  0
   36.8061   29.2311   48.0275 H   0  0  0  0  0  0  0  0  0  0  0  0
   33.2309   30.8483   46.0794 H   0  0  0  0  0  0  0  0  0  0  0  0
   31.9632   28.7125   46.2648 H   0  0  0  0  0  0  0  0  0  0  0  0
   32.7872   26.9689   47.8666 H   0  0  0  0  0  0  0  0  0  0  0  0
   36.6397   29.1842   50.8004 H   0  0  0  0  0  0  0  0  0  0  0  0
   38.2294   29.3817   47.1808 H   0  0  0  0  0  0  0  0  0  0  0  0
   38.8544   32.0291   45.8125 H   0  0  0  0  0  0  0  0  0  0  0  0
   39.9584   29.3400   45.1218 H   0  0  0  0  0  0  0  0  0  0  0  0
   38.4896   29.7797   44.1775 H   0  0  0  0  0  0  0  0  0  0  0  0
   40.3867   28.4408   43.0363 H   0  0  0  0  0  0  0  0  0  0  0  0
   41.1421   31.0869   41.5686 H   0  0  0  0  0  0  0  0  0  0  0  0
   38.2899   30.0869   42.1723 H   0  0  0  0  0  0  0  0  0  0  0  0
   38.7789   31.2592   40.9266 H   0  0  0  0  0  0  0  0  0  0  0  0
   39.9797   27.4643   40.8710 H   0  0  0  0  0  0  0  0  0  0  0  0
   41.0377   28.6485   40.0487 H   0  0  0  0  0  0  0  0  0  0  0  0
   42.3633   28.7362   43.2819 H   0  0  0  0  0  0  0  0  0  0  0  0
  1  2  2  0
  2  3  1  0
  4  3  2  0
  5  4  1  0
  6  5  2  0
  6  1  1  0
  7  1  1  0
  7 14  1  0
  8  9  2  0
  8 13  1  0
  9 10  1  0
 10 11  2  0
 12 11  1  0
 12  7  1  0
 13 12  2  0
 15  6  1  0
 16 15  2  0
 17 16  1  0
 18 17  1  0
 19 24  1  0
 20 19  1  0
 20 18  1  0
 21 20  1  0
 22 23  1  0
 22 21  1  0
 23 19  1  0
  2 25  1  0
  3 26  1  0
  4 27  1  0
  5 28  1  0
  7 29  1  6
  8 30  1  0
  9 31  1  0
 10 32  1  0
 14 33  1  0
 15 34  1  0
 16 35  1  0
 17 36  1  0
 17 37  1  0
 19 38  1  1
 20 39  1  6
 21 40  1  0
 21 41  1  0
 23 42  1  0
 23 43  1  0
 24 44  1  0
M  ISO  8  25  14  26  14  27  14  28  14  29   8  30  14  31  14  32  14
M  ISO  8  33   3  36   8  37   8  38  13  39  13  40  13  41  13  42  13
M  ISO  2  43  13  44   3
M  END
>  <minimizedAffinity>  (1) 
-6.30021858

>  <minimizedRMSD>  (1) 
0.540638387

$$$$
