
     RDKit          3D

 36 38  0  0  0  0  0  0  0  0999 V2000
   35.6448   29.3331   49.8414 C   0  0  0  0  0  0  0  0  0  0  0  0
   35.7446   30.2874   48.8046 C   0  0  0  0  0  0  0  0  0  0  0  0
   34.9077   30.1560   47.6902 C   0  0  0  0  0  0  0  0  0  0  0  0
   34.0415   29.1168   47.6622 N   0  0  0  0  0  0  0  0  0  0  0  0
   33.9506   28.2244   48.6346 C   0  0  0  0  0  0  0  0  0  0  0  0
   34.7454   28.3325   49.7135 N   0  0  0  0  0  0  0  0  0  0  0  0
   37.6468   30.0637   51.3453 C   0  0  0  0  0  0  0  0  0  0  0  0
   38.2098   30.8298   50.5309 O   0  0  0  0  0  0  0  0  0  0  0  0
   36.4290   29.3737   51.0142 N   0  0  0  0  0  0  0  0  0  0  0  0
   36.7091   31.3367   48.9640 N   0  0  0  0  0  0  0  0  0  0  0  0
   36.5447   32.3384   49.8282 C   0  0  0  0  0  0  0  0  0  0  0  0
   37.5425   33.3164   49.9265 C   0  0  0  0  0  0  0  0  0  0  0  0
   38.6130   33.1388   49.1032 C   0  0  0  0  0  0  0  0  0  0  0  0
   39.4839   34.0550   49.2385 O   0  0  0  0  0  0  0  0  0  0  0  0
   38.8180   32.1519   48.2233 N   0  0  0  0  0  0  0  0  0  0  0  0
   37.8205   31.2330   48.1696 C   0  0  0  0  0  0  0  0  0  0  0  0
   37.9882   30.2854   47.3437 O   0  0  0  0  0  0  0  0  0  0  0  0
   35.0014   30.8977   46.9093 H   0  0  0  0  0  0  0  0  0  0  0  0
   33.2664   27.3844   48.6362 H   0  0  0  0  0  0  0  0  0  0  0  0
   38.1325   29.9583   52.3007 H   0  0  0  0  0  0  0  0  0  0  0  0
   36.0988   28.8022   51.8473 H   0  0  0  0  0  0  0  0  0  0  0  0
   35.6598   32.3790   50.4282 H   0  0  0  0  0  0  0  0  0  0  0  0
   37.4097   34.1163   50.6177 H   0  0  0  0  0  0  0  0  0  0  0  0
   41.4163   33.9450   47.1966 O   0  0  0  0  0  0  0  0  0  0  0  0
   41.1903   32.7936   47.9489 C   0  0  1  0  0  0  0  0  0  0  0  0
   39.9862   32.0551   47.3974 C   0  0  1  0  0  0  0  0  0  0  0  0
   40.5296   30.6703   47.2659 C   0  0  2  0  0  0  0  0  0  0  0  0
   40.0454   30.0853   46.4387 H   0  0  0  0  0  0  0  0  0  0  0  0
   41.8309   30.9100   46.7646 O   0  0  0  0  0  0  0  0  0  0  0  0
   42.3563   31.8405   47.6651 C   0  0  2  0  0  0  0  0  0  0  0  0
   42.7203   31.3451   48.6038 H   0  0  0  0  0  0  0  0  0  0  0  0
   41.0081   33.8587   46.3002 H   0  0  0  0  0  0  0  0  0  0  0  0
   41.1835   32.9396   49.0259 H   0  0  0  0  0  0  0  0  0  0  0  0
   39.7938   32.4321   46.3642 H   0  0  0  0  0  0  0  0  0  0  0  0
   40.6555   30.1201   48.1980 H   0  0  0  0  0  0  0  0  0  0  0  0
   43.2212   32.3508   47.2175 H   0  0  0  0  0  0  0  0  0  0  0  0
  1  9  1  0
  2 10  1  0
  2  1  2  0
  3  2  1  0
  4  3  2  0
  4  5  1  0
  5  6  2  0
  6  1  1  0
  8  7  2  0
  9  7  1  0
 10 11  1  0
 11 12  2  0
 13 14  2  0
 13 12  1  0
 15 13  1  0
 16 15  1  0
 16 10  1  0
 17 16  2  0
  3 18  1  0
  5 19  1  0
  7 20  1  0
  9 21  1  0
 11 22  1  0
 12 23  1  0
 24 25  1  0
 25 26  1  0
 26 27  1  0
 27 28  1  6
 27 29  1  0
 29 30  1  0
 30 31  1  1
 30 25  1  0
 24 32  1  0
 25 33  1  1
 26 34  1  6
 27 35  1  0
 30 36  1  0
 15 26  1  0
M  ISO  7  18  14  19  14  20   6  22  14  23  14  28  15  31  16
M  END
>  <DihAtoms>  (1) 
12,14,25,24

>  <DihDeg>  (1) 
-141.8927824039936

$$$$
