
     RDKit          3D

 34 35  0  0  1  0  0  0  0  0999 V2000
   36.9650   29.2710   50.7370 C   0  0  0  0  0  0  0  0  0  0  0  0
   37.7360   30.5460   50.8770 C   0  0  0  0  0  0  0  0  0  0  0  0
   38.0940   31.1790   49.6230 C   0  0  0  0  0  0  0  0  0  0  0  0
   38.5490   32.4970   49.5540 C   0  0  0  0  0  0  0  0  0  0  0  0
   38.8710   33.0210   48.2850 C   0  0  0  0  0  0  0  0  0  0  0  0
   38.7200   32.2070   47.1960 N   0  0  0  0  0  0  0  0  0  0  0  0
   38.2730   30.9280   47.3050 C   0  0  0  0  0  0  0  0  0  0  0  0
   37.9630   30.4220   48.5280 N   0  0  0  0  0  0  0  0  0  0  0  0
   35.6970   29.4540   51.2920 O   0  0  0  0  0  0  0  0  0  0  0  0
   34.6880   30.5200   49.1280 O   0  0  0  0  0  0  0  0  0  0  0  0
   34.4860   29.3630   50.1000 P   0  0  2  0  0  0  0  0  0  0  0  0
   32.9620   29.5750   50.7710 O   0  0  0  0  0  0  0  0  0  0  0  0
   34.5340   27.8850   49.3170 O   0  0  0  0  0  0  0  0  0  0  0  0
   32.3600   27.9450   48.2410 C   0  0  1  0  0  0  0  0  0  0  0  0
   33.8730   27.9810   48.1140 C   0  0  1  0  0  0  0  0  0  0  0  0
   34.0040   29.3820   47.5030 C   0  0  0  0  0  0  0  0  0  0  0  0
   32.9510   29.5310   46.6390 O   0  0  0  0  0  0  0  0  0  0  0  0
   32.0150   28.5670   46.8890 C   0  0  0  0  0  0  0  0  0  0  0  0
   31.8400   26.6900   48.4170 O   0  0  0  0  0  0  0  0  0  0  0  0
   36.8696   29.0106   49.6725 H   0  0  0  0  0  0  0  0  0  0  0  0
   37.4890   28.4559   51.2576 H   0  0  0  0  0  0  0  0  0  0  0  0
   37.1248   31.2541   51.4558 H   0  0  0  0  0  0  0  0  0  0  0  0
   38.6819   30.2838   51.3734 H   0  0  0  0  0  0  0  0  0  0  0  0
   38.6532   33.1085   50.4624 H   0  0  0  0  0  0  0  0  0  0  0  0
   39.2329   34.0538   48.1741 H   0  0  0  0  0  0  0  0  0  0  0  0
   38.1624   30.3040   46.4059 H   0  0  0  0  0  0  0  0  0  0  0  0
   33.0319   29.5653   51.7585 H   0  0  0  0  0  0  0  0  0  0  0  0
   31.9490   28.4554   49.1245 H   0  0  0  0  0  0  0  0  0  0  0  0
   34.3106   27.1475   47.5450 H   0  0  0  0  0  0  0  0  0  0  0  0
   33.9584   30.1465   48.2926 H   0  0  0  0  0  0  0  0  0  0  0  0
   34.9654   29.4997   46.9816 H   0  0  0  0  0  0  0  0  0  0  0  0
   31.0115   29.0160   46.9254 H   0  0  0  0  0  0  0  0  0  0  0  0
   32.0167   27.8049   46.0958 H   0  0  0  0  0  0  0  0  0  0  0  0
   31.7606   26.4985   49.3850 H   0  0  0  0  0  0  0  0  0  0  0  0
  1  2  1  0
  1  9  1  0
  3  2  1  0
  4  3  2  0
  5  4  1  0
  6  7  1  0
  6  5  2  0
  7  8  2  0
  8  3  1  0
 11 10  2  0
 11 12  1  0
 11  9  1  0
 13 11  1  0
 14 19  1  0
 15 14  1  0
 15 13  1  0
 16 15  1  0
 17 18  1  0
 17 16  1  0
 18 14  1  0
  1 20  1  0
  1 21  1  0
  2 22  1  0
  2 23  1  0
  4 24  1  0
  5 25  1  0
  7 26  1  0
 12 27  1  0
 14 28  1  1
 15 29  1  6
 16 30  1  0
 16 31  1  0
 18 32  1  0
 18 33  1  0
 19 34  1  0
M  ISO  8  20   8  21   8  22   8  23   8  24  14  25  14  26  14  27   3
M  ISO  7  28  13  29  13  30  13  31  13  32  13  33  13  34   3
M  END
>  <minimizedAffinity>  (1) 
-5.22947168

>  <minimizedRMSD>  (1) 
0.758688331

$$$$
