
     RDKit          3D

 23 24  0  0  0  0  0  0  0  0999 V2000
   37.3269   30.2324   51.4242 C   0  0  0  0  0  0  0  0  0  0  0  0
   38.0756   30.7343   50.3421 C   0  0  0  0  0  0  0  0  0  0  0  0
   37.7025   30.3758   49.0347 C   0  0  0  0  0  0  0  0  0  0  0  0
   36.6205   29.5513   48.9078 N   0  0  0  0  0  0  0  0  0  0  0  0
   35.9241   29.0871   49.9591 C   0  0  0  0  0  0  0  0  0  0  0  0
   36.2735   29.4249   51.2191 N   0  0  0  0  0  0  0  0  0  0  0  0
   34.8689   28.2692   49.6020 O   0  0  0  0  0  0  0  0  0  0  0  0
   37.6236   30.5156   52.4317 H   0  0  0  0  0  0  0  0  0  0  0  0
   38.9317   31.3879   50.4618 H   0  0  0  0  0  0  0  0  0  0  0  0
   38.2280   30.7216   48.1638 H   0  0  0  0  0  0  0  0  0  0  0  0
   32.6731   29.4626   49.5968 O   0  0  0  0  0  0  0  0  0  0  0  0
   32.6376   28.3179   50.3540 C   0  0  2  0  0  0  0  0  0  0  0  0
   33.9883   27.6585   50.5260 C   0  0  1  0  0  0  0  0  0  0  0  0
   33.6837   26.2192   50.1364 C   0  0  2  0  0  0  0  0  0  0  0  0
   33.2316   25.7156   51.0212 H   0  0  0  0  0  0  0  0  0  0  0  0
   32.7256   26.3877   49.1104 O   0  0  0  0  0  0  0  0  0  0  0  0
   31.8076   27.2049   49.7482 C   0  0  1  0  0  0  0  0  0  0  0  0
   31.3504   26.6095   50.5651 H   0  0  0  0  0  0  0  0  0  0  0  0
   32.4081   29.3109   48.6476 H   0  0  0  0  0  0  0  0  0  0  0  0
   32.2326   28.6204   51.3595 H   0  0  0  0  0  0  0  0  0  0  0  0
   34.3685   27.6784   51.5529 H   0  0  0  0  0  0  0  0  0  0  0  0
   34.5594   25.7043   49.7268 H   0  0  0  0  0  0  0  0  0  0  0  0
   31.0502   27.5607   49.0349 H   0  0  0  0  0  0  0  0  0  0  0  0
  2  1  2  0
  3  2  1  0
  4  3  2  0
  4  5  1  0
  5  6  2  0
  6  1  1  0
  7  5  1  0
  1  8  1  0
  2  9  1  0
  3 10  1  0
 11 12  1  0
 12 13  1  0
 13 14  1  0
 14 15  1  1
 14 16  1  0
 16 17  1  0
 17 18  1  1
 17 12  1  0
 11 19  1  0
 12 20  1  1
 13 21  1  1
 14 22  1  0
 17 23  1  0
  7 13  1  0
M  ISO  5   8  14   9  14  10  14  15  15  18  16
M  END
>  <DihAtoms>  (1) 
4,6,12,11

>  <DihDeg>  (1) 
126.38035391133158

$$$$
