
     RDKit          3D

 28 29  0  0  1  0  0  0  0  0999 V2000
   35.3340   29.7780   46.7880 O   0  0  0  0  0  0  0  0  0  0  0  0
   34.1170   29.9950   47.6520 P   0  0  2  0  0  0  0  0  0  0  0  0
   33.0590   30.9920   46.7730 O   0  0  0  0  0  0  0  0  0  0  0  0
   34.5100   30.7680   49.1410 O   0  0  0  0  0  0  0  0  0  0  0  0
   35.7210   30.5690   49.7730 C   0  0  0  0  0  0  0  0  0  0  0  0
   36.0070   29.5540   50.6920 C   0  0  0  0  0  0  0  0  0  0  0  0
   37.2830   29.4930   51.2400 C   0  0  0  0  0  0  0  0  0  0  0  0
   38.2090   30.4180   50.8670 N   0  0  0  0  0  0  0  0  0  0  0  0
   37.8940   31.3970   49.9640 C   0  0  0  0  0  0  0  0  0  0  0  0
   36.6550   31.4780   49.4150 N   0  0  0  0  0  0  0  0  0  0  0  0
   33.3490   28.5500   48.0740 O   0  0  0  0  0  0  0  0  0  0  0  0
   33.6430   26.2370   47.4800 C   0  0  1  0  0  0  0  0  0  0  0  0
   33.4940   27.6640   47.0340 C   0  0  1  0  0  0  0  0  0  0  0  0
   32.1700   27.6070   46.2940 C   0  0  0  0  0  0  0  0  0  0  0  0
   31.3960   26.7520   47.0410 O   0  0  0  0  0  0  0  0  0  0  0  0
   32.2160   25.7760   47.5790 C   0  0  0  0  0  0  0  0  0  0  0  0
   34.2740   25.4910   46.4700 O   0  0  0  0  0  0  0  0  0  0  0  0
   32.5020   31.5169   47.4010 H   0  0  0  0  0  0  0  0  0  0  0  0
   35.2385   28.8197   50.9750 H   0  0  0  0  0  0  0  0  0  0  0  0
   37.5409   28.7075   51.9656 H   0  0  0  0  0  0  0  0  0  0  0  0
   38.6598   32.1328   49.6774 H   0  0  0  0  0  0  0  0  0  0  0  0
   34.2274   26.1277   48.4055 H   0  0  0  0  0  0  0  0  0  0  0  0
   34.3727   28.0064   46.4677 H   0  0  0  0  0  0  0  0  0  0  0  0
   31.7095   28.6047   46.2432 H   0  0  0  0  0  0  0  0  0  0  0  0
   32.2857   27.2668   45.2543 H   0  0  0  0  0  0  0  0  0  0  0  0
   32.0906   24.8374   47.0193 H   0  0  0  0  0  0  0  0  0  0  0  0
   31.9505   25.6023   48.6323 H   0  0  0  0  0  0  0  0  0  0  0  0
   34.8554   24.8036   46.8818 H   0  0  0  0  0  0  0  0  0  0  0  0
  2  1  2  0
  2 11  1  0
  2  4  1  0
  3  2  1  0
  4  5  1  0
  5  6  2  0
  6  7  1  0
  8  7  2  0
  9  8  1  0
 10  5  1  0
 10  9  2  0
 12 17  1  0
 12 16  1  0
 13 12  1  0
 13 11  1  0
 14 13  1  0
 14 15  1  0
 15 16  1  0
  3 18  1  0
  6 19  1  0
  7 20  1  0
  9 21  1  0
 12 22  1  1
 13 23  1  6
 14 24  1  0
 14 25  1  0
 16 26  1  0
 16 27  1  0
 17 28  1  0
M  ISO  8  18   3  19  14  20  14  21  14  22  13  23  13  24  13  25  13
M  ISO  3  26  13  27  13  28   3
M  END
>  <minimizedAffinity>  (1) 
-4.13029718

>  <minimizedRMSD>  (1) 
2.03155899

$$$$
