
     RDKit          3D

 50 53  0  0  0  0  0  0  0  0999 V2000
   33.1690   28.2340   49.0999 C   0  0  0  0  0  0  0  0  0  0  0  0
   30.9404   27.3687   48.5515 C   0  0  0  0  0  0  0  0  0  0  0  0
   32.2770   27.5078   48.2616 C   0  0  0  0  0  0  0  0  0  0  0  0
   32.6490   26.8837   47.1246 C   0  0  0  0  0  0  0  0  0  0  0  0
   31.8044   26.1931   46.3493 N   0  0  0  0  0  0  0  0  0  0  0  0
   30.5146   26.0593   46.6320 C   0  0  0  0  0  0  0  0  0  0  0  0
   30.0595   26.6459   47.7400 N   0  0  0  0  0  0  0  0  0  0  0  0
   30.3330   27.9993   49.7862 C   0  0  0  0  0  0  0  0  0  0  0  0
   28.9848   28.3926   49.8253 C   0  0  0  0  0  0  0  0  0  0  0  0
   29.3144   27.0212   50.4198 C   0  0  0  0  0  0  0  0  0  0  0  0
   34.5713   28.3729   48.6301 C   0  0  0  0  0  0  0  0  0  0  0  0
   35.5231   30.7991   47.6359 F   0  0  0  0  0  0  0  0  0  0  0  0
   35.9023   30.3338   48.8570 C   0  0  0  0  0  0  0  0  0  0  0  0
   35.4668   29.1272   49.4243 C   0  0  0  0  0  0  0  0  0  0  0  0
   35.9647   28.8453   50.6415 C   0  0  0  0  0  0  0  0  0  0  0  0
   36.8298   29.6375   51.3170 C   0  0  0  0  0  0  0  0  0  0  0  0
   37.2647   30.8473   50.7457 C   0  0  0  0  0  0  0  0  0  0  0  0
   36.7719   31.1565   49.5059 C   0  0  0  0  0  0  0  0  0  0  0  0
   37.2464   32.3811   48.9830 O   0  0  0  0  0  0  0  0  0  0  0  0
   38.5057   32.2556   48.3574 C   0  0  0  0  0  0  0  0  0  0  0  0
   39.2118   33.3075   48.4848 O   0  0  0  0  0  0  0  0  0  0  0  0
   39.1654   31.2338   47.6214 N   0  0  0  0  0  0  0  0  0  0  0  0
   33.2144   27.7411   50.1037 H   0  0  0  0  0  0  0  0  0  0  0  0
   32.7705   29.2607   49.3253 H   0  0  0  0  0  0  0  0  0  0  0  0
   33.6673   26.8951   46.7514 H   0  0  0  0  0  0  0  0  0  0  0  0
   29.7359   25.5353   46.0972 H   0  0  0  0  0  0  0  0  0  0  0  0
   31.0725   28.4983   50.4145 H   0  0  0  0  0  0  0  0  0  0  0  0
   28.6520   29.1834   50.5292 H   0  0  0  0  0  0  0  0  0  0  0  0
   28.3908   28.3982   48.8772 H   0  0  0  0  0  0  0  0  0  0  0  0
   28.9439   26.1768   49.8565 H   0  0  0  0  0  0  0  0  0  0  0  0
   29.2991   27.0025   51.5312 H   0  0  0  0  0  0  0  0  0  0  0  0
   34.5232   28.6478   47.5567 H   0  0  0  0  0  0  0  0  0  0  0  0
   34.9667   27.3103   48.5884 H   0  0  0  0  0  0  0  0  0  0  0  0
   35.6026   27.8911   51.0577 H   0  0  0  0  0  0  0  0  0  0  0  0
   37.1357   29.2667   52.2849 H   0  0  0  0  0  0  0  0  0  0  0  0
   39.4564   31.4367   46.6119 H   0  0  0  0  0  0  0  0  0  0  0  0
   39.4566   31.4334   46.6150 H   0  0  0  0  0  0  0  0  0  0  0  0
   38.2598   32.8157   53.6190 O   0  0  0  0  0  0  0  0  0  0  0  0
   37.6705   31.6929   52.9933 C   0  0  1  0  0  0  0  0  0  0  0  0
   38.1996   31.6289   51.5635 C   0  0  1  0  0  0  0  0  0  0  0  0
   39.5081   30.9563   51.7968 C   0  0  2  0  0  0  0  0  0  0  0  0
   40.2399   31.7696   52.0808 H   0  0  0  0  0  0  0  0  0  0  0  0
   39.4027   30.1418   52.8856 O   0  0  0  0  0  0  0  0  0  0  0  0
   38.2427   30.4090   53.5558 C   0  0  2  0  0  0  0  0  0  0  0  0
   37.4975   29.6226   53.3008 H   0  0  0  0  0  0  0  0  0  0  0  0
   39.0982   33.0955   53.1601 H   0  0  0  0  0  0  0  0  0  0  0  0
   36.5742   31.7461   53.0374 H   0  0  0  0  0  0  0  0  0  0  0  0
   38.3609   32.6675   51.1841 H   0  0  0  0  0  0  0  0  0  0  0  0
   39.9580   30.4969   50.8971 H   0  0  0  0  0  0  0  0  0  0  0  0
   38.3707   30.4994   54.6593 H   0  0  0  0  0  0  0  0  0  0  0  0
  2  8  1  0
  3  2  1  0
  3  1  1  0
  4  3  2  0
  5  6  2  0
  5  4  1  0
  6  7  1  0
  7  2  2  0
  8  9  1  0
  8 10  1  0
  9 10  1  0
 11  1  1  0
 11 14  1  0
 12 13  1  0
 13 14  2  0
 13 18  1  0
 14 15  1  0
 15 16  2  0
 17 16  1  0
 18 17  2  0
 19 18  1  0
 20 21  2  0
 20 19  1  0
 22 20  1  0
  1 23  1  0
  1 24  1  0
  4 25  1  0
  6 26  1  0
  8 27  1  0
  9 28  1  0
  9 29  1  0
 10 30  1  0
 10 31  1  0
 11 32  1  0
 11 33  1  0
 15 34  1  0
 16 35  1  0
 22 36  1  0
 22 37  1  0
 38 39  1  0
 39 40  1  0
 40 41  1  0
 41 42  1  1
 41 43  1  0
 43 44  1  0
 44 45  1  1
 44 39  1  0
 38 46  1  0
 39 47  1  6
 40 48  1  6
 41 49  1  0
 44 50  1  0
 17 40  1  0
M  ISO  8  23   8  24   8  25  14  26  14  27  13  28  13  29  13  30  13
M  ISO  7  31  13  32   8  33   8  34  14  35  14  42  15  45  16
M  END
>  <DihAtoms>  (1) 
15,16,39,38

>  <DihDeg>  (1) 
-91.32458907557661

$$$$
