
     RDKit          3D

 37 39  0  0  0  0  0  0  0  0999 V2000
   37.4661   31.4251   49.3813 C   0  0  0  0  0  0  0  0  0  0  0  0
   37.8687   32.7104   49.6958 C   0  0  0  0  0  0  0  0  0  0  0  0
   38.6903   33.3375   48.7533 C   0  0  0  0  0  0  0  0  0  0  0  0
   39.0383   32.6713   47.6140 N   0  0  0  0  0  0  0  0  0  0  0  0
   38.6226   31.4166   47.3468 C   0  0  0  0  0  0  0  0  0  0  0  0
   37.8158   30.7759   48.2533 N   0  0  0  0  0  0  0  0  0  0  0  0
   36.5575   30.7410   50.3644 C   0  0  0  0  0  0  0  0  0  0  0  0
   36.4661   29.3203   50.4711 C   0  0  0  0  0  0  0  0  0  0  0  0
   37.3505   30.0294   51.4849 C   0  0  0  0  0  0  0  0  0  0  0  0
   38.9827   30.6987   46.1329 C   0  0  0  0  0  0  0  0  0  0  0  0
   41.0469   31.5567   45.0102 C   0  0  0  0  0  0  0  0  0  0  0  0
   40.4437   32.2839   44.1784 O   0  0  0  0  0  0  0  0  0  0  0  0
   40.4297   30.7721   46.0126 N   0  0  0  0  0  0  0  0  0  0  0  0
   37.5542   33.1799   50.6199 H   0  0  0  0  0  0  0  0  0  0  0  0
   39.0335   34.3444   48.9512 H   0  0  0  0  0  0  0  0  0  0  0  0
   35.8650   31.4909   50.8245 H   0  0  0  0  0  0  0  0  0  0  0  0
   35.4991   28.8974   50.8672 H   0  0  0  0  0  0  0  0  0  0  0  0
   36.8918   28.6736   49.7019 H   0  0  0  0  0  0  0  0  0  0  0  0
   36.9844   30.0868   52.5090 H   0  0  0  0  0  0  0  0  0  0  0  0
   38.4185   29.8668   51.3370 H   0  0  0  0  0  0  0  0  0  0  0  0
   38.4977   31.1070   45.2096 H   0  0  0  0  0  0  0  0  0  0  0  0
   38.7166   29.6470   46.1773 H   0  0  0  0  0  0  0  0  0  0  0  0
   40.9878   30.2128   46.7079 H   0  0  0  0  0  0  0  0  0  0  0  0
   42.5499   31.4944   44.9613 C   0  0  0  0  0  0  0  0  0  0  0  0
   43.0814   32.7938   45.5471 C   0  0  0  0  0  0  0  0  0  0  0  0
   43.4728   32.4130   46.9738 C   0  0  0  0  0  0  0  0  0  0  0  0
   44.0973   31.0490   46.7184 C   0  0  0  0  0  0  0  0  0  0  0  0
   43.0826   30.3949   45.8332 C   0  0  0  0  0  0  0  0  0  0  0  0
   42.9196   31.4093   43.9151 H   0  0  0  0  0  0  0  0  0  0  0  0
   42.3025   33.5796   45.6328 H   0  0  0  0  0  0  0  0  0  0  0  0
   43.9269   33.2124   45.0007 H   0  0  0  0  0  0  0  0  0  0  0  0
   44.1653   33.1206   47.4372 H   0  0  0  0  0  0  0  0  0  0  0  0
   42.5109   32.2861   47.5386 H   0  0  0  0  0  0  0  0  0  0  0  0
   45.0110   31.1879   46.1260 H   0  0  0  0  0  0  0  0  0  0  0  0
   44.2925   30.5082   47.6665 H   0  0  0  0  0  0  0  0  0  0  0  0
   43.4855   29.5441   45.2507 H   0  0  0  0  0  0  0  0  0  0  0  0
   42.2196   30.0016   46.4369 H   0  0  0  0  0  0  0  0  0  0  0  0
  1  2  2  0
  1  7  1  0
  3  2  1  0
  4  3  2  0
  5  4  1  0
  5  6  2  0
  6  1  1  0
  7  8  1  0
  7  9  1  0
  8  9  1  0
 10  5  1  0
 11 13  1  0
 12 11  2  0
 13 10  1  0
  2 14  1  0
  3 15  1  0
  7 16  1  0
  8 17  1  0
  8 18  1  0
  9 19  1  0
  9 20  1  0
 10 21  1  0
 10 22  1  0
 13 23  1  0
 24 25  1  0
 25 26  1  0
 26 27  1  0
 27 28  1  0
 28 24  1  0
 24 29  1  0
 25 30  1  0
 25 31  1  0
 26 32  1  0
 26 33  1  0
 27 34  1  0
 27 35  1  0
 28 36  1  0
 28 37  1  0
 11 24  1  0
M  ISO  8  14  14  15  14  16  13  17  13  18  13  19  13  20  13  21   8
M  ISO  1  22   8
M  END
>  <DihAtoms>  (1) 
12,10,23,24

>  <DihDeg>  (1) 
60.000744701624384

$$$$
