
     RDKit          3D

 37 39  0  0  0  0  0  0  0  0999 V2000
   37.4661   31.4251   49.3813 C   0  0  0  0  0  0  0  0  0  0  0  0
   37.8687   32.7104   49.6958 C   0  0  0  0  0  0  0  0  0  0  0  0
   38.6903   33.3375   48.7533 C   0  0  0  0  0  0  0  0  0  0  0  0
   39.0383   32.6713   47.6140 N   0  0  0  0  0  0  0  0  0  0  0  0
   38.6226   31.4166   47.3468 C   0  0  0  0  0  0  0  0  0  0  0  0
   37.8158   30.7759   48.2533 N   0  0  0  0  0  0  0  0  0  0  0  0
   36.5575   30.7410   50.3644 C   0  0  0  0  0  0  0  0  0  0  0  0
   36.4661   29.3203   50.4711 C   0  0  0  0  0  0  0  0  0  0  0  0
   37.3505   30.0294   51.4849 C   0  0  0  0  0  0  0  0  0  0  0  0
   38.9827   30.6987   46.1329 C   0  0  0  0  0  0  0  0  0  0  0  0
   41.0469   31.5567   45.0102 C   0  0  0  0  0  0  0  0  0  0  0  0
   40.4437   32.2839   44.1784 O   0  0  0  0  0  0  0  0  0  0  0  0
   40.4297   30.7721   46.0126 N   0  0  0  0  0  0  0  0  0  0  0  0
   37.5542   33.1799   50.6199 H   0  0  0  0  0  0  0  0  0  0  0  0
   39.0335   34.3444   48.9512 H   0  0  0  0  0  0  0  0  0  0  0  0
   35.8650   31.4909   50.8245 H   0  0  0  0  0  0  0  0  0  0  0  0
   35.4991   28.8974   50.8672 H   0  0  0  0  0  0  0  0  0  0  0  0
   36.8918   28.6736   49.7019 H   0  0  0  0  0  0  0  0  0  0  0  0
   36.9844   30.0868   52.5090 H   0  0  0  0  0  0  0  0  0  0  0  0
   38.4185   29.8668   51.3370 H   0  0  0  0  0  0  0  0  0  0  0  0
   38.4977   31.1070   45.2096 H   0  0  0  0  0  0  0  0  0  0  0  0
   38.7166   29.6470   46.1773 H   0  0  0  0  0  0  0  0  0  0  0  0
   40.9878   30.2128   46.7079 H   0  0  0  0  0  0  0  0  0  0  0  0
   42.5499   31.4944   44.9613 C   0  0  0  0  0  0  0  0  0  0  0  0
   43.0470   32.8336   44.4381 C   0  0  0  0  0  0  0  0  0  0  0  0
   43.4796   33.5763   45.7009 C   0  0  0  0  0  0  0  0  0  0  0  0
   44.1464   32.4375   46.4586 C   0  0  0  0  0  0  0  0  0  0  0  0
   43.1380   31.3381   46.3334 C   0  0  0  0  0  0  0  0  0  0  0  0
   42.9016   30.6990   44.2670 H   0  0  0  0  0  0  0  0  0  0  0  0
   42.2428   33.4416   43.9743 H   0  0  0  0  0  0  0  0  0  0  0  0
   43.8663   32.7528   43.7233 H   0  0  0  0  0  0  0  0  0  0  0  0
   44.1559   34.4120   45.5025 H   0  0  0  0  0  0  0  0  0  0  0  0
   42.5341   33.8751   46.2273 H   0  0  0  0  0  0  0  0  0  0  0  0
   45.0428   32.1271   45.9061 H   0  0  0  0  0  0  0  0  0  0  0  0
   44.3791   32.7268   47.5035 H   0  0  0  0  0  0  0  0  0  0  0  0
   43.5588   30.3290   46.5062 H   0  0  0  0  0  0  0  0  0  0  0  0
   42.3014   31.4770   47.0715 H   0  0  0  0  0  0  0  0  0  0  0  0
  1  2  2  0
  1  7  1  0
  3  2  1  0
  4  3  2  0
  5  4  1  0
  5  6  2  0
  6  1  1  0
  7  8  1  0
  7  9  1  0
  8  9  1  0
 10  5  1  0
 11 13  1  0
 12 11  2  0
 13 10  1  0
  2 14  1  0
  3 15  1  0
  7 16  1  0
  8 17  1  0
  8 18  1  0
  9 19  1  0
  9 20  1  0
 10 21  1  0
 10 22  1  0
 13 23  1  0
 24 25  1  0
 25 26  1  0
 26 27  1  0
 27 28  1  0
 28 24  1  0
 24 29  1  0
 25 30  1  0
 25 31  1  0
 26 32  1  0
 26 33  1  0
 27 34  1  0
 27 35  1  0
 28 36  1  0
 28 37  1  0
 11 24  1  0
M  ISO  8  14  14  15  14  16  13  17  13  18  13  19  13  20  13  21   8
M  ISO  1  22   8
M  END
>  <DihAtoms>  (1) 
12,10,23,24

>  <DihDeg>  (1) 
60.000744701624384

$$$$
