
     RDKit          3D

 33 35  0  0  0  0  0  0  0  0999 V2000
   37.5701   31.6549   48.9364 C   0  0  0  0  0  0  0  0  0  0  0  0
   38.1928   32.7326   49.5053 C   0  0  0  0  0  0  0  0  0  0  0  0
   39.0613   33.5666   48.8356 C   0  0  0  0  0  0  0  0  0  0  0  0
   39.3467   33.3401   47.5209 C   0  0  0  0  0  0  0  0  0  0  0  0
   38.7081   32.2373   46.9429 C   0  0  0  0  0  0  0  0  0  0  0  0
   37.8629   31.4451   47.6367 N   0  0  0  0  0  0  0  0  0  0  0  0
   36.9435   30.1605   50.8668 C   0  0  0  0  0  0  0  0  0  0  0  0
   36.6630   30.7944   49.6577 C   0  0  0  0  0  0  0  0  0  0  0  0
   35.3969   30.5714   49.1082 C   0  0  0  0  0  0  0  0  0  0  0  0
   34.5279   29.7544   49.7877 N   0  0  0  0  0  0  0  0  0  0  0  0
   34.8502   29.1712   50.9459 C   0  0  0  0  0  0  0  0  0  0  0  0
   36.0585   29.3717   51.4901 N   0  0  0  0  0  0  0  0  0  0  0  0
   40.1851   34.0549   46.6768 O   0  0  0  0  0  0  0  0  0  0  0  0
   37.9888   32.9425   50.5499 H   0  0  0  0  0  0  0  0  0  0  0  0
   39.5634   34.4242   49.2696 H   0  0  0  0  0  0  0  0  0  0  0  0
   38.8336   31.9281   45.9064 H   0  0  0  0  0  0  0  0  0  0  0  0
   37.9194   30.3504   51.2617 H   0  0  0  0  0  0  0  0  0  0  0  0
   35.0569   30.9996   48.1839 H   0  0  0  0  0  0  0  0  0  0  0  0
   34.0685   28.5546   51.3689 H   0  0  0  0  0  0  0  0  0  0  0  0
   40.9257   35.1837   47.0187 C   0  0  0  0  0  0  0  0  0  0  0  0
   40.5633   36.3484   46.1124 C   0  0  0  0  0  0  0  0  0  0  0  0
   41.8280   36.6679   45.3416 C   0  0  0  0  0  0  0  0  0  0  0  0
   42.5001   35.3074   45.3013 C   0  0  0  0  0  0  0  0  0  0  0  0
   42.3983   34.9085   46.7561 C   0  0  0  0  0  0  0  0  0  0  0  0
   40.8054   35.5074   48.0717 H   0  0  0  0  0  0  0  0  0  0  0  0
   40.1936   37.2244   46.6746 H   0  0  0  0  0  0  0  0  0  0  0  0
   39.7974   35.9996   45.3678 H   0  0  0  0  0  0  0  0  0  0  0  0
   41.6089   37.0447   44.3245 H   0  0  0  0  0  0  0  0  0  0  0  0
   42.5094   37.3446   45.9053 H   0  0  0  0  0  0  0  0  0  0  0  0
   41.8415   34.6449   44.7027 H   0  0  0  0  0  0  0  0  0  0  0  0
   43.5346   35.3452   44.9169 H   0  0  0  0  0  0  0  0  0  0  0  0
   42.6383   33.8377   46.8378 H   0  0  0  0  0  0  0  0  0  0  0  0
   43.0008   35.5420   47.4043 H   0  0  0  0  0  0  0  0  0  0  0  0
  1  2  2  0
  1  8  1  0
  3  2  1  0
  4  3  2  0
  5  4  1  0
  5  6  2  0
  6  1  1  0
  7 12  2  0
  8  7  1  0
  9  8  2  0
  9 10  1  0
 10 11  2  0
 11 12  1  0
 13  4  1  0
  2 14  1  0
  3 15  1  0
  5 16  1  0
  7 17  1  0
  9 18  1  0
 11 19  1  0
 20 21  1  0
 21 22  1  0
 22 23  1  0
 23 24  1  0
 24 20  1  0
 20 25  1  0
 21 26  1  0
 21 27  1  0
 22 28  1  0
 22 29  1  0
 23 30  1  0
 23 31  1  0
 24 32  1  0
 24 33  1  0
 13 20  1  0
M  ISO  6  14  14  15  14  16  14  17  14  18  14  19  14
M  END
>  <DihAtoms>  (1) 
3,12,19,20

>  <DihDeg>  (1) 
-122.6210791108443

$$$$
