
     RDKit          3D

 44 46  0  0  1  0  0  0  0  0999 V2000
   36.6880   29.9050   49.1170 C   0  0  0  0  0  0  0  0  0  0  0  0
   37.7120   30.5920   48.4470 C   0  0  0  0  0  0  0  0  0  0  0  0
   37.5170   30.9100   47.0940 C   0  0  0  0  0  0  0  0  0  0  0  0
   36.3700   30.5400   46.5220 N   0  0  0  0  0  0  0  0  0  0  0  0
   35.4040   29.8800   47.1910 C   0  0  0  0  0  0  0  0  0  0  0  0
   35.5690   29.5690   48.4750 N   0  0  0  0  0  0  0  0  0  0  0  0
   38.5150   31.5960   46.3800 N   0  0  0  0  0  0  0  0  0  0  0  0
   39.4850   32.5370   46.9520 C   0  0  0  0  0  0  0  0  0  0  0  0
   40.1870   33.1890   45.8090 C   0  0  0  0  0  0  0  0  0  0  0  0
   39.2720   32.9320   44.6670 C   0  0  0  0  0  0  0  0  0  0  0  0
   38.8030   31.5350   44.9760 C   0  0  2  0  0  0  0  0  0  0  0  0
   37.7170   31.0700   44.0650 C   0  0  0  0  0  0  0  0  0  0  0  0
   36.5490   31.6760   44.4940 F   0  0  0  0  0  0  0  0  0  0  0  0
   37.4960   29.7230   44.0440 F   0  0  0  0  0  0  0  0  0  0  0  0
   38.0000   31.6090   42.8170 F   0  0  0  0  0  0  0  0  0  0  0  0
   39.9470   30.6080   44.8400 C   0  0  0  0  0  0  0  0  0  0  0  0
   40.4400   30.7840   43.7180 O   0  0  0  0  0  0  0  0  0  0  0  0
   40.7530   30.0600   42.6230 C   0  0  0  0  0  0  0  0  0  0  0  0
   40.7570   30.8140   41.6150 O   0  0  0  0  0  0  0  0  0  0  0  0
   41.1060   28.8130   41.9630 C   0  0  0  0  0  0  0  0  0  0  0  0
   39.8110   28.0670   41.6530 C   0  0  0  0  0  0  0  0  0  0  0  0
   40.3540   27.0900   40.6000 C   0  0  0  0  0  0  0  0  0  0  0  0
   40.9580   28.0940   39.6380 C   0  0  0  0  0  0  0  0  0  0  0  0
   41.7350   29.0000   40.6000 C   0  0  0  0  0  0  0  0  0  0  0  0
   36.8094   29.6422   50.1782 H   0  0  0  0  0  0  0  0  0  0  0  0
   38.6399   30.8729   48.9668 H   0  0  0  0  0  0  0  0  0  0  0  0
   34.4752   29.5970   46.6740 H   0  0  0  0  0  0  0  0  0  0  0  0
   38.9650   33.2941   47.5573 H   0  0  0  0  0  0  0  0  0  0  0  0
   40.1998   32.0150   47.6052 H   0  0  0  0  0  0  0  0  0  0  0  0
   40.3090   34.2682   45.9832 H   0  0  0  0  0  0  0  0  0  0  0  0
   41.2039   32.8023   45.6463 H   0  0  0  0  0  0  0  0  0  0  0  0
   39.8052   32.9748   43.7058 H   0  0  0  0  0  0  0  0  0  0  0  0
   38.4609   33.6679   44.5641 H   0  0  0  0  0  0  0  0  0  0  0  0
   40.6965   30.8206   45.6166 H   0  0  0  0  0  0  0  0  0  0  0  0
   39.6157   29.5657   44.9573 H   0  0  0  0  0  0  0  0  0  0  0  0
   41.8075   28.3016   42.6385 H   0  0  0  0  0  0  0  0  0  0  0  0
   39.4125   27.5451   42.5355 H   0  0  0  0  0  0  0  0  0  0  0  0
   38.9657   28.6930   41.3312 H   0  0  0  0  0  0  0  0  0  0  0  0
   41.1120   26.4114   41.0183 H   0  0  0  0  0  0  0  0  0  0  0  0
   39.6138   26.4025   40.1648 H   0  0  0  0  0  0  0  0  0  0  0  0
   40.1797   28.6532   39.0980 H   0  0  0  0  0  0  0  0  0  0  0  0
   41.5740   27.6446   38.8451 H   0  0  0  0  0  0  0  0  0  0  0  0
   42.7949   28.7069   40.6265 H   0  0  0  0  0  0  0  0  0  0  0  0
   41.6912   30.0518   40.2810 H   0  0  0  0  0  0  0  0  0  0  0  0
  2  1  2  0
  3  2  1  0
  4  3  2  0
  4  5  1  0
  5  6  2  0
  6  1  1  0
  7  8  1  0
  7  3  1  0
  9  8  1  0
 10 11  1  0
 10  9  1  0
 11 12  1  6
 11  7  1  0
 12 13  1  0
 14 12  1  0
 15 12  1  0
 16 11  1  0
 17 16  1  0
 18 17  1  0
 19 18  2  0
 20 18  1  0
 21 20  1  0
 22 21  1  0
 23 24  1  0
 23 22  1  0
 24 20  1  0
  1 25  1  0
  2 26  1  0
  5 27  1  0
  8 28  1  0
  8 29  1  0
  9 30  1  0
  9 31  1  0
 10 32  1  0
 10 33  1  0
 16 34  1  0
 16 35  1  0
 20 36  1  0
 21 37  1  0
 21 38  1  0
 22 39  1  0
 22 40  1  0
 23 41  1  0
 23 42  1  0
 24 43  1  0
 24 44  1  0
M  ISO  8  25  14  26  14  27  14  28  13  29  13  30  13  31  13  32  13
M  ISO  8  33  13  34   8  35   8  36  13  37  13  38  13  39  13  40  13
M  ISO  4  41  13  42  13  43  13  44  13
M  END
>  <minimizedAffinity>  (1) 
-5.16743898

>  <minimizedRMSD>  (1) 
0.467860162

$$$$
