
     RDKit          3D

 44 46  0  0  0  0  0  0  0  0999 V2000
   36.6830   29.9116   49.0394 C   0  0  0  0  0  0  0  0  0  0  0  0
   37.6970   30.5832   48.3376 C   0  0  0  0  0  0  0  0  0  0  0  0
   37.4704   30.8951   46.9886 C   0  0  0  0  0  0  0  0  0  0  0  0
   36.3044   30.5359   46.4496 N   0  0  0  0  0  0  0  0  0  0  0  0
   35.3479   29.8912   47.1478 C   0  0  0  0  0  0  0  0  0  0  0  0
   35.5428   29.5857   48.4293 N   0  0  0  0  0  0  0  0  0  0  0  0
   38.4568   31.5652   46.2445 N   0  0  0  0  0  0  0  0  0  0  0  0
   39.4534   32.4972   46.7854 C   0  0  0  0  0  0  0  0  0  0  0  0
   40.1320   33.1343   45.6197 C   0  0  0  0  0  0  0  0  0  0  0  0
   39.1836   32.8809   44.5043 C   0  0  0  0  0  0  0  0  0  0  0  0
   38.7073   31.4922   44.8344 C   0  0  2  0  0  0  0  0  0  0  0  0
   37.5918   31.0350   43.9546 C   0  0  0  0  0  0  0  0  0  0  0  0
   36.4657   31.7444   44.3362 F   0  0  0  0  0  0  0  0  0  0  0  0
   37.2835   29.7069   44.0285 F   0  0  0  0  0  0  0  0  0  0  0  0
   37.9071   31.4626   42.6725 F   0  0  0  0  0  0  0  0  0  0  0  0
   39.8364   30.5496   44.6739 C   0  0  0  0  0  0  0  0  0  0  0  0
   40.3525   30.7703   43.5696 O   0  0  0  0  0  0  0  0  0  0  0  0
   40.9102   30.0762   42.5552 C   0  0  0  0  0  0  0  0  0  0  0  0
   40.6130   30.6285   41.4637 O   0  0  0  0  0  0  0  0  0  0  0  0
   36.7968   29.6443   50.0773 H   0  0  0  0  0  0  0  0  0  0  0  0
   38.6170   30.8450   48.8336 H   0  0  0  0  0  0  0  0  0  0  0  0
   34.4404   29.6476   46.6110 H   0  0  0  0  0  0  0  0  0  0  0  0
   40.2079   31.8419   47.2882 H   0  0  0  0  0  0  0  0  0  0  0  0
   39.0179   33.1923   47.4991 H   0  0  0  0  0  0  0  0  0  0  0  0
   40.1311   34.2441   45.8313 H   0  0  0  0  0  0  0  0  0  0  0  0
   41.1498   32.8070   45.4090 H   0  0  0  0  0  0  0  0  0  0  0  0
   39.6937   32.8354   43.5069 H   0  0  0  0  0  0  0  0  0  0  0  0
   38.3431   33.5959   44.4894 H   0  0  0  0  0  0  0  0  0  0  0  0
   39.4761   29.5715   45.0528 H   0  0  0  0  0  0  0  0  0  0  0  0
   40.6190   30.8414   45.4402 H   0  0  0  0  0  0  0  0  0  0  0  0
   41.7102   28.9786   42.0338 C   0  0  0  0  0  0  0  0  0  0  0  0
   40.7571   27.9563   41.4223 C   0  0  0  0  0  0  0  0  0  0  0  0
   41.7691   27.1837   40.5637 C   0  0  0  0  0  0  0  0  0  0  0  0
   42.3315   28.3418   39.7636 C   0  0  0  0  0  0  0  0  0  0  0  0
   42.5964   29.3678   40.8725 C   0  0  0  0  0  0  0  0  0  0  0  0
   42.2994   28.3874   42.7398 H   0  0  0  0  0  0  0  0  0  0  0  0
   40.3623   27.2584   42.1814 H   0  0  0  0  0  0  0  0  0  0  0  0
   39.9814   28.4225   40.7816 H   0  0  0  0  0  0  0  0  0  0  0  0
   41.3154   26.3941   39.9692 H   0  0  0  0  0  0  0  0  0  0  0  0
   42.5684   26.8600   41.2650 H   0  0  0  0  0  0  0  0  0  0  0  0
   41.4800   28.6871   39.1072 H   0  0  0  0  0  0  0  0  0  0  0  0
   43.2196   28.1009   39.1824 H   0  0  0  0  0  0  0  0  0  0  0  0
   42.1754   30.3297   40.4886 H   0  0  0  0  0  0  0  0  0  0  0  0
   43.6604   29.4488   41.1252 H   0  0  0  0  0  0  0  0  0  0  0  0
  2  1  2  0
  3  2  1  0
  4  3  2  0
  4  5  1  0
  5  6  2  0
  6  1  1  0
  7  8  1  0
  7  3  1  0
  9  8  1  0
 10 11  1  0
 10  9  1  0
 11 12  1  6
 11  7  1  0
 12 14  1  0
 12 13  1  0
 15 12  1  0
 16 11  1  0
 17 16  1  0
 18 17  1  0
 19 18  2  0
  1 20  1  0
  2 21  1  0
  5 22  1  0
  8 23  1  0
  8 24  1  0
  9 25  1  0
  9 26  1  0
 10 27  1  0
 10 28  1  0
 16 29  1  0
 16 30  1  0
 31 32  1  0
 32 33  1  0
 33 34  1  0
 34 35  1  0
 35 31  1  0
 31 36  1  0
 32 37  1  0
 32 38  1  0
 33 39  1  0
 33 40  1  0
 34 41  1  0
 34 42  1  0
 35 43  1  0
 35 44  1  0
 18 31  1  0
M  ISO  8  20  14  21  14  22  14  23  13  24  13  25  13  26  13  27  13
M  ISO  3  28  13  29   8  30   8
M  END
>  <DihAtoms>  (1) 
16,17,30,31

>  <DihDeg>  (1) 
-179.68149323653694

$$$$
