
     RDKit          3D

 33 35  0  0  0  0  0  0  0  0999 V2000
   37.9216   30.8724   46.7333 C   0  0  0  0  0  0  0  0  0  0  0  0
   38.0573   31.0367   48.1364 C   0  0  0  0  0  0  0  0  0  0  0  0
   36.9336   30.8127   48.9287 C   0  0  0  0  0  0  0  0  0  0  0  0
   35.7649   30.4480   48.3142 N   0  0  0  0  0  0  0  0  0  0  0  0
   35.6681   30.3005   46.9823 C   0  0  0  0  0  0  0  0  0  0  0  0
   36.7557   30.5161   46.2028 N   0  0  0  0  0  0  0  0  0  0  0  0
   39.0994   31.1074   45.9058 C   0  0  0  0  0  0  0  0  0  0  0  0
   39.9217   32.1974   45.9078 C   0  0  0  0  0  0  0  0  0  0  0  0
   40.9362   32.0305   44.9636 C   0  0  0  0  0  0  0  0  0  0  0  0
   40.6775   30.8066   44.4113 N   0  0  0  0  0  0  0  0  0  0  0  0
   39.6061   30.2945   44.9774 N   0  0  0  0  0  0  0  0  0  0  0  0
   37.0547   30.9800   50.4065 C   0  0  0  0  0  0  0  0  0  0  0  0
   36.5598   32.2457   50.6801 F   0  0  0  0  0  0  0  0  0  0  0  0
   36.3020   30.0645   51.1099 F   0  0  0  0  0  0  0  0  0  0  0  0
   38.3654   30.9412   50.8288 F   0  0  0  0  0  0  0  0  0  0  0  0
   38.9819   31.3220   48.5875 H   0  0  0  0  0  0  0  0  0  0  0  0
   34.7141   30.0086   46.5438 H   0  0  0  0  0  0  0  0  0  0  0  0
   39.8424   33.0906   46.5327 H   0  0  0  0  0  0  0  0  0  0  0  0
   41.7524   32.6853   44.6981 H   0  0  0  0  0  0  0  0  0  0  0  0
   41.5198   30.2295   43.3528 C   0  0  0  0  0  0  0  0  0  0  0  0
   42.4708   29.2054   43.9302 C   0  0  0  0  0  0  0  0  0  0  0  0
   43.6431   30.1086   44.3344 C   0  0  0  0  0  0  0  0  0  0  0  0
   43.8221   30.8818   43.0380 C   0  0  0  0  0  0  0  0  0  0  0  0
   42.4007   31.2508   42.6921 C   0  0  0  0  0  0  0  0  0  0  0  0
   40.8844   29.7083   42.6080 H   0  0  0  0  0  0  0  0  0  0  0  0
   42.0938   28.6559   44.7906 H   0  0  0  0  0  0  0  0  0  0  0  0
   42.8326   28.5492   43.1194 H   0  0  0  0  0  0  0  0  0  0  0  0
   43.3367   30.7795   45.1624 H   0  0  0  0  0  0  0  0  0  0  0  0
   44.4977   29.4682   44.5900 H   0  0  0  0  0  0  0  0  0  0  0  0
   44.2302   30.1159   42.3149 H   0  0  0  0  0  0  0  0  0  0  0  0
   44.5076   31.7244   43.1397 H   0  0  0  0  0  0  0  0  0  0  0  0
   42.1436   32.2919   42.8968 H   0  0  0  0  0  0  0  0  0  0  0  0
   42.3274   31.1101   41.5738 H   0  0  0  0  0  0  0  0  0  0  0  0
  1  2  2  0
  2  3  1  0
  3 12  1  0
  4  3  2  0
  5  4  1  0
  6  1  1  0
  6  5  2  0
  7  1  1  0
  8  7  1  0
  9  8  2  0
 10  9  1  0
 10 11  1  0
 11  7  2  0
 12 13  1  0
 12 15  1  0
 12 14  1  0
  2 16  1  0
  5 17  1  0
  8 18  1  0
  9 19  1  0
 20 21  1  0
 21 22  1  0
 22 23  1  0
 23 24  1  0
 24 20  1  0
 20 25  1  0
 21 26  1  0
 21 27  1  0
 22 28  1  0
 22 29  1  0
 23 30  1  0
 23 31  1  0
 24 32  1  0
 24 33  1  0
 10 20  1  0
M  ISO  4  16  14  17  14  18  14  19  14
M  END
>  <DihAtoms>  (1) 
8,9,19,20

>  <DihDeg>  (1) 
-94.40240725048157

$$$$
