
     RDKit          3D

 42 44  0  0  0  0  0  0  0  0999 V2000
   39.5852   32.8760   46.2860 N   0  0  0  0  0  0  0  0  0  0  0  0
   38.2663   32.3641   46.0746 C   0  0  1  0  0  0  0  0  0  0  0  0
   37.9338   32.4110   44.6021 C   0  0  0  0  0  0  0  0  0  0  0  0
   38.9349   31.5884   43.9126 N   0  0  0  0  0  0  0  0  0  0  0  0
   40.1909   32.3433   44.0239 C   0  0  0  0  0  0  0  0  0  0  0  0
   40.5972   32.2653   45.4914 C   0  0  2  0  0  0  0  0  0  0  0  0
   40.8391   30.8709   45.8050 N   0  0  0  0  0  0  0  0  0  0  0  0
   38.1273   30.6072   46.5759 S   0  0  0  0  0  0  0  0  0  0  0  0
   37.8952   30.9342   50.6029 C   0  0  0  0  0  0  0  0  0  0  0  0
   38.3521   31.0829   49.3042 C   0  0  0  0  0  0  0  0  0  0  0  0
   37.6565   30.4983   48.2835 C   0  0  0  0  0  0  0  0  0  0  0  0
   36.5137   29.7742   48.5848 N   0  0  0  0  0  0  0  0  0  0  0  0
   36.1148   29.6602   49.8505 C   0  0  0  0  0  0  0  0  0  0  0  0
   36.7890   30.2299   50.8655 N   0  0  0  0  0  0  0  0  0  0  0  0
   34.9162   28.9023   50.1797 C   0  0  0  0  0  0  0  0  0  0  0  0
   34.4970   27.9668   49.4364 O   0  0  0  0  0  0  0  0  0  0  0  0
   39.8331   33.0678   47.2588 H   0  0  0  0  0  0  0  0  0  0  0  0
   37.5474   32.9682   46.6329 H   0  0  0  0  0  0  0  0  0  0  0  0
   36.9547   31.9388   44.4118 H   0  0  0  0  0  0  0  0  0  0  0  0
   38.0014   33.4231   44.1753 H   0  0  0  0  0  0  0  0  0  0  0  0
   39.0115   30.6526   44.3313 H   0  0  0  0  0  0  0  0  0  0  0  0
   40.9958   31.8523   43.4162 H   0  0  0  0  0  0  0  0  0  0  0  0
   40.0243   33.3786   43.7278 H   0  0  0  0  0  0  0  0  0  0  0  0
   41.5283   32.8226   45.6055 H   0  0  0  0  0  0  0  0  0  0  0  0
   41.7478   30.7846   46.3493 H   0  0  0  0  0  0  0  0  0  0  0  0
   41.0206   30.2861   44.9353 H   0  0  0  0  0  0  0  0  0  0  0  0
   38.4617   31.4062   51.3991 H   0  0  0  0  0  0  0  0  0  0  0  0
   39.2322   31.6431   49.0940 H   0  0  0  0  0  0  0  0  0  0  0  0
   34.1461   29.2257   51.4288 C   0  0  0  0  0  0  0  0  0  0  0  0
   33.6960   30.6630   51.3170 C   0  0  0  0  0  0  0  0  0  0  0  0
   33.7419   31.1454   52.7326 C   0  0  0  0  0  0  0  0  0  0  0  0
   34.7134   30.2972   53.4878 C   0  0  0  0  0  0  0  0  0  0  0  0
   35.0301   29.1076   52.6281 C   0  0  0  0  0  0  0  0  0  0  0  0
   33.2448   28.5772   51.4897 H   0  0  0  0  0  0  0  0  0  0  0  0
   34.4200   31.2408   50.6781 H   0  0  0  0  0  0  0  0  0  0  0  0
   32.6664   30.7558   50.8990 H   0  0  0  0  0  0  0  0  0  0  0  0
   34.0704   32.2197   52.7240 H   0  0  0  0  0  0  0  0  0  0  0  0
   32.7247   31.1314   53.1744 H   0  0  0  0  0  0  0  0  0  0  0  0
   35.6521   30.8491   53.6869 H   0  0  0  0  0  0  0  0  0  0  0  0
   34.2481   29.9348   54.4500 H   0  0  0  0  0  0  0  0  0  0  0  0
   34.8258   28.1338   53.1061 H   0  0  0  0  0  0  0  0  0  0  0  0
   36.1104   29.0996   52.3210 H   0  0  0  0  0  0  0  0  0  0  0  0
  2  1  1  0
  2  8  1  0
  3  2  1  0
  4  5  1  0
  4  3  1  0
  5  6  1  0
  6  7  1  0
  6  1  1  0
  8 11  1  0
  9 14  2  0
 10  9  1  0
 11 12  1  0
 11 10  2  0
 12 13  2  0
 13 15  1  0
 13 14  1  0
 16 15  2  0
  1 17  1  0
  2 18  1  1
  3 19  1  0
  3 20  1  0
  4 21  1  0
  5 22  1  0
  5 23  1  0
  6 24  1  6
  7 25  1  0
  7 26  1  0
  9 27  1  0
 10 28  1  0
 29 30  1  0
 30 31  1  0
 31 32  1  0
 32 33  1  0
 33 29  1  0
 29 34  1  0
 30 35  1  0
 30 36  1  0
 31 37  1  0
 31 38  1  0
 32 39  1  0
 32 40  1  0
 33 41  1  0
 33 42  1  0
 15 29  1  0
M  ISO  8  17   5  18  13  19  13  20  13  21   5  22  13  23  13  24  13
M  ISO  4  25   5  26   5  27  14  28  14
M  END
>  <DihAtoms>  (1) 
12,14,28,29

>  <DihDeg>  (1) 
-59.99958255281464

$$$$
