
     RDKit          3D

 37 39  0  0  0  0  0  0  0  0999 V2000
   37.3360   31.0830   49.4580 C   0  0  0  0  0  0  0  0  0  0  0  0
   38.3520   32.0220   49.4630 C   0  0  0  0  0  0  0  0  0  0  0  0
   38.7570   32.4830   48.2060 C   0  0  0  0  0  0  0  0  0  0  0  0
   38.1520   32.0000   47.0830 N   0  0  0  0  0  0  0  0  0  0  0  0
   37.1640   31.0830   47.1240 C   0  0  0  0  0  0  0  0  0  0  0  0
   36.7450   30.6120   48.3430 N   0  0  0  0  0  0  0  0  0  0  0  0
   36.8600   30.5950   50.7980 C   0  0  0  0  0  0  0  0  0  0  0  0
   35.9960   29.4680   50.9460 C   0  0  0  0  0  0  0  0  0  0  0  0
   37.4810   29.2270   51.1680 C   0  0  0  0  0  0  0  0  0  0  0  0
   36.5070   30.5650   45.9340 C   0  0  0  0  0  0  0  0  0  0  0  0
   37.3890   31.4320   43.7590 C   0  0  0  0  0  0  0  0  0  0  0  0
   36.4890   32.2960   43.5950 O   0  0  0  0  0  0  0  0  0  0  0  0
   37.4990   30.5630   44.8710 N   0  0  0  0  0  0  0  0  0  0  0  0
   38.4510   31.2820   42.7040 C   0  0  0  0  0  0  0  0  0  0  0  0
   39.5930   32.2210   43.0670 C   0  0  0  0  0  0  0  0  0  0  0  0
   40.6220   31.3010   43.7200 C   0  0  0  0  0  0  0  0  0  0  0  0
   40.5140   30.0930   42.7990 C   0  0  0  0  0  0  0  0  0  0  0  0
   39.0330   29.8990   42.7010 C   0  0  0  0  0  0  0  0  0  0  0  0
   38.8115   32.3827   50.3951 H   0  0  0  0  0  0  0  0  0  0  0  0
   39.5592   33.2311   48.1236 H   0  0  0  0  0  0  0  0  0  0  0  0
   36.7750   31.6109   51.2111 H   0  0  0  0  0  0  0  0  0  0  0  0
   35.3069   29.4235   51.8022 H   0  0  0  0  0  0  0  0  0  0  0  0
   35.2406   29.0011   50.2969 H   0  0  0  0  0  0  0  0  0  0  0  0
   38.0747   28.6622   50.4341 H   0  0  0  0  0  0  0  0  0  0  0  0
   38.1188   28.8243   51.9687 H   0  0  0  0  0  0  0  0  0  0  0  0
   36.1458   29.5421   46.1163 H   0  0  0  0  0  0  0  0  0  0  0  0
   35.6396   31.1844   45.6620 H   0  0  0  0  0  0  0  0  0  0  0  0
   38.2983   29.9159   44.9283 H   0  0  0  0  0  0  0  0  0  0  0  0
   37.9995   31.4964   41.7241 H   0  0  0  0  0  0  0  0  0  0  0  0
   40.0087   32.6994   42.1679 H   0  0  0  0  0  0  0  0  0  0  0  0
   39.2767   33.0434   43.7255 H   0  0  0  0  0  0  0  0  0  0  0  0
   41.6309   31.7390   43.7031 H   0  0  0  0  0  0  0  0  0  0  0  0
   40.4467   31.0901   44.7853 H   0  0  0  0  0  0  0  0  0  0  0  0
   40.9545   30.3029   41.8131 H   0  0  0  0  0  0  0  0  0  0  0  0
   41.0510   29.2072   43.1690 H   0  0  0  0  0  0  0  0  0  0  0  0
   38.6621   29.3231   43.5617 H   0  0  0  0  0  0  0  0  0  0  0  0
   38.7520   29.3380   41.7975 H   0  0  0  0  0  0  0  0  0  0  0  0
  1  2  2  0
  1  7  1  0
  3  2  1  0
  4  5  1  0
  4  3  2  0
  5  6  2  0
  6  1  1  0
  7  8  1  0
  7  9  1  0
  8  9  1  0
 10  5  1  0
 11 13  1  0
 12 11  2  0
 13 10  1  0
 14 15  1  0
 14 11  1  0
 15 16  1  0
 17 16  1  0
 18 14  1  0
 18 17  1  0
  2 19  1  0
  3 20  1  0
  7 21  1  0
  8 22  1  0
  8 23  1  0
  9 24  1  0
  9 25  1  0
 10 26  1  0
 10 27  1  0
 13 28  1  0
 14 29  1  0
 15 30  1  0
 15 31  1  0
 16 32  1  0
 16 33  1  0
 17 34  1  0
 17 35  1  0
 18 36  1  0
 18 37  1  0
M  ISO  8  19  14  20  14  21  13  22  13  23  13  24  13  25  13  26   8
M  ISO  8  27   8  29  13  30  13  31  13  32  13  33  13  34  13  35  13
M  ISO  2  36  13  37  13
M  END
>  <minimizedAffinity>  (1) 
-4.99793005

>  <minimizedRMSD>  (1) 
3.06505609

$$$$
