
     RDKit          3D

 30 31  0  0  0  0  0  0  0  0999 V2000
   36.3020   30.4760   49.8900 C   0  0  0  0  0  0  0  0  0  0  0  0
   35.8490   29.4740   49.2130 C   0  0  0  0  0  0  0  0  0  0  0  0
   38.3530   33.4100   49.1010 C   0  0  0  0  0  0  0  0  0  0  0  0
   39.0800   32.9380   47.9720 C   0  0  0  0  0  0  0  0  0  0  0  0
   38.8460   31.6170   47.5090 C   0  0  0  0  0  0  0  0  0  0  0  0
   37.9140   30.8960   48.2120 N   0  0  0  0  0  0  0  0  0  0  0  0
   37.2550   31.3810   49.2660 C   0  0  0  0  0  0  0  0  0  0  0  0
   37.4720   32.6280   49.7090 N   0  0  0  0  0  0  0  0  0  0  0  0
   34.9110   28.4600   49.6450 C   0  0  0  0  0  0  0  0  0  0  0  0
   33.7060   28.2250   48.7880 C   0  0  0  0  0  0  0  0  0  0  0  0
   33.8470   29.2550   47.6480 C   0  0  0  0  0  0  0  0  0  0  0  0
   33.1650   28.6600   46.4590 C   0  0  0  0  0  0  0  0  0  0  0  0
   32.8850   27.2270   46.8040 C   0  0  0  0  0  0  0  0  0  0  0  0
   33.8730   26.9520   47.9460 C   0  0  0  0  0  0  0  0  0  0  0  0
   35.9714   30.6432   50.9257 H   0  0  0  0  0  0  0  0  0  0  0  0
   36.2215   29.3796   48.1823 H   0  0  0  0  0  0  0  0  0  0  0  0
   38.5235   34.4315   49.4718 H   0  0  0  0  0  0  0  0  0  0  0  0
   39.8110   33.5863   47.4668 H   0  0  0  0  0  0  0  0  0  0  0  0
   39.3778   31.1980   46.6420 H   0  0  0  0  0  0  0  0  0  0  0  0
   35.4601   27.5090   49.7099 H   0  0  0  0  0  0  0  0  0  0  0  0
   34.5093   28.8364   50.5974 H   0  0  0  0  0  0  0  0  0  0  0  0
   32.8097   28.2291   49.4256 H   0  0  0  0  0  0  0  0  0  0  0  0
   33.3647   30.2028   47.9291 H   0  0  0  0  0  0  0  0  0  0  0  0
   34.9038   29.4737   47.4350 H   0  0  0  0  0  0  0  0  0  0  0  0
   33.8193   28.7180   45.5766 H   0  0  0  0  0  0  0  0  0  0  0  0
   32.2376   29.2009   46.2193 H   0  0  0  0  0  0  0  0  0  0  0  0
   31.8456   27.0962   47.1394 H   0  0  0  0  0  0  0  0  0  0  0  0
   33.0044   26.5427   45.9511 H   0  0  0  0  0  0  0  0  0  0  0  0
   33.5942   26.0522   48.5139 H   0  0  0  0  0  0  0  0  0  0  0  0
   34.9044   26.7569   47.6172 H   0  0  0  0  0  0  0  0  0  0  0  0
  2  9  1  0
  2  1  2  0
  3  8  2  0
  4  3  1  0
  5  4  2  0
  5  6  1  0
  6  7  2  0
  7  8  1  0
  7  1  1  0
 10  9  1  0
 11 10  1  0
 12 13  1  0
 12 11  1  0
 13 14  1  0
 14 10  1  0
  1 15  1  0
  2 16  1  0
  3 17  1  0
  4 18  1  0
  5 19  1  0
  9 20  1  0
  9 21  1  0
 10 22  1  0
 11 23  1  0
 11 24  1  0
 12 25  1  0
 12 26  1  0
 13 27  1  0
 13 28  1  0
 14 29  1  0
 14 30  1  0
M  ISO  8  17  14  18  14  19  14  20   8  21   8  22  13  23  13  24  13
M  ISO  6  25  13  26  13  27  13  28  13  29  13  30  13
M  END
>  <minimizedAffinity>  (1) 
-4.69676781

>  <minimizedRMSD>  (1) 
3.14405107

$$$$
