
     RDKit          3D

 42 44  0  0  0  0  0  0  0  0999 V2000
   35.3557   29.8306   46.7690 O   0  0  0  0  0  0  0  0  0  0  0  0
   34.1007   29.9929   47.6128 P   0  0  2  0  0  0  0  0  0  0  0  0
   33.0993   31.0323   46.7268 O   0  0  0  0  0  0  0  0  0  0  0  0
   34.4161   30.6329   49.1604 O   0  0  0  0  0  0  0  0  0  0  0  0
   35.6402   30.5114   49.7787 C   0  0  0  0  0  0  0  0  0  0  0  0
   35.9619   29.4911   50.7020 C   0  0  0  0  0  0  0  0  0  0  0  0
   37.2425   29.4940   51.2488 C   0  0  0  0  0  0  0  0  0  0  0  0
   38.1119   30.4740   50.8673 N   0  0  0  0  0  0  0  0  0  0  0  0
   37.7688   31.4429   49.9744 C   0  0  0  0  0  0  0  0  0  0  0  0
   36.5217   31.4582   49.4279 N   0  0  0  0  0  0  0  0  0  0  0  0
   33.3377   28.5094   47.8421 O   0  0  0  0  0  0  0  0  0  0  0  0
   33.0858   27.3351   45.8760 C   0  0  1  0  0  0  0  0  0  0  0  0
   33.9214   27.4773   47.1677 C   0  0  2  0  0  0  0  0  0  0  0  0
   33.8349   26.2414   47.7286 O   0  0  0  0  0  0  0  0  0  0  0  0
   34.0700   25.3677   46.6804 C   0  0  0  0  0  0  0  0  0  0  0  0
   33.4422   25.9570   45.4385 C   0  0  2  0  0  0  0  0  0  0  0  0
   31.7440   27.5251   46.1433 O   0  0  0  0  0  0  0  0  0  0  0  0
   34.3882   26.0058   44.4145 O   0  0  0  0  0  0  0  0  0  0  0  0
   32.2657   31.2136   47.2261 H   0  0  0  0  0  0  0  0  0  0  0  0
   35.1934   28.7648   50.9315 H   0  0  0  0  0  0  0  0  0  0  0  0
   37.4992   28.7219   51.9532 H   0  0  0  0  0  0  0  0  0  0  0  0
   38.4960   32.1923   49.7093 H   0  0  0  0  0  0  0  0  0  0  0  0
   33.4499   28.0795   45.1356 H   0  0  0  0  0  0  0  0  0  0  0  0
   34.9289   27.7932   46.8173 H   0  0  0  0  0  0  0  0  0  0  0  0
   35.1409   25.1086   46.5588 H   0  0  0  0  0  0  0  0  0  0  0  0
   33.5402   24.4222   46.9247 H   0  0  0  0  0  0  0  0  0  0  0  0
   32.5939   25.3432   45.0751 H   0  0  0  0  0  0  0  0  0  0  0  0
   31.3465   28.1116   45.4347 H   0  0  0  0  0  0  0  0  0  0  0  0
   33.9990   25.2962   43.2852 C   0  0  0  0  0  0  0  0  0  0  0  0
   32.6716   24.6299   43.5251 C   0  0  0  0  0  0  0  0  0  0  0  0
   31.7051   25.1829   42.5289 C   0  0  0  0  0  0  0  0  0  0  0  0
   32.4826   25.9562   41.4992 C   0  0  0  0  0  0  0  0  0  0  0  0
   33.8520   26.1788   42.0757 C   0  0  0  0  0  0  0  0  0  0  0  0
   34.7783   24.5043   43.1230 H   0  0  0  0  0  0  0  0  0  0  0  0
   32.7488   23.5218   43.3957 H   0  0  0  0  0  0  0  0  0  0  0  0
   32.2748   24.7879   44.5540 H   0  0  0  0  0  0  0  0  0  0  0  0
   31.1465   24.3891   41.9755 H   0  0  0  0  0  0  0  0  0  0  0  0
   30.8951   25.7921   43.0133 H   0  0  0  0  0  0  0  0  0  0  0  0
   31.9284   26.9260   41.3470 H   0  0  0  0  0  0  0  0  0  0  0  0
   32.5174   25.4484   40.5143 H   0  0  0  0  0  0  0  0  0  0  0  0
   34.6493   25.8821   41.3428 H   0  0  0  0  0  0  0  0  0  0  0  0
   33.9345   27.2678   42.3203 H   0  0  0  0  0  0  0  0  0  0  0  0
  2  1  2  0
  2 11  1  1
  2  4  1  0
  3  2  1  0
  4  5  1  0
  5  6  2  0
  6  7  1  0
  8  7  2  0
  9  8  1  0
 10  5  1  0
 10  9  2  0
 12 17  1  0
 12 13  1  0
 13 14  1  0
 13 11  1  0
 15 14  1  0
 16 18  1  0
 16 12  1  0
 16 15  1  0
  3 19  1  0
  6 20  1  0
  7 21  1  0
  9 22  1  0
 12 23  1  6
 13 24  1  6
 15 25  1  0
 15 26  1  0
 16 27  1  6
 17 28  1  0
 29 30  1  0
 30 31  1  0
 31 32  1  0
 32 33  1  0
 33 29  1  0
 29 34  1  0
 30 35  1  0
 30 36  1  0
 31 37  1  0
 31 38  1  0
 32 39  1  0
 32 40  1  0
 33 41  1  0
 33 42  1  0
 18 29  1  0
M  ISO  8  19   3  20  14  21  14  22  14  23  13  24  13  25  13  26  13
M  ISO  2  27  13  28   3
M  END
>  <DihAtoms>  (1) 
15,17,28,29

>  <DihDeg>  (1) 
117.81504840669649

$$$$
