
     RDKit          3D

 42 45  0  0  0  0  0  0  0  0999 V2000
   37.6795   31.2955   48.1987 C   0  0  0  0  0  0  0  0  0  0  0  0
   38.5313   32.3075   48.0914 C   0  0  0  0  0  0  0  0  0  0  0  0
   38.9259   32.7119   46.8670 C   0  0  0  0  0  0  0  0  0  0  0  0
   38.4151   32.0420   45.7825 C   0  0  0  0  0  0  0  0  0  0  0  0
   37.3345   30.7944   46.5765 S   0  0  0  0  0  0  0  0  0  0  0  0
   41.1553   31.2276   44.7171 Cl  0  0  0  0  0  0  0  0  0  0  0  0
   39.7802   31.8265   43.8030 C   0  0  0  0  0  0  0  0  0  0  0  0
   38.5872   32.1694   44.3554 C   0  0  0  0  0  0  0  0  0  0  0  0
   37.5143   32.6303   43.6905 C   0  0  0  0  0  0  0  0  0  0  0  0
   37.5996   32.7836   42.2969 C   0  0  0  0  0  0  0  0  0  0  0  0
   38.7725   32.4559   41.6817 C   0  0  0  0  0  0  0  0  0  0  0  0
   38.9560   32.6191   39.9509 Cl  0  0  0  0  0  0  0  0  0  0  0  0
   39.8525   31.9823   42.4236 C   0  0  0  0  0  0  0  0  0  0  0  0
   37.1543   29.9218   51.6794 C   0  0  0  0  0  0  0  0  0  0  0  0
   37.7931   30.5556   50.5924 C   0  0  0  0  0  0  0  0  0  0  0  0
   37.0815   30.6461   49.3859 C   0  0  0  0  0  0  0  0  0  0  0  0
   35.8515   30.1351   49.3262 N   0  0  0  0  0  0  0  0  0  0  0  0
   35.2601   29.5376   50.3650 C   0  0  0  0  0  0  0  0  0  0  0  0
   35.9092   29.4343   51.5284 N   0  0  0  0  0  0  0  0  0  0  0  0
   33.9183   29.0154   50.1925 C   0  0  0  0  0  0  0  0  0  0  0  0
   33.6711   28.2910   49.2020 O   0  0  0  0  0  0  0  0  0  0  0  0
   38.8899   32.7859   49.0012 H   0  0  0  0  0  0  0  0  0  0  0  0
   39.6098   33.5156   46.6223 H   0  0  0  0  0  0  0  0  0  0  0  0
   36.5564   32.9047   44.1420 H   0  0  0  0  0  0  0  0  0  0  0  0
   36.7489   33.1536   41.7348 H   0  0  0  0  0  0  0  0  0  0  0  0
   40.7837   31.7258   41.9073 H   0  0  0  0  0  0  0  0  0  0  0  0
   37.7108   29.8565   52.6064 H   0  0  0  0  0  0  0  0  0  0  0  0
   38.7881   30.9648   50.6536 H   0  0  0  0  0  0  0  0  0  0  0  0
   32.7975   29.2838   51.1238 C   0  0  0  0  0  0  0  0  0  0  0  0
   32.8022   30.7598   51.4607 C   0  0  0  0  0  0  0  0  0  0  0  0
   32.1412   31.4322   50.2738 C   0  0  0  0  0  0  0  0  0  0  0  0
   31.5374   30.3071   49.4300 C   0  0  0  0  0  0  0  0  0  0  0  0
   31.4516   29.1644   50.4215 C   0  0  0  0  0  0  0  0  0  0  0  0
   32.8803   28.6208   51.9842 H   0  0  0  0  0  0  0  0  0  0  0  0
   33.8314   31.1322   51.6005 H   0  0  0  0  0  0  0  0  0  0  0  0
   32.1632   30.9271   52.3613 H   0  0  0  0  0  0  0  0  0  0  0  0
   31.3307   32.1180   50.5479 H   0  0  0  0  0  0  0  0  0  0  0  0
   32.9255   31.9386   49.6713 H   0  0  0  0  0  0  0  0  0  0  0  0
   30.5675   30.5941   48.9970 H   0  0  0  0  0  0  0  0  0  0  0  0
   32.2158   30.0819   48.5815 H   0  0  0  0  0  0  0  0  0  0  0  0
   31.2885   28.1920   49.9525 H   0  0  0  0  0  0  0  0  0  0  0  0
   30.6844   29.4650   51.1676 H   0  0  0  0  0  0  0  0  0  0  0  0
  1 16  1  0
  2  1  2  0
  3  2  1  0
  4  5  1  0
  4  3  2  0
  5  1  1  0
  7  8  2  0
  7  6  1  0
  8  4  1  0
  9  8  1  0
 10  9  2  0
 11 10  1  0
 11 13  2  0
 12 11  1  0
 13  7  1  0
 15 14  2  0
 16 15  1  0
 17 16  2  0
 17 18  1  0
 18 19  2  0
 19 14  1  0
 20 18  1  0
 21 20  2  0
  2 22  1  0
  3 23  1  0
  9 24  1  0
 10 25  1  0
 13 26  1  0
 14 27  1  0
 15 28  1  0
 29 30  1  0
 30 31  1  0
 31 32  1  0
 32 33  1  0
 33 29  1  0
 29 34  1  0
 30 35  1  0
 30 36  1  0
 31 37  1  0
 31 38  1  0
 32 39  1  0
 32 40  1  0
 33 41  1  0
 33 42  1  0
 20 29  1  0
M  ISO  7  22  14  23  14  24  14  25  14  26  14  27  14  28  14
M  END
>  <DihAtoms>  (1) 
17,19,28,29

>  <DihDeg>  (1) 
179.99488880468752

$$$$
