
     RDKit          3D

 38 40  0  0  1  0  0  0  0  0999 V2000
   37.1860   31.8040   48.8260 C   0  0  1  0  0  0  0  0  0  0  0  0
   36.3190   30.8920   48.1170 C   0  0  0  0  0  0  0  0  0  0  0  0
   37.3430   30.3610   49.0610 C   0  0  2  0  0  0  0  0  0  0  0  0
   38.3150   32.5010   48.1170 C   0  0  0  0  0  0  0  0  0  0  0  0
   38.9350   33.5490   48.8330 C   0  0  0  0  0  0  0  0  0  0  0  0
   39.9700   34.1640   48.1720 C   0  0  0  0  0  0  0  0  0  0  0  0
   40.3300   33.7550   46.9270 N   0  0  0  0  0  0  0  0  0  0  0  0
   39.7100   32.7450   46.2750 C   0  0  0  0  0  0  0  0  0  0  0  0
   38.6690   32.1080   46.9030 N   0  0  0  0  0  0  0  0  0  0  0  0
   40.0750   32.2910   45.0020 N   0  0  0  0  0  0  0  0  0  0  0  0
   36.8580   29.9140   50.2960 O   0  0  0  0  0  0  0  0  0  0  0  0
   34.7980   28.8950   51.4620 O   0  0  0  0  0  0  0  0  0  0  0  0
   35.2770   29.4060   50.1420 P   0  0  1  0  0  0  0  0  0  0  0  0
   34.2760   30.8060   49.8770 O   0  0  0  0  0  0  0  0  0  0  0  0
   35.1190   28.3730   48.8660 O   0  0  0  0  0  0  0  0  0  0  0  0
   34.0640   27.5540   48.7730 C   0  0  0  0  0  0  0  0  0  0  0  0
   34.0660   26.9480   47.3810 C   0  0  0  0  0  0  0  0  0  0  0  0
   32.7960   26.1290   47.4540 C   0  0  0  0  0  0  0  0  0  0  0  0
   31.8690   26.9540   48.3030 C   0  0  0  0  0  0  0  0  0  0  0  0
   32.6950   28.1200   48.8440 C   0  0  0  0  0  0  0  0  0  0  0  0
   36.9877   32.6912   49.4453 H   0  0  0  0  0  0  0  0  0  0  0  0
   35.2513   30.8355   48.3755 H   0  0  0  0  0  0  0  0  0  0  0  0
   36.0726   30.7178   47.0592 H   0  0  0  0  0  0  0  0  0  0  0  0
   38.1620   29.6295   48.9971 H   0  0  0  0  0  0  0  0  0  0  0  0
   38.6139   33.8492   49.8414 H   0  0  0  0  0  0  0  0  0  0  0  0
   40.5107   34.9924   48.6531 H   0  0  0  0  0  0  0  0  0  0  0  0
   40.8511   32.7424   44.4972 H   0  0  0  0  0  0  0  0  0  0  0  0
   39.5674   31.5056   44.5702 H   0  0  0  0  0  0  0  0  0  0  0  0
   34.0037   31.1869   50.7493 H   0  0  0  0  0  0  0  0  0  0  0  0
   34.2104   26.9037   49.6480 H   0  0  0  0  0  0  0  0  0  0  0  0
   34.9506   26.3166   47.2111 H   0  0  0  0  0  0  0  0  0  0  0  0
   34.1032   27.6758   46.5571 H   0  0  0  0  0  0  0  0  0  0  0  0
   32.3727   25.9764   46.4502 H   0  0  0  0  0  0  0  0  0  0  0  0
   32.9668   25.1258   47.8717 H   0  0  0  0  0  0  0  0  0  0  0  0
   31.0326   27.3307   47.6960 H   0  0  0  0  0  0  0  0  0  0  0  0
   31.4429   26.3558   49.1219 H   0  0  0  0  0  0  0  0  0  0  0  0
   32.4139   28.3688   49.8780 H   0  0  0  0  0  0  0  0  0  0  0  0
   32.5648   29.0625   48.2920 H   0  0  0  0  0  0  0  0  0  0  0  0
  1  3  1  0
  2  1  1  0
  2  3  1  0
  3 11  1  0
  4  1  1  0
  4  5  2  0
  6  5  1  0
  7  6  2  0
  8  9  2  0
  8  7  1  0
  9  4  1  0
 10  8  1  0
 13 11  1  0
 13 12  2  0
 14 13  1  0
 15 13  1  0
 16 20  1  0
 16 15  1  0
 17 18  1  0
 17 16  1  0
 18 19  1  0
 19 20  1  0
  1 21  1  1
  2 22  1  0
  2 23  1  0
  3 24  1  6
  5 25  1  0
  6 26  1  0
 10 27  1  0
 10 28  1  0
 14 29  1  0
 16 30  1  0
 17 31  1  0
 17 32  1  0
 18 33  1  0
 18 34  1  0
 19 35  1  0
 19 36  1  0
 20 37  1  0
 20 38  1  0
M  ISO  8  21  13  22  13  23  13  24  13  25  14  26  14  29   3  30  13
M  ISO  8  31  13  32  13  33  13  34  13  35  13  36  13  37  13  38  13
M  END
>  <minimizedAffinity>  (1) 
-4.91861343

>  <minimizedRMSD>  (1) 
1.59881353

$$$$
