
     RDKit          3D

 33 35  0  0  0  0  0  0  0  0999 V2000
   37.9216   30.8724   46.7333 C   0  0  0  0  0  0  0  0  0  0  0  0
   38.0573   31.0367   48.1364 C   0  0  0  0  0  0  0  0  0  0  0  0
   36.9336   30.8127   48.9287 C   0  0  0  0  0  0  0  0  0  0  0  0
   35.7649   30.4480   48.3142 N   0  0  0  0  0  0  0  0  0  0  0  0
   35.6681   30.3005   46.9823 C   0  0  0  0  0  0  0  0  0  0  0  0
   36.7557   30.5161   46.2028 N   0  0  0  0  0  0  0  0  0  0  0  0
   39.0994   31.1074   45.9058 C   0  0  0  0  0  0  0  0  0  0  0  0
   39.9217   32.1974   45.9078 C   0  0  0  0  0  0  0  0  0  0  0  0
   40.9362   32.0305   44.9636 C   0  0  0  0  0  0  0  0  0  0  0  0
   40.6775   30.8066   44.4113 N   0  0  0  0  0  0  0  0  0  0  0  0
   39.6061   30.2945   44.9774 N   0  0  0  0  0  0  0  0  0  0  0  0
   37.0547   30.9800   50.4065 C   0  0  0  0  0  0  0  0  0  0  0  0
   36.5598   32.2457   50.6801 F   0  0  0  0  0  0  0  0  0  0  0  0
   36.3020   30.0645   51.1099 F   0  0  0  0  0  0  0  0  0  0  0  0
   38.3654   30.9412   50.8288 F   0  0  0  0  0  0  0  0  0  0  0  0
   38.9819   31.3220   48.5875 H   0  0  0  0  0  0  0  0  0  0  0  0
   34.7141   30.0086   46.5438 H   0  0  0  0  0  0  0  0  0  0  0  0
   39.8424   33.0906   46.5327 H   0  0  0  0  0  0  0  0  0  0  0  0
   41.7524   32.6853   44.6981 H   0  0  0  0  0  0  0  0  0  0  0  0
   41.5198   30.2295   43.3528 C   0  0  0  0  0  0  0  0  0  0  0  0
   41.1770   30.8369   42.0111 C   0  0  0  0  0  0  0  0  0  0  0  0
   40.0345   29.9133   41.5694 C   0  0  0  0  0  0  0  0  0  0  0  0
   40.6942   28.5654   41.8119 C   0  0  0  0  0  0  0  0  0  0  0  0
   41.3025   28.7536   43.1797 C   0  0  0  0  0  0  0  0  0  0  0  0
   42.5867   30.4551   43.5554 H   0  0  0  0  0  0  0  0  0  0  0  0
   40.8443   31.8727   42.0426 H   0  0  0  0  0  0  0  0  0  0  0  0
   42.0159   30.6705   41.3130 H   0  0  0  0  0  0  0  0  0  0  0  0
   39.1558   30.0544   42.2308 H   0  0  0  0  0  0  0  0  0  0  0  0
   39.8177   30.1167   40.5123 H   0  0  0  0  0  0  0  0  0  0  0  0
   41.4942   28.5037   41.0168 H   0  0  0  0  0  0  0  0  0  0  0  0
   39.9959   27.7317   41.7263 H   0  0  0  0  0  0  0  0  0  0  0  0
   40.7542   28.2643   43.9870 H   0  0  0  0  0  0  0  0  0  0  0  0
   42.3128   28.2523   43.1204 H   0  0  0  0  0  0  0  0  0  0  0  0
  1  2  2  0
  2  3  1  0
  3 12  1  0
  4  3  2  0
  5  4  1  0
  6  1  1  0
  6  5  2  0
  7  1  1  0
  8  7  1  0
  9  8  2  0
 10  9  1  0
 10 11  1  0
 11  7  2  0
 12 13  1  0
 12 15  1  0
 12 14  1  0
  2 16  1  0
  5 17  1  0
  8 18  1  0
  9 19  1  0
 20 21  1  0
 21 22  1  0
 22 23  1  0
 23 24  1  0
 24 20  1  0
 20 25  1  0
 21 26  1  0
 21 27  1  0
 22 28  1  0
 22 29  1  0
 23 30  1  0
 23 31  1  0
 24 32  1  0
 24 33  1  0
 10 20  1  0
M  ISO  4  16  14  17  14  18  14  19  14
M  END
>  <DihAtoms>  (1) 
8,9,19,20

>  <DihDeg>  (1) 
-94.40240725048157

$$$$
