
     RDKit          3D

 33 35  0  0  0  0  0  0  0  0999 V2000
   37.9216   30.8724   46.7333 C   0  0  0  0  0  0  0  0  0  0  0  0
   38.0573   31.0367   48.1364 C   0  0  0  0  0  0  0  0  0  0  0  0
   36.9336   30.8127   48.9287 C   0  0  0  0  0  0  0  0  0  0  0  0
   35.7649   30.4480   48.3142 N   0  0  0  0  0  0  0  0  0  0  0  0
   35.6681   30.3005   46.9823 C   0  0  0  0  0  0  0  0  0  0  0  0
   36.7557   30.5161   46.2028 N   0  0  0  0  0  0  0  0  0  0  0  0
   39.0994   31.1074   45.9058 C   0  0  0  0  0  0  0  0  0  0  0  0
   39.9217   32.1974   45.9078 C   0  0  0  0  0  0  0  0  0  0  0  0
   40.9362   32.0305   44.9636 C   0  0  0  0  0  0  0  0  0  0  0  0
   40.6775   30.8066   44.4113 N   0  0  0  0  0  0  0  0  0  0  0  0
   39.6061   30.2945   44.9774 N   0  0  0  0  0  0  0  0  0  0  0  0
   37.0547   30.9800   50.4065 C   0  0  0  0  0  0  0  0  0  0  0  0
   36.5598   32.2457   50.6801 F   0  0  0  0  0  0  0  0  0  0  0  0
   36.3020   30.0645   51.1099 F   0  0  0  0  0  0  0  0  0  0  0  0
   38.3654   30.9412   50.8288 F   0  0  0  0  0  0  0  0  0  0  0  0
   38.9819   31.3220   48.5875 H   0  0  0  0  0  0  0  0  0  0  0  0
   34.7141   30.0086   46.5438 H   0  0  0  0  0  0  0  0  0  0  0  0
   39.8424   33.0906   46.5327 H   0  0  0  0  0  0  0  0  0  0  0  0
   41.7524   32.6853   44.6981 H   0  0  0  0  0  0  0  0  0  0  0  0
   41.5198   30.2295   43.3528 C   0  0  0  0  0  0  0  0  0  0  0  0
   40.6659   29.5499   42.3061 C   0  0  0  0  0  0  0  0  0  0  0  0
   40.5277   28.1518   42.9222 C   0  0  0  0  0  0  0  0  0  0  0  0
   41.9898   27.8657   43.2243 C   0  0  0  0  0  0  0  0  0  0  0  0
   42.4381   29.1566   43.8637 C   0  0  0  0  0  0  0  0  0  0  0  0
   42.0893   31.0339   42.8441 H   0  0  0  0  0  0  0  0  0  0  0  0
   39.6872   29.9976   42.1441 H   0  0  0  0  0  0  0  0  0  0  0  0
   41.2520   29.4376   41.3773 H   0  0  0  0  0  0  0  0  0  0  0  0
   39.9288   28.2057   43.8539 H   0  0  0  0  0  0  0  0  0  0  0  0
   40.0927   27.4848   42.1661 H   0  0  0  0  0  0  0  0  0  0  0  0
   42.4601   27.7321   42.2060 H   0  0  0  0  0  0  0  0  0  0  0  0
   42.1280   26.9733   43.8364 H   0  0  0  0  0  0  0  0  0  0  0  0
   42.5420   29.1085   44.9494 H   0  0  0  0  0  0  0  0  0  0  0  0
   43.4699   29.3457   43.4449 H   0  0  0  0  0  0  0  0  0  0  0  0
  1  2  2  0
  2  3  1  0
  3 12  1  0
  4  3  2  0
  5  4  1  0
  6  1  1  0
  6  5  2  0
  7  1  1  0
  8  7  1  0
  9  8  2  0
 10  9  1  0
 10 11  1  0
 11  7  2  0
 12 13  1  0
 12 15  1  0
 12 14  1  0
  2 16  1  0
  5 17  1  0
  8 18  1  0
  9 19  1  0
 20 21  1  0
 21 22  1  0
 22 23  1  0
 23 24  1  0
 24 20  1  0
 20 25  1  0
 21 26  1  0
 21 27  1  0
 22 28  1  0
 22 29  1  0
 23 30  1  0
 23 31  1  0
 24 32  1  0
 24 33  1  0
 10 20  1  0
M  ISO  4  16  14  17  14  18  14  19  14
M  END
>  <DihAtoms>  (1) 
8,9,19,20

>  <DihDeg>  (1) 
-94.40240725048157

$$$$
