
     RDKit          3D

 37 40  0  0  0  0  0  0  0  0999 V2000
   36.8470   30.5399   46.9028 C   0  0  0  0  0  0  0  0  0  0  0  0
   37.5152   31.0315   48.0217 C   0  0  0  0  0  0  0  0  0  0  0  0
   38.5068   31.9884   47.9026 C   0  0  0  0  0  0  0  0  0  0  0  0
   38.7893   32.4226   46.6045 C   0  0  0  0  0  0  0  0  0  0  0  0
   39.7249   33.3588   46.2312 N   0  0  0  0  0  0  0  0  0  0  0  0
   39.6505   33.4574   44.9068 C   0  0  0  0  0  0  0  0  0  0  0  0
   38.7172   32.6325   44.4261 N   0  0  0  0  0  0  0  0  0  0  0  0
   38.1619   31.9716   45.4712 C   0  0  0  0  0  0  0  0  0  0  0  0
   37.1644   31.0043   45.6283 C   0  0  0  0  0  0  0  0  0  0  0  0
   37.3921   30.0811   51.6649 C   0  0  0  0  0  0  0  0  0  0  0  0
   37.8614   30.6312   50.4793 C   0  0  0  0  0  0  0  0  0  0  0  0
   37.1335   30.5027   49.3224 C   0  0  0  0  0  0  0  0  0  0  0  0
   35.9441   29.8171   49.3980 N   0  0  0  0  0  0  0  0  0  0  0  0
   35.5110   29.2925   50.5622 C   0  0  0  0  0  0  0  0  0  0  0  0
   36.2191   29.4218   51.6701 N   0  0  0  0  0  0  0  0  0  0  0  0
   40.4575   34.3184   44.1659 O   0  0  0  0  0  0  0  0  0  0  0  0
   36.0661   29.7886   46.9793 H   0  0  0  0  0  0  0  0  0  0  0  0
   39.0342   32.3793   48.7625 H   0  0  0  0  0  0  0  0  0  0  0  0
   40.3674   33.8842   46.8937 H   0  0  0  0  0  0  0  0  0  0  0  0
   36.6633   30.6415   44.7435 H   0  0  0  0  0  0  0  0  0  0  0  0
   37.9527   30.1734   52.5837 H   0  0  0  0  0  0  0  0  0  0  0  0
   38.7961   31.1683   50.4268 H   0  0  0  0  0  0  0  0  0  0  0  0
   34.5497   28.7669   50.5058 H   0  0  0  0  0  0  0  0  0  0  0  0
   40.3387   34.3877   42.7405 C   0  0  0  0  0  0  0  0  0  0  0  0
   40.1760   33.0131   42.1240 C   0  0  0  0  0  0  0  0  0  0  0  0
   39.0143   33.1551   41.1477 C   0  0  0  0  0  0  0  0  0  0  0  0
   38.1281   34.1205   41.9011 C   0  0  0  0  0  0  0  0  0  0  0  0
   39.0839   35.1456   42.4183 C   0  0  0  0  0  0  0  0  0  0  0  0
   41.2345   34.9137   42.3115 H   0  0  0  0  0  0  0  0  0  0  0  0
   41.1211   32.7775   41.5927 H   0  0  0  0  0  0  0  0  0  0  0  0
   39.8898   32.2673   42.8741 H   0  0  0  0  0  0  0  0  0  0  0  0
   38.4846   32.1813   41.0857 H   0  0  0  0  0  0  0  0  0  0  0  0
   39.3427   33.5527   40.1801 H   0  0  0  0  0  0  0  0  0  0  0  0
   37.5978   33.5453   42.7015 H   0  0  0  0  0  0  0  0  0  0  0  0
   37.3946   34.5385   41.1820 H   0  0  0  0  0  0  0  0  0  0  0  0
   39.2789   35.8660   41.5978 H   0  0  0  0  0  0  0  0  0  0  0  0
   38.6995   35.7255   43.2814 H   0  0  0  0  0  0  0  0  0  0  0  0
  1  2  2  0
  2 12  1  0
  3  2  1  0
  4  3  2  0
  5  4  1  0
  6  5  1  0
  7  6  2  0
  7  8  1  0
  8  9  2  0
  8  4  1  0
  9  1  1  0
 10 15  2  0
 11 10  1  0
 12 13  1  0
 12 11  2  0
 13 14  2  0
 14 15  1  0
 16  6  1  0
  1 17  1  0
  3 18  1  0
  5 19  1  0
  9 20  1  0
 10 21  1  0
 11 22  1  0
 14 23  1  0
 24 25  1  0
 25 26  1  0
 26 27  1  0
 27 28  1  0
 28 24  1  0
 24 29  1  0
 25 30  1  0
 25 31  1  0
 26 32  1  0
 26 33  1  0
 27 34  1  0
 27 35  1  0
 28 36  1  0
 28 37  1  0
 16 24  1  0
M  ISO  7  17  14  18  14  19   9  20  14  21  14  22  14  23  14
M  END
>  <DihAtoms>  (1) 
5,15,23,24

>  <DihDeg>  (1) 
123.22673918316842

$$$$
