
     RDKit          3D

 33 35  0  0  0  0  0  0  0  0999 V2000
   37.2071   29.1038   50.5678 Cl  0  0  0  0  0  0  0  0  0  0  0  0
   35.9454   29.1965   49.3943 C   0  0  0  0  0  0  0  0  0  0  0  0
   35.9320   30.2219   48.4944 C   0  0  0  0  0  0  0  0  0  0  0  0
   34.9454   30.3394   47.5248 C   0  0  0  0  0  0  0  0  0  0  0  0
   33.9358   29.3934   47.4549 C   0  0  0  0  0  0  0  0  0  0  0  0
   33.9385   28.3411   48.3680 C   0  0  0  0  0  0  0  0  0  0  0  0
   32.7218   27.0786   48.3375 Cl  0  0  0  0  0  0  0  0  0  0  0  0
   34.9570   28.2630   49.3334 C   0  0  0  0  0  0  0  0  0  0  0  0
   37.9829   33.0878   49.5079 C   0  0  0  0  0  0  0  0  0  0  0  0
   39.0110   33.1028   48.5393 C   0  0  0  0  0  0  0  0  0  0  0  0
   38.9752   32.0974   47.5317 C   0  0  0  0  0  0  0  0  0  0  0  0
   37.9532   31.2208   47.6018 N   0  0  0  0  0  0  0  0  0  0  0  0
   36.9864   31.2331   48.5395 C   0  0  0  0  0  0  0  0  0  0  0  0
   37.0112   32.1703   49.4868 N   0  0  0  0  0  0  0  0  0  0  0  0
   34.8877   31.1211   46.7979 H   0  0  0  0  0  0  0  0  0  0  0  0
   33.1448   29.4434   46.7154 H   0  0  0  0  0  0  0  0  0  0  0  0
   38.0234   33.8644   50.2744 H   0  0  0  0  0  0  0  0  0  0  0  0
   39.8167   33.8220   48.5133 H   0  0  0  0  0  0  0  0  0  0  0  0
   39.7165   32.0256   46.7475 H   0  0  0  0  0  0  0  0  0  0  0  0
   34.9264   27.1156   50.2769 C   0  0  0  0  0  0  0  0  0  0  0  0
   33.8409   27.2479   51.3082 C   0  0  0  0  0  0  0  0  0  0  0  0
   34.3908   26.4945   52.4911 C   0  0  0  0  0  0  0  0  0  0  0  0
   35.8938   26.5174   52.3927 C   0  0  0  0  0  0  0  0  0  0  0  0
   36.2076   26.7581   50.9214 C   0  0  0  0  0  0  0  0  0  0  0  0
   34.6138   26.1813   49.7018 H   0  0  0  0  0  0  0  0  0  0  0  0
   33.6613   28.2959   51.6178 H   0  0  0  0  0  0  0  0  0  0  0  0
   32.8784   26.8490   50.9576 H   0  0  0  0  0  0  0  0  0  0  0  0
   33.9663   25.4708   52.4608 H   0  0  0  0  0  0  0  0  0  0  0  0
   34.0868   27.0069   53.4263 H   0  0  0  0  0  0  0  0  0  0  0  0
   36.2201   25.4891   52.7288 H   0  0  0  0  0  0  0  0  0  0  0  0
   36.3918   27.2805   52.9862 H   0  0  0  0  0  0  0  0  0  0  0  0
   37.0563   27.4410   50.7703 H   0  0  0  0  0  0  0  0  0  0  0  0
   36.6110   25.7600   50.5507 H   0  0  0  0  0  0  0  0  0  0  0  0
  2  1  1  0
  3 13  1  0
  3  2  2  0
  4  3  1  0
  5  4  2  0
  5  6  1  0
  6  7  1  0
  6  8  2  0
  8  2  1  0
 10  9  2  0
 11 12  2  0
 11 10  1  0
 12 13  1  0
 13 14  2  0
 14  9  1  0
  4 15  1  0
  5 16  1  0
  9 17  1  0
 10 18  1  0
 11 19  1  0
 20 21  1  0
 21 22  1  0
 22 23  1  0
 23 24  1  0
 24 20  1  0
 20 25  1  0
 21 26  1  0
 21 27  1  0
 22 28  1  0
 22 29  1  0
 23 30  1  0
 23 31  1  0
 24 32  1  0
 24 33  1  0
  8 20  1  0
M  ISO  5  15  14  16  14  17  14  18  14  19  14
M  END
>  <DihAtoms>  (1) 
5,7,19,20

>  <DihDeg>  (1) 
-103.34698648668305

$$$$
