
     RDKit          3D

 37 39  0  0  0  0  0  0  0  0999 V2000
   35.2990   28.6720   49.8780 C   0  0  0  0  0  0  0  0  0  0  0  0
   36.3520   29.6060   49.7090 C   0  0  0  0  0  0  0  0  0  0  0  0
   36.2410   30.5450   48.6930 C   0  0  0  0  0  0  0  0  0  0  0  0
   35.1210   30.5250   47.9020 N   0  0  0  0  0  0  0  0  0  0  0  0
   34.1330   29.6000   48.1070 C   0  0  0  0  0  0  0  0  0  0  0  0
   34.2210   28.6850   49.0830 N   0  0  0  0  0  0  0  0  0  0  0  0
   33.0740   29.7740   47.1660 N   0  0  0  0  0  0  0  0  0  0  0  0
   37.3040   31.5270   48.4850 C   0  0  0  0  0  0  0  0  0  0  0  0
   37.2980   32.5220   49.4400 C   0  0  0  0  0  0  0  0  0  0  0  0
   38.2450   33.5300   49.3810 C   0  0  0  0  0  0  0  0  0  0  0  0
   39.1830   33.5390   48.3830 C   0  0  0  0  0  0  0  0  0  0  0  0
   39.1640   32.5210   47.4340 C   0  0  0  0  0  0  0  0  0  0  0  0
   38.2390   31.5600   47.5120 N   0  0  0  0  0  0  0  0  0  0  0  0
   40.1350   32.4400   46.3130 C   0  0  0  0  0  0  0  0  0  0  0  0
   39.8560   33.4220   45.2050 C   0  0  0  0  0  0  0  0  0  0  0  0
   39.5250   32.5910   43.9890 C   0  0  0  0  0  0  0  0  0  0  0  0
   40.5020   31.4270   44.1900 C   0  0  0  0  0  0  0  0  0  0  0  0
   40.1400   31.0750   45.6390 C   0  0  0  0  0  0  0  0  0  0  0  0
   37.5250   29.5400   50.6240 C   0  0  0  0  0  0  0  0  0  0  0  0
   38.6960   29.9390   49.9740 F   0  0  0  0  0  0  0  0  0  0  0  0
   37.3080   30.3750   51.6770 F   0  0  0  0  0  0  0  0  0  0  0  0
   37.7510   28.2660   51.1200 F   0  0  0  0  0  0  0  0  0  0  0  0
   35.3686   27.9210   50.6787 H   0  0  0  0  0  0  0  0  0  0  0  0
   32.2542   29.1510   47.1922 H   0  0  0  0  0  0  0  0  0  0  0  0
   33.1296   30.5226   46.4607 H   0  0  0  0  0  0  0  0  0  0  0  0
   36.5461   32.5147   50.2428 H   0  0  0  0  0  0  0  0  0  0  0  0
   38.2442   34.3272   50.1389 H   0  0  0  0  0  0  0  0  0  0  0  0
   39.9384   34.3370   48.3324 H   0  0  0  0  0  0  0  0  0  0  0  0
   41.0966   32.6590   46.8002 H   0  0  0  0  0  0  0  0  0  0  0  0
   39.0055   34.0670   45.4706 H   0  0  0  0  0  0  0  0  0  0  0  0
   40.7183   34.0799   45.0219 H   0  0  0  0  0  0  0  0  0  0  0  0
   39.7256   33.1360   43.0548 H   0  0  0  0  0  0  0  0  0  0  0  0
   38.4681   32.2994   43.9001 H   0  0  0  0  0  0  0  0  0  0  0  0
   40.3029   30.5946   43.4990 H   0  0  0  0  0  0  0  0  0  0  0  0
   41.5619   31.6550   44.0040 H   0  0  0  0  0  0  0  0  0  0  0  0
   39.1505   30.5981   45.6978 H   0  0  0  0  0  0  0  0  0  0  0  0
   40.8316   30.3569   46.1037 H   0  0  0  0  0  0  0  0  0  0  0  0
  2  1  2  0
  2 19  1  0
  3  2  1  0
  4  5  1  0
  4  3  2  0
  5  6  2  0
  6  1  1  0
  7  5  1  0
  8  3  1  0
  8  9  2  0
 10  9  1  0
 11 10  2  0
 12 13  2  0
 12 11  1  0
 13  8  1  0
 14 12  1  0
 15 14  1  0
 16 17  1  0
 16 15  1  0
 17 18  1  0
 18 14  1  0
 19 22  1  0
 19 21  1  0
 20 19  1  0
  1 23  1  0
  7 24  1  0
  7 25  1  0
  9 26  1  0
 10 27  1  0
 11 28  1  0
 14 29  1  0
 15 30  1  0
 15 31  1  0
 16 32  1  0
 16 33  1  0
 17 34  1  0
 17 35  1  0
 18 36  1  0
 18 37  1  0
M  ISO  8  23  14  26  14  27  14  28  14  29  13  30  13  31  13  32  13
M  ISO  5  33  13  34  13  35  13  36  13  37  13
M  END
>  <minimizedAffinity>  (1) 
-7.50086927

>  <minimizedRMSD>  (1) 
0.80575788

$$$$
