
     RDKit          3D

 33 35  0  0  0  0  0  0  0  0999 V2000
   37.3752   31.3605   49.2082 C   0  0  0  0  0  0  0  0  0  0  0  0
   37.7036   32.6582   49.6036 C   0  0  0  0  0  0  0  0  0  0  0  0
   38.5858   33.3358   48.7628 C   0  0  0  0  0  0  0  0  0  0  0  0
   39.0652   32.7279   47.6437 N   0  0  0  0  0  0  0  0  0  0  0  0
   38.7068   31.4543   47.3084 C   0  0  0  0  0  0  0  0  0  0  0  0
   37.8369   30.7513   48.1161 N   0  0  0  0  0  0  0  0  0  0  0  0
   36.3931   30.6180   50.0616 C   0  0  0  0  0  0  0  0  0  0  0  0
   36.2647   29.1791   50.0396 C   0  0  0  0  0  0  0  0  0  0  0  0
   37.0503   29.7957   51.1745 C   0  0  0  0  0  0  0  0  0  0  0  0
   39.1854   30.7911   46.1056 C   0  0  0  0  0  0  0  0  0  0  0  0
   37.2992   33.1049   50.5021 H   0  0  0  0  0  0  0  0  0  0  0  0
   38.8931   34.3485   48.9968 H   0  0  0  0  0  0  0  0  0  0  0  0
   35.5914   31.3267   50.4253 H   0  0  0  0  0  0  0  0  0  0  0  0
   36.8877   28.6346   49.2973 H   0  0  0  0  0  0  0  0  0  0  0  0
   35.2937   28.6896   50.2246 H   0  0  0  0  0  0  0  0  0  0  0  0
   36.5340   29.8189   52.1313 H   0  0  0  0  0  0  0  0  0  0  0  0
   38.1362   29.7471   51.2068 H   0  0  0  0  0  0  0  0  0  0  0  0
   38.9368   31.3329   45.1842 H   0  0  0  0  0  0  0  0  0  0  0  0
   40.2920   30.7200   46.1704 H   0  0  0  0  0  0  0  0  0  0  0  0
   38.6636   29.3864   45.9313 C   0  0  0  0  0  0  0  0  0  0  0  0
   37.8934   29.3764   44.6073 C   0  0  0  0  0  0  0  0  0  0  0  0
   36.7975   28.3470   44.7598 C   0  0  0  0  0  0  0  0  0  0  0  0
   36.7876   27.9648   46.2297 C   0  0  0  0  0  0  0  0  0  0  0  0
   37.6037   29.0307   46.9322 C   0  0  0  0  0  0  0  0  0  0  0  0
   39.4394   28.6249   45.8494 H   0  0  0  0  0  0  0  0  0  0  0  0
   37.4472   30.3720   44.4740 H   0  0  0  0  0  0  0  0  0  0  0  0
   38.5621   29.0927   43.7767 H   0  0  0  0  0  0  0  0  0  0  0  0
   35.8069   28.7576   44.4767 H   0  0  0  0  0  0  0  0  0  0  0  0
   37.0010   27.4715   44.0980 H   0  0  0  0  0  0  0  0  0  0  0  0
   37.2985   26.9934   46.3072 H   0  0  0  0  0  0  0  0  0  0  0  0
   35.7663   27.8742   46.6150 H   0  0  0  0  0  0  0  0  0  0  0  0
   38.0019   28.5680   47.8556 H   0  0  0  0  0  0  0  0  0  0  0  0
   36.9733   29.9254   47.1129 H   0  0  0  0  0  0  0  0  0  0  0  0
  1  2  2  0
  1  7  1  0
  3  2  1  0
  4  3  2  0
  5  4  1  0
  5  6  2  0
  6  1  1  0
  7  9  1  0
  8  7  1  0
  8  9  1  0
 10  5  1  0
  2 11  1  0
  3 12  1  0
  7 13  1  0
  8 14  1  0
  8 15  1  0
  9 16  1  0
  9 17  1  0
 10 18  1  0
 10 19  1  0
 20 21  1  0
 21 22  1  0
 22 23  1  0
 23 24  1  0
 24 20  1  0
 20 25  1  0
 21 26  1  0
 21 27  1  0
 22 28  1  0
 22 29  1  0
 23 30  1  0
 23 31  1  0
 24 32  1  0
 24 33  1  0
 10 20  1  0
M  ISO  8  11  14  12  14  13  13  14  13  15  13  16  13  17  13  18   8
M  ISO  1  19   8
M  END
>  <DihAtoms>  (1) 
4,9,19,20

>  <DihDeg>  (1) 
179.9991174348508

$$$$
