
     RDKit          3D

 44 48  0  0  1  0  0  0  0  0999 V2000
   34.1280   29.1890   49.6120 C   0  0  1  0  0  0  0  0  0  0  0  0
   34.8520   28.7170   50.9180 C   0  0  0  0  0  0  0  0  0  0  0  0
   35.5540   28.8120   49.6130 C   0  0  2  0  0  0  0  0  0  0  0  0
   31.1750   27.3510   48.6650 C   0  0  0  0  0  0  0  0  0  0  0  0
   32.1510   26.6260   47.9850 C   0  0  0  0  0  0  0  0  0  0  0  0
   33.3940   27.2250   48.2530 C   0  0  0  0  0  0  0  0  0  0  0  0
   33.1490   28.2680   49.0650 N   0  0  0  0  0  0  0  0  0  0  0  0
   31.8560   28.2980   49.2720 N   0  0  0  0  0  0  0  0  0  0  0  0
   28.9460   27.0570   49.7820 C   0  0  0  0  0  0  0  0  0  0  0  0
   29.7730   27.0350   48.6290 C   0  0  0  0  0  0  0  0  0  0  0  0
   29.1700   26.6900   47.4350 C   0  0  0  0  0  0  0  0  0  0  0  0
   27.8390   26.3950   47.4330 N   0  0  0  0  0  0  0  0  0  0  0  0
   27.0980   26.4300   48.5540 C   0  0  0  0  0  0  0  0  0  0  0  0
   27.6570   26.7650   49.7450 N   0  0  0  0  0  0  0  0  0  0  0  0
   36.5910   29.8790   49.4040 C   0  0  0  0  0  0  0  0  0  0  0  0
   37.9130   29.7770   49.8520 C   0  0  0  0  0  0  0  0  0  0  0  0
   38.5500   30.9230   49.4920 N   0  0  0  0  0  0  0  0  0  0  0  0
   37.6550   31.7150   48.8390 C   0  0  0  0  0  0  0  0  0  0  0  0
   36.4540   31.0830   48.7830 N   0  0  0  0  0  0  0  0  0  0  0  0
   37.9690   33.0770   48.2780 C   0  0  0  0  0  0  0  0  0  0  0  0
   39.2400   33.0380   47.4960 C   0  0  0  0  0  0  0  0  0  0  0  0
   40.2660   33.6860   48.3950 C   0  0  0  0  0  0  0  0  0  0  0  0
   39.5580   34.1740   49.6240 C   0  0  0  0  0  0  0  0  0  0  0  0
   38.0880   34.1020   49.3620 C   0  0  0  0  0  0  0  0  0  0  0  0
   33.5683   30.0730   49.2725 H   0  0  0  0  0  0  0  0  0  0  0  0
   35.0728   29.4347   51.7218 H   0  0  0  0  0  0  0  0  0  0  0  0
   34.6895   27.9341   51.6734 H   0  0  0  0  0  0  0  0  0  0  0  0
   36.1487   28.0963   49.0264 H   0  0  0  0  0  0  0  0  0  0  0  0
   31.9796   25.7430   47.3518 H   0  0  0  0  0  0  0  0  0  0  0  0
   34.3749   26.9034   47.8729 H   0  0  0  0  0  0  0  0  0  0  0  0
   29.3967   27.3286   50.7480 H   0  0  0  0  0  0  0  0  0  0  0  0
   29.7531   26.6540   46.5029 H   0  0  0  0  0  0  0  0  0  0  0  0
   26.0268   26.1845   48.5058 H   0  0  0  0  0  0  0  0  0  0  0  0
   38.3544   28.9279   50.3943 H   0  0  0  0  0  0  0  0  0  0  0  0
   39.5364   31.1520   49.6802 H   0  0  0  0  0  0  0  0  0  0  0  0
   37.1362   33.3601   47.6175 H   0  0  0  0  0  0  0  0  0  0  0  0
   39.5239   31.9997   47.2694 H   0  0  0  0  0  0  0  0  0  0  0  0
   39.1489   33.5553   46.5295 H   0  0  0  0  0  0  0  0  0  0  0  0
   41.0360   32.9515   48.6738 H   0  0  0  0  0  0  0  0  0  0  0  0
   40.7560   34.5234   47.8766 H   0  0  0  0  0  0  0  0  0  0  0  0
   39.8169   33.5373   50.4829 H   0  0  0  0  0  0  0  0  0  0  0  0
   39.8573   35.2068   49.8559 H   0  0  0  0  0  0  0  0  0  0  0  0
   37.7017   35.0753   49.0252 H   0  0  0  0  0  0  0  0  0  0  0  0
   37.5079   33.8416   50.2596 H   0  0  0  0  0  0  0  0  0  0  0  0
  1  3  1  0
  1  2  1  0
  3  2  1  0
  4  8  2  0
  5  6  2  0
  5  4  1  0
  6  7  1  0
  7  8  1  0
  7  1  1  0
 10  4  1  0
 10  9  2  0
 11 10  1  0
 12 11  2  0
 12 13  1  0
 13 14  2  0
 14  9  1  0
 15  3  1  0
 15 16  2  0
 17 16  1  0
 18 17  1  0
 19 18  2  0
 19 15  1  0
 20 18  1  0
 20 24  1  0
 21 20  1  0
 21 22  1  0
 22 23  1  0
 24 23  1  0
  1 25  1  1
  2 26  1  0
  2 27  1  0
  3 28  1  6
  5 29  1  0
  6 30  1  0
  9 31  1  0
 11 32  1  0
 13 33  1  0
 16 34  1  0
 17 35  1  0
 20 36  1  0
 21 37  1  0
 21 38  1  0
 22 39  1  0
 22 40  1  0
 23 41  1  0
 23 42  1  0
 24 43  1  0
 24 44  1  0
M  ISO  8  25  13  26  13  27  13  28  13  29  14  30  14  31  14  32  14
M  ISO  8  33  14  34  14  35   9  36  13  37  13  38  13  39  13  40  13
M  ISO  4  41  13  42  13  43  13  44  13
M  END
>  <minimizedAffinity>  (1) 
-4.86630869

>  <minimizedRMSD>  (1) 
3.28358483

$$$$
