
     RDKit          3D

 33 35  0  0  0  0  0  0  0  0999 V2000
   37.3752   31.3605   49.2082 C   0  0  0  0  0  0  0  0  0  0  0  0
   37.7036   32.6582   49.6036 C   0  0  0  0  0  0  0  0  0  0  0  0
   38.5858   33.3358   48.7628 C   0  0  0  0  0  0  0  0  0  0  0  0
   39.0652   32.7279   47.6437 N   0  0  0  0  0  0  0  0  0  0  0  0
   38.7068   31.4543   47.3084 C   0  0  0  0  0  0  0  0  0  0  0  0
   37.8369   30.7513   48.1161 N   0  0  0  0  0  0  0  0  0  0  0  0
   36.3931   30.6180   50.0616 C   0  0  0  0  0  0  0  0  0  0  0  0
   36.2647   29.1791   50.0396 C   0  0  0  0  0  0  0  0  0  0  0  0
   37.0503   29.7957   51.1745 C   0  0  0  0  0  0  0  0  0  0  0  0
   39.1854   30.7911   46.1056 C   0  0  0  0  0  0  0  0  0  0  0  0
   37.2992   33.1049   50.5021 H   0  0  0  0  0  0  0  0  0  0  0  0
   38.8931   34.3485   48.9968 H   0  0  0  0  0  0  0  0  0  0  0  0
   35.5914   31.3267   50.4253 H   0  0  0  0  0  0  0  0  0  0  0  0
   36.8877   28.6346   49.2973 H   0  0  0  0  0  0  0  0  0  0  0  0
   35.2937   28.6896   50.2246 H   0  0  0  0  0  0  0  0  0  0  0  0
   36.5340   29.8189   52.1313 H   0  0  0  0  0  0  0  0  0  0  0  0
   38.1362   29.7471   51.2068 H   0  0  0  0  0  0  0  0  0  0  0  0
   38.9368   31.3329   45.1842 H   0  0  0  0  0  0  0  0  0  0  0  0
   40.2920   30.7200   46.1704 H   0  0  0  0  0  0  0  0  0  0  0  0
   38.6636   29.3864   45.9313 C   0  0  0  0  0  0  0  0  0  0  0  0
   38.7973   28.7069   47.2975 C   0  0  0  0  0  0  0  0  0  0  0  0
   39.0258   27.2385   47.0223 C   0  0  0  0  0  0  0  0  0  0  0  0
   39.2722   27.1290   45.5277 C   0  0  0  0  0  0  0  0  0  0  0  0
   39.5433   28.5430   45.0559 C   0  0  0  0  0  0  0  0  0  0  0  0
   37.6112   29.3284   45.6531 H   0  0  0  0  0  0  0  0  0  0  0  0
   39.6814   29.1300   47.7950 H   0  0  0  0  0  0  0  0  0  0  0  0
   37.8720   28.8393   47.8840 H   0  0  0  0  0  0  0  0  0  0  0  0
   39.9069   26.8503   47.5729 H   0  0  0  0  0  0  0  0  0  0  0  0
   38.1375   26.6461   47.3476 H   0  0  0  0  0  0  0  0  0  0  0  0
   38.3376   26.7597   45.0795 H   0  0  0  0  0  0  0  0  0  0  0  0
   40.0870   26.4319   45.3042 H   0  0  0  0  0  0  0  0  0  0  0  0
   39.2684   28.5779   43.9842 H   0  0  0  0  0  0  0  0  0  0  0  0
   40.6015   28.8078   45.2578 H   0  0  0  0  0  0  0  0  0  0  0  0
  1  2  2  0
  1  7  1  0
  3  2  1  0
  4  3  2  0
  5  4  1  0
  5  6  2  0
  6  1  1  0
  7  9  1  0
  8  7  1  0
  8  9  1  0
 10  5  1  0
  2 11  1  0
  3 12  1  0
  7 13  1  0
  8 14  1  0
  8 15  1  0
  9 16  1  0
  9 17  1  0
 10 18  1  0
 10 19  1  0
 20 21  1  0
 21 22  1  0
 22 23  1  0
 23 24  1  0
 24 20  1  0
 20 25  1  0
 21 26  1  0
 21 27  1  0
 22 28  1  0
 22 29  1  0
 23 30  1  0
 23 31  1  0
 24 32  1  0
 24 33  1  0
 10 20  1  0
M  ISO  8  11  14  12  14  13  13  14  13  15  13  16  13  17  13  18   8
M  ISO  1  19   8
M  END
>  <DihAtoms>  (1) 
4,9,19,20

>  <DihDeg>  (1) 
179.9991174348508

$$$$
