
     RDKit          3D

 30 32  0  0  1  0  0  0  0  0999 V2000
   37.3570   31.5990   47.6740 C   0  0  1  0  0  0  0  0  0  0  0  0
   36.3070   30.6350   47.3590 C   0  0  0  0  0  0  0  0  0  0  0  0
   37.5970   30.1250   47.9520 C   0  0  2  0  0  0  0  0  0  0  0  0
   38.2490   32.1520   46.5880 C   0  0  0  0  0  0  0  0  0  0  0  0
   39.4930   32.6830   46.9750 C   0  0  0  0  0  0  0  0  0  0  0  0
   40.2610   33.2020   45.9470 C   0  0  0  0  0  0  0  0  0  0  0  0
   39.8130   33.1820   44.6730 N   0  0  0  0  0  0  0  0  0  0  0  0
   38.6110   32.6640   44.3320 C   0  0  0  0  0  0  0  0  0  0  0  0
   37.8180   32.1400   45.3130 N   0  0  0  0  0  0  0  0  0  0  0  0
   37.4650   29.6780   49.3620 C   0  0  0  0  0  0  0  0  0  0  0  0
   37.9330   30.8060   50.2590 C   0  0  0  0  0  0  0  0  0  0  0  0
   37.4470   30.3040   51.6210 C   0  0  0  0  0  0  0  0  0  0  0  0
   36.2340   29.4420   51.3220 C   0  0  0  0  0  0  0  0  0  0  0  0
   36.0480   29.4560   49.8170 C   0  0  0  0  0  0  0  0  0  0  0  0
   37.3351   32.5443   48.2361 H   0  0  0  0  0  0  0  0  0  0  0  0
   35.3854   30.6162   47.9593 H   0  0  0  0  0  0  0  0  0  0  0  0
   35.7295   30.3957   46.4539 H   0  0  0  0  0  0  0  0  0  0  0  0
   38.3846   29.4050   47.6851 H   0  0  0  0  0  0  0  0  0  0  0  0
   39.8317   32.6856   48.0215 H   0  0  0  0  0  0  0  0  0  0  0  0
   41.2470   33.6355   46.1701 H   0  0  0  0  0  0  0  0  0  0  0  0
   38.2781   32.6647   43.2836 H   0  0  0  0  0  0  0  0  0  0  0  0
   38.0342   28.7385   49.4197 H   0  0  0  0  0  0  0  0  0  0  0  0
   39.0272   30.9164   50.2343 H   0  0  0  0  0  0  0  0  0  0  0  0
   37.5562   31.8003   49.9773 H   0  0  0  0  0  0  0  0  0  0  0  0
   38.2300   29.7092   52.1140 H   0  0  0  0  0  0  0  0  0  0  0  0
   37.2023   31.1341   52.3000 H   0  0  0  0  0  0  0  0  0  0  0  0
   36.4042   28.4135   51.6732 H   0  0  0  0  0  0  0  0  0  0  0  0
   35.3398   29.8269   51.8342 H   0  0  0  0  0  0  0  0  0  0  0  0
   35.3870   30.2753   49.4980 H   0  0  0  0  0  0  0  0  0  0  0  0
   35.5736   28.5520   49.4075 H   0  0  0  0  0  0  0  0  0  0  0  0
  1  3  1  0
  2  1  1  0
  2  3  1  0
  3 10  1  0
  4  5  2  0
  4  1  1  0
  6  5  1  0
  7  6  2  0
  8  7  1  0
  8  9  2  0
  9  4  1  0
 10 14  1  0
 10 11  1  0
 11 12  1  0
 13 12  1  0
 14 13  1  0
  1 15  1  1
  2 16  1  0
  2 17  1  0
  3 18  1  6
  5 19  1  0
  6 20  1  0
  8 21  1  0
 10 22  1  0
 11 23  1  0
 11 24  1  0
 12 25  1  0
 12 26  1  0
 13 27  1  0
 13 28  1  0
 14 29  1  0
 14 30  1  0
M  ISO  8  15  13  16  13  17  13  18  13  19  14  20  14  21  14  22  13
M  ISO  8  23  13  24  13  25  13  26  13  27  13  28  13  29  13  30  13
M  END
>  <minimizedAffinity>  (1) 
-5.5230546

>  <minimizedRMSD>  (1) 
3.36603522

$$$$
