
     RDKit          3D

 37 40  0  0  1  0  0  0  0  0999 V2000
   32.7770   28.1880   47.9010 C   0  0  0  0  0  0  0  0  0  0  0  0
   33.6610   27.3040   48.4950 C   0  0  0  0  0  0  0  0  0  0  0  0
   34.8250   28.0240   48.8140 C   0  0  0  0  0  0  0  0  0  0  0  0
   34.6080   29.2890   48.4130 N   0  0  0  0  0  0  0  0  0  0  0  0
   33.4060   29.3510   47.8860 N   0  0  0  0  0  0  0  0  0  0  0  0
   30.4200   27.4360   48.3010 C   0  0  0  0  0  0  0  0  0  0  0  0
   31.4670   27.7980   47.4390 C   0  0  0  0  0  0  0  0  0  0  0  0
   31.1960   27.7680   46.0790 C   0  0  0  0  0  0  0  0  0  0  0  0
   29.9490   27.3960   45.6660 N   0  0  0  0  0  0  0  0  0  0  0  0
   28.9780   27.0570   46.5350 C   0  0  0  0  0  0  0  0  0  0  0  0
   29.2110   27.0750   47.8820 N   0  0  0  0  0  0  0  0  0  0  0  0
   35.5370   30.3830   48.5410 C   0  0  1  0  0  0  0  0  0  0  0  0
   35.6690   31.0430   49.9490 C   0  0  0  0  0  0  0  0  0  0  0  0
   36.7620   30.2410   49.3630 C   0  0  2  0  0  0  0  0  0  0  0  0
   38.0680   30.8190   48.9520 C   0  0  0  0  0  0  0  0  0  0  0  0
   38.0990   30.8760   47.4360 C   0  0  0  0  0  0  0  0  0  0  0  0
   39.1430   31.9430   47.1630 C   0  0  0  0  0  0  0  0  0  0  0  0
   38.9720   32.9480   48.2520 C   0  0  0  0  0  0  0  0  0  0  0  0
   38.3720   32.1890   49.4390 C   0  0  0  0  0  0  0  0  0  0  0  0
   33.4849   26.2346   48.6828 H   0  0  0  0  0  0  0  0  0  0  0  0
   35.7326   27.6311   49.2956 H   0  0  0  0  0  0  0  0  0  0  0  0
   30.6106   27.4519   49.3843 H   0  0  0  0  0  0  0  0  0  0  0  0
   31.9712   28.0388   45.3470 H   0  0  0  0  0  0  0  0  0  0  0  0
   27.9876   26.7627   46.1575 H   0  0  0  0  0  0  0  0  0  0  0  0
   35.3362   30.7088   47.5097 H   0  0  0  0  0  0  0  0  0  0  0  0
   35.7706   32.1343   50.0426 H   0  0  0  0  0  0  0  0  0  0  0  0
   35.0921   31.0228   50.8854 H   0  0  0  0  0  0  0  0  0  0  0  0
   37.3392   29.3785   49.7276 H   0  0  0  0  0  0  0  0  0  0  0  0
   38.8222   30.1603   49.4073 H   0  0  0  0  0  0  0  0  0  0  0  0
   38.4001   29.9081   47.0088 H   0  0  0  0  0  0  0  0  0  0  0  0
   37.1196   31.0991   46.9877 H   0  0  0  0  0  0  0  0  0  0  0  0
   40.1537   31.5100   47.1934 H   0  0  0  0  0  0  0  0  0  0  0  0
   39.0195   32.3925   46.1667 H   0  0  0  0  0  0  0  0  0  0  0  0
   39.9447   33.3812   48.5280 H   0  0  0  0  0  0  0  0  0  0  0  0
   38.3226   33.7775   47.9354 H   0  0  0  0  0  0  0  0  0  0  0  0
   37.4511   32.6842   49.7806 H   0  0  0  0  0  0  0  0  0  0  0  0
   39.0695   32.1638   50.2892 H   0  0  0  0  0  0  0  0  0  0  0  0
  1  2  1  0
  2  3  2  0
  4 12  1  0
  4  3  1  0
  5  1  2  0
  5  4  1  0
  7  1  1  0
  7  6  2  0
  8  7  1  0
  9  8  2  0
  9 10  1  0
 10 11  2  0
 11  6  1  0
 12 14  1  0
 12 13  1  0
 14 13  1  0
 15 14  1  0
 15 19  1  0
 16 15  1  0
 17 16  1  0
 17 18  1  0
 18 19  1  0
  2 20  1  0
  3 21  1  0
  6 22  1  0
  8 23  1  0
 10 24  1  0
 12 25  1  6
 13 26  1  0
 13 27  1  0
 14 28  1  1
 15 29  1  0
 16 30  1  0
 16 31  1  0
 17 32  1  0
 17 33  1  0
 18 34  1  0
 18 35  1  0
 19 36  1  0
 19 37  1  0
M  ISO  8  20  14  21  14  22  14  23  14  24  14  25  13  26  13  27  13
M  ISO  8  28  13  29  13  30  13  31  13  32  13  33  13  34  13  35  13
M  ISO  2  36  13  37  13
M  END
>  <minimizedAffinity>  (1) 
-5.13504028

>  <minimizedRMSD>  (1) 
5.13495302

$$$$
