
     RDKit          3D

 36 38  0  0  0  0  0  0  0  0999 V2000
   36.8039   32.1812   50.1292 Cl  0  0  0  0  0  0  0  0  0  0  0  0
   37.5431   31.9276   48.5907 C   0  0  0  0  0  0  0  0  0  0  0  0
   36.9608   30.9159   47.8830 C   0  0  0  0  0  0  0  0  0  0  0  0
   37.4829   30.6131   46.5994 C   0  0  0  0  0  0  0  0  0  0  0  0
   38.5372   31.3087   46.0797 C   0  0  0  0  0  0  0  0  0  0  0  0
   39.0995   32.3190   46.8160 C   0  0  0  0  0  0  0  0  0  0  0  0
   40.4401   33.2293   46.1961 Cl  0  0  0  0  0  0  0  0  0  0  0  0
   38.6045   32.6147   48.0464 C   0  0  0  0  0  0  0  0  0  0  0  0
   36.0313   29.0928   49.2525 C   0  0  0  0  0  0  0  0  0  0  0  0
   35.8331   30.0385   48.2300 C   0  0  0  0  0  0  0  0  0  0  0  0
   34.5862   30.0949   47.6016 C   0  0  0  0  0  0  0  0  0  0  0  0
   33.6379   29.2134   48.0340 N   0  0  0  0  0  0  0  0  0  0  0  0
   33.8659   28.3169   49.0217 C   0  0  0  0  0  0  0  0  0  0  0  0
   35.0806   28.2556   49.6402 N   0  0  0  0  0  0  0  0  0  0  0  0
   39.1428   33.6843   48.9099 C   0  0  0  0  0  0  0  0  0  0  0  0
   39.2712   34.8949   48.6448 O   0  0  0  0  0  0  0  0  0  0  0  0
   39.6232   33.5322   50.2259 O   0  0  0  0  0  0  0  0  0  0  0  0
   37.0922   29.8322   45.9627 H   0  0  0  0  0  0  0  0  0  0  0  0
   38.9589   31.1018   45.1028 H   0  0  0  0  0  0  0  0  0  0  0  0
   36.9996   29.0519   49.7376 H   0  0  0  0  0  0  0  0  0  0  0  0
   34.4490   30.8110   46.8332 H   0  0  0  0  0  0  0  0  0  0  0  0
   33.0834   27.6329   49.3359 H   0  0  0  0  0  0  0  0  0  0  0  0
   40.1213   34.5435   51.0141 C   0  0  0  0  0  0  0  0  0  0  0  0
   41.5290   34.9696   50.6744 C   0  0  0  0  0  0  0  0  0  0  0  0
   41.8921   35.7616   51.9236 C   0  0  0  0  0  0  0  0  0  0  0  0
   41.1983   35.0121   53.0587 C   0  0  0  0  0  0  0  0  0  0  0  0
   40.2649   34.0316   52.4301 C   0  0  0  0  0  0  0  0  0  0  0  0
   39.5058   35.4541   50.9873 H   0  0  0  0  0  0  0  0  0  0  0  0
   41.5658   35.6725   49.8097 H   0  0  0  0  0  0  0  0  0  0  0  0
   42.2242   34.1556   50.4906 H   0  0  0  0  0  0  0  0  0  0  0  0
   41.4393   36.7826   51.8718 H   0  0  0  0  0  0  0  0  0  0  0  0
   42.9682   35.8533   52.0638 H   0  0  0  0  0  0  0  0  0  0  0  0
   41.9687   34.5083   53.7085 H   0  0  0  0  0  0  0  0  0  0  0  0
   40.6291   35.7048   53.7193 H   0  0  0  0  0  0  0  0  0  0  0  0
   39.2673   34.0536   52.9195 H   0  0  0  0  0  0  0  0  0  0  0  0
   40.6466   33.0066   52.4082 H   0  0  0  0  0  0  0  0  0  0  0  0
  2  1  1  0
  3 10  1  0
  3  2  2  0
  4  3  1  0
  5  4  2  0
  5  6  1  0
  6  8  2  0
  7  6  1  0
  8  2  1  0
  8 15  1  0
  9 14  2  0
 10  9  1  0
 11 12  1  0
 11 10  2  0
 12 13  2  0
 13 14  1  0
 15 17  1  0
 16 15  2  0
  4 18  1  0
  5 19  1  0
  9 20  1  0
 11 21  1  0
 13 22  1  0
 23 24  1  0
 24 25  1  0
 25 26  1  0
 26 27  1  0
 27 23  1  0
 23 28  1  0
 24 29  1  0
 24 30  1  0
 25 31  1  0
 25 32  1  0
 26 33  1  0
 26 34  1  0
 27 35  1  0
 27 36  1  0
 17 23  1  0
M  ISO  5  18  14  19  14  20  14  21  14  22  14
M  END
>  <DihAtoms>  (1) 
14,16,22,23

>  <DihDeg>  (1) 
-122.22984835029013

$$$$
