
     RDKit          3D

 46 50  0  0  1  0  0  0  0  0999 V2000
   39.2410   32.4810   45.8520 C   0  0  1  0  0  0  0  0  0  0  0  0
   40.6190   32.3050   45.3610 C   0  0  0  0  0  0  0  0  0  0  0  0
   39.7390   31.1080   45.3160 C   0  0  2  0  0  0  0  0  0  0  0  0
   39.4320   30.7420   43.9100 C   0  0  0  0  0  0  0  0  0  0  0  0
   40.5420   30.9700   43.0880 C   0  0  0  0  0  0  0  0  0  0  0  0
   40.5170   30.6320   41.7520 C   0  0  0  0  0  0  0  0  0  0  0  0
   39.3800   30.0470   41.1840 C   0  0  0  0  0  0  0  0  0  0  0  0
   38.3060   29.8330   42.0130 C   0  0  0  0  0  0  0  0  0  0  0  0
   37.1170   29.2810   41.5950 C   0  0  0  0  0  0  0  0  0  0  0  0
   36.0280   29.0680   42.4100 C   0  0  0  0  0  0  0  0  0  0  0  0
   36.1120   29.4260   43.7360 C   0  0  0  0  0  0  0  0  0  0  0  0
   37.2910   29.9820   44.1820 C   0  0  0  0  0  0  0  0  0  0  0  0
   38.3490   30.1740   43.3310 C   0  0  0  0  0  0  0  0  0  0  0  0
   39.0580   33.5810   49.4520 C   0  0  0  0  0  0  0  0  0  0  0  0
   39.2870   33.6120   48.0470 C   0  0  0  0  0  0  0  0  0  0  0  0
   39.0010   32.4860   47.3100 C   0  0  0  0  0  0  0  0  0  0  0  0
   38.5140   31.4210   47.9950 N   0  0  0  0  0  0  0  0  0  0  0  0
   38.2970   31.3900   49.3200 C   0  0  0  0  0  0  0  0  0  0  0  0
   38.5730   32.4880   50.0640 N   0  0  0  0  0  0  0  0  0  0  0  0
   37.7500   30.0880   49.8440 C   0  0  0  0  0  0  0  0  0  0  0  0
   36.6140   29.5920   49.0150 C   0  0  0  0  0  0  0  0  0  0  0  0
   35.4610   29.2800   49.9200 C   0  0  0  0  0  0  0  0  0  0  0  0
   35.9590   29.4270   51.3410 C   0  0  0  0  0  0  0  0  0  0  0  0
   37.2420   30.2340   51.2430 C   0  0  0  0  0  0  0  0  0  0  0  0
   38.4461   33.2073   45.6273 H   0  0  0  0  0  0  0  0  0  0  0  0
   40.9232   32.7876   44.4205 H   0  0  0  0  0  0  0  0  0  0  0  0
   41.6093   32.5007   45.7981 H   0  0  0  0  0  0  0  0  0  0  0  0
   39.6928   30.0865   45.7214 H   0  0  0  0  0  0  0  0  0  0  0  0
   41.4477   31.4257   43.5147 H   0  0  0  0  0  0  0  0  0  0  0  0
   41.4005   30.8243   41.1255 H   0  0  0  0  0  0  0  0  0  0  0  0
   39.3476   29.7705   40.1198 H   0  0  0  0  0  0  0  0  0  0  0  0
   37.0306   28.9901   40.5377 H   0  0  0  0  0  0  0  0  0  0  0  0
   35.1073   28.6197   42.0084 H   0  0  0  0  0  0  0  0  0  0  0  0
   35.2636   29.2729   44.4192 H   0  0  0  0  0  0  0  0  0  0  0  0
   37.3852   30.2766   45.2376 H   0  0  0  0  0  0  0  0  0  0  0  0
   39.2841   34.4750   50.0517 H   0  0  0  0  0  0  0  0  0  0  0  0
   39.6837   34.5160   47.5617 H   0  0  0  0  0  0  0  0  0  0  0  0
   38.5867   29.3748   49.8081 H   0  0  0  0  0  0  0  0  0  0  0  0
   36.3180   30.3657   48.2913 H   0  0  0  0  0  0  0  0  0  0  0  0
   36.9163   28.6876   48.4666 H   0  0  0  0  0  0  0  0  0  0  0  0
   34.6351   29.9826   49.7349 H   0  0  0  0  0  0  0  0  0  0  0  0
   35.0859   28.2617   49.7397 H   0  0  0  0  0  0  0  0  0  0  0  0
   35.2170   29.9586   51.9548 H   0  0  0  0  0  0  0  0  0  0  0  0
   36.1284   28.4494   51.8160 H   0  0  0  0  0  0  0  0  0  0  0  0
   37.9854   29.8482   51.9561 H   0  0  0  0  0  0  0  0  0  0  0  0
   37.0577   31.2915   51.4833 H   0  0  0  0  0  0  0  0  0  0  0  0
  1 16  1  0
  2  1  1  0
  3  2  1  0
  3  1  1  0
  4  3  1  0
  5  4  2  0
  6  5  1  0
  7  6  2  0
  7  8  1  0
  8 13  2  0
  9  8  1  0
  9 10  2  0
 10 11  1  0
 11 12  2  0
 13  4  1  0
 13 12  1  0
 14 19  2  0
 15 14  1  0
 16 17  1  0
 16 15  2  0
 17 18  2  0
 18 20  1  0
 18 19  1  0
 20 24  1  0
 21 20  1  0
 21 22  1  0
 22 23  1  0
 24 23  1  0
  1 25  1  6
  2 26  1  0
  2 27  1  0
  3 28  1  1
  5 29  1  0
  6 30  1  0
  7 31  1  0
  9 32  1  0
 10 33  1  0
 11 34  1  0
 12 35  1  0
 14 36  1  0
 15 37  1  0
 20 38  1  0
 21 39  1  0
 21 40  1  0
 22 41  1  0
 22 42  1  0
 23 43  1  0
 23 44  1  0
 24 45  1  0
 24 46  1  0
M  ISO  8  25  13  26  13  27  13  28  13  29  14  30  14  31  14  32  14
M  ISO  8  33  14  34  14  35  14  36  14  37  14  38  13  39  13  40  13
M  ISO  6  41  13  42  13  43  13  44  13  45  13  46  13
M  END
>  <minimizedAffinity>  (1) 
-6.97871876

>  <minimizedRMSD>  (1) 
3.81469154

$$$$
