
     RDKit          3D

 33 35  0  0  0  0  0  0  0  0999 V2000
   37.2071   29.1038   50.5678 Cl  0  0  0  0  0  0  0  0  0  0  0  0
   35.9454   29.1965   49.3943 C   0  0  0  0  0  0  0  0  0  0  0  0
   35.9320   30.2219   48.4944 C   0  0  0  0  0  0  0  0  0  0  0  0
   34.9454   30.3394   47.5248 C   0  0  0  0  0  0  0  0  0  0  0  0
   33.9358   29.3934   47.4549 C   0  0  0  0  0  0  0  0  0  0  0  0
   33.9385   28.3411   48.3680 C   0  0  0  0  0  0  0  0  0  0  0  0
   32.7218   27.0786   48.3375 Cl  0  0  0  0  0  0  0  0  0  0  0  0
   34.9570   28.2630   49.3334 C   0  0  0  0  0  0  0  0  0  0  0  0
   37.9829   33.0878   49.5079 C   0  0  0  0  0  0  0  0  0  0  0  0
   39.0110   33.1028   48.5393 C   0  0  0  0  0  0  0  0  0  0  0  0
   38.9752   32.0974   47.5317 C   0  0  0  0  0  0  0  0  0  0  0  0
   37.9532   31.2208   47.6018 N   0  0  0  0  0  0  0  0  0  0  0  0
   36.9864   31.2331   48.5395 C   0  0  0  0  0  0  0  0  0  0  0  0
   37.0112   32.1703   49.4868 N   0  0  0  0  0  0  0  0  0  0  0  0
   34.8877   31.1211   46.7979 H   0  0  0  0  0  0  0  0  0  0  0  0
   33.1448   29.4434   46.7154 H   0  0  0  0  0  0  0  0  0  0  0  0
   38.0234   33.8644   50.2744 H   0  0  0  0  0  0  0  0  0  0  0  0
   39.8167   33.8220   48.5133 H   0  0  0  0  0  0  0  0  0  0  0  0
   39.7165   32.0256   46.7475 H   0  0  0  0  0  0  0  0  0  0  0  0
   34.9264   27.1156   50.2769 C   0  0  0  0  0  0  0  0  0  0  0  0
   34.3420   25.8770   49.6573 C   0  0  0  0  0  0  0  0  0  0  0  0
   33.7452   25.1481   50.8327 C   0  0  0  0  0  0  0  0  0  0  0  0
   33.4184   26.1701   51.8901 C   0  0  0  0  0  0  0  0  0  0  0  0
   34.3163   27.3663   51.5996 C   0  0  0  0  0  0  0  0  0  0  0  0
   35.9999   26.8017   50.5011 H   0  0  0  0  0  0  0  0  0  0  0  0
   33.5306   26.0938   48.9356 H   0  0  0  0  0  0  0  0  0  0  0  0
   35.0945   25.2807   49.1222 H   0  0  0  0  0  0  0  0  0  0  0  0
   34.4853   24.3938   51.1679 H   0  0  0  0  0  0  0  0  0  0  0  0
   32.8067   24.6489   50.5172 H   0  0  0  0  0  0  0  0  0  0  0  0
   33.6881   25.6702   52.8670 H   0  0  0  0  0  0  0  0  0  0  0  0
   32.3845   26.5063   51.9148 H   0  0  0  0  0  0  0  0  0  0  0  0
   33.8070   28.3299   51.7460 H   0  0  0  0  0  0  0  0  0  0  0  0
   35.0869   27.3523   52.4376 H   0  0  0  0  0  0  0  0  0  0  0  0
  2  1  1  0
  3 13  1  0
  3  2  2  0
  4  3  1  0
  5  4  2  0
  5  6  1  0
  6  7  1  0
  6  8  2  0
  8  2  1  0
 10  9  2  0
 11 12  2  0
 11 10  1  0
 12 13  1  0
 13 14  2  0
 14  9  1  0
  4 15  1  0
  5 16  1  0
  9 17  1  0
 10 18  1  0
 11 19  1  0
 20 21  1  0
 21 22  1  0
 22 23  1  0
 23 24  1  0
 24 20  1  0
 20 25  1  0
 21 26  1  0
 21 27  1  0
 22 28  1  0
 22 29  1  0
 23 30  1  0
 23 31  1  0
 24 32  1  0
 24 33  1  0
  8 20  1  0
M  ISO  5  15  14  16  14  17  14  18  14  19  14
M  END
>  <DihAtoms>  (1) 
5,7,19,20

>  <DihDeg>  (1) 
-103.34698648668305

$$$$
