
     RDKit          3D

 38 41  0  0  0  0  0  0  0  0999 V2000
   36.1610   30.1730   48.8460 C   0  0  0  0  0  0  0  0  0  0  0  0
   36.1970   29.1150   49.6520 C   0  0  0  0  0  0  0  0  0  0  0  0
   35.1120   28.2710   49.7030 C   0  0  0  0  0  0  0  0  0  0  0  0
   34.0600   28.5930   48.9020 C   0  0  0  0  0  0  0  0  0  0  0  0
   34.6280   30.1150   48.0720 S   0  0  0  0  0  0  0  0  0  0  0  0
   38.1640   33.1820   49.3060 C   0  0  0  0  0  0  0  0  0  0  0  0
   39.0790   33.1370   48.2470 C   0  0  0  0  0  0  0  0  0  0  0  0
   39.0040   32.0400   47.3500 C   0  0  0  0  0  0  0  0  0  0  0  0
   38.0420   31.1060   47.5860 N   0  0  0  0  0  0  0  0  0  0  0  0
   37.1890   31.2060   48.6240 C   0  0  0  0  0  0  0  0  0  0  0  0
   37.2280   32.2200   49.4870 N   0  0  0  0  0  0  0  0  0  0  0  0
   32.7850   27.9030   48.7330 C   0  0  0  0  0  0  0  0  0  0  0  0
   32.6960   26.8540   47.8620 C   0  0  0  0  0  0  0  0  0  0  0  0
   31.4660   26.2430   47.7480 C   0  0  0  0  0  0  0  0  0  0  0  0
   30.3920   26.6470   48.4540 N   0  0  0  0  0  0  0  0  0  0  0  0
   30.5870   27.6960   49.2900 C   0  0  0  0  0  0  0  0  0  0  0  0
   31.7500   28.3460   49.4590 N   0  0  0  0  0  0  0  0  0  0  0  0
   29.3910   28.1320   50.0650 C   0  0  0  0  0  0  0  0  0  0  0  0
   28.8250   27.0300   50.9020 C   0  0  0  0  0  0  0  0  0  0  0  0
   27.4750   26.6840   50.3280 C   0  0  0  0  0  0  0  0  0  0  0  0
   27.0040   28.0340   49.8040 C   0  0  0  0  0  0  0  0  0  0  0  0
   28.2680   28.5710   49.1560 C   0  0  0  0  0  0  0  0  0  0  0  0
   37.0847   28.9174   50.2708 H   0  0  0  0  0  0  0  0  0  0  0  0
   35.0956   27.3851   50.3549 H   0  0  0  0  0  0  0  0  0  0  0  0
   38.2067   34.0242   50.0123 H   0  0  0  0  0  0  0  0  0  0  0  0
   39.8325   33.9274   48.1145 H   0  0  0  0  0  0  0  0  0  0  0  0
   39.6948   31.9480   46.4989 H   0  0  0  0  0  0  0  0  0  0  0  0
   33.5648   26.5134   47.2795 H   0  0  0  0  0  0  0  0  0  0  0  0
   31.3572   25.3951   47.0558 H   0  0  0  0  0  0  0  0  0  0  0  0
   29.7492   28.9597   50.6947 H   0  0  0  0  0  0  0  0  0  0  0  0
   29.4863   26.1517   50.8662 H   0  0  0  0  0  0  0  0  0  0  0  0
   28.7343   27.3440   51.9523 H   0  0  0  0  0  0  0  0  0  0  0  0
   27.5620   25.9473   49.5158 H   0  0  0  0  0  0  0  0  0  0  0  0
   26.7877   26.2230   51.0526 H   0  0  0  0  0  0  0  0  0  0  0  0
   26.1944   27.9183   49.0684 H   0  0  0  0  0  0  0  0  0  0  0  0
   26.5854   28.6925   50.5793 H   0  0  0  0  0  0  0  0  0  0  0  0
   28.3969   28.1461   48.1496 H   0  0  0  0  0  0  0  0  0  0  0  0
   28.2378   29.6639   49.0353 H   0  0  0  0  0  0  0  0  0  0  0  0
  1  2  2  0
  2  3  1  0
  4  3  2  0
  5  1  1  0
  5  4  1  0
  6 11  2  0
  7  6  1  0
  8  9  1  0
  8  7  2  0
  9 10  2  0
 10  1  1  0
 10 11  1  0
 12  4  1  0
 12 17  1  0
 13 12  2  0
 14 13  1  0
 14 15  2  0
 15 16  1  0
 16 17  2  0
 16 18  1  0
 18 19  1  0
 20 19  1  0
 21 20  1  0
 22 21  1  0
 22 18  1  0
  2 23  1  0
  3 24  1  0
  6 25  1  0
  7 26  1  0
  8 27  1  0
 13 28  1  0
 14 29  1  0
 18 30  1  0
 19 31  1  0
 19 32  1  0
 20 33  1  0
 20 34  1  0
 21 35  1  0
 21 36  1  0
 22 37  1  0
 22 38  1  0
M  ISO  8  23  14  24  14  25  14  26  14  27  14  28  14  29  14  30  13
M  ISO  8  31  13  32  13  33  13  34  13  35  13  36  13  37  13  38  13
M  END
>  <minimizedAffinity>  (1) 
-6.66350508

>  <minimizedRMSD>  (1) 
0.994397104

$$$$
