
     RDKit          3D

 39 41  0  0  1  0  0  0  0  0999 V2000
   34.5690   30.2900   49.1230 C   0  0  1  0  0  0  0  0  0  0  0  0
   34.2380   30.3030   47.6970 C   0  0  0  0  0  0  0  0  0  0  0  0
   34.4000   29.0090   46.9470 C   0  0  0  0  0  0  0  0  0  0  0  0
   34.0440   27.7790   47.7000 C   0  0  1  0  0  0  0  0  0  0  0  0
   34.3720   27.7530   49.1500 C   0  0  0  0  0  0  0  0  0  0  0  0
   34.0880   29.0610   49.8240 C   0  0  0  0  0  0  0  0  0  0  0  0
   36.8270   31.3520   48.5800 C   0  0  0  0  0  0  0  0  0  0  0  0
   35.9710   30.6450   49.4600 C   0  0  0  0  0  0  0  0  0  0  0  0
   36.4980   30.2880   50.6860 C   0  0  0  0  0  0  0  0  0  0  0  0
   37.7800   30.6190   50.9930 N   0  0  0  0  0  0  0  0  0  0  0  0
   38.5650   31.2980   50.1180 C   0  0  0  0  0  0  0  0  0  0  0  0
   38.0750   31.6610   48.9100 N   0  0  0  0  0  0  0  0  0  0  0  0
   32.5990   27.4310   47.3950 C   0  0  0  0  0  0  0  0  0  0  0  0
   31.7710   27.6280   48.6420 C   0  0  0  0  0  0  0  0  0  0  0  0
   30.3470   27.8830   48.1370 C   0  0  0  0  0  0  0  0  0  0  0  0
   30.5920   28.6900   46.9050 C   0  0  0  0  0  0  0  0  0  0  0  0
   31.9690   28.3770   46.4090 C   0  0  0  0  0  0  0  0  0  0  0  0
   33.9889   31.1312   49.5302 H   0  0  0  0  0  0  0  0  0  0  0  0
   33.1864   30.6117   47.6031 H   0  0  0  0  0  0  0  0  0  0  0  0
   34.9653   30.9908   47.2409 H   0  0  0  0  0  0  0  0  0  0  0  0
   33.7612   29.0545   46.0526 H   0  0  0  0  0  0  0  0  0  0  0  0
   35.4739   28.9239   46.7244 H   0  0  0  0  0  0  0  0  0  0  0  0
   34.7147   26.9869   47.3357 H   0  0  0  0  0  0  0  0  0  0  0  0
   33.7715   26.9686   49.6339 H   0  0  0  0  0  0  0  0  0  0  0  0
   35.4494   27.5533   49.2464 H   0  0  0  0  0  0  0  0  0  0  0  0
   34.5615   29.0354   50.8166 H   0  0  0  0  0  0  0  0  0  0  0  0
   32.9915   29.1468   49.8432 H   0  0  0  0  0  0  0  0  0  0  0  0
   36.4459   31.6540   47.5933 H   0  0  0  0  0  0  0  0  0  0  0  0
   35.8817   29.7373   51.4119 H   0  0  0  0  0  0  0  0  0  0  0  0
   39.5996   31.5532   50.3910 H   0  0  0  0  0  0  0  0  0  0  0  0
   32.6144   26.4015   47.0079 H   0  0  0  0  0  0  0  0  0  0  0  0
   31.8019   26.7274   49.2728 H   0  0  0  0  0  0  0  0  0  0  0  0
   32.1451   28.4581   49.2592 H   0  0  0  0  0  0  0  0  0  0  0  0
   29.8322   26.9400   47.9008 H   0  0  0  0  0  0  0  0  0  0  0  0
   29.6995   28.3832   48.8723 H   0  0  0  0  0  0  0  0  0  0  0  0
   29.8505   28.4296   46.1353 H   0  0  0  0  0  0  0  0  0  0  0  0
   30.5029   29.7633   47.1290 H   0  0  0  0  0  0  0  0  0  0  0  0
   31.9129   27.9040   45.4175 H   0  0  0  0  0  0  0  0  0  0  0  0
   32.5665   29.2960   46.3167 H   0  0  0  0  0  0  0  0  0  0  0  0
  1  8  1  0
  1  6  1  0
  2  1  1  0
  3  2  1  0
  3  4  1  0
  4  5  1  0
  5  6  1  0
  7 12  2  0
  7  8  1  0
  8  9  2  0
  9 10  1  0
 11 10  2  0
 12 11  1  0
 13  4  1  0
 13 14  1  0
 15 14  1  0
 16 15  1  0
 17 16  1  0
 17 13  1  0
  1 18  1  1
  2 19  1  0
  2 20  1  0
  3 21  1  0
  3 22  1  0
  4 23  1  6
  5 24  1  0
  5 25  1  0
  6 26  1  0
  6 27  1  0
  7 28  1  0
  9 29  1  0
 11 30  1  0
 13 31  1  0
 14 32  1  0
 14 33  1  0
 15 34  1  0
 15 35  1  0
 16 36  1  0
 16 37  1  0
 17 38  1  0
 17 39  1  0
M  ISO  8  18  13  19  13  20  13  21  13  22  13  23  13  24  13  25  13
M  ISO  8  26  13  27  13  28  14  29  14  30  14  31  13  32  13  33  13
M  ISO  6  34  13  35  13  36  13  37  13  38  13  39  13
M  END
>  <minimizedAffinity>  (1) 
-5.18929625

>  <minimizedRMSD>  (1) 
0.520184219

$$$$
