
     RDKit          3D

 39 41  0  0  0  0  0  0  0  0999 V2000
   35.4600   30.2970   49.8530 C   0  0  0  0  0  0  0  0  0  0  0  0
   36.4520   31.1450   49.0800 C   0  0  0  0  0  0  0  0  0  0  0  0
   37.8750   30.7080   49.2670 C   0  0  0  0  0  0  0  0  0  0  0  0
   38.2610   30.6760   50.7220 C   0  0  0  0  0  0  0  0  0  0  0  0
   37.2390   30.0070   51.5950 C   0  0  0  0  0  0  0  0  0  0  0  0
   36.1180   29.3610   50.8080 C   0  0  0  0  0  0  0  0  0  0  0  0
   34.6580   29.4730   48.8960 C   0  0  0  0  0  0  0  0  0  0  0  0
   34.2520   30.1310   47.7200 C   0  0  0  0  0  0  0  0  0  0  0  0
   33.4880   29.3700   46.8170 C   0  0  0  0  0  0  0  0  0  0  0  0
   33.1800   28.0590   47.1120 N   0  0  0  0  0  0  0  0  0  0  0  0
   33.6060   27.4750   48.2750 C   0  0  0  0  0  0  0  0  0  0  0  0
   34.3300   28.1820   49.1400 N   0  0  0  0  0  0  0  0  0  0  0  0
   32.9740   29.8660   45.5490 C   0  0  0  0  0  0  0  0  0  0  0  0
   34.0840   30.3070   44.5870 C   0  0  0  0  0  0  0  0  0  0  0  0
   33.1790   30.7380   43.4250 C   0  0  0  0  0  0  0  0  0  0  0  0
   32.1170   31.5300   44.1510 C   0  0  0  0  0  0  0  0  0  0  0  0
   32.1610   31.1180   45.6090 C   0  0  0  0  0  0  0  0  0  0  0  0
   34.8305   30.9944   50.4252 H   0  0  0  0  0  0  0  0  0  0  0  0
   36.3591   32.1875   49.4184 H   0  0  0  0  0  0  0  0  0  0  0  0
   36.2138   31.0346   48.0118 H   0  0  0  0  0  0  0  0  0  0  0  0
   37.9970   29.7001   48.8436 H   0  0  0  0  0  0  0  0  0  0  0  0
   38.5262   31.4320   48.7553 H   0  0  0  0  0  0  0  0  0  0  0  0
   39.2121   30.1319   50.8186 H   0  0  0  0  0  0  0  0  0  0  0  0
   38.3433   31.7198   51.0594 H   0  0  0  0  0  0  0  0  0  0  0  0
   37.7415   29.2306   52.1905 H   0  0  0  0  0  0  0  0  0  0  0  0
   36.7890   30.7851   52.2291 H   0  0  0  0  0  0  0  0  0  0  0  0
   35.3605   28.9927   51.5155 H   0  0  0  0  0  0  0  0  0  0  0  0
   36.5598   28.5455   50.2166 H   0  0  0  0  0  0  0  0  0  0  0  0
   34.5168   31.1795   47.5188 H   0  0  0  0  0  0  0  0  0  0  0  0
   33.3514   26.4274   48.4933 H   0  0  0  0  0  0  0  0  0  0  0  0
   32.3821   28.9942   45.2333 H   0  0  0  0  0  0  0  0  0  0  0  0
   34.6784   31.1416   44.9872 H   0  0  0  0  0  0  0  0  0  0  0  0
   34.8546   29.5575   44.3539 H   0  0  0  0  0  0  0  0  0  0  0  0
   32.7484   29.8685   42.9067 H   0  0  0  0  0  0  0  0  0  0  0  0
   33.6986   31.3011   42.6358 H   0  0  0  0  0  0  0  0  0  0  0  0
   32.3219   32.6068   44.0583 H   0  0  0  0  0  0  0  0  0  0  0  0
   31.1238   31.3323   43.7215 H   0  0  0  0  0  0  0  0  0  0  0  0
   31.1518   30.9218   46.0003 H   0  0  0  0  0  0  0  0  0  0  0  0
   32.5765   31.8871   46.2767 H   0  0  0  0  0  0  0  0  0  0  0  0
  1  6  1  0
  2  3  1  0
  2  1  1  0
  3  4  1  0
  4  5  1  0
  6  5  1  0
  7 12  1  0
  7  1  1  0
  8  7  2  0
  9 10  2  0
  9  8  1  0
 10 11  1  0
 11 12  2  0
 13 17  1  0
 13  9  1  0
 14 13  1  0
 15 16  1  0
 15 14  1  0
 16 17  1  0
  1 18  1  0
  2 19  1  0
  2 20  1  0
  3 21  1  0
  3 22  1  0
  4 23  1  0
  4 24  1  0
  5 25  1  0
  5 26  1  0
  6 27  1  0
  6 28  1  0
  8 29  1  0
 11 30  1  0
 13 31  1  0
 14 32  1  0
 14 33  1  0
 15 34  1  0
 15 35  1  0
 16 36  1  0
 16 37  1  0
 17 38  1  0
 17 39  1  0
M  ISO  8  18  13  19  13  20  13  21  13  22  13  23  13  24  13  25  13
M  ISO  8  26  13  27  13  28  13  29  14  30  14  31  13  32  13  33  13
M  ISO  6  34  13  35  13  36  13  37  13  38  13  39  13
M  END
>  <minimizedAffinity>  (1) 
-5.30512619

>  <minimizedRMSD>  (1) 
0.3305116

$$$$
