
     RDKit          3D

 33 35  0  0  0  0  0  0  0  0999 V2000
   37.2071   29.1038   50.5678 Cl  0  0  0  0  0  0  0  0  0  0  0  0
   35.9454   29.1965   49.3943 C   0  0  0  0  0  0  0  0  0  0  0  0
   35.9320   30.2219   48.4944 C   0  0  0  0  0  0  0  0  0  0  0  0
   34.9454   30.3394   47.5248 C   0  0  0  0  0  0  0  0  0  0  0  0
   33.9358   29.3934   47.4549 C   0  0  0  0  0  0  0  0  0  0  0  0
   33.9385   28.3411   48.3680 C   0  0  0  0  0  0  0  0  0  0  0  0
   32.7218   27.0786   48.3375 Cl  0  0  0  0  0  0  0  0  0  0  0  0
   34.9570   28.2630   49.3334 C   0  0  0  0  0  0  0  0  0  0  0  0
   37.9829   33.0878   49.5079 C   0  0  0  0  0  0  0  0  0  0  0  0
   39.0110   33.1028   48.5393 C   0  0  0  0  0  0  0  0  0  0  0  0
   38.9752   32.0974   47.5317 C   0  0  0  0  0  0  0  0  0  0  0  0
   37.9532   31.2208   47.6018 N   0  0  0  0  0  0  0  0  0  0  0  0
   36.9864   31.2331   48.5395 C   0  0  0  0  0  0  0  0  0  0  0  0
   37.0112   32.1703   49.4868 N   0  0  0  0  0  0  0  0  0  0  0  0
   34.8877   31.1211   46.7979 H   0  0  0  0  0  0  0  0  0  0  0  0
   33.1448   29.4434   46.7154 H   0  0  0  0  0  0  0  0  0  0  0  0
   38.0234   33.8644   50.2744 H   0  0  0  0  0  0  0  0  0  0  0  0
   39.8167   33.8220   48.5133 H   0  0  0  0  0  0  0  0  0  0  0  0
   39.7165   32.0256   46.7475 H   0  0  0  0  0  0  0  0  0  0  0  0
   34.9264   27.1156   50.2769 C   0  0  0  0  0  0  0  0  0  0  0  0
   35.9882   26.0951   49.9759 C   0  0  0  0  0  0  0  0  0  0  0  0
   35.3839   24.8074   50.4715 C   0  0  0  0  0  0  0  0  0  0  0  0
   33.8855   24.9560   50.4288 C   0  0  0  0  0  0  0  0  0  0  0  0
   33.6181   26.4554   50.4693 C   0  0  0  0  0  0  0  0  0  0  0  0
   35.2240   27.4897   51.3126 H   0  0  0  0  0  0  0  0  0  0  0  0
   36.1929   25.9877   48.8929 H   0  0  0  0  0  0  0  0  0  0  0  0
   36.9464   26.3315   50.4601 H   0  0  0  0  0  0  0  0  0  0  0  0
   35.7762   24.6262   51.4925 H   0  0  0  0  0  0  0  0  0  0  0  0
   35.6794   23.9792   49.7959 H   0  0  0  0  0  0  0  0  0  0  0  0
   33.5179   24.4387   51.3637 H   0  0  0  0  0  0  0  0  0  0  0  0
   33.3966   24.5368   49.5525 H   0  0  0  0  0  0  0  0  0  0  0  0
   32.7957   26.7621   49.8066 H   0  0  0  0  0  0  0  0  0  0  0  0
   33.1929   26.6394   51.5093 H   0  0  0  0  0  0  0  0  0  0  0  0
  2  1  1  0
  3 13  1  0
  3  2  2  0
  4  3  1  0
  5  4  2  0
  5  6  1  0
  6  7  1  0
  6  8  2  0
  8  2  1  0
 10  9  2  0
 11 12  2  0
 11 10  1  0
 12 13  1  0
 13 14  2  0
 14  9  1  0
  4 15  1  0
  5 16  1  0
  9 17  1  0
 10 18  1  0
 11 19  1  0
 20 21  1  0
 21 22  1  0
 22 23  1  0
 23 24  1  0
 24 20  1  0
 20 25  1  0
 21 26  1  0
 21 27  1  0
 22 28  1  0
 22 29  1  0
 23 30  1  0
 23 31  1  0
 24 32  1  0
 24 33  1  0
  8 20  1  0
M  ISO  5  15  14  16  14  17  14  18  14  19  14
M  END
>  <DihAtoms>  (1) 
5,7,19,20

>  <DihDeg>  (1) 
-103.34698648668305

$$$$
