
     RDKit          3D

 37 40  0  0  0  0  0  0  0  0999 V2000
   36.8470   30.5399   46.9028 C   0  0  0  0  0  0  0  0  0  0  0  0
   37.5152   31.0315   48.0217 C   0  0  0  0  0  0  0  0  0  0  0  0
   38.5068   31.9884   47.9026 C   0  0  0  0  0  0  0  0  0  0  0  0
   38.7893   32.4226   46.6045 C   0  0  0  0  0  0  0  0  0  0  0  0
   39.7249   33.3588   46.2312 N   0  0  0  0  0  0  0  0  0  0  0  0
   39.6505   33.4574   44.9068 C   0  0  0  0  0  0  0  0  0  0  0  0
   38.7172   32.6325   44.4261 N   0  0  0  0  0  0  0  0  0  0  0  0
   38.1619   31.9716   45.4712 C   0  0  0  0  0  0  0  0  0  0  0  0
   37.1644   31.0043   45.6283 C   0  0  0  0  0  0  0  0  0  0  0  0
   37.3921   30.0811   51.6649 C   0  0  0  0  0  0  0  0  0  0  0  0
   37.8614   30.6312   50.4793 C   0  0  0  0  0  0  0  0  0  0  0  0
   37.1335   30.5027   49.3224 C   0  0  0  0  0  0  0  0  0  0  0  0
   35.9441   29.8171   49.3980 N   0  0  0  0  0  0  0  0  0  0  0  0
   35.5110   29.2925   50.5622 C   0  0  0  0  0  0  0  0  0  0  0  0
   36.2191   29.4218   51.6701 N   0  0  0  0  0  0  0  0  0  0  0  0
   40.4575   34.3184   44.1659 O   0  0  0  0  0  0  0  0  0  0  0  0
   36.0661   29.7886   46.9793 H   0  0  0  0  0  0  0  0  0  0  0  0
   39.0342   32.3793   48.7625 H   0  0  0  0  0  0  0  0  0  0  0  0
   40.3674   33.8842   46.8937 H   0  0  0  0  0  0  0  0  0  0  0  0
   36.6633   30.6415   44.7435 H   0  0  0  0  0  0  0  0  0  0  0  0
   37.9527   30.1734   52.5837 H   0  0  0  0  0  0  0  0  0  0  0  0
   38.7961   31.1683   50.4268 H   0  0  0  0  0  0  0  0  0  0  0  0
   34.5497   28.7669   50.5058 H   0  0  0  0  0  0  0  0  0  0  0  0
   40.3387   34.3877   42.7405 C   0  0  0  0  0  0  0  0  0  0  0  0
   41.1986   33.3453   42.0549 C   0  0  0  0  0  0  0  0  0  0  0  0
   40.2846   32.7005   41.0198 C   0  0  0  0  0  0  0  0  0  0  0  0
   38.9679   32.7064   41.7624 C   0  0  0  0  0  0  0  0  0  0  0  0
   38.9178   34.0659   42.3796 C   0  0  0  0  0  0  0  0  0  0  0  0
   40.6075   35.4206   42.3884 H   0  0  0  0  0  0  0  0  0  0  0  0
   42.0403   33.8814   41.5698 H   0  0  0  0  0  0  0  0  0  0  0  0
   41.5140   32.5617   42.7531 H   0  0  0  0  0  0  0  0  0  0  0  0
   40.5961   31.6436   40.8836 H   0  0  0  0  0  0  0  0  0  0  0  0
   40.2468   33.2831   40.0916 H   0  0  0  0  0  0  0  0  0  0  0  0
   38.9894   31.8684   42.5040 H   0  0  0  0  0  0  0  0  0  0  0  0
   38.1602   32.5391   41.0210 H   0  0  0  0  0  0  0  0  0  0  0  0
   38.5564   34.7725   41.6048 H   0  0  0  0  0  0  0  0  0  0  0  0
   38.2277   34.1434   43.2438 H   0  0  0  0  0  0  0  0  0  0  0  0
  1  2  2  0
  2 12  1  0
  3  2  1  0
  4  3  2  0
  5  4  1  0
  6  5  1  0
  7  6  2  0
  7  8  1  0
  8  9  2  0
  8  4  1  0
  9  1  1  0
 10 15  2  0
 11 10  1  0
 12 13  1  0
 12 11  2  0
 13 14  2  0
 14 15  1  0
 16  6  1  0
  1 17  1  0
  3 18  1  0
  5 19  1  0
  9 20  1  0
 10 21  1  0
 11 22  1  0
 14 23  1  0
 24 25  1  0
 25 26  1  0
 26 27  1  0
 27 28  1  0
 28 24  1  0
 24 29  1  0
 25 30  1  0
 25 31  1  0
 26 32  1  0
 26 33  1  0
 27 34  1  0
 27 35  1  0
 28 36  1  0
 28 37  1  0
 16 24  1  0
M  ISO  7  17  14  18  14  19   9  20  14  21  14  22  14  23  14
M  END
>  <DihAtoms>  (1) 
5,15,23,24

>  <DihDeg>  (1) 
123.22673918316842

$$$$
