
     RDKit          3D

 30 32  0  0  1  0  0  0  0  0999 V2000
   32.2410   28.1710   47.5200 C   0  0  2  0  0  0  0  0  0  0  0  0
   33.5050   28.1240   48.3630 C   0  0  1  0  0  0  0  0  0  0  0  0
   34.0920   26.8930   48.1730 O   0  0  0  0  0  0  0  0  0  0  0  0
   33.4310   26.2370   47.1630 C   0  0  0  0  0  0  0  0  0  0  0  0
   32.6690   27.3050   46.3750 C   0  0  1  0  0  0  0  0  0  0  0  0
   31.9420   29.4660   47.1290 O   0  0  0  0  0  0  0  0  0  0  0  0
   34.6250   29.3810   47.6420 S   0  0  0  0  0  0  0  0  0  0  0  0
   37.2220   29.2700   50.6220 C   0  0  0  0  0  0  0  0  0  0  0  0
   37.6490   30.5830   50.7930 C   0  0  0  0  0  0  0  0  0  0  0  0
   37.1070   31.5580   49.9430 C   0  0  0  0  0  0  0  0  0  0  0  0
   36.2070   31.1540   49.0170 N   0  0  0  0  0  0  0  0  0  0  0  0
   35.8110   29.8800   48.8720 C   0  0  0  0  0  0  0  0  0  0  0  0
   36.3220   28.9260   49.6810 N   0  0  0  0  0  0  0  0  0  0  0  0
   31.6060   26.7130   45.7000 O   0  0  0  0  0  0  0  0  0  0  0  0
   31.0070   27.4910   44.6980 C   0  0  0  0  0  0  0  0  0  0  0  0
   29.9450   26.7460   44.0660 C   0  0  0  0  0  0  0  0  0  0  0  0
   29.2900   27.9690   42.7730 S   0  0  0  0  0  0  0  0  0  0  0  0
   30.5880   29.2290   43.3570 C   0  0  0  0  0  0  0  0  0  0  0  0
   31.1440   28.6990   44.1840 N   0  0  0  0  0  0  0  0  0  0  0  0
   31.3206   27.8384   48.0223 H   0  0  0  0  0  0  0  0  0  0  0  0
   33.3023   28.2976   49.4301 H   0  0  0  0  0  0  0  0  0  0  0  0
   34.1510   25.7237   46.5087 H   0  0  0  0  0  0  0  0  0  0  0  0
   32.7461   25.4760   47.5652 H   0  0  0  0  0  0  0  0  0  0  0  0
   33.2158   27.8453   45.5881 H   0  0  0  0  0  0  0  0  0  0  0  0
   31.8115   30.0311   47.9313 H   0  0  0  0  0  0  0  0  0  0  0  0
   37.6329   28.4873   51.2767 H   0  0  0  0  0  0  0  0  0  0  0  0
   38.3850   30.8468   51.5668 H   0  0  0  0  0  0  0  0  0  0  0  0
   37.4032   32.6141   50.0262 H   0  0  0  0  0  0  0  0  0  0  0  0
   29.6010   25.7235   44.2807 H   0  0  0  0  0  0  0  0  0  0  0  0
   30.7589   30.2462   42.9748 H   0  0  0  0  0  0  0  0  0  0  0  0
  1  2  1  0
  3  2  1  0
  4  3  1  0
  5  4  1  0
  5  1  1  0
  6  1  1  0
  7  2  1  0
  7 12  1  0
  8  9  2  0
 10  9  1  0
 11 10  2  0
 12 11  1  0
 12 13  2  0
 13  8  1  0
 14  5  1  0
 15 14  1  0
 16 15  2  0
 17 18  1  0
 17 16  1  0
 18 19  2  0
 19 15  1  0
  1 20  1  1
  2 21  1  1
  4 22  1  0
  4 23  1  0
  5 24  1  6
  6 25  1  0
  8 26  1  0
  9 27  1  0
 10 28  1  0
 16 29  1  0
 18 30  1  0
M  ISO  8  20  13  21  13  22  13  23  13  24  13  25   3  26  14  27  14
M  ISO  3  28  14  29  14  30  14
M  END
>  <minimizedAffinity>  (1) 
-3.77811837

>  <minimizedRMSD>  (1) 
1.19232786

$$$$
