
     RDKit          3D

 27 29  0  0  0  0  0  0  0  0999 V2000
   36.3685   30.4776   46.3871 Cl  0  0  0  0  0  0  0  0  0  0  0  0
   36.8003   30.5395   48.0829 C   0  0  0  0  0  0  0  0  0  0  0  0
   38.0171   31.0816   48.3816 C   0  0  0  0  0  0  0  0  0  0  0  0
   38.3801   31.1397   49.7325 C   0  0  0  0  0  0  0  0  0  0  0  0
   37.5251   30.6635   50.6844 C   0  0  0  0  0  0  0  0  0  0  0  0
   36.3128   30.1298   50.3081 C   0  0  0  0  0  0  0  0  0  0  0  0
   35.9040   30.0464   49.0047 C   0  0  0  0  0  0  0  0  0  0  0  0
   40.0040   33.4273   46.4013 C   0  0  0  0  0  0  0  0  0  0  0  0
   40.5695   32.6194   45.3903 C   0  0  0  0  0  0  0  0  0  0  0  0
   40.2532   31.2687   45.4094 C   0  0  0  0  0  0  0  0  0  0  0  0
   39.4235   30.7999   46.3911 N   0  0  0  0  0  0  0  0  0  0  0  0
   38.9080   31.5831   47.3268 C   0  0  0  0  0  0  0  0  0  0  0  0
   39.2112   32.8844   47.3107 N   0  0  0  0  0  0  0  0  0  0  0  0
   34.3397   29.3601   48.4910 S   0  0  0  0  0  0  0  0  0  0  0  0
   39.3516   31.5707   49.9936 H   0  0  0  0  0  0  0  0  0  0  0  0
   37.7965   30.7035   51.7374 H   0  0  0  0  0  0  0  0  0  0  0  0
   35.6509   29.7576   51.0877 H   0  0  0  0  0  0  0  0  0  0  0  0
   40.1946   34.4999   46.4684 H   0  0  0  0  0  0  0  0  0  0  0  0
   41.2145   33.0767   44.6553 H   0  0  0  0  0  0  0  0  0  0  0  0
   40.6721   30.6320   44.6488 H   0  0  0  0  0  0  0  0  0  0  0  0
   33.4553   28.8262   49.9790 C   0  0  0  0  0  0  0  0  0  0  0  0
   32.7616   27.5452   50.1027 C   0  0  0  0  0  0  0  0  0  0  0  0
   32.7597   26.9109   49.3394 H   0  0  0  0  0  0  0  0  0  0  0  0
   32.1399   27.7309   51.8277 S   0  0  0  0  0  0  0  0  0  0  0  0
   32.9138   29.4558   52.0479 C   0  0  0  0  0  0  0  0  0  0  0  0
   32.8080   30.0337   53.0027 H   0  0  0  0  0  0  0  0  0  0  0  0
   33.5340   29.7678   50.9289 N   0  0  0  0  0  0  0  0  0  0  0  0
  1  2  1  0
  2  3  2  0
  2  7  1  0
  3  4  1  0
  4  5  2  0
  6  5  1  0
  7  6  2  0
  8 13  2  0
  9 10  2  0
  9  8  1  0
 10 11  1  0
 11 12  2  0
 12  3  1  0
 13 12  1  0
 14  7  1  0
  4 15  1  0
  5 16  1  0
  6 17  1  0
  8 18  1  0
  9 19  1  0
 10 20  1  0
 21 22  2  0
 22 23  1  0
 22 24  1  0
 24 25  1  0
 25 26  1  0
 25 27  2  0
 27 21  1  0
 14 21  1  0
M  ISO  8  15  14  16  14  17  14  18  14  19  14  20  14  23  15  26  16
M  END
>  <DihAtoms>  (1) 
6,13,20,21

>  <DihDeg>  (1) 
-90.00095107836712

$$$$
