
     RDKit          3D

 23 24  0  0  0  0  0  0  0  0999 V2000
   37.0592   29.4118   51.1713 C   0  0  0  0  0  0  0  0  0  0  0  0
   37.6675   30.0222   50.0876 C   0  0  0  0  0  0  0  0  0  0  0  0
   36.9038   30.4918   49.0469 C   0  0  0  0  0  0  0  0  0  0  0  0
   35.5524   30.3260   49.1426 N   0  0  0  0  0  0  0  0  0  0  0  0
   34.9814   29.7299   50.2049 C   0  0  0  0  0  0  0  0  0  0  0  0
   35.7215   29.2676   51.2269 N   0  0  0  0  0  0  0  0  0  0  0  0
   37.4461   31.1503   47.8490 C   0  0  0  0  0  0  0  0  0  0  0  0
   38.7546   31.8404   48.1452 C   0  0  0  0  0  0  0  0  0  0  0  0
   38.4664   33.3629   49.1027 S   0  0  0  0  0  0  0  0  0  0  0  0
   37.6019   29.0208   52.0222 H   0  0  0  0  0  0  0  0  0  0  0  0
   38.7427   30.1253   50.0668 H   0  0  0  0  0  0  0  0  0  0  0  0
   33.8835   29.6749   50.1278 H   0  0  0  0  0  0  0  0  0  0  0  0
   37.5983   30.4078   47.0284 H   0  0  0  0  0  0  0  0  0  0  0  0
   36.7342   31.9157   47.4977 H   0  0  0  0  0  0  0  0  0  0  0  0
   39.1596   32.1737   47.1402 H   0  0  0  0  0  0  0  0  0  0  0  0
   39.5360   31.2050   48.5559 H   0  0  0  0  0  0  0  0  0  0  0  0
   40.0616   34.1500   49.4306 C   0  0  0  0  0  0  0  0  0  0  0  0
   41.1496   33.7571   48.7268 C   0  0  0  0  0  0  0  0  0  0  0  0
   41.2761   33.0139   47.9492 H   0  0  0  0  0  0  0  0  0  0  0  0
   42.4915   34.8317   49.4141 S   0  0  0  0  0  0  0  0  0  0  0  0
   41.2240   35.6532   50.5967 C   0  0  0  0  0  0  0  0  0  0  0  0
   41.4618   36.4418   51.3152 H   0  0  0  0  0  0  0  0  0  0  0  0
   40.2842   35.1005   50.3149 N   0  0  0  0  0  0  0  0  0  0  0  0
  1  6  2  0
  2  1  1  0
  3  4  1  0
  3  2  2  0
  4  5  2  0
  5  6  1  0
  7  8  1  0
  7  3  1  0
  8  9  1  0
  1 10  1  0
  2 11  1  0
  5 12  1  0
  7 13  1  0
  7 14  1  0
  8 15  1  0
  8 16  1  0
 17 18  2  0
 18 19  1  0
 18 20  1  0
 20 21  1  0
 21 22  1  0
 21 23  2  0
 23 17  1  0
  9 17  1  0
M  ISO  8  10  14  11  14  12  14  13   8  14   8  15   8  16   8  19  15
M  ISO  1  22  16
M  END
>  <DihAtoms>  (1) 
7,8,16,17

>  <DihDeg>  (1) 
89.9995328492133

$$$$
