
     RDKit          3D

 23 24  0  0  0  0  0  0  0  0999 V2000
   37.3155   30.2334   51.4227 C   0  0  0  0  0  0  0  0  0  0  0  0
   38.0400   30.6721   50.3010 C   0  0  0  0  0  0  0  0  0  0  0  0
   37.6165   30.2753   49.0370 C   0  0  0  0  0  0  0  0  0  0  0  0
   36.5106   29.4755   48.9689 N   0  0  0  0  0  0  0  0  0  0  0  0
   35.8406   29.0747   50.0731 C   0  0  0  0  0  0  0  0  0  0  0  0
   36.2556   29.4615   51.2843 N   0  0  0  0  0  0  0  0  0  0  0  0
   34.7581   28.2727   49.7454 O   0  0  0  0  0  0  0  0  0  0  0  0
   34.1911   28.4102   48.4653 C   0  0  0  0  0  0  0  0  0  0  0  0
   33.8270   27.0555   47.9043 C   0  0  0  0  0  0  0  0  0  0  0  0
   37.6169   30.5234   52.4250 H   0  0  0  0  0  0  0  0  0  0  0  0
   38.9146   31.3096   50.4231 H   0  0  0  0  0  0  0  0  0  0  0  0
   38.1442   30.5892   48.1440 H   0  0  0  0  0  0  0  0  0  0  0  0
   33.2624   29.0406   48.4695 H   0  0  0  0  0  0  0  0  0  0  0  0
   34.8840   28.8812   47.7219 H   0  0  0  0  0  0  0  0  0  0  0  0
   33.0853   26.5798   48.5584 H   0  0  0  0  0  0  0  0  0  0  0  0
   34.7029   26.4012   47.8390 H   0  0  0  0  0  0  0  0  0  0  0  0
   33.2354   27.3307   46.5447 C   0  0  0  0  0  0  0  0  0  0  0  0
   33.2131   28.7554   46.2376 C   0  0  0  0  0  0  0  0  0  0  0  0
   33.5229   29.6399   46.7632 H   0  0  0  0  0  0  0  0  0  0  0  0
   32.4579   28.8103   44.5554 S   0  0  0  0  0  0  0  0  0  0  0  0
   32.3032   26.9165   44.5560 C   0  0  0  0  0  0  0  0  0  0  0  0
   31.9470   25.8952   43.9523 H   0  0  0  0  0  0  0  0  0  0  0  0
   32.7307   26.6181   45.5565 N   0  0  0  0  0  0  0  0  0  0  0  0
  2  1  2  0
  3  2  1  0
  4  3  2  0
  4  5  1  0
  5  6  2  0
  6  1  1  0
  7  5  1  0
  8  7  1  0
  9  8  1  0
  1 10  1  0
  2 11  1  0
  3 12  1  0
  8 13  1  0
  8 14  1  0
  9 15  1  0
  9 16  1  0
 17 18  2  0
 18 19  1  0
 18 20  1  0
 20 21  1  0
 21 22  1  0
 21 23  2  0
 23 17  1  0
  9 17  1  0
M  ISO  8  10  14  11  14  12  14  13   8  14   8  15   8  16   8  19  15
M  ISO  1  22  16
M  END
>  <DihAtoms>  (1) 
7,8,16,17

>  <DihDeg>  (1) 
-179.9993693351799

$$$$
