
     RDKit          3D

 30 33  0  0  0  0  0  0  0  0999 V2000
   36.8596   30.5625   46.9124 C   0  0  0  0  0  0  0  0  0  0  0  0
   37.5171   31.0358   48.0297 C   0  0  0  0  0  0  0  0  0  0  0  0
   38.5049   31.9837   47.8952 C   0  0  0  0  0  0  0  0  0  0  0  0
   38.7915   32.4226   46.6011 C   0  0  0  0  0  0  0  0  0  0  0  0
   39.7303   33.3548   46.2337 N   0  0  0  0  0  0  0  0  0  0  0  0
   39.6497   33.4516   44.9111 C   0  0  0  0  0  0  0  0  0  0  0  0
   38.7144   32.6347   44.4214 N   0  0  0  0  0  0  0  0  0  0  0  0
   38.1499   31.9676   45.4582 C   0  0  0  0  0  0  0  0  0  0  0  0
   37.1593   31.0115   45.6356 C   0  0  0  0  0  0  0  0  0  0  0  0
   37.3891   30.0906   51.6630 C   0  0  0  0  0  0  0  0  0  0  0  0
   37.8767   30.6531   50.4877 C   0  0  0  0  0  0  0  0  0  0  0  0
   37.1315   30.5036   49.3235 C   0  0  0  0  0  0  0  0  0  0  0  0
   35.9480   29.8066   49.3909 N   0  0  0  0  0  0  0  0  0  0  0  0
   35.5030   29.2717   50.5537 C   0  0  0  0  0  0  0  0  0  0  0  0
   36.2132   29.4120   51.6723 N   0  0  0  0  0  0  0  0  0  0  0  0
   40.4577   34.3095   44.1686 O   0  0  0  0  0  0  0  0  0  0  0  0
   36.0742   29.8157   46.9659 H   0  0  0  0  0  0  0  0  0  0  0  0
   39.0305   32.3687   48.7378 H   0  0  0  0  0  0  0  0  0  0  0  0
   40.3846   33.8878   46.8714 H   0  0  0  0  0  0  0  0  0  0  0  0
   36.6688   30.6656   44.7470 H   0  0  0  0  0  0  0  0  0  0  0  0
   38.0538   30.2733   52.4957 H   0  0  0  0  0  0  0  0  0  0  0  0
   38.7952   31.2028   50.3985 H   0  0  0  0  0  0  0  0  0  0  0  0
   34.5732   28.7359   50.5578 H   0  0  0  0  0  0  0  0  0  0  0  0
   40.3357   34.3749   42.7872 C   0  0  0  0  0  0  0  0  0  0  0  0
   39.0272   34.1037   42.2527 C   0  0  0  0  0  0  0  0  0  0  0  0
   38.1189   33.8560   42.7535 H   0  0  0  0  0  0  0  0  0  0  0  0
   39.3337   34.3022   40.3955 S   0  0  0  0  0  0  0  0  0  0  0  0
   41.1557   34.7072   40.7388 C   0  0  0  0  0  0  0  0  0  0  0  0
   42.1067   34.9750   40.0889 H   0  0  0  0  0  0  0  0  0  0  0  0
   41.2624   34.6554   41.8666 N   0  0  0  0  0  0  0  0  0  0  0  0
  1  2  2  0
  2 12  1  0
  3  2  1  0
  4  3  2  0
  5  4  1  0
  6  5  1  0
  7  6  2  0
  7  8  1  0
  8  9  2  0
  8  4  1  0
  9  1  1  0
 10 15  2  0
 11 10  1  0
 12 13  1  0
 12 11  2  0
 13 14  2  0
 14 15  1  0
 16  6  1  0
  1 17  1  0
  3 18  1  0
  5 19  1  0
  9 20  1  0
 10 21  1  0
 11 22  1  0
 14 23  1  0
 24 25  2  0
 25 26  1  0
 25 27  1  0
 27 28  1  0
 28 29  1  0
 28 30  2  0
 30 24  1  0
 16 24  1  0
M  ISO  8  17  14  18  14  19   9  20  14  21  14  22  14  23  14  26  15
M  ISO  1  29  16
M  END
>  <DihAtoms>  (1) 
5,15,23,24

>  <DihDeg>  (1) 
179.99926879824875

$$$$
