
     RDKit          3D

 31 33  0  0  1  0  0  0  0  0999 V2000
   36.7250   29.3240   49.8200 C   0  0  1  0  0  0  0  0  0  0  0  0
   36.1320   29.4090   51.1320 C   0  0  0  0  0  0  0  0  0  0  0  0
   35.2640   29.3230   49.9180 C   0  0  2  0  0  0  0  0  0  0  0  0
   37.3570   30.5270   49.1760 C   0  0  0  0  0  0  0  0  0  0  0  0
   38.0580   31.3890   50.0410 C   0  0  0  0  0  0  0  0  0  0  0  0
   38.6380   32.4800   49.4370 C   0  0  0  0  0  0  0  0  0  0  0  0
   38.5040   32.6570   48.0810 N   0  0  0  0  0  0  0  0  0  0  0  0
   37.8250   31.8070   47.2930 C   0  0  0  0  0  0  0  0  0  0  0  0
   37.2340   30.7090   47.8660 N   0  0  0  0  0  0  0  0  0  0  0  0
   37.6990   31.9600   45.9080 N   0  0  0  0  0  0  0  0  0  0  0  0
   34.6530   28.0810   49.7070 O   0  0  0  0  0  0  0  0  0  0  0  0
   33.8590   26.6540   47.7130 O   0  0  0  0  0  0  0  0  0  0  0  0
   33.8750   28.0560   48.2350 P   0  0  1  0  0  0  0  0  0  0  0  0
   32.2000   28.4460   48.4730 O   0  0  0  0  0  0  0  0  0  0  0  0
   34.5700   29.1770   47.2130 O   0  0  0  0  0  0  0  0  0  0  0  0
   33.9370   29.8230   46.1610 C   0  0  0  0  0  0  0  0  0  0  0  0
   34.4230   29.8680   44.8340 C   0  0  0  0  0  0  0  0  0  0  0  0
   33.1140   30.8670   43.9840 S   0  0  0  0  0  0  0  0  0  0  0  0
   32.1500   31.0330   45.6160 C   0  0  0  0  0  0  0  0  0  0  0  0
   32.7860   30.4570   46.3790 N   0  0  0  0  0  0  0  0  0  0  0  0
   37.4912   28.6589   49.3950 H   0  0  0  0  0  0  0  0  0  0  0  0
   36.1987   28.5555   51.8228 H   0  0  0  0  0  0  0  0  0  0  0  0
   36.2166   30.1023   51.9818 H   0  0  0  0  0  0  0  0  0  0  0  0
   34.4436   29.9184   49.4909 H   0  0  0  0  0  0  0  0  0  0  0  0
   38.1361   31.2031   51.1224 H   0  0  0  0  0  0  0  0  0  0  0  0
   39.2060   33.2069   50.0361 H   0  0  0  0  0  0  0  0  0  0  0  0
   38.1276   32.7703   45.4383 H   0  0  0  0  0  0  0  0  0  0  0  0
   37.1776   31.2624   45.3581 H   0  0  0  0  0  0  0  0  0  0  0  0
   32.0063   28.4911   49.4428 H   0  0  0  0  0  0  0  0  0  0  0  0
   35.3390   29.4255   44.4154 H   0  0  0  0  0  0  0  0  0  0  0  0
   31.2003   31.5603   45.7890 H   0  0  0  0  0  0  0  0  0  0  0  0
  1  3  1  0
  1  2  1  0
  3  2  1  0
  4  1  1  0
  4  5  2  0
  6  5  1  0
  7  6  2  0
  8  9  2  0
  8  7  1  0
  9  4  1  0
 10  8  1  0
 11  3  1  0
 13 12  2  0
 13 14  1  0
 13 11  1  0
 15 13  1  0
 16 20  1  0
 16 15  1  0
 17 16  2  0
 18 17  1  0
 18 19  1  0
 19 20  2  0
  1 21  1  1
  2 22  1  0
  2 23  1  0
  3 24  1  6
  5 25  1  0
  6 26  1  0
 10 27  1  0
 10 28  1  0
 14 29  1  0
 17 30  1  0
 19 31  1  0
M  ISO  8  21  13  22  13  23  13  24  13  25  14  26  14  29   3  30  14
M  ISO  1  31  14
M  END
>  <minimizedAffinity>  (1) 
-5.41371965

>  <minimizedRMSD>  (1) 
2.97754407

$$$$
