
     RDKit          3D

 41 44  0  0  0  0  0  0  0  0999 V2000
   37.3336   30.1800   51.5162 C   0  0  0  0  0  0  0  0  0  0  0  0
   38.0670   30.8637   50.5209 C   0  0  0  0  0  0  0  0  0  0  0  0
   37.7107   30.6550   49.1921 C   0  0  0  0  0  0  0  0  0  0  0  0
   36.6664   29.7922   48.9807 N   0  0  0  0  0  0  0  0  0  0  0  0
   35.9865   29.1566   49.9306 C   0  0  0  0  0  0  0  0  0  0  0  0
   36.3336   29.3612   51.2076 N   0  0  0  0  0  0  0  0  0  0  0  0
   38.9391   33.2624   48.9993 F   0  0  0  0  0  0  0  0  0  0  0  0
   38.9183   32.4785   47.9358 C   0  0  0  0  0  0  0  0  0  0  0  0
   38.3349   31.2569   48.0514 C   0  0  0  0  0  0  0  0  0  0  0  0
   38.3691   30.5117   46.8671 C   0  0  0  0  0  0  0  0  0  0  0  0
   38.9422   30.9853   45.7057 C   0  0  0  0  0  0  0  0  0  0  0  0
   39.5190   32.2315   45.6467 C   0  0  0  0  0  0  0  0  0  0  0  0
   39.4964   32.9739   46.7897 C   0  0  0  0  0  0  0  0  0  0  0  0
   35.0032   28.3639   49.4434 O   0  0  0  0  0  0  0  0  0  0  0  0
   34.4563   28.6523   48.1552 C   0  0  0  0  0  0  0  0  0  0  0  0
   33.5623   27.5427   47.7081 C   0  0  0  0  0  0  0  0  0  0  0  0
   32.1299   27.9087   47.6949 C   0  0  0  0  0  0  0  0  0  0  0  0
   31.3517   27.5202   48.7739 C   0  0  0  0  0  0  0  0  0  0  0  0
   30.0203   27.7982   48.8766 C   0  0  0  0  0  0  0  0  0  0  0  0
   29.4397   28.4779   47.8887 N   0  0  0  0  0  0  0  0  0  0  0  0
   30.1907   28.8637   46.8271 C   0  0  0  0  0  0  0  0  0  0  0  0
   31.5170   28.5974   46.7053 N   0  0  0  0  0  0  0  0  0  0  0  0
   37.6512   30.3783   52.5222 H   0  0  0  0  0  0  0  0  0  0  0  0
   38.8844   31.5374   50.7097 H   0  0  0  0  0  0  0  0  0  0  0  0
   37.9323   29.5142   46.8340 H   0  0  0  0  0  0  0  0  0  0  0  0
   38.9359   30.3543   44.8161 H   0  0  0  0  0  0  0  0  0  0  0  0
   39.9443   32.5350   44.7158 H   0  0  0  0  0  0  0  0  0  0  0  0
   39.9455   33.9571   46.7624 H   0  0  0  0  0  0  0  0  0  0  0  0
   35.3409   28.7106   47.4827 H   0  0  0  0  0  0  0  0  0  0  0  0
   33.9703   29.6468   48.1474 H   0  0  0  0  0  0  0  0  0  0  0  0
   33.7111   26.6195   48.2809 H   0  0  0  0  0  0  0  0  0  0  0  0
   33.8041   27.2784   46.6376 H   0  0  0  0  0  0  0  0  0  0  0  0
   31.8197   26.9615   49.5903 H   0  0  0  0  0  0  0  0  0  0  0  0
   29.4366   27.4811   49.7335 H   0  0  0  0  0  0  0  0  0  0  0  0
   29.5296   29.6174   45.7395 C   0  0  0  0  0  0  0  0  0  0  0  0
   28.2636   29.2341   45.1163 C   0  0  0  0  0  0  0  0  0  0  0  0
   27.7882   28.3714   45.4564 H   0  0  0  0  0  0  0  0  0  0  0  0
   28.1536   30.6758   43.8836 S   0  0  0  0  0  0  0  0  0  0  0  0
   29.7770   31.4316   44.4717 C   0  0  0  0  0  0  0  0  0  0  0  0
   30.0876   32.3460   43.9692 H   0  0  0  0  0  0  0  0  0  0  0  0
   30.1952   30.6989   45.3641 N   0  0  0  0  0  0  0  0  0  0  0  0
  2  1  2  0
  3  2  1  0
  4  3  2  0
  4  5  1  0
  5  6  2  0
  6  1  1  0
  8  9  2  0
  8  7  1  0
  9  3  1  0
 10  9  1  0
 11 10  2  0
 12 11  1  0
 12 13  2  0
 13  8  1  0
 14  5  1  0
 15 14  1  0
 16 15  1  0
 17 16  1  0
 17 18  2  0
 18 19  1  0
 20 19  2  0
 21 20  1  0
 22 21  2  0
 22 17  1  0
  1 23  1  0
  2 24  1  0
 10 25  1  0
 11 26  1  0
 12 27  1  0
 13 28  1  0
 15 29  1  0
 15 30  1  0
 16 31  1  0
 16 32  1  0
 18 33  1  0
 19 34  1  0
 35 36  2  0
 36 37  1  0
 36 38  1  0
 38 39  1  0
 39 40  1  0
 39 41  2  0
 41 35  1  0
 21 35  1  0
M  ISO  8  23  14  24  14  25  14  26  14  27  14  28  14  29   8  30   8
M  ISO  6  31   8  32   8  33  14  34  14  37  15  40  16
M  END
>  <DihAtoms>  (1) 
19,20,34,35

>  <DihDeg>  (1) 
-107.71493647734837

$$$$
