
     RDKit          3D

 35 37  0  0  0  0  0  0  0  0999 V2000
   38.1638   31.2372   44.9241 C   0  0  0  0  0  0  0  0  0  0  0  0
   37.3333   30.9457   45.9741 C   0  0  0  0  0  0  0  0  0  0  0  0
   36.1026   30.3593   45.7263 C   0  0  0  0  0  0  0  0  0  0  0  0
   35.6597   30.0499   44.4577 C   0  0  0  0  0  0  0  0  0  0  0  0
   36.4700   30.3335   43.3839 C   0  0  0  0  0  0  0  0  0  0  0  0
   37.6823   30.9118   43.6511 C   0  0  0  0  0  0  0  0  0  0  0  0
   38.6920   32.7733   48.8580 C   0  0  0  0  0  0  0  0  0  0  0  0
   38.3100   32.4402   47.5643 C   0  0  0  0  0  0  0  0  0  0  0  0
   37.6959   31.2613   47.3134 C   0  0  0  0  0  0  0  0  0  0  0  0
   37.4694   30.4336   48.3736 N   0  0  0  0  0  0  0  0  0  0  0  0
   37.8312   30.7497   49.6241 C   0  0  0  0  0  0  0  0  0  0  0  0
   38.4420   31.9163   49.8562 N   0  0  0  0  0  0  0  0  0  0  0  0
   37.4654   29.7896   50.6974 C   0  0  0  0  0  0  0  0  0  0  0  0
   37.7205   30.2985   51.9587 F   0  0  0  0  0  0  0  0  0  0  0  0
   36.0242   29.6398   50.7026 F   0  0  0  0  0  0  0  0  0  0  0  0
   37.9016   28.5563   50.5754 F   0  0  0  0  0  0  0  0  0  0  0  0
   39.7245   31.9163   45.1004 S   0  0  0  0  0  0  0  0  0  0  0  0
   39.6890   33.3959   44.8925 O   0  0  0  0  0  0  0  0  0  0  0  0
   40.2881   31.6116   43.7372 O   0  0  0  0  0  0  0  0  0  0  0  0
   41.1304   31.2384   45.7380 C   0  0  0  0  0  0  0  0  0  0  0  0
   35.4520   30.1313   46.5788 H   0  0  0  0  0  0  0  0  0  0  0  0
   34.6832   29.5930   44.3685 H   0  0  0  0  0  0  0  0  0  0  0  0
   36.0843   30.0772   42.4215 H   0  0  0  0  0  0  0  0  0  0  0  0
   38.2303   31.0900   42.7177 H   0  0  0  0  0  0  0  0  0  0  0  0
   39.1849   33.6536   49.2286 H   0  0  0  0  0  0  0  0  0  0  0  0
   38.5861   33.2926   46.9919 H   0  0  0  0  0  0  0  0  0  0  0  0
   40.9213   31.0282   46.8389 H   0  0  0  0  0  0  0  0  0  0  0  0
   41.8461   32.0969   45.8293 H   0  0  0  0  0  0  0  0  0  0  0  0
   41.8003   30.0512   45.2506 C   0  0  0  0  0  0  0  0  0  0  0  0
   43.2216   29.8455   45.7397 C   0  0  0  0  0  0  0  0  0  0  0  0
   43.7708   30.5046   46.4209 H   0  0  0  0  0  0  0  0  0  0  0  0
   43.7124   28.2711   44.9070 S   0  0  0  0  0  0  0  0  0  0  0  0
   42.0064   28.1544   44.0781 C   0  0  0  0  0  0  0  0  0  0  0  0
   41.6638   27.3502   43.3915 H   0  0  0  0  0  0  0  0  0  0  0  0
   41.4381   29.0652   44.4345 N   0  0  0  0  0  0  0  0  0  0  0  0
  1 17  1  0
  1  2  1  0
  2  9  1  0
  3  2  2  0
  4  3  1  0
  5  6  1  0
  5  4  2  0
  6  1  2  0
  7 12  2  0
  8  7  1  0
  9  8  2  0
  9 10  1  0
 10 11  2  0
 11 12  1  0
 11 13  1  0
 13 15  1  0
 13 14  1  0
 16 13  1  0
 17 20  1  0
 18 17  2  0
 19 17  2  0
  3 21  1  0
  4 22  1  0
  5 23  1  0
  6 24  1  0
  7 25  1  0
  8 26  1  0
 20 27  1  0
 20 28  1  0
 29 30  2  0
 30 31  1  0
 30 32  1  0
 32 33  1  0
 33 34  1  0
 33 35  2  0
 35 29  1  0
 20 29  1  0
M  ISO  8  21  14  22  14  23  14  24  14  25  14  26  14  27   8  28   8
M  ISO  2  31  15  34  16
M  END
>  <DihAtoms>  (1) 
16,19,28,29

>  <DihDeg>  (1) 
89.45093346582719

$$$$
