
     RDKit          3D

 22 23  0  0  0  0  0  0  0  0999 V2000
   37.3907   30.2474   51.4163 C   0  0  0  0  0  0  0  0  0  0  0  0
   38.0678   30.9063   50.3611 C   0  0  0  0  0  0  0  0  0  0  0  0
   37.7087   30.6045   49.0590 C   0  0  0  0  0  0  0  0  0  0  0  0
   36.7148   29.6825   48.8301 N   0  0  0  0  0  0  0  0  0  0  0  0
   36.0901   29.0729   49.8528 C   0  0  0  0  0  0  0  0  0  0  0  0
   36.4189   29.3468   51.1492 N   0  0  0  0  0  0  0  0  0  0  0  0
   38.3600   31.2311   47.8936 C   0  0  0  0  0  0  0  0  0  0  0  0
   38.7749   32.6586   48.1998 C   0  0  0  0  0  0  0  0  0  0  0  0
   37.6665   30.4794   52.4199 H   0  0  0  0  0  0  0  0  0  0  0  0
   38.8304   31.6047   50.5949 H   0  0  0  0  0  0  0  0  0  0  0  0
   35.3082   28.3474   49.6614 H   0  0  0  0  0  0  0  0  0  0  0  0
   37.7708   31.1401   46.9856 H   0  0  0  0  0  0  0  0  0  0  0  0
   39.3208   30.6702   47.7492 H   0  0  0  0  0  0  0  0  0  0  0  0
   39.2594   33.1408   47.3295 H   0  0  0  0  0  0  0  0  0  0  0  0
   39.4506   32.7480   49.0386 H   0  0  0  0  0  0  0  0  0  0  0  0
   37.5291   33.4379   48.5402 C   0  0  0  0  0  0  0  0  0  0  0  0
   36.3643   32.6592   49.1995 C   0  0  0  0  0  0  0  0  0  0  0  0
   36.4208   31.6821   49.3969 H   0  0  0  0  0  0  0  0  0  0  0  0
   35.1703   33.9907   49.3940 S   0  0  0  0  0  0  0  0  0  0  0  0
   36.3016   35.3079   48.6269 C   0  0  0  0  0  0  0  0  0  0  0  0
   35.9701   36.3263   48.5343 H   0  0  0  0  0  0  0  0  0  0  0  0
   37.3821   34.7430   48.3063 N   0  0  0  0  0  0  0  0  0  0  0  0
  2  1  2  0
  3  2  1  0
  4  3  2  0
  4  5  1  0
  5  6  2  0
  6  1  1  0
  7  8  1  0
  7  3  1  0
  1  9  1  0
  2 10  1  0
  5 11  1  0
  7 12  1  0
  7 13  1  0
  8 14  1  0
  8 15  1  0
 16 17  2  0
 17 18  1  0
 17 19  1  0
 19 20  1  0
 20 21  1  0
 20 22  2  0
 22 16  1  0
  8 16  1  0
M  ISO  8   9  14  10  14  11  14  12   8  13   8  14   8  15   8  18  15
M  ISO  1  21  16
M  END
>  <DihAtoms>  (1) 
6,7,15,16

>  <DihDeg>  (1) 
-89.91254939804821

$$$$
