
     RDKit          3D

 47 51  0  0  0  0  0  0  0  0999 V2000
   37.5190   32.0906   49.0473 C   0  0  0  0  0  0  0  0  0  0  0  0
   38.0724   33.2322   49.6027 C   0  0  0  0  0  0  0  0  0  0  0  0
   39.0905   33.8244   48.8498 C   0  0  0  0  0  0  0  0  0  0  0  0
   39.4797   33.2830   47.6579 N   0  0  0  0  0  0  0  0  0  0  0  0
   38.9097   32.1624   47.1497 C   0  0  0  0  0  0  0  0  0  0  0  0
   37.9130   31.5639   47.8648 N   0  0  0  0  0  0  0  0  0  0  0  0
   40.0627   32.3801   45.0197 C   0  0  0  0  0  0  0  0  0  0  0  0
   39.3287   31.5860   45.8678 C   0  0  0  0  0  0  0  0  0  0  0  0
   39.0127   30.2971   45.4817 C   0  0  0  0  0  0  0  0  0  0  0  0
   39.3992   29.7517   44.2701 C   0  0  0  0  0  0  0  0  0  0  0  0
   39.2218   28.5545   43.6704 N   0  0  0  0  0  0  0  0  0  0  0  0
   39.8466   28.6466   42.4781 C   0  0  0  0  0  0  0  0  0  0  0  0
   40.4018   29.8695   42.3340 N   0  0  0  0  0  0  0  0  0  0  0  0
   40.1407   30.5947   43.4445 C   0  0  0  0  0  0  0  0  0  0  0  0
   40.4698   31.8738   43.7972 C   0  0  0  0  0  0  0  0  0  0  0  0
   36.4335   31.4051   49.8295 C   0  0  1  0  0  0  0  0  0  0  0  0
   35.3932   30.6180   49.1831 C   0  0  2  0  0  0  0  0  0  0  0  0
   36.6087   29.8821   49.8199 C   0  0  2  0  0  0  0  0  0  0  0  0
   35.3736   30.5792   47.8468 O   0  0  0  0  0  0  0  0  0  0  0  0
   34.5491   30.2684   46.8462 C   0  0  0  0  0  0  0  0  0  0  0  0
   35.0472   29.4372   46.0099 O   0  0  0  0  0  0  0  0  0  0  0  0
   33.3192   30.8489   46.8228 N   0  0  0  0  0  0  0  0  0  0  0  0
   36.4720   29.2871   51.1769 C   0  0  0  0  0  0  0  0  0  0  0  0
   37.4053   29.7669   52.2093 C   0  0  0  0  0  0  0  0  0  0  0  0
   37.7380   33.6289   50.5458 H   0  0  0  0  0  0  0  0  0  0  0  0
   39.5770   34.7184   49.2098 H   0  0  0  0  0  0  0  0  0  0  0  0
   40.3112   33.3981   45.3276 H   0  0  0  0  0  0  0  0  0  0  0  0
   38.4321   29.6770   46.1600 H   0  0  0  0  0  0  0  0  0  0  0  0
   38.6870   27.8168   44.1629 H   0  0  0  0  0  0  0  0  0  0  0  0
   39.8176   27.7731   41.8362 H   0  0  0  0  0  0  0  0  0  0  0  0
   41.0446   32.5254   43.1567 H   0  0  0  0  0  0  0  0  0  0  0  0
   36.1997   31.9053   50.7997 H   0  0  0  0  0  0  0  0  0  0  0  0
   34.5787   30.3273   49.9189 H   0  0  0  0  0  0  0  0  0  0  0  0
   37.3464   29.4247   49.1612 H   0  0  0  0  0  0  0  0  0  0  0  0
   32.2865   30.9526   46.6635 H   0  0  0  0  0  0  0  0  0  0  0  0
   32.4777   30.2967   46.4615 H   0  0  0  0  0  0  0  0  0  0  0  0
   35.4328   29.3962   51.5283 H   0  0  0  0  0  0  0  0  0  0  0  0
   36.6118   28.1736   51.0476 H   0  0  0  0  0  0  0  0  0  0  0  0
   37.1076   29.4754   53.2378 H   0  0  0  0  0  0  0  0  0  0  0  0
   37.3034   30.8998   52.2284 H   0  0  0  0  0  0  0  0  0  0  0  0
   38.8296   29.4278   51.8920 C   0  0  0  0  0  0  0  0  0  0  0  0
   39.5083   28.2815   52.2234 C   0  0  0  0  0  0  0  0  0  0  0  0
   39.1980   27.3813   52.7734 H   0  0  0  0  0  0  0  0  0  0  0  0
   41.2214   28.5300   51.4998 S   0  0  0  0  0  0  0  0  0  0  0  0
   40.6482   30.2239   50.8591 C   0  0  0  0  0  0  0  0  0  0  0  0
   41.1988   31.1295   50.2162 H   0  0  0  0  0  0  0  0  0  0  0  0
   39.5779   30.2745   51.2090 N   0  0  0  0  0  0  0  0  0  0  0  0
  1  2  2  0
  1 16  1  0
  3  2  1  0
  4  3  2  0
  5  4  1  0
  5  6  2  0
  6  1  1  0
  7  8  2  0
  8  5  1  0
  9  8  1  0
 10  9  2  0
 11 10  1  0
 12 11  1  0
 13 12  2  0
 13 14  1  0
 14 15  2  0
 14 10  1  0
 15  7  1  0
 16 18  1  0
 17 16  1  0
 17 18  1  0
 18 23  1  0
 19 17  1  0
 20 22  1  0
 20 19  1  0
 21 20  2  0
 23 24  1  0
  2 25  1  0
  3 26  1  0
  7 27  1  0
  9 28  1  0
 11 29  1  0
 12 30  1  0
 15 31  1  0
 16 32  1  1
 17 33  1  1
 18 34  1  6
 22 35  1  0
 22 36  1  0
 23 37  1  0
 23 38  1  0
 24 39  1  0
 24 40  1  0
 41 42  2  0
 42 43  1  0
 42 44  1  0
 44 45  1  0
 45 46  1  0
 45 47  2  0
 47 41  1  0
 24 41  1  0
M  ISO  8  25  14  26  14  27  14  28  14  29   9  30  14  31  14  32  13
M  ISO  8  33  13  34  13  37   8  38   8  39   8  40   8  43  15  46  16
M  END
>  <DihAtoms>  (1) 
22,23,40,41

>  <DihDeg>  (1) 
91.61424006752954

$$$$
