
     RDKit          3D

 39 43  0  0  1  0  0  0  0  0999 V2000
   35.3670   30.4110   48.5080 C   0  0  1  0  0  0  0  0  0  0  0  0
   36.1490   30.3020   49.7500 C   0  0  0  0  0  0  0  0  0  0  0  0
   36.9100   30.2320   48.4760 C   0  0  2  0  0  0  0  0  0  0  0  0
   37.7670   31.4360   48.3110 C   0  0  0  0  0  0  0  0  0  0  0  0
   37.6910   32.2500   49.4460 C   0  0  0  0  0  0  0  0  0  0  0  0
   38.4660   33.3840   49.5640 C   0  0  0  0  0  0  0  0  0  0  0  0
   39.3480   33.7450   48.5500 C   0  0  0  0  0  0  0  0  0  0  0  0
   39.4060   32.9280   47.4440 C   0  0  0  0  0  0  0  0  0  0  0  0
   40.2300   33.1760   46.3640 C   0  0  0  0  0  0  0  0  0  0  0  0
   40.2880   32.3670   45.2440 C   0  0  0  0  0  0  0  0  0  0  0  0
   39.4830   31.2410   45.1880 C   0  0  0  0  0  0  0  0  0  0  0  0
   38.6570   30.9830   46.2590 C   0  0  0  0  0  0  0  0  0  0  0  0
   38.6310   31.8120   47.3500 C   0  0  0  0  0  0  0  0  0  0  0  0
   33.7980   26.9870   48.3200 C   0  0  0  0  0  0  0  0  0  0  0  0
   34.5010   28.1180   48.8240 C   0  0  0  0  0  0  0  0  0  0  0  0
   34.6320   29.2250   48.0200 C   0  0  0  0  0  0  0  0  0  0  0  0
   34.0680   29.1480   46.7880 N   0  0  0  0  0  0  0  0  0  0  0  0
   33.4040   28.0810   46.3140 C   0  0  0  0  0  0  0  0  0  0  0  0
   33.2660   26.9800   47.0940 N   0  0  0  0  0  0  0  0  0  0  0  0
   32.8680   28.2120   44.9410 C   0  0  0  0  0  0  0  0  0  0  0  0
   32.2570   29.4240   44.7730 C   0  0  0  0  0  0  0  0  0  0  0  0
   31.6530   29.4260   43.0320 S   0  0  0  0  0  0  0  0  0  0  0  0
   32.3780   27.6760   42.8220 C   0  0  0  0  0  0  0  0  0  0  0  0
   32.8130   27.4980   43.8420 N   0  0  0  0  0  0  0  0  0  0  0  0
   34.6190   31.1331   48.1489 H   0  0  0  0  0  0  0  0  0  0  0  0
   36.2599   31.1840   50.3979 H   0  0  0  0  0  0  0  0  0  0  0  0
   36.0843   29.6460   50.6306 H   0  0  0  0  0  0  0  0  0  0  0  0
   37.5702   29.5413   47.9309 H   0  0  0  0  0  0  0  0  0  0  0  0
   37.0006   31.9805   50.2588 H   0  0  0  0  0  0  0  0  0  0  0  0
   38.3866   34.0081   50.4663 H   0  0  0  0  0  0  0  0  0  0  0  0
   39.9733   34.6465   48.6292 H   0  0  0  0  0  0  0  0  0  0  0  0
   40.8757   34.0660   46.3964 H   0  0  0  0  0  0  0  0  0  0  0  0
   40.9626   32.6136   44.4109 H   0  0  0  0  0  0  0  0  0  0  0  0
   39.5031   30.5731   44.3142 H   0  0  0  0  0  0  0  0  0  0  0  0
   38.0067   30.0961   46.2386 H   0  0  0  0  0  0  0  0  0  0  0  0
   33.6900   26.0961   48.9561 H   0  0  0  0  0  0  0  0  0  0  0  0
   34.9306   28.1060   49.8366 H   0  0  0  0  0  0  0  0  0  0  0  0
   32.1492   30.2262   45.5179 H   0  0  0  0  0  0  0  0  0  0  0  0
   32.3720   27.0183   41.9403 H   0  0  0  0  0  0  0  0  0  0  0  0
  1  2  1  0
  3  1  1  0
  3  2  1  0
  4  3  1  0
  4  5  2  0
  5  6  1  0
  7  6  2  0
  8  7  1  0
  9  8  2  0
 10  9  1  0
 11 10  2  0
 11 12  1  0
 12 13  2  0
 13  8  1  0
 13  4  1  0
 14 15  2  0
 16  1  1  0
 16 15  1  0
 17 16  2  0
 18 17  1  0
 18 19  2  0
 19 14  1  0
 20 18  1  0
 21 20  2  0
 22 21  1  0
 23 22  1  0
 23 24  2  0
 24 20  1  0
  1 25  1  1
  2 26  1  0
  2 27  1  0
  3 28  1  6
  5 29  1  0
  6 30  1  0
  7 31  1  0
  9 32  1  0
 10 33  1  0
 11 34  1  0
 12 35  1  0
 14 36  1  0
 15 37  1  0
 21 38  1  0
 23 39  1  0
M  ISO  8  25  13  26  13  27  13  28  13  29  14  30  14  31  14  32  14
M  ISO  7  33  14  34  14  35  14  36  14  37  14  38  14  39  14
M  END
>  <minimizedAffinity>  (1) 
-6.54956579

>  <minimizedRMSD>  (1) 
6.4032445

$$$$
