
     RDKit          3D

 40 43  0  0  0  0  0  0  0  0999 V2000
   32.1674   28.5257   47.4256 C   0  0  2  0  0  0  0  0  0  0  0  0
   33.4102   28.3657   48.2479 C   0  0  1  0  0  0  0  0  0  0  0  0
   33.8068   27.0666   48.1668 O   0  0  0  0  0  0  0  0  0  0  0  0
   33.1054   26.4372   47.1437 C   0  0  0  0  0  0  0  0  0  0  0  0
   32.5075   27.5216   46.2779 C   0  0  1  0  0  0  0  0  0  0  0  0
   32.0913   29.8275   46.8885 O   0  0  0  0  0  0  0  0  0  0  0  0
   34.7190   29.4112   47.4966 S   0  0  0  0  0  0  0  0  0  0  0  0
   37.1353   29.2874   50.6361 C   0  0  0  0  0  0  0  0  0  0  0  0
   37.6328   30.5884   50.7547 C   0  0  0  0  0  0  0  0  0  0  0  0
   37.2050   31.5443   49.8257 C   0  0  0  0  0  0  0  0  0  0  0  0
   36.3322   31.1581   48.8618 N   0  0  0  0  0  0  0  0  0  0  0  0
   35.8716   29.8916   48.7770 C   0  0  0  0  0  0  0  0  0  0  0  0
   36.2658   28.9401   49.6610 N   0  0  0  0  0  0  0  0  0  0  0  0
   31.3618   27.0431   45.6914 O   0  0  0  0  0  0  0  0  0  0  0  0
   29.8817   29.1115   44.2133 Cl  0  0  0  0  0  0  0  0  0  0  0  0
   29.3334   28.1241   45.5506 C   0  0  0  0  0  0  0  0  0  0  0  0
   30.1235   27.1736   46.1508 C   0  0  0  0  0  0  0  0  0  0  0  0
   29.5659   26.4227   47.1867 C   0  0  0  0  0  0  0  0  0  0  0  0
   28.2651   26.6348   47.5876 C   0  0  0  0  0  0  0  0  0  0  0  0
   27.4669   27.5874   46.9897 C   0  0  0  0  0  0  0  0  0  0  0  0
   28.0235   28.3456   45.9474 C   0  0  0  0  0  0  0  0  0  0  0  0
   31.2368   28.2418   47.9024 H   0  0  0  0  0  0  0  0  0  0  0  0
   33.1962   28.7211   49.2742 H   0  0  0  0  0  0  0  0  0  0  0  0
   32.4029   25.7671   47.6184 H   0  0  0  0  0  0  0  0  0  0  0  0
   33.8598   25.8810   46.5309 H   0  0  0  0  0  0  0  0  0  0  0  0
   33.2302   28.0352   45.6544 H   0  0  0  0  0  0  0  0  0  0  0  0
   32.5061   29.8830   45.9977 H   0  0  0  0  0  0  0  0  0  0  0  0
   37.4816   28.5690   51.3658 H   0  0  0  0  0  0  0  0  0  0  0  0
   38.3288   30.8894   51.5261 H   0  0  0  0  0  0  0  0  0  0  0  0
   37.5303   32.5754   49.8313 H   0  0  0  0  0  0  0  0  0  0  0  0
   30.0919   25.6511   47.7205 H   0  0  0  0  0  0  0  0  0  0  0  0
   27.8001   26.0745   48.3838 H   0  0  0  0  0  0  0  0  0  0  0  0
   26.4535   27.7457   47.3088 H   0  0  0  0  0  0  0  0  0  0  0  0
   27.2177   29.3709   45.2805 C   0  0  0  0  0  0  0  0  0  0  0  0
   27.7448   30.1344   44.2467 C   0  0  0  0  0  0  0  0  0  0  0  0
   28.7753   30.1536   43.7362 H   0  0  0  0  0  0  0  0  0  0  0  0
   26.3391   31.2858   43.7363 S   0  0  0  0  0  0  0  0  0  0  0  0
   25.2759   30.4744   45.0745 C   0  0  0  0  0  0  0  0  0  0  0  0
   24.1365   30.5553   45.5345 H   0  0  0  0  0  0  0  0  0  0  0  0
   25.9700   29.7114   45.5258 N   0  0  0  0  0  0  0  0  0  0  0  0
  1  2  1  0
  3  2  1  0
  4  3  1  0
  5  4  1  0
  5  1  1  0
  6  1  1  0
  7  2  1  0
  7 12  1  0
  8  9  2  0
 10  9  1  0
 11 10  2  0
 12 11  1  0
 12 13  2  0
 13  8  1  0
 14 17  1  0
 14  5  1  0
 15 16  1  0
 16 21  2  0
 16 17  1  0
 17 18  2  0
 18 19  1  0
 20 19  2  0
 21 20  1  0
  1 22  1  1
  2 23  1  1
  4 24  1  0
  4 25  1  0
  5 26  1  6
  6 27  1  0
  8 28  1  0
  9 29  1  0
 10 30  1  0
 18 31  1  0
 19 32  1  0
 20 33  1  0
 34 35  2  0
 35 36  1  0
 35 37  1  0
 37 38  1  0
 38 39  1  0
 38 40  2  0
 40 34  1  0
 21 34  1  0
M  ISO  8  22  13  23  13  24  13  25  13  26  13  27   3  28  14  29  14
M  ISO  6  30  14  31  14  32  14  33  14  36  15  39  16
M  END
>  <DihAtoms>  (1) 
15,20,33,34

>  <DihDeg>  (1) 
-179.986276142157

$$$$
