
     RDKit          3D

 25 27  0  0  0  0  0  0  0  0999 V2000
   35.9780   29.5840   48.8450 C   0  0  0  0  0  0  0  0  0  0  0  0
   35.2670   30.3920   48.0180 C   0  0  0  0  0  0  0  0  0  0  0  0
   34.1010   29.7370   47.6610 C   0  0  0  0  0  0  0  0  0  0  0  0
   34.1680   28.5210   48.3140 C   0  0  0  0  0  0  0  0  0  0  0  0
   35.2770   28.4760   48.9910 O   0  0  0  0  0  0  0  0  0  0  0  0
   33.1130   27.5310   48.1920 C   0  0  0  0  0  0  0  0  0  0  0  0
   33.5070   26.3120   47.4970 C   0  0  0  0  0  0  0  0  0  0  0  0
   31.9390   25.2520   47.5080 S   0  0  0  0  0  0  0  0  0  0  0  0
   31.0680   26.6550   48.4430 C   0  0  0  0  0  0  0  0  0  0  0  0
   31.8590   27.4560   48.5610 N   0  0  0  0  0  0  0  0  0  0  0  0
   37.2570   29.9450   49.4160 C   0  0  0  0  0  0  0  0  0  0  0  0
   37.6820   29.3270   50.4090 O   0  0  0  0  0  0  0  0  0  0  0  0
   37.9830   31.0280   48.7820 C   0  0  0  0  0  0  0  0  0  0  0  0
   38.0920   32.2190   49.4990 C   0  0  0  0  0  0  0  0  0  0  0  0
   38.7840   33.2770   48.9140 C   0  0  0  0  0  0  0  0  0  0  0  0
   39.3190   33.0950   47.6740 N   0  0  0  0  0  0  0  0  0  0  0  0
   39.2030   31.9360   47.0000 C   0  0  0  0  0  0  0  0  0  0  0  0
   38.5330   30.9060   47.5600 N   0  0  0  0  0  0  0  0  0  0  0  0
   35.5667   31.3974   47.6874 H   0  0  0  0  0  0  0  0  0  0  0  0
   33.2989   30.1032   47.0033 H   0  0  0  0  0  0  0  0  0  0  0  0
   34.4884   26.0652   47.0659 H   0  0  0  0  0  0  0  0  0  0  0  0
   30.0255   26.6835   48.7928 H   0  0  0  0  0  0  0  0  0  0  0  0
   37.6441   32.3202   50.4986 H   0  0  0  0  0  0  0  0  0  0  0  0
   38.8959   34.2364   49.4404 H   0  0  0  0  0  0  0  0  0  0  0  0
   39.6504   31.8285   46.0009 H   0  0  0  0  0  0  0  0  0  0  0  0
  1  5  1  0
  1 11  1  0
  2  1  2  0
  3  2  1  0
  3  4  2  0
  4  5  1  0
  6  4  1  0
  6 10  1  0
  7  8  1  0
  7  6  2  0
  8  9  1  0
  9 10  2  0
 11 12  2  0
 13 11  1  0
 13 14  2  0
 15 14  1  0
 16 15  2  0
 17 18  2  0
 17 16  1  0
 18 13  1  0
  2 19  1  0
  3 20  1  0
  7 21  1  0
  9 22  1  0
 14 23  1  0
 15 24  1  0
 17 25  1  0
M  ISO  7  19  14  20  14  21  14  22  14  23  14  24  14  25  14
M  END
>  <minimizedAffinity>  (1) 
-5.21161318

>  <minimizedRMSD>  (1) 
1.32040715

$$$$
