
     RDKit          3D

 44 47  0  0  1  0  0  0  0  0999 V2000
   35.3380   30.3020   49.8650 C   0  0  2  0  0  0  0  0  0  0  0  0
   36.2430   31.3470   49.4050 C   0  0  0  0  0  0  0  0  0  0  0  0
   37.7410   30.8960   49.4440 C   0  0  2  0  0  0  0  0  0  0  0  0
   38.1990   30.4790   50.7470 C   0  0  0  0  0  0  0  0  0  0  0  0
   37.1320   29.7270   51.5570 C   0  0  0  0  0  0  0  0  0  0  0  0
   36.0640   29.1930   50.6440 C   0  0  0  0  0  0  0  0  0  0  0  0
   38.4870   30.9340   46.5940 Cl  0  0  0  0  0  0  0  0  0  0  0  0
   38.9040   32.2340   47.6880 C   0  0  0  0  0  0  0  0  0  0  0  0
   38.4640   32.1240   48.9840 C   0  0  0  0  0  0  0  0  0  0  0  0
   38.8060   33.2140   49.7710 C   0  0  0  0  0  0  0  0  0  0  0  0
   39.5200   34.2950   49.2840 C   0  0  0  0  0  0  0  0  0  0  0  0
   39.9270   34.3270   47.9650 C   0  0  0  0  0  0  0  0  0  0  0  0
   39.6070   33.2610   47.1420 C   0  0  0  0  0  0  0  0  0  0  0  0
   40.0260   33.2880   45.7820 N   0  0  0  0  0  0  0  0  0  0  0  0
   34.5480   29.6380   48.8370 C   0  0  0  0  0  0  0  0  0  0  0  0
   35.1170   29.6370   47.5750 C   0  0  0  0  0  0  0  0  0  0  0  0
   34.4520   29.0020   46.5330 C   0  0  0  0  0  0  0  0  0  0  0  0
   33.2450   28.3980   46.8040 N   0  0  0  0  0  0  0  0  0  0  0  0
   32.6980   28.4080   48.0400 C   0  0  0  0  0  0  0  0  0  0  0  0
   33.3890   29.0370   49.0060 N   0  0  0  0  0  0  0  0  0  0  0  0
   31.4370   27.7910   48.3960 C   0  0  0  0  0  0  0  0  0  0  0  0
   30.8510   27.5720   47.0800 C   0  0  0  0  0  0  0  0  0  0  0  0
   29.1540   26.7500   47.4210 S   0  0  0  0  0  0  0  0  0  0  0  0
   29.5800   26.8720   49.2670 C   0  0  0  0  0  0  0  0  0  0  0  0
   30.5980   27.3530   49.2870 N   0  0  0  0  0  0  0  0  0  0  0  0
   34.6518   30.8748   50.5061 H   0  0  0  0  0  0  0  0  0  0  0  0
   36.1223   32.2290   50.0512 H   0  0  0  0  0  0  0  0  0  0  0  0
   35.9881   31.5764   48.3598 H   0  0  0  0  0  0  0  0  0  0  0  0
   37.9118   30.0045   48.8226 H   0  0  0  0  0  0  0  0  0  0  0  0
   39.0679   29.8173   50.6159 H   0  0  0  0  0  0  0  0  0  0  0  0
   38.4513   31.3901   51.3094 H   0  0  0  0  0  0  0  0  0  0  0  0
   37.6050   28.8896   52.0908 H   0  0  0  0  0  0  0  0  0  0  0  0
   36.6734   30.4215   52.2762 H   0  0  0  0  0  0  0  0  0  0  0  0
   35.3252   28.6468   51.2488 H   0  0  0  0  0  0  0  0  0  0  0  0
   36.5537   28.5375   49.9088 H   0  0  0  0  0  0  0  0  0  0  0  0
   38.4967   33.2194   50.8266 H   0  0  0  0  0  0  0  0  0  0  0  0
   39.7648   35.1340   49.9520 H   0  0  0  0  0  0  0  0  0  0  0  0
   40.4954   35.1843   47.5752 H   0  0  0  0  0  0  0  0  0  0  0  0
   40.5571   34.0940   45.4227 H   0  0  0  0  0  0  0  0  0  0  0  0
   39.7981   32.5015   45.1572 H   0  0  0  0  0  0  0  0  0  0  0  0
   36.0832   30.1325   47.3992 H   0  0  0  0  0  0  0  0  0  0  0  0
   34.8785   28.9825   45.5192 H   0  0  0  0  0  0  0  0  0  0  0  0
   31.2881   27.8240   46.1025 H   0  0  0  0  0  0  0  0  0  0  0  0
   28.9706   26.5466   50.1230 H   0  0  0  0  0  0  0  0  0  0  0  0
  1  6  1  0
  2  3  1  0
  2  1  1  0
  3  4  1  0
  4  5  1  0
  6  5  1  0
  7  8  1  0
  8  9  2  0
  9  3  1  0
  9 10  1  0
 11 10  2  0
 12 11  1  0
 13  8  1  0
 13 12  2  0
 14 13  1  0
 15 20  1  0
 15  1  1  0
 16 15  2  0
 17 18  2  0
 17 16  1  0
 18 19  1  0
 19 21  1  0
 19 20  2  0
 21 25  1  0
 22 23  1  0
 22 21  2  0
 23 24  1  0
 24 25  2  0
  1 26  1  1
  2 27  1  0
  2 28  1  0
  3 29  1  6
  4 30  1  0
  4 31  1  0
  5 32  1  0
  5 33  1  0
  6 34  1  0
  6 35  1  0
 10 36  1  0
 11 37  1  0
 12 38  1  0
 14 39  1  0
 14 40  1  0
 16 41  1  0
 17 42  1  0
 22 43  1  0
 24 44  1  0
M  ISO  8  26  13  27  13  28  13  29  13  30  13  31  13  32  13  33  13
M  ISO  8  34  13  35  13  36  14  37  14  38  14  41  14  42  14  43  14
M  ISO  1  44  14
M  END
>  <minimizedAffinity>  (1) 
-7.50445557

>  <minimizedRMSD>  (1) 
1.19578874

$$$$
