
     RDKit          3D

 29 32  0  0  0  0  0  0  0  0999 V2000
   37.0571   30.7091   46.7760 C   0  0  0  0  0  0  0  0  0  0  0  0
   37.7066   31.1445   47.9226 C   0  0  0  0  0  0  0  0  0  0  0  0
   38.7167   32.0654   47.8372 C   0  0  0  0  0  0  0  0  0  0  0  0
   39.0563   32.5367   46.5680 C   0  0  0  0  0  0  0  0  0  0  0  0
   40.0201   33.4458   46.2549 N   0  0  0  0  0  0  0  0  0  0  0  0
   39.9942   33.5958   44.9274 C   0  0  0  0  0  0  0  0  0  0  0  0
   39.0356   32.8019   44.3943 N   0  0  0  0  0  0  0  0  0  0  0  0
   38.4377   32.1325   45.3962 C   0  0  0  0  0  0  0  0  0  0  0  0
   37.4199   31.2007   45.5116 C   0  0  0  0  0  0  0  0  0  0  0  0
   37.3942   30.1620   51.5377 C   0  0  0  0  0  0  0  0  0  0  0  0
   37.9178   30.7567   50.3906 C   0  0  0  0  0  0  0  0  0  0  0  0
   37.2542   30.5729   49.1834 C   0  0  0  0  0  0  0  0  0  0  0  0
   36.1164   29.8174   49.1695 N   0  0  0  0  0  0  0  0  0  0  0  0
   35.6279   29.2504   50.2969 C   0  0  0  0  0  0  0  0  0  0  0  0
   36.2562   29.4182   51.4688 N   0  0  0  0  0  0  0  0  0  0  0  0
   36.2568   29.9893   46.7688 H   0  0  0  0  0  0  0  0  0  0  0  0
   39.2246   32.4069   48.7260 H   0  0  0  0  0  0  0  0  0  0  0  0
   40.6488   33.9225   46.9422 H   0  0  0  0  0  0  0  0  0  0  0  0
   36.9300   30.8769   44.6111 H   0  0  0  0  0  0  0  0  0  0  0  0
   37.9734   30.3544   52.4421 H   0  0  0  0  0  0  0  0  0  0  0  0
   38.8031   31.3418   50.4139 H   0  0  0  0  0  0  0  0  0  0  0  0
   34.7276   28.6492   50.3019 H   0  0  0  0  0  0  0  0  0  0  0  0
   40.8876   34.5016   44.1550 C   0  0  0  0  0  0  0  0  0  0  0  0
   40.6541   35.9323   44.1755 C   0  0  0  0  0  0  0  0  0  0  0  0
   39.9225   36.4425   44.6717 H   0  0  0  0  0  0  0  0  0  0  0  0
   42.0144   36.5313   43.0845 S   0  0  0  0  0  0  0  0  0  0  0  0
   42.6522   34.7640   42.7959 C   0  0  0  0  0  0  0  0  0  0  0  0
   43.5026   34.5567   42.1772 H   0  0  0  0  0  0  0  0  0  0  0  0
   41.9125   34.0290   43.4336 N   0  0  0  0  0  0  0  0  0  0  0  0
  1  2  2  0
  2 12  1  0
  3  2  1  0
  4  3  2  0
  5  4  1  0
  6  5  1  0
  7  6  2  0
  7  8  1  0
  8  9  2  0
  8  4  1  0
  9  1  1  0
 11 10  2  0
 12 11  1  0
 13 12  2  0
 13 14  1  0
 14 15  2  0
 15 10  1  0
  1 16  1  0
  3 17  1  0
  5 18  1  0
  9 19  1  0
 10 20  1  0
 11 21  1  0
 14 22  1  0
 23 24  2  0
 24 25  1  0
 24 26  1  0
 26 27  1  0
 27 28  1  0
 27 29  2  0
 29 23  1  0
  6 23  1  0
M  ISO  8  16  14  17  14  18   9  19  14  20  14  21  14  22  14  25  15
M  ISO  1  28  16
M  END
>  <DihAtoms>  (1) 
4,5,22,23

>  <DihDeg>  (1) 
-179.9933876275113

$$$$
