
     RDKit          3D

 18 19  0  0  0  0  0  0  0  0999 V2000
   37.5170   30.1940   50.7720 C   0  0  0  0  0  0  0  0  0  0  0  0
   38.1770   31.2170   50.0570 C   0  0  0  0  0  0  0  0  0  0  0  0
   37.6510   31.5930   48.8310 C   0  0  0  0  0  0  0  0  0  0  0  0
   36.5380   30.9660   48.3870 N   0  0  0  0  0  0  0  0  0  0  0  0
   35.9160   29.9850   49.0850 C   0  0  0  0  0  0  0  0  0  0  0  0
   36.4190   29.6190   50.2650 N   0  0  0  0  0  0  0  0  0  0  0  0
   34.7050   29.3760   48.4900 C   0  0  0  0  0  0  0  0  0  0  0  0
   34.1330   28.3330   49.2740 C   0  0  0  0  0  0  0  0  0  0  0  0
   32.6960   27.7720   48.3380 S   0  0  0  0  0  0  0  0  0  0  0  0
   33.0710   29.0460   46.9890 C   0  0  0  0  0  0  0  0  0  0  0  0
   33.9900   29.5380   47.4010 N   0  0  0  0  0  0  0  0  0  0  0  0
   37.9770   29.7300   52.0440 N   0  0  0  0  0  0  0  0  0  0  0  0
   39.0794   31.7000   50.4599 H   0  0  0  0  0  0  0  0  0  0  0  0
   38.1279   32.3834   48.2328 H   0  0  0  0  0  0  0  0  0  0  0  0
   34.4905   27.9517   50.2419 H   0  0  0  0  0  0  0  0  0  0  0  0
   32.5317   29.2490   46.0520 H   0  0  0  0  0  0  0  0  0  0  0  0
   37.4672   28.9811   52.5342 H   0  0  0  0  0  0  0  0  0  0  0  0
   38.8181   30.1446   52.4700 H   0  0  0  0  0  0  0  0  0  0  0  0
  1 12  1  0
  2  1  2  0
  3  2  1  0
  4  3  2  0
  4  5  1  0
  5  6  2  0
  6  1  1  0
  7  5  1  0
  7  8  2  0
  9  8  1  0
 10 11  2  0
 10  9  1  0
 11  7  1  0
  2 13  1  0
  3 14  1  0
  8 15  1  0
 10 16  1  0
 12 17  1  0
 12 18  1  0
M  ISO  4  13  14  14  14  15  14  16  14
M  END
>  <minimizedAffinity>  (1) 
-4.25285625

>  <minimizedRMSD>  (1) 
0.994593203

$$$$
