
     RDKit          3D

 40 43  0  0  1  0  0  0  0  0999 V2000
   31.4140   28.0390   47.5970 C   0  0  2  0  0  0  0  0  0  0  0  0
   32.7510   27.8030   48.2310 C   0  0  1  0  0  0  0  0  0  0  0  0
   33.0550   26.4830   48.1000 O   0  0  0  0  0  0  0  0  0  0  0  0
   32.1750   25.8990   47.1930 C   0  0  0  0  0  0  0  0  0  0  0  0
   31.5240   27.0210   46.4180 C   0  0  1  0  0  0  0  0  0  0  0  0
   31.3370   29.3450   47.0700 O   0  0  0  0  0  0  0  0  0  0  0  0
   33.9970   28.7710   47.2920 S   0  0  0  0  0  0  0  0  0  0  0  0
   36.3540   29.2300   50.4440 C   0  0  0  0  0  0  0  0  0  0  0  0
   36.9880   30.4590   50.2400 C   0  0  0  0  0  0  0  0  0  0  0  0
   36.6740   31.1770   49.0800 C   0  0  0  0  0  0  0  0  0  0  0  0
   35.7750   30.6420   48.2170 N   0  0  0  0  0  0  0  0  0  0  0  0
   35.1820   29.4510   48.4450 C   0  0  0  0  0  0  0  0  0  0  0  0
   35.4620   28.7290   49.5600 N   0  0  0  0  0  0  0  0  0  0  0  0
   30.2780   26.6130   46.0060 O   0  0  0  0  0  0  0  0  0  0  0  0
   29.3970   28.7650   44.2050 Cl  0  0  0  0  0  0  0  0  0  0  0  0
   28.6010   28.1470   45.6370 C   0  0  0  0  0  0  0  0  0  0  0  0
   29.1120   27.1190   46.3910 C   0  0  0  0  0  0  0  0  0  0  0  0
   28.3720   26.6870   47.4920 C   0  0  0  0  0  0  0  0  0  0  0  0
   27.1670   27.2790   47.8050 C   0  0  0  0  0  0  0  0  0  0  0  0
   26.6480   28.3110   47.0520 C   0  0  0  0  0  0  0  0  0  0  0  0
   27.3900   28.7500   45.9430 C   0  0  0  0  0  0  0  0  0  0  0  0
   26.8840   29.8440   45.1130 C   0  0  0  0  0  0  0  0  0  0  0  0
   26.2500   29.5910   43.9040 C   0  0  0  0  0  0  0  0  0  0  0  0
   25.7960   31.2950   43.2330 S   0  0  0  0  0  0  0  0  0  0  0  0
   26.5840   32.0420   44.7830 C   0  0  0  0  0  0  0  0  0  0  0  0
   26.9390   31.1380   45.3510 N   0  0  0  0  0  0  0  0  0  0  0  0
   30.5498   27.9281   48.2684 H   0  0  0  0  0  0  0  0  0  0  0  0
   32.7410   28.0964   49.2911 H   0  0  0  0  0  0  0  0  0  0  0  0
   32.7243   25.2366   46.5078 H   0  0  0  0  0  0  0  0  0  0  0  0
   31.4188   25.2948   47.7157 H   0  0  0  0  0  0  0  0  0  0  0  0
   32.0344   27.3831   45.5134 H   0  0  0  0  0  0  0  0  0  0  0  0
   31.2985   29.9987   47.8125 H   0  0  0  0  0  0  0  0  0  0  0  0
   36.5878   28.6531   51.3510 H   0  0  0  0  0  0  0  0  0  0  0  0
   37.7123   30.8504   50.9695 H   0  0  0  0  0  0  0  0  0  0  0  0
   37.1442   32.1498   48.8739 H   0  0  0  0  0  0  0  0  0  0  0  0
   28.7538   25.8659   48.1165 H   0  0  0  0  0  0  0  0  0  0  0  0
   26.6045   26.9185   48.6788 H   0  0  0  0  0  0  0  0  0  0  0  0
   25.6849   28.7751   47.3111 H   0  0  0  0  0  0  0  0  0  0  0  0
   26.0553   28.6129   43.4398 H   0  0  0  0  0  0  0  0  0  0  0  0
   26.6733   33.1025   45.0611 H   0  0  0  0  0  0  0  0  0  0  0  0
  1  2  1  0
  3  2  1  0
  4  3  1  0
  5  4  1  0
  5  1  1  0
  6  1  1  0
  7  2  1  0
  7 12  1  0
  9  8  2  0
 10  9  1  0
 11 12  1  0
 11 10  2  0
 12 13  2  0
 13  8  1  0
 14 17  1  0
 14  5  1  0
 15 16  1  0
 16 21  2  0
 16 17  1  0
 17 18  2  0
 18 19  1  0
 20 19  2  0
 21 20  1  0
 22 26  1  0
 22 21  1  0
 23 22  2  0
 24 23  1  0
 24 25  1  0
 25 26  2  0
  1 27  1  1
  2 28  1  1
  4 29  1  0
  4 30  1  0
  5 31  1  6
  6 32  1  0
  8 33  1  0
  9 34  1  0
 10 35  1  0
 18 36  1  0
 19 37  1  0
 20 38  1  0
 23 39  1  0
 25 40  1  0
M  ISO  8  27  13  28  13  29  13  30  13  31  13  32   3  33  14  34  14
M  ISO  6  35  14  36  14  37  14  38  14  39  14  40  14
M  END
>  <minimizedAffinity>  (1) 
-5.23156643

>  <minimizedRMSD>  (1) 
1.08180428

$$$$
