
     RDKit          3D

 44 48  0  0  0  0  0  0  0  0999 V2000
   32.1110   28.1740   47.4290 N   0  0  0  0  0  0  0  0  0  0  0  0
   32.4070   27.8430   48.7800 C   0  0  0  0  0  0  0  0  0  0  0  0
   33.6420   28.4260   49.3540 C   0  0  0  0  0  0  0  0  0  0  0  0
   34.8020   28.5170   48.4660 C   0  0  0  0  0  0  0  0  0  0  0  0
   34.4010   28.8100   47.0100 C   0  0  0  0  0  0  0  0  0  0  0  0
   33.2690   27.8320   46.6500 C   0  0  0  0  0  0  0  0  0  0  0  0
   36.0590   29.7680   50.1600 C   0  0  0  0  0  0  0  0  0  0  0  0
   35.7730   29.5820   48.8170 C   0  0  0  0  0  0  0  0  0  0  0  0
   36.3120   30.3360   47.8070 C   0  0  0  0  0  0  0  0  0  0  0  0
   37.2010   31.3520   48.1600 C   0  0  0  0  0  0  0  0  0  0  0  0
   37.4870   31.5410   49.4940 C   0  0  0  0  0  0  0  0  0  0  0  0
   36.9400   30.7730   50.5190 C   0  0  0  0  0  0  0  0  0  0  0  0
   38.3900   32.5990   49.6470 O   0  0  0  0  0  0  0  0  0  0  0  0
   38.8940   32.8360   48.3400 C   0  0  0  0  0  0  0  0  0  0  0  0
   37.9380   32.3060   47.4600 O   0  0  0  0  0  0  0  0  0  0  0  0
   30.9050   28.7400   46.9050 C   0  0  0  0  0  0  0  0  0  0  0  0
   30.7700   29.4000   45.6890 C   0  0  0  0  0  0  0  0  0  0  0  0
   29.5120   29.8820   45.3520 C   0  0  0  0  0  0  0  0  0  0  0  0
   28.4840   29.6860   46.2170 N   0  0  0  0  0  0  0  0  0  0  0  0
   28.6440   29.0470   47.3810 C   0  0  0  0  0  0  0  0  0  0  0  0
   29.8420   28.5790   47.7210 N   0  0  0  0  0  0  0  0  0  0  0  0
   27.4450   28.8970   48.2400 C   0  0  0  0  0  0  0  0  0  0  0  0
   26.1270   29.1510   47.8240 C   0  0  0  0  0  0  0  0  0  0  0  0
   25.2070   28.7580   49.3850 S   0  0  0  0  0  0  0  0  0  0  0  0
   26.8240   28.3200   50.3050 C   0  0  0  0  0  0  0  0  0  0  0  0
   27.7990   28.4920   49.4470 N   0  0  0  0  0  0  0  0  0  0  0  0
   31.5615   28.1792   49.3982 H   0  0  0  0  0  0  0  0  0  0  0  0
   32.5740   26.7557   48.7807 H   0  0  0  0  0  0  0  0  0  0  0  0
   33.4026   29.4442   49.6945 H   0  0  0  0  0  0  0  0  0  0  0  0
   33.9440   27.7326   50.1528 H   0  0  0  0  0  0  0  0  0  0  0  0
   35.2679   27.5278   48.5866 H   0  0  0  0  0  0  0  0  0  0  0  0
   34.0478   29.8476   46.9169 H   0  0  0  0  0  0  0  0  0  0  0  0
   35.2590   28.6837   46.3334 H   0  0  0  0  0  0  0  0  0  0  0  0
   33.0337   27.9139   45.5786 H   0  0  0  0  0  0  0  0  0  0  0  0
   33.5786   26.7987   46.8657 H   0  0  0  0  0  0  0  0  0  0  0  0
   35.5948   29.1293   50.9258 H   0  0  0  0  0  0  0  0  0  0  0  0
   36.0527   30.1467   46.7549 H   0  0  0  0  0  0  0  0  0  0  0  0
   37.1980   30.9579   51.5722 H   0  0  0  0  0  0  0  0  0  0  0  0
   39.0174   33.9153   48.1669 H   0  0  0  0  0  0  0  0  0  0  0  0
   39.8799   32.3700   48.1954 H   0  0  0  0  0  0  0  0  0  0  0  0
   31.6301   29.5358   45.0168 H   0  0  0  0  0  0  0  0  0  0  0  0
   29.3514   30.4127   44.4020 H   0  0  0  0  0  0  0  0  0  0  0  0
   25.7481   29.4879   46.8478 H   0  0  0  0  0  0  0  0  0  0  0  0
   26.9176   27.9886   51.3497 H   0  0  0  0  0  0  0  0  0  0  0  0
  1  2  1  0
  2  3  1  0
  4  8  1  0
  4  3  1  0
  5  4  1  0
  6  5  1  0
  6  1  1  0
  7 12  2  0
  8  7  1  0
  9 10  1  0
  9  8  2  0
 10 11  2  0
 11 13  1  0
 11 12  1  0
 14 13  1  0
 15 10  1  0
 15 14  1  0
 16  1  1  0
 16 21  1  0
 17 16  2  0
 18 17  1  0
 18 19  2  0
 19 20  1  0
 20 21  2  0
 20 22  1  0
 22 26  1  0
 23 22  2  0
 23 24  1  0
 24 25  1  0
 26 25  2  0
  2 27  1  0
  2 28  1  0
  3 29  1  0
  3 30  1  0
  4 31  1  0
  5 32  1  0
  5 33  1  0
  6 34  1  0
  6 35  1  0
  7 36  1  0
  9 37  1  0
 12 38  1  0
 14 39  1  0
 14 40  1  0
 17 41  1  0
 18 42  1  0
 23 43  1  0
 25 44  1  0
M  ISO  8  27  13  28  13  29  13  30  13  31  13  32  13  33  13  34  13
M  ISO  8  35  13  36  14  37  14  38  14  39  13  40  13  41  14  42  14
M  ISO  2  43  14  44  14
M  END
>  <minimizedAffinity>  (1) 
-7.341259

>  <minimizedRMSD>  (1) 
1.18210065

$$$$
