
     RDKit          3D

 18 19  0  0  0  0  0  0  0  0999 V2000
   37.7990   32.9290   49.6070 C   0  0  0  0  0  0  0  0  0  0  0  0
   38.6380   33.1460   48.4980 C   0  0  0  0  0  0  0  0  0  0  0  0
   38.4550   32.2780   47.4060 C   0  0  0  0  0  0  0  0  0  0  0  0
   37.5140   31.3100   47.4740 N   0  0  0  0  0  0  0  0  0  0  0  0
   36.7280   31.1370   48.5660 C   0  0  0  0  0  0  0  0  0  0  0  0
   36.8680   31.9550   49.6510 N   0  0  0  0  0  0  0  0  0  0  0  0
   35.7420   30.0610   48.5350 C   0  0  0  0  0  0  0  0  0  0  0  0
   34.7950   30.0530   47.4300 C   0  0  0  0  0  0  0  0  0  0  0  0
   33.7630   28.5720   47.7690 S   0  0  0  0  0  0  0  0  0  0  0  0
   34.7750   28.2130   49.3390 C   0  0  0  0  0  0  0  0  0  0  0  0
   35.5490   29.0550   49.3660 N   0  0  0  0  0  0  0  0  0  0  0  0
   39.5970   34.1880   48.5160 N   0  0  0  0  0  0  0  0  0  0  0  0
   37.9084   33.5871   50.4816 H   0  0  0  0  0  0  0  0  0  0  0  0
   39.0736   32.3864   46.5029 H   0  0  0  0  0  0  0  0  0  0  0  0
   34.7163   30.7629   46.5934 H   0  0  0  0  0  0  0  0  0  0  0  0
   34.6460   27.3876   50.0546 H   0  0  0  0  0  0  0  0  0  0  0  0
   40.2073   34.3404   47.7004 H   0  0  0  0  0  0  0  0  0  0  0  0
   39.6841   34.7935   49.3447 H   0  0  0  0  0  0  0  0  0  0  0  0
  1  6  2  0
  2 12  1  0
  2  1  1  0
  3  4  1  0
  3  2  2  0
  4  5  2  0
  5  6  1  0
  7  5  1  0
  7 11  1  0
  8  9  1  0
  8  7  2  0
  9 10  1  0
 10 11  2  0
  1 13  1  0
  3 14  1  0
  8 15  1  0
 10 16  1  0
 12 17  1  0
 12 18  1  0
M  ISO  4  13  14  14  14  15  14  16  14
M  END
>  <minimizedAffinity>  (1) 
-4.25610828

>  <minimizedRMSD>  (1) 
3.50882268

$$$$
