
     RDKit          3D

 42 45  0  0  1  0  0  0  0  0999 V2000
   35.1950   30.3230   50.0940 C   0  0  2  0  0  0  0  0  0  0  0  0
   36.1250   31.2310   49.3800 C   0  0  0  0  0  0  0  0  0  0  0  0
   37.5820   30.7550   49.4430 C   0  0  2  0  0  0  0  0  0  0  0  0
   38.0850   30.5520   50.8030 C   0  0  0  0  0  0  0  0  0  0  0  0
   37.0590   29.9340   51.7460 C   0  0  0  0  0  0  0  0  0  0  0  0
   35.9020   29.3380   50.9960 C   0  0  0  0  0  0  0  0  0  0  0  0
   38.0280   30.3570   46.5570 Cl  0  0  0  0  0  0  0  0  0  0  0  0
   38.6460   31.7620   47.4280 C   0  0  0  0  0  0  0  0  0  0  0  0
   38.3440   31.8490   48.7740 C   0  0  0  0  0  0  0  0  0  0  0  0
   38.8550   32.9830   49.3550 C   0  0  0  0  0  0  0  0  0  0  0  0
   39.5890   33.9280   48.6690 C   0  0  0  0  0  0  0  0  0  0  0  0
   39.8440   33.7580   47.3130 C   0  0  0  0  0  0  0  0  0  0  0  0
   39.3500   32.6280   46.6710 C   0  0  0  0  0  0  0  0  0  0  0  0
   39.5990   32.4170   45.2440 C   0  0  0  0  0  0  0  0  0  0  0  0
   40.4550   31.3600   44.7820 C   0  0  0  0  0  0  0  0  0  0  0  0
   40.4290   31.5290   42.9720 S   0  0  0  0  0  0  0  0  0  0  0  0
   39.2570   33.0180   43.1150 C   0  0  0  0  0  0  0  0  0  0  0  0
   39.1260   33.1000   44.2260 N   0  0  0  0  0  0  0  0  0  0  0  0
   34.3280   29.5510   49.1900 C   0  0  0  0  0  0  0  0  0  0  0  0
   34.3710   29.9420   47.8510 C   0  0  0  0  0  0  0  0  0  0  0  0
   33.5740   29.2300   46.9420 C   0  0  0  0  0  0  0  0  0  0  0  0
   32.7920   28.1820   47.4140 N   0  0  0  0  0  0  0  0  0  0  0  0
   32.7840   27.8420   48.7180 C   0  0  0  0  0  0  0  0  0  0  0  0
   33.5510   28.5350   49.5640 N   0  0  0  0  0  0  0  0  0  0  0  0
   34.5818   31.0071   50.6990 H   0  0  0  0  0  0  0  0  0  0  0  0
   36.0611   32.2299   49.8361 H   0  0  0  0  0  0  0  0  0  0  0  0
   35.8262   31.2473   48.3215 H   0  0  0  0  0  0  0  0  0  0  0  0
   37.6858   29.7698   48.9648 H   0  0  0  0  0  0  0  0  0  0  0  0
   38.9591   29.8859   50.7549 H   0  0  0  0  0  0  0  0  0  0  0  0
   38.3375   31.5441   51.2055 H   0  0  0  0  0  0  0  0  0  0  0  0
   37.5471   29.1435   52.3350 H   0  0  0  0  0  0  0  0  0  0  0  0
   36.6707   30.7297   52.3988 H   0  0  0  0  0  0  0  0  0  0  0  0
   35.1758   28.9518   51.7264 H   0  0  0  0  0  0  0  0  0  0  0  0
   36.3090   28.5447   50.3518 H   0  0  0  0  0  0  0  0  0  0  0  0
   38.6688   33.1470   50.4267 H   0  0  0  0  0  0  0  0  0  0  0  0
   39.9722   34.8153   49.1943 H   0  0  0  0  0  0  0  0  0  0  0  0
   40.4277   34.5061   46.7565 H   0  0  0  0  0  0  0  0  0  0  0  0
   41.0006   30.6189   45.3846 H   0  0  0  0  0  0  0  0  0  0  0  0
   38.8212   33.6373   42.3172 H   0  0  0  0  0  0  0  0  0  0  0  0
   35.0060   30.7772   47.5206 H   0  0  0  0  0  0  0  0  0  0  0  0
   33.5680   29.4963   45.8747 H   0  0  0  0  0  0  0  0  0  0  0  0
   32.1591   27.0114   49.0781 H   0  0  0  0  0  0  0  0  0  0  0  0
  1  6  1  0
  2  3  1  0
  2  1  1  0
  3  4  1  0
  4  5  1  0
  6  5  1  0
  7  8  1  0
  8  9  2  0
  9 10  1  0
  9  3  1  0
 11 10  2  0
 12 11  1  0
 13 12  2  0
 13  8  1  0
 14 13  1  0
 15 14  2  0
 16 17  1  0
 16 15  1  0
 17 18  2  0
 18 14  1  0
 19 24  1  0
 19  1  1  0
 20 19  2  0
 21 22  2  0
 21 20  1  0
 22 23  1  0
 23 24  2  0
  1 25  1  1
  2 26  1  0
  2 27  1  0
  3 28  1  6
  4 29  1  0
  4 30  1  0
  5 31  1  0
  5 32  1  0
  6 33  1  0
  6 34  1  0
 10 35  1  0
 11 36  1  0
 12 37  1  0
 15 38  1  0
 17 39  1  0
 20 40  1  0
 21 41  1  0
 23 42  1  0
M  ISO  8  25  13  26  13  27  13  28  13  29  13  30  13  31  13  32  13
M  ISO  8  33  13  34  13  35  14  36  14  37  14  38  14  39  14  40  14
M  ISO  2  41  14  42  14
M  END
>  <minimizedAffinity>  (1) 
-7.56951761

>  <minimizedRMSD>  (1) 
0.621090055

$$$$
