
     RDKit          3D

 33 35  0  0  0  0  0  0  0  0999 V2000
   38.1087   31.8798   47.4171 C   0  0  0  0  0  0  0  0  0  0  0  0
   38.5824   32.7963   48.3180 C   0  0  0  0  0  0  0  0  0  0  0  0
   38.0872   32.8655   49.6174 C   0  0  0  0  0  0  0  0  0  0  0  0
   37.0454   31.9270   49.9900 C   0  0  0  0  0  0  0  0  0  0  0  0
   36.6216   31.0438   49.0465 C   0  0  0  0  0  0  0  0  0  0  0  0
   37.0987   30.9821   47.7973 C   0  0  0  0  0  0  0  0  0  0  0  0
   40.0013   31.2573   45.9900 C   0  0  0  0  0  0  0  0  0  0  0  0
   38.7444   31.9144   46.1154 C   0  0  0  0  0  0  0  0  0  0  0  0
   38.2766   32.5032   44.9662 C   0  0  0  0  0  0  0  0  0  0  0  0
   38.9819   32.4420   43.8262 N   0  0  0  0  0  0  0  0  0  0  0  0
   40.1588   31.8214   43.7268 C   0  0  0  0  0  0  0  0  0  0  0  0
   40.6545   31.2359   44.8118 N   0  0  0  0  0  0  0  0  0  0  0  0
   35.1251   30.0147   46.9626 C   0  0  0  0  0  0  0  0  0  0  0  0
   34.5125   30.6846   47.8807 O   0  0  0  0  0  0  0  0  0  0  0  0
   36.6062   30.0874   46.8824 N   0  0  0  0  0  0  0  0  0  0  0  0
   34.4750   29.1935   45.9948 O   0  0  0  0  0  0  0  0  0  0  0  0
   33.2977   29.6204   45.4089 C   0  0  0  0  0  0  0  0  0  0  0  0
   33.4309   30.6018   44.6159 O   0  0  0  0  0  0  0  0  0  0  0  0
   39.3692   33.5178   48.0671 H   0  0  0  0  0  0  0  0  0  0  0  0
   38.4910   33.6064   50.2945 H   0  0  0  0  0  0  0  0  0  0  0  0
   36.7652   32.0948   51.0075 H   0  0  0  0  0  0  0  0  0  0  0  0
   35.8791   30.4389   49.5425 H   0  0  0  0  0  0  0  0  0  0  0  0
   40.4249   30.7694   46.8748 H   0  0  0  0  0  0  0  0  0  0  0  0
   37.3229   33.0021   45.0607 H   0  0  0  0  0  0  0  0  0  0  0  0
   40.7487   31.7569   42.8194 H   0  0  0  0  0  0  0  0  0  0  0  0
   37.0997   29.4918   46.1876 H   0  0  0  0  0  0  0  0  0  0  0  0
   31.9079   29.1223   45.5603 C   0  0  0  0  0  0  0  0  0  0  0  0
   30.9183   30.0906   45.7356 C   0  0  0  0  0  0  0  0  0  0  0  0
   30.8005   31.1679   45.8086 H   0  0  0  0  0  0  0  0  0  0  0  0
   29.4063   29.0754   45.8686 S   0  0  0  0  0  0  0  0  0  0  0  0
   30.3902   27.4757   45.6598 C   0  0  0  0  0  0  0  0  0  0  0  0
   30.2070   26.3359   45.6209 H   0  0  0  0  0  0  0  0  0  0  0  0
   31.4582   27.8883   45.5494 N   0  0  0  0  0  0  0  0  0  0  0  0
  1  6  1  0
  1  2  2  0
  2  3  1  0
  3  4  2  0
  5  4  1  0
  6  5  2  0
  7  8  2  0
  8  1  1  0
  9  8  1  0
 10  9  2  0
 11 10  1  0
 11 12  2  0
 12  7  1  0
 13 14  2  0
 15 13  1  0
 15  6  1  0
 16 13  1  0
 17 16  1  0
 18 17  2  0
  2 19  1  0
  3 20  1  0
  4 21  1  0
  5 22  1  0
  7 23  1  0
  9 24  1  0
 11 25  1  0
 15 26  1  0
 27 28  2  0
 28 29  1  0
 28 30  1  0
 30 31  1  0
 31 32  1  0
 31 33  2  0
 33 27  1  0
 17 27  1  0
M  ISO  8  19  14  20  14  21  14  22  14  23  14  24  14  25  14  29  15
M  ISO  1  32  16
M  END
>  <DihAtoms>  (1) 
15,16,26,27

>  <DihDeg>  (1) 
179.38111792448817

$$$$
