
     RDKit          3D

 33 35  0  0  0  0  0  0  0  0999 V2000
   38.2560   31.9340   47.3960 C   0  0  0  0  0  0  0  0  0  0  0  0
   38.8090   32.8420   48.2600 C   0  0  0  0  0  0  0  0  0  0  0  0
   38.3890   32.9390   49.5830 C   0  0  0  0  0  0  0  0  0  0  0  0
   37.3380   32.0400   50.0230 C   0  0  0  0  0  0  0  0  0  0  0  0
   36.8340   31.1640   49.1140 C   0  0  0  0  0  0  0  0  0  0  0  0
   37.2390   31.0750   47.8400 C   0  0  0  0  0  0  0  0  0  0  0  0
   40.0580   31.2580   45.8800 C   0  0  0  0  0  0  0  0  0  0  0  0
   38.8190   31.9350   46.0610 C   0  0  0  0  0  0  0  0  0  0  0  0
   38.2980   32.5100   44.9280 C   0  0  0  0  0  0  0  0  0  0  0  0
   38.9390   32.4180   43.7530 N   0  0  0  0  0  0  0  0  0  0  0  0
   40.1000   31.7780   43.6010 C   0  0  0  0  0  0  0  0  0  0  0  0
   40.6450   31.2060   44.6690 N   0  0  0  0  0  0  0  0  0  0  0  0
   35.2090   30.0660   47.2170 C   0  0  0  0  0  0  0  0  0  0  0  0
   34.6920   30.6910   48.2210 O   0  0  0  0  0  0  0  0  0  0  0  0
   36.6670   30.1890   46.9630 N   0  0  0  0  0  0  0  0  0  0  0  0
   34.4730   29.2510   46.3080 O   0  0  0  0  0  0  0  0  0  0  0  0
   33.0960   29.3560   46.2490 C   0  0  0  0  0  0  0  0  0  0  0  0
   32.6700   30.2420   45.4460 O   0  0  0  0  0  0  0  0  0  0  0  0
   32.0370   28.6080   46.9720 C   0  0  0  0  0  0  0  0  0  0  0  0
   32.4710   27.7090   47.9480 C   0  0  0  0  0  0  0  0  0  0  0  0
   30.8960   27.0320   48.5750 S   0  0  0  0  0  0  0  0  0  0  0  0
   29.8920   28.1040   47.3850 C   0  0  0  0  0  0  0  0  0  0  0  0
   30.7320   28.6660   46.8370 N   0  0  0  0  0  0  0  0  0  0  0  0
   39.6044   33.5106   47.8991 H   0  0  0  0  0  0  0  0  0  0  0  0
   38.8375   33.6709   50.2708 H   0  0  0  0  0  0  0  0  0  0  0  0
   36.9622   32.0666   51.0565 H   0  0  0  0  0  0  0  0  0  0  0  0
   36.0387   30.4810   49.4474 H   0  0  0  0  0  0  0  0  0  0  0  0
   40.5419   30.7714   46.7397 H   0  0  0  0  0  0  0  0  0  0  0  0
   37.3430   33.0529   44.9845 H   0  0  0  0  0  0  0  0  0  0  0  0
   40.5921   31.7255   42.6186 H   0  0  0  0  0  0  0  0  0  0  0  0
   37.1786   29.6789   46.2289 H   0  0  0  0  0  0  0  0  0  0  0  0
   33.4986   27.4699   48.2593 H   0  0  0  0  0  0  0  0  0  0  0  0
   28.8020   28.1716   47.2529 H   0  0  0  0  0  0  0  0  0  0  0  0
  1  6  1  0
  1  2  2  0
  2  3  1  0
  3  4  2  0
  5  4  1  0
  6  5  2  0
  7  8  2  0
  8  1  1  0
  9  8  1  0
 10  9  2  0
 11 10  1  0
 11 12  2  0
 12  7  1  0
 13 14  2  0
 15 13  1  0
 15  6  1  0
 16 13  1  0
 17 16  1  0
 17 19  1  0
 18 17  2  0
 19 20  2  0
 20 21  1  0
 22 21  1  0
 23 19  1  0
 23 22  2  0
  2 24  1  0
  3 25  1  0
  4 26  1  0
  5 27  1  0
  7 28  1  0
  9 29  1  0
 11 30  1  0
 15 31  1  0
 20 32  1  0
 22 33  1  0
M  ISO  8  24  14  25  14  26  14  27  14  28  14  29  14  30  14  32  14
M  ISO  1  33  14
M  END
>  <minimizedAffinity>  (1) 
-5.69784927

>  <minimizedRMSD>  (1) 
1.09650075

$$$$
