
     RDKit          3D

 28 30  0  0  0  0  0  0  0  0999 V2000
   36.7297   31.8152   50.2324 Cl  0  0  0  0  0  0  0  0  0  0  0  0
   37.3883   31.7369   48.6307 C   0  0  0  0  0  0  0  0  0  0  0  0
   36.7328   30.8546   47.8138 C   0  0  0  0  0  0  0  0  0  0  0  0
   37.1822   30.7254   46.4780 C   0  0  0  0  0  0  0  0  0  0  0  0
   38.2308   31.4470   46.0037 C   0  0  0  0  0  0  0  0  0  0  0  0
   38.8672   32.3265   46.8570 C   0  0  0  0  0  0  0  0  0  0  0  0
   40.2100   33.2835   46.2698 Cl  0  0  0  0  0  0  0  0  0  0  0  0
   38.4405   32.4593   48.1545 C   0  0  0  0  0  0  0  0  0  0  0  0
   35.7885   28.9842   49.1043 C   0  0  0  0  0  0  0  0  0  0  0  0
   35.5939   29.9698   48.0964 C   0  0  0  0  0  0  0  0  0  0  0  0
   34.3726   30.0316   47.4594 C   0  0  0  0  0  0  0  0  0  0  0  0
   33.4058   29.1464   47.8231 N   0  0  0  0  0  0  0  0  0  0  0  0
   33.6224   28.2152   48.7911 C   0  0  0  0  0  0  0  0  0  0  0  0
   34.8065   28.1386   49.4240 N   0  0  0  0  0  0  0  0  0  0  0  0
   39.1046   33.3586   49.0926 C   0  0  0  0  0  0  0  0  0  0  0  0
   39.3721   34.5860   48.9273 O   0  0  0  0  0  0  0  0  0  0  0  0
   36.7293   30.0560   45.7589 H   0  0  0  0  0  0  0  0  0  0  0  0
   38.5953   31.3675   44.9848 H   0  0  0  0  0  0  0  0  0  0  0  0
   36.7153   28.8673   49.6526 H   0  0  0  0  0  0  0  0  0  0  0  0
   34.2427   30.7868   46.6961 H   0  0  0  0  0  0  0  0  0  0  0  0
   32.7268   27.6152   48.9238 H   0  0  0  0  0  0  0  0  0  0  0  0
   39.5243   32.7841   50.3950 C   0  0  0  0  0  0  0  0  0  0  0  0
   38.7394   31.6098   50.8729 C   0  0  0  0  0  0  0  0  0  0  0  0
   37.9367   31.0406   50.5278 H   0  0  0  0  0  0  0  0  0  0  0  0
   39.5202   31.2214   52.4513 S   0  0  0  0  0  0  0  0  0  0  0  0
   40.7603   32.6490   52.2605 C   0  0  0  0  0  0  0  0  0  0  0  0
   41.6332   33.1255   52.8234 H   0  0  0  0  0  0  0  0  0  0  0  0
   40.4874   33.1352   51.2465 N   0  0  0  0  0  0  0  0  0  0  0  0
  2  1  1  0
  3 10  1  0
  3  2  2  0
  4  3  1  0
  5  4  2  0
  5  6  1  0
  6  8  2  0
  7  6  1  0
  8  2  1  0
  8 15  1  0
  9 14  2  0
 10  9  1  0
 11 12  1  0
 11 10  2  0
 12 13  2  0
 13 14  1  0
 16 15  2  0
  4 17  1  0
  5 18  1  0
  9 19  1  0
 11 20  1  0
 13 21  1  0
 22 23  2  0
 23 24  1  0
 23 25  1  0
 25 26  1  0
 26 27  1  0
 26 28  2  0
 28 22  1  0
 15 22  1  0
M  ISO  7  17  14  18  14  19  14  20  14  21  14  24  15  27  16
M  END
>  <DihAtoms>  (1) 
7,14,21,22

>  <DihDeg>  (1) 
-176.43152203934346

$$$$
