
     RDKit          3D

 33 36  0  0  0  0  0  0  0  0999 V2000
   37.5798   31.6521   48.9378 C   0  0  0  0  0  0  0  0  0  0  0  0
   38.1931   32.7283   49.5077 C   0  0  0  0  0  0  0  0  0  0  0  0
   39.0573   33.5721   48.8440 C   0  0  0  0  0  0  0  0  0  0  0  0
   39.3413   33.3405   47.5166 C   0  0  0  0  0  0  0  0  0  0  0  0
   38.7052   32.2345   46.9495 C   0  0  0  0  0  0  0  0  0  0  0  0
   37.8667   31.4362   47.6378 N   0  0  0  0  0  0  0  0  0  0  0  0
   36.9503   30.1541   50.8767 C   0  0  0  0  0  0  0  0  0  0  0  0
   36.6714   30.7892   49.6676 C   0  0  0  0  0  0  0  0  0  0  0  0
   35.4049   30.5736   49.1124 C   0  0  0  0  0  0  0  0  0  0  0  0
   34.5107   29.7679   49.7609 N   0  0  0  0  0  0  0  0  0  0  0  0
   34.8454   29.1790   50.9359 C   0  0  0  0  0  0  0  0  0  0  0  0
   36.0680   29.3708   51.4982 N   0  0  0  0  0  0  0  0  0  0  0  0
   40.1728   34.0568   46.6659 O   0  0  0  0  0  0  0  0  0  0  0  0
   38.0154   32.9743   50.5588 H   0  0  0  0  0  0  0  0  0  0  0  0
   39.5608   34.4325   49.2613 H   0  0  0  0  0  0  0  0  0  0  0  0
   38.8340   31.9323   45.9189 H   0  0  0  0  0  0  0  0  0  0  0  0
   37.9404   30.3608   51.2500 H   0  0  0  0  0  0  0  0  0  0  0  0
   35.0482   30.9995   48.1814 H   0  0  0  0  0  0  0  0  0  0  0  0
   34.0772   28.5625   51.3724 H   0  0  0  0  0  0  0  0  0  0  0  0
   38.5348   34.6794   45.1223 C   0  0  0  0  0  0  0  0  0  0  0  0
   39.5773   35.0997   45.9553 C   0  0  0  0  0  0  0  0  0  0  0  0
   39.9133   36.4315   46.0050 C   0  0  0  0  0  0  0  0  0  0  0  0
   40.7191   36.6824   46.6625 H   0  0  0  0  0  0  0  0  0  0  0  0
   39.2023   37.3154   45.2228 C   0  0  0  0  0  0  0  0  0  0  0  0
   39.3315   38.6536   45.0907 N   0  0  0  0  0  0  0  0  0  0  0  0
   38.3933   39.0252   44.2039 C   0  0  0  0  0  0  0  0  0  0  0  0
   38.2143   40.0508   43.8600 H   0  0  0  0  0  0  0  0  0  0  0  0
   37.6698   37.9752   43.7643 N   0  0  0  0  0  0  0  0  0  0  0  0
   38.1702   36.9049   44.3970 C   0  0  0  0  0  0  0  0  0  0  0  0
   37.8283   35.5645   44.3437 C   0  0  0  0  0  0  0  0  0  0  0  0
   38.2127   33.6463   45.0302 H   0  0  0  0  0  0  0  0  0  0  0  0
   40.0100   39.2653   45.5711 H   0  0  0  0  0  0  0  0  0  0  0  0
   37.0161   35.2839   43.6861 H   0  0  0  0  0  0  0  0  0  0  0  0
  1  2  2  0
  1  8  1  0
  3  2  1  0
  4  3  2  0
  5  4  1  0
  5  6  2  0
  6  1  1  0
  7 12  2  0
  8  7  1  0
  9  8  2  0
  9 10  1  0
 10 11  2  0
 11 12  1  0
 13  4  1  0
  2 14  1  0
  3 15  1  0
  5 16  1  0
  7 17  1  0
  9 18  1  0
 11 19  1  0
 20 21  2  0
 21 22  1  0
 22 23  1  0
 22 24  2  0
 24 25  1  0
 25 26  1  0
 26 27  1  0
 26 28  2  0
 28 29  1  0
 29 30  2  0
 30 20  1  0
 29 24  1  0
 20 31  1  0
 25 32  1  0
 30 33  1  0
 13 21  1  0
M  ISO  8  14  14  15  14  16  14  17  14  18  14  19  14  23  15  27  14
M  END
>  <DihAtoms>  (1) 
3,12,20,19

>  <DihDeg>  (1) 
89.99963863002279

$$$$
