
     RDKit          3D

 52 56  0  0  0  0  0  0  0  0999 V2000
   34.8197   30.0936   46.8625 C   0  0  0  0  0  0  0  0  0  0  0  0
   36.1423   30.5912   46.9380 C   0  0  0  0  0  0  0  0  0  0  0  0
   36.8406   30.7559   45.7336 C   0  0  0  0  0  0  0  0  0  0  0  0
   36.2110   30.4295   44.5828 N   0  0  0  0  0  0  0  0  0  0  0  0
   34.9645   29.9614   44.5416 C   0  0  0  0  0  0  0  0  0  0  0  0
   34.2659   29.7926   45.6812 N   0  0  0  0  0  0  0  0  0  0  0  0
   36.6399   30.8569   48.2704 N   0  0  0  0  0  0  0  0  0  0  0  0
   37.0665   31.9478   49.0837 C   0  0  0  0  0  0  0  0  0  0  0  0
   38.3978   31.4807   49.6053 C   0  0  0  0  0  0  0  0  0  0  0  0
   38.1979   29.9748   49.7757 C   0  0  0  0  0  0  0  0  0  0  0  0
   36.8395   29.7261   49.2286 C   0  0  1  0  0  0  0  0  0  0  0  0
   34.7917   28.9724   50.4245 C   0  0  0  0  0  0  0  0  0  0  0  0
   34.4826   28.0558   49.6055 O   0  0  0  0  0  0  0  0  0  0  0  0
   35.8812   29.8941   50.3039 N   0  0  0  0  0  0  0  0  0  0  0  0
   38.1797   31.2495   45.6970 C   0  0  0  0  0  0  0  0  0  0  0  0
   38.4430   32.4698   46.2501 C   0  0  0  0  0  0  0  0  0  0  0  0
   39.7081   33.0294   46.2849 C   0  0  0  0  0  0  0  0  0  0  0  0
   40.7438   32.2943   45.7199 C   0  0  0  0  0  0  0  0  0  0  0  0
   40.5589   31.0491   45.1361 C   0  0  0  0  0  0  0  0  0  0  0  0
   39.2423   30.5669   45.1515 C   0  0  0  0  0  0  0  0  0  0  0  0
   39.0052   29.2373   44.5262 C   0  0  0  0  0  0  0  0  0  0  0  0
   34.1871   29.9355   47.7052 H   0  0  0  0  0  0  0  0  0  0  0  0
   34.5347   29.7235   43.5761 H   0  0  0  0  0  0  0  0  0  0  0  0
   36.9747   32.9578   48.7490 H   0  0  0  0  0  0  0  0  0  0  0  0
   36.3922   31.9097   49.9960 H   0  0  0  0  0  0  0  0  0  0  0  0
   38.5929   31.9735   50.5759 H   0  0  0  0  0  0  0  0  0  0  0  0
   39.2465   31.6804   48.9276 H   0  0  0  0  0  0  0  0  0  0  0  0
   38.2658   29.7184   50.8648 H   0  0  0  0  0  0  0  0  0  0  0  0
   38.9908   29.3996   49.2393 H   0  0  0  0  0  0  0  0  0  0  0  0
   36.7132   28.7724   48.7130 H   0  0  0  0  0  0  0  0  0  0  0  0
   34.0324   28.8455   51.1800 H   0  0  0  0  0  0  0  0  0  0  0  0
   35.7153   30.5274   51.1081 H   0  0  0  0  0  0  0  0  0  0  0  0
   37.7513   33.1717   46.6738 H   0  0  0  0  0  0  0  0  0  0  0  0
   39.9985   33.9814   46.7022 H   0  0  0  0  0  0  0  0  0  0  0  0
   41.7792   32.6333   45.6890 H   0  0  0  0  0  0  0  0  0  0  0  0
   41.3510   30.4713   44.6947 H   0  0  0  0  0  0  0  0  0  0  0  0
   38.1377   29.3626   43.8283 H   0  0  0  0  0  0  0  0  0  0  0  0
   39.8576   29.0027   43.8133 H   0  0  0  0  0  0  0  0  0  0  0  0
   39.5651   27.7066   46.5634 C   0  0  0  0  0  0  0  0  0  0  0  0
   38.8299   28.1394   45.4837 C   0  0  0  0  0  0  0  0  0  0  0  0
   37.6743   27.3970   45.2034 C   0  0  0  0  0  0  0  0  0  0  0  0
   36.9586   27.5812   44.3886 H   0  0  0  0  0  0  0  0  0  0  0  0
   37.3006   26.3019   45.9637 C   0  0  0  0  0  0  0  0  0  0  0  0
   36.2935   25.4105   45.9627 N   0  0  0  0  0  0  0  0  0  0  0  0
   36.4475   24.5228   46.9821 C   0  0  0  0  0  0  0  0  0  0  0  0
   35.8348   23.6959   47.2648 H   0  0  0  0  0  0  0  0  0  0  0  0
   37.5738   24.8506   47.6493 N   0  0  0  0  0  0  0  0  0  0  0  0
   38.0852   25.9260   47.0301 C   0  0  0  0  0  0  0  0  0  0  0  0
   39.2306   26.6328   47.3370 C   0  0  0  0  0  0  0  0  0  0  0  0
   40.4371   28.3189   46.7354 H   0  0  0  0  0  0  0  0  0  0  0  0
   35.5160   25.4177   45.2703 H   0  0  0  0  0  0  0  0  0  0  0  0
   39.9070   26.4100   48.1557 H   0  0  0  0  0  0  0  0  0  0  0  0
  1  2  2  0
  2  7  1  0
  3  2  1  0
  4  3  2  0
  5  4  1  0
  5  6  2  0
  6  1  1  0
  7  8  1  0
  7 11  1  0
  8  9  1  0
  9 10  1  0
 11 10  1  0
 11 14  1  0
 13 12  2  0
 14 12  1  0
 15  3  1  0
 15 16  2  0
 16 17  1  0
 18 17  2  0
 19 20  2  0
 19 18  1  0
 20 15  1  0
 21 20  1  0
  1 22  1  0
  5 23  1  0
  8 24  1  0
  8 25  1  0
  9 26  1  0
  9 27  1  0
 10 28  1  0
 10 29  1  0
 11 30  1  6
 12 31  1  0
 14 32  1  0
 16 33  1  0
 17 34  1  0
 18 35  1  0
 19 36  1  0
 21 37  1  0
 21 38  1  0
 39 40  2  0
 40 41  1  0
 41 42  1  0
 41 43  2  0
 43 44  1  0
 44 45  1  0
 45 46  1  0
 45 47  2  0
 47 48  1  0
 48 49  2  0
 49 39  1  0
 48 43  1  0
 39 50  1  0
 44 51  1  0
 49 52  1  0
 21 40  1  0
M  ISO  8  22  14  23  14  24  13  25  13  26  13  27  13  28  13  29  13
M  ISO  8  30  13  31   6  33  14  34  14  35  14  36  14  37   8  38   8
M  ISO  2  42  15  46  14
M  END
>  <DihAtoms>  (1) 
19,20,39,38

>  <DihDeg>  (1) 
98.78203458588848

$$$$
