
     RDKit          3D

 29 31  0  0  0  0  0  0  0  0999 V2000
   38.5250   31.8260   47.7640 C   0  0  0  0  0  0  0  0  0  0  0  0
   39.9290   32.8520   45.9910 C   0  0  0  0  0  0  0  0  0  0  0  0
   38.7200   32.2480   46.3380 C   0  0  0  0  0  0  0  0  0  0  0  0
   37.8080   32.1020   45.3110 C   0  0  0  0  0  0  0  0  0  0  0  0
   38.1200   32.5360   44.0520 C   0  0  0  0  0  0  0  0  0  0  0  0
   37.4090   32.5050   42.8990 N   0  0  0  0  0  0  0  0  0  0  0  0
   38.1550   33.0620   41.9050 C   0  0  0  0  0  0  0  0  0  0  0  0
   39.3380   33.4470   42.4280 N   0  0  0  0  0  0  0  0  0  0  0  0
   39.3250   33.1290   43.7390 C   0  0  0  0  0  0  0  0  0  0  0  0
   40.2680   33.2980   44.7310 C   0  0  0  0  0  0  0  0  0  0  0  0
   37.8950   30.4400   47.7470 C   0  0  0  0  0  0  0  0  0  0  0  0
   37.2960   30.1330   51.4900 C   0  0  0  0  0  0  0  0  0  0  0  0
   37.9010   30.4630   50.2780 C   0  0  0  0  0  0  0  0  0  0  0  0
   37.3100   30.1220   49.0730 C   0  0  0  0  0  0  0  0  0  0  0  0
   36.1270   29.4580   49.1450 N   0  0  0  0  0  0  0  0  0  0  0  0
   35.5440   29.1400   50.3240 C   0  0  0  0  0  0  0  0  0  0  0  0
   36.1310   29.4790   51.4930 N   0  0  0  0  0  0  0  0  0  0  0  0
   39.4949   31.7917   48.2819 H   0  0  0  0  0  0  0  0  0  0  0  0
   37.8783   32.5399   48.2952 H   0  0  0  0  0  0  0  0  0  0  0  0
   40.6741   32.9834   46.7895 H   0  0  0  0  0  0  0  0  0  0  0  0
   36.8305   31.6366   45.5057 H   0  0  0  0  0  0  0  0  0  0  0  0
   36.4587   32.1224   42.7917 H   0  0  0  0  0  0  0  0  0  0  0  0
   37.8462   33.1782   40.8556 H   0  0  0  0  0  0  0  0  0  0  0  0
   41.2426   33.7656   44.5272 H   0  0  0  0  0  0  0  0  0  0  0  0
   37.1024   30.4114   46.9848 H   0  0  0  0  0  0  0  0  0  0  0  0
   38.6719   29.6975   47.5122 H   0  0  0  0  0  0  0  0  0  0  0  0
   37.7760   30.4101   52.4402 H   0  0  0  0  0  0  0  0  0  0  0  0
   38.8603   31.0013   50.2790 H   0  0  0  0  0  0  0  0  0  0  0  0
   34.5849   28.6014   50.3309 H   0  0  0  0  0  0  0  0  0  0  0  0
  2  3  2  0
  3  1  1  0
  4  3  1  0
  5  4  2  0
  6  5  1  0
  7  8  2  0
  7  6  1  0
  8  9  1  0
  9  5  1  0
  9 10  2  0
 10  2  1  0
 11  1  1  0
 11 14  1  0
 12 17  2  0
 13 12  1  0
 14 15  1  0
 14 13  2  0
 15 16  2  0
 16 17  1  0
  1 18  1  0
  1 19  1  0
  2 20  1  0
  4 21  1  0
  6 22  1  0
  7 23  1  0
 10 24  1  0
 11 25  1  0
 11 26  1  0
 12 27  1  0
 13 28  1  0
 16 29  1  0
M  ISO  8  18   8  19   8  20  14  21  14  22   9  23  14  24  14  25   8
M  ISO  4  26   8  27  14  28  14  29  14
M  END
>  <minimizedAffinity>  (1) 
-5.7495923

>  <minimizedRMSD>  (1) 
1.70556223

$$$$
