
     RDKit          3D

 39 42  0  0  0  0  0  0  0  0999 V2000
   37.9232   31.6040   49.8512 C   0  0  0  0  0  0  0  0  0  0  0  0
   37.9333   31.6341   48.4546 C   0  0  0  0  0  0  0  0  0  0  0  0
   37.0843   30.8249   47.7673 C   0  0  0  0  0  0  0  0  0  0  0  0
   36.2431   30.0266   48.4969 N   0  0  0  0  0  0  0  0  0  0  0  0
   36.2307   30.0118   49.8387 C   0  0  0  0  0  0  0  0  0  0  0  0
   37.0779   30.7981   50.5007 N   0  0  0  0  0  0  0  0  0  0  0  0
   38.1980   31.2058   45.6442 C   0  0  0  0  0  0  0  0  0  0  0  0
   37.0892   30.8103   46.3280 C   0  0  0  0  0  0  0  0  0  0  0  0
   35.9558   30.4559   45.6277 C   0  0  0  0  0  0  0  0  0  0  0  0
   35.8683   30.4823   44.2509 C   0  0  0  0  0  0  0  0  0  0  0  0
   36.9747   30.8866   43.5252 C   0  0  0  0  0  0  0  0  0  0  0  0
   38.0899   31.2309   44.2402 C   0  0  0  0  0  0  0  0  0  0  0  0
   39.6699   31.6498   46.3820 S   0  0  0  0  0  0  0  0  0  0  0  0
   40.1032   33.0226   46.0664 O   0  0  0  0  0  0  0  0  0  0  0  0
   40.7147   30.9383   45.5710 O   0  0  0  0  0  0  0  0  0  0  0  0
   35.1672   29.2157   50.4888 C   0  0  0  0  0  0  0  0  0  0  0  0
   35.3643   29.1007   51.8515 F   0  0  0  0  0  0  0  0  0  0  0  0
   33.8963   29.8760   50.3894 F   0  0  0  0  0  0  0  0  0  0  0  0
   34.9480   28.0156   49.9564 F   0  0  0  0  0  0  0  0  0  0  0  0
   38.5313   32.1660   50.5700 H   0  0  0  0  0  0  0  0  0  0  0  0
   38.5881   32.4296   48.2015 H   0  0  0  0  0  0  0  0  0  0  0  0
   35.0828   30.1375   46.2116 H   0  0  0  0  0  0  0  0  0  0  0  0
   34.9546   30.1930   43.7557 H   0  0  0  0  0  0  0  0  0  0  0  0
   36.9786   30.9351   42.4451 H   0  0  0  0  0  0  0  0  0  0  0  0
   38.9751   31.5538   43.6776 H   0  0  0  0  0  0  0  0  0  0  0  0
   41.7638   30.6367   47.9970 C   0  0  0  0  0  0  0  0  0  0  0  0
   40.4390   30.7750   47.6512 C   0  0  0  0  0  0  0  0  0  0  0  0
   39.5444   30.0919   48.5002 C   0  0  0  0  0  0  0  0  0  0  0  0
   38.4509   30.1059   48.3562 H   0  0  0  0  0  0  0  0  0  0  0  0
   39.9713   29.3545   49.5754 C   0  0  0  0  0  0  0  0  0  0  0  0
   39.3275   28.6262   50.5135 N   0  0  0  0  0  0  0  0  0  0  0  0
   40.2663   28.1294   51.3114 C   0  0  0  0  0  0  0  0  0  0  0  0
   40.1101   27.4960   52.1736 H   0  0  0  0  0  0  0  0  0  0  0  0
   41.5075   28.5113   50.9231 N   0  0  0  0  0  0  0  0  0  0  0  0
   41.3191   29.2778   49.8366 C   0  0  0  0  0  0  0  0  0  0  0  0
   42.2678   29.9090   49.0675 C   0  0  0  0  0  0  0  0  0  0  0  0
   42.4057   31.1948   47.2956 H   0  0  0  0  0  0  0  0  0  0  0  0
   38.2942   28.4870   50.5885 H   0  0  0  0  0  0  0  0  0  0  0  0
   43.3282   29.9198   49.1748 H   0  0  0  0  0  0  0  0  0  0  0  0
  1  6  2  0
  2  1  1  0
  3  2  2  0
  3  4  1  0
  4  5  2  0
  5 16  1  0
  5  6  1  0
  7  8  1  0
  7 13  1  0
  8  3  1  0
  9  8  2  0
 10  9  1  0
 11 12  1  0
 11 10  2  0
 12  7  2  0
 14 13  2  0
 15 13  2  0
 16 17  1  0
 18 16  1  0
 19 16  1  0
  1 20  1  0
  2 21  1  0
  9 22  1  0
 10 23  1  0
 11 24  1  0
 12 25  1  0
 26 27  2  0
 27 28  1  0
 28 29  1  0
 28 30  2  0
 30 31  1  0
 31 32  1  0
 32 33  1  0
 32 34  2  0
 34 35  1  0
 35 36  2  0
 36 26  1  0
 35 30  1  0
 26 37  1  0
 31 38  1  0
 36 39  1  0
 13 27  1  0
M  ISO  8  20  14  21  14  22  14  23  14  24  14  25  14  29  15  33  14
M  END
>  <DihAtoms>  (1) 
6,12,26,25

>  <DihDeg>  (1) 
30.50490360826831

$$$$
