
     RDKit          3D

 30 32  0  0  0  0  0  0  0  0999 V2000
   37.3318   30.2160   51.4127 C   0  0  0  0  0  0  0  0  0  0  0  0
   38.0506   30.6632   50.3081 C   0  0  0  0  0  0  0  0  0  0  0  0
   37.6130   30.2865   49.0388 C   0  0  0  0  0  0  0  0  0  0  0  0
   36.4987   29.4978   48.9776 N   0  0  0  0  0  0  0  0  0  0  0  0
   35.8292   29.0842   50.0609 C   0  0  0  0  0  0  0  0  0  0  0  0
   36.2554   29.4511   51.2966 N   0  0  0  0  0  0  0  0  0  0  0  0
   34.7404   28.2993   49.7368 O   0  0  0  0  0  0  0  0  0  0  0  0
   34.2012   28.3995   48.4410 C   0  0  0  0  0  0  0  0  0  0  0  0
   33.8347   27.0334   47.9295 C   0  0  0  0  0  0  0  0  0  0  0  0
   37.6640   30.5032   52.3988 H   0  0  0  0  0  0  0  0  0  0  0  0
   38.9264   31.2891   50.4695 H   0  0  0  0  0  0  0  0  0  0  0  0
   38.1459   30.6159   48.1801 H   0  0  0  0  0  0  0  0  0  0  0  0
   33.3705   29.1069   48.4539 H   0  0  0  0  0  0  0  0  0  0  0  0
   34.9413   28.8077   47.7187 H   0  0  0  0  0  0  0  0  0  0  0  0
   34.7688   26.4160   47.9487 H   0  0  0  0  0  0  0  0  0  0  0  0
   33.4805   27.0342   46.8993 H   0  0  0  0  0  0  0  0  0  0  0  0
   32.3955   25.0662   48.4164 C   0  0  0  0  0  0  0  0  0  0  0  0
   32.8366   26.3305   48.7529 C   0  0  0  0  0  0  0  0  0  0  0  0
   32.3419   26.9691   49.8859 C   0  0  0  0  0  0  0  0  0  0  0  0
   32.6664   27.9461   50.1680 H   0  0  0  0  0  0  0  0  0  0  0  0
   31.3923   26.3285   50.6899 C   0  0  0  0  0  0  0  0  0  0  0  0
   30.7914   26.7607   51.8138 N   0  0  0  0  0  0  0  0  0  0  0  0
   29.9741   25.7550   52.1719 C   0  0  0  0  0  0  0  0  0  0  0  0
   29.3086   25.6991   53.0241 H   0  0  0  0  0  0  0  0  0  0  0  0
   30.0712   24.7393   51.2957 N   0  0  0  0  0  0  0  0  0  0  0  0
   30.9695   25.0639   50.3284 C   0  0  0  0  0  0  0  0  0  0  0  0
   31.4594   24.4381   49.2114 C   0  0  0  0  0  0  0  0  0  0  0  0
   32.7510   24.5464   47.5574 H   0  0  0  0  0  0  0  0  0  0  0  0
   30.9248   27.6724   52.3043 H   0  0  0  0  0  0  0  0  0  0  0  0
   31.0847   23.4491   48.9878 H   0  0  0  0  0  0  0  0  0  0  0  0
  2  1  2  0
  3  2  1  0
  4  3  2  0
  4  5  1  0
  5  6  2  0
  6  1  1  0
  7  5  1  0
  8  7  1  0
  9  8  1  0
  1 10  1  0
  2 11  1  0
  3 12  1  0
  8 13  1  0
  8 14  1  0
  9 15  1  0
  9 16  1  0
 17 18  2  0
 18 19  1  0
 19 20  1  0
 19 21  2  0
 21 22  1  0
 22 23  1  0
 23 24  1  0
 23 25  2  0
 25 26  1  0
 26 27  2  0
 27 17  1  0
 26 21  1  0
 17 28  1  0
 22 29  1  0
 27 30  1  0
  9 18  1  0
M  ISO  8  10  14  11  14  12  14  13   8  14   8  15   8  16   8  20  15
M  ISO  1  24  14
M  END
>  <DihAtoms>  (1) 
7,8,17,16

>  <DihDeg>  (1) 
-90.00040946170334

$$$$
