
     RDKit          3D

 40 44  0  0  0  0  0  0  0  0999 V2000
   36.6850   29.3500   49.9270 O   0  0  0  0  0  0  0  0  0  0  0  0
   32.7030   28.1870   49.1790 C   0  0  0  0  0  0  0  0  0  0  0  0
   33.0000   29.1020   50.1270 C   0  0  0  0  0  0  0  0  0  0  0  0
   34.2750   29.5300   50.4260 C   0  0  0  0  0  0  0  0  0  0  0  0
   35.3380   29.0300   49.7510 C   0  0  0  0  0  0  0  0  0  0  0  0
   35.0400   28.0800   48.7650 C   0  0  0  0  0  0  0  0  0  0  0  0
   33.7750   27.6930   48.5090 N   0  0  0  0  0  0  0  0  0  0  0  0
   30.2730   27.8690   49.7180 C   0  0  0  0  0  0  0  0  0  0  0  0
   31.3770   27.7350   48.8600 C   0  0  0  0  0  0  0  0  0  0  0  0
   31.1140   27.1290   47.6610 C   0  0  0  0  0  0  0  0  0  0  0  0
   29.8680   26.6930   47.3340 N   0  0  0  0  0  0  0  0  0  0  0  0
   28.8460   26.8600   48.2220 C   0  0  0  0  0  0  0  0  0  0  0  0
   29.0380   27.4510   49.4250 N   0  0  0  0  0  0  0  0  0  0  0  0
   37.3340   30.2430   49.0880 C   0  0  0  0  0  0  0  0  0  0  0  0
   38.0460   31.2390   49.7640 C   0  0  0  0  0  0  0  0  0  0  0  0
   38.6500   32.0690   48.8220 C   0  0  0  0  0  0  0  0  0  0  0  0
   38.2870   31.5530   47.6380 N   0  0  0  0  0  0  0  0  0  0  0  0
   37.5260   30.4970   47.7790 N   0  0  0  0  0  0  0  0  0  0  0  0
   39.8970   32.6900   46.1900 C   0  0  0  0  0  0  0  0  0  0  0  0
   38.6720   32.0740   46.3650 C   0  0  0  0  0  0  0  0  0  0  0  0
   37.7750   31.9450   45.2970 C   0  0  0  0  0  0  0  0  0  0  0  0
   38.1990   32.4720   44.0710 C   0  0  0  0  0  0  0  0  0  0  0  0
   37.5450   32.4870   42.8950 N   0  0  0  0  0  0  0  0  0  0  0  0
   38.3720   33.1020   42.0330 C   0  0  0  0  0  0  0  0  0  0  0  0
   39.5130   33.4750   42.6110 N   0  0  0  0  0  0  0  0  0  0  0  0
   39.4230   33.0840   43.9090 C   0  0  0  0  0  0  0  0  0  0  0  0
   40.2880   33.2000   44.9680 C   0  0  0  0  0  0  0  0  0  0  0  0
   32.1667   29.5352   50.6997 H   0  0  0  0  0  0  0  0  0  0  0  0
   34.4304   30.2802   51.2154 H   0  0  0  0  0  0  0  0  0  0  0  0
   35.8622   27.6376   48.1834 H   0  0  0  0  0  0  0  0  0  0  0  0
   30.4355   28.3491   50.6943 H   0  0  0  0  0  0  0  0  0  0  0  0
   31.9342   26.9907   46.9412 H   0  0  0  0  0  0  0  0  0  0  0  0
   27.8399   26.5054   47.9538 H   0  0  0  0  0  0  0  0  0  0  0  0
   38.1172   31.3487   50.8562 H   0  0  0  0  0  0  0  0  0  0  0  0
   39.2825   32.9497   49.0074 H   0  0  0  0  0  0  0  0  0  0  0  0
   40.5795   32.7763   47.0484 H   0  0  0  0  0  0  0  0  0  0  0  0
   36.7955   31.4585   45.4144 H   0  0  0  0  0  0  0  0  0  0  0  0
   36.6082   32.1072   42.6974 H   0  0  0  0  0  0  0  0  0  0  0  0
   38.1346   33.2772   40.9733 H   0  0  0  0  0  0  0  0  0  0  0  0
   41.2671   33.6865   44.8465 H   0  0  0  0  0  0  0  0  0  0  0  0
  2  3  2  0
  3  4  1  0
  5  1  1  0
  5  4  2  0
  6  5  1  0
  7  6  2  0
  7  2  1  0
  9  2  1  0
  9  8  2  0
 10  9  1  0
 11 10  2  0
 11 12  1  0
 12 13  2  0
 13  8  1  0
 14 15  1  0
 14  1  1  0
 16 15  2  0
 17 18  1  0
 17 16  1  0
 18 14  2  0
 19 20  2  0
 20 17  1  0
 21 20  1  0
 22 21  2  0
 23 22  1  0
 24 25  2  0
 24 23  1  0
 25 26  1  0
 26 22  1  0
 26 27  2  0
 27 19  1  0
  3 28  1  0
  4 29  1  0
  6 30  1  0
  8 31  1  0
 10 32  1  0
 12 33  1  0
 15 34  1  0
 16 35  1  0
 19 36  1  0
 21 37  1  0
 23 38  1  0
 24 39  1  0
 27 40  1  0
M  ISO  8  28  14  29  14  30  14  31  14  32  14  33  14  34  14  35  14
M  ISO  5  36  14  37  14  38   9  39  14  40  14
M  END
>  <minimizedAffinity>  (1) 
-6.39225864

>  <minimizedRMSD>  (1) 
2.30277586

$$$$
