
     RDKit          3D

 29 31  0  0  0  0  0  0  0  0999 V2000
   37.3845   30.2449   51.4110 C   0  0  0  0  0  0  0  0  0  0  0  0
   38.0425   30.8809   50.3576 C   0  0  0  0  0  0  0  0  0  0  0  0
   37.7117   30.6015   49.0427 C   0  0  0  0  0  0  0  0  0  0  0  0
   36.7265   29.6879   48.8458 N   0  0  0  0  0  0  0  0  0  0  0  0
   36.0917   29.0741   49.8717 C   0  0  0  0  0  0  0  0  0  0  0  0
   36.4233   29.3550   51.1509 N   0  0  0  0  0  0  0  0  0  0  0  0
   38.3680   31.2391   47.8736 C   0  0  0  0  0  0  0  0  0  0  0  0
   38.7778   32.6666   48.2086 C   0  0  0  0  0  0  0  0  0  0  0  0
   37.7033   30.5199   52.4182 H   0  0  0  0  0  0  0  0  0  0  0  0
   38.8192   31.5994   50.5711 H   0  0  0  0  0  0  0  0  0  0  0  0
   35.3144   28.3550   49.6388 H   0  0  0  0  0  0  0  0  0  0  0  0
   39.2922   30.6419   47.6413 H   0  0  0  0  0  0  0  0  0  0  0  0
   37.6625   31.2519   47.0385 H   0  0  0  0  0  0  0  0  0  0  0  0
   37.8786   33.2508   48.4129 H   0  0  0  0  0  0  0  0  0  0  0  0
   39.5390   32.6809   49.0155 H   0  0  0  0  0  0  0  0  0  0  0  0
   40.7502   33.6794   47.0895 C   0  0  0  0  0  0  0  0  0  0  0  0
   39.4268   33.2465   46.9874 C   0  0  0  0  0  0  0  0  0  0  0  0
   38.8410   33.4007   45.7465 C   0  0  0  0  0  0  0  0  0  0  0  0
   37.8180   33.0656   45.6694 H   0  0  0  0  0  0  0  0  0  0  0  0
   39.5548   33.9482   44.7158 C   0  0  0  0  0  0  0  0  0  0  0  0
   39.2098   34.1998   43.4292 N   0  0  0  0  0  0  0  0  0  0  0  0
   40.2747   34.7572   42.7882 C   0  0  0  0  0  0  0  0  0  0  0  0
   40.3381   35.0793   41.7515 H   0  0  0  0  0  0  0  0  0  0  0  0
   41.2934   34.8590   43.6672 N   0  0  0  0  0  0  0  0  0  0  0  0
   40.8621   34.3670   44.8470 C   0  0  0  0  0  0  0  0  0  0  0  0
   41.4914   34.2343   46.0664 C   0  0  0  0  0  0  0  0  0  0  0  0
   41.2509   33.5725   48.0636 H   0  0  0  0  0  0  0  0  0  0  0  0
   38.2780   34.0035   42.9821 H   0  0  0  0  0  0  0  0  0  0  0  0
   42.5153   34.5383   46.2520 H   0  0  0  0  0  0  0  0  0  0  0  0
  2  1  2  0
  3  2  1  0
  4  3  2  0
  4  5  1  0
  5  6  2  0
  6  1  1  0
  7  8  1  0
  7  3  1  0
  1  9  1  0
  2 10  1  0
  5 11  1  0
  7 12  1  0
  7 13  1  0
  8 14  1  0
  8 15  1  0
 16 17  2  0
 17 18  1  0
 18 19  1  0
 18 20  2  0
 20 21  1  0
 21 22  1  0
 22 23  1  0
 22 24  2  0
 24 25  1  0
 25 26  2  0
 26 16  1  0
 25 20  1  0
 16 27  1  0
 21 28  1  0
 26 29  1  0
  8 17  1  0
M  ISO  8   9  14  10  14  11  14  12   8  13   8  14   8  15   8  19  15
M  ISO  1  23  14
M  END
>  <DihAtoms>  (1) 
6,7,16,15

>  <DihDeg>  (1) 
-89.99641108604362

$$$$
