
     RDKit          3D

 45 48  0  0  1  0  0  0  0  0999 V2000
   34.9900   29.9810   48.7360 C   0  0  1  0  0  0  0  0  0  0  0  0
   34.4200   30.1410   50.0570 C   0  0  0  0  0  0  0  0  0  0  0  0
   35.1050   29.4160   51.1950 C   0  0  0  0  0  0  0  0  0  0  0  0
   36.5960   29.3680   51.1190 C   0  0  0  0  0  0  0  0  0  0  0  0
   37.2100   29.2380   49.7740 C   0  0  0  0  0  0  0  0  0  0  0  0
   36.5000   30.0320   48.7410 C   0  0  2  0  0  0  0  0  0  0  0  0
   34.1540   27.5790   48.4730 C   0  0  0  0  0  0  0  0  0  0  0  0
   34.4900   28.8570   47.9260 C   0  0  0  0  0  0  0  0  0  0  0  0
   34.3180   28.9800   46.5570 C   0  0  0  0  0  0  0  0  0  0  0  0
   33.8570   27.9180   45.8290 N   0  0  0  0  0  0  0  0  0  0  0  0
   33.5590   26.7430   46.3980 C   0  0  0  0  0  0  0  0  0  0  0  0
   33.7100   26.5750   47.7400 N   0  0  0  0  0  0  0  0  0  0  0  0
   36.8270   31.5080   49.0930 C   0  0  0  0  0  0  0  0  0  0  0  0
   38.3410   31.6800   49.2370 C   0  0  0  0  0  0  0  0  0  0  0  0
   39.4210   33.1880   47.4710 C   0  0  0  0  0  0  0  0  0  0  0  0
   38.9380   31.9740   47.9110 C   0  0  0  0  0  0  0  0  0  0  0  0
   39.0250   30.9250   47.0110 C   0  0  0  0  0  0  0  0  0  0  0  0
   39.5450   30.9970   45.7340 C   0  0  0  0  0  0  0  0  0  0  0  0
   39.7130   30.1300   44.7420 N   0  0  0  0  0  0  0  0  0  0  0  0
   40.2840   30.7980   43.7260 C   0  0  0  0  0  0  0  0  0  0  0  0
   40.4660   32.0850   44.0970 N   0  0  0  0  0  0  0  0  0  0  0  0
   40.0140   32.2350   45.3440 C   0  0  0  0  0  0  0  0  0  0  0  0
   39.9540   33.3270   46.2060 C   0  0  0  0  0  0  0  0  0  0  0  0
   34.6080   30.8689   48.2109 H   0  0  0  0  0  0  0  0  0  0  0  0
   34.4299   31.2150   50.2945 H   0  0  0  0  0  0  0  0  0  0  0  0
   33.4194   29.6886   49.9922 H   0  0  0  0  0  0  0  0  0  0  0  0
   34.8291   29.9196   52.1332 H   0  0  0  0  0  0  0  0  0  0  0  0
   34.7648   28.3715   51.1373 H   0  0  0  0  0  0  0  0  0  0  0  0
   36.9788   30.2966   51.5675 H   0  0  0  0  0  0  0  0  0  0  0  0
   36.8736   28.4423   51.6443 H   0  0  0  0  0  0  0  0  0  0  0  0
   38.2529   29.5837   49.8284 H   0  0  0  0  0  0  0  0  0  0  0  0
   37.1469   28.1796   49.4810 H   0  0  0  0  0  0  0  0  0  0  0  0
   36.8272   29.6291   47.7711 H   0  0  0  0  0  0  0  0  0  0  0  0
   34.2711   27.4254   49.5559 H   0  0  0  0  0  0  0  0  0  0  0  0
   34.5520   29.9309   46.0559 H   0  0  0  0  0  0  0  0  0  0  0  0
   33.1912   25.9114   45.7790 H   0  0  0  0  0  0  0  0  0  0  0  0
   36.4588   32.1654   48.2916 H   0  0  0  0  0  0  0  0  0  0  0  0
   36.3380   31.7734   50.0419 H   0  0  0  0  0  0  0  0  0  0  0  0
   38.5509   32.5120   49.9253 H   0  0  0  0  0  0  0  0  0  0  0  0
   38.7772   30.7523   49.6359 H   0  0  0  0  0  0  0  0  0  0  0  0
   39.3808   34.0605   48.1397 H   0  0  0  0  0  0  0  0  0  0  0  0
   38.6460   29.9472   47.3432 H   0  0  0  0  0  0  0  0  0  0  0  0
   39.4542   29.1331   44.7502 H   0  0  0  0  0  0  0  0  0  0  0  0
   40.5586   30.3680   42.7515 H   0  0  0  0  0  0  0  0  0  0  0  0
   40.3335   34.3055   45.8767 H   0  0  0  0  0  0  0  0  0  0  0  0
  1  6  1  0
  1  2  1  0
  2  3  1  0
  4  3  1  0
  5  4  1  0
  6 13  1  0
  6  5  1  0
  8  7  2  0
  8  1  1  0
  9  8  1  0
 10 11  1  0
 10  9  2  0
 11 12  2  0
 12  7  1  0
 13 14  1  0
 15 16  2  0
 16 14  1  0
 17 16  1  0
 18 17  2  0
 19 18  1  0
 20 21  2  0
 20 19  1  0
 21 22  1  0
 22 18  1  0
 22 23  2  0
 23 15  1  0
  1 24  1  6
  2 25  1  0
  2 26  1  0
  3 27  1  0
  3 28  1  0
  4 29  1  0
  4 30  1  0
  5 31  1  0
  5 32  1  0
  6 33  1  6
  7 34  1  0
  9 35  1  0
 11 36  1  0
 13 37  1  0
 13 38  1  0
 14 39  1  0
 14 40  1  0
 15 41  1  0
 17 42  1  0
 19 43  1  0
 20 44  1  0
 23 45  1  0
M  ISO  8  24  13  25  13  26  13  27  13  28  13  29  13  30  13  31  13
M  ISO  8  32  13  33  13  34  14  35  14  36  14  37   8  38   8  39   8
M  ISO  6  40   8  41  14  42  14  43   9  44  14  45  14
M  END
>  <minimizedAffinity>  (1) 
-6.90094185

>  <minimizedRMSD>  (1) 
4.81013203

$$$$
