
     RDKit          3D

 33 36  0  0  0  0  0  0  0  0999 V2000
   37.5798   31.6521   48.9378 C   0  0  0  0  0  0  0  0  0  0  0  0
   38.1931   32.7283   49.5077 C   0  0  0  0  0  0  0  0  0  0  0  0
   39.0573   33.5721   48.8440 C   0  0  0  0  0  0  0  0  0  0  0  0
   39.3413   33.3405   47.5166 C   0  0  0  0  0  0  0  0  0  0  0  0
   38.7052   32.2345   46.9495 C   0  0  0  0  0  0  0  0  0  0  0  0
   37.8667   31.4362   47.6378 N   0  0  0  0  0  0  0  0  0  0  0  0
   36.9503   30.1541   50.8767 C   0  0  0  0  0  0  0  0  0  0  0  0
   36.6714   30.7892   49.6676 C   0  0  0  0  0  0  0  0  0  0  0  0
   35.4049   30.5736   49.1124 C   0  0  0  0  0  0  0  0  0  0  0  0
   34.5107   29.7679   49.7609 N   0  0  0  0  0  0  0  0  0  0  0  0
   34.8454   29.1790   50.9359 C   0  0  0  0  0  0  0  0  0  0  0  0
   36.0680   29.3708   51.4982 N   0  0  0  0  0  0  0  0  0  0  0  0
   40.1728   34.0568   46.6659 O   0  0  0  0  0  0  0  0  0  0  0  0
   38.0154   32.9743   50.5588 H   0  0  0  0  0  0  0  0  0  0  0  0
   39.5608   34.4325   49.2613 H   0  0  0  0  0  0  0  0  0  0  0  0
   38.8340   31.9323   45.9189 H   0  0  0  0  0  0  0  0  0  0  0  0
   37.9404   30.3608   51.2500 H   0  0  0  0  0  0  0  0  0  0  0  0
   35.0482   30.9995   48.1814 H   0  0  0  0  0  0  0  0  0  0  0  0
   34.0772   28.5625   51.3724 H   0  0  0  0  0  0  0  0  0  0  0  0
   39.3186   36.2289   46.7396 C   0  0  0  0  0  0  0  0  0  0  0  0
   39.5773   35.0997   45.9553 C   0  0  0  0  0  0  0  0  0  0  0  0
   39.2433   35.1066   44.6221 C   0  0  0  0  0  0  0  0  0  0  0  0
   39.4692   34.2109   44.0826 H   0  0  0  0  0  0  0  0  0  0  0  0
   38.6585   36.2397   44.0998 C   0  0  0  0  0  0  0  0  0  0  0  0
   38.2417   36.4987   42.8412 N   0  0  0  0  0  0  0  0  0  0  0  0
   37.7473   37.7474   42.8699 C   0  0  0  0  0  0  0  0  0  0  0  0
   37.3198   38.2817   42.0132 H   0  0  0  0  0  0  0  0  0  0  0  0
   37.8322   38.2961   44.0991 N   0  0  0  0  0  0  0  0  0  0  0  0
   38.4003   37.3595   44.8714 C   0  0  0  0  0  0  0  0  0  0  0  0
   38.7351   37.3570   46.2147 C   0  0  0  0  0  0  0  0  0  0  0  0
   39.5538   36.2978   47.7977 H   0  0  0  0  0  0  0  0  0  0  0  0
   38.2922   35.8684   42.0253 H   0  0  0  0  0  0  0  0  0  0  0  0
   38.5171   38.2513   46.7834 H   0  0  0  0  0  0  0  0  0  0  0  0
  1  2  2  0
  1  8  1  0
  3  2  1  0
  4  3  2  0
  5  4  1  0
  5  6  2  0
  6  1  1  0
  7 12  2  0
  8  7  1  0
  9  8  2  0
  9 10  1  0
 10 11  2  0
 11 12  1  0
 13  4  1  0
  2 14  1  0
  3 15  1  0
  5 16  1  0
  7 17  1  0
  9 18  1  0
 11 19  1  0
 20 21  2  0
 21 22  1  0
 22 23  1  0
 22 24  2  0
 24 25  1  0
 25 26  1  0
 26 27  1  0
 26 28  2  0
 28 29  1  0
 29 30  2  0
 30 20  1  0
 29 24  1  0
 20 31  1  0
 25 32  1  0
 30 33  1  0
 13 21  1  0
M  ISO  8  14  14  15  14  16  14  17  14  18  14  19  14  23  15  27  14
M  END
>  <DihAtoms>  (1) 
3,12,20,19

>  <DihDeg>  (1) 
89.99963863002279

$$$$
