
     RDKit          3D

 34 37  0  0  0  0  0  0  0  0999 V2000
   38.3781   30.5804   47.0981 C   0  0  2  0  0  0  0  0  0  0  0  0
   36.9822   30.5427   47.5196 C   0  0  0  0  0  0  0  0  0  0  0  0
   38.0828   31.1293   48.4185 C   0  0  1  0  0  0  0  0  0  0  0  0
   40.6190   32.6849   45.0191 C   0  0  0  0  0  0  0  0  0  0  0  0
   39.7177   33.1821   44.0456 C   0  0  0  0  0  0  0  0  0  0  0  0
   38.3406   32.7917   44.1042 C   0  0  0  0  0  0  0  0  0  0  0  0
   37.9703   31.9537   45.1061 N   0  0  0  0  0  0  0  0  0  0  0  0
   38.8676   31.4986   46.0213 C   0  0  0  0  0  0  0  0  0  0  0  0
   40.1712   31.8402   46.0030 N   0  0  0  0  0  0  0  0  0  0  0  0
   37.6969   30.5422   50.7854 C   0  0  0  0  0  0  0  0  0  0  0  0
   36.7325   31.3460   50.8028 O   0  0  0  0  0  0  0  0  0  0  0  0
   38.4152   30.2781   49.5682 N   0  0  0  0  0  0  0  0  0  0  0  0
   39.0730   29.6780   47.1445 H   0  0  0  0  0  0  0  0  0  0  0  0
   36.5312   29.6313   47.9023 H   0  0  0  0  0  0  0  0  0  0  0  0
   36.3030   31.2388   46.9872 H   0  0  0  0  0  0  0  0  0  0  0  0
   37.7884   32.1617   48.6794 H   0  0  0  0  0  0  0  0  0  0  0  0
   41.6312   33.0337   44.8931 H   0  0  0  0  0  0  0  0  0  0  0  0
   40.0588   33.8484   43.2653 H   0  0  0  0  0  0  0  0  0  0  0  0
   37.6367   33.1575   43.3738 H   0  0  0  0  0  0  0  0  0  0  0  0
   39.1370   29.5425   49.4497 H   0  0  0  0  0  0  0  0  0  0  0  0
   37.5588   29.9695   53.2565 C   0  0  0  0  0  0  0  0  0  0  0  0
   38.1175   29.8517   52.0009 C   0  0  0  0  0  0  0  0  0  0  0  0
   39.1958   28.9705   51.9265 C   0  0  0  0  0  0  0  0  0  0  0  0
   39.6722   28.8397   50.9655 H   0  0  0  0  0  0  0  0  0  0  0  0
   39.7133   28.2446   52.9783 C   0  0  0  0  0  0  0  0  0  0  0  0
   40.7255   27.3723   53.0708 N   0  0  0  0  0  0  0  0  0  0  0  0
   40.7617   26.9807   54.3680 C   0  0  0  0  0  0  0  0  0  0  0  0
   41.4756   26.2682   54.7820 H   0  0  0  0  0  0  0  0  0  0  0  0
   39.7769   27.6073   55.0761 N   0  0  0  0  0  0  0  0  0  0  0  0
   39.1206   28.3965   54.2134 C   0  0  0  0  0  0  0  0  0  0  0  0
   38.0491   29.2597   54.3325 C   0  0  0  0  0  0  0  0  0  0  0  0
   36.7226   30.6447   53.3424 H   0  0  0  0  0  0  0  0  0  0  0  0
   41.3620   27.0514   52.3106 H   0  0  0  0  0  0  0  0  0  0  0  0
   37.5545   29.4095   55.2803 H   0  0  0  0  0  0  0  0  0  0  0  0
  1  2  1  0
  1  3  1  0
  2  3  1  0
  3 12  1  0
  4  9  2  0
  5  6  2  0
  5  4  1  0
  6  7  1  0
  7  8  2  0
  8  1  1  0
  9  8  1  0
 10 11  2  0
 12 10  1  0
  1 13  1  1
  2 14  1  0
  2 15  1  0
  3 16  1  1
  4 17  1  0
  5 18  1  0
  6 19  1  0
 12 20  1  0
 21 22  2  0
 22 23  1  0
 23 24  1  0
 23 25  2  0
 25 26  1  0
 26 27  1  0
 27 28  1  0
 27 29  2  0
 29 30  1  0
 30 31  2  0
 31 21  1  0
 30 25  1  0
 21 32  1  0
 26 33  1  0
 31 34  1  0
 10 22  1  0
M  ISO  8  13  13  14  13  15  13  16  13  17  14  18  14  19  14  24  15
M  ISO  1  28  14
M  END
>  <DihAtoms>  (1) 
10,9,21,20

>  <DihDeg>  (1) 
-179.93309935376254

$$$$
