
     RDKit          3D

 34 37  0  0  0  0  0  0  0  0999 V2000
   38.3781   30.5804   47.0981 C   0  0  2  0  0  0  0  0  0  0  0  0
   36.9822   30.5427   47.5196 C   0  0  0  0  0  0  0  0  0  0  0  0
   38.0828   31.1293   48.4185 C   0  0  1  0  0  0  0  0  0  0  0  0
   40.6190   32.6849   45.0191 C   0  0  0  0  0  0  0  0  0  0  0  0
   39.7177   33.1821   44.0456 C   0  0  0  0  0  0  0  0  0  0  0  0
   38.3406   32.7917   44.1042 C   0  0  0  0  0  0  0  0  0  0  0  0
   37.9703   31.9537   45.1061 N   0  0  0  0  0  0  0  0  0  0  0  0
   38.8676   31.4986   46.0213 C   0  0  0  0  0  0  0  0  0  0  0  0
   40.1712   31.8402   46.0030 N   0  0  0  0  0  0  0  0  0  0  0  0
   37.6969   30.5422   50.7854 C   0  0  0  0  0  0  0  0  0  0  0  0
   36.7325   31.3460   50.8028 O   0  0  0  0  0  0  0  0  0  0  0  0
   38.4152   30.2781   49.5682 N   0  0  0  0  0  0  0  0  0  0  0  0
   39.0730   29.6780   47.1445 H   0  0  0  0  0  0  0  0  0  0  0  0
   36.5312   29.6313   47.9023 H   0  0  0  0  0  0  0  0  0  0  0  0
   36.3030   31.2388   46.9872 H   0  0  0  0  0  0  0  0  0  0  0  0
   37.7884   32.1617   48.6794 H   0  0  0  0  0  0  0  0  0  0  0  0
   41.6312   33.0337   44.8931 H   0  0  0  0  0  0  0  0  0  0  0  0
   40.0588   33.8484   43.2653 H   0  0  0  0  0  0  0  0  0  0  0  0
   37.6367   33.1575   43.3738 H   0  0  0  0  0  0  0  0  0  0  0  0
   39.1370   29.5425   49.4497 H   0  0  0  0  0  0  0  0  0  0  0  0
   39.3057   29.1813   52.2043 C   0  0  0  0  0  0  0  0  0  0  0  0
   38.1175   29.8517   52.0009 C   0  0  0  0  0  0  0  0  0  0  0  0
   37.2539   29.8461   53.0959 C   0  0  0  0  0  0  0  0  0  0  0  0
   36.3074   30.3570   52.9918 H   0  0  0  0  0  0  0  0  0  0  0  0
   37.5013   29.2419   54.3103 C   0  0  0  0  0  0  0  0  0  0  0  0
   36.7895   29.1468   55.4409 N   0  0  0  0  0  0  0  0  0  0  0  0
   37.5515   28.4277   56.3008 C   0  0  0  0  0  0  0  0  0  0  0  0
   37.2617   28.1678   57.3193 H   0  0  0  0  0  0  0  0  0  0  0  0
   38.7298   28.0787   55.7062 N   0  0  0  0  0  0  0  0  0  0  0  0
   38.7028   28.5844   54.4647 C   0  0  0  0  0  0  0  0  0  0  0  0
   39.5885   28.5649   53.4051 C   0  0  0  0  0  0  0  0  0  0  0  0
   39.9925   29.1702   51.3732 H   0  0  0  0  0  0  0  0  0  0  0  0
   35.8437   29.5398   55.6337 H   0  0  0  0  0  0  0  0  0  0  0  0
   40.5407   28.0620   53.4815 H   0  0  0  0  0  0  0  0  0  0  0  0
  1  2  1  0
  1  3  1  0
  2  3  1  0
  3 12  1  0
  4  9  2  0
  5  6  2  0
  5  4  1  0
  6  7  1  0
  7  8  2  0
  8  1  1  0
  9  8  1  0
 10 11  2  0
 12 10  1  0
  1 13  1  1
  2 14  1  0
  2 15  1  0
  3 16  1  1
  4 17  1  0
  5 18  1  0
  6 19  1  0
 12 20  1  0
 21 22  2  0
 22 23  1  0
 23 24  1  0
 23 25  2  0
 25 26  1  0
 26 27  1  0
 27 28  1  0
 27 29  2  0
 29 30  1  0
 30 31  2  0
 31 21  1  0
 30 25  1  0
 21 32  1  0
 26 33  1  0
 31 34  1  0
 10 22  1  0
M  ISO  8  13  13  14  13  15  13  16  13  17  14  18  14  19  14  24  15
M  ISO  1  28  14
M  END
>  <DihAtoms>  (1) 
10,9,21,20

>  <DihDeg>  (1) 
-179.93309935376254

$$$$
