
     RDKit          3D

 45 49  0  0  0  0  0  0  0  0999 V2000
   33.5770   26.6490   46.7450 N   0  0  0  0  0  0  0  0  0  0  0  0
   34.0840   26.8550   47.9750 C   0  0  0  0  0  0  0  0  0  0  0  0
   34.1320   28.1300   48.4990 C   0  0  0  0  0  0  0  0  0  0  0  0
   33.6460   29.1800   47.7260 C   0  0  0  0  0  0  0  0  0  0  0  0
   33.5910   30.4120   48.0020 O   0  0  0  0  0  0  0  0  0  0  0  0
   33.1440   28.9230   46.4900 N   0  0  0  0  0  0  0  0  0  0  0  0
   33.1120   27.6630   46.0060 C   0  0  0  0  0  0  0  0  0  0  0  0
   32.6530   27.3730   44.8600 O   0  0  0  0  0  0  0  0  0  0  0  0
   33.5690   30.3310   44.7080 C   0  0  0  0  0  0  0  0  0  0  0  0
   32.6220   29.9200   45.6170 C   0  0  0  0  0  0  0  0  0  0  0  0
   31.3540   30.4630   45.6040 C   0  0  0  0  0  0  0  0  0  0  0  0
   31.0860   31.4240   44.6520 C   0  0  0  0  0  0  0  0  0  0  0  0
   29.9410   32.0980   44.4350 N   0  0  0  0  0  0  0  0  0  0  0  0
   30.1230   32.9410   43.4020 C   0  0  0  0  0  0  0  0  0  0  0  0
   31.4070   32.7770   42.9800 N   0  0  0  0  0  0  0  0  0  0  0  0
   32.0340   31.8510   43.7250 C   0  0  0  0  0  0  0  0  0  0  0  0
   33.3000   31.3020   43.7450 C   0  0  0  0  0  0  0  0  0  0  0  0
   34.6050   28.5610   49.7210 O   0  0  0  0  0  0  0  0  0  0  0  0
   37.6200   30.1630   50.8970 C   0  0  0  0  0  0  0  0  0  0  0  0
   38.1140   30.7320   49.7120 C   0  0  0  0  0  0  0  0  0  0  0  0
   37.3790   30.5330   48.5610 C   0  0  0  0  0  0  0  0  0  0  0  0
   36.2470   29.8120   48.6570 N   0  0  0  0  0  0  0  0  0  0  0  0
   35.7890   29.2760   49.7970 C   0  0  0  0  0  0  0  0  0  0  0  0
   36.4890   29.4560   50.9310 N   0  0  0  0  0  0  0  0  0  0  0  0
   37.7670   31.0700   47.2760 C   0  0  0  0  0  0  0  0  0  0  0  0
   37.0450   30.7630   46.1280 C   0  0  0  0  0  0  0  0  0  0  0  0
   37.3700   31.2490   44.8900 C   0  0  0  0  0  0  0  0  0  0  0  0
   38.4440   32.0700   44.7600 N   0  0  0  0  0  0  0  0  0  0  0  0
   39.1240   32.3520   45.8830 C   0  0  0  0  0  0  0  0  0  0  0  0
   38.8240   31.8870   47.1020 N   0  0  0  0  0  0  0  0  0  0  0  0
   40.3040   33.2490   45.7740 C   0  0  0  0  0  0  0  0  0  0  0  0
   40.3750   33.9840   46.9770 F   0  0  0  0  0  0  0  0  0  0  0  0
   41.4490   32.5560   45.5290 F   0  0  0  0  0  0  0  0  0  0  0  0
   40.1200   34.2170   44.8010 F   0  0  0  0  0  0  0  0  0  0  0  0
   33.5464   25.6920   46.3653 H   0  0  0  0  0  0  0  0  0  0  0  0
   34.4606   26.0051   48.5631 H   0  0  0  0  0  0  0  0  0  0  0  0
   34.5711   29.8787   44.7422 H   0  0  0  0  0  0  0  0  0  0  0  0
   30.5871   30.1422   46.3244 H   0  0  0  0  0  0  0  0  0  0  0  0
   29.0689   31.9867   44.9716 H   0  0  0  0  0  0  0  0  0  0  0  0
   29.3773   33.6305   42.9795 H   0  0  0  0  0  0  0  0  0  0  0  0
   34.0697   31.6196   43.0262 H   0  0  0  0  0  0  0  0  0  0  0  0
   38.1853   30.3052   51.8299 H   0  0  0  0  0  0  0  0  0  0  0  0
   39.0483   31.3124   49.7016 H   0  0  0  0  0  0  0  0  0  0  0  0
   36.1726   30.0991   46.2187 H   0  0  0  0  0  0  0  0  0  0  0  0
   36.7679   30.9775   44.0104 H   0  0  0  0  0  0  0  0  0  0  0  0
  1  2  1  0
  2  3  2  0
  3 18  1  0
  4  5  2  0
  4  3  1  0
  6  4  1  0
  7  6  1  0
  7  1  1  0
  8  7  2  0
  9 10  2  0
 10  6  1  0
 11 10  1  0
 12 11  2  0
 13 12  1  0
 14 13  1  0
 15 14  2  0
 15 16  1  0
 16 17  2  0
 16 12  1  0
 17  9  1  0
 18 23  1  0
 19 24  2  0
 20 19  1  0
 21 22  1  0
 21 20  2  0
 22 23  2  0
 23 24  1  0
 25 21  1  0
 26 25  2  0
 27 26  1  0
 28 27  2  0
 28 29  1  0
 29 30  2  0
 30 25  1  0
 31 29  1  0
 31 32  1  0
 33 31  1  0
 34 31  1  0
  1 35  1  0
  2 36  1  0
  9 37  1  0
 11 38  1  0
 13 39  1  0
 14 40  1  0
 17 41  1  0
 19 42  1  0
 20 43  1  0
 26 44  1  0
 27 45  1  0
M  ISO  8  35   9  36  14  37  14  38  14  39   9  40  14  41  14  42  14
M  ISO  3  43  14  44  14  45  14
M  END
>  <minimizedAffinity>  (1) 
-6.99415636

>  <minimizedRMSD>  (1) 
1.68199337

$$$$
