
     RDKit          3D

 34 37  0  0  0  0  0  0  0  0999 V2000
   38.3781   30.5804   47.0981 C   0  0  2  0  0  0  0  0  0  0  0  0
   36.9822   30.5427   47.5196 C   0  0  0  0  0  0  0  0  0  0  0  0
   38.0828   31.1293   48.4185 C   0  0  1  0  0  0  0  0  0  0  0  0
   40.6190   32.6849   45.0191 C   0  0  0  0  0  0  0  0  0  0  0  0
   39.7177   33.1821   44.0456 C   0  0  0  0  0  0  0  0  0  0  0  0
   38.3406   32.7917   44.1042 C   0  0  0  0  0  0  0  0  0  0  0  0
   37.9703   31.9537   45.1061 N   0  0  0  0  0  0  0  0  0  0  0  0
   38.8676   31.4986   46.0213 C   0  0  0  0  0  0  0  0  0  0  0  0
   40.1712   31.8402   46.0030 N   0  0  0  0  0  0  0  0  0  0  0  0
   37.6969   30.5422   50.7854 C   0  0  0  0  0  0  0  0  0  0  0  0
   36.7325   31.3460   50.8028 O   0  0  0  0  0  0  0  0  0  0  0  0
   38.4152   30.2781   49.5682 N   0  0  0  0  0  0  0  0  0  0  0  0
   39.0730   29.6780   47.1445 H   0  0  0  0  0  0  0  0  0  0  0  0
   36.5312   29.6313   47.9023 H   0  0  0  0  0  0  0  0  0  0  0  0
   36.3030   31.2388   46.9872 H   0  0  0  0  0  0  0  0  0  0  0  0
   37.7884   32.1617   48.6794 H   0  0  0  0  0  0  0  0  0  0  0  0
   41.6312   33.0337   44.8931 H   0  0  0  0  0  0  0  0  0  0  0  0
   40.0588   33.8484   43.2653 H   0  0  0  0  0  0  0  0  0  0  0  0
   37.6367   33.1575   43.3738 H   0  0  0  0  0  0  0  0  0  0  0  0
   39.1370   29.5425   49.4497 H   0  0  0  0  0  0  0  0  0  0  0  0
   39.4095   29.6840   52.4539 C   0  0  0  0  0  0  0  0  0  0  0  0
   38.1175   29.8517   52.0009 C   0  0  0  0  0  0  0  0  0  0  0  0
   37.1387   29.2874   52.8184 C   0  0  0  0  0  0  0  0  0  0  0  0
   36.1077   29.3889   52.5109 H   0  0  0  0  0  0  0  0  0  0  0  0
   37.3701   28.6055   53.9942 C   0  0  0  0  0  0  0  0  0  0  0  0
   36.5560   28.0145   54.8784 N   0  0  0  0  0  0  0  0  0  0  0  0
   37.3611   27.5042   55.8421 C   0  0  0  0  0  0  0  0  0  0  0  0
   37.0117   26.9555   56.7171 H   0  0  0  0  0  0  0  0  0  0  0  0
   38.6679   27.7775   55.5565 N   0  0  0  0  0  0  0  0  0  0  0  0
   38.6782   28.4642   54.4050 C   0  0  0  0  0  0  0  0  0  0  0  0
   39.6800   29.0079   53.6251 C   0  0  0  0  0  0  0  0  0  0  0  0
   40.1866   30.1110   51.8405 H   0  0  0  0  0  0  0  0  0  0  0  0
   35.5162   27.9522   54.8451 H   0  0  0  0  0  0  0  0  0  0  0  0
   40.7181   28.9213   53.9082 H   0  0  0  0  0  0  0  0  0  0  0  0
  1  2  1  0
  1  3  1  0
  2  3  1  0
  3 12  1  0
  4  9  2  0
  5  6  2  0
  5  4  1  0
  6  7  1  0
  7  8  2  0
  8  1  1  0
  9  8  1  0
 10 11  2  0
 12 10  1  0
  1 13  1  1
  2 14  1  0
  2 15  1  0
  3 16  1  1
  4 17  1  0
  5 18  1  0
  6 19  1  0
 12 20  1  0
 21 22  2  0
 22 23  1  0
 23 24  1  0
 23 25  2  0
 25 26  1  0
 26 27  1  0
 27 28  1  0
 27 29  2  0
 29 30  1  0
 30 31  2  0
 31 21  1  0
 30 25  1  0
 21 32  1  0
 26 33  1  0
 31 34  1  0
 10 22  1  0
M  ISO  8  13  13  14  13  15  13  16  13  17  14  18  14  19  14  24  15
M  ISO  1  28  14
M  END
>  <DihAtoms>  (1) 
10,9,21,20

>  <DihDeg>  (1) 
-179.93309935376254

$$$$
