
     RDKit          3D

 40 44  0  0  0  0  0  0  0  0999 V2000
   33.8432   28.7839   48.2823 C   0  0  0  0  0  0  0  0  0  0  0  0
   34.4387   28.4180   49.4370 C   0  0  0  0  0  0  0  0  0  0  0  0
   35.7111   28.7921   49.8117 C   0  0  0  0  0  0  0  0  0  0  0  0
   36.4571   29.5805   49.0009 C   0  0  0  0  0  0  0  0  0  0  0  0
   35.8475   29.9657   47.7996 C   0  0  0  0  0  0  0  0  0  0  0  0
   34.5991   29.5740   47.4766 N   0  0  0  0  0  0  0  0  0  0  0  0
   31.6427   27.6474   48.6836 C   0  0  0  0  0  0  0  0  0  0  0  0
   32.5181   28.4000   47.8826 C   0  0  0  0  0  0  0  0  0  0  0  0
   32.0226   28.7604   46.6585 C   0  0  0  0  0  0  0  0  0  0  0  0
   30.7722   28.4102   46.2569 N   0  0  0  0  0  0  0  0  0  0  0  0
   29.9806   27.6770   47.0935 C   0  0  0  0  0  0  0  0  0  0  0  0
   30.4085   27.2877   48.3171 N   0  0  0  0  0  0  0  0  0  0  0  0
   37.7527   30.0483   49.2251 O   0  0  0  0  0  0  0  0  0  0  0  0
   38.1627   31.2926   48.7752 C   0  0  0  0  0  0  0  0  0  0  0  0
   37.8798   32.3362   49.6632 C   0  0  0  0  0  0  0  0  0  0  0  0
   38.3351   33.5285   49.1053 C   0  0  0  0  0  0  0  0  0  0  0  0
   38.8643   33.1681   47.9273 N   0  0  0  0  0  0  0  0  0  0  0  0
   38.7710   31.8783   47.7247 N   0  0  0  0  0  0  0  0  0  0  0  0
   33.9159   27.7883   50.1449 H   0  0  0  0  0  0  0  0  0  0  0  0
   36.1755   28.4896   50.7433 H   0  0  0  0  0  0  0  0  0  0  0  0
   36.3656   30.5962   47.0863 H   0  0  0  0  0  0  0  0  0  0  0  0
   31.9856   27.3369   49.6611 H   0  0  0  0  0  0  0  0  0  0  0  0
   32.6630   29.3393   46.0120 H   0  0  0  0  0  0  0  0  0  0  0  0
   28.9774   27.3668   46.8338 H   0  0  0  0  0  0  0  0  0  0  0  0
   37.4008   32.4086   50.6527 H   0  0  0  0  0  0  0  0  0  0  0  0
   38.3077   34.5469   49.4697 H   0  0  0  0  0  0  0  0  0  0  0  0
   39.1331   35.4066   46.9805 C   0  0  0  0  0  0  0  0  0  0  0  0
   39.4635   34.0644   46.9887 C   0  0  0  0  0  0  0  0  0  0  0  0
   40.3928   33.5479   46.0788 C   0  0  0  0  0  0  0  0  0  0  0  0
   40.6815   32.5057   46.0487 H   0  0  0  0  0  0  0  0  0  0  0  0
   40.9502   34.4667   45.1814 C   0  0  0  0  0  0  0  0  0  0  0  0
   41.8578   34.2462   44.2116 N   0  0  0  0  0  0  0  0  0  0  0  0
   42.0640   35.4414   43.6347 C   0  0  0  0  0  0  0  0  0  0  0  0
   42.7188   35.7307   42.8064 H   0  0  0  0  0  0  0  0  0  0  0  0
   41.3298   36.4027   44.1950 N   0  0  0  0  0  0  0  0  0  0  0  0
   40.6134   35.8032   45.1822 C   0  0  0  0  0  0  0  0  0  0  0  0
   39.6999   36.2903   46.0824 C   0  0  0  0  0  0  0  0  0  0  0  0
   38.4197   35.8249   47.6728 H   0  0  0  0  0  0  0  0  0  0  0  0
   42.3421   33.3716   43.9106 H   0  0  0  0  0  0  0  0  0  0  0  0
   39.4758   37.3460   46.0352 H   0  0  0  0  0  0  0  0  0  0  0  0
  1  2  2  0
  2  3  1  0
  4 13  1  0
  4  3  2  0
  5  4  1  0
  6  5  2  0
  6  1  1  0
  8  1  1  0
  8  7  2  0
  9  8  1  0
 10  9  2  0
 10 11  1  0
 11 12  2  0
 12  7  1  0
 14 13  1  0
 14 15  1  0
 16 15  2  0
 17 16  1  0
 18 17  1  0
 18 14  2  0
  2 19  1  0
  3 20  1  0
  5 21  1  0
  7 22  1  0
  9 23  1  0
 11 24  1  0
 15 25  1  0
 16 26  1  0
 27 28  2  0
 28 29  1  0
 29 30  1  0
 29 31  2  0
 31 32  1  0
 32 33  1  0
 33 34  1  0
 33 35  2  0
 35 36  1  0
 36 37  2  0
 37 27  1  0
 36 31  1  0
 27 38  1  0
 32 39  1  0
 37 40  1  0
 17 28  1  0
M  ISO  8  19  14  20  14  21  14  22  14  23  14  24  14  25  14  26  14
M  ISO  2  30  15  34  14
M  END
>  <DihAtoms>  (1) 
15,16,27,26

>  <DihDeg>  (1) 
156.36201570560337

$$$$
