
     RDKit          3D

 23 25  0  0  0  0  0  0  0  0999 V2000
   37.8670   31.6060   48.4990 C   0  0  0  0  0  0  0  0  0  0  0  0
   37.0590   30.9510   47.5990 C   0  0  0  0  0  0  0  0  0  0  0  0
   37.3370   31.1540   46.2650 C   0  0  0  0  0  0  0  0  0  0  0  0
   38.3860   31.9830   45.8780 C   0  0  0  0  0  0  0  0  0  0  0  0
   38.8750   32.3570   44.6800 N   0  0  0  0  0  0  0  0  0  0  0  0
   39.9160   33.1870   44.8650 C   0  0  0  0  0  0  0  0  0  0  0  0
   40.1070   33.3560   46.2040 N   0  0  0  0  0  0  0  0  0  0  0  0
   39.1670   32.6170   46.8200 C   0  0  0  0  0  0  0  0  0  0  0  0
   38.9070   32.4290   48.1410 C   0  0  0  0  0  0  0  0  0  0  0  0
   36.3120   29.3750   49.2630 C   0  0  0  0  0  0  0  0  0  0  0  0
   35.9800   30.1080   48.0950 C   0  0  0  0  0  0  0  0  0  0  0  0
   34.7000   29.9480   47.5710 C   0  0  0  0  0  0  0  0  0  0  0  0
   33.8520   29.1020   48.2090 N   0  0  0  0  0  0  0  0  0  0  0  0
   34.1880   28.4110   49.3240 C   0  0  0  0  0  0  0  0  0  0  0  0
   35.4220   28.5570   49.8390 N   0  0  0  0  0  0  0  0  0  0  0  0
   37.6682   31.4620   49.5713 H   0  0  0  0  0  0  0  0  0  0  0  0
   36.7244   30.6564   45.4988 H   0  0  0  0  0  0  0  0  0  0  0  0
   38.5089   32.0546   43.7660 H   0  0  0  0  0  0  0  0  0  0  0  0
   40.5144   33.6526   44.0681 H   0  0  0  0  0  0  0  0  0  0  0  0
   39.5178   32.9265   48.9087 H   0  0  0  0  0  0  0  0  0  0  0  0
   37.3151   29.4800   49.7020 H   0  0  0  0  0  0  0  0  0  0  0  0
   34.3856   30.4908   46.6674 H   0  0  0  0  0  0  0  0  0  0  0  0
   33.4608   27.7386   49.8027 H   0  0  0  0  0  0  0  0  0  0  0  0
  2 11  1  0
  2  1  2  0
  3  2  1  0
  4  3  2  0
  4  8  1  0
  5  6  1  0
  5  4  1  0
  6  7  2  0
  7  8  1  0
  8  9  2  0
  9  1  1  0
 10 15  2  0
 11 10  1  0
 12 11  2  0
 12 13  1  0
 13 14  2  0
 14 15  1  0
  1 16  1  0
  3 17  1  0
  5 18  1  0
  6 19  1  0
  9 20  1  0
 10 21  1  0
 12 22  1  0
 14 23  1  0
M  ISO  8  16  14  17  14  18   9  19  14  20  14  21  14  22  14  23  14
M  END
>  <minimizedAffinity>  (1) 
-5.36159897

>  <minimizedRMSD>  (1) 
4.4237504

$$$$
