
     RDKit          3D

 35 38  0  0  0  0  0  0  0  0999 V2000
   36.7657   30.7662   50.7175 C   0  0  1  0  0  0  0  0  0  0  0  0
   36.0304   29.5104   50.8557 C   0  0  2  0  0  0  0  0  0  0  0  0
   37.4747   29.5100   51.2560 C   0  0  0  0  0  0  0  0  0  0  0  0
   37.3241   31.2184   49.4042 C   0  0  0  0  0  0  0  0  0  0  0  0
   38.3092   32.1910   49.4699 C   0  0  0  0  0  0  0  0  0  0  0  0
   38.7945   32.6098   48.2111 C   0  0  0  0  0  0  0  0  0  0  0  0
   38.3046   32.0741   47.0561 N   0  0  0  0  0  0  0  0  0  0  0  0
   37.3375   31.1222   47.0467 C   0  0  0  0  0  0  0  0  0  0  0  0
   36.8422   30.6903   48.2522 N   0  0  0  0  0  0  0  0  0  0  0  0
   35.6494   28.8663   49.6874 O   0  0  0  0  0  0  0  0  0  0  0  0
   34.4369   28.3990   49.3042 C   0  0  0  0  0  0  0  0  0  0  0  0
   34.3106   27.3999   48.5620 O   0  0  0  0  0  0  0  0  0  0  0  0
   33.4571   29.2135   49.8730 N   0  0  0  0  0  0  0  0  0  0  0  0
   36.6906   31.6116   51.4407 H   0  0  0  0  0  0  0  0  0  0  0  0
   35.1994   29.5768   51.6178 H   0  0  0  0  0  0  0  0  0  0  0  0
   38.1640   28.9618   50.5769 H   0  0  0  0  0  0  0  0  0  0  0  0
   37.7653   29.5861   52.3085 H   0  0  0  0  0  0  0  0  0  0  0  0
   38.6719   32.5914   50.3967 H   0  0  0  0  0  0  0  0  0  0  0  0
   39.5656   33.3664   48.1707 H   0  0  0  0  0  0  0  0  0  0  0  0
   33.2117   28.6259   50.7240 H   0  0  0  0  0  0  0  0  0  0  0  0
   33.3208   30.0811   49.2768 H   0  0  0  0  0  0  0  0  0  0  0  0
   35.4751   30.7077   45.5424 C   0  0  0  0  0  0  0  0  0  0  0  0
   36.8220   30.5576   45.8016 C   0  0  0  0  0  0  0  0  0  0  0  0
   37.6265   29.8928   44.8969 C   0  0  0  0  0  0  0  0  0  0  0  0
   38.6784   29.7916   45.1290 H   0  0  0  0  0  0  0  0  0  0  0  0
   37.1404   29.3590   43.7203 C   0  0  0  0  0  0  0  0  0  0  0  0
   37.6857   28.6833   42.6925 N   0  0  0  0  0  0  0  0  0  0  0  0
   36.6836   28.4325   41.8319 C   0  0  0  0  0  0  0  0  0  0  0  0
   36.9327   27.8844   40.9213 H   0  0  0  0  0  0  0  0  0  0  0  0
   35.5246   28.9388   42.3036 N   0  0  0  0  0  0  0  0  0  0  0  0
   35.7807   29.5262   43.4873 C   0  0  0  0  0  0  0  0  0  0  0  0
   34.9545   30.1858   44.3740 C   0  0  0  0  0  0  0  0  0  0  0  0
   34.7560   31.2128   46.1867 H   0  0  0  0  0  0  0  0  0  0  0  0
   38.7093   28.4537   42.6766 H   0  0  0  0  0  0  0  0  0  0  0  0
   33.9084   30.2664   44.1064 H   0  0  0  0  0  0  0  0  0  0  0  0
  1  2  1  0
  1  3  1  0
  2  3  1  0
  4  5  2  0
  4  1  1  0
  6  5  1  0
  7  6  2  0
  8  7  1  0
  8  9  2  0
  9  4  1  0
 10  2  1  0
 11 10  1  0
 11 13  1  0
 12 11  2  0
  1 14  1  1
  2 15  1  1
  3 16  1  0
  3 17  1  0
  5 18  1  0
  6 19  1  0
 13 20  1  0
 13 21  1  0
 22 23  2  0
 23 24  1  0
 24 25  1  0
 24 26  2  0
 26 27  1  0
 27 28  1  0
 28 29  1  0
 28 30  2  0
 30 31  1  0
 31 32  2  0
 32 22  1  0
 31 26  1  0
 22 33  1  0
 27 34  1  0
 32 35  1  0
  8 23  1  0
M  ISO  8  14  13  15  13  16  13  17  13  18  14  19  14  25  15  29  14
M  END
>  <DihAtoms>  (1) 
6,7,22,21

>  <DihDeg>  (1) 
0.00579441251082449

$$$$
