
     RDKit          3D

 26 28  0  0  0  0  0  0  0  0999 V2000
   38.3051   31.2387   50.1157 C   0  0  0  0  0  0  0  0  0  0  0  0
   38.2898   31.6108   48.7699 C   0  0  0  0  0  0  0  0  0  0  0  0
   37.2018   31.2228   48.0026 C   0  0  0  0  0  0  0  0  0  0  0  0
   36.2164   30.5079   48.5927 N   0  0  0  0  0  0  0  0  0  0  0  0
   36.2625   30.1632   49.9023 C   0  0  0  0  0  0  0  0  0  0  0  0
   37.3121   30.5344   50.6536 N   0  0  0  0  0  0  0  0  0  0  0  0
   35.1238   29.3786   50.4374 C   0  0  0  0  0  0  0  0  0  0  0  0
   35.2608   29.1296   51.8010 F   0  0  0  0  0  0  0  0  0  0  0  0
   33.9243   30.0622   50.3016 F   0  0  0  0  0  0  0  0  0  0  0  0
   34.9524   28.1637   49.8270 F   0  0  0  0  0  0  0  0  0  0  0  0
   39.1747   31.5635   50.6771 H   0  0  0  0  0  0  0  0  0  0  0  0
   39.0781   32.1724   48.3341 H   0  0  0  0  0  0  0  0  0  0  0  0
   37.2931   30.5345   45.6839 C   0  0  0  0  0  0  0  0  0  0  0  0
   37.0702   31.5486   46.5918 C   0  0  0  0  0  0  0  0  0  0  0  0
   36.7430   32.7845   46.1237 C   0  0  0  0  0  0  0  0  0  0  0  0
   36.5648   33.5875   46.7949 H   0  0  0  0  0  0  0  0  0  0  0  0
   36.6189   33.0897   44.7795 C   0  0  0  0  0  0  0  0  0  0  0  0
   36.3074   34.2365   44.1208 N   0  0  0  0  0  0  0  0  0  0  0  0
   36.3355   33.9404   42.8054 C   0  0  0  0  0  0  0  0  0  0  0  0
   36.1126   34.7284   42.1001 H   0  0  0  0  0  0  0  0  0  0  0  0
   36.6582   32.6341   42.6423 N   0  0  0  0  0  0  0  0  0  0  0  0
   36.8420   32.0720   43.8505 C   0  0  0  0  0  0  0  0  0  0  0  0
   37.1772   30.8040   44.3187 C   0  0  0  0  0  0  0  0  0  0  0  0
   37.5593   29.5079   45.9152 H   0  0  0  0  0  0  0  0  0  0  0  0
   36.0922   35.1600   44.5994 H   0  0  0  0  0  0  0  0  0  0  0  0
   37.3258   30.1001   43.5126 H   0  0  0  0  0  0  0  0  0  0  0  0
  1  6  2  0
  2  1  1  0
  3  4  1  0
  3  2  2  0
  4  5  2  0
  5  7  1  0
  5  6  1  0
  7  8  1  0
  9  7  1  0
 10  7  1  0
  1 11  1  0
  2 12  1  0
 13 14  2  0
 14 15  1  0
 15 16  1  0
 15 17  2  0
 17 18  1  0
 18 19  1  0
 19 20  1  0
 19 21  2  0
 21 22  1  0
 22 23  2  0
 23 13  1  0
 22 17  1  0
 13 24  1  0
 18 25  1  0
 23 26  1  0
  3 14  1  0
M  ISO  4  11  14  12  14  16  15  20  14
M  END
>  <DihAtoms>  (1) 
3,2,13,12

>  <DihDeg>  (1) 
0.0009976429068668244

$$$$
