
     RDKit          3D

 33 36  0  0  0  0  0  0  0  0999 V2000
   38.0470   30.7140   47.0780 F   0  0  0  0  0  0  0  0  0  0  0  0
   38.5720   31.8330   47.6120 C   0  0  0  0  0  0  0  0  0  0  0  0
   38.3510   32.1310   48.9160 C   0  0  0  0  0  0  0  0  0  0  0  0
   38.9100   33.2880   49.4160 C   0  0  0  0  0  0  0  0  0  0  0  0
   39.6750   34.1290   48.6180 C   0  0  0  0  0  0  0  0  0  0  0  0
   39.8860   33.8030   47.2930 C   0  0  0  0  0  0  0  0  0  0  0  0
   39.3270   32.6450   46.7920 C   0  0  0  0  0  0  0  0  0  0  0  0
   39.1030   33.1310   44.3710 C   0  0  0  0  0  0  0  0  0  0  0  0
   39.5620   32.3200   45.3880 C   0  0  0  0  0  0  0  0  0  0  0  0
   40.2750   31.1470   45.1640 C   0  0  0  0  0  0  0  0  0  0  0  0
   40.5240   30.7950   43.8540 C   0  0  0  0  0  0  0  0  0  0  0  0
   41.1580   29.7740   43.2050 N   0  0  0  0  0  0  0  0  0  0  0  0
   41.0720   29.9780   41.8900 C   0  0  0  0  0  0  0  0  0  0  0  0
   40.3860   31.1280   41.6270 N   0  0  0  0  0  0  0  0  0  0  0  0
   40.0620   31.6100   42.8420 C   0  0  0  0  0  0  0  0  0  0  0  0
   39.3520   32.7780   43.0400 C   0  0  0  0  0  0  0  0  0  0  0  0
   37.2370   29.6620   51.5700 C   0  0  0  0  0  0  0  0  0  0  0  0
   38.0240   30.5380   50.8230 C   0  0  0  0  0  0  0  0  0  0  0  0
   37.5380   31.2110   49.7070 C   0  0  0  0  0  0  0  0  0  0  0  0
   36.2350   30.9650   49.3760 N   0  0  0  0  0  0  0  0  0  0  0  0
   35.4890   30.1110   50.1150 C   0  0  0  0  0  0  0  0  0  0  0  0
   35.9700   29.4730   51.1850 N   0  0  0  0  0  0  0  0  0  0  0  0
   38.7463   33.5511   50.4714 H   0  0  0  0  0  0  0  0  0  0  0  0
   40.1095   35.0479   49.0385 H   0  0  0  0  0  0  0  0  0  0  0  0
   40.4904   34.4563   46.6466 H   0  0  0  0  0  0  0  0  0  0  0  0
   38.5447   34.0495   44.6048 H   0  0  0  0  0  0  0  0  0  0  0  0
   40.6268   30.5240   45.9996 H   0  0  0  0  0  0  0  0  0  0  0  0
   41.6264   28.9762   43.6577 H   0  0  0  0  0  0  0  0  0  0  0  0
   41.4952   29.3119   41.1237 H   0  0  0  0  0  0  0  0  0  0  0  0
   39.0023   33.3954   42.1995 H   0  0  0  0  0  0  0  0  0  0  0  0
   37.6457   29.1423   52.4491 H   0  0  0  0  0  0  0  0  0  0  0  0
   39.0680   30.7029   51.1277 H   0  0  0  0  0  0  0  0  0  0  0  0
   34.4434   29.9352   49.8221 H   0  0  0  0  0  0  0  0  0  0  0  0
  1  2  1  0
  2  3  2  0
  3  4  1  0
  3 19  1  0
  5  4  2  0
  6  5  1  0
  7  6  2  0
  7  2  1  0
  8  9  2  0
  9  7  1  0
 10  9  1  0
 11 10  2  0
 12 11  1  0
 13 12  1  0
 14 13  2  0
 14 15  1  0
 15 16  2  0
 15 11  1  0
 16  8  1  0
 18 17  2  0
 19 18  1  0
 20 19  2  0
 20 21  1  0
 21 22  2  0
 22 17  1  0
  4 23  1  0
  5 24  1  0
  6 25  1  0
  8 26  1  0
 10 27  1  0
 12 28  1  0
 13 29  1  0
 16 30  1  0
 17 31  1  0
 18 32  1  0
 21 33  1  0
M  ISO  8  23  14  24  14  25  14  26  14  27  14  28   9  29  14  30  14
M  ISO  3  31  14  32  14  33  14
M  END
>  <minimizedAffinity>  (1) 
-7.62730455

>  <minimizedRMSD>  (1) 
0.753192544

$$$$
