
     RDKit          3D

 33 36  0  0  0  0  0  0  0  0999 V2000
   36.1210   29.3810   49.1150 C   0  0  0  0  0  0  0  0  0  0  0  0
   36.1980   30.4510   48.2030 C   0  0  0  0  0  0  0  0  0  0  0  0
   35.3660   30.4100   47.0720 C   0  0  0  0  0  0  0  0  0  0  0  0
   34.5330   29.3500   46.9140 N   0  0  0  0  0  0  0  0  0  0  0  0
   34.4760   28.3450   47.7960 C   0  0  0  0  0  0  0  0  0  0  0  0
   35.2690   28.3510   48.9020 N   0  0  0  0  0  0  0  0  0  0  0  0
   32.3260   27.2310   48.2480 C   0  0  0  0  0  0  0  0  0  0  0  0
   33.5810   27.2000   47.6310 C   0  0  0  0  0  0  0  0  0  0  0  0
   33.9290   26.0860   46.8870 C   0  0  0  0  0  0  0  0  0  0  0  0
   33.0260   25.0220   46.7680 C   0  0  0  0  0  0  0  0  0  0  0  0
   33.1890   23.8610   46.0900 N   0  0  0  0  0  0  0  0  0  0  0  0
   32.0470   23.1530   46.2680 C   0  0  0  0  0  0  0  0  0  0  0  0
   31.2100   23.8900   47.0510 N   0  0  0  0  0  0  0  0  0  0  0  0
   31.7910   25.0620   47.3810 C   0  0  0  0  0  0  0  0  0  0  0  0
   31.4400   26.1720   48.1230 C   0  0  0  0  0  0  0  0  0  0  0  0
   37.1130   31.5030   48.4800 N   0  0  0  0  0  0  0  0  0  0  0  0
   37.0830   32.1700   49.6590 C   0  0  0  0  0  0  0  0  0  0  0  0
   37.9910   33.1940   49.9010 C   0  0  0  0  0  0  0  0  0  0  0  0
   38.8620   33.4300   48.8650 C   0  0  0  0  0  0  0  0  0  0  0  0
   39.7080   34.3660   49.0580 O   0  0  0  0  0  0  0  0  0  0  0  0
   38.9150   32.7910   47.6920 N   0  0  0  0  0  0  0  0  0  0  0  0
   38.0050   31.8060   47.5230 C   0  0  0  0  0  0  0  0  0  0  0  0
   38.0340   31.1810   46.4170 O   0  0  0  0  0  0  0  0  0  0  0  0
   36.7601   29.3821   50.0103 H   0  0  0  0  0  0  0  0  0  0  0  0
   35.3891   31.2209   46.3290 H   0  0  0  0  0  0  0  0  0  0  0  0
   32.0372   28.1104   48.8424 H   0  0  0  0  0  0  0  0  0  0  0  0
   34.9099   26.0365   46.3916 H   0  0  0  0  0  0  0  0  0  0  0  0
   34.0159   23.5734   45.5473 H   0  0  0  0  0  0  0  0  0  0  0  0
   31.8331   22.1571   45.8528 H   0  0  0  0  0  0  0  0  0  0  0  0
   30.4572   26.2162   48.6151 H   0  0  0  0  0  0  0  0  0  0  0  0
   36.3402   31.9011   50.4244 H   0  0  0  0  0  0  0  0  0  0  0  0
   38.0106   33.7659   50.8405 H   0  0  0  0  0  0  0  0  0  0  0  0
   39.6036   33.0332   46.9653 H   0  0  0  0  0  0  0  0  0  0  0  0
  2 16  1  0
  2  1  2  0
  3  2  1  0
  4  3  2  0
  4  5  1  0
  5  6  2  0
  6  1  1  0
  8  5  1  0
  8  7  2  0
  9  8  1  0
 10  9  2  0
 10 14  1  0
 11 12  1  0
 11 10  1  0
 12 13  2  0
 13 14  1  0
 14 15  2  0
 15  7  1  0
 16 17  1  0
 17 18  2  0
 19 20  2  0
 19 18  1  0
 21 19  1  0
 22 21  1  0
 22 16  1  0
 23 22  2  0
  1 24  1  0
  3 25  1  0
  7 26  1  0
  9 27  1  0
 11 28  1  0
 12 29  1  0
 15 30  1  0
 17 31  1  0
 18 32  1  0
 21 33  1  0
M  ISO  8  24  14  25  14  26  14  27  14  28   9  29  14  30  14  31  14
M  ISO  2  32  14  33   9
M  END
>  <minimizedAffinity>  (1) 
-5.55999374

>  <minimizedRMSD>  (1) 
0.971419573

$$$$
