
     RDKit          3D

 36 40  0  0  0  0  0  0  0  0999 V2000
   37.0562   30.7184   46.7760 C   0  0  0  0  0  0  0  0  0  0  0  0
   37.7035   31.1435   47.9233 C   0  0  0  0  0  0  0  0  0  0  0  0
   38.7245   32.0675   47.8338 C   0  0  0  0  0  0  0  0  0  0  0  0
   39.0662   32.5404   46.5774 C   0  0  0  0  0  0  0  0  0  0  0  0
   40.0255   33.4425   46.2387 N   0  0  0  0  0  0  0  0  0  0  0  0
   39.9889   33.5876   44.9069 C   0  0  0  0  0  0  0  0  0  0  0  0
   39.0377   32.8071   44.3881 N   0  0  0  0  0  0  0  0  0  0  0  0
   38.4434   32.1403   45.4065 C   0  0  0  0  0  0  0  0  0  0  0  0
   37.4215   31.2117   45.5241 C   0  0  0  0  0  0  0  0  0  0  0  0
   37.3799   30.1629   51.5379 C   0  0  0  0  0  0  0  0  0  0  0  0
   37.9000   30.7578   50.3888 C   0  0  0  0  0  0  0  0  0  0  0  0
   37.2522   30.5726   49.1803 C   0  0  0  0  0  0  0  0  0  0  0  0
   36.1229   29.8085   49.1699 N   0  0  0  0  0  0  0  0  0  0  0  0
   35.6331   29.2360   50.3103 C   0  0  0  0  0  0  0  0  0  0  0  0
   36.2552   29.4133   51.4729 N   0  0  0  0  0  0  0  0  0  0  0  0
   36.2481   29.9991   46.7562 H   0  0  0  0  0  0  0  0  0  0  0  0
   39.2295   32.3989   48.7304 H   0  0  0  0  0  0  0  0  0  0  0  0
   40.6721   33.9304   46.9108 H   0  0  0  0  0  0  0  0  0  0  0  0
   36.9163   30.8826   44.6081 H   0  0  0  0  0  0  0  0  0  0  0  0
   37.8740   30.2984   52.4867 H   0  0  0  0  0  0  0  0  0  0  0  0
   38.7823   31.3496   50.4216 H   0  0  0  0  0  0  0  0  0  0  0  0
   34.7332   28.6611   50.1402 H   0  0  0  0  0  0  0  0  0  0  0  0
   40.6627   35.8435   44.0684 C   0  0  0  0  0  0  0  0  0  0  0  0
   40.8532   34.4675   44.0982 C   0  0  0  0  0  0  0  0  0  0  0  0
   41.8783   33.8969   43.3532 C   0  0  0  0  0  0  0  0  0  0  0  0
   42.0389   32.8343   43.3654 H   0  0  0  0  0  0  0  0  0  0  0  0
   42.6926   34.7087   42.5936 C   0  0  0  0  0  0  0  0  0  0  0  0
   43.7582   34.4951   41.7688 N   0  0  0  0  0  0  0  0  0  0  0  0
   44.1849   35.6859   41.2693 C   0  0  0  0  0  0  0  0  0  0  0  0
   45.0084   35.8667   40.5860 H   0  0  0  0  0  0  0  0  0  0  0  0
   43.4074   36.6776   41.7603 N   0  0  0  0  0  0  0  0  0  0  0  0
   42.4973   36.0898   42.5669 C   0  0  0  0  0  0  0  0  0  0  0  0
   41.4847   36.6699   43.3008 C   0  0  0  0  0  0  0  0  0  0  0  0
   39.8633   36.2598   44.6532 H   0  0  0  0  0  0  0  0  0  0  0  0
   44.1683   33.5573   41.5648 H   0  0  0  0  0  0  0  0  0  0  0  0
   41.3425   37.7465   43.2720 H   0  0  0  0  0  0  0  0  0  0  0  0
  1  2  2  0
  2 12  1  0
  3  2  1  0
  4  3  2  0
  5  4  1  0
  6  5  1  0
  7  6  2  0
  7  8  1  0
  8  9  2  0
  8  4  1  0
  9  1  1  0
 11 10  2  0
 12 11  1  0
 13 12  2  0
 13 14  1  0
 14 15  2  0
 15 10  1  0
  1 16  1  0
  3 17  1  0
  5 18  1  0
  9 19  1  0
 10 20  1  0
 11 21  1  0
 14 22  1  0
 23 24  2  0
 24 25  1  0
 25 26  1  0
 25 27  2  0
 27 28  1  0
 28 29  1  0
 29 30  1  0
 29 31  2  0
 31 32  1  0
 32 33  2  0
 33 23  1  0
 32 27  1  0
 23 34  1  0
 28 35  1  0
 33 36  1  0
  6 24  1  0
M  ISO  8  16  14  17  14  18   9  19  14  20  14  21  14  22  14  26  15
M  ISO  1  30  14
M  END
>  <DihAtoms>  (1) 
4,5,23,22

>  <DihDeg>  (1) 
-179.99933867581998

$$$$
