
     RDKit          3D

 33 36  0  0  0  0  0  0  0  0999 V2000
   37.6870   30.3180   46.7800 Cl  0  0  0  0  0  0  0  0  0  0  0  0
   38.3950   31.7170   47.5340 C   0  0  0  0  0  0  0  0  0  0  0  0
   38.1470   31.9420   48.8630 C   0  0  0  0  0  0  0  0  0  0  0  0
   38.7430   33.0840   49.4200 C   0  0  0  0  0  0  0  0  0  0  0  0
   39.5290   33.9100   48.6310 C   0  0  0  0  0  0  0  0  0  0  0  0
   39.7520   33.6520   47.3080 C   0  0  0  0  0  0  0  0  0  0  0  0
   39.1680   32.5280   46.7570 C   0  0  0  0  0  0  0  0  0  0  0  0
   39.0460   33.1140   44.2990 C   0  0  0  0  0  0  0  0  0  0  0  0
   39.4360   32.2950   45.3410 C   0  0  0  0  0  0  0  0  0  0  0  0
   40.1360   31.1610   45.0250 C   0  0  0  0  0  0  0  0  0  0  0  0
   40.4750   30.7890   43.7400 C   0  0  0  0  0  0  0  0  0  0  0  0
   41.1440   29.7450   43.1830 N   0  0  0  0  0  0  0  0  0  0  0  0
   41.1680   29.9120   41.8310 C   0  0  0  0  0  0  0  0  0  0  0  0
   40.5160   31.0550   41.5480 N   0  0  0  0  0  0  0  0  0  0  0  0
   40.0750   31.6250   42.6920 C   0  0  0  0  0  0  0  0  0  0  0  0
   39.3690   32.7680   43.0020 C   0  0  0  0  0  0  0  0  0  0  0  0
   37.8400   30.4580   50.8470 C   0  0  0  0  0  0  0  0  0  0  0  0
   37.3240   31.0840   49.7020 C   0  0  0  0  0  0  0  0  0  0  0  0
   35.9800   30.8490   49.3960 C   0  0  0  0  0  0  0  0  0  0  0  0
   35.2610   30.0400   50.2150 N   0  0  0  0  0  0  0  0  0  0  0  0
   35.7870   29.4580   51.3010 C   0  0  0  0  0  0  0  0  0  0  0  0
   37.0820   29.6660   51.6220 N   0  0  0  0  0  0  0  0  0  0  0  0
   38.5866   33.3237   50.4821 H   0  0  0  0  0  0  0  0  0  0  0  0
   39.9875   34.8011   49.0846 H   0  0  0  0  0  0  0  0  0  0  0  0
   40.3786   34.3202   46.6991 H   0  0  0  0  0  0  0  0  0  0  0  0
   38.4816   34.0362   44.5015 H   0  0  0  0  0  0  0  0  0  0  0  0
   40.4485   30.5035   45.8496 H   0  0  0  0  0  0  0  0  0  0  0  0
   41.5635   28.9577   43.6979 H   0  0  0  0  0  0  0  0  0  0  0  0
   41.6361   29.2344   41.1018 H   0  0  0  0  0  0  0  0  0  0  0  0
   39.0505   33.4304   42.1836 H   0  0  0  0  0  0  0  0  0  0  0  0
   38.8939   30.6206   51.1168 H   0  0  0  0  0  0  0  0  0  0  0  0
   35.5158   31.3094   48.5114 H   0  0  0  0  0  0  0  0  0  0  0  0
   35.1625   28.8092   51.9327 H   0  0  0  0  0  0  0  0  0  0  0  0
  1  2  1  0
  2  3  2  0
  3  4  1  0
  3 18  1  0
  5  4  2  0
  6  5  1  0
  7  6  2  0
  7  2  1  0
  8  9  2  0
  9  7  1  0
 10  9  1  0
 11 10  2  0
 12 11  1  0
 13 12  1  0
 14 13  2  0
 14 15  1  0
 15 16  2  0
 15 11  1  0
 16  8  1  0
 17 22  2  0
 18 17  1  0
 19 18  2  0
 19 20  1  0
 20 21  2  0
 21 22  1  0
  4 23  1  0
  5 24  1  0
  6 25  1  0
  8 26  1  0
 10 27  1  0
 12 28  1  0
 13 29  1  0
 16 30  1  0
 17 31  1  0
 19 32  1  0
 21 33  1  0
M  ISO  8  23  14  24  14  25  14  26  14  27  14  28   9  29  14  30  14
M  ISO  3  31  14  32  14  33  14
M  END
>  <minimizedAffinity>  (1) 
-7.27930975

>  <minimizedRMSD>  (1) 
0.83465147

$$$$
