
     RDKit          3D

 36 40  0  0  0  0  0  0  0  0999 V2000
   37.0562   30.7184   46.7760 C   0  0  0  0  0  0  0  0  0  0  0  0
   37.7035   31.1435   47.9233 C   0  0  0  0  0  0  0  0  0  0  0  0
   38.7245   32.0675   47.8338 C   0  0  0  0  0  0  0  0  0  0  0  0
   39.0662   32.5404   46.5774 C   0  0  0  0  0  0  0  0  0  0  0  0
   40.0255   33.4425   46.2387 N   0  0  0  0  0  0  0  0  0  0  0  0
   39.9889   33.5876   44.9069 C   0  0  0  0  0  0  0  0  0  0  0  0
   39.0377   32.8071   44.3881 N   0  0  0  0  0  0  0  0  0  0  0  0
   38.4434   32.1403   45.4065 C   0  0  0  0  0  0  0  0  0  0  0  0
   37.4215   31.2117   45.5241 C   0  0  0  0  0  0  0  0  0  0  0  0
   37.3799   30.1629   51.5379 C   0  0  0  0  0  0  0  0  0  0  0  0
   37.9000   30.7578   50.3888 C   0  0  0  0  0  0  0  0  0  0  0  0
   37.2522   30.5726   49.1803 C   0  0  0  0  0  0  0  0  0  0  0  0
   36.1229   29.8085   49.1699 N   0  0  0  0  0  0  0  0  0  0  0  0
   35.6331   29.2360   50.3103 C   0  0  0  0  0  0  0  0  0  0  0  0
   36.2552   29.4133   51.4729 N   0  0  0  0  0  0  0  0  0  0  0  0
   36.2481   29.9991   46.7562 H   0  0  0  0  0  0  0  0  0  0  0  0
   39.2295   32.3989   48.7304 H   0  0  0  0  0  0  0  0  0  0  0  0
   40.6721   33.9304   46.9108 H   0  0  0  0  0  0  0  0  0  0  0  0
   36.9163   30.8826   44.6081 H   0  0  0  0  0  0  0  0  0  0  0  0
   37.8740   30.2984   52.4867 H   0  0  0  0  0  0  0  0  0  0  0  0
   38.7823   31.3496   50.4216 H   0  0  0  0  0  0  0  0  0  0  0  0
   34.7332   28.6611   50.1402 H   0  0  0  0  0  0  0  0  0  0  0  0
   41.8307   35.2623   44.6843 C   0  0  0  0  0  0  0  0  0  0  0  0
   40.8532   34.4675   44.0982 C   0  0  0  0  0  0  0  0  0  0  0  0
   40.6775   34.4944   42.7198 C   0  0  0  0  0  0  0  0  0  0  0  0
   39.9259   33.8857   42.2511 H   0  0  0  0  0  0  0  0  0  0  0  0
   41.4790   35.3124   41.9535 C   0  0  0  0  0  0  0  0  0  0  0  0
   41.5787   35.5794   40.6193 N   0  0  0  0  0  0  0  0  0  0  0  0
   42.5681   36.4902   40.4165 C   0  0  0  0  0  0  0  0  0  0  0  0
   42.9025   36.9144   39.4752 H   0  0  0  0  0  0  0  0  0  0  0  0
   43.1172   36.8218   41.6071 N   0  0  0  0  0  0  0  0  0  0  0  0
   42.4591   36.1087   42.5466 C   0  0  0  0  0  0  0  0  0  0  0  0
   42.6449   36.0924   43.9125 C   0  0  0  0  0  0  0  0  0  0  0  0
   41.9464   35.2232   45.7517 H   0  0  0  0  0  0  0  0  0  0  0  0
   40.9805   35.1433   39.8835 H   0  0  0  0  0  0  0  0  0  0  0  0
   43.4114   36.7169   44.3628 H   0  0  0  0  0  0  0  0  0  0  0  0
  1  2  2  0
  2 12  1  0
  3  2  1  0
  4  3  2  0
  5  4  1  0
  6  5  1  0
  7  6  2  0
  7  8  1  0
  8  9  2  0
  8  4  1  0
  9  1  1  0
 11 10  2  0
 12 11  1  0
 13 12  2  0
 13 14  1  0
 14 15  2  0
 15 10  1  0
  1 16  1  0
  3 17  1  0
  5 18  1  0
  9 19  1  0
 10 20  1  0
 11 21  1  0
 14 22  1  0
 23 24  2  0
 24 25  1  0
 25 26  1  0
 25 27  2  0
 27 28  1  0
 28 29  1  0
 29 30  1  0
 29 31  2  0
 31 32  1  0
 32 33  2  0
 33 23  1  0
 32 27  1  0
 23 34  1  0
 28 35  1  0
 33 36  1  0
  6 24  1  0
M  ISO  8  16  14  17  14  18   9  19  14  20  14  21  14  22  14  26  15
M  ISO  1  30  14
M  END
>  <DihAtoms>  (1) 
4,5,23,22

>  <DihDeg>  (1) 
-179.99933867581998

$$$$
