
     RDKit          3D

 42 45  0  0  0  0  0  0  0  0999 V2000
   37.5650   30.8127   49.5050 C   0  0  0  0  0  0  0  0  0  0  0  0
   37.4885   32.1362   49.9240 C   0  0  0  0  0  0  0  0  0  0  0  0
   37.9426   33.1330   49.0142 C   0  0  0  0  0  0  0  0  0  0  0  0
   38.4129   32.6913   47.8093 N   0  0  0  0  0  0  0  0  0  0  0  0
   38.4658   31.4224   47.4539 C   0  0  0  0  0  0  0  0  0  0  0  0
   38.0414   30.4723   48.3011 N   0  0  0  0  0  0  0  0  0  0  0  0
   38.9789   31.1362   46.1681 N   0  0  0  0  0  0  0  0  0  0  0  0
   40.3829   30.8662   46.0003 C   0  0  0  0  0  0  0  0  0  0  0  0
   40.9258   31.5585   44.7612 C   0  0  0  0  0  0  0  0  0  0  0  0
   40.1074   31.3175   43.6278 N   0  0  0  0  0  0  0  0  0  0  0  0
   38.9506   30.4826   43.8583 C   0  0  0  0  0  0  0  0  0  0  0  0
   38.1178   31.1014   45.0009 C   0  0  2  0  0  0  0  0  0  0  0  0
   37.0998   29.7478   50.4552 C   0  0  0  0  0  0  0  0  0  0  0  0
   35.8032   29.3755   50.1372 F   0  0  0  0  0  0  0  0  0  0  0  0
   37.9996   28.7264   50.4284 F   0  0  0  0  0  0  0  0  0  0  0  0
   37.0250   30.3488   51.7307 F   0  0  0  0  0  0  0  0  0  0  0  0
   37.4337   32.3134   44.6625 C   0  0  0  0  0  0  0  0  0  0  0  0
   37.4491   32.5968   43.4601 O   0  0  0  0  0  0  0  0  0  0  0  0
   37.0997   32.3621   50.8955 H   0  0  0  0  0  0  0  0  0  0  0  0
   37.8831   34.1455   49.3370 H   0  0  0  0  0  0  0  0  0  0  0  0
   40.9344   31.3204   46.8675 H   0  0  0  0  0  0  0  0  0  0  0  0
   40.6478   29.7926   46.0488 H   0  0  0  0  0  0  0  0  0  0  0  0
   41.9124   31.0702   44.5607 H   0  0  0  0  0  0  0  0  0  0  0  0
   41.1411   32.6273   44.9771 H   0  0  0  0  0  0  0  0  0  0  0  0
   39.8310   32.2246   43.1756 H   0  0  0  0  0  0  0  0  0  0  0  0
   38.3737   30.4401   42.9201 H   0  0  0  0  0  0  0  0  0  0  0  0
   39.2847   29.5170   44.2495 H   0  0  0  0  0  0  0  0  0  0  0  0
   37.3815   30.2393   45.2122 H   0  0  0  0  0  0  0  0  0  0  0  0
   35.9940   34.0351   45.9305 C   0  0  0  0  0  0  0  0  0  0  0  0
   36.6433   33.5383   44.8453 C   0  0  0  0  0  0  0  0  0  0  0  0
   36.2136   34.2814   43.6962 C   0  0  0  0  0  0  0  0  0  0  0  0
   36.6168   34.0342   42.7018 H   0  0  0  0  0  0  0  0  0  0  0  0
   35.2978   35.3285   43.6352 C   0  0  0  0  0  0  0  0  0  0  0  0
   34.8098   36.0887   42.6492 N   0  0  0  0  0  0  0  0  0  0  0  0
   33.9559   36.9031   43.2869 C   0  0  0  0  0  0  0  0  0  0  0  0
   33.4124   37.6417   42.6789 H   0  0  0  0  0  0  0  0  0  0  0  0
   33.9332   36.6422   44.6002 N   0  0  0  0  0  0  0  0  0  0  0  0
   34.7929   35.6249   44.8642 C   0  0  0  0  0  0  0  0  0  0  0  0
   35.0895   35.0268   46.0592 C   0  0  0  0  0  0  0  0  0  0  0  0
   36.2618   33.6176   46.8676 H   0  0  0  0  0  0  0  0  0  0  0  0
   35.0768   36.0098   41.6445 H   0  0  0  0  0  0  0  0  0  0  0  0
   34.6365   35.3340   46.9786 H   0  0  0  0  0  0  0  0  0  0  0  0
  1  2  2  0
  1 13  1  0
  3  2  1  0
  4  3  2  0
  5  4  1  0
  5  6  2  0
  6  1  1  0
  7  5  1  0
  8  7  1  0
  9  8  1  0
 10 11  1  0
 10  9  1  0
 11 12  1  0
 12  7  1  0
 13 16  1  0
 14 13  1  0
 15 13  1  0
 17 12  1  0
 18 17  2  0
  2 19  1  0
  3 20  1  0
  8 21  1  0
  8 22  1  0
  9 23  1  0
  9 24  1  0
 10 25  1  0
 11 26  1  0
 11 27  1  0
 12 28  1  1
 29 30  2  0
 30 31  1  0
 31 32  1  0
 31 33  2  0
 33 34  1  0
 34 35  1  0
 35 36  1  0
 35 37  2  0
 37 38  1  0
 38 39  2  0
 39 29  1  0
 38 33  1  0
 29 40  1  0
 34 41  1  0
 39 42  1  0
 17 30  1  0
M  ISO  8  19  14  20  14  21  13  22  13  23  13  24  13  25   5  26  13
M  ISO  4  27  13  28  13  32  15  36  14
M  END
>  <DihAtoms>  (1) 
11,16,29,28

>  <DihDeg>  (1) 
38.47257504071374

$$$$
