
     RDKit          3D

 42 45  0  0  0  0  0  0  0  0999 V2000
   37.5650   30.8127   49.5050 C   0  0  0  0  0  0  0  0  0  0  0  0
   37.4885   32.1362   49.9240 C   0  0  0  0  0  0  0  0  0  0  0  0
   37.9426   33.1330   49.0142 C   0  0  0  0  0  0  0  0  0  0  0  0
   38.4129   32.6913   47.8093 N   0  0  0  0  0  0  0  0  0  0  0  0
   38.4658   31.4224   47.4539 C   0  0  0  0  0  0  0  0  0  0  0  0
   38.0414   30.4723   48.3011 N   0  0  0  0  0  0  0  0  0  0  0  0
   38.9789   31.1362   46.1681 N   0  0  0  0  0  0  0  0  0  0  0  0
   40.3829   30.8662   46.0003 C   0  0  0  0  0  0  0  0  0  0  0  0
   40.9258   31.5585   44.7612 C   0  0  0  0  0  0  0  0  0  0  0  0
   40.1074   31.3175   43.6278 N   0  0  0  0  0  0  0  0  0  0  0  0
   38.9506   30.4826   43.8583 C   0  0  0  0  0  0  0  0  0  0  0  0
   38.1178   31.1014   45.0009 C   0  0  2  0  0  0  0  0  0  0  0  0
   37.0998   29.7478   50.4552 C   0  0  0  0  0  0  0  0  0  0  0  0
   35.8032   29.3755   50.1372 F   0  0  0  0  0  0  0  0  0  0  0  0
   37.9996   28.7264   50.4284 F   0  0  0  0  0  0  0  0  0  0  0  0
   37.0250   30.3488   51.7307 F   0  0  0  0  0  0  0  0  0  0  0  0
   37.4337   32.3134   44.6625 C   0  0  0  0  0  0  0  0  0  0  0  0
   37.4491   32.5968   43.4601 O   0  0  0  0  0  0  0  0  0  0  0  0
   37.0997   32.3621   50.8955 H   0  0  0  0  0  0  0  0  0  0  0  0
   37.8831   34.1455   49.3370 H   0  0  0  0  0  0  0  0  0  0  0  0
   40.9344   31.3204   46.8675 H   0  0  0  0  0  0  0  0  0  0  0  0
   40.6478   29.7926   46.0488 H   0  0  0  0  0  0  0  0  0  0  0  0
   41.9124   31.0702   44.5607 H   0  0  0  0  0  0  0  0  0  0  0  0
   41.1411   32.6273   44.9771 H   0  0  0  0  0  0  0  0  0  0  0  0
   39.8310   32.2246   43.1756 H   0  0  0  0  0  0  0  0  0  0  0  0
   38.3737   30.4401   42.9201 H   0  0  0  0  0  0  0  0  0  0  0  0
   39.2847   29.5170   44.2495 H   0  0  0  0  0  0  0  0  0  0  0  0
   37.3815   30.2393   45.2122 H   0  0  0  0  0  0  0  0  0  0  0  0
   35.8821   34.2544   43.9771 C   0  0  0  0  0  0  0  0  0  0  0  0
   36.6433   33.5383   44.8453 C   0  0  0  0  0  0  0  0  0  0  0  0
   36.8302   34.3317   46.0255 C   0  0  0  0  0  0  0  0  0  0  0  0
   37.4290   33.9375   46.8613 H   0  0  0  0  0  0  0  0  0  0  0  0
   36.3505   35.6111   46.2936 C   0  0  0  0  0  0  0  0  0  0  0  0
   36.4548   36.4519   47.3281 N   0  0  0  0  0  0  0  0  0  0  0  0
   35.7567   37.5226   46.9217 C   0  0  0  0  0  0  0  0  0  0  0  0
   35.6910   38.3755   47.6137 H   0  0  0  0  0  0  0  0  0  0  0  0
   35.2547   37.3316   45.6950 N   0  0  0  0  0  0  0  0  0  0  0  0
   35.6196   36.1001   45.2544 C   0  0  0  0  0  0  0  0  0  0  0  0
   35.3389   35.4855   44.0640 C   0  0  0  0  0  0  0  0  0  0  0  0
   35.6106   33.7630   43.0777 H   0  0  0  0  0  0  0  0  0  0  0  0
   36.9732   36.2536   48.2106 H   0  0  0  0  0  0  0  0  0  0  0  0
   34.7504   35.9559   43.3042 H   0  0  0  0  0  0  0  0  0  0  0  0
  1  2  2  0
  1 13  1  0
  3  2  1  0
  4  3  2  0
  5  4  1  0
  5  6  2  0
  6  1  1  0
  7  5  1  0
  8  7  1  0
  9  8  1  0
 10 11  1  0
 10  9  1  0
 11 12  1  0
 12  7  1  0
 13 16  1  0
 14 13  1  0
 15 13  1  0
 17 12  1  0
 18 17  2  0
  2 19  1  0
  3 20  1  0
  8 21  1  0
  8 22  1  0
  9 23  1  0
  9 24  1  0
 10 25  1  0
 11 26  1  0
 11 27  1  0
 12 28  1  1
 29 30  2  0
 30 31  1  0
 31 32  1  0
 31 33  2  0
 33 34  1  0
 34 35  1  0
 35 36  1  0
 35 37  2  0
 37 38  1  0
 38 39  2  0
 39 29  1  0
 38 33  1  0
 29 40  1  0
 34 41  1  0
 39 42  1  0
 17 30  1  0
M  ISO  8  19  14  20  14  21  13  22  13  23  13  24  13  25   5  26  13
M  ISO  4  27  13  28  13  32  15  36  14
M  END
>  <DihAtoms>  (1) 
11,16,29,28

>  <DihDeg>  (1) 
38.47257504071374

$$$$
