
     RDKit          3D

 37 40  0  0  0  0  0  0  0  0999 V2000
   37.4699   31.4359   49.3830 C   0  0  0  0  0  0  0  0  0  0  0  0
   37.8722   32.7233   49.6970 C   0  0  0  0  0  0  0  0  0  0  0  0
   38.6829   33.3281   48.7618 C   0  0  0  0  0  0  0  0  0  0  0  0
   39.0368   32.6625   47.6196 N   0  0  0  0  0  0  0  0  0  0  0  0
   38.6243   31.4064   47.3470 C   0  0  0  0  0  0  0  0  0  0  0  0
   37.8195   30.7812   48.2580 N   0  0  0  0  0  0  0  0  0  0  0  0
   36.5553   30.7335   50.3534 C   0  0  0  0  0  0  0  0  0  0  0  0
   36.4777   29.3152   50.4668 C   0  0  0  0  0  0  0  0  0  0  0  0
   37.3372   30.0418   51.4928 C   0  0  0  0  0  0  0  0  0  0  0  0
   38.9846   30.6973   46.1278 C   0  0  0  0  0  0  0  0  0  0  0  0
   41.0525   31.5447   44.9977 C   0  0  0  0  0  0  0  0  0  0  0  0
   40.4361   32.2954   44.1899 O   0  0  0  0  0  0  0  0  0  0  0  0
   40.4300   30.7737   46.0040 N   0  0  0  0  0  0  0  0  0  0  0  0
   37.5334   33.1559   50.6279 H   0  0  0  0  0  0  0  0  0  0  0  0
   39.0203   34.3349   48.9687 H   0  0  0  0  0  0  0  0  0  0  0  0
   35.7492   31.4107   50.6968 H   0  0  0  0  0  0  0  0  0  0  0  0
   35.5158   28.8843   50.8673 H   0  0  0  0  0  0  0  0  0  0  0  0
   36.9861   28.5808   49.8189 H   0  0  0  0  0  0  0  0  0  0  0  0
   38.4138   29.9213   51.3791 H   0  0  0  0  0  0  0  0  0  0  0  0
   36.9023   30.1974   52.4907 H   0  0  0  0  0  0  0  0  0  0  0  0
   38.7430   29.6390   46.1960 H   0  0  0  0  0  0  0  0  0  0  0  0
   38.4787   31.1695   45.2632 H   0  0  0  0  0  0  0  0  0  0  0  0
   40.9577   30.2178   46.7127 H   0  0  0  0  0  0  0  0  0  0  0  0
   43.1046   32.2751   43.8395 C   0  0  0  0  0  0  0  0  0  0  0  0
   42.5039   31.5154   44.8283 C   0  0  0  0  0  0  0  0  0  0  0  0
   43.3782   30.7706   45.5919 C   0  0  0  0  0  0  0  0  0  0  0  0
   42.9645   30.1599   46.3770 H   0  0  0  0  0  0  0  0  0  0  0  0
   44.7410   30.7882   45.3791 C   0  0  0  0  0  0  0  0  0  0  0  0
   45.7733   30.1564   45.9860 N   0  0  0  0  0  0  0  0  0  0  0  0
   46.9157   30.5351   45.3745 C   0  0  0  0  0  0  0  0  0  0  0  0
   47.9335   30.2470   45.5741 H   0  0  0  0  0  0  0  0  0  0  0  0
   46.6252   31.4053   44.3794 N   0  0  0  0  0  0  0  0  0  0  0  0
   45.2882   31.5613   44.3819 C   0  0  0  0  0  0  0  0  0  0  0  0
   44.4647   32.3284   43.5848 C   0  0  0  0  0  0  0  0  0  0  0  0
   42.5037   32.9096   43.1688 H   0  0  0  0  0  0  0  0  0  0  0  0
   45.7062   29.4905   46.7881 H   0  0  0  0  0  0  0  0  0  0  0  0
   44.8756   32.9385   42.8007 H   0  0  0  0  0  0  0  0  0  0  0  0
  1  2  2  0
  1  7  1  0
  3  2  1  0
  4  3  2  0
  5  4  1  0
  5  6  2  0
  6  1  1  0
  7  8  1  0
  7  9  1  0
  8  9  1  0
 10  5  1  0
 11 13  1  0
 12 11  2  0
 13 10  1  0
  2 14  1  0
  3 15  1  0
  7 16  1  0
  8 17  1  0
  8 18  1  0
  9 19  1  0
  9 20  1  0
 10 21  1  0
 10 22  1  0
 13 23  1  0
 24 25  2  0
 25 26  1  0
 26 27  1  0
 26 28  2  0
 28 29  1  0
 29 30  1  0
 30 31  1  0
 30 32  2  0
 32 33  1  0
 33 34  2  0
 34 24  1  0
 33 28  1  0
 24 35  1  0
 29 36  1  0
 34 37  1  0
 11 25  1  0
M  ISO  8  14  14  15  14  16  13  17  13  18  13  19  13  20  13  21   8
M  ISO  3  22   8  27  15  31  14
M  END
>  <DihAtoms>  (1) 
12,10,24,23

>  <DihDeg>  (1) 
-179.97000623366782

$$$$
