
     RDKit          3D

 37 40  0  0  0  0  0  0  0  0999 V2000
   37.4699   31.4359   49.3830 C   0  0  0  0  0  0  0  0  0  0  0  0
   37.8722   32.7233   49.6970 C   0  0  0  0  0  0  0  0  0  0  0  0
   38.6829   33.3281   48.7618 C   0  0  0  0  0  0  0  0  0  0  0  0
   39.0368   32.6625   47.6196 N   0  0  0  0  0  0  0  0  0  0  0  0
   38.6243   31.4064   47.3470 C   0  0  0  0  0  0  0  0  0  0  0  0
   37.8195   30.7812   48.2580 N   0  0  0  0  0  0  0  0  0  0  0  0
   36.5553   30.7335   50.3534 C   0  0  0  0  0  0  0  0  0  0  0  0
   36.4777   29.3152   50.4668 C   0  0  0  0  0  0  0  0  0  0  0  0
   37.3372   30.0418   51.4928 C   0  0  0  0  0  0  0  0  0  0  0  0
   38.9846   30.6973   46.1278 C   0  0  0  0  0  0  0  0  0  0  0  0
   41.0525   31.5447   44.9977 C   0  0  0  0  0  0  0  0  0  0  0  0
   40.4361   32.2954   44.1899 O   0  0  0  0  0  0  0  0  0  0  0  0
   40.4300   30.7737   46.0040 N   0  0  0  0  0  0  0  0  0  0  0  0
   37.5334   33.1559   50.6279 H   0  0  0  0  0  0  0  0  0  0  0  0
   39.0203   34.3349   48.9687 H   0  0  0  0  0  0  0  0  0  0  0  0
   35.7492   31.4107   50.6968 H   0  0  0  0  0  0  0  0  0  0  0  0
   35.5158   28.8843   50.8673 H   0  0  0  0  0  0  0  0  0  0  0  0
   36.9861   28.5808   49.8189 H   0  0  0  0  0  0  0  0  0  0  0  0
   38.4138   29.9213   51.3791 H   0  0  0  0  0  0  0  0  0  0  0  0
   36.9023   30.1974   52.4907 H   0  0  0  0  0  0  0  0  0  0  0  0
   38.7430   29.6390   46.1960 H   0  0  0  0  0  0  0  0  0  0  0  0
   38.4787   31.1695   45.2632 H   0  0  0  0  0  0  0  0  0  0  0  0
   40.9577   30.2178   46.7127 H   0  0  0  0  0  0  0  0  0  0  0  0
   43.1826   30.3093   44.8478 C   0  0  0  0  0  0  0  0  0  0  0  0
   42.5039   31.5154   44.8283 C   0  0  0  0  0  0  0  0  0  0  0  0
   43.3047   32.6227   44.6417 C   0  0  0  0  0  0  0  0  0  0  0  0
   42.8284   33.5887   44.6182 H   0  0  0  0  0  0  0  0  0  0  0  0
   44.6721   32.5254   44.4879 C   0  0  0  0  0  0  0  0  0  0  0  0
   45.6426   33.4498   44.2964 N   0  0  0  0  0  0  0  0  0  0  0  0
   46.8256   32.8053   44.2097 C   0  0  0  0  0  0  0  0  0  0  0  0
   47.8164   33.1985   44.0599 H   0  0  0  0  0  0  0  0  0  0  0  0
   46.6225   31.4739   44.3441 N   0  0  0  0  0  0  0  0  0  0  0  0
   45.2985   31.3013   44.5151 C   0  0  0  0  0  0  0  0  0  0  0  0
   44.5508   30.1570   44.6983 C   0  0  0  0  0  0  0  0  0  0  0  0
   42.6446   29.3586   44.9902 H   0  0  0  0  0  0  0  0  0  0  0  0
   45.5080   34.4834   44.2267 H   0  0  0  0  0  0  0  0  0  0  0  0
   45.0242   29.1920   44.7222 H   0  0  0  0  0  0  0  0  0  0  0  0
  1  2  2  0
  1  7  1  0
  3  2  1  0
  4  3  2  0
  5  4  1  0
  5  6  2  0
  6  1  1  0
  7  8  1  0
  7  9  1  0
  8  9  1  0
 10  5  1  0
 11 13  1  0
 12 11  2  0
 13 10  1  0
  2 14  1  0
  3 15  1  0
  7 16  1  0
  8 17  1  0
  8 18  1  0
  9 19  1  0
  9 20  1  0
 10 21  1  0
 10 22  1  0
 13 23  1  0
 24 25  2  0
 25 26  1  0
 26 27  1  0
 26 28  2  0
 28 29  1  0
 29 30  1  0
 30 31  1  0
 30 32  2  0
 32 33  1  0
 33 34  2  0
 34 24  1  0
 33 28  1  0
 24 35  1  0
 29 36  1  0
 34 37  1  0
 11 25  1  0
M  ISO  8  14  14  15  14  16  13  17  13  18  13  19  13  20  13  21   8
M  ISO  3  22   8  27  15  31  14
M  END
>  <DihAtoms>  (1) 
12,10,24,23

>  <DihDeg>  (1) 
-179.97000623366782

$$$$
