
     RDKit          3D

 35 38  0  0  0  0  0  0  0  0999 V2000
   36.7477   31.7964   50.2420 Cl  0  0  0  0  0  0  0  0  0  0  0  0
   37.3895   31.7348   48.6323 C   0  0  0  0  0  0  0  0  0  0  0  0
   36.7422   30.8407   47.8007 C   0  0  0  0  0  0  0  0  0  0  0  0
   37.1900   30.7201   46.4858 C   0  0  0  0  0  0  0  0  0  0  0  0
   38.2349   31.4536   46.0112 C   0  0  0  0  0  0  0  0  0  0  0  0
   38.8672   32.3346   46.8421 C   0  0  0  0  0  0  0  0  0  0  0  0
   40.2083   33.2942   46.2750 Cl  0  0  0  0  0  0  0  0  0  0  0  0
   38.4446   32.4599   48.1140 C   0  0  0  0  0  0  0  0  0  0  0  0
   35.7777   28.9884   49.1046 C   0  0  0  0  0  0  0  0  0  0  0  0
   35.6084   29.9618   48.0970 C   0  0  0  0  0  0  0  0  0  0  0  0
   34.3815   30.0154   47.4613 C   0  0  0  0  0  0  0  0  0  0  0  0
   33.4108   29.1421   47.8305 N   0  0  0  0  0  0  0  0  0  0  0  0
   33.6016   28.2239   48.7959 C   0  0  0  0  0  0  0  0  0  0  0  0
   34.7857   28.1545   49.4263 N   0  0  0  0  0  0  0  0  0  0  0  0
   39.0729   33.3761   49.0867 C   0  0  0  0  0  0  0  0  0  0  0  0
   39.3849   34.5824   48.9528 O   0  0  0  0  0  0  0  0  0  0  0  0
   36.7430   30.0442   45.7637 H   0  0  0  0  0  0  0  0  0  0  0  0
   38.5893   31.3681   44.9928 H   0  0  0  0  0  0  0  0  0  0  0  0
   36.7110   28.8803   49.6521 H   0  0  0  0  0  0  0  0  0  0  0  0
   34.2626   30.7660   46.6905 H   0  0  0  0  0  0  0  0  0  0  0  0
   32.6944   27.6459   48.9141 H   0  0  0  0  0  0  0  0  0  0  0  0
   39.6853   31.5630   50.6978 C   0  0  0  0  0  0  0  0  0  0  0  0
   39.4158   32.8965   50.4223 C   0  0  0  0  0  0  0  0  0  0  0  0
   39.4976   33.7392   51.5390 C   0  0  0  0  0  0  0  0  0  0  0  0
   39.2963   34.8130   51.3970 H   0  0  0  0  0  0  0  0  0  0  0  0
   39.8165   33.2849   52.7992 C   0  0  0  0  0  0  0  0  0  0  0  0
   39.9694   33.8102   54.0135 N   0  0  0  0  0  0  0  0  0  0  0  0
   40.3012   32.8637   54.9291 C   0  0  0  0  0  0  0  0  0  0  0  0
   40.4895   32.9856   55.9919 H   0  0  0  0  0  0  0  0  0  0  0  0
   40.3590   31.6891   54.2559 N   0  0  0  0  0  0  0  0  0  0  0  0
   40.0643   31.9394   52.9556 C   0  0  0  0  0  0  0  0  0  0  0  0
   40.0110   31.0279   51.9255 C   0  0  0  0  0  0  0  0  0  0  0  0
   39.6274   30.8823   49.8358 H   0  0  0  0  0  0  0  0  0  0  0  0
   39.8395   34.8259   54.1900 H   0  0  0  0  0  0  0  0  0  0  0  0
   40.1930   29.9733   51.9889 H   0  0  0  0  0  0  0  0  0  0  0  0
  2  1  1  0
  3 10  1  0
  3  2  2  0
  4  3  1  0
  5  4  2  0
  5  6  1  0
  6  8  2  0
  7  6  1  0
  8  2  1  0
  8 15  1  0
  9 14  2  0
 10  9  1  0
 11 12  1  0
 11 10  2  0
 12 13  2  0
 13 14  1  0
 16 15  2  0
  4 17  1  0
  5 18  1  0
  9 19  1  0
 11 20  1  0
 13 21  1  0
 22 23  2  0
 23 24  1  0
 24 25  1  0
 24 26  2  0
 26 27  1  0
 27 28  1  0
 28 29  1  0
 28 30  2  0
 30 31  1  0
 31 32  2  0
 32 22  1  0
 31 26  1  0
 22 33  1  0
 27 34  1  0
 32 35  1  0
 15 23  1  0
M  ISO  7  17  14  18  14  19  14  20  14  21  14  25  15  29  14
M  END
>  <DihAtoms>  (1) 
7,14,22,21

>  <DihDeg>  (1) 
-153.84660406340438

$$$$
