
     RDKit          3D

 46 50  0  0  0  0  0  0  0  0999 V2000
   36.7870   31.2020   50.1150 C   0  0  0  0  0  0  0  0  0  0  0  0
   35.7510   30.3010   49.8780 C   0  0  0  0  0  0  0  0  0  0  0  0
   35.5750   29.1710   50.6400 C   0  0  0  0  0  0  0  0  0  0  0  0
   36.4630   28.9600   51.6500 N   0  0  0  0  0  0  0  0  0  0  0  0
   37.4770   29.8430   51.8840 C   0  0  0  0  0  0  0  0  0  0  0  0
   37.6200   30.9270   51.1270 N   0  0  0  0  0  0  0  0  0  0  0  0
   34.3340   29.2870   48.1350 C   0  0  0  0  0  0  0  0  0  0  0  0
   34.7390   28.0630   48.1210 O   0  0  0  0  0  0  0  0  0  0  0  0
   34.7890   30.4130   48.8550 N   0  0  0  0  0  0  0  0  0  0  0  0
   32.1830   28.5940   47.0470 C   0  0  0  0  0  0  0  0  0  0  0  0
   33.2040   29.5020   47.2310 C   0  0  0  0  0  0  0  0  0  0  0  0
   33.0400   30.6380   46.4660 C   0  0  0  0  0  0  0  0  0  0  0  0
   31.9970   30.8900   45.6020 C   0  0  0  0  0  0  0  0  0  0  0  0
   31.6940   31.9260   44.7990 N   0  0  0  0  0  0  0  0  0  0  0  0
   30.5410   31.6410   44.1660 C   0  0  0  0  0  0  0  0  0  0  0  0
   30.1290   30.4240   44.5800 N   0  0  0  0  0  0  0  0  0  0  0  0
   31.0170   29.9290   45.4770 C   0  0  0  0  0  0  0  0  0  0  0  0
   31.1070   28.7630   46.2070 C   0  0  0  0  0  0  0  0  0  0  0  0
   36.7920   32.2490   49.2610 O   0  0  0  0  0  0  0  0  0  0  0  0
   38.2480   32.2360   47.2710 C   0  0  0  0  0  0  0  0  0  0  0  0
   37.8870   32.6700   48.5390 C   0  0  0  0  0  0  0  0  0  0  0  0
   38.6540   33.6110   49.1990 C   0  0  0  0  0  0  0  0  0  0  0  0
   39.7890   34.1250   48.5910 C   0  0  0  0  0  0  0  0  0  0  0  0
   40.1470   33.6910   47.3270 C   0  0  0  0  0  0  0  0  0  0  0  0
   39.3610   32.7490   46.6930 C   0  0  0  0  0  0  0  0  0  0  0  0
   39.7550   32.2970   45.3470 C   0  0  0  0  0  0  0  0  0  0  0  0
   40.5900   31.2750   44.9730 C   0  0  0  0  0  0  0  0  0  0  0  0
   40.6340   31.2550   43.5800 C   0  0  0  0  0  0  0  0  0  0  0  0
   39.8020   32.2920   43.1890 C   0  0  0  0  0  0  0  0  0  0  0  0
   39.2880   32.9000   44.2510 O   0  0  0  0  0  0  0  0  0  0  0  0
   36.7340   30.4820   46.1470 N   0  0  0  0  0  0  0  0  0  0  0  0
   37.4050   31.2630   46.6580 C   0  0  0  0  0  0  0  0  0  0  0  0
   34.7526   28.4678   50.4425 H   0  0  0  0  0  0  0  0  0  0  0  0
   38.1828   29.6562   52.7067 H   0  0  0  0  0  0  0  0  0  0  0  0
   34.4071   31.3418   48.6260 H   0  0  0  0  0  0  0  0  0  0  0  0
   32.2331   27.6562   47.6197 H   0  0  0  0  0  0  0  0  0  0  0  0
   33.8138   31.4148   46.5540 H   0  0  0  0  0  0  0  0  0  0  0  0
   32.2479   32.7872   44.6880 H   0  0  0  0  0  0  0  0  0  0  0  0
   30.0253   32.2860   43.4394 H   0  0  0  0  0  0  0  0  0  0  0  0
   30.3348   27.9845   46.1196 H   0  0  0  0  0  0  0  0  0  0  0  0
   38.3648   33.9514   50.2042 H   0  0  0  0  0  0  0  0  0  0  0  0
   40.4026   34.8750   49.1116 H   0  0  0  0  0  0  0  0  0  0  0  0
   41.0453   34.0908   46.8338 H   0  0  0  0  0  0  0  0  0  0  0  0
   41.1275   30.5945   45.6498 H   0  0  0  0  0  0  0  0  0  0  0  0
   41.2024   30.5690   42.9348 H   0  0  0  0  0  0  0  0  0  0  0  0
   39.5965   32.5719   42.1452 H   0  0  0  0  0  0  0  0  0  0  0  0
  1  6  2  0
  2  1  1  0
  2  3  2  0
  3  4  1  0
  4  5  2  0
  6  5  1  0
  7  9  1  0
  8  7  2  0
  9  2  1  0
 10 11  2  0
 11  7  1  0
 12 11  1  0
 13 12  2  0
 14 13  1  0
 15 16  2  0
 15 14  1  0
 16 17  1  0
 17 13  1  0
 17 18  2  0
 18 10  1  0
 19  1  1  0
 20 21  2  0
 21 22  1  0
 21 19  1  0
 23 22  2  0
 24 23  1  0
 25 20  1  0
 25 24  2  0
 26 25  1  0
 27 26  2  0
 28 27  1  0
 29 28  2  0
 29 30  1  0
 30 26  1  0
 31 32  3  0
 32 20  1  0
  3 33  1  0
  5 34  1  0
  9 35  1  0
 10 36  1  0
 12 37  1  0
 14 38  1  0
 15 39  1  0
 18 40  1  0
 22 41  1  0
 23 42  1  0
 24 43  1  0
 27 44  1  0
 28 45  1  0
 29 46  1  0
M  ISO  8  33  14  34  14  36  14  37  14  38   9  39  14  40  14  41  14
M  ISO  5  42  14  43  14  44  14  45  14  46  14
M  END
>  <minimizedAffinity>  (1) 
-6.40071726

>  <minimizedRMSD>  (1) 
0.493045717

$$$$
