
     RDKit          3D

 44 47  0  0  0  0  0  0  0  0999 V2000
   36.6879   29.9163   49.0497 C   0  0  0  0  0  0  0  0  0  0  0  0
   37.7038   30.5950   48.3390 C   0  0  0  0  0  0  0  0  0  0  0  0
   37.4685   30.8986   46.9922 C   0  0  0  0  0  0  0  0  0  0  0  0
   36.3001   30.5336   46.4474 N   0  0  0  0  0  0  0  0  0  0  0  0
   35.3460   29.8868   47.1457 C   0  0  0  0  0  0  0  0  0  0  0  0
   35.5458   29.5858   48.4303 N   0  0  0  0  0  0  0  0  0  0  0  0
   38.4499   31.5693   46.2445 N   0  0  0  0  0  0  0  0  0  0  0  0
   39.4471   32.4987   46.7757 C   0  0  0  0  0  0  0  0  0  0  0  0
   40.1361   33.1270   45.6149 C   0  0  0  0  0  0  0  0  0  0  0  0
   39.1903   32.8745   44.5077 C   0  0  0  0  0  0  0  0  0  0  0  0
   38.6939   31.4976   44.8338 C   0  0  2  0  0  0  0  0  0  0  0  0
   37.5937   31.0265   43.9590 C   0  0  0  0  0  0  0  0  0  0  0  0
   36.4650   31.7489   44.3400 F   0  0  0  0  0  0  0  0  0  0  0  0
   37.2764   29.7100   44.0214 F   0  0  0  0  0  0  0  0  0  0  0  0
   37.9011   31.4522   42.6798 F   0  0  0  0  0  0  0  0  0  0  0  0
   39.8332   30.5434   44.6711 C   0  0  0  0  0  0  0  0  0  0  0  0
   40.3518   30.7476   43.5689 O   0  0  0  0  0  0  0  0  0  0  0  0
   40.9051   30.0545   42.5526 C   0  0  0  0  0  0  0  0  0  0  0  0
   40.6433   30.6795   41.4612 O   0  0  0  0  0  0  0  0  0  0  0  0
   36.8874   29.6911   50.0859 H   0  0  0  0  0  0  0  0  0  0  0  0
   38.6451   30.8923   48.7675 H   0  0  0  0  0  0  0  0  0  0  0  0
   34.4258   29.6159   46.6621 H   0  0  0  0  0  0  0  0  0  0  0  0
   38.9879   33.2146   47.4844 H   0  0  0  0  0  0  0  0  0  0  0  0
   40.1928   31.8577   47.3070 H   0  0  0  0  0  0  0  0  0  0  0  0
   41.1607   32.8058   45.4194 H   0  0  0  0  0  0  0  0  0  0  0  0
   40.2104   34.2396   45.7988 H   0  0  0  0  0  0  0  0  0  0  0  0
   38.3901   33.6171   44.5076 H   0  0  0  0  0  0  0  0  0  0  0  0
   39.6857   32.9144   43.4998 H   0  0  0  0  0  0  0  0  0  0  0  0
   40.5997   30.8510   45.4464 H   0  0  0  0  0  0  0  0  0  0  0  0
   39.4467   29.5826   45.0832 H   0  0  0  0  0  0  0  0  0  0  0  0
   41.4442   28.3016   40.9566 C   0  0  0  0  0  0  0  0  0  0  0  0
   41.6876   28.8790   42.1808 C   0  0  0  0  0  0  0  0  0  0  0  0
   42.6799   28.2708   42.9308 C   0  0  0  0  0  0  0  0  0  0  0  0
   42.8262   28.7821   43.9019 H   0  0  0  0  0  0  0  0  0  0  0  0
   43.4539   27.1853   42.6408 C   0  0  0  0  0  0  0  0  0  0  0  0
   44.4274   26.4976   43.2458 N   0  0  0  0  0  0  0  0  0  0  0  0
   44.7122   25.5379   42.3365 C   0  0  0  0  0  0  0  0  0  0  0  0
   45.4801   24.7668   42.4863 H   0  0  0  0  0  0  0  0  0  0  0  0
   43.9601   25.6218   41.2283 N   0  0  0  0  0  0  0  0  0  0  0  0
   43.1351   26.6858   41.4050 C   0  0  0  0  0  0  0  0  0  0  0  0
   42.1910   27.1785   40.5683 C   0  0  0  0  0  0  0  0  0  0  0  0
   40.7256   28.5936   40.2044 H   0  0  0  0  0  0  0  0  0  0  0  0
   44.8258   26.6993   44.1853 H   0  0  0  0  0  0  0  0  0  0  0  0
   42.0160   26.7043   39.6034 H   0  0  0  0  0  0  0  0  0  0  0  0
  2  1  2  0
  3  2  1  0
  4  3  2  0
  4  5  1  0
  5  6  2  0
  6  1  1  0
  7  8  1  0
  7  3  1  0
  9  8  1  0
 10 11  1  0
 10  9  1  0
 11 12  1  6
 11  7  1  0
 12 14  1  0
 12 13  1  0
 15 12  1  0
 16 11  1  0
 17 16  1  0
 18 17  1  0
 19 18  2  0
  1 20  1  0
  2 21  1  0
  5 22  1  0
  8 23  1  0
  8 24  1  0
  9 25  1  0
  9 26  1  0
 10 27  1  0
 10 28  1  0
 16 29  1  0
 16 30  1  0
 31 32  2  0
 32 33  1  0
 33 34  1  0
 33 35  2  0
 35 36  1  0
 36 37  1  0
 37 38  1  0
 37 39  2  0
 39 40  1  0
 40 41  2  0
 41 31  1  0
 40 35  1  0
 31 42  1  0
 36 43  1  0
 41 44  1  0
 18 32  1  0
M  ISO  8  20  14  21  14  22  14  23  13  24  13  25  13  26  13  27  13
M  ISO  5  28  13  29   8  30   8  34  15  38  14
M  END
>  <DihAtoms>  (1) 
16,17,31,30

>  <DihDeg>  (1) 
178.7400379672289

$$$$
