
     RDKit          3D

 46 48  0  0  0  0  0  0  0  0999 V2000
   36.8803   30.2857   49.3067 C   0  0  0  0  0  0  0  0  0  0  0  0
   37.8732   30.8712   48.5056 C   0  0  0  0  0  0  0  0  0  0  0  0
   37.5753   31.0309   47.1445 C   0  0  0  0  0  0  0  0  0  0  0  0
   36.3811   30.6250   46.6833 N   0  0  0  0  0  0  0  0  0  0  0  0
   35.4565   30.0668   47.4913 C   0  0  0  0  0  0  0  0  0  0  0  0
   35.7049   29.9005   48.7845 N   0  0  0  0  0  0  0  0  0  0  0  0
   38.5076   31.6070   46.2834 N   0  0  0  0  0  0  0  0  0  0  0  0
   39.5299   32.6292   46.6474 C   0  0  0  0  0  0  0  0  0  0  0  0
   40.1569   33.1304   45.4168 C   0  0  0  0  0  0  0  0  0  0  0  0
   39.1819   32.7344   44.3730 C   0  0  0  0  0  0  0  0  0  0  0  0
   38.7327   31.4055   44.8926 C   0  0  2  0  0  0  0  0  0  0  0  0
   37.5729   30.8706   44.1000 C   0  0  0  0  0  0  0  0  0  0  0  0
   36.4762   31.6530   44.3991 F   0  0  0  0  0  0  0  0  0  0  0  0
   37.2134   29.5811   44.3790 F   0  0  0  0  0  0  0  0  0  0  0  0
   37.8611   31.0824   42.7745 F   0  0  0  0  0  0  0  0  0  0  0  0
   39.7966   30.4262   44.7846 C   0  0  2  0  0  0  0  0  0  0  0  0
   40.8020   30.6983   45.8499 O   0  0  0  0  0  0  0  0  0  0  0  0
   40.4680   30.6477   43.7570 O   0  0  0  0  0  0  0  0  0  0  0  0
   41.0262   30.0380   42.6977 C   0  0  0  0  0  0  0  0  0  0  0  0
   40.7297   30.5380   41.6227 O   0  0  0  0  0  0  0  0  0  0  0  0
   41.8767   28.9841   42.2506 N   0  0  0  0  0  0  0  0  0  0  0  0
   37.1249   30.1665   50.3674 H   0  0  0  0  0  0  0  0  0  0  0  0
   38.8376   31.2011   48.8683 H   0  0  0  0  0  0  0  0  0  0  0  0
   34.4834   29.7269   47.1591 H   0  0  0  0  0  0  0  0  0  0  0  0
   40.1270   32.3664   47.5006 H   0  0  0  0  0  0  0  0  0  0  0  0
   38.8435   33.4499   47.0438 H   0  0  0  0  0  0  0  0  0  0  0  0
   41.2082   32.9000   45.2318 H   0  0  0  0  0  0  0  0  0  0  0  0
   40.1432   34.2640   45.4165 H   0  0  0  0  0  0  0  0  0  0  0  0
   38.3470   33.4244   44.2358 H   0  0  0  0  0  0  0  0  0  0  0  0
   39.6942   32.6072   43.4078 H   0  0  0  0  0  0  0  0  0  0  0  0
   39.4182   29.4327   45.0997 H   0  0  0  0  0  0  0  0  0  0  0  0
   42.9087   29.1543   42.3256 H   0  0  0  0  0  0  0  0  0  0  0  0
   41.4820   28.0815   41.8651 H   0  0  0  0  0  0  0  0  0  0  0  0
   43.4635   30.3982   46.2325 O   0  0  0  0  0  0  0  0  0  0  0  0
   42.5008   29.6803   46.9282 C   0  0  0  0  0  0  0  0  0  0  0  0
   41.1049   29.7648   46.8015 C   0  0  0  0  0  0  0  0  0  0  0  0
   40.3918   28.9252   47.6256 C   0  0  0  0  0  0  0  0  0  0  0  0
   39.3455   29.0065   47.5118 H   0  0  0  0  0  0  0  0  0  0  0  0
   40.9672   28.0541   48.5203 C   0  0  0  0  0  0  0  0  0  0  0  0
   42.3378   27.9755   48.6409 C   0  0  0  0  0  0  0  0  0  0  0  0
   43.0929   28.7982   47.8347 C   0  0  0  0  0  0  0  0  0  0  0  0
   44.4595   28.6553   48.0198 O   0  0  0  0  0  0  0  0  0  0  0  0
   43.4423   30.5998   45.2442 H   0  0  0  0  0  0  0  0  0  0  0  0
   40.2704   27.4619   49.0959 H   0  0  0  0  0  0  0  0  0  0  0  0
   42.6938   27.2712   49.3612 H   0  0  0  0  0  0  0  0  0  0  0  0
   45.1074   28.5990   47.2327 H   0  0  0  0  0  0  0  0  0  0  0  0
  2  1  2  0
  3  2  1  0
  4  3  2  0
  4  5  1  0
  5  6  2  0
  6  1  1  0
  7  8  1  0
  7  3  1  0
  9  8  1  0
 10 11  1  0
 10  9  1  0
 11 12  1  6
 11  7  1  0
 12 14  1  0
 12 13  1  0
 15 12  1  0
 16 11  1  0
 16 17  1  0
 18 16  1  0
 19 18  1  0
 20 19  2  0
 21 19  1  0
  1 22  1  0
  2 23  1  0
  5 24  1  0
  8 25  1  0
  8 26  1  0
  9 27  1  0
  9 28  1  0
 10 29  1  0
 10 30  1  0
 16 31  1  6
 21 32  1  0
 21 33  1  0
 34 35  1  0
 35 36  2  0
 36 37  1  0
 37 38  1  0
 37 39  2  0
 39 40  1  0
 40 41  2  0
 41 42  1  0
 41 35  1  0
 34 43  1  0
 39 44  1  0
 40 45  1  0
 42 46  1  0
 17 36  1  0
M  ISO  8  22  14  23  14  24  14  25  13  26  13  27  13  28  13  29  13
M  ISO  3  30  13  31   8  38  16
M  END
>  <DihAtoms>  (1) 
15,16,35,34

>  <DihDeg>  (1) 
178.47798799142421

$$$$
