
     RDKit          3D

 37 39  0  0  0  0  0  0  0  0999 V2000
   37.9956   31.3950   47.6370 C   0  0  0  0  0  0  0  0  0  0  0  0
   37.0790   31.3256   48.6725 C   0  0  0  0  0  0  0  0  0  0  0  0
   37.2048   32.3512   49.6146 C   0  0  0  0  0  0  0  0  0  0  0  0
   38.1780   33.3487   49.5007 C   0  0  0  0  0  0  0  0  0  0  0  0
   39.0605   33.3294   48.4118 C   0  0  0  0  0  0  0  0  0  0  0  0
   38.9470   32.3291   47.4819 C   0  0  0  0  0  0  0  0  0  0  0  0
   34.9343   30.3446   47.9828 C   0  0  0  0  0  0  0  0  0  0  0  0
   36.0811   30.3082   48.7950 C   0  0  0  0  0  0  0  0  0  0  0  0
   36.1926   29.2567   49.7022 C   0  0  0  0  0  0  0  0  0  0  0  0
   35.1945   28.3330   49.7505 N   0  0  0  0  0  0  0  0  0  0  0  0
   34.1028   28.4087   48.9450 C   0  0  0  0  0  0  0  0  0  0  0  0
   33.9787   29.4079   48.0704 N   0  0  0  0  0  0  0  0  0  0  0  0
   37.3788   29.1640   50.5858 C   0  0  0  0  0  0  0  0  0  0  0  0
   37.9439   30.3990   46.6370 O   0  0  0  0  0  0  0  0  0  0  0  0
   39.8444   32.3429   46.4099 O   0  0  0  0  0  0  0  0  0  0  0  0
   36.5420   32.4053   50.4746 H   0  0  0  0  0  0  0  0  0  0  0  0
   38.2574   34.1344   50.2430 H   0  0  0  0  0  0  0  0  0  0  0  0
   39.8049   34.1176   48.3517 H   0  0  0  0  0  0  0  0  0  0  0  0
   34.8717   31.1687   47.2887 H   0  0  0  0  0  0  0  0  0  0  0  0
   33.3129   27.6668   48.9917 H   0  0  0  0  0  0  0  0  0  0  0  0
   38.2421   29.5004   49.9858 H   0  0  0  0  0  0  0  0  0  0  0  0
   37.4630   28.1007   50.8895 H   0  0  0  0  0  0  0  0  0  0  0  0
   37.2637   29.7631   51.5053 H   0  0  0  0  0  0  0  0  0  0  0  0
   37.0622   30.2802   46.1379 H   0  0  0  0  0  0  0  0  0  0  0  0
   38.7426   34.6824   45.2693 O   0  0  0  0  0  0  0  0  0  0  0  0
   38.7211   33.5355   44.5087 C   0  0  0  0  0  0  0  0  0  0  0  0
   39.2765   32.4409   45.1359 C   0  0  0  0  0  0  0  0  0  0  0  0
   39.3246   31.2150   44.4899 C   0  0  0  0  0  0  0  0  0  0  0  0
   39.7370   30.2822   44.8812 H   0  0  0  0  0  0  0  0  0  0  0  0
   38.8205   31.0567   43.2071 C   0  0  0  0  0  0  0  0  0  0  0  0
   38.2647   32.1585   42.5833 C   0  0  0  0  0  0  0  0  0  0  0  0
   38.2232   33.3628   43.2316 C   0  0  0  0  0  0  0  0  0  0  0  0
   37.6787   34.5041   42.6586 O   0  0  0  0  0  0  0  0  0  0  0  0
   39.3724   35.4520   45.1237 H   0  0  0  0  0  0  0  0  0  0  0  0
   38.8326   30.1305   42.6621 H   0  0  0  0  0  0  0  0  0  0  0  0
   37.8614   32.0801   41.5869 H   0  0  0  0  0  0  0  0  0  0  0  0
   38.2185   35.1727   42.1445 H   0  0  0  0  0  0  0  0  0  0  0  0
  1  2  2  0
  2  8  1  0
  2  3  1  0
  4  3  2  0
  5  4  1  0
  6  1  1  0
  6  5  2  0
  7 12  2  0
  7  8  1  0
  8  9  2  0
  9 10  1  0
  9 13  1  0
 11 10  2  0
 12 11  1  0
 14  1  1  0
 15  6  1  0
  3 16  1  0
  4 17  1  0
  5 18  1  0
  7 19  1  0
 11 20  1  0
 13 21  1  0
 13 22  1  0
 13 23  1  0
 14 24  1  0
 25 26  1  0
 26 27  2  0
 27 28  1  0
 28 29  1  0
 28 30  2  0
 30 31  1  0
 31 32  2  0
 32 33  1  0
 32 26  1  0
 25 34  1  0
 30 35  1  0
 31 36  1  0
 33 37  1  0
 15 27  1  0
M  ISO  8  16  14  17  14  18  14  19  14  20  14  21   8  22   8  23   8
M  ISO  2  24   3  29  16
M  END
>  <DihAtoms>  (1) 
5,14,26,25

>  <DihDeg>  (1) 
60.00025782826734

$$$$
