
     RDKit          3D

 53 57  0  0  0  0  0  0  0  0999 V2000
   37.5114   32.0989   49.0510 C   0  0  0  0  0  0  0  0  0  0  0  0
   38.0707   33.2286   49.6046 C   0  0  0  0  0  0  0  0  0  0  0  0
   39.0968   33.8163   48.8526 C   0  0  0  0  0  0  0  0  0  0  0  0
   39.4850   33.2706   47.6528 N   0  0  0  0  0  0  0  0  0  0  0  0
   38.9079   32.1655   47.1512 C   0  0  0  0  0  0  0  0  0  0  0  0
   37.9068   31.5806   47.8716 N   0  0  0  0  0  0  0  0  0  0  0  0
   40.0623   32.3873   45.0176 C   0  0  0  0  0  0  0  0  0  0  0  0
   39.3252   31.5910   45.8630 C   0  0  0  0  0  0  0  0  0  0  0  0
   39.0056   30.2952   45.4789 C   0  0  0  0  0  0  0  0  0  0  0  0
   39.3971   29.7558   44.2685 C   0  0  0  0  0  0  0  0  0  0  0  0
   39.2216   28.5523   43.6718 N   0  0  0  0  0  0  0  0  0  0  0  0
   39.8516   28.6423   42.4818 C   0  0  0  0  0  0  0  0  0  0  0  0
   40.4077   29.8715   42.3379 N   0  0  0  0  0  0  0  0  0  0  0  0
   40.1353   30.5819   43.4426 C   0  0  0  0  0  0  0  0  0  0  0  0
   40.4708   31.8769   43.7957 C   0  0  0  0  0  0  0  0  0  0  0  0
   36.4354   31.4029   49.8315 C   0  0  1  0  0  0  0  0  0  0  0  0
   35.4016   30.6190   49.1807 C   0  0  2  0  0  0  0  0  0  0  0  0
   36.6177   29.8756   49.8169 C   0  0  2  0  0  0  0  0  0  0  0  0
   35.3712   30.5878   47.8444 O   0  0  0  0  0  0  0  0  0  0  0  0
   34.5496   30.2687   46.8472 C   0  0  0  0  0  0  0  0  0  0  0  0
   35.0498   29.4402   46.0071 O   0  0  0  0  0  0  0  0  0  0  0  0
   33.3164   30.8391   46.8284 N   0  0  0  0  0  0  0  0  0  0  0  0
   36.4768   29.2892   51.1687 C   0  0  0  0  0  0  0  0  0  0  0  0
   37.3956   29.7657   52.2135 C   0  0  0  0  0  0  0  0  0  0  0  0
   37.8006   33.6877   50.5305 H   0  0  0  0  0  0  0  0  0  0  0  0
   39.5785   34.7193   49.2424 H   0  0  0  0  0  0  0  0  0  0  0  0
   40.3562   33.3906   45.2277 H   0  0  0  0  0  0  0  0  0  0  0  0
   38.4273   29.6981   46.1671 H   0  0  0  0  0  0  0  0  0  0  0  0
   38.6786   27.7841   44.1533 H   0  0  0  0  0  0  0  0  0  0  0  0
   39.7896   27.7211   41.8819 H   0  0  0  0  0  0  0  0  0  0  0  0
   41.0524   32.4510   43.0827 H   0  0  0  0  0  0  0  0  0  0  0  0
   36.2088   31.8899   50.8093 H   0  0  0  0  0  0  0  0  0  0  0  0
   34.5901   30.3104   49.9170 H   0  0  0  0  0  0  0  0  0  0  0  0
   37.3453   29.4213   49.1471 H   0  0  0  0  0  0  0  0  0  0  0  0
   32.6483   31.6239   46.5395 H   0  0  0  0  0  0  0  0  0  0  0  0
   32.6833   31.6467   46.5167 H   0  0  0  0  0  0  0  0  0  0  0  0
   36.5953   28.1706   51.0655 H   0  0  0  0  0  0  0  0  0  0  0  0
   35.4343   29.3949   51.5637 H   0  0  0  0  0  0  0  0  0  0  0  0
   36.9765   29.5263   53.2106 H   0  0  0  0  0  0  0  0  0  0  0  0
   37.3088   30.9162   52.2019 H   0  0  0  0  0  0  0  0  0  0  0  0
   39.9345   30.4057   53.7131 O   0  0  0  0  0  0  0  0  0  0  0  0
   40.0543   29.5883   52.6027 C   0  0  0  0  0  0  0  0  0  0  0  0
   38.8077   29.4020   52.0936 C   0  0  0  0  0  0  0  0  0  0  0  0
   38.9210   28.5530   50.9492 C   0  0  0  0  0  0  0  0  0  0  0  0
   38.1054   28.1965   50.2927 H   0  0  0  0  0  0  0  0  0  0  0  0
   40.1128   28.0177   50.4507 C   0  0  0  0  0  0  0  0  0  0  0  0
   41.2975   28.3098   51.0899 C   0  0  0  0  0  0  0  0  0  0  0  0
   41.2607   29.1062   52.1798 C   0  0  0  0  0  0  0  0  0  0  0  0
   42.3431   29.5063   52.9460 O   0  0  0  0  0  0  0  0  0  0  0  0
   39.6548   29.9330   54.5904 H   0  0  0  0  0  0  0  0  0  0  0  0
   40.2132   27.3789   49.5854 H   0  0  0  0  0  0  0  0  0  0  0  0
   42.2508   27.9348   50.7672 H   0  0  0  0  0  0  0  0  0  0  0  0
   42.6166   29.0690   53.8168 H   0  0  0  0  0  0  0  0  0  0  0  0
  1  2  2  0
  1 16  1  0
  3  2  1  0
  4  3  2  0
  5  4  1  0
  5  6  2  0
  6  1  1  0
  7  8  2  0
  8  5  1  0
  9  8  1  0
 10  9  2  0
 11 10  1  0
 12 11  1  0
 13 12  2  0
 13 14  1  0
 14 15  2  0
 14 10  1  0
 15  7  1  0
 16 18  1  0
 17 16  1  0
 17 18  1  0
 18 23  1  0
 19 17  1  0
 20 22  1  0
 20 19  1  0
 21 20  2  0
 23 24  1  0
  2 25  1  0
  3 26  1  0
  7 27  1  0
  9 28  1  0
 11 29  1  0
 12 30  1  0
 15 31  1  0
 16 32  1  1
 17 33  1  1
 18 34  1  6
 22 35  1  0
 22 36  1  0
 23 37  1  0
 23 38  1  0
 24 39  1  0
 24 40  1  0
 41 42  1  0
 42 43  2  0
 43 44  1  0
 44 45  1  0
 44 46  2  0
 46 47  1  0
 47 48  2  0
 48 49  1  0
 48 42  1  0
 41 50  1  0
 46 51  1  0
 47 52  1  0
 49 53  1  0
 24 43  1  0
M  ISO  8  25  14  26  14  27  14  28  14  29   9  30  14  31  14  32  13
M  ISO  7  33  13  34  13  37   8  38   8  39   8  40   8  45  16
M  END
>  <DihAtoms>  (1) 
22,23,42,41

>  <DihDeg>  (1) 
82.81642014656741

$$$$
