
     RDKit          3D

 36 38  0  0  0  0  0  0  0  0999 V2000
   37.4718   31.4355   49.3860 C   0  0  0  0  0  0  0  0  0  0  0  0
   37.8726   32.7224   49.6995 C   0  0  0  0  0  0  0  0  0  0  0  0
   38.6754   33.3280   48.7568 C   0  0  0  0  0  0  0  0  0  0  0  0
   39.0255   32.6760   47.6150 N   0  0  0  0  0  0  0  0  0  0  0  0
   38.6154   31.4208   47.3425 C   0  0  0  0  0  0  0  0  0  0  0  0
   37.8176   30.7878   48.2565 N   0  0  0  0  0  0  0  0  0  0  0  0
   36.5629   30.7305   50.3620 C   0  0  0  0  0  0  0  0  0  0  0  0
   36.4833   29.3117   50.4648 C   0  0  0  0  0  0  0  0  0  0  0  0
   37.3486   30.0318   51.4907 C   0  0  0  0  0  0  0  0  0  0  0  0
   38.9682   30.7090   46.1169 C   0  0  0  0  0  0  0  0  0  0  0  0
   41.0749   31.5403   45.0233 C   0  0  0  0  0  0  0  0  0  0  0  0
   40.4493   32.2809   44.1851 O   0  0  0  0  0  0  0  0  0  0  0  0
   40.4135   30.7642   45.9998 N   0  0  0  0  0  0  0  0  0  0  0  0
   37.5393   33.1529   50.6339 H   0  0  0  0  0  0  0  0  0  0  0  0
   39.0083   34.3377   48.9710 H   0  0  0  0  0  0  0  0  0  0  0  0
   35.8063   31.4183   50.8374 H   0  0  0  0  0  0  0  0  0  0  0  0
   36.9897   28.6841   49.6820 H   0  0  0  0  0  0  0  0  0  0  0  0
   35.5329   28.8352   50.7875 H   0  0  0  0  0  0  0  0  0  0  0  0
   36.9285   29.9812   52.4923 H   0  0  0  0  0  0  0  0  0  0  0  0
   38.4353   29.8946   51.3571 H   0  0  0  0  0  0  0  0  0  0  0  0
   38.4649   31.1231   45.2237 H   0  0  0  0  0  0  0  0  0  0  0  0
   38.7016   29.6560   46.1735 H   0  0  0  0  0  0  0  0  0  0  0  0
   40.9276   30.1949   46.6820 H   0  0  0  0  0  0  0  0  0  0  0  0
   42.4732   30.1947   42.9393 O   0  0  0  0  0  0  0  0  0  0  0  0
   43.2217   30.9103   43.8863 C   0  0  0  0  0  0  0  0  0  0  0  0
   42.5331   31.5590   44.8925 C   0  0  0  0  0  0  0  0  0  0  0  0
   43.3484   32.2358   45.7766 C   0  0  0  0  0  0  0  0  0  0  0  0
   42.9282   32.7827   46.6076 H   0  0  0  0  0  0  0  0  0  0  0  0
   44.7254   32.2895   45.7050 C   0  0  0  0  0  0  0  0  0  0  0  0
   45.3485   31.6188   44.6745 C   0  0  0  0  0  0  0  0  0  0  0  0
   44.5920   30.9230   43.7565 C   0  0  0  0  0  0  0  0  0  0  0  0
   45.1699   30.2307   42.6997 O   0  0  0  0  0  0  0  0  0  0  0  0
   42.0179   29.3517   43.2098 H   0  0  0  0  0  0  0  0  0  0  0  0
   45.3314   32.8289   46.4144 H   0  0  0  0  0  0  0  0  0  0  0  0
   46.4202   31.5859   44.5113 H   0  0  0  0  0  0  0  0  0  0  0  0
   45.0411   29.2086   42.6826 H   0  0  0  0  0  0  0  0  0  0  0  0
  1  2  2  0
  1  7  1  0
  3  2  1  0
  4  3  2  0
  5  4  1  0
  5  6  2  0
  6  1  1  0
  7  8  1  0
  7  9  1  0
  8  9  1  0
 10  5  1  0
 11 13  1  0
 12 11  2  0
 13 10  1  0
  2 14  1  0
  3 15  1  0
  7 16  1  0
  8 17  1  0
  8 18  1  0
  9 19  1  0
  9 20  1  0
 10 21  1  0
 10 22  1  0
 13 23  1  0
 24 25  1  0
 25 26  2  0
 26 27  1  0
 27 28  1  0
 27 29  2  0
 29 30  1  0
 30 31  2  0
 31 32  1  0
 31 25  1  0
 24 33  1  0
 29 34  1  0
 30 35  1  0
 32 36  1  0
 11 26  1  0
M  ISO  8  14  14  15  14  16  13  17  13  18  13  19  13  20  13  21   8
M  ISO  2  22   8  28  16
M  END
>  <DihAtoms>  (1) 
12,10,25,24

>  <DihDeg>  (1) 
-179.99754755031984

$$$$
