
     RDKit          3D

 37 39  0  0  0  0  0  0  0  0999 V2000
   38.2210   31.2590   47.8320 C   0  0  0  0  0  0  0  0  0  0  0  0
   37.3490   31.5480   48.8680 C   0  0  0  0  0  0  0  0  0  0  0  0
   37.5750   32.7890   49.4730 C   0  0  0  0  0  0  0  0  0  0  0  0
   38.5960   33.6460   49.0500 C   0  0  0  0  0  0  0  0  0  0  0  0
   39.4250   33.2580   47.9890 C   0  0  0  0  0  0  0  0  0  0  0  0
   39.2140   32.0440   47.3890 C   0  0  0  0  0  0  0  0  0  0  0  0
   35.1670   30.4810   48.5020 C   0  0  0  0  0  0  0  0  0  0  0  0
   36.3030   30.6760   49.3060 C   0  0  0  0  0  0  0  0  0  0  0  0
   36.3560   29.9950   50.5190 C   0  0  0  0  0  0  0  0  0  0  0  0
   35.3140   29.1860   50.8560 N   0  0  0  0  0  0  0  0  0  0  0  0
   34.2360   29.0270   50.0450 C   0  0  0  0  0  0  0  0  0  0  0  0
   34.1670   29.6710   48.8790 N   0  0  0  0  0  0  0  0  0  0  0  0
   37.5280   30.1610   51.4120 C   0  0  0  0  0  0  0  0  0  0  0  0
   38.0680   30.0250   47.1620 O   0  0  0  0  0  0  0  0  0  0  0  0
   40.0610   31.6930   46.3340 O   0  0  0  0  0  0  0  0  0  0  0  0
   38.3440   32.4260   44.6570 C   0  0  0  0  0  0  0  0  0  0  0  0
   39.5510   31.8870   45.0470 C   0  0  0  0  0  0  0  0  0  0  0  0
   40.4580   31.4450   44.0950 C   0  0  0  0  0  0  0  0  0  0  0  0
   40.1790   31.5310   42.7390 C   0  0  0  0  0  0  0  0  0  0  0  0
   38.9660   32.0730   42.3560 C   0  0  0  0  0  0  0  0  0  0  0  0
   38.0800   32.5070   43.3040 C   0  0  0  0  0  0  0  0  0  0  0  0
   37.5470   32.8220   45.7080 O   0  0  0  0  0  0  0  0  0  0  0  0
   36.8470   33.0590   42.9810 O   0  0  0  0  0  0  0  0  0  0  0  0
   36.9295   33.1004   50.3075 H   0  0  0  0  0  0  0  0  0  0  0  0
   38.7470   34.6162   49.5459 H   0  0  0  0  0  0  0  0  0  0  0  0
   40.2336   33.9184   47.6426 H   0  0  0  0  0  0  0  0  0  0  0  0
   35.0963   31.0065   47.5383 H   0  0  0  0  0  0  0  0  0  0  0  0
   33.4146   28.3628   50.3518 H   0  0  0  0  0  0  0  0  0  0  0  0
   37.1994   30.1145   52.4607 H   0  0  0  0  0  0  0  0  0  0  0  0
   38.2530   29.3566   51.2189 H   0  0  0  0  0  0  0  0  0  0  0  0
   38.0011   31.1351   51.2189 H   0  0  0  0  0  0  0  0  0  0  0  0
   38.6751   29.7877   46.4168 H   0  0  0  0  0  0  0  0  0  0  0  0
   41.4175   31.0178   44.4219 H   0  0  0  0  0  0  0  0  0  0  0  0
   40.9025   31.1779   41.9894 H   0  0  0  0  0  0  0  0  0  0  0  0
   38.7132   32.1553   41.2886 H   0  0  0  0  0  0  0  0  0  0  0  0
   36.6587   33.2221   45.5322 H   0  0  0  0  0  0  0  0  0  0  0  0
   36.2361   33.3603   43.6994 H   0  0  0  0  0  0  0  0  0  0  0  0
  1  2  2  0
  2  8  1  0
  2  3  1  0
  4  3  2  0
  5  4  1  0
  6  1  1  0
  6  5  2  0
  7 12  2  0
  7  8  1  0
  8  9  2  0
  9 10  1  0
  9 13  1  0
 11 10  2  0
 12 11  1  0
 14  1  1  0
 15  6  1  0
 16 17  2  0
 16 22  1  0
 17 15  1  0
 18 17  1  0
 19 18  2  0
 20 19  1  0
 20 21  2  0
 21 16  1  0
 23 21  1  0
  3 24  1  0
  4 25  1  0
  5 26  1  0
  7 27  1  0
 11 28  1  0
 13 29  1  0
 13 30  1  0
 13 31  1  0
 14 32  1  0
 18 33  1  0
 19 34  1  0
 20 35  1  0
 22 36  1  0
 23 37  1  0
M  ISO  8  24  14  25  14  26  14  27  14  28  14  29   8  30   8  31   8
M  ISO  6  32   3  33  14  34  14  35  14  36   3  37   3
M  END
>  <minimizedAffinity>  (1) 
-7.06245804

>  <minimizedRMSD>  (1) 
0.879416406

$$$$
