
     RDKit          3D

 48 51  0  0  1  0  0  0  0  0999 V2000
   35.3870   30.4980   49.9190 C   0  0  2  0  0  0  0  0  0  0  0  0
   36.2930   31.3280   49.0930 C   0  0  0  0  0  0  0  0  0  0  0  0
   37.7500   30.8560   49.1490 C   0  0  2  0  0  0  0  0  0  0  0  0
   38.2990   30.7720   50.5030 C   0  0  0  0  0  0  0  0  0  0  0  0
   37.3090   30.2300   51.5270 C   0  0  0  0  0  0  0  0  0  0  0  0
   36.1250   29.5830   50.8720 C   0  0  0  0  0  0  0  0  0  0  0  0
   38.0230   30.2430   46.2770 Cl  0  0  0  0  0  0  0  0  0  0  0  0
   38.7090   31.6880   47.0020 C   0  0  0  0  0  0  0  0  0  0  0  0
   38.4910   31.8830   48.3610 C   0  0  0  0  0  0  0  0  0  0  0  0
   39.0490   33.0460   48.8260 C   0  0  0  0  0  0  0  0  0  0  0  0
   39.7500   33.9210   48.0220 C   0  0  0  0  0  0  0  0  0  0  0  0
   39.9250   33.6540   46.6700 C   0  0  0  0  0  0  0  0  0  0  0  0
   39.3790   32.4900   46.1480 C   0  0  0  0  0  0  0  0  0  0  0  0
   40.4270   31.3080   44.1240 C   0  0  0  0  0  0  0  0  0  0  0  0
   39.5560   32.1990   44.7270 C   0  0  0  0  0  0  0  0  0  0  0  0
   38.7060   32.9530   43.9150 C   0  0  0  0  0  0  0  0  0  0  0  0
   38.6880   32.8560   42.5530 C   0  0  0  0  0  0  0  0  0  0  0  0
   39.5800   31.9470   41.9810 C   0  0  0  0  0  0  0  0  0  0  0  0
   40.4370   31.1840   42.7580 C   0  0  0  0  0  0  0  0  0  0  0  0
   41.2150   30.6230   45.0410 O   0  0  0  0  0  0  0  0  0  0  0  0
   41.3390   30.2690   42.2400 O   0  0  0  0  0  0  0  0  0  0  0  0
   34.4830   29.6570   49.1180 C   0  0  0  0  0  0  0  0  0  0  0  0
   34.5050   29.9010   47.7450 C   0  0  0  0  0  0  0  0  0  0  0  0
   33.6750   29.1170   46.9320 C   0  0  0  0  0  0  0  0  0  0  0  0
   32.8780   28.1460   47.5260 N   0  0  0  0  0  0  0  0  0  0  0  0
   32.8910   27.9470   48.8560 C   0  0  0  0  0  0  0  0  0  0  0  0
   33.6890   28.7040   49.6140 N   0  0  0  0  0  0  0  0  0  0  0  0
   34.8036   31.2378   50.4868 H   0  0  0  0  0  0  0  0  0  0  0  0
   36.2460   32.3657   49.4548 H   0  0  0  0  0  0  0  0  0  0  0  0
   35.9582   31.2434   48.0486 H   0  0  0  0  0  0  0  0  0  0  0  0
   37.8359   29.8321   48.7561 H   0  0  0  0  0  0  0  0  0  0  0  0
   39.1767   30.1093   50.4825 H   0  0  0  0  0  0  0  0  0  0  0  0
   38.5568   31.7957   50.8121 H   0  0  0  0  0  0  0  0  0  0  0  0
   37.8192   29.4849   52.1551 H   0  0  0  0  0  0  0  0  0  0  0  0
   36.9455   31.0750   52.1302 H   0  0  0  0  0  0  0  0  0  0  0  0
   35.4254   29.2611   51.6575 H   0  0  0  0  0  0  0  0  0  0  0  0
   36.5051   28.7377   50.2795 H   0  0  0  0  0  0  0  0  0  0  0  0
   38.9321   33.2933   49.8915 H   0  0  0  0  0  0  0  0  0  0  0  0
   40.1743   34.8386   48.4556 H   0  0  0  0  0  0  0  0  0  0  0  0
   40.4841   34.3500   46.0274 H   0  0  0  0  0  0  0  0  0  0  0  0
   38.0159   33.6611   44.3971 H   0  0  0  0  0  0  0  0  0  0  0  0
   38.0063   33.4624   41.9386 H   0  0  0  0  0  0  0  0  0  0  0  0
   39.6031   31.8337   40.8871 H   0  0  0  0  0  0  0  0  0  0  0  0
   41.8768   29.9578   44.7255 H   0  0  0  0  0  0  0  0  0  0  0  0
   41.9255   29.7533   42.8484 H   0  0  0  0  0  0  0  0  0  0  0  0
   35.1508   30.6810   47.3154 H   0  0  0  0  0  0  0  0  0  0  0  0
   33.6549   29.2678   45.8426 H   0  0  0  0  0  0  0  0  0  0  0  0
   32.2552   27.1738   49.3120 H   0  0  0  0  0  0  0  0  0  0  0  0
  1  6  1  0
  2  3  1  0
  2  1  1  0
  3  4  1  0
  4  5  1  0
  6  5  1  0
  7  8  1  0
  8  9  2  0
  9 10  1  0
  9  3  1  0
 11 10  2  0
 12 11  1  0
 13 12  2  0
 13  8  1  0
 14 15  2  0
 14 20  1  0
 15 13  1  0
 16 15  1  0
 17 16  2  0
 18 17  1  0
 18 19  2  0
 19 14  1  0
 21 19  1  0
 22 27  1  0
 22  1  1  0
 23 22  2  0
 24 25  2  0
 24 23  1  0
 25 26  1  0
 26 27  2  0
  1 28  1  1
  2 29  1  0
  2 30  1  0
  3 31  1  6
  4 32  1  0
  4 33  1  0
  5 34  1  0
  5 35  1  0
  6 36  1  0
  6 37  1  0
 10 38  1  0
 11 39  1  0
 12 40  1  0
 16 41  1  0
 17 42  1  0
 18 43  1  0
 20 44  1  0
 21 45  1  0
 23 46  1  0
 24 47  1  0
 26 48  1  0
M  ISO  8  28  13  29  13  30  13  31  13  32  13  33  13  34  13  35  13
M  ISO  8  36  13  37  13  38  14  39  14  40  14  41  14  42  14  43  14
M  ISO  5  44   3  45   3  46  14  47  14  48  14
M  END
>  <minimizedAffinity>  (1) 
-8.24870586

>  <minimizedRMSD>  (1) 
1.04422021

$$$$
