
     RDKit          3D

 49 52  0  0  0  0  0  0  0  0999 V2000
   39.5994   33.3813   47.1047 C   0  0  0  0  0  0  0  0  0  0  0  0
   39.5420   32.5227   46.0117 C   0  0  0  0  0  0  0  0  0  0  0  0
   39.0188   31.2675   46.2264 C   0  0  0  0  0  0  0  0  0  0  0  0
   38.5949   30.9470   47.4821 N   0  0  0  0  0  0  0  0  0  0  0  0
   38.6656   31.7799   48.4811 C   0  0  0  0  0  0  0  0  0  0  0  0
   39.1784   33.0519   48.3334 N   0  0  0  0  0  0  0  0  0  0  0  0
   39.9980   32.9666   44.8191 O   0  0  0  0  0  0  0  0  0  0  0  0
   40.0995   32.0826   43.7502 C   0  0  0  0  0  0  0  0  0  0  0  0
   40.7160   30.8491   43.7248 C   0  0  0  0  0  0  0  0  0  0  0  0
   40.7113   30.1285   42.5875 C   0  0  0  0  0  0  0  0  0  0  0  0
   40.0909   30.6438   41.4791 C   0  0  0  0  0  0  0  0  0  0  0  0
   39.4711   31.8907   41.5130 C   0  0  0  0  0  0  0  0  0  0  0  0
   39.4905   32.5939   42.6704 N   0  0  0  0  0  0  0  0  0  0  0  0
   38.7981   32.4352   40.2709 C   0  0  0  0  0  0  0  0  0  0  0  0
   38.0348   31.0881   50.0214 S   0  0  0  0  0  0  0  0  0  0  0  0
   36.2561   31.4988   50.0145 C   0  0  0  0  0  0  0  0  0  0  0  0
   35.5768   29.2649   51.4849 F   0  0  0  0  0  0  0  0  0  0  0  0
   35.2635   29.3007   50.1497 C   0  0  0  0  0  0  0  0  0  0  0  0
   35.5604   30.3779   49.3166 C   0  0  0  0  0  0  0  0  0  0  0  0
   35.2214   30.3535   47.9909 C   0  0  0  0  0  0  0  0  0  0  0  0
   34.5650   29.2408   47.4370 C   0  0  0  0  0  0  0  0  0  0  0  0
   34.2688   28.1667   48.2672 C   0  0  0  0  0  0  0  0  0  0  0  0
   34.6188   28.2109   49.5995 C   0  0  0  0  0  0  0  0  0  0  0  0
   39.9881   34.3988   47.0755 H   0  0  0  0  0  0  0  0  0  0  0  0
   38.9418   30.5525   45.4100 H   0  0  0  0  0  0  0  0  0  0  0  0
   41.1805   30.5407   44.6514 H   0  0  0  0  0  0  0  0  0  0  0  0
   41.2014   29.1690   42.6021 H   0  0  0  0  0  0  0  0  0  0  0  0
   40.0995   30.0457   40.5733 H   0  0  0  0  0  0  0  0  0  0  0  0
   39.6199   32.4185   39.5009 H   0  0  0  0  0  0  0  0  0  0  0  0
   37.9481   31.8031   39.9801 H   0  0  0  0  0  0  0  0  0  0  0  0
   38.5748   33.4935   40.4465 H   0  0  0  0  0  0  0  0  0  0  0  0
   35.9181   31.5917   51.0688 H   0  0  0  0  0  0  0  0  0  0  0  0
   36.0669   32.4620   49.5109 H   0  0  0  0  0  0  0  0  0  0  0  0
   35.5147   31.2588   47.4682 H   0  0  0  0  0  0  0  0  0  0  0  0
   34.3592   29.3588   46.3812 H   0  0  0  0  0  0  0  0  0  0  0  0
   33.7695   27.3519   47.7858 H   0  0  0  0  0  0  0  0  0  0  0  0
   32.3535   26.6990   48.8940 O   0  0  0  0  0  0  0  0  0  0  0  0
   33.1406   26.3657   49.9615 C   0  0  0  0  0  0  0  0  0  0  0  0
   34.2652   27.0350   50.3897 C   0  0  0  0  0  0  0  0  0  0  0  0
   35.0246   26.6534   51.4773 C   0  0  0  0  0  0  0  0  0  0  0  0
   35.8931   27.2132   51.7667 H   0  0  0  0  0  0  0  0  0  0  0  0
   34.6424   25.5333   52.1867 C   0  0  0  0  0  0  0  0  0  0  0  0
   33.5188   24.8185   51.8031 C   0  0  0  0  0  0  0  0  0  0  0  0
   32.7800   25.2385   50.6984 C   0  0  0  0  0  0  0  0  0  0  0  0
   31.6835   24.4252   50.4348 O   0  0  0  0  0  0  0  0  0  0  0  0
   31.6511   27.4397   49.0088 H   0  0  0  0  0  0  0  0  0  0  0  0
   35.2610   25.2521   53.0442 H   0  0  0  0  0  0  0  0  0  0  0  0
   33.2988   23.9686   52.4080 H   0  0  0  0  0  0  0  0  0  0  0  0
   30.7865   24.6089   50.8914 H   0  0  0  0  0  0  0  0  0  0  0  0
  1  6  2  0
  2  3  2  0
  2  1  1  0
  3  4  1  0
  4  5  2  0
  5 15  1  0
  6  5  1  0
  7  2  1  0
  8  7  1  0
  9  8  2  0
 10  9  1  0
 11 12  1  0
 11 10  2  0
 12 13  2  0
 13  8  1  0
 14 12  1  0
 16 15  1  0
 18 17  1  0
 19 16  1  0
 19 18  2  0
 20 19  1  0
 21 20  2  0
 21 22  1  0
 22 23  2  0
 23 18  1  0
  1 24  1  0
  3 25  1  0
  9 26  1  0
 10 27  1  0
 11 28  1  0
 14 29  1  0
 14 30  1  0
 14 31  1  0
 16 32  1  0
 16 33  1  0
 20 34  1  0
 21 35  1  0
 22 36  1  0
 37 38  1  0
 38 39  2  0
 39 40  1  0
 40 41  1  0
 40 42  2  0
 42 43  1  0
 43 44  2  0
 44 45  1  0
 44 38  1  0
 37 46  1  0
 42 47  1  0
 43 48  1  0
 45 49  1  0
 23 39  1  0
M  ISO  8  24  14  25  14  26  14  27  14  28  14  29   8  30   8  31   8
M  ISO  6  32   8  33   8  34  14  35  14  36  14  41  16
M  END
>  <DihAtoms>  (1) 
21,22,38,37

>  <DihDeg>  (1) 
89.9999118395624

$$$$
