
     RDKit          3D

 46 49  0  0  0  0  0  0  0  0999 V2000
   32.1648   28.5300   47.4222 C   0  0  2  0  0  0  0  0  0  0  0  0
   33.4065   28.3719   48.2510 C   0  0  1  0  0  0  0  0  0  0  0  0
   33.8092   27.0743   48.1645 O   0  0  0  0  0  0  0  0  0  0  0  0
   33.1043   26.4363   47.1490 C   0  0  0  0  0  0  0  0  0  0  0  0
   32.5045   27.5191   46.2864 C   0  0  1  0  0  0  0  0  0  0  0  0
   32.0974   29.8281   46.8765 O   0  0  0  0  0  0  0  0  0  0  0  0
   34.7160   29.4151   47.4932 S   0  0  0  0  0  0  0  0  0  0  0  0
   37.1416   29.2845   50.6241 C   0  0  0  0  0  0  0  0  0  0  0  0
   37.6341   30.5816   50.7566 C   0  0  0  0  0  0  0  0  0  0  0  0
   37.2018   31.5379   49.8439 C   0  0  0  0  0  0  0  0  0  0  0  0
   36.3207   31.1638   48.8668 N   0  0  0  0  0  0  0  0  0  0  0  0
   35.8705   29.8916   48.7785 C   0  0  0  0  0  0  0  0  0  0  0  0
   36.2718   28.9378   49.6510 N   0  0  0  0  0  0  0  0  0  0  0  0
   31.3666   27.0388   45.6874 O   0  0  0  0  0  0  0  0  0  0  0  0
   29.8845   29.1080   44.2070 Cl  0  0  0  0  0  0  0  0  0  0  0  0
   29.3384   28.1204   45.5420 C   0  0  0  0  0  0  0  0  0  0  0  0
   30.1252   27.1705   46.1507 C   0  0  0  0  0  0  0  0  0  0  0  0
   29.5661   26.4272   47.1911 C   0  0  0  0  0  0  0  0  0  0  0  0
   28.2687   26.6407   47.5938 C   0  0  0  0  0  0  0  0  0  0  0  0
   27.4692   27.5932   46.9893 C   0  0  0  0  0  0  0  0  0  0  0  0
   28.0100   28.3374   45.9559 C   0  0  0  0  0  0  0  0  0  0  0  0
   31.2409   28.2026   47.8857 H   0  0  0  0  0  0  0  0  0  0  0  0
   33.2617   28.7320   49.2979 H   0  0  0  0  0  0  0  0  0  0  0  0
   32.3812   25.7919   47.6591 H   0  0  0  0  0  0  0  0  0  0  0  0
   33.7685   25.7612   46.5563 H   0  0  0  0  0  0  0  0  0  0  0  0
   33.2550   27.9779   45.6480 H   0  0  0  0  0  0  0  0  0  0  0  0
   32.2368   30.4393   47.6411 H   0  0  0  0  0  0  0  0  0  0  0  0
   37.4666   28.5285   51.3245 H   0  0  0  0  0  0  0  0  0  0  0  0
   38.3302   30.8311   51.5462 H   0  0  0  0  0  0  0  0  0  0  0  0
   37.5610   32.5505   49.9152 H   0  0  0  0  0  0  0  0  0  0  0  0
   30.0846   25.6565   47.7316 H   0  0  0  0  0  0  0  0  0  0  0  0
   27.7660   26.1092   48.3877 H   0  0  0  0  0  0  0  0  0  0  0  0
   26.4379   27.7826   47.2891 H   0  0  0  0  0  0  0  0  0  0  0  0
   25.4391   27.5838   45.3194 O   0  0  0  0  0  0  0  0  0  0  0  0
   25.9106   28.8548   45.0293 C   0  0  0  0  0  0  0  0  0  0  0  0
   27.1846   29.3509   45.3006 C   0  0  0  0  0  0  0  0  0  0  0  0
   27.5072   30.6418   44.9507 C   0  0  0  0  0  0  0  0  0  0  0  0
   28.5189   30.9128   45.2104 H   0  0  0  0  0  0  0  0  0  0  0  0
   26.5552   31.4286   44.3321 C   0  0  0  0  0  0  0  0  0  0  0  0
   25.2915   30.9632   44.0534 C   0  0  0  0  0  0  0  0  0  0  0  0
   24.9597   29.6534   44.4068 C   0  0  0  0  0  0  0  0  0  0  0  0
   23.6702   29.2424   44.0995 O   0  0  0  0  0  0  0  0  0  0  0  0
   25.7045   26.7384   44.8669 H   0  0  0  0  0  0  0  0  0  0  0  0
   26.8679   32.4334   44.0816 H   0  0  0  0  0  0  0  0  0  0  0  0
   24.5621   31.6036   43.5659 H   0  0  0  0  0  0  0  0  0  0  0  0
   23.5403   28.2304   43.9559 H   0  0  0  0  0  0  0  0  0  0  0  0
  1  2  1  0
  3  2  1  0
  4  3  1  0
  5  4  1  0
  5  1  1  0
  6  1  1  0
  7  2  1  0
  7 12  1  0
  8  9  2  0
 10  9  1  0
 11 10  2  0
 12 11  1  0
 12 13  2  0
 13  8  1  0
 14 17  1  0
 14  5  1  0
 15 16  1  0
 16 21  2  0
 16 17  1  0
 17 18  2  0
 18 19  1  0
 20 19  2  0
 21 20  1  0
  1 22  1  1
  2 23  1  1
  4 24  1  0
  4 25  1  0
  5 26  1  6
  6 27  1  0
  8 28  1  0
  9 29  1  0
 10 30  1  0
 18 31  1  0
 19 32  1  0
 20 33  1  0
 34 35  1  0
 35 36  2  0
 36 37  1  0
 37 38  1  0
 37 39  2  0
 39 40  1  0
 40 41  2  0
 41 42  1  0
 41 35  1  0
 34 43  1  0
 39 44  1  0
 40 45  1  0
 42 46  1  0
 21 36  1  0
M  ISO  8  22  13  23  13  24  13  25  13  26  13  27   3  28  14  29  14
M  ISO  5  30  14  31  14  32  14  33  14  38  16
M  END
>  <DihAtoms>  (1) 
15,20,35,34

>  <DihDeg>  (1) 
89.99814708271096

$$$$
