
     RDKit          3D

 32 34  0  0  0  0  0  0  0  0999 V2000
   38.0474   33.2916   49.5546 Cl  0  0  0  0  0  0  0  0  0  0  0  0
   38.4787   32.3961   48.1340 C   0  0  0  0  0  0  0  0  0  0  0  0
   38.0320   31.1103   47.9658 C   0  0  0  0  0  0  0  0  0  0  0  0
   38.4110   30.4450   46.8078 C   0  0  0  0  0  0  0  0  0  0  0  0
   39.2032   31.0247   45.8464 C   0  0  0  0  0  0  0  0  0  0  0  0
   39.6309   32.3396   46.0694 C   0  0  0  0  0  0  0  0  0  0  0  0
   40.6401   33.0503   44.8242 Cl  0  0  0  0  0  0  0  0  0  0  0  0
   39.2782   33.0291   47.1993 C   0  0  0  0  0  0  0  0  0  0  0  0
   36.9286   29.3889   51.1484 C   0  0  0  0  0  0  0  0  0  0  0  0
   37.7340   29.9365   50.1506 C   0  0  0  0  0  0  0  0  0  0  0  0
   37.1890   30.5329   49.0180 C   0  0  0  0  0  0  0  0  0  0  0  0
   35.8329   30.5505   48.9411 N   0  0  0  0  0  0  0  0  0  0  0  0
   35.0670   30.0202   49.9078 C   0  0  0  0  0  0  0  0  0  0  0  0
   35.5969   29.4524   50.9865 N   0  0  0  0  0  0  0  0  0  0  0  0
   38.0300   29.4304   46.7250 H   0  0  0  0  0  0  0  0  0  0  0  0
   39.4550   30.4402   44.9714 H   0  0  0  0  0  0  0  0  0  0  0  0
   39.6348   34.0366   47.3197 H   0  0  0  0  0  0  0  0  0  0  0  0
   37.4691   28.9622   51.9635 H   0  0  0  0  0  0  0  0  0  0  0  0
   38.8097   29.9254   50.2060 H   0  0  0  0  0  0  0  0  0  0  0  0
   33.3589   28.9514   51.8511 O   0  0  0  0  0  0  0  0  0  0  0  0
   32.7889   29.5374   50.7370 C   0  0  0  0  0  0  0  0  0  0  0  0
   33.6155   30.0700   49.7679 C   0  0  0  0  0  0  0  0  0  0  0  0
   32.9986   30.6439   48.6749 C   0  0  0  0  0  0  0  0  0  0  0  0
   33.6643   31.0632   47.9123 H   0  0  0  0  0  0  0  0  0  0  0  0
   31.6525   30.7291   48.4720 C   0  0  0  0  0  0  0  0  0  0  0  0
   30.8857   30.1735   49.4862 C   0  0  0  0  0  0  0  0  0  0  0  0
   31.4073   29.5754   50.6213 C   0  0  0  0  0  0  0  0  0  0  0  0
   30.6301   29.0326   51.6112 O   0  0  0  0  0  0  0  0  0  0  0  0
   33.7035   28.0005   51.8372 H   0  0  0  0  0  0  0  0  0  0  0  0
   31.1785   31.1749   47.6232 H   0  0  0  0  0  0  0  0  0  0  0  0
   29.8022   30.1691   49.4595 H   0  0  0  0  0  0  0  0  0  0  0  0
   30.2826   29.4836   52.4256 H   0  0  0  0  0  0  0  0  0  0  0  0
  2  1  1  0
  3  2  2  0
  3 11  1  0
  4  3  1  0
  5  6  1  0
  5  4  2  0
  6  8  2  0
  7  6  1  0
  8  2  1  0
 10  9  2  0
 11 10  1  0
 12 11  2  0
 12 13  1  0
 13 14  2  0
 14  9  1  0
  4 15  1  0
  5 16  1  0
  8 17  1  0
  9 18  1  0
 10 19  1  0
 20 21  1  0
 21 22  2  0
 22 23  1  0
 23 24  1  0
 23 25  2  0
 25 26  1  0
 26 27  2  0
 27 28  1  0
 27 21  1  0
 20 29  1  0
 25 30  1  0
 26 31  1  0
 28 32  1  0
 13 22  1  0
M  ISO  6  15  14  16  14  17  14  18  14  19  14  24  16
M  END
>  <DihAtoms>  (1) 
11,12,21,20

>  <DihDeg>  (1) 
-179.99616654676362

$$$$
