
     RDKit          3D

 32 34  0  0  0  0  0  0  0  0999 V2000
   37.9840   33.1760   49.4388 C   0  0  0  0  0  0  0  0  0  0  0  0
   39.0128   33.1547   48.4750 C   0  0  0  0  0  0  0  0  0  0  0  0
   39.0181   32.1128   47.5326 C   0  0  0  0  0  0  0  0  0  0  0  0
   38.0242   31.1744   47.6010 N   0  0  0  0  0  0  0  0  0  0  0  0
   37.0505   31.2263   48.5420 C   0  0  0  0  0  0  0  0  0  0  0  0
   37.0327   32.2194   49.4518 N   0  0  0  0  0  0  0  0  0  0  0  0
   37.2805   29.3593   51.0539 Br  0  0  0  0  0  0  0  0  0  0  0  0
   35.9617   29.3171   49.6693 C   0  0  0  0  0  0  0  0  0  0  0  0
   35.9980   30.2231   48.6084 C   0  0  0  0  0  0  0  0  0  0  0  0
   35.0132   30.1273   47.6476 C   0  0  0  0  0  0  0  0  0  0  0  0
   34.0018   29.1800   47.6918 C   0  0  0  0  0  0  0  0  0  0  0  0
   33.9944   28.3022   48.7501 C   0  0  0  0  0  0  0  0  0  0  0  0
   34.9661   28.3783   49.7207 C   0  0  0  0  0  0  0  0  0  0  0  0
   38.0226   34.0001   50.1447 H   0  0  0  0  0  0  0  0  0  0  0  0
   39.8062   33.8607   48.3818 H   0  0  0  0  0  0  0  0  0  0  0  0
   39.7452   31.9856   46.7502 H   0  0  0  0  0  0  0  0  0  0  0  0
   35.0343   30.8294   46.8175 H   0  0  0  0  0  0  0  0  0  0  0  0
   33.2097   27.5583   48.7954 H   0  0  0  0  0  0  0  0  0  0  0  0
   34.9393   27.6694   50.5526 H   0  0  0  0  0  0  0  0  0  0  0  0
   34.0931   30.9988   45.5822 O   0  0  0  0  0  0  0  0  0  0  0  0
   33.0566   30.0661   45.5812 C   0  0  0  0  0  0  0  0  0  0  0  0
   33.0045   29.1637   46.6205 C   0  0  0  0  0  0  0  0  0  0  0  0
   31.9942   28.2366   46.6413 C   0  0  0  0  0  0  0  0  0  0  0  0
   31.8909   27.5100   47.4110 H   0  0  0  0  0  0  0  0  0  0  0  0
   31.0712   28.2663   45.5954 C   0  0  0  0  0  0  0  0  0  0  0  0
   31.1190   29.1719   44.5476 C   0  0  0  0  0  0  0  0  0  0  0  0
   32.1425   30.0931   44.5483 C   0  0  0  0  0  0  0  0  0  0  0  0
   32.2666   31.0455   43.5271 O   0  0  0  0  0  0  0  0  0  0  0  0
   33.9565   31.9721   45.3473 H   0  0  0  0  0  0  0  0  0  0  0  0
   30.2510   27.5515   45.5665 H   0  0  0  0  0  0  0  0  0  0  0  0
   30.3770   29.1513   43.7609 H   0  0  0  0  0  0  0  0  0  0  0  0
   31.8061   31.9606   43.6313 H   0  0  0  0  0  0  0  0  0  0  0  0
  1  6  2  0
  2  1  1  0
  3  4  1  0
  3  2  2  0
  4  5  2  0
  5  9  1  0
  5  6  1  0
  8 13  2  0
  8  7  1  0
  9  8  1  0
 10 11  1  0
 10  9  2  0
 11 12  2  0
 12 13  1  0
  1 14  1  0
  2 15  1  0
  3 16  1  0
 10 17  1  0
 12 18  1  0
 13 19  1  0
 20 21  1  0
 21 22  2  0
 22 23  1  0
 23 24  1  0
 23 25  2  0
 25 26  1  0
 26 27  2  0
 27 28  1  0
 27 21  1  0
 20 29  1  0
 25 30  1  0
 26 31  1  0
 28 32  1  0
 11 22  1  0
M  ISO  7  14  14  15  14  16  14  17  14  18  14  19  14  24  16
M  END
>  <DihAtoms>  (1) 
9,10,21,20

>  <DihDeg>  (1) 
-134.9993274379612

$$$$
