
     RDKit          3D

 32 34  0  0  0  0  0  0  0  0999 V2000
   38.0474   33.2916   49.5546 Cl  0  0  0  0  0  0  0  0  0  0  0  0
   38.4787   32.3961   48.1340 C   0  0  0  0  0  0  0  0  0  0  0  0
   38.0320   31.1103   47.9658 C   0  0  0  0  0  0  0  0  0  0  0  0
   38.4110   30.4450   46.8078 C   0  0  0  0  0  0  0  0  0  0  0  0
   39.2032   31.0247   45.8464 C   0  0  0  0  0  0  0  0  0  0  0  0
   39.6309   32.3396   46.0694 C   0  0  0  0  0  0  0  0  0  0  0  0
   40.6401   33.0503   44.8242 Cl  0  0  0  0  0  0  0  0  0  0  0  0
   39.2782   33.0291   47.1993 C   0  0  0  0  0  0  0  0  0  0  0  0
   36.9286   29.3889   51.1484 C   0  0  0  0  0  0  0  0  0  0  0  0
   37.7340   29.9365   50.1506 C   0  0  0  0  0  0  0  0  0  0  0  0
   37.1890   30.5329   49.0180 C   0  0  0  0  0  0  0  0  0  0  0  0
   35.8329   30.5505   48.9411 N   0  0  0  0  0  0  0  0  0  0  0  0
   35.0670   30.0202   49.9078 C   0  0  0  0  0  0  0  0  0  0  0  0
   35.5969   29.4524   50.9865 N   0  0  0  0  0  0  0  0  0  0  0  0
   38.0300   29.4304   46.7250 H   0  0  0  0  0  0  0  0  0  0  0  0
   39.4550   30.4402   44.9714 H   0  0  0  0  0  0  0  0  0  0  0  0
   39.6348   34.0366   47.3197 H   0  0  0  0  0  0  0  0  0  0  0  0
   37.4691   28.9622   51.9635 H   0  0  0  0  0  0  0  0  0  0  0  0
   38.8097   29.9254   50.2060 H   0  0  0  0  0  0  0  0  0  0  0  0
   33.3764   28.4469   51.4899 O   0  0  0  0  0  0  0  0  0  0  0  0
   32.7976   29.2864   50.5573 C   0  0  0  0  0  0  0  0  0  0  0  0
   33.6155   30.0700   49.7679 C   0  0  0  0  0  0  0  0  0  0  0  0
   32.9900   30.8913   48.8520 C   0  0  0  0  0  0  0  0  0  0  0  0
   33.6489   31.5085   48.2311 H   0  0  0  0  0  0  0  0  0  0  0  0
   31.6433   30.9940   48.6616 C   0  0  0  0  0  0  0  0  0  0  0  0
   30.8855   30.1780   49.4894 C   0  0  0  0  0  0  0  0  0  0  0  0
   31.4162   29.3202   50.4385 C   0  0  0  0  0  0  0  0  0  0  0  0
   30.6478   28.5225   51.2460 O   0  0  0  0  0  0  0  0  0  0  0  0
   33.7457   27.5401   51.2359 H   0  0  0  0  0  0  0  0  0  0  0  0
   31.1626   31.6320   47.9505 H   0  0  0  0  0  0  0  0  0  0  0  0
   29.8027   30.1549   49.4493 H   0  0  0  0  0  0  0  0  0  0  0  0
   30.2842   28.7402   52.1447 H   0  0  0  0  0  0  0  0  0  0  0  0
  2  1  1  0
  3  2  2  0
  3 11  1  0
  4  3  1  0
  5  6  1  0
  5  4  2  0
  6  8  2  0
  7  6  1  0
  8  2  1  0
 10  9  2  0
 11 10  1  0
 12 11  2  0
 12 13  1  0
 13 14  2  0
 14  9  1  0
  4 15  1  0
  5 16  1  0
  8 17  1  0
  9 18  1  0
 10 19  1  0
 20 21  1  0
 21 22  2  0
 22 23  1  0
 23 24  1  0
 23 25  2  0
 25 26  1  0
 26 27  2  0
 27 28  1  0
 27 21  1  0
 20 29  1  0
 25 30  1  0
 26 31  1  0
 28 32  1  0
 13 22  1  0
M  ISO  6  15  14  16  14  17  14  18  14  19  14  24  16
M  END
>  <DihAtoms>  (1) 
11,12,21,20

>  <DihDeg>  (1) 
-179.99616654676362

$$$$
