
     RDKit          3D

 42 45  0  0  0  0  0  0  0  0999 V2000
   36.8770   32.6020   43.5040 Cl  0  0  0  0  0  0  0  0  0  0  0  0
   37.8590   31.1580   43.1960 C   0  0  0  0  0  0  0  0  0  0  0  0
   38.6020   30.7180   44.2650 C   0  0  0  0  0  0  0  0  0  0  0  0
   39.4110   29.5860   44.1290 C   0  0  0  0  0  0  0  0  0  0  0  0
   39.4640   28.9100   42.9170 C   0  0  0  0  0  0  0  0  0  0  0  0
   38.7110   29.3750   41.8690 C   0  0  0  0  0  0  0  0  0  0  0  0
   37.9090   30.4880   41.9920 C   0  0  0  0  0  0  0  0  0  0  0  0
   38.6530   32.9680   49.7910 Cl  0  0  0  0  0  0  0  0  0  0  0  0
   38.6380   32.3090   48.1730 C   0  0  0  0  0  0  0  0  0  0  0  0
   37.8950   31.1730   47.8770 C   0  0  0  0  0  0  0  0  0  0  0  0
   37.9240   30.7040   46.5870 C   0  0  0  0  0  0  0  0  0  0  0  0
   38.6550   31.3140   45.5940 C   0  0  0  0  0  0  0  0  0  0  0  0
   39.3930   32.4600   45.9320 C   0  0  0  0  0  0  0  0  0  0  0  0
   40.3050   33.2070   44.6510 Cl  0  0  0  0  0  0  0  0  0  0  0  0
   39.3880   32.9610   47.2170 C   0  0  0  0  0  0  0  0  0  0  0  0
   37.0200   29.3520   51.0830 C   0  0  0  0  0  0  0  0  0  0  0  0
   37.7720   29.9220   50.0460 C   0  0  0  0  0  0  0  0  0  0  0  0
   37.1340   30.5640   48.9810 C   0  0  0  0  0  0  0  0  0  0  0  0
   35.7700   30.6020   49.0100 N   0  0  0  0  0  0  0  0  0  0  0  0
   35.0870   30.0410   50.0250 C   0  0  0  0  0  0  0  0  0  0  0  0
   35.6940   29.4300   51.0410 N   0  0  0  0  0  0  0  0  0  0  0  0
   37.3730   32.1000   40.0810 C   0  0  0  0  0  0  0  0  0  0  0  0
   37.0620   31.0840   40.9610 C   0  0  0  0  0  0  0  0  0  0  0  0
   35.8020   30.4900   40.9380 C   0  0  0  0  0  0  0  0  0  0  0  0
   34.8470   30.9230   40.0190 C   0  0  0  0  0  0  0  0  0  0  0  0
   35.1740   31.9540   39.1320 C   0  0  0  0  0  0  0  0  0  0  0  0
   36.4280   32.5300   39.1710 C   0  0  0  0  0  0  0  0  0  0  0  0
   38.6670   32.5780   40.2420 O   0  0  0  0  0  0  0  0  0  0  0  0
   36.8470   33.5560   38.3350 O   0  0  0  0  0  0  0  0  0  0  0  0
   40.0062   29.2303   44.9829 H   0  0  0  0  0  0  0  0  0  0  0  0
   40.0978   28.0186   42.7997 H   0  0  0  0  0  0  0  0  0  0  0  0
   38.7486   28.8454   40.9056 H   0  0  0  0  0  0  0  0  0  0  0  0
   37.3401   29.8057   46.3378 H   0  0  0  0  0  0  0  0  0  0  0  0
   39.9686   33.8595   47.4732 H   0  0  0  0  0  0  0  0  0  0  0  0
   37.5215   28.8463   51.9213 H   0  0  0  0  0  0  0  0  0  0  0  0
   38.8702   29.8636   50.0707 H   0  0  0  0  0  0  0  0  0  0  0  0
   33.9881   30.0888   50.0151 H   0  0  0  0  0  0  0  0  0  0  0  0
   35.5611   29.6811   41.6434 H   0  0  0  0  0  0  0  0  0  0  0  0
   33.8496   30.4599   39.9919 H   0  0  0  0  0  0  0  0  0  0  0  0
   34.4305   32.3065   38.4020 H   0  0  0  0  0  0  0  0  0  0  0  0
   39.0002   33.3091   39.6636 H   0  0  0  0  0  0  0  0  0  0  0  0
   37.7633   33.9211   38.4203 H   0  0  0  0  0  0  0  0  0  0  0  0
  2  1  1  0
  2  3  2  0
  3 12  1  0
  4  3  1  0
  5  4  2  0
  6  7  2  0
  6  5  1  0
  7  2  1  0
  9  8  1  0
 10  9  2  0
 10 18  1  0
 11 10  1  0
 12 13  1  0
 12 11  2  0
 13 15  2  0
 14 13  1  0
 15  9  1  0
 17 16  2  0
 18 19  2  0
 18 17  1  0
 19 20  1  0
 20 21  2  0
 21 16  1  0
 22 28  1  0
 22 23  2  0
 23  7  1  0
 24 23  1  0
 25 24  2  0
 26 27  2  0
 26 25  1  0
 27 22  1  0
 29 27  1  0
  4 30  1  0
  5 31  1  0
  6 32  1  0
 11 33  1  0
 15 34  1  0
 16 35  1  0
 17 36  1  0
 20 37  1  0
 24 38  1  0
 25 39  1  0
 26 40  1  0
 28 41  1  0
 29 42  1  0
M  ISO  8  30  14  31  14  32  14  33  14  34  14  35  14  36  14  37  14
M  ISO  5  38  14  39  14  40  14  41   3  42   3
M  END
>  <minimizedAffinity>  (1) 
-6.53062057

>  <minimizedRMSD>  (1) 
0.277058214

$$$$
