
     RDKit          3D

 51 55  0  0  0  0  0  0  0  0999 V2000
   34.3329   29.7679   46.0791 N   0  0  0  0  0  0  0  0  0  0  0  0
   33.0166   29.9976   45.5286 C   0  0  0  0  0  0  0  0  0  0  0  0
   32.9878   29.8276   44.0433 C   0  0  0  0  0  0  0  0  0  0  0  0
   34.0628   28.9806   43.6017 N   0  0  0  0  0  0  0  0  0  0  0  0
   35.3087   29.7216   43.8240 C   0  0  0  0  0  0  0  0  0  0  0  0
   35.6035   29.6192   45.2813 C   0  0  1  0  0  0  0  0  0  0  0  0
   37.2412   31.5227   44.8961 C   0  0  0  0  0  0  0  0  0  0  0  0
   36.6401   30.5505   45.7300 C   0  0  0  0  0  0  0  0  0  0  0  0
   36.9632   30.4869   47.0641 C   0  0  0  0  0  0  0  0  0  0  0  0
   37.8710   31.3974   47.5467 C   0  0  0  0  0  0  0  0  0  0  0  0
   38.4712   32.3739   46.6959 C   0  0  0  0  0  0  0  0  0  0  0  0
   38.1642   32.4600   45.3186 C   0  0  0  0  0  0  0  0  0  0  0  0
   39.3716   33.1899   47.4178 O   0  0  0  0  0  0  0  0  0  0  0  0
   39.1003   32.9477   48.7624 C   0  0  0  0  0  0  0  0  0  0  0  0
   38.4426   31.6767   48.7879 O   0  0  0  0  0  0  0  0  0  0  0  0
   34.7103   28.3643   48.0682 C   0  0  0  0  0  0  0  0  0  0  0  0
   34.4612   29.6503   47.4938 C   0  0  0  0  0  0  0  0  0  0  0  0
   34.3764   30.7371   48.3359 C   0  0  0  0  0  0  0  0  0  0  0  0
   34.5444   30.5116   49.6880 N   0  0  0  0  0  0  0  0  0  0  0  0
   34.7766   29.3075   50.1880 C   0  0  0  0  0  0  0  0  0  0  0  0
   34.8605   28.2410   49.4104 N   0  0  0  0  0  0  0  0  0  0  0  0
   34.9347   29.1770   51.5972 N   0  0  0  0  0  0  0  0  0  0  0  0
   32.6256   31.0034   45.7748 H   0  0  0  0  0  0  0  0  0  0  0  0
   32.2988   29.2789   45.9762 H   0  0  0  0  0  0  0  0  0  0  0  0
   33.0900   30.8042   43.5056 H   0  0  0  0  0  0  0  0  0  0  0  0
   32.0305   29.3858   43.7384 H   0  0  0  0  0  0  0  0  0  0  0  0
   34.0650   28.1042   44.1931 H   0  0  0  0  0  0  0  0  0  0  0  0
   35.1197   30.7631   43.4821 H   0  0  0  0  0  0  0  0  0  0  0  0
   36.0894   29.1921   43.2449 H   0  0  0  0  0  0  0  0  0  0  0  0
   35.9052   28.5812   45.5232 H   0  0  0  0  0  0  0  0  0  0  0  0
   36.9576   31.5306   43.8546 H   0  0  0  0  0  0  0  0  0  0  0  0
   36.7581   29.8465   47.8807 H   0  0  0  0  0  0  0  0  0  0  0  0
   38.6089   33.1850   44.6723 H   0  0  0  0  0  0  0  0  0  0  0  0
   38.5312   33.7303   49.2871 H   0  0  0  0  0  0  0  0  0  0  0  0
   40.0892   32.7381   49.2669 H   0  0  0  0  0  0  0  0  0  0  0  0
   34.7652   27.5310   47.3670 H   0  0  0  0  0  0  0  0  0  0  0  0
   34.7506   29.9446   52.2788 H   0  0  0  0  0  0  0  0  0  0  0  0
   35.2553   28.2785   52.0504 H   0  0  0  0  0  0  0  0  0  0  0  0
   35.4000   32.5904   50.0344 O   0  0  0  0  0  0  0  0  0  0  0  0
   34.6214   32.9826   48.9227 C   0  0  0  0  0  0  0  0  0  0  0  0
   34.0427   32.0993   47.9872 C   0  0  0  0  0  0  0  0  0  0  0  0
   33.3458   32.7558   47.0189 C   0  0  0  0  0  0  0  0  0  0  0  0
   32.9007   32.1225   46.2887 H   0  0  0  0  0  0  0  0  0  0  0  0
   33.2113   34.1156   46.9465 C   0  0  0  0  0  0  0  0  0  0  0  0
   33.7867   34.9542   47.8735 C   0  0  0  0  0  0  0  0  0  0  0  0
   34.5027   34.3545   48.8747 C   0  0  0  0  0  0  0  0  0  0  0  0
   35.0618   35.2415   49.7821 O   0  0  0  0  0  0  0  0  0  0  0  0
   36.4023   32.5629   49.8168 H   0  0  0  0  0  0  0  0  0  0  0  0
   32.6302   34.4899   46.1242 H   0  0  0  0  0  0  0  0  0  0  0  0
   33.6165   35.9958   47.7209 H   0  0  0  0  0  0  0  0  0  0  0  0
   36.0268   35.1565   50.1004 H   0  0  0  0  0  0  0  0  0  0  0  0
  1 17  1  0
  2  1  1  0
  3  2  1  0
  4  5  1  0
  4  3  1  0
  5  6  1  0
  6  8  1  0
  6  1  1  0
  7 12  2  0
  7  8  1  0
  8  9  2  0
  9 10  1  0
 10 15  1  0
 11 13  1  0
 11 10  2  0
 12 11  1  0
 13 14  1  0
 14 15  1  0
 16 21  2  0
 17 16  1  0
 17 18  2  0
 18 19  1  0
 19 20  2  0
 20 22  1  0
 21 20  1  0
  2 23  1  0
  2 24  1  0
  3 25  1  0
  3 26  1  0
  4 27  1  0
  5 28  1  0
  5 29  1  0
  6 30  1  6
  7 31  1  0
  9 32  1  0
 12 33  1  0
 14 34  1  0
 14 35  1  0
 16 36  1  0
 22 37  1  0
 22 38  1  0
 39 40  1  0
 40 41  2  0
 41 42  1  0
 42 43  1  0
 42 44  2  0
 44 45  1  0
 45 46  2  0
 46 47  1  0
 46 40  1  0
 39 48  1  0
 44 49  1  0
 45 50  1  0
 47 51  1  0
 18 41  1  0
M  ISO  8  23  13  24  13  25  13  26  13  27   5  28  13  29  13  30  13
M  ISO  7  31  14  32  14  33  14  34  13  35  13  36  14  43  16
M  END
>  <DihAtoms>  (1) 
16,17,40,39

>  <DihDeg>  (1) 
116.23233067814392

$$$$
