
     RDKit          3D

 38 40  0  0  1  0  0  0  0  0999 V2000
   35.8970   29.7590   46.4590 C   0  0  1  0  0  0  0  0  0  0  0  0
   35.2910   30.6570   45.4700 C   0  0  0  0  0  0  0  0  0  0  0  0
   35.7850   30.2950   44.0970 C   0  0  0  0  0  0  0  0  0  0  0  0
   37.2340   29.9730   44.1250 C   0  0  0  0  0  0  0  0  0  0  0  0
   38.0030   30.4260   45.3070 C   0  0  0  0  0  0  0  0  0  0  0  0
   37.3560   30.0410   46.6020 C   0  0  1  0  0  0  0  0  0  0  0  0
   34.4560   28.4030   49.5800 C   0  0  0  0  0  0  0  0  0  0  0  0
   35.0900   28.4430   48.3040 C   0  0  0  0  0  0  0  0  0  0  0  0
   35.2880   29.7080   47.7680 C   0  0  0  0  0  0  0  0  0  0  0  0
   34.8730   30.8180   48.4740 N   0  0  0  0  0  0  0  0  0  0  0  0
   34.2810   30.7450   49.6680 C   0  0  0  0  0  0  0  0  0  0  0  0
   34.0670   29.5270   50.2330 N   0  0  0  0  0  0  0  0  0  0  0  0
   38.2370   32.1990   47.6710 C   0  0  0  0  0  0  0  0  0  0  0  0
   37.8130   30.8590   47.7310 C   0  0  0  0  0  0  0  0  0  0  0  0
   37.9110   30.4040   49.0370 C   0  0  0  0  0  0  0  0  0  0  0  0
   38.3540   31.1350   50.1190 C   0  0  0  0  0  0  0  0  0  0  0  0
   38.7370   32.4230   49.9330 C   0  0  0  0  0  0  0  0  0  0  0  0
   38.6800   32.9670   48.6930 C   0  0  0  0  0  0  0  0  0  0  0  0
   38.1930   32.8150   46.4020 O   0  0  0  0  0  0  0  0  0  0  0  0
   39.0710   34.2840   48.4940 O   0  0  0  0  0  0  0  0  0  0  0  0
   35.7113   28.7622   46.0325 H   0  0  0  0  0  0  0  0  0  0  0  0
   34.1962   30.5556   45.5046 H   0  0  0  0  0  0  0  0  0  0  0  0
   35.5698   31.6963   45.6983 H   0  0  0  0  0  0  0  0  0  0  0  0
   35.6175   31.1442   43.4181 H   0  0  0  0  0  0  0  0  0  0  0  0
   35.2342   29.4097   43.7466 H   0  0  0  0  0  0  0  0  0  0  0  0
   37.3316   28.8789   44.0656 H   0  0  0  0  0  0  0  0  0  0  0  0
   37.6647   30.5250   43.2766 H   0  0  0  0  0  0  0  0  0  0  0  0
   39.0059   29.9759   45.2676 H   0  0  0  0  0  0  0  0  0  0  0  0
   38.0475   31.5246   45.2724 H   0  0  0  0  0  0  0  0  0  0  0  0
   37.7264   29.0503   46.9041 H   0  0  0  0  0  0  0  0  0  0  0  0
   34.2756   27.4260   50.0522 H   0  0  0  0  0  0  0  0  0  0  0  0
   35.4026   27.5292   47.7774 H   0  0  0  0  0  0  0  0  0  0  0  0
   33.9692   31.6617   50.1900 H   0  0  0  0  0  0  0  0  0  0  0  0
   37.6074   29.3640   49.2276 H   0  0  0  0  0  0  0  0  0  0  0  0
   38.3963   30.6799   51.1195 H   0  0  0  0  0  0  0  0  0  0  0  0
   39.0919   33.0227   50.7841 H   0  0  0  0  0  0  0  0  0  0  0  0
   38.4794   33.7571   46.2989 H   0  0  0  0  0  0  0  0  0  0  0  0
   39.3917   34.8260   49.2579 H   0  0  0  0  0  0  0  0  0  0  0  0
  1  6  1  0
  1  9  1  0
  2  1  1  0
  3  4  1  0
  3  2  1  0
  4  5  1  0
  5  6  1  0
  6 14  1  0
  7 12  2  0
  8  7  1  0
  9  8  2  0
  9 10  1  0
 10 11  2  0
 11 12  1  0
 13 14  2  0
 13 18  1  0
 14 15  1  0
 15 16  2  0
 17 16  1  0
 18 17  2  0
 19 13  1  0
 20 18  1  0
  1 21  1  6
  2 22  1  0
  2 23  1  0
  3 24  1  0
  3 25  1  0
  4 26  1  0
  4 27  1  0
  5 28  1  0
  5 29  1  0
  6 30  1  1
  7 31  1  0
  8 32  1  0
 11 33  1  0
 15 34  1  0
 16 35  1  0
 17 36  1  0
 19 37  1  0
 20 38  1  0
M  ISO  8  21  13  22  13  23  13  24  13  25  13  26  13  27  13  28  13
M  ISO  8  29  13  30  13  31  14  32  14  33  14  34  14  35  14  36  14
M  ISO  2  37   3  38   3
M  END
>  <minimizedAffinity>  (1) 
-5.08874226

>  <minimizedRMSD>  (1) 
2.91282725

$$$$
