
     RDKit          3D

 44 47  0  0  1  0  0  0  0  0999 V2000
   38.0950   32.3540   46.3450 O   0  0  0  0  0  0  0  0  0  0  0  0
   38.8580   32.4080   47.4660 C   0  0  2  0  0  0  0  0  0  0  0  0
   37.9960   32.6210   48.7520 C   0  0  2  0  0  0  0  0  0  0  0  0
   38.9550   33.2850   49.6170 C   0  0  0  0  0  0  0  0  0  0  0  0
   39.7610   34.0950   48.8400 O   0  0  0  0  0  0  0  0  0  0  0  0
   39.5520   33.7990   47.5220 C   0  0  0  0  0  0  0  0  0  0  0  0
   37.3750   29.3770   50.5560 C   0  0  0  0  0  0  0  0  0  0  0  0
   38.0320   30.5750   50.1610 C   0  0  0  0  0  0  0  0  0  0  0  0
   37.3770   31.4010   49.2000 C   0  0  0  0  0  0  0  0  0  0  0  0
   36.1520   31.0090   48.7040 N   0  0  0  0  0  0  0  0  0  0  0  0
   35.5790   29.8720   49.1100 C   0  0  0  0  0  0  0  0  0  0  0  0
   36.1700   29.0530   50.0270 N   0  0  0  0  0  0  0  0  0  0  0  0
   40.1960   32.5060   44.0860 Cl  0  0  0  0  0  0  0  0  0  0  0  0
   38.8250   31.4370   44.1110 C   0  0  0  0  0  0  0  0  0  0  0  0
   38.0260   31.5710   45.2420 C   0  0  0  0  0  0  0  0  0  0  0  0
   36.9160   30.7390   45.2750 C   0  0  0  0  0  0  0  0  0  0  0  0
   36.6290   29.8440   44.2580 C   0  0  0  0  0  0  0  0  0  0  0  0
   37.4530   29.7570   43.1720 C   0  0  0  0  0  0  0  0  0  0  0  0
   38.5540   30.5590   43.1050 C   0  0  0  0  0  0  0  0  0  0  0  0
   40.6250   29.7630   41.8650 C   0  0  0  0  0  0  0  0  0  0  0  0
   39.4890   30.5300   41.9790 C   0  0  0  0  0  0  0  0  0  0  0  0
   39.1050   31.4040   40.9620 C   0  0  0  0  0  0  0  0  0  0  0  0
   39.9140   31.4720   39.8260 C   0  0  0  0  0  0  0  0  0  0  0  0
   41.0610   30.7160   39.6800 C   0  0  0  0  0  0  0  0  0  0  0  0
   41.3890   29.8700   40.7200 C   0  0  0  0  0  0  0  0  0  0  0  0
   40.8950   28.9410   42.9380 O   0  0  0  0  0  0  0  0  0  0  0  0
   42.5310   29.0740   40.6480 O   0  0  0  0  0  0  0  0  0  0  0  0
   39.4725   31.4961   47.4357 H   0  0  0  0  0  0  0  0  0  0  0  0
   37.0872   33.2330   48.6544 H   0  0  0  0  0  0  0  0  0  0  0  0
   38.4225   33.8959   50.3609 H   0  0  0  0  0  0  0  0  0  0  0  0
   39.5677   32.5380   50.1429 H   0  0  0  0  0  0  0  0  0  0  0  0
   40.5126   33.7625   46.9873 H   0  0  0  0  0  0  0  0  0  0  0  0
   38.9256   34.5668   47.0445 H   0  0  0  0  0  0  0  0  0  0  0  0
   37.8466   28.7110   51.2936 H   0  0  0  0  0  0  0  0  0  0  0  0
   39.0094   30.8544   50.5812 H   0  0  0  0  0  0  0  0  0  0  0  0
   34.6018   29.5881   48.6924 H   0  0  0  0  0  0  0  0  0  0  0  0
   36.2393   30.7923   46.1406 H   0  0  0  0  0  0  0  0  0  0  0  0
   35.7375   29.2031   44.3247 H   0  0  0  0  0  0  0  0  0  0  0  0
   37.2310   29.0481   42.3607 H   0  0  0  0  0  0  0  0  0  0  0  0
   38.1968   32.0181   41.0518 H   0  0  0  0  0  0  0  0  0  0  0  0
   39.6262   32.1557   39.0138 H   0  0  0  0  0  0  0  0  0  0  0  0
   41.6843   30.7851   38.7763 H   0  0  0  0  0  0  0  0  0  0  0  0
   41.6963   28.3597   42.9269 H   0  0  0  0  0  0  0  0  0  0  0  0
   42.7609   28.4692   41.3973 H   0  0  0  0  0  0  0  0  0  0  0  0
  1  2  1  0
  2  6  1  0
  2  3  1  0
  3  9  1  0
  3  4  1  0
  5  4  1  0
  6  5  1  0
  8  7  2  0
  9  8  1  0
 10 11  1  0
 10  9  2  0
 11 12  2  0
 12  7  1  0
 13 14  1  0
 14 15  2  0
 15 16  1  0
 15  1  1  0
 17 16  2  0
 18 17  1  0
 19 18  2  0
 19 14  1  0
 20 21  2  0
 20 26  1  0
 21 19  1  0
 22 21  1  0
 23 22  2  0
 24 23  1  0
 24 25  2  0
 25 20  1  0
 27 25  1  0
  2 28  1  1
  3 29  1  6
  4 30  1  0
  4 31  1  0
  6 32  1  0
  6 33  1  0
  7 34  1  0
  8 35  1  0
 11 36  1  0
 16 37  1  0
 17 38  1  0
 18 39  1  0
 22 40  1  0
 23 41  1  0
 24 42  1  0
 26 43  1  0
 27 44  1  0
M  ISO  8  28  13  29  13  30  13  31  13  32  13  33  13  34  14  35  14
M  ISO  8  36  14  37  14  38  14  39  14  40  14  41  14  42  14  43   3
M  ISO  1  44   3
M  END
>  <minimizedAffinity>  (1) 
-6.53183365

>  <minimizedRMSD>  (1) 
1.68967688

$$$$
