
     RDKit          3D

 32 34  0  0  0  0  0  0  0  0999 V2000
   38.0474   33.2916   49.5546 Cl  0  0  0  0  0  0  0  0  0  0  0  0
   38.4787   32.3961   48.1340 C   0  0  0  0  0  0  0  0  0  0  0  0
   38.0320   31.1103   47.9658 C   0  0  0  0  0  0  0  0  0  0  0  0
   38.4110   30.4450   46.8078 C   0  0  0  0  0  0  0  0  0  0  0  0
   39.2032   31.0247   45.8464 C   0  0  0  0  0  0  0  0  0  0  0  0
   39.6309   32.3396   46.0694 C   0  0  0  0  0  0  0  0  0  0  0  0
   40.6401   33.0503   44.8242 Cl  0  0  0  0  0  0  0  0  0  0  0  0
   39.2782   33.0291   47.1993 C   0  0  0  0  0  0  0  0  0  0  0  0
   36.9286   29.3889   51.1484 C   0  0  0  0  0  0  0  0  0  0  0  0
   37.7340   29.9365   50.1506 C   0  0  0  0  0  0  0  0  0  0  0  0
   37.1890   30.5329   49.0180 C   0  0  0  0  0  0  0  0  0  0  0  0
   35.8329   30.5505   48.9411 N   0  0  0  0  0  0  0  0  0  0  0  0
   35.0670   30.0202   49.9078 C   0  0  0  0  0  0  0  0  0  0  0  0
   35.5969   29.4524   50.9865 N   0  0  0  0  0  0  0  0  0  0  0  0
   38.0300   29.4304   46.7250 H   0  0  0  0  0  0  0  0  0  0  0  0
   39.4550   30.4402   44.9714 H   0  0  0  0  0  0  0  0  0  0  0  0
   39.6348   34.0366   47.3197 H   0  0  0  0  0  0  0  0  0  0  0  0
   37.4691   28.9622   51.9635 H   0  0  0  0  0  0  0  0  0  0  0  0
   38.8097   29.9254   50.2060 H   0  0  0  0  0  0  0  0  0  0  0  0
   33.8376   31.1897   47.6813 O   0  0  0  0  0  0  0  0  0  0  0  0
   33.0271   30.6511   48.6624 C   0  0  0  0  0  0  0  0  0  0  0  0
   33.6155   30.0700   49.7679 C   0  0  0  0  0  0  0  0  0  0  0  0
   32.7639   29.5465   50.7194 C   0  0  0  0  0  0  0  0  0  0  0  0
   33.2418   29.0880   51.5922 H   0  0  0  0  0  0  0  0  0  0  0  0
   31.4012   29.5543   50.6612 C   0  0  0  0  0  0  0  0  0  0  0  0
   30.8815   30.1540   49.5230 C   0  0  0  0  0  0  0  0  0  0  0  0
   31.6494   30.7078   48.5121 C   0  0  0  0  0  0  0  0  0  0  0  0
   31.1140   31.2956   47.3957 O   0  0  0  0  0  0  0  0  0  0  0  0
   34.2370   32.1151   47.7669 H   0  0  0  0  0  0  0  0  0  0  0  0
   30.7448   29.1473   51.4011 H   0  0  0  0  0  0  0  0  0  0  0  0
   29.8156   30.2321   49.3425 H   0  0  0  0  0  0  0  0  0  0  0  0
   30.8985   30.8638   46.5271 H   0  0  0  0  0  0  0  0  0  0  0  0
  2  1  1  0
  3  2  2  0
  3 11  1  0
  4  3  1  0
  5  6  1  0
  5  4  2  0
  6  8  2  0
  7  6  1  0
  8  2  1  0
 10  9  2  0
 11 10  1  0
 12 11  2  0
 12 13  1  0
 13 14  2  0
 14  9  1  0
  4 15  1  0
  5 16  1  0
  8 17  1  0
  9 18  1  0
 10 19  1  0
 20 21  1  0
 21 22  2  0
 22 23  1  0
 23 24  1  0
 23 25  2  0
 25 26  1  0
 26 27  2  0
 27 28  1  0
 27 21  1  0
 20 29  1  0
 25 30  1  0
 26 31  1  0
 28 32  1  0
 13 22  1  0
M  ISO  6  15  14  16  14  17  14  18  14  19  14  24  16
M  END
>  <DihAtoms>  (1) 
11,12,21,20

>  <DihDeg>  (1) 
-179.99616654676362

$$$$
