
     RDKit          3D

 44 48  0  0  0  0  0  0  0  0999 V2000
   37.6772   31.2782   48.2054 C   0  0  0  0  0  0  0  0  0  0  0  0
   38.5336   32.3091   48.0885 C   0  0  0  0  0  0  0  0  0  0  0  0
   38.9219   32.7147   46.8634 C   0  0  0  0  0  0  0  0  0  0  0  0
   38.4145   32.0424   45.7793 C   0  0  0  0  0  0  0  0  0  0  0  0
   37.3379   30.7809   46.5768 S   0  0  0  0  0  0  0  0  0  0  0  0
   41.1525   31.2509   44.7186 Cl  0  0  0  0  0  0  0  0  0  0  0  0
   39.7794   31.8393   43.8048 C   0  0  0  0  0  0  0  0  0  0  0  0
   38.5850   32.1733   44.3531 C   0  0  0  0  0  0  0  0  0  0  0  0
   37.5137   32.6227   43.6829 C   0  0  0  0  0  0  0  0  0  0  0  0
   37.6001   32.7717   42.2967 C   0  0  0  0  0  0  0  0  0  0  0  0
   38.7676   32.4549   41.6839 C   0  0  0  0  0  0  0  0  0  0  0  0
   38.9741   32.6095   39.9472 Cl  0  0  0  0  0  0  0  0  0  0  0  0
   39.8405   31.9976   42.4188 C   0  0  0  0  0  0  0  0  0  0  0  0
   37.1565   29.9082   51.6803 C   0  0  0  0  0  0  0  0  0  0  0  0
   37.7889   30.5330   50.5885 C   0  0  0  0  0  0  0  0  0  0  0  0
   37.0913   30.6387   49.3829 C   0  0  0  0  0  0  0  0  0  0  0  0
   35.8653   30.1405   49.3387 N   0  0  0  0  0  0  0  0  0  0  0  0
   35.2580   29.5441   50.3789 C   0  0  0  0  0  0  0  0  0  0  0  0
   35.9179   29.4369   51.5397 N   0  0  0  0  0  0  0  0  0  0  0  0
   33.8887   29.0576   50.1812 C   0  0  0  0  0  0  0  0  0  0  0  0
   33.6785   28.2786   49.1973 O   0  0  0  0  0  0  0  0  0  0  0  0
   38.8903   32.7891   49.0001 H   0  0  0  0  0  0  0  0  0  0  0  0
   39.5994   33.5228   46.6217 H   0  0  0  0  0  0  0  0  0  0  0  0
   36.5439   32.8924   44.1309 H   0  0  0  0  0  0  0  0  0  0  0  0
   36.7367   33.1343   41.7360 H   0  0  0  0  0  0  0  0  0  0  0  0
   40.7864   31.7436   41.9153 H   0  0  0  0  0  0  0  0  0  0  0  0
   37.7001   29.8241   52.6233 H   0  0  0  0  0  0  0  0  0  0  0  0
   38.8057   30.9368   50.6489 H   0  0  0  0  0  0  0  0  0  0  0  0
   32.7664   29.4003   51.0138 C   0  0  0  0  0  0  0  0  0  0  0  0
   31.8287   28.5596   51.5485 C   0  0  0  0  0  0  0  0  0  0  0  0
   31.9283   27.5082   51.2913 H   0  0  0  0  0  0  0  0  0  0  0  0
   30.8172   29.0428   52.3686 C   0  0  0  0  0  0  0  0  0  0  0  0
   30.7221   30.3839   52.6724 C   0  0  0  0  0  0  0  0  0  0  0  0
   29.7414   30.8790   53.4879 N   0  0  0  0  0  0  0  0  0  0  0  0
   29.7255   32.1927   53.7502 C   0  0  0  0  0  0  0  0  0  0  0  0
   28.9223   32.5498   54.4115 H   0  0  0  0  0  0  0  0  0  0  0  0
   30.6255   33.1237   53.2642 C   0  0  0  0  0  0  0  0  0  0  0  0
   31.6377   32.6691   52.4304 C   0  0  0  0  0  0  0  0  0  0  0  0
   31.6309   31.3070   52.1765 C   0  0  0  0  0  0  0  0  0  0  0  0
   32.6113   30.7467   51.3640 C   0  0  0  0  0  0  0  0  0  0  0  0
   30.0798   28.3653   52.7808 H   0  0  0  0  0  0  0  0  0  0  0  0
   30.5867   34.1783   53.5007 H   0  0  0  0  0  0  0  0  0  0  0  0
   32.3918   33.3041   52.0005 H   0  0  0  0  0  0  0  0  0  0  0  0
   33.3393   31.4694   50.9650 H   0  0  0  0  0  0  0  0  0  0  0  0
  1 16  1  0
  2  1  2  0
  3  2  1  0
  4  5  1  0
  4  3  2  0
  5  1  1  0
  7  8  2  0
  7  6  1  0
  8  4  1  0
  9  8  1  0
 10  9  2  0
 11 10  1  0
 11 13  2  0
 12 11  1  0
 13  7  1  0
 15 14  2  0
 16 15  1  0
 17 16  2  0
 17 18  1  0
 18 19  2  0
 19 14  1  0
 20 18  1  0
 21 20  2  0
  2 22  1  0
  3 23  1  0
  9 24  1  0
 10 25  1  0
 13 26  1  0
 14 27  1  0
 15 28  1  0
 29 30  2  0
 30 31  1  0
 30 32  1  0
 32 33  2  0
 33 34  1  0
 34 35  2  0
 35 36  1  0
 35 37  1  0
 37 38  2  0
 38 39  1  0
 39 40  2  0
 40 29  1  0
 39 33  1  0
 32 41  1  0
 37 42  1  0
 38 43  1  0
 40 44  1  0
 20 29  1  0
M  ISO  8  22  14  23  14  24  14  25  14  26  14  27  14  28  14  31  16
M  ISO  1  36  16
M  END
>  <DihAtoms>  (1) 
17,19,28,29

>  <DihDeg>  (1) 
-27.809111033815796

$$$$
