
     RDKit          3D

 56 61  0  0  0  0  0  0  0  0999 V2000
   37.5204   32.0888   49.0485 C   0  0  0  0  0  0  0  0  0  0  0  0
   38.0748   33.2265   49.6039 C   0  0  0  0  0  0  0  0  0  0  0  0
   39.0929   33.8219   48.8512 C   0  0  0  0  0  0  0  0  0  0  0  0
   39.4790   33.2825   47.6575 N   0  0  0  0  0  0  0  0  0  0  0  0
   38.9058   32.1593   47.1457 C   0  0  0  0  0  0  0  0  0  0  0  0
   37.9118   31.5650   47.8651 N   0  0  0  0  0  0  0  0  0  0  0  0
   40.0602   32.3856   45.0181 C   0  0  0  0  0  0  0  0  0  0  0  0
   39.3269   31.5916   45.8656 C   0  0  0  0  0  0  0  0  0  0  0  0
   39.0112   30.2977   45.4812 C   0  0  0  0  0  0  0  0  0  0  0  0
   39.4000   29.7521   44.2701 C   0  0  0  0  0  0  0  0  0  0  0  0
   39.2240   28.5511   43.6740 N   0  0  0  0  0  0  0  0  0  0  0  0
   39.8535   28.6474   42.4812 C   0  0  0  0  0  0  0  0  0  0  0  0
   40.4004   29.8575   42.3369 N   0  0  0  0  0  0  0  0  0  0  0  0
   40.1427   30.5993   43.4445 C   0  0  0  0  0  0  0  0  0  0  0  0
   40.4686   31.8761   43.7960 C   0  0  0  0  0  0  0  0  0  0  0  0
   36.4329   31.4062   49.8301 C   0  0  1  0  0  0  0  0  0  0  0  0
   35.3915   30.6198   49.1832 C   0  0  2  0  0  0  0  0  0  0  0  0
   36.6067   29.8848   49.8188 C   0  0  2  0  0  0  0  0  0  0  0  0
   35.3725   30.5857   47.8466 O   0  0  0  0  0  0  0  0  0  0  0  0
   34.5493   30.2681   46.8435 C   0  0  0  0  0  0  0  0  0  0  0  0
   35.0483   29.4381   46.0092 O   0  0  0  0  0  0  0  0  0  0  0  0
   33.3132   30.8506   46.8283 N   0  0  0  0  0  0  0  0  0  0  0  0
   36.4769   29.2796   51.1739 C   0  0  0  0  0  0  0  0  0  0  0  0
   37.4064   29.7680   52.2069 C   0  0  0  0  0  0  0  0  0  0  0  0
   37.7469   33.6238   50.5451 H   0  0  0  0  0  0  0  0  0  0  0  0
   39.5659   34.7161   49.2346 H   0  0  0  0  0  0  0  0  0  0  0  0
   40.3107   33.3928   45.3085 H   0  0  0  0  0  0  0  0  0  0  0  0
   38.4310   29.6856   46.1652 H   0  0  0  0  0  0  0  0  0  0  0  0
   38.6883   27.8038   44.1625 H   0  0  0  0  0  0  0  0  0  0  0  0
   39.8634   27.8087   41.7971 H   0  0  0  0  0  0  0  0  0  0  0  0
   41.0497   32.5213   43.1369 H   0  0  0  0  0  0  0  0  0  0  0  0
   36.2037   31.9044   50.8023 H   0  0  0  0  0  0  0  0  0  0  0  0
   34.5807   30.3226   49.9198 H   0  0  0  0  0  0  0  0  0  0  0  0
   37.3419   29.4249   49.1566 H   0  0  0  0  0  0  0  0  0  0  0  0
   32.2784   30.7472   46.6669 H   0  0  0  0  0  0  0  0  0  0  0  0
   32.2957   30.6412   46.6426 H   0  0  0  0  0  0  0  0  0  0  0  0
   35.4224   29.3649   51.5045 H   0  0  0  0  0  0  0  0  0  0  0  0
   36.6466   28.1736   51.0459 H   0  0  0  0  0  0  0  0  0  0  0  0
   37.3203   30.8972   52.2318 H   0  0  0  0  0  0  0  0  0  0  0  0
   37.1358   29.4445   53.2262 H   0  0  0  0  0  0  0  0  0  0  0  0
   38.8420   29.5191   51.9361 C   0  0  0  0  0  0  0  0  0  0  0  0
   39.0694   28.1523   51.7737 C   0  0  0  0  0  0  0  0  0  0  0  0
   38.3212   27.3493   51.8274 H   0  0  0  0  0  0  0  0  0  0  0  0
   40.3247   27.6185   51.5130 C   0  0  0  0  0  0  0  0  0  0  0  0
   41.4136   28.4448   51.4037 C   0  0  0  0  0  0  0  0  0  0  0  0
   42.6610   28.0241   51.1545 N   0  0  0  0  0  0  0  0  0  0  0  0
   43.6859   28.9155   51.0620 C   0  0  0  0  0  0  0  0  0  0  0  0
   44.6647   28.5025   50.8590 H   0  0  0  0  0  0  0  0  0  0  0  0
   43.4935   30.2626   51.2168 C   0  0  0  0  0  0  0  0  0  0  0  0
   42.2099   30.7198   51.4755 C   0  0  0  0  0  0  0  0  0  0  0  0
   41.1926   29.7948   51.5637 C   0  0  0  0  0  0  0  0  0  0  0  0
   39.9563   30.3169   51.8202 C   0  0  0  0  0  0  0  0  0  0  0  0
   40.5347   26.5684   51.3822 H   0  0  0  0  0  0  0  0  0  0  0  0
   44.3186   30.9737   51.1418 H   0  0  0  0  0  0  0  0  0  0  0  0
   42.0516   31.7806   51.5985 H   0  0  0  0  0  0  0  0  0  0  0  0
   39.6774   31.3485   51.9650 H   0  0  0  0  0  0  0  0  0  0  0  0
  1  2  2  0
  1 16  1  0
  3  2  1  0
  4  3  2  0
  5  4  1  0
  5  6  2  0
  6  1  1  0
  7  8  2  0
  8  5  1  0
  9  8  1  0
 10  9  2  0
 11 10  1  0
 12 11  1  0
 13 12  2  0
 13 14  1  0
 14 15  2  0
 14 10  1  0
 15  7  1  0
 16 18  1  0
 17 16  1  0
 17 18  1  0
 18 23  1  0
 19 17  1  0
 20 22  1  0
 20 19  1  0
 21 20  2  0
 23 24  1  0
  2 25  1  0
  3 26  1  0
  7 27  1  0
  9 28  1  0
 11 29  1  0
 12 30  1  0
 15 31  1  0
 16 32  1  1
 17 33  1  1
 18 34  1  6
 22 35  1  0
 22 36  1  0
 23 37  1  0
 23 38  1  0
 24 39  1  0
 24 40  1  0
 41 42  2  0
 42 43  1  0
 42 44  1  0
 44 45  2  0
 45 46  1  0
 46 47  2  0
 47 48  1  0
 47 49  1  0
 49 50  2  0
 50 51  1  0
 51 52  2  0
 52 41  1  0
 51 45  1  0
 44 53  1  0
 49 54  1  0
 50 55  1  0
 52 56  1  0
 24 41  1  0
M  ISO  8  25  14  26  14  27  14  28  14  29   9  30  14  31  14  32  13
M  ISO  8  33  13  34  13  37   8  38   8  39   8  40   8  43  16  48  16
M  END
>  <DihAtoms>  (1) 
22,23,40,41

>  <DihDeg>  (1) 
-87.94638872417016

$$$$
