
     RDKit          3D

 44 47  0  0  0  0  0  0  0  0999 V2000
   37.5609   30.8097   49.5031 C   0  0  0  0  0  0  0  0  0  0  0  0
   37.4783   32.1433   49.9124 C   0  0  0  0  0  0  0  0  0  0  0  0
   37.9348   33.1272   49.0065 C   0  0  0  0  0  0  0  0  0  0  0  0
   38.4154   32.7058   47.8161 N   0  0  0  0  0  0  0  0  0  0  0  0
   38.4765   31.4247   47.4603 C   0  0  0  0  0  0  0  0  0  0  0  0
   38.0507   30.4675   48.3002 N   0  0  0  0  0  0  0  0  0  0  0  0
   38.9830   31.1321   46.1688 N   0  0  0  0  0  0  0  0  0  0  0  0
   40.3843   30.8703   46.0041 C   0  0  0  0  0  0  0  0  0  0  0  0
   40.9214   31.5427   44.7556 C   0  0  0  0  0  0  0  0  0  0  0  0
   40.0963   31.2938   43.6255 N   0  0  0  0  0  0  0  0  0  0  0  0
   38.9394   30.4970   43.8581 C   0  0  0  0  0  0  0  0  0  0  0  0
   38.1251   31.0878   45.0202 C   0  0  2  0  0  0  0  0  0  0  0  0
   37.0969   29.7431   50.4522 C   0  0  0  0  0  0  0  0  0  0  0  0
   35.8062   29.3577   50.1283 F   0  0  0  0  0  0  0  0  0  0  0  0
   38.0199   28.7415   50.4385 F   0  0  0  0  0  0  0  0  0  0  0  0
   37.0160   30.3593   51.7230 F   0  0  0  0  0  0  0  0  0  0  0  0
   37.4207   32.2677   44.6522 C   0  0  0  0  0  0  0  0  0  0  0  0
   37.4641   32.6678   43.4729 O   0  0  0  0  0  0  0  0  0  0  0  0
   37.0820   32.3639   50.8736 H   0  0  0  0  0  0  0  0  0  0  0  0
   37.8752   34.1570   49.3125 H   0  0  0  0  0  0  0  0  0  0  0  0
   40.6466   29.8019   46.0596 H   0  0  0  0  0  0  0  0  0  0  0  0
   40.9398   31.3486   46.8512 H   0  0  0  0  0  0  0  0  0  0  0  0
   41.9144   31.0800   44.5637 H   0  0  0  0  0  0  0  0  0  0  0  0
   41.1304   32.6068   44.9639 H   0  0  0  0  0  0  0  0  0  0  0  0
   40.5811   31.0042   42.7692 H   0  0  0  0  0  0  0  0  0  0  0  0
   39.2532   29.4908   44.2071 H   0  0  0  0  0  0  0  0  0  0  0  0
   38.3639   30.3961   42.9415 H   0  0  0  0  0  0  0  0  0  0  0  0
   37.3575   30.2739   45.2637 H   0  0  0  0  0  0  0  0  0  0  0  0
   36.5666   33.3225   45.1152 C   0  0  0  0  0  0  0  0  0  0  0  0
   35.4531   33.8540   44.5151 C   0  0  0  0  0  0  0  0  0  0  0  0
   35.1657   33.5256   43.5052 H   0  0  0  0  0  0  0  0  0  0  0  0
   34.6193   34.8230   45.0943 C   0  0  0  0  0  0  0  0  0  0  0  0
   34.9309   35.2775   46.3493 C   0  0  0  0  0  0  0  0  0  0  0  0
   34.0891   36.1918   46.8180 N   0  0  0  0  0  0  0  0  0  0  0  0
   34.3133   36.7079   48.0619 C   0  0  0  0  0  0  0  0  0  0  0  0
   33.6513   37.4549   48.4810 H   0  0  0  0  0  0  0  0  0  0  0  0
   35.3968   36.2731   48.7960 C   0  0  0  0  0  0  0  0  0  0  0  0
   36.2919   35.3121   48.3181 C   0  0  0  0  0  0  0  0  0  0  0  0
   36.0161   34.8311   47.0650 C   0  0  0  0  0  0  0  0  0  0  0  0
   36.7464   33.8867   46.3859 C   0  0  0  0  0  0  0  0  0  0  0  0
   33.7749   35.1535   44.5078 H   0  0  0  0  0  0  0  0  0  0  0  0
   35.6001   36.6663   49.7893 H   0  0  0  0  0  0  0  0  0  0  0  0
   37.1456   34.9271   48.8199 H   0  0  0  0  0  0  0  0  0  0  0  0
   37.5838   33.5515   47.0258 H   0  0  0  0  0  0  0  0  0  0  0  0
  1  2  2  0
  1 13  1  0
  3  2  1  0
  4  3  2  0
  5  4  1  0
  5  6  2  0
  6  1  1  0
  7  5  1  0
  8  7  1  0
  9  8  1  0
 10 11  1  0
 10  9  1  0
 11 12  1  0
 12  7  1  0
 13 16  1  0
 14 13  1  0
 15 13  1  0
 17 12  1  0
 18 17  2  0
  2 19  1  0
  3 20  1  0
  8 21  1  0
  8 22  1  0
  9 23  1  0
  9 24  1  0
 10 25  1  0
 11 26  1  0
 11 27  1  0
 12 28  1  1
 29 30  2  0
 30 31  1  0
 30 32  1  0
 32 33  2  0
 33 34  1  0
 34 35  2  0
 35 36  1  0
 35 37  1  0
 37 38  2  0
 38 39  1  0
 39 40  2  0
 40 29  1  0
 39 33  1  0
 32 41  1  0
 37 42  1  0
 38 43  1  0
 40 44  1  0
 17 29  1  0
M  ISO  8  19  14  20  14  21  13  22  13  23  13  24  13  25   5  26  13
M  ISO  4  27  13  28  13  31  16  36  16
M  END
>  <DihAtoms>  (1) 
11,16,28,29

>  <DihDeg>  (1) 
163.699496699728

$$$$
