
     RDKit          3D

 39 42  0  0  1  0  0  0  0  0999 V2000
   36.2670   29.8270   49.2950 N   0  0  0  0  0  0  0  0  0  0  0  0
   36.7770   31.1480   49.4090 C   0  0  1  0  0  0  0  0  0  0  0  0
   37.3100   31.2340   50.8310 C   0  0  0  0  0  0  0  0  0  0  0  0
   37.0850   29.8180   51.4030 C   0  0  0  0  0  0  0  0  0  0  0  0
   37.0790   29.0090   50.1420 C   0  0  0  0  0  0  0  0  0  0  0  0
   35.1780   29.4010   48.5180 C   0  0  0  0  0  0  0  0  0  0  0  0
   34.5580   30.3280   47.6670 C   0  0  0  0  0  0  0  0  0  0  0  0
   33.5010   29.9730   46.8340 C   0  0  0  0  0  0  0  0  0  0  0  0
   33.1230   28.6610   46.9110 N   0  0  0  0  0  0  0  0  0  0  0  0
   33.7250   27.7700   47.7350 C   0  0  0  0  0  0  0  0  0  0  0  0
   34.7700   28.1280   48.5580 N   0  0  0  0  0  0  0  0  0  0  0  0
   37.6000   31.6760   48.3690 C   0  0  0  0  0  0  0  0  0  0  0  0
   37.9380   32.8530   48.4610 O   0  0  0  0  0  0  0  0  0  0  0  0
   38.2440   31.3410   47.1140 C   0  0  0  0  0  0  0  0  0  0  0  0
   39.5680   31.5570   46.8410 C   0  0  0  0  0  0  0  0  0  0  0  0
   40.2110   31.2100   45.6530 C   0  0  0  0  0  0  0  0  0  0  0  0
   39.4650   30.6060   44.6780 C   0  0  0  0  0  0  0  0  0  0  0  0
   40.1180   30.2870   43.5490 N   0  0  0  0  0  0  0  0  0  0  0  0
   39.4960   29.6890   42.5190 C   0  0  0  0  0  0  0  0  0  0  0  0
   38.1520   29.4070   42.6520 C   0  0  0  0  0  0  0  0  0  0  0  0
   37.4720   29.7350   43.8180 C   0  0  0  0  0  0  0  0  0  0  0  0
   38.1260   30.3460   44.8590 C   0  0  0  0  0  0  0  0  0  0  0  0
   37.6030   30.7330   46.0700 C   0  0  0  0  0  0  0  0  0  0  0  0
   35.9650   31.8678   49.2287 H   0  0  0  0  0  0  0  0  0  0  0  0
   38.3797   31.4904   50.8323 H   0  0  0  0  0  0  0  0  0  0  0  0
   36.8088   32.0135   51.4236 H   0  0  0  0  0  0  0  0  0  0  0  0
   37.9028   29.5170   52.0742 H   0  0  0  0  0  0  0  0  0  0  0  0
   36.1796   29.7120   52.0187 H   0  0  0  0  0  0  0  0  0  0  0  0
   36.6275   28.0185   50.3000 H   0  0  0  0  0  0  0  0  0  0  0  0
   38.0790   28.7920   49.7384 H   0  0  0  0  0  0  0  0  0  0  0  0
   34.9183   31.3673   47.6578 H   0  0  0  0  0  0  0  0  0  0  0  0
   33.0073   30.6929   46.1647 H   0  0  0  0  0  0  0  0  0  0  0  0
   33.3686   26.7294   47.7472 H   0  0  0  0  0  0  0  0  0  0  0  0
   40.1729   32.0429   47.6207 H   0  0  0  0  0  0  0  0  0  0  0  0
   41.2815   31.4150   45.5049 H   0  0  0  0  0  0  0  0  0  0  0  0
   40.0412   29.4324   41.5987 H   0  0  0  0  0  0  0  0  0  0  0  0
   37.6138   28.9177   41.8268 H   0  0  0  0  0  0  0  0  0  0  0  0
   36.4005   29.5032   43.9080 H   0  0  0  0  0  0  0  0  0  0  0  0
   36.5326   30.5275   46.2182 H   0  0  0  0  0  0  0  0  0  0  0  0
  1  2  1  0
  1  5  1  0
  2  3  1  0
  3  4  1  0
  5  4  1  0
  6 11  1  0
  6  1  1  0
  7  6  2  0
  8  9  2  0
  8  7  1  0
  9 10  1  0
 10 11  2  0
 12 13  2  0
 12  2  1  0
 14 12  1  0
 15 14  2  0
 16 15  1  0
 17 22  1  0
 17 16  2  0
 18 17  1  0
 19 20  1  0
 19 18  2  0
 20 21  2  0
 21 22  1  0
 22 23  2  0
 23 14  1  0
  2 24  1  1
  3 25  1  0
  3 26  1  0
  4 27  1  0
  4 28  1  0
  5 29  1  0
  5 30  1  0
  7 31  1  0
  8 32  1  0
 10 33  1  0
 15 34  1  0
 16 35  1  0
 19 36  1  0
 20 37  1  0
 21 38  1  0
 23 39  1  0
M  ISO  8  24  13  25  13  26  13  27  13  28  13  29  13  30  13  31  14
M  ISO  8  32  14  33  14  34  14  35  14  36  14  37  14  38  14  39  14
M  END
>  <minimizedAffinity>  (1) 
-6.27864265

>  <minimizedRMSD>  (1) 
1.77390349

$$$$
