
     RDKit          3D

 44 47  0  0  0  0  0  0  0  0999 V2000
   37.5609   30.8097   49.5031 C   0  0  0  0  0  0  0  0  0  0  0  0
   37.4783   32.1433   49.9124 C   0  0  0  0  0  0  0  0  0  0  0  0
   37.9348   33.1272   49.0065 C   0  0  0  0  0  0  0  0  0  0  0  0
   38.4154   32.7058   47.8161 N   0  0  0  0  0  0  0  0  0  0  0  0
   38.4765   31.4247   47.4603 C   0  0  0  0  0  0  0  0  0  0  0  0
   38.0507   30.4675   48.3002 N   0  0  0  0  0  0  0  0  0  0  0  0
   38.9830   31.1321   46.1688 N   0  0  0  0  0  0  0  0  0  0  0  0
   40.3843   30.8703   46.0041 C   0  0  0  0  0  0  0  0  0  0  0  0
   40.9214   31.5427   44.7556 C   0  0  0  0  0  0  0  0  0  0  0  0
   40.0963   31.2938   43.6255 N   0  0  0  0  0  0  0  0  0  0  0  0
   38.9394   30.4970   43.8581 C   0  0  0  0  0  0  0  0  0  0  0  0
   38.1251   31.0878   45.0202 C   0  0  2  0  0  0  0  0  0  0  0  0
   37.0969   29.7431   50.4522 C   0  0  0  0  0  0  0  0  0  0  0  0
   35.8062   29.3577   50.1283 F   0  0  0  0  0  0  0  0  0  0  0  0
   38.0199   28.7415   50.4385 F   0  0  0  0  0  0  0  0  0  0  0  0
   37.0160   30.3593   51.7230 F   0  0  0  0  0  0  0  0  0  0  0  0
   37.4207   32.2677   44.6522 C   0  0  0  0  0  0  0  0  0  0  0  0
   37.4641   32.6678   43.4729 O   0  0  0  0  0  0  0  0  0  0  0  0
   37.0820   32.3639   50.8736 H   0  0  0  0  0  0  0  0  0  0  0  0
   37.8752   34.1570   49.3125 H   0  0  0  0  0  0  0  0  0  0  0  0
   40.6466   29.8019   46.0596 H   0  0  0  0  0  0  0  0  0  0  0  0
   40.9398   31.3486   46.8512 H   0  0  0  0  0  0  0  0  0  0  0  0
   41.9144   31.0800   44.5637 H   0  0  0  0  0  0  0  0  0  0  0  0
   41.1304   32.6068   44.9639 H   0  0  0  0  0  0  0  0  0  0  0  0
   40.5811   31.0042   42.7692 H   0  0  0  0  0  0  0  0  0  0  0  0
   39.2532   29.4908   44.2071 H   0  0  0  0  0  0  0  0  0  0  0  0
   38.3639   30.3961   42.9415 H   0  0  0  0  0  0  0  0  0  0  0  0
   37.3575   30.2739   45.2637 H   0  0  0  0  0  0  0  0  0  0  0  0
   36.5666   33.3225   45.1152 C   0  0  0  0  0  0  0  0  0  0  0  0
   35.8238   33.3852   46.2671 C   0  0  0  0  0  0  0  0  0  0  0  0
   35.7703   32.5107   46.9325 H   0  0  0  0  0  0  0  0  0  0  0  0
   35.0912   34.5069   46.6851 C   0  0  0  0  0  0  0  0  0  0  0  0
   35.1130   35.6253   45.8929 C   0  0  0  0  0  0  0  0  0  0  0  0
   34.3928   36.6366   46.3649 N   0  0  0  0  0  0  0  0  0  0  0  0
   34.3501   37.7975   45.6477 C   0  0  0  0  0  0  0  0  0  0  0  0
   33.7752   38.6455   45.9971 H   0  0  0  0  0  0  0  0  0  0  0  0
   35.0481   37.8931   44.4621 C   0  0  0  0  0  0  0  0  0  0  0  0
   35.8105   36.8390   43.9513 C   0  0  0  0  0  0  0  0  0  0  0  0
   35.8154   35.7005   44.7139 C   0  0  0  0  0  0  0  0  0  0  0  0
   36.4868   34.5385   44.4221 C   0  0  0  0  0  0  0  0  0  0  0  0
   34.5501   34.4172   47.6153 H   0  0  0  0  0  0  0  0  0  0  0  0
   35.0325   38.8050   43.8699 H   0  0  0  0  0  0  0  0  0  0  0  0
   36.3734   36.8344   43.0502 H   0  0  0  0  0  0  0  0  0  0  0  0
   37.0507   34.6759   43.4807 H   0  0  0  0  0  0  0  0  0  0  0  0
  1  2  2  0
  1 13  1  0
  3  2  1  0
  4  3  2  0
  5  4  1  0
  5  6  2  0
  6  1  1  0
  7  5  1  0
  8  7  1  0
  9  8  1  0
 10 11  1  0
 10  9  1  0
 11 12  1  0
 12  7  1  0
 13 16  1  0
 14 13  1  0
 15 13  1  0
 17 12  1  0
 18 17  2  0
  2 19  1  0
  3 20  1  0
  8 21  1  0
  8 22  1  0
  9 23  1  0
  9 24  1  0
 10 25  1  0
 11 26  1  0
 11 27  1  0
 12 28  1  1
 29 30  2  0
 30 31  1  0
 30 32  1  0
 32 33  2  0
 33 34  1  0
 34 35  2  0
 35 36  1  0
 35 37  1  0
 37 38  2  0
 38 39  1  0
 39 40  2  0
 40 29  1  0
 39 33  1  0
 32 41  1  0
 37 42  1  0
 38 43  1  0
 40 44  1  0
 17 29  1  0
M  ISO  8  19  14  20  14  21  13  22  13  23  13  24  13  25   5  26  13
M  ISO  4  27  13  28  13  31  16  36  16
M  END
>  <DihAtoms>  (1) 
11,16,28,29

>  <DihDeg>  (1) 
163.699496699728

$$$$
