
     RDKit          3D

 36 39  0  0  0  0  0  0  0  0999 V2000
   35.8830   29.2480   49.7500 C   0  0  0  0  0  0  0  0  0  0  0  0
   34.8240   29.7610   50.4580 C   0  0  0  0  0  0  0  0  0  0  0  0
   33.6640   29.1440   49.9650 C   0  0  0  0  0  0  0  0  0  0  0  0
   34.1150   28.2810   48.9710 C   0  0  0  0  0  0  0  0  0  0  0  0
   35.4000   28.3930   48.9010 O   0  0  0  0  0  0  0  0  0  0  0  0
   37.2410   29.6730   50.0080 C   0  0  0  0  0  0  0  0  0  0  0  0
   37.8500   29.1790   50.9830 O   0  0  0  0  0  0  0  0  0  0  0  0
   37.8110   30.6550   49.1080 C   0  0  0  0  0  0  0  0  0  0  0  0
   38.1540   31.8900   49.6760 C   0  0  0  0  0  0  0  0  0  0  0  0
   38.7080   32.8590   48.8260 C   0  0  0  0  0  0  0  0  0  0  0  0
   38.8770   32.5380   47.5020 N   0  0  0  0  0  0  0  0  0  0  0  0
   38.5330   31.3440   47.0070 C   0  0  0  0  0  0  0  0  0  0  0  0
   38.0050   30.4090   47.7990 N   0  0  0  0  0  0  0  0  0  0  0  0
   33.2320   27.4220   48.1750 C   0  0  0  0  0  0  0  0  0  0  0  0
   32.0000   27.3280   48.4740 O   0  0  0  0  0  0  0  0  0  0  0  0
   33.6860   26.6470   47.0370 C   0  0  0  0  0  0  0  0  0  0  0  0
   33.6760   27.2900   45.7930 C   0  0  0  0  0  0  0  0  0  0  0  0
   34.1030   26.5910   44.6560 C   0  0  0  0  0  0  0  0  0  0  0  0
   34.5300   25.2850   44.7580 C   0  0  0  0  0  0  0  0  0  0  0  0
   34.9270   24.6600   43.6340 N   0  0  0  0  0  0  0  0  0  0  0  0
   35.3670   23.3700   43.6290 C   0  0  0  0  0  0  0  0  0  0  0  0
   35.3870   22.7170   44.8330 C   0  0  0  0  0  0  0  0  0  0  0  0
   34.9800   23.3450   45.9990 C   0  0  0  0  0  0  0  0  0  0  0  0
   34.5370   24.6510   45.9960 C   0  0  0  0  0  0  0  0  0  0  0  0
   34.1190   25.3390   47.1060 C   0  0  0  0  0  0  0  0  0  0  0  0
   34.8753   30.5128   51.2594 H   0  0  0  0  0  0  0  0  0  0  0  0
   32.6265   29.3068   50.2923 H   0  0  0  0  0  0  0  0  0  0  0  0
   37.9951   32.0913   50.7457 H   0  0  0  0  0  0  0  0  0  0  0  0
   38.9987   33.8481   49.2097 H   0  0  0  0  0  0  0  0  0  0  0  0
   38.6866   31.1312   45.9388 H   0  0  0  0  0  0  0  0  0  0  0  0
   33.3365   28.3329   45.7092 H   0  0  0  0  0  0  0  0  0  0  0  0
   34.0972   27.0886   43.6750 H   0  0  0  0  0  0  0  0  0  0  0  0
   35.6911   22.8761   42.7011 H   0  0  0  0  0  0  0  0  0  0  0  0
   35.7329   21.6737   44.8749 H   0  0  0  0  0  0  0  0  0  0  0  0
   35.0109   22.7897   46.9480 H   0  0  0  0  0  0  0  0  0  0  0  0
   34.1293   24.8320   48.0822 H   0  0  0  0  0  0  0  0  0  0  0  0
  1  6  1  0
  1  2  2  0
  3  2  1  0
  4  3  2  0
  5  4  1  0
  5  1  1  0
  6  7  2  0
  8  9  2  0
  8  6  1  0
 10  9  1  0
 11 10  2  0
 12 11  1  0
 12 13  2  0
 13  8  1  0
 14 15  2  0
 14  4  1  0
 16 25  1  0
 16 14  1  0
 17 16  2  0
 18 19  2  0
 18 17  1  0
 19 24  1  0
 20 19  1  0
 21 20  2  0
 21 22  1  0
 22 23  2  0
 24 23  1  0
 24 25  2  0
  2 26  1  0
  3 27  1  0
  9 28  1  0
 10 29  1  0
 12 30  1  0
 17 31  1  0
 18 32  1  0
 21 33  1  0
 22 34  1  0
 23 35  1  0
 25 36  1  0
M  ISO  8  26  14  27  14  28  14  29  14  30  14  31  14  32  14  33  14
M  ISO  3  34  14  35  14  36  14
M  END
>  <minimizedAffinity>  (1) 
-5.62423038

>  <minimizedRMSD>  (1) 
1.23538721

$$$$
