
     RDKit          3D

 38 41  0  0  0  0  0  0  0  0999 V2000
   34.3990   30.0810   46.2110 C   0  0  0  0  0  0  0  0  0  0  0  0
   33.0210   29.9960   46.1320 C   0  0  0  0  0  0  0  0  0  0  0  0
   32.3650   30.2090   44.9400 C   0  0  0  0  0  0  0  0  0  0  0  0
   33.0400   30.5170   43.7630 C   0  0  0  0  0  0  0  0  0  0  0  0
   34.4130   30.6050   43.8320 C   0  0  0  0  0  0  0  0  0  0  0  0
   35.0410   30.3880   45.0350 C   0  0  0  0  0  0  0  0  0  0  0  0
   36.4860   30.5290   44.9620 C   0  0  0  0  0  0  0  0  0  0  0  0
   37.2570   29.4910   44.4230 C   0  0  0  0  0  0  0  0  0  0  0  0
   38.6270   29.6240   44.3520 C   0  0  0  0  0  0  0  0  0  0  0  0
   39.2850   30.7530   44.7940 C   0  0  0  0  0  0  0  0  0  0  0  0
   40.6230   30.7750   44.6760 N   0  0  0  0  0  0  0  0  0  0  0  0
   41.3300   31.8350   45.0820 C   0  0  0  0  0  0  0  0  0  0  0  0
   40.6010   32.8920   45.6250 C   0  0  0  0  0  0  0  0  0  0  0  0
   39.2340   32.8840   45.7530 C   0  0  0  0  0  0  0  0  0  0  0  0
   38.5260   31.7640   45.3200 C   0  0  0  0  0  0  0  0  0  0  0  0
   37.1370   31.6550   45.4040 C   0  0  0  0  0  0  0  0  0  0  0  0
   36.6020   30.5150   49.1050 C   0  0  0  0  0  0  0  0  0  0  0  0
   36.3560   29.3660   49.8480 C   0  0  0  0  0  0  0  0  0  0  0  0
   35.4320   28.4450   49.3480 C   0  0  0  0  0  0  0  0  0  0  0  0
   34.8390   28.7410   48.1660 N   0  0  0  0  0  0  0  0  0  0  0  0
   35.0850   29.8510   47.4640 C   0  0  0  0  0  0  0  0  0  0  0  0
   35.9710   30.7410   47.9370 N   0  0  0  0  0  0  0  0  0  0  0  0
   37.5990   31.5150   49.6340 C   0  0  0  0  0  0  0  0  0  0  0  0
   38.6360   31.6770   48.7320 F   0  0  0  0  0  0  0  0  0  0  0  0
   36.9290   32.6730   49.8830 F   0  0  0  0  0  0  0  0  0  0  0  0
   38.1480   30.9770   50.7840 F   0  0  0  0  0  0  0  0  0  0  0  0
   32.4403   29.7547   47.0345 H   0  0  0  0  0  0  0  0  0  0  0  0
   31.2679   30.1329   44.9176 H   0  0  0  0  0  0  0  0  0  0  0  0
   32.5009   30.6830   42.8187 H   0  0  0  0  0  0  0  0  0  0  0  0
   35.0004   30.8464   42.9338 H   0  0  0  0  0  0  0  0  0  0  0  0
   36.7712   28.5740   44.0581 H   0  0  0  0  0  0  0  0  0  0  0  0
   39.2177   28.7991   43.9270 H   0  0  0  0  0  0  0  0  0  0  0  0
   42.4258   31.8709   44.9925 H   0  0  0  0  0  0  0  0  0  0  0  0
   41.1507   33.7804   45.9695 H   0  0  0  0  0  0  0  0  0  0  0  0
   38.7072   33.7455   46.1892 H   0  0  0  0  0  0  0  0  0  0  0  0
   36.5541   32.4843   45.8311 H   0  0  0  0  0  0  0  0  0  0  0  0
   36.8738   29.1872   50.8019 H   0  0  0  0  0  0  0  0  0  0  0  0
   35.1957   27.5181   49.8912 H   0  0  0  0  0  0  0  0  0  0  0  0
  1 21  1  0
  2  1  2  0
  3  2  1  0
  4  5  1  0
  4  3  2  0
  5  6  2  0
  6  1  1  0
  7  6  1  0
  7 16  1  0
  8  7  2  0
  9  8  1  0
  9 10  2  0
 10 15  1  0
 11 10  1  0
 11 12  2  0
 12 13  1  0
 13 14  2  0
 15 16  2  0
 15 14  1  0
 17 23  1  0
 17 18  2  0
 19 18  1  0
 20 19  2  0
 21 22  2  0
 21 20  1  0
 22 17  1  0
 23 25  1  0
 23 26  1  0
 24 23  1  0
  2 27  1  0
  3 28  1  0
  4 29  1  0
  5 30  1  0
  8 31  1  0
  9 32  1  0
 12 33  1  0
 13 34  1  0
 14 35  1  0
 16 36  1  0
 18 37  1  0
 19 38  1  0
M  ISO  8  27  14  28  14  29  14  30  14  31  14  32  14  33  14  34  14
M  ISO  4  35  14  36  14  37  14  38  14
M  END
>  <minimizedAffinity>  (1) 
-6.0684433

>  <minimizedRMSD>  (1) 
2.77674341

$$$$
