
     RDKit          3D

 35 38  0  0  0  0  0  0  0  0999 V2000
   37.5701   31.6542   48.9321 C   0  0  0  0  0  0  0  0  0  0  0  0
   38.1926   32.7190   49.5023 C   0  0  0  0  0  0  0  0  0  0  0  0
   39.0641   33.5569   48.8362 C   0  0  0  0  0  0  0  0  0  0  0  0
   39.3431   33.3323   47.5173 C   0  0  0  0  0  0  0  0  0  0  0  0
   38.6987   32.2349   46.9379 C   0  0  0  0  0  0  0  0  0  0  0  0
   37.8629   31.4589   47.6386 N   0  0  0  0  0  0  0  0  0  0  0  0
   36.9453   30.1670   50.8732 C   0  0  0  0  0  0  0  0  0  0  0  0
   36.6577   30.7903   49.6593 C   0  0  0  0  0  0  0  0  0  0  0  0
   35.3947   30.5638   49.1042 C   0  0  0  0  0  0  0  0  0  0  0  0
   34.5185   29.7532   49.7721 N   0  0  0  0  0  0  0  0  0  0  0  0
   34.8607   29.1765   50.9505 C   0  0  0  0  0  0  0  0  0  0  0  0
   36.0640   29.3780   51.5025 N   0  0  0  0  0  0  0  0  0  0  0  0
   40.1946   34.0700   46.6849 O   0  0  0  0  0  0  0  0  0  0  0  0
   38.0221   32.9624   50.5463 H   0  0  0  0  0  0  0  0  0  0  0  0
   39.5687   34.4101   49.2759 H   0  0  0  0  0  0  0  0  0  0  0  0
   38.8523   31.9734   45.9026 H   0  0  0  0  0  0  0  0  0  0  0  0
   37.9266   30.3633   51.2718 H   0  0  0  0  0  0  0  0  0  0  0  0
   35.1418   31.0347   48.1611 H   0  0  0  0  0  0  0  0  0  0  0  0
   34.0356   28.5779   51.3140 H   0  0  0  0  0  0  0  0  0  0  0  0
   41.5365   33.7988   46.5310 C   0  0  0  0  0  0  0  0  0  0  0  0
   42.1104   32.6195   46.0613 C   0  0  0  0  0  0  0  0  0  0  0  0
   41.4012   31.8483   45.7952 H   0  0  0  0  0  0  0  0  0  0  0  0
   43.4891   32.5065   45.9661 C   0  0  0  0  0  0  0  0  0  0  0  0
   44.3114   33.5567   46.3340 C   0  0  0  0  0  0  0  0  0  0  0  0
   45.6508   33.3481   46.2040 N   0  0  0  0  0  0  0  0  0  0  0  0
   46.5093   34.3458   46.5505 C   0  0  0  0  0  0  0  0  0  0  0  0
   47.5654   34.1039   46.4186 H   0  0  0  0  0  0  0  0  0  0  0  0
   46.0078   35.5487   47.0266 C   0  0  0  0  0  0  0  0  0  0  0  0
   44.6385   35.7277   47.1464 C   0  0  0  0  0  0  0  0  0  0  0  0
   43.7417   34.7309   46.8016 C   0  0  0  0  0  0  0  0  0  0  0  0
   42.3768   34.8273   46.8900 C   0  0  0  0  0  0  0  0  0  0  0  0
   43.8694   31.5639   45.5935 H   0  0  0  0  0  0  0  0  0  0  0  0
   46.7157   36.3077   47.2882 H   0  0  0  0  0  0  0  0  0  0  0  0
   44.2343   36.6542   47.5138 H   0  0  0  0  0  0  0  0  0  0  0  0
   42.0191   35.7846   47.2672 H   0  0  0  0  0  0  0  0  0  0  0  0
  1  2  2  0
  1  8  1  0
  3  2  1  0
  4  3  2  0
  5  4  1  0
  5  6  2  0
  6  1  1  0
  7 12  2  0
  8  7  1  0
  9  8  2  0
  9 10  1  0
 10 11  2  0
 11 12  1  0
 13  4  1  0
  2 14  1  0
  3 15  1  0
  5 16  1  0
  7 17  1  0
  9 18  1  0
 11 19  1  0
 20 21  2  0
 21 22  1  0
 21 23  1  0
 23 24  2  0
 24 25  1  0
 25 26  2  0
 26 27  1  0
 26 28  1  0
 28 29  2  0
 29 30  1  0
 30 31  2  0
 31 20  1  0
 30 24  1  0
 23 32  1  0
 28 33  1  0
 29 34  1  0
 31 35  1  0
 13 20  1  0
M  ISO  8  14  14  15  14  16  14  17  14  18  14  19  14  22  16  27  16
M  END
>  <DihAtoms>  (1) 
3,12,19,20

>  <DihDeg>  (1) 
0.0010057689879005099

$$$$
