
     RDKit          3D

 28 30  0  0  0  0  0  0  0  0999 V2000
   37.4180   29.3280   50.6840 C   0  0  0  0  0  0  0  0  0  0  0  0
   37.9850   30.6070   50.4850 C   0  0  0  0  0  0  0  0  0  0  0  0
   37.4230   31.4380   49.5200 C   0  0  0  0  0  0  0  0  0  0  0  0
   36.3510   30.9690   48.8130 N   0  0  0  0  0  0  0  0  0  0  0  0
   35.8360   29.7470   49.0280 C   0  0  0  0  0  0  0  0  0  0  0  0
   36.3730   28.9420   49.9580 N   0  0  0  0  0  0  0  0  0  0  0  0
   34.6840   29.2880   48.2440 C   0  0  0  0  0  0  0  0  0  0  0  0
   34.5720   29.6220   46.9160 C   0  0  0  0  0  0  0  0  0  0  0  0
   33.4790   29.1870   46.1750 C   0  0  0  0  0  0  0  0  0  0  0  0
   32.5100   28.4190   46.7880 C   0  0  0  0  0  0  0  0  0  0  0  0
   31.4350   27.9660   46.1410 N   0  0  0  0  0  0  0  0  0  0  0  0
   30.4900   27.2160   46.7370 C   0  0  0  0  0  0  0  0  0  0  0  0
   30.5500   26.8470   48.0860 C   0  0  0  0  0  0  0  0  0  0  0  0
   31.6660   27.3200   48.7440 C   0  0  0  0  0  0  0  0  0  0  0  0
   32.6300   28.0880   48.1220 C   0  0  0  0  0  0  0  0  0  0  0  0
   33.7020   28.5110   48.8590 C   0  0  0  0  0  0  0  0  0  0  0  0
   37.9990   32.7930   49.2870 C   0  0  0  0  0  0  0  0  0  0  0  0
   39.1610   32.8280   50.0050 F   0  0  0  0  0  0  0  0  0  0  0  0
   38.2890   33.0360   47.9690 F   0  0  0  0  0  0  0  0  0  0  0  0
   37.1610   33.7960   49.7670 F   0  0  0  0  0  0  0  0  0  0  0  0
   37.8416   28.6509   51.4404 H   0  0  0  0  0  0  0  0  0  0  0  0
   38.8499   30.9380   51.0786 H   0  0  0  0  0  0  0  0  0  0  0  0
   35.3496   30.2355   46.4375 H   0  0  0  0  0  0  0  0  0  0  0  0
   33.3876   29.4522   45.1114 H   0  0  0  0  0  0  0  0  0  0  0  0
   29.6321   26.8778   46.1374 H   0  0  0  0  0  0  0  0  0  0  0  0
   29.7779   26.2359   48.5763 H   0  0  0  0  0  0  0  0  0  0  0  0
   31.7933   27.0751   49.8088 H   0  0  0  0  0  0  0  0  0  0  0  0
   33.7886   28.2421   49.9221 H   0  0  0  0  0  0  0  0  0  0  0  0
  2  1  2  0
  3  2  1  0
  4  5  1  0
  4  3  2  0
  5  6  2  0
  6  1  1  0
  7 16  1  0
  7  5  1  0
  8  7  2  0
  9 10  2  0
  9  8  1  0
 10 15  1  0
 11 12  2  0
 11 10  1  0
 12 13  1  0
 13 14  2  0
 15 14  1  0
 15 16  2  0
 17  3  1  0
 17 20  1  0
 17 18  1  0
 19 17  1  0
  1 21  1  0
  2 22  1  0
  8 23  1  0
  9 24  1  0
 12 25  1  0
 13 26  1  0
 14 27  1  0
 16 28  1  0
M  ISO  8  21  14  22  14  23  14  24  14  25  14  26  14  27  14  28  14
M  END
>  <minimizedAffinity>  (1) 
-6.32020903

>  <minimizedRMSD>  (1) 
1.76445484

$$$$
