
     RDKit          3D

 39 43  0  0  0  0  0  0  0  0999 V2000
   36.8532   30.5358   46.8968 C   0  0  0  0  0  0  0  0  0  0  0  0
   37.5226   31.0298   48.0206 C   0  0  0  0  0  0  0  0  0  0  0  0
   38.5231   31.9980   47.9105 C   0  0  0  0  0  0  0  0  0  0  0  0
   38.7909   32.4217   46.6024 C   0  0  0  0  0  0  0  0  0  0  0  0
   39.7234   33.3611   46.2336 N   0  0  0  0  0  0  0  0  0  0  0  0
   39.6433   33.4563   44.9124 C   0  0  0  0  0  0  0  0  0  0  0  0
   38.7081   32.6260   44.4216 N   0  0  0  0  0  0  0  0  0  0  0  0
   38.1513   31.9591   45.4570 C   0  0  0  0  0  0  0  0  0  0  0  0
   37.1695   31.0008   45.6262 C   0  0  0  0  0  0  0  0  0  0  0  0
   37.3988   30.0790   51.6658 C   0  0  0  0  0  0  0  0  0  0  0  0
   37.8614   30.6185   50.4835 C   0  0  0  0  0  0  0  0  0  0  0  0
   37.1398   30.5023   49.3235 C   0  0  0  0  0  0  0  0  0  0  0  0
   35.9426   29.8272   49.3963 N   0  0  0  0  0  0  0  0  0  0  0  0
   35.4951   29.3020   50.5535 C   0  0  0  0  0  0  0  0  0  0  0  0
   36.2255   29.4352   51.6638 N   0  0  0  0  0  0  0  0  0  0  0  0
   40.4475   34.3194   44.1905 O   0  0  0  0  0  0  0  0  0  0  0  0
   36.0780   29.7874   46.9671 H   0  0  0  0  0  0  0  0  0  0  0  0
   39.0402   32.3825   48.7537 H   0  0  0  0  0  0  0  0  0  0  0  0
   40.3607   33.8859   46.8826 H   0  0  0  0  0  0  0  0  0  0  0  0
   36.6752   30.6420   44.7502 H   0  0  0  0  0  0  0  0  0  0  0  0
   37.9501   30.1592   52.5878 H   0  0  0  0  0  0  0  0  0  0  0  0
   38.7994   31.1466   50.4297 H   0  0  0  0  0  0  0  0  0  0  0  0
   34.5288   28.7859   50.4934 H   0  0  0  0  0  0  0  0  0  0  0  0
   41.3865   35.1390   44.7923 C   0  0  0  0  0  0  0  0  0  0  0  0
   42.5713   35.5732   44.2352 C   0  0  0  0  0  0  0  0  0  0  0  0
   42.7796   35.2380   43.2342 H   0  0  0  0  0  0  0  0  0  0  0  0
   43.4237   36.3891   44.9393 C   0  0  0  0  0  0  0  0  0  0  0  0
   43.1623   36.8208   46.2196 C   0  0  0  0  0  0  0  0  0  0  0  0
   44.0275   37.6177   46.8655 N   0  0  0  0  0  0  0  0  0  0  0  0
   43.7888   38.0534   48.1258 C   0  0  0  0  0  0  0  0  0  0  0  0
   44.4577   38.6964   48.6845 H   0  0  0  0  0  0  0  0  0  0  0  0
   42.6098   37.6334   48.7067 C   0  0  0  0  0  0  0  0  0  0  0  0
   41.6934   36.8103   48.0685 C   0  0  0  0  0  0  0  0  0  0  0  0
   41.9652   36.3755   46.7677 C   0  0  0  0  0  0  0  0  0  0  0  0
   41.0894   35.5545   46.0826 C   0  0  0  0  0  0  0  0  0  0  0  0
   44.3538   36.7277   44.4969 H   0  0  0  0  0  0  0  0  0  0  0  0
   42.3655   37.9508   49.7142 H   0  0  0  0  0  0  0  0  0  0  0  0
   40.7848   36.4980   48.5409 H   0  0  0  0  0  0  0  0  0  0  0  0
   40.1813   35.2593   46.5922 H   0  0  0  0  0  0  0  0  0  0  0  0
  1  2  2  0
  2 12  1  0
  3  2  1  0
  4  3  2  0
  5  4  1  0
  6  5  1  0
  7  6  2  0
  7  8  1  0
  8  9  2  0
  8  4  1  0
  9  1  1  0
 10 15  2  0
 11 10  1  0
 12 13  1  0
 12 11  2  0
 13 14  2  0
 14 15  1  0
 16  6  1  0
  1 17  1  0
  3 18  1  0
  5 19  1  0
  9 20  1  0
 10 21  1  0
 11 22  1  0
 14 23  1  0
 24 25  2  0
 25 26  1  0
 25 27  1  0
 27 28  2  0
 28 29  1  0
 29 30  2  0
 30 31  1  0
 30 32  1  0
 32 33  2  0
 33 34  1  0
 34 35  2  0
 35 24  1  0
 34 28  1  0
 27 36  1  0
 32 37  1  0
 33 38  1  0
 35 39  1  0
 16 24  1  0
M  ISO  8  17  14  18  14  19   9  20  14  21  14  22  14  23  14  26  16
M  ISO  1  31  16
M  END
>  <DihAtoms>  (1) 
5,15,23,24

>  <DihDeg>  (1) 
-90.00119853090422

$$$$
