
     RDKit          3D

 40 43  0  0  0  0  0  0  0  0999 V2000
   37.7100   31.7040   47.6380 C   0  0  0  0  0  0  0  0  0  0  0  0
   37.8960   32.4850   48.8010 C   0  0  0  0  0  0  0  0  0  0  0  0
   38.9120   33.4170   48.8690 C   0  0  0  0  0  0  0  0  0  0  0  0
   39.7120   33.5230   47.7410 C   0  0  0  0  0  0  0  0  0  0  0  0
   39.5090   32.7530   46.6270 C   0  0  0  0  0  0  0  0  0  0  0  0
   38.5140   31.8410   46.5580 N   0  0  0  0  0  0  0  0  0  0  0  0
   36.6260   30.7620   47.6590 C   0  0  0  0  0  0  0  0  0  0  0  0
   36.1150   30.3680   46.6150 O   0  0  0  0  0  0  0  0  0  0  0  0
   36.9540   29.6220   49.8190 C   0  0  0  0  0  0  0  0  0  0  0  0
   36.0720   30.2190   48.9010 C   0  0  0  0  0  0  0  0  0  0  0  0
   34.7060   30.2710   49.2060 C   0  0  0  0  0  0  0  0  0  0  0  0
   34.2800   29.7370   50.3890 N   0  0  0  0  0  0  0  0  0  0  0  0
   35.1650   29.1660   51.2590 C   0  0  0  0  0  0  0  0  0  0  0  0
   36.4730   29.1100   50.9780 N   0  0  0  0  0  0  0  0  0  0  0  0
   40.5630   32.9400   45.1880 S   0  0  0  0  0  0  0  0  0  0  0  0
   39.5080   32.7020   43.7440 C   0  0  0  0  0  0  0  0  0  0  0  0
   39.6360   31.3850   43.0910 C   0  0  0  0  0  0  0  0  0  0  0  0
   40.1360   31.4080   41.7770 C   0  0  0  0  0  0  0  0  0  0  0  0
   40.3080   30.3050   40.9700 C   0  0  0  0  0  0  0  0  0  0  0  0
   39.9640   29.0860   41.4880 C   0  0  0  0  0  0  0  0  0  0  0  0
   40.1170   27.9900   40.7100 N   0  0  0  0  0  0  0  0  0  0  0  0
   39.8000   26.7410   41.1270 C   0  0  0  0  0  0  0  0  0  0  0  0
   39.3060   26.6730   42.4130 C   0  0  0  0  0  0  0  0  0  0  0  0
   39.1400   27.7680   43.2230 C   0  0  0  0  0  0  0  0  0  0  0  0
   39.4720   29.0250   42.7690 C   0  0  0  0  0  0  0  0  0  0  0  0
   39.3090   30.1300   43.5590 C   0  0  0  0  0  0  0  0  0  0  0  0
   37.2240   32.3488   49.6612 H   0  0  0  0  0  0  0  0  0  0  0  0
   39.0769   34.0372   49.7624 H   0  0  0  0  0  0  0  0  0  0  0  0
   40.5374   34.2501   47.7413 H   0  0  0  0  0  0  0  0  0  0  0  0
   38.0302   29.5707   49.5973 H   0  0  0  0  0  0  0  0  0  0  0  0
   33.9916   30.7319   48.5080 H   0  0  0  0  0  0  0  0  0  0  0  0
   34.7969   28.7451   52.2063 H   0  0  0  0  0  0  0  0  0  0  0  0
   38.4620   32.8260   44.0610 H   0  0  0  0  0  0  0  0  0  0  0  0
   39.8293   33.4470   43.0012 H   0  0  0  0  0  0  0  0  0  0  0  0
   40.4125   32.3873   41.3592 H   0  0  0  0  0  0  0  0  0  0  0  0
   40.7063   30.4003   39.9491 H   0  0  0  0  0  0  0  0  0  0  0  0
   39.9264   25.8523   40.4912 H   0  0  0  0  0  0  0  0  0  0  0  0
   39.0296   25.6857   42.8115 H   0  0  0  0  0  0  0  0  0  0  0  0
   38.7399   27.6412   44.2398 H   0  0  0  0  0  0  0  0  0  0  0  0
   38.9127   30.0159   44.5788 H   0  0  0  0  0  0  0  0  0  0  0  0
  1  7  1  0
  1  2  2  0
  2  3  1  0
  4  3  2  0
  5  4  1  0
  6  5  2  0
  6  1  1  0
  7 10  1  0
  8  7  2  0
  9 14  2  0
 10 11  2  0
 10  9  1  0
 11 12  1  0
 12 13  2  0
 14 13  1  0
 15  5  1  0
 16 15  1  0
 17 26  1  0
 17 16  1  0
 18 17  2  0
 19 20  2  0
 19 18  1  0
 20 25  1  0
 21 22  2  0
 21 20  1  0
 22 23  1  0
 23 24  2  0
 25 24  1  0
 25 26  2  0
  2 27  1  0
  3 28  1  0
  4 29  1  0
  9 30  1  0
 11 31  1  0
 13 32  1  0
 16 33  1  0
 16 34  1  0
 18 35  1  0
 19 36  1  0
 22 37  1  0
 23 38  1  0
 24 39  1  0
 26 40  1  0
M  ISO  8  27  14  28  14  29  14  30  14  31  14  32  14  33   8  34   8
M  ISO  6  35  14  36  14  37  14  38  14  39  14  40  14
M  END
>  <minimizedAffinity>  (1) 
-6.05320978

>  <minimizedRMSD>  (1) 
1.89835739

$$$$
