
     RDKit          3D

 53 57  0  0  0  0  0  0  0  0999 V2000
   33.4080   27.9740   47.5200 C   0  0  0  0  0  0  0  0  0  0  0  0
   31.9440   28.0440   47.7860 C   0  0  0  0  0  0  0  0  0  0  0  0
   31.5090   27.6570   49.0390 C   0  0  0  0  0  0  0  0  0  0  0  0
   30.1730   27.6850   49.3870 C   0  0  0  0  0  0  0  0  0  0  0  0
   29.2790   28.0990   48.4880 N   0  0  0  0  0  0  0  0  0  0  0  0
   29.7180   28.4770   47.2610 C   0  0  0  0  0  0  0  0  0  0  0  0
   31.0130   28.4560   46.9050 N   0  0  0  0  0  0  0  0  0  0  0  0
   28.7010   28.9330   46.2760 C   0  0  0  0  0  0  0  0  0  0  0  0
   28.2150   27.7920   45.4330 C   0  0  0  0  0  0  0  0  0  0  0  0
   28.9140   26.6130   45.2860 C   0  0  0  0  0  0  0  0  0  0  0  0
   28.3500   25.6420   44.4770 C   0  0  0  0  0  0  0  0  0  0  0  0
   27.1320   25.8310   43.8330 C   0  0  0  0  0  0  0  0  0  0  0  0
   26.5920   24.8880   43.0540 N   0  0  0  0  0  0  0  0  0  0  0  0
   25.4080   25.1200   42.4510 C   0  0  0  0  0  0  0  0  0  0  0  0
   24.6920   26.3090   42.5940 C   0  0  0  0  0  0  0  0  0  0  0  0
   25.2220   27.2850   43.3840 C   0  0  0  0  0  0  0  0  0  0  0  0
   26.4360   27.0290   43.9930 C   0  0  0  0  0  0  0  0  0  0  0  0
   26.9910   27.9850   44.7880 C   0  0  0  0  0  0  0  0  0  0  0  0
   34.1840   29.0230   48.2460 C   0  0  0  0  0  0  0  0  0  0  0  0
   34.9970   28.4650   49.2610 O   0  0  0  0  0  0  0  0  0  0  0  0
   37.2820   30.1150   51.5070 C   0  0  0  0  0  0  0  0  0  0  0  0
   38.0550   30.8620   50.5840 C   0  0  0  0  0  0  0  0  0  0  0  0
   37.7260   30.7380   49.2370 C   0  0  0  0  0  0  0  0  0  0  0  0
   36.6830   29.9030   48.9400 N   0  0  0  0  0  0  0  0  0  0  0  0
   35.9720   29.2130   49.8260 C   0  0  0  0  0  0  0  0  0  0  0  0
   36.2810   29.3250   51.1320 N   0  0  0  0  0  0  0  0  0  0  0  0
   38.8240   33.4150   49.2060 F   0  0  0  0  0  0  0  0  0  0  0  0
   38.9160   32.6570   48.1210 C   0  0  0  0  0  0  0  0  0  0  0  0
   38.3990   31.4170   48.1610 C   0  0  0  0  0  0  0  0  0  0  0  0
   38.5490   30.7020   46.9660 C   0  0  0  0  0  0  0  0  0  0  0  0
   39.1690   31.2300   45.8680 C   0  0  0  0  0  0  0  0  0  0  0  0
   39.6820   32.5080   45.8810 C   0  0  0  0  0  0  0  0  0  0  0  0
   39.5440   33.2130   47.0320 C   0  0  0  0  0  0  0  0  0  0  0  0
   33.7746   26.9859   47.8350 H   0  0  0  0  0  0  0  0  0  0  0  0
   33.5550   28.1425   46.4430 H   0  0  0  0  0  0  0  0  0  0  0  0
   32.2475   27.3171   49.7800 H   0  0  0  0  0  0  0  0  0  0  0  0
   29.8509   27.3706   50.3907 H   0  0  0  0  0  0  0  0  0  0  0  0
   27.8479   29.3690   46.8164 H   0  0  0  0  0  0  0  0  0  0  0  0
   29.1648   29.6813   45.6165 H   0  0  0  0  0  0  0  0  0  0  0  0
   29.8783   26.4510   45.7899 H   0  0  0  0  0  0  0  0  0  0  0  0
   28.8826   24.6895   44.3389 H   0  0  0  0  0  0  0  0  0  0  0  0
   24.9846   24.3303   41.8129 H   0  0  0  0  0  0  0  0  0  0  0  0
   23.7282   26.4544   42.0842 H   0  0  0  0  0  0  0  0  0  0  0  0
   24.7018   28.2429   43.5317 H   0  0  0  0  0  0  0  0  0  0  0  0
   26.4595   28.9381   44.9265 H   0  0  0  0  0  0  0  0  0  0  0  0
   34.8255   29.5534   47.5269 H   0  0  0  0  0  0  0  0  0  0  0  0
   33.4690   29.7118   48.7197 H   0  0  0  0  0  0  0  0  0  0  0  0
   37.5201   30.1920   52.5782 H   0  0  0  0  0  0  0  0  0  0  0  0
   38.8784   31.5110   50.9169 H   0  0  0  0  0  0  0  0  0  0  0  0
   38.1531   29.6773   46.9089 H   0  0  0  0  0  0  0  0  0  0  0  0
   39.2600   30.6219   44.9559 H   0  0  0  0  0  0  0  0  0  0  0  0
   40.1804   32.9372   44.9993 H   0  0  0  0  0  0  0  0  0  0  0  0
   39.9380   34.2381   47.0942 H   0  0  0  0  0  0  0  0  0  0  0  0
  1  2  1  0
  1 19  1  0
  2  3  2  0
  3  4  1  0
  5  4  2  0
  6  5  1  0
  7  6  2  0
  7  2  1  0
  8  6  1  0
  9  8  1  0
 10  9  2  0
 11 10  1  0
 12 17  1  0
 12 11  2  0
 13 12  1  0
 14 15  1  0
 14 13  2  0
 15 16  2  0
 16 17  1  0
 17 18  2  0
 18  9  1  0
 19 20  1  0
 20 25  1  0
 22 21  2  0
 23 22  1  0
 24 23  2  0
 24 25  1  0
 25 26  2  0
 26 21  1  0
 28 29  2  0
 28 27  1  0
 29 23  1  0
 30 29  1  0
 31 32  1  0
 31 30  2  0
 32 33  2  0
 33 28  1  0
  1 34  1  0
  1 35  1  0
  3 36  1  0
  4 37  1  0
  8 38  1  0
  8 39  1  0
 10 40  1  0
 11 41  1  0
 14 42  1  0
 15 43  1  0
 16 44  1  0
 18 45  1  0
 19 46  1  0
 19 47  1  0
 21 48  1  0
 22 49  1  0
 30 50  1  0
 31 51  1  0
 32 52  1  0
 33 53  1  0
M  ISO  8  34   8  35   8  36  14  37  14  38   8  39   8  40  14  41  14
M  ISO  8  42  14  43  14  44  14  45  14  46   8  47   8  48  14  49  14
M  ISO  4  50  14  51  14  52  14  53  14
M  END
>  <minimizedAffinity>  (1) 
-7.20351601

>  <minimizedRMSD>  (1) 
1.55756569

$$$$
