
     RDKit          3D

 34 37  0  0  0  0  0  0  0  0999 V2000
   37.5116   30.4364   50.9183 C   0  0  0  0  0  0  0  0  0  0  0  0
   37.1948   31.0626   49.7044 C   0  0  0  0  0  0  0  0  0  0  0  0
   35.9641   30.7754   49.1432 C   0  0  0  0  0  0  0  0  0  0  0  0
   35.1292   29.9090   49.7886 N   0  0  0  0  0  0  0  0  0  0  0  0
   35.4749   29.3320   50.9508 C   0  0  0  0  0  0  0  0  0  0  0  0
   36.6683   29.5877   51.5298 N   0  0  0  0  0  0  0  0  0  0  0  0
   38.0795   31.9848   49.0142 C   0  0  0  0  0  0  0  0  0  0  0  0
   38.5466   33.1445   49.5714 C   0  0  0  0  0  0  0  0  0  0  0  0
   39.3859   34.0346   48.9375 C   0  0  0  0  0  0  0  0  0  0  0  0
   39.7977   33.7650   47.6587 C   0  0  0  0  0  0  0  0  0  0  0  0
   39.3191   32.5854   47.0996 C   0  0  0  0  0  0  0  0  0  0  0  0
   38.5033   31.7507   47.7575 N   0  0  0  0  0  0  0  0  0  0  0  0
   38.4989   30.7314   51.2699 H   0  0  0  0  0  0  0  0  0  0  0  0
   35.6066   31.2041   48.1981 H   0  0  0  0  0  0  0  0  0  0  0  0
   34.8499   28.6401   51.5001 H   0  0  0  0  0  0  0  0  0  0  0  0
   38.2503   33.4091   50.5881 H   0  0  0  0  0  0  0  0  0  0  0  0
   39.7589   34.9511   49.3699 H   0  0  0  0  0  0  0  0  0  0  0  0
   39.6031   32.3044   46.0879 H   0  0  0  0  0  0  0  0  0  0  0  0
   40.6762   34.5737   46.8267 C   0  0  0  0  0  0  0  0  0  0  0  0
   40.6291   34.6667   45.4500 C   0  0  0  0  0  0  0  0  0  0  0  0
   39.8754   34.0893   44.9506 H   0  0  0  0  0  0  0  0  0  0  0  0
   41.5537   35.4915   44.8476 C   0  0  0  0  0  0  0  0  0  0  0  0
   42.5027   36.2121   45.5433 C   0  0  0  0  0  0  0  0  0  0  0  0
   43.3560   36.9860   44.8540 N   0  0  0  0  0  0  0  0  0  0  0  0
   44.3130   37.7192   45.4855 C   0  0  0  0  0  0  0  0  0  0  0  0
   44.9574   38.3150   44.8484 H   0  0  0  0  0  0  0  0  0  0  0  0
   44.3976   37.6566   46.8695 C   0  0  0  0  0  0  0  0  0  0  0  0
   43.4947   36.8426   47.5476 C   0  0  0  0  0  0  0  0  0  0  0  0
   42.5274   36.1007   46.9169 C   0  0  0  0  0  0  0  0  0  0  0  0
   41.6251   35.2902   47.5625 C   0  0  0  0  0  0  0  0  0  0  0  0
   41.5212   35.5697   43.7527 H   0  0  0  0  0  0  0  0  0  0  0  0
   45.1467   38.2308   47.3597 H   0  0  0  0  0  0  0  0  0  0  0  0
   43.5613   36.7931   48.6405 H   0  0  0  0  0  0  0  0  0  0  0  0
   41.7236   35.2688   48.6380 H   0  0  0  0  0  0  0  0  0  0  0  0
  1  6  2  0
  2  1  1  0
  3  2  2  0
  3  4  1  0
  4  5  2  0
  5  6  1  0
  7  8  2  0
  7  2  1  0
  9  8  1  0
 10  9  2  0
 11 10  1  0
 11 12  2  0
 12  7  1  0
  1 13  1  0
  3 14  1  0
  5 15  1  0
  8 16  1  0
  9 17  1  0
 11 18  1  0
 19 20  2  0
 20 21  1  0
 20 22  1  0
 22 23  2  0
 23 24  1  0
 24 25  2  0
 25 26  1  0
 25 27  1  0
 27 28  2  0
 28 29  1  0
 29 30  2  0
 30 19  1  0
 29 23  1  0
 22 31  1  0
 27 32  1  0
 28 33  1  0
 30 34  1  0
 10 19  1  0
M  ISO  8  13  14  14  14  15  14  16  14  17  14  18  14  21  16  26  16
M  END
>  <DihAtoms>  (1) 
8,9,18,19

>  <DihDeg>  (1) 
-148.8906529189069

$$$$
