
     RDKit          3D

 34 37  0  0  0  0  0  0  0  0999 V2000
   37.5116   30.4364   50.9183 C   0  0  0  0  0  0  0  0  0  0  0  0
   37.1948   31.0626   49.7044 C   0  0  0  0  0  0  0  0  0  0  0  0
   35.9641   30.7754   49.1432 C   0  0  0  0  0  0  0  0  0  0  0  0
   35.1292   29.9090   49.7886 N   0  0  0  0  0  0  0  0  0  0  0  0
   35.4749   29.3320   50.9508 C   0  0  0  0  0  0  0  0  0  0  0  0
   36.6683   29.5877   51.5298 N   0  0  0  0  0  0  0  0  0  0  0  0
   38.0795   31.9848   49.0142 C   0  0  0  0  0  0  0  0  0  0  0  0
   38.5466   33.1445   49.5714 C   0  0  0  0  0  0  0  0  0  0  0  0
   39.3859   34.0346   48.9375 C   0  0  0  0  0  0  0  0  0  0  0  0
   39.7977   33.7650   47.6587 C   0  0  0  0  0  0  0  0  0  0  0  0
   39.3191   32.5854   47.0996 C   0  0  0  0  0  0  0  0  0  0  0  0
   38.5033   31.7507   47.7575 N   0  0  0  0  0  0  0  0  0  0  0  0
   38.4989   30.7314   51.2699 H   0  0  0  0  0  0  0  0  0  0  0  0
   35.6066   31.2041   48.1981 H   0  0  0  0  0  0  0  0  0  0  0  0
   34.8499   28.6401   51.5001 H   0  0  0  0  0  0  0  0  0  0  0  0
   38.2503   33.4091   50.5881 H   0  0  0  0  0  0  0  0  0  0  0  0
   39.7589   34.9511   49.3699 H   0  0  0  0  0  0  0  0  0  0  0  0
   39.6031   32.3044   46.0879 H   0  0  0  0  0  0  0  0  0  0  0  0
   40.6762   34.5737   46.8267 C   0  0  0  0  0  0  0  0  0  0  0  0
   41.2739   35.7623   47.1957 C   0  0  0  0  0  0  0  0  0  0  0  0
   41.0705   36.1201   48.1864 H   0  0  0  0  0  0  0  0  0  0  0  0
   42.0744   36.3766   46.2577 C   0  0  0  0  0  0  0  0  0  0  0  0
   42.3001   35.8682   44.9950 C   0  0  0  0  0  0  0  0  0  0  0  0
   43.0993   36.5507   44.1598 N   0  0  0  0  0  0  0  0  0  0  0  0
   43.3584   36.0988   42.9025 C   0  0  0  0  0  0  0  0  0  0  0  0
   44.0150   36.7152   42.2984 H   0  0  0  0  0  0  0  0  0  0  0  0
   42.7788   34.9076   42.4882 C   0  0  0  0  0  0  0  0  0  0  0  0
   41.9564   34.2298   43.3837 C   0  0  0  0  0  0  0  0  0  0  0  0
   41.6909   34.6800   44.6528 C   0  0  0  0  0  0  0  0  0  0  0  0
   40.8835   34.0305   45.5550 C   0  0  0  0  0  0  0  0  0  0  0  0
   42.5526   37.3224   46.5454 H   0  0  0  0  0  0  0  0  0  0  0  0
   42.9835   34.5574   41.5050 H   0  0  0  0  0  0  0  0  0  0  0  0
   41.4987   33.2891   43.0567 H   0  0  0  0  0  0  0  0  0  0  0  0
   40.4518   33.1081   45.1949 H   0  0  0  0  0  0  0  0  0  0  0  0
  1  6  2  0
  2  1  1  0
  3  2  2  0
  3  4  1  0
  4  5  2  0
  5  6  1  0
  7  8  2  0
  7  2  1  0
  9  8  1  0
 10  9  2  0
 11 10  1  0
 11 12  2  0
 12  7  1  0
  1 13  1  0
  3 14  1  0
  5 15  1  0
  8 16  1  0
  9 17  1  0
 11 18  1  0
 19 20  2  0
 20 21  1  0
 20 22  1  0
 22 23  2  0
 23 24  1  0
 24 25  2  0
 25 26  1  0
 25 27  1  0
 27 28  2  0
 28 29  1  0
 29 30  2  0
 30 19  1  0
 29 23  1  0
 22 31  1  0
 27 32  1  0
 28 33  1  0
 30 34  1  0
 10 19  1  0
M  ISO  8  13  14  14  14  15  14  16  14  17  14  18  14  21  16  26  16
M  END
>  <DihAtoms>  (1) 
8,9,18,19

>  <DihDeg>  (1) 
-148.8906529189069

$$$$
