
     RDKit          3D

 44 47  0  0  0  0  0  0  0  0999 V2000
   37.0645   30.0732   48.9481 C   0  0  0  0  0  0  0  0  0  0  0  0
   38.0301   30.7181   48.1394 C   0  0  0  0  0  0  0  0  0  0  0  0
   37.6904   31.0162   46.8203 C   0  0  0  0  0  0  0  0  0  0  0  0
   36.4636   30.6765   46.3832 N   0  0  0  0  0  0  0  0  0  0  0  0
   35.5425   30.0541   47.1769 C   0  0  0  0  0  0  0  0  0  0  0  0
   35.8622   29.7608   48.4569 N   0  0  0  0  0  0  0  0  0  0  0  0
   38.6047   31.6547   45.9693 N   0  0  0  0  0  0  0  0  0  0  0  0
   39.6578   32.5658   46.4084 C   0  0  0  0  0  0  0  0  0  0  0  0
   40.2112   33.2070   45.1763 C   0  0  0  0  0  0  0  0  0  0  0  0
   39.1617   32.9578   44.1673 C   0  0  0  0  0  0  0  0  0  0  0  0
   38.7181   31.5718   44.5536 C   0  0  2  0  0  0  0  0  0  0  0  0
   37.5305   31.1172   43.7801 C   0  0  0  0  0  0  0  0  0  0  0  0
   36.5514   32.0897   43.9565 F   0  0  0  0  0  0  0  0  0  0  0  0
   36.9845   29.9323   44.1634 F   0  0  0  0  0  0  0  0  0  0  0  0
   37.8720   31.1628   42.4429 F   0  0  0  0  0  0  0  0  0  0  0  0
   39.8172   30.5990   44.2712 C   0  0  0  0  0  0  0  0  0  0  0  0
   39.4795   29.5048   44.7190 O   0  0  0  0  0  0  0  0  0  0  0  0
   37.2666   29.8141   49.9824 H   0  0  0  0  0  0  0  0  0  0  0  0
   38.9946   30.9615   48.5554 H   0  0  0  0  0  0  0  0  0  0  0  0
   34.5916   29.8367   46.6978 H   0  0  0  0  0  0  0  0  0  0  0  0
   39.1519   33.2949   47.0886 H   0  0  0  0  0  0  0  0  0  0  0  0
   40.4768   32.0392   46.9348 H   0  0  0  0  0  0  0  0  0  0  0  0
   40.2005   34.3147   45.3729 H   0  0  0  0  0  0  0  0  0  0  0  0
   41.2384   32.9792   44.9187 H   0  0  0  0  0  0  0  0  0  0  0  0
   39.4736   33.0403   43.1235 H   0  0  0  0  0  0  0  0  0  0  0  0
   38.2936   33.6352   44.3753 H   0  0  0  0  0  0  0  0  0  0  0  0
   39.9634   30.6435   43.1519 H   0  0  0  0  0  0  0  0  0  0  0  0
   40.7779   31.0088   44.6599 H   0  0  0  0  0  0  0  0  0  0  0  0
   40.2521   28.3285   44.6481 C   0  0  0  0  0  0  0  0  0  0  0  0
   39.5578   27.1471   44.9181 C   0  0  0  0  0  0  0  0  0  0  0  0
   38.4952   27.1272   45.1665 H   0  0  0  0  0  0  0  0  0  0  0  0
   40.2092   25.9472   44.8775 C   0  0  0  0  0  0  0  0  0  0  0  0
   41.5362   25.9230   44.5717 C   0  0  0  0  0  0  0  0  0  0  0  0
   42.1706   24.7324   44.5343 N   0  0  0  0  0  0  0  0  0  0  0  0
   43.4737   24.6720   44.2374 C   0  0  0  0  0  0  0  0  0  0  0  0
   44.0330   23.7368   44.1938 H   0  0  0  0  0  0  0  0  0  0  0  0
   44.1960   25.8307   43.9629 C   0  0  0  0  0  0  0  0  0  0  0  0
   43.5344   27.0259   44.0064 C   0  0  0  0  0  0  0  0  0  0  0  0
   42.1896   27.0993   44.3117 C   0  0  0  0  0  0  0  0  0  0  0  0
   41.5854   28.3570   44.3361 C   0  0  0  0  0  0  0  0  0  0  0  0
   39.6925   25.0189   45.0829 H   0  0  0  0  0  0  0  0  0  0  0  0
   45.2544   25.8110   43.7192 H   0  0  0  0  0  0  0  0  0  0  0  0
   44.1041   27.9400   43.7899 H   0  0  0  0  0  0  0  0  0  0  0  0
   42.0842   29.2788   44.1354 H   0  0  0  0  0  0  0  0  0  0  0  0
  2  1  2  0
  3  2  1  0
  4  3  2  0
  4  5  1  0
  5  6  2  0
  6  1  1  0
  7  8  1  0
  7  3  1  0
  9  8  1  0
 10 11  1  0
 10  9  1  0
 11 16  1  1
 11  7  1  0
 12 13  1  0
 12 14  1  0
 12 11  1  0
 15 12  1  0
 16 17  1  0
  1 18  1  0
  2 19  1  0
  5 20  1  0
  8 21  1  0
  8 22  1  0
  9 23  1  0
  9 24  1  0
 10 25  1  0
 10 26  1  0
 16 27  1  0
 16 28  1  0
 29 30  2  0
 30 31  1  0
 30 32  1  0
 32 33  2  0
 33 34  1  0
 34 35  2  0
 35 36  1  0
 35 37  1  0
 37 38  2  0
 38 39  1  0
 39 40  2  0
 40 29  1  0
 39 33  1  0
 32 41  1  0
 37 42  1  0
 38 43  1  0
 40 44  1  0
 17 29  1  0
M  ISO  8  18  14  19  14  20  14  21  13  22  13  23  13  24  13  25  13
M  ISO  5  26  13  27   8  28   8  31  16  36  16
M  END
>  <DihAtoms>  (1) 
15,16,28,29

>  <DihDeg>  (1) 
0.00040357367898662106

$$$$
