
     RDKit          3D

 33 36  0  0  1  0  0  0  0  0999 V2000
   37.0320   30.8840   50.6270 C   0  0  1  0  0  0  0  0  0  0  0  0
   36.2350   29.6790   50.5490 C   0  0  2  0  0  0  0  0  0  0  0  0
   37.6120   29.5740   51.1740 C   0  0  0  0  0  0  0  0  0  0  0  0
   37.8010   31.3880   49.4260 C   0  0  0  0  0  0  0  0  0  0  0  0
   38.2360   32.7120   49.4980 C   0  0  0  0  0  0  0  0  0  0  0  0
   38.9240   33.1730   48.3700 C   0  0  0  0  0  0  0  0  0  0  0  0
   39.1330   32.3560   47.3050 N   0  0  0  0  0  0  0  0  0  0  0  0
   38.6880   31.0650   47.2810 C   0  0  0  0  0  0  0  0  0  0  0  0
   38.0130   30.5750   48.3570 N   0  0  0  0  0  0  0  0  0  0  0  0
   36.1010   29.0260   49.3170 O   0  0  0  0  0  0  0  0  0  0  0  0
   34.9100   28.8390   48.6630 C   0  0  0  0  0  0  0  0  0  0  0  0
   34.7480   29.7790   47.6520 C   0  0  0  0  0  0  0  0  0  0  0  0
   33.6210   29.8080   46.8350 C   0  0  0  0  0  0  0  0  0  0  0  0
   32.6390   28.8630   47.0510 C   0  0  0  0  0  0  0  0  0  0  0  0
   31.5220   28.8480   46.2830 N   0  0  0  0  0  0  0  0  0  0  0  0
   30.5580   27.9100   46.5050 C   0  0  0  0  0  0  0  0  0  0  0  0
   30.7090   26.9590   47.5180 C   0  0  0  0  0  0  0  0  0  0  0  0
   31.8320   26.9530   48.3090 C   0  0  0  0  0  0  0  0  0  0  0  0
   32.7850   27.9090   48.0630 C   0  0  0  0  0  0  0  0  0  0  0  0
   33.9140   27.9130   48.8490 C   0  0  0  0  0  0  0  0  0  0  0  0
   36.7823   31.8910   50.9924 H   0  0  0  0  0  0  0  0  0  0  0  0
   35.2045   29.4542   50.8613 H   0  0  0  0  0  0  0  0  0  0  0  0
   38.4283   29.0601   50.6452 H   0  0  0  0  0  0  0  0  0  0  0  0
   38.0287   29.2248   52.1303 H   0  0  0  0  0  0  0  0  0  0  0  0
   38.0516   33.3469   50.3772 H   0  0  0  0  0  0  0  0  0  0  0  0
   39.2991   34.2068   48.3455 H   0  0  0  0  0  0  0  0  0  0  0  0
   38.8727   30.4288   46.4029 H   0  0  0  0  0  0  0  0  0  0  0  0
   35.5386   30.5268   47.4916 H   0  0  0  0  0  0  0  0  0  0  0  0
   33.5165   30.5619   46.0408 H   0  0  0  0  0  0  0  0  0  0  0  0
   29.6524   27.9015   45.8807 H   0  0  0  0  0  0  0  0  0  0  0  0
   29.9217   26.2088   47.6833 H   0  0  0  0  0  0  0  0  0  0  0  0
   31.9624   26.2098   49.1094 H   0  0  0  0  0  0  0  0  0  0  0  0
   34.0207   27.1588   49.6426 H   0  0  0  0  0  0  0  0  0  0  0  0
  1  3  1  0
  2  1  1  0
  2  3  1  0
  4  5  2  0
  4  1  1  0
  6  5  1  0
  7  6  2  0
  8  7  1  0
  8  9  2  0
  9  4  1  0
 10  2  1  0
 11 20  1  0
 11 10  1  0
 12 11  2  0
 13 14  2  0
 13 12  1  0
 14 19  1  0
 15 16  2  0
 15 14  1  0
 16 17  1  0
 17 18  2  0
 19 18  1  0
 19 20  2  0
  1 21  1  1
  2 22  1  1
  3 23  1  0
  3 24  1  0
  5 25  1  0
  6 26  1  0
  8 27  1  0
 12 28  1  0
 13 29  1  0
 16 30  1  0
 17 31  1  0
 18 32  1  0
 20 33  1  0
M  ISO  8  21  13  22  13  23  13  24  13  25  14  26  14  27  14  28  14
M  ISO  5  29  14  30  14  31  14  32  14  33  14
M  END
>  <minimizedAffinity>  (1) 
-6.10980034

>  <minimizedRMSD>  (1) 
2.45802259

$$$$
