
     RDKit          3D

 48 52  0  0  0  0  0  0  0  0999 V2000
   34.3020   28.5100   48.7100 C   0  0  0  0  0  0  0  0  0  0  0  0
   33.9720   28.9960   47.4000 C   0  0  0  0  0  0  0  0  0  0  0  0
   32.6790   29.0060   46.9530 C   0  0  0  0  0  0  0  0  0  0  0  0
   32.3370   29.4790   45.6740 C   0  0  0  0  0  0  0  0  0  0  0  0
   33.4080   29.9300   44.9050 N   0  0  0  0  0  0  0  0  0  0  0  0
   34.6590   29.9010   45.3870 C   0  0  0  0  0  0  0  0  0  0  0  0
   34.9350   29.4410   46.6120 N   0  0  0  0  0  0  0  0  0  0  0  0
   35.7430   30.3890   44.5350 C   0  0  0  0  0  0  0  0  0  0  0  0
   35.4460   31.1240   43.3870 C   0  0  0  0  0  0  0  0  0  0  0  0
   36.4310   31.6060   42.5510 C   0  0  0  0  0  0  0  0  0  0  0  0
   37.7630   31.3460   42.8700 C   0  0  0  0  0  0  0  0  0  0  0  0
   38.7090   31.8150   42.0570 N   0  0  0  0  0  0  0  0  0  0  0  0
   40.0210   31.5890   42.3240 C   0  0  0  0  0  0  0  0  0  0  0  0
   40.2970   30.8650   43.4540 C   0  0  0  0  0  0  0  0  0  0  0  0
   39.3660   30.3400   44.3540 C   0  0  0  0  0  0  0  0  0  0  0  0
   38.0420   30.6180   44.0070 C   0  0  0  0  0  0  0  0  0  0  0  0
   37.0580   30.1260   44.8610 C   0  0  0  0  0  0  0  0  0  0  0  0
   34.4290   29.4910   49.8040 C   0  0  0  0  0  0  0  0  0  0  0  0
   35.7600   30.1270   49.8790 C   0  0  0  0  0  0  0  0  0  0  0  0
   36.6460   29.8650   50.9280 C   0  0  0  0  0  0  0  0  0  0  0  0
   37.7770   30.5990   50.7100 C   0  0  0  0  0  0  0  0  0  0  0  0
   37.5900   31.2820   49.5740 N   0  0  0  0  0  0  0  0  0  0  0  0
   36.3870   30.9800   49.1090 N   0  0  0  0  0  0  0  0  0  0  0  0
   38.4140   32.1950   48.8640 C   0  0  0  0  0  0  0  0  0  0  0  0
   38.7910   33.3270   49.5460 C   0  0  0  0  0  0  0  0  0  0  0  0
   39.5900   34.3290   49.0200 C   0  0  0  0  0  0  0  0  0  0  0  0
   40.0170   34.1390   47.7150 C   0  0  0  0  0  0  0  0  0  0  0  0
   39.6460   33.0010   47.0090 C   0  0  0  0  0  0  0  0  0  0  0  0
   38.8480   32.0210   47.5630 C   0  0  0  0  0  0  0  0  0  0  0  0
   35.2646   27.9837   48.6301 H   0  0  0  0  0  0  0  0  0  0  0  0
   33.4395   27.8906   48.9970 H   0  0  0  0  0  0  0  0  0  0  0  0
   31.8831   28.6327   47.6142 H   0  0  0  0  0  0  0  0  0  0  0  0
   31.3000   29.4921   45.3072 H   0  0  0  0  0  0  0  0  0  0  0  0
   34.3929   31.3254   43.1410 H   0  0  0  0  0  0  0  0  0  0  0  0
   36.1713   32.1834   41.6515 H   0  0  0  0  0  0  0  0  0  0  0  0
   40.8193   31.9669   41.6684 H   0  0  0  0  0  0  0  0  0  0  0  0
   41.3583   30.6783   43.6749 H   0  0  0  0  0  0  0  0  0  0  0  0
   39.6481   29.7644   45.2479 H   0  0  0  0  0  0  0  0  0  0  0  0
   37.3189   29.5498   45.7609 H   0  0  0  0  0  0  0  0  0  0  0  0
   33.6757   30.2784   49.6537 H   0  0  0  0  0  0  0  0  0  0  0  0
   34.2807   28.9431   50.7462 H   0  0  0  0  0  0  0  0  0  0  0  0
   36.4648   29.1890   51.7767 H   0  0  0  0  0  0  0  0  0  0  0  0
   38.6729   30.6242   51.3478 H   0  0  0  0  0  0  0  0  0  0  0  0
   38.4341   33.4455   50.5797 H   0  0  0  0  0  0  0  0  0  0  0  0
   39.8683   35.2201   49.6018 H   0  0  0  0  0  0  0  0  0  0  0  0
   40.6548   34.8953   47.2342 H   0  0  0  0  0  0  0  0  0  0  0  0
   40.0000   32.8774   45.9749 H   0  0  0  0  0  0  0  0  0  0  0  0
   38.5655   31.1278   46.9865 H   0  0  0  0  0  0  0  0  0  0  0  0
  1 18  1  0
  2  1  1  0
  3  2  2  0
  4  3  1  0
  5  6  1  0
  5  4  2  0
  6  7  2  0
  7  2  1  0
  8 17  1  0
  8  6  1  0
  9  8  2  0
 10 11  2  0
 10  9  1  0
 11 16  1  0
 12 13  2  0
 12 11  1  0
 13 14  1  0
 14 15  2  0
 16 15  1  0
 16 17  2  0
 18 19  1  0
 19 20  1  0
 21 20  2  0
 22 21  1  0
 23 22  1  0
 23 19  2  0
 24 25  2  0
 24 22  1  0
 26 25  1  0
 27 26  2  0
 28 29  2  0
 28 27  1  0
 29 24  1  0
  1 30  1  0
  1 31  1  0
  3 32  1  0
  4 33  1  0
  9 34  1  0
 10 35  1  0
 13 36  1  0
 14 37  1  0
 15 38  1  0
 17 39  1  0
 18 40  1  0
 18 41  1  0
 20 42  1  0
 21 43  1  0
 25 44  1  0
 26 45  1  0
 27 46  1  0
 28 47  1  0
 29 48  1  0
M  ISO  8  30   8  31   8  32  14  33  14  34  14  35  14  36  14  37  14
M  ISO  8  38  14  39  14  40   8  41   8  42  14  43  14  44  14  45  14
M  ISO  3  46  14  47  14  48  14
M  END
>  <minimizedAffinity>  (1) 
-6.84200191

>  <minimizedRMSD>  (1) 
1.33602321

$$$$
