
     RDKit          3D

 35 38  0  0  0  0  0  0  0  0999 V2000
   37.5701   31.6542   48.9321 C   0  0  0  0  0  0  0  0  0  0  0  0
   38.1926   32.7190   49.5023 C   0  0  0  0  0  0  0  0  0  0  0  0
   39.0641   33.5569   48.8362 C   0  0  0  0  0  0  0  0  0  0  0  0
   39.3431   33.3323   47.5173 C   0  0  0  0  0  0  0  0  0  0  0  0
   38.6987   32.2349   46.9379 C   0  0  0  0  0  0  0  0  0  0  0  0
   37.8629   31.4589   47.6386 N   0  0  0  0  0  0  0  0  0  0  0  0
   36.9453   30.1670   50.8732 C   0  0  0  0  0  0  0  0  0  0  0  0
   36.6577   30.7903   49.6593 C   0  0  0  0  0  0  0  0  0  0  0  0
   35.3947   30.5638   49.1042 C   0  0  0  0  0  0  0  0  0  0  0  0
   34.5185   29.7532   49.7721 N   0  0  0  0  0  0  0  0  0  0  0  0
   34.8607   29.1765   50.9505 C   0  0  0  0  0  0  0  0  0  0  0  0
   36.0640   29.3780   51.5025 N   0  0  0  0  0  0  0  0  0  0  0  0
   40.1946   34.0700   46.6849 O   0  0  0  0  0  0  0  0  0  0  0  0
   38.0221   32.9624   50.5463 H   0  0  0  0  0  0  0  0  0  0  0  0
   39.5687   34.4101   49.2759 H   0  0  0  0  0  0  0  0  0  0  0  0
   38.8523   31.9734   45.9026 H   0  0  0  0  0  0  0  0  0  0  0  0
   37.9266   30.3633   51.2718 H   0  0  0  0  0  0  0  0  0  0  0  0
   35.1418   31.0347   48.1611 H   0  0  0  0  0  0  0  0  0  0  0  0
   34.0356   28.5779   51.3140 H   0  0  0  0  0  0  0  0  0  0  0  0
   41.5365   33.7988   46.5310 C   0  0  0  0  0  0  0  0  0  0  0  0
   42.2684   32.7855   47.1461 C   0  0  0  0  0  0  0  0  0  0  0  0
   41.6950   32.1570   47.8130 H   0  0  0  0  0  0  0  0  0  0  0  0
   43.6225   32.6467   46.8819 C   0  0  0  0  0  0  0  0  0  0  0  0
   44.2641   33.5071   46.0087 C   0  0  0  0  0  0  0  0  0  0  0  0
   45.5943   33.2888   45.8154 N   0  0  0  0  0  0  0  0  0  0  0  0
   46.2788   34.1038   44.9670 C   0  0  0  0  0  0  0  0  0  0  0  0
   47.3391   33.8663   44.8641 H   0  0  0  0  0  0  0  0  0  0  0  0
   45.6137   35.1348   44.3192 C   0  0  0  0  0  0  0  0  0  0  0  0
   44.2589   35.3290   44.5388 C   0  0  0  0  0  0  0  0  0  0  0  0
   43.5370   34.5160   45.3959 C   0  0  0  0  0  0  0  0  0  0  0  0
   42.1988   34.6404   45.6674 C   0  0  0  0  0  0  0  0  0  0  0  0
   44.1314   31.8391   47.3926 H   0  0  0  0  0  0  0  0  0  0  0  0
   46.1876   35.7531   43.6604 H   0  0  0  0  0  0  0  0  0  0  0  0
   43.7292   36.1237   44.0442 H   0  0  0  0  0  0  0  0  0  0  0  0
   41.7096   35.4595   45.1417 H   0  0  0  0  0  0  0  0  0  0  0  0
  1  2  2  0
  1  8  1  0
  3  2  1  0
  4  3  2  0
  5  4  1  0
  5  6  2  0
  6  1  1  0
  7 12  2  0
  8  7  1  0
  9  8  2  0
  9 10  1  0
 10 11  2  0
 11 12  1  0
 13  4  1  0
  2 14  1  0
  3 15  1  0
  5 16  1  0
  7 17  1  0
  9 18  1  0
 11 19  1  0
 20 21  2  0
 21 22  1  0
 21 23  1  0
 23 24  2  0
 24 25  1  0
 25 26  2  0
 26 27  1  0
 26 28  1  0
 28 29  2  0
 29 30  1  0
 30 31  2  0
 31 20  1  0
 30 24  1  0
 23 32  1  0
 28 33  1  0
 29 34  1  0
 31 35  1  0
 13 20  1  0
M  ISO  8  14  14  15  14  16  14  17  14  18  14  19  14  22  16  27  16
M  END
>  <DihAtoms>  (1) 
3,12,19,20

>  <DihDeg>  (1) 
0.0010057689879005099

$$$$
