
     RDKit          3D

 51 55  0  0  0  0  0  0  0  0999 V2000
   34.9264   29.9795   46.9095 C   0  0  0  0  0  0  0  0  0  0  0  0
   36.2338   30.5382   46.9216 C   0  0  0  0  0  0  0  0  0  0  0  0
   36.8997   30.6701   45.6917 C   0  0  0  0  0  0  0  0  0  0  0  0
   36.2472   30.2531   44.5639 N   0  0  0  0  0  0  0  0  0  0  0  0
   35.0142   29.7312   44.5969 C   0  0  0  0  0  0  0  0  0  0  0  0
   34.3596   29.5956   45.7607 N   0  0  0  0  0  0  0  0  0  0  0  0
   36.7377   30.9141   48.2073 N   0  0  0  0  0  0  0  0  0  0  0  0
   37.1543   32.1318   48.8958 C   0  0  0  0  0  0  0  0  0  0  0  0
   38.5136   31.7055   49.4601 C   0  0  0  0  0  0  0  0  0  0  0  0
   38.3177   30.2495   49.7964 C   0  0  0  0  0  0  0  0  0  0  0  0
   36.9627   29.9023   49.2590 C   0  0  1  0  0  0  0  0  0  0  0  0
   34.9449   29.2295   50.5694 C   0  0  0  0  0  0  0  0  0  0  0  0
   34.6737   28.2127   49.8783 O   0  0  0  0  0  0  0  0  0  0  0  0
   35.9957   30.1601   50.3249 N   0  0  0  0  0  0  0  0  0  0  0  0
   38.2057   31.2228   45.5859 C   0  0  0  0  0  0  0  0  0  0  0  0
   38.3286   32.5440   45.1991 C   0  0  0  0  0  0  0  0  0  0  0  0
   39.5504   33.1801   45.0756 C   0  0  0  0  0  0  0  0  0  0  0  0
   40.6799   32.4396   45.3579 C   0  0  0  0  0  0  0  0  0  0  0  0
   40.6234   31.1003   45.7528 C   0  0  0  0  0  0  0  0  0  0  0  0
   39.3468   30.5281   45.8523 C   0  0  0  0  0  0  0  0  0  0  0  0
   34.3197   29.8410   47.7842 H   0  0  0  0  0  0  0  0  0  0  0  0
   34.5748   29.4264   43.6552 H   0  0  0  0  0  0  0  0  0  0  0  0
   37.3054   32.9674   48.1719 H   0  0  0  0  0  0  0  0  0  0  0  0
   36.4808   32.3852   49.7085 H   0  0  0  0  0  0  0  0  0  0  0  0
   38.8166   32.2910   50.3292 H   0  0  0  0  0  0  0  0  0  0  0  0
   39.2846   31.7176   48.6397 H   0  0  0  0  0  0  0  0  0  0  0  0
   38.2613   30.1933   50.9431 H   0  0  0  0  0  0  0  0  0  0  0  0
   39.1311   29.5852   49.5589 H   0  0  0  0  0  0  0  0  0  0  0  0
   36.8199   28.8967   48.8907 H   0  0  0  0  0  0  0  0  0  0  0  0
   34.2273   29.2540   51.3777 H   0  0  0  0  0  0  0  0  0  0  0  0
   35.9084   30.9455   51.0007 H   0  0  0  0  0  0  0  0  0  0  0  0
   37.4258   33.1283   44.9761 H   0  0  0  0  0  0  0  0  0  0  0  0
   39.5595   34.2077   44.7697 H   0  0  0  0  0  0  0  0  0  0  0  0
   41.6114   32.9861   45.2470 H   0  0  0  0  0  0  0  0  0  0  0  0
   41.5680   30.6250   45.9465 H   0  0  0  0  0  0  0  0  0  0  0  0
   39.4812   29.1272   46.2124 C   0  0  0  0  0  0  0  0  0  0  0  0
   39.6969   28.0698   45.3600 C   0  0  0  0  0  0  0  0  0  0  0  0
   39.7749   28.3225   44.2888 H   0  0  0  0  0  0  0  0  0  0  0  0
   39.8233   26.7370   45.6654 C   0  0  0  0  0  0  0  0  0  0  0  0
   39.7217   26.4095   46.9988 C   0  0  0  0  0  0  0  0  0  0  0  0
   39.8438   25.1072   47.3130 N   0  0  0  0  0  0  0  0  0  0  0  0
   39.7473   24.7615   48.6148 C   0  0  0  0  0  0  0  0  0  0  0  0
   39.8424   23.7141   48.8901 H   0  0  0  0  0  0  0  0  0  0  0  0
   39.5318   25.6728   49.6265 C   0  0  0  0  0  0  0  0  0  0  0  0
   39.4115   26.9992   49.2692 C   0  0  0  0  0  0  0  0  0  0  0  0
   39.5051   27.3833   47.9503 C   0  0  0  0  0  0  0  0  0  0  0  0
   39.3930   28.6930   47.5346 C   0  0  0  0  0  0  0  0  0  0  0  0
   39.9924   26.0066   44.8872 H   0  0  0  0  0  0  0  0  0  0  0  0
   39.4616   25.3479   50.6600 H   0  0  0  0  0  0  0  0  0  0  0  0
   39.2415   27.7578   50.0213 H   0  0  0  0  0  0  0  0  0  0  0  0
   39.2185   29.3771   48.3509 H   0  0  0  0  0  0  0  0  0  0  0  0
  1  2  2  0
  2  7  1  0
  3  2  1  0
  4  5  1  0
  4  3  2  0
  5  6  2  0
  6  1  1  0
  7  8  1  0
  7 11  1  0
  8  9  1  0
  9 10  1  0
 11 10  1  0
 11 14  1  0
 13 12  2  0
 14 12  1  0
 15  3  1  0
 15 20  1  0
 16 15  2  0
 17 16  1  0
 17 18  2  0
 18 19  1  0
 19 20  2  0
  1 21  1  0
  5 22  1  0
  8 23  1  0
  8 24  1  0
  9 25  1  0
  9 26  1  0
 10 27  1  0
 10 28  1  0
 11 29  1  6
 12 30  1  0
 14 31  1  0
 16 32  1  0
 17 33  1  0
 18 34  1  0
 19 35  1  0
 36 37  2  0
 37 38  1  0
 37 39  1  0
 39 40  2  0
 40 41  1  0
 41 42  2  0
 42 43  1  0
 42 44  1  0
 44 45  2  0
 45 46  1  0
 46 47  2  0
 47 36  1  0
 46 40  1  0
 39 48  1  0
 44 49  1  0
 45 50  1  0
 47 51  1  0
 20 36  1  0
M  ISO  8  21  14  22  14  23  13  24  13  25  13  26  13  27  13  28  13
M  ISO  8  29  13  30   6  32  14  33  14  34  14  35  14  38  16  43  16
M  END
>  <DihAtoms>  (1) 
14,19,35,36

>  <DihDeg>  (1) 
-132.2453816817862

$$$$
