
     RDKit          3D

 39 43  0  0  0  0  0  0  0  0999 V2000
   36.8532   30.5358   46.8968 C   0  0  0  0  0  0  0  0  0  0  0  0
   37.5226   31.0298   48.0206 C   0  0  0  0  0  0  0  0  0  0  0  0
   38.5231   31.9980   47.9105 C   0  0  0  0  0  0  0  0  0  0  0  0
   38.7909   32.4217   46.6024 C   0  0  0  0  0  0  0  0  0  0  0  0
   39.7234   33.3611   46.2336 N   0  0  0  0  0  0  0  0  0  0  0  0
   39.6433   33.4563   44.9124 C   0  0  0  0  0  0  0  0  0  0  0  0
   38.7081   32.6260   44.4216 N   0  0  0  0  0  0  0  0  0  0  0  0
   38.1513   31.9591   45.4570 C   0  0  0  0  0  0  0  0  0  0  0  0
   37.1695   31.0008   45.6262 C   0  0  0  0  0  0  0  0  0  0  0  0
   37.3988   30.0790   51.6658 C   0  0  0  0  0  0  0  0  0  0  0  0
   37.8614   30.6185   50.4835 C   0  0  0  0  0  0  0  0  0  0  0  0
   37.1398   30.5023   49.3235 C   0  0  0  0  0  0  0  0  0  0  0  0
   35.9426   29.8272   49.3963 N   0  0  0  0  0  0  0  0  0  0  0  0
   35.4951   29.3020   50.5535 C   0  0  0  0  0  0  0  0  0  0  0  0
   36.2255   29.4352   51.6638 N   0  0  0  0  0  0  0  0  0  0  0  0
   40.4475   34.3194   44.1905 O   0  0  0  0  0  0  0  0  0  0  0  0
   36.0780   29.7874   46.9671 H   0  0  0  0  0  0  0  0  0  0  0  0
   39.0402   32.3825   48.7537 H   0  0  0  0  0  0  0  0  0  0  0  0
   40.3607   33.8859   46.8826 H   0  0  0  0  0  0  0  0  0  0  0  0
   36.6752   30.6420   44.7502 H   0  0  0  0  0  0  0  0  0  0  0  0
   37.9501   30.1592   52.5878 H   0  0  0  0  0  0  0  0  0  0  0  0
   38.7994   31.1466   50.4297 H   0  0  0  0  0  0  0  0  0  0  0  0
   34.5288   28.7859   50.4934 H   0  0  0  0  0  0  0  0  0  0  0  0
   41.3865   35.1390   44.7923 C   0  0  0  0  0  0  0  0  0  0  0  0
   42.7463   35.1334   44.5611 C   0  0  0  0  0  0  0  0  0  0  0  0
   43.1055   34.4192   43.8409 H   0  0  0  0  0  0  0  0  0  0  0  0
   43.5778   36.0021   45.2261 C   0  0  0  0  0  0  0  0  0  0  0  0
   43.1239   36.9175   46.1480 C   0  0  0  0  0  0  0  0  0  0  0  0
   43.9769   37.7448   46.7713 N   0  0  0  0  0  0  0  0  0  0  0  0
   43.5503   38.6526   47.6817 C   0  0  0  0  0  0  0  0  0  0  0  0
   44.2019   39.3391   48.2083 H   0  0  0  0  0  0  0  0  0  0  0  0
   42.1936   38.6792   47.9318 C   0  0  0  0  0  0  0  0  0  0  0  0
   41.2840   37.8391   47.3063 C   0  0  0  0  0  0  0  0  0  0  0  0
   41.7519   36.9115   46.3706 C   0  0  0  0  0  0  0  0  0  0  0  0
   40.8925   36.0492   45.7161 C   0  0  0  0  0  0  0  0  0  0  0  0
   44.6459   35.9937   45.0407 H   0  0  0  0  0  0  0  0  0  0  0  0
   41.7946   39.3854   48.6512 H   0  0  0  0  0  0  0  0  0  0  0  0
   40.2352   37.8791   47.5176 H   0  0  0  0  0  0  0  0  0  0  0  0
   39.8392   36.1186   45.9555 H   0  0  0  0  0  0  0  0  0  0  0  0
  1  2  2  0
  2 12  1  0
  3  2  1  0
  4  3  2  0
  5  4  1  0
  6  5  1  0
  7  6  2  0
  7  8  1  0
  8  9  2  0
  8  4  1  0
  9  1  1  0
 10 15  2  0
 11 10  1  0
 12 13  1  0
 12 11  2  0
 13 14  2  0
 14 15  1  0
 16  6  1  0
  1 17  1  0
  3 18  1  0
  5 19  1  0
  9 20  1  0
 10 21  1  0
 11 22  1  0
 14 23  1  0
 24 25  2  0
 25 26  1  0
 25 27  1  0
 27 28  2  0
 28 29  1  0
 29 30  2  0
 30 31  1  0
 30 32  1  0
 32 33  2  0
 33 34  1  0
 34 35  2  0
 35 24  1  0
 34 28  1  0
 27 36  1  0
 32 37  1  0
 33 38  1  0
 35 39  1  0
 16 24  1  0
M  ISO  8  17  14  18  14  19   9  20  14  21  14  22  14  23  14  26  16
M  ISO  1  31  16
M  END
>  <DihAtoms>  (1) 
5,15,23,24

>  <DihDeg>  (1) 
-90.00119853090422

$$$$
