
     RDKit          3D

 41 44  0  0  0  0  0  0  0  0999 V2000
   35.3560   29.1860   50.5290 C   0  0  0  0  0  0  0  0  0  0  0  0
   36.3690   29.9950   49.9660 C   0  0  0  0  0  0  0  0  0  0  0  0
   36.4290   30.1180   48.5870 C   0  0  0  0  0  0  0  0  0  0  0  0
   35.4940   29.4420   47.8480 N   0  0  0  0  0  0  0  0  0  0  0  0
   34.5510   28.6890   48.3930 C   0  0  0  0  0  0  0  0  0  0  0  0
   34.4800   28.5590   49.7170 N   0  0  0  0  0  0  0  0  0  0  0  0
   37.3260   30.9020   47.7950 C   0  0  0  0  0  0  0  0  0  0  0  0
   38.3640   31.7690   48.0130 C   0  0  0  0  0  0  0  0  0  0  0  0
   39.0410   32.4570   47.0370 C   0  0  0  0  0  0  0  0  0  0  0  0
   38.7000   32.3080   45.7110 C   0  0  0  0  0  0  0  0  0  0  0  0
   39.4250   33.0260   44.8380 N   0  0  0  0  0  0  0  0  0  0  0  0
   39.1360   32.9230   43.5090 C   0  0  0  0  0  0  0  0  0  0  0  0
   38.1000   32.0710   43.1460 C   0  0  0  0  0  0  0  0  0  0  0  0
   37.3630   31.3360   44.0730 C   0  0  0  0  0  0  0  0  0  0  0  0
   37.6680   31.4540   45.4110 C   0  0  0  0  0  0  0  0  0  0  0  0
   37.0170   30.7850   46.4250 C   0  0  0  0  0  0  0  0  0  0  0  0
   32.9450   30.4560   46.5360 Cl  0  0  0  0  0  0  0  0  0  0  0  0
   32.8030   28.7070   46.6270 C   0  0  0  0  0  0  0  0  0  0  0  0
   33.5940   27.9970   47.5190 C   0  0  0  0  0  0  0  0  0  0  0  0
   33.5200   26.6070   47.6250 C   0  0  0  0  0  0  0  0  0  0  0  0
   32.6070   25.9680   46.7870 C   0  0  0  0  0  0  0  0  0  0  0  0
   31.8190   26.6410   45.9040 C   0  0  0  0  0  0  0  0  0  0  0  0
   30.7130   25.7320   44.9070 Cl  0  0  0  0  0  0  0  0  0  0  0  0
   31.9240   28.0190   45.8310 C   0  0  0  0  0  0  0  0  0  0  0  0
   31.0710   28.7850   44.8710 C   0  0  0  0  0  0  0  0  0  0  0  0
   30.1050   27.9320   44.3200 F   0  0  0  0  0  0  0  0  0  0  0  0
   31.7910   29.4080   43.9100 F   0  0  0  0  0  0  0  0  0  0  0  0
   30.3430   29.7470   45.5720 F   0  0  0  0  0  0  0  0  0  0  0  0
   37.3170   30.7090   50.8590 C   0  0  0  0  0  0  0  0  0  0  0  0
   38.6300   30.4870   50.4990 F   0  0  0  0  0  0  0  0  0  0  0  0
   37.0500   32.0690   50.8150 F   0  0  0  0  0  0  0  0  0  0  0  0
   37.1730   30.3220   52.1830 F   0  0  0  0  0  0  0  0  0  0  0  0
   35.2825   29.0686   51.6202 H   0  0  0  0  0  0  0  0  0  0  0  0
   38.6806   31.9266   49.0546 H   0  0  0  0  0  0  0  0  0  0  0  0
   39.8627   33.1329   47.3163 H   0  0  0  0  0  0  0  0  0  0  0  0
   39.7002   33.4914   42.7550 H   0  0  0  0  0  0  0  0  0  0  0  0
   37.8504   31.9722   42.0793 H   0  0  0  0  0  0  0  0  0  0  0  0
   36.5508   30.6724   43.7414 H   0  0  0  0  0  0  0  0  0  0  0  0
   36.1954   30.1097   46.1441 H   0  0  0  0  0  0  0  0  0  0  0  0
   34.1485   26.0457   48.3320 H   0  0  0  0  0  0  0  0  0  0  0  0
   32.5196   24.8728   46.8417 H   0  0  0  0  0  0  0  0  0  0  0  0
  2  1  2  0
  2 29  1  0
  3  2  1  0
  4  5  1  0
  4  3  2  0
  5  6  2  0
  6  1  1  0
  7  8  2  0
  7  3  1  0
  9  8  1  0
 10  9  2  0
 11 10  1  0
 12 11  2  0
 13 12  1  0
 13 14  2  0
 14 15  1  0
 15 10  1  0
 15 16  2  0
 16  7  1  0
 17 18  1  0
 18 19  2  0
 19 20  1  0
 19  5  1  0
 21 20  2  0
 22 21  1  0
 23 22  1  0
 24 22  2  0
 24 18  1  0
 25 28  1  0
 25 24  1  0
 26 25  1  0
 27 25  1  0
 29 32  1  0
 30 29  1  0
 31 29  1  0
  1 33  1  0
  8 34  1  0
  9 35  1  0
 12 36  1  0
 13 37  1  0
 14 38  1  0
 16 39  1  0
 20 40  1  0
 21 41  1  0
M  ISO  8  33  14  34  14  35  14  36  14  37  14  38  14  39  14  40  14
M  ISO  1  41  14
M  END
>  <minimizedAffinity>  (1) 
-7.6365757

>  <minimizedRMSD>  (1) 
0.683284223

$$$$
