
     RDKit          3D

 41 44  0  0  0  0  0  0  0  0999 V2000
   37.9190   31.6074   49.8507 C   0  0  0  0  0  0  0  0  0  0  0  0
   37.9292   31.6396   48.4534 C   0  0  0  0  0  0  0  0  0  0  0  0
   37.0805   30.8300   47.7678 C   0  0  0  0  0  0  0  0  0  0  0  0
   36.2418   30.0307   48.4979 N   0  0  0  0  0  0  0  0  0  0  0  0
   36.2299   30.0141   49.8396 C   0  0  0  0  0  0  0  0  0  0  0  0
   37.0762   30.8009   50.5028 N   0  0  0  0  0  0  0  0  0  0  0  0
   38.1971   31.2016   45.6464 C   0  0  0  0  0  0  0  0  0  0  0  0
   37.0835   30.8190   46.3289 C   0  0  0  0  0  0  0  0  0  0  0  0
   35.9492   30.4705   45.6279 C   0  0  0  0  0  0  0  0  0  0  0  0
   35.8664   30.4895   44.2507 C   0  0  0  0  0  0  0  0  0  0  0  0
   36.9821   30.8811   43.5240 C   0  0  0  0  0  0  0  0  0  0  0  0
   38.0965   31.2200   44.2397 C   0  0  0  0  0  0  0  0  0  0  0  0
   39.6684   31.6446   46.3810 S   0  0  0  0  0  0  0  0  0  0  0  0
   40.1074   33.0212   46.0611 O   0  0  0  0  0  0  0  0  0  0  0  0
   40.7143   30.9331   45.5737 O   0  0  0  0  0  0  0  0  0  0  0  0
   35.1718   29.2129   50.4903 C   0  0  0  0  0  0  0  0  0  0  0  0
   35.3684   29.0958   51.8510 F   0  0  0  0  0  0  0  0  0  0  0  0
   33.8965   29.8664   50.3893 F   0  0  0  0  0  0  0  0  0  0  0  0
   34.9539   28.0115   49.9547 F   0  0  0  0  0  0  0  0  0  0  0  0
   38.5288   32.1714   50.5701 H   0  0  0  0  0  0  0  0  0  0  0  0
   38.5855   32.4348   48.2008 H   0  0  0  0  0  0  0  0  0  0  0  0
   35.0435   30.1558   46.1580 H   0  0  0  0  0  0  0  0  0  0  0  0
   34.9681   30.2105   43.7550 H   0  0  0  0  0  0  0  0  0  0  0  0
   36.9995   30.9258   42.4448 H   0  0  0  0  0  0  0  0  0  0  0  0
   38.9791   31.5299   43.6706 H   0  0  0  0  0  0  0  0  0  0  0  0
   40.4543   30.7889   47.6558 C   0  0  0  0  0  0  0  0  0  0  0  0
   40.0753   31.1570   48.9638 C   0  0  0  0  0  0  0  0  0  0  0  0
   39.3776   31.9323   49.1598 H   0  0  0  0  0  0  0  0  0  0  0  0
   40.6034   30.5157   50.0533 C   0  0  0  0  0  0  0  0  0  0  0  0
   41.5173   29.4944   49.9383 C   0  0  0  0  0  0  0  0  0  0  0  0
   42.0785   28.8185   50.9639 N   0  0  0  0  0  0  0  0  0  0  0  0
   42.9660   27.8322   50.7370 C   0  0  0  0  0  0  0  0  0  0  0  0
   43.3778   27.3309   51.6079 H   0  0  0  0  0  0  0  0  0  0  0  0
   43.3695   27.4364   49.4563 C   0  0  0  0  0  0  0  0  0  0  0  0
   42.8213   28.1005   48.3685 C   0  0  0  0  0  0  0  0  0  0  0  0
   41.9220   29.0959   48.6873 C   0  0  0  0  0  0  0  0  0  0  0  0
   41.3633   29.7709   47.6205 C   0  0  0  0  0  0  0  0  0  0  0  0
   40.3069   30.8033   51.0750 H   0  0  0  0  0  0  0  0  0  0  0  0
   44.0849   26.6402   49.2993 H   0  0  0  0  0  0  0  0  0  0  0  0
   43.0721   27.8648   47.3443 H   0  0  0  0  0  0  0  0  0  0  0  0
   41.6406   29.5064   46.5851 H   0  0  0  0  0  0  0  0  0  0  0  0
  1  6  2  0
  2  1  1  0
  3  2  2  0
  3  4  1  0
  4  5  2  0
  5 16  1  0
  5  6  1  0
  7  8  1  0
  7 13  1  0
  8  3  1  0
  9  8  2  0
 10  9  1  0
 11 12  1  0
 11 10  2  0
 12  7  2  0
 14 13  2  0
 15 13  2  0
 16 17  1  0
 18 16  1  0
 19 16  1  0
  1 20  1  0
  2 21  1  0
  9 22  1  0
 10 23  1  0
 11 24  1  0
 12 25  1  0
 26 27  2  0
 27 28  1  0
 27 29  1  0
 29 30  2  0
 30 31  1  0
 31 32  2  0
 32 33  1  0
 32 34  1  0
 34 35  2  0
 35 36  1  0
 36 37  2  0
 37 26  1  0
 36 30  1  0
 29 38  1  0
 34 39  1  0
 35 40  1  0
 37 41  1  0
 13 26  1  0
M  ISO  8  20  14  21  14  22  14  23  14  24  14  25  14  28  16  33  16
M  END
>  <DihAtoms>  (1) 
6,12,25,26

>  <DihDeg>  (1) 
-148.65933734949567

$$$$
