
     RDKit          3D

 42 46  0  0  0  0  0  0  0  0999 V2000
   38.9160   30.8990   45.7740 C   0  0  0  0  0  0  0  0  0  0  0  0
   40.1110   31.5260   46.0350 C   0  0  0  0  0  0  0  0  0  0  0  0
   40.9440   31.4700   44.9230 C   0  0  0  0  0  0  0  0  0  0  0  0
   40.2050   30.7970   44.0150 N   0  0  0  0  0  0  0  0  0  0  0  0
   39.0220   30.4630   44.5080 N   0  0  0  0  0  0  0  0  0  0  0  0
   37.7970   30.7520   46.6830 C   0  0  0  0  0  0  0  0  0  0  0  0
   38.0110   30.9830   48.0630 C   0  0  0  0  0  0  0  0  0  0  0  0
   36.9160   30.8350   48.9120 C   0  0  0  0  0  0  0  0  0  0  0  0
   35.7220   30.4830   48.3870 N   0  0  0  0  0  0  0  0  0  0  0  0
   35.5420   30.2690   47.0640 C   0  0  0  0  0  0  0  0  0  0  0  0
   36.5850   30.4050   46.2210 N   0  0  0  0  0  0  0  0  0  0  0  0
   37.1230   31.0740   50.3710 C   0  0  0  0  0  0  0  0  0  0  0  0
   36.6000   32.3210   50.6260 F   0  0  0  0  0  0  0  0  0  0  0  0
   36.4620   30.1340   51.1550 F   0  0  0  0  0  0  0  0  0  0  0  0
   38.4750   31.0670   50.7090 F   0  0  0  0  0  0  0  0  0  0  0  0
   40.5540   30.4300   42.6420 C   0  0  0  0  0  0  0  0  0  0  0  0
   40.1770   31.2070   41.5380 C   0  0  0  0  0  0  0  0  0  0  0  0
   40.5120   30.8430   40.2950 C   0  0  0  0  0  0  0  0  0  0  0  0
   41.2590   29.6520   40.1170 C   0  0  0  0  0  0  0  0  0  0  0  0
   41.4640   29.0610   41.8560 S   0  0  0  0  0  0  0  0  0  0  0  0
   41.8070   28.9250   38.9930 C   0  0  0  0  0  0  0  0  0  0  0  0
   40.9470   28.6020   37.9700 C   0  0  0  0  0  0  0  0  0  0  0  0
   41.5270   27.9000   36.9070 C   0  0  0  0  0  0  0  0  0  0  0  0
   42.8880   27.5730   36.9330 C   0  0  0  0  0  0  0  0  0  0  0  0
   43.4440   26.8920   35.8970 N   0  0  0  0  0  0  0  0  0  0  0  0
   44.7490   26.5700   35.9060 C   0  0  0  0  0  0  0  0  0  0  0  0
   45.6060   26.8990   36.9390 C   0  0  0  0  0  0  0  0  0  0  0  0
   45.0390   27.6010   38.0070 C   0  0  0  0  0  0  0  0  0  0  0  0
   43.7000   27.9380   38.0130 C   0  0  0  0  0  0  0  0  0  0  0  0
   43.1480   28.6360   39.0810 C   0  0  0  0  0  0  0  0  0  0  0  0
   40.3719   32.0052   46.9902 H   0  0  0  0  0  0  0  0  0  0  0  0
   41.9601   31.8761   44.8102 H   0  0  0  0  0  0  0  0  0  0  0  0
   39.0008   31.2676   48.4493 H   0  0  0  0  0  0  0  0  0  0  0  0
   34.5514   29.9859   46.6784 H   0  0  0  0  0  0  0  0  0  0  0  0
   39.5977   32.1287   41.6958 H   0  0  0  0  0  0  0  0  0  0  0  0
   40.2143   31.4545   39.4305 H   0  0  0  0  0  0  0  0  0  0  0  0
   39.8816   28.8752   37.9858 H   0  0  0  0  0  0  0  0  0  0  0  0
   40.9098   27.6035   36.0461 H   0  0  0  0  0  0  0  0  0  0  0  0
   45.1557   26.0162   35.0470 H   0  0  0  0  0  0  0  0  0  0  0  0
   46.6711   26.6248   36.9220 H   0  0  0  0  0  0  0  0  0  0  0  0
   45.6719   27.8904   38.8589 H   0  0  0  0  0  0  0  0  0  0  0  0
   43.7513   28.9404   39.9490 H   0  0  0  0  0  0  0  0  0  0  0  0
  1  2  1  0
  1  6  1  0
  3  2  2  0
  4  5  1  0
  4  3  1  0
  5  1  2  0
  6  7  2  0
  7  8  1  0
  8 12  1  0
  9  8  2  0
 10  9  1  0
 11  6  1  0
 11 10  2  0
 12 13  1  0
 12 15  1  0
 12 14  1  0
 16  4  1  0
 17 16  2  0
 18 17  1  0
 19 18  2  0
 19 20  1  0
 20 16  1  0
 21 30  1  0
 21 19  1  0
 22 21  2  0
 23 24  2  0
 23 22  1  0
 24 29  1  0
 25 26  2  0
 25 24  1  0
 26 27  1  0
 27 28  2  0
 28 29  1  0
 29 30  2  0
  2 31  1  0
  3 32  1  0
  7 33  1  0
 10 34  1  0
 17 35  1  0
 18 36  1  0
 22 37  1  0
 23 38  1  0
 26 39  1  0
 27 40  1  0
 28 41  1  0
 30 42  1  0
M  ISO  8  31  14  32  14  33  14  34  14  35  14  36  14  37  14  38  14
M  ISO  4  39  14  40  14  41  14  42  14
M  END
>  <minimizedAffinity>  (1) 
-6.5958519

>  <minimizedRMSD>  (1) 
0.743698299

$$$$
