
     RDKit          3D

 28 30  0  0  0  0  0  0  0  0999 V2000
   36.8380   29.8780   49.5780 C   0  0  0  0  0  0  0  0  0  0  0  0
   37.7640   30.5050   48.7330 C   0  0  0  0  0  0  0  0  0  0  0  0
   37.3690   30.7820   47.4160 C   0  0  0  0  0  0  0  0  0  0  0  0
   36.1010   30.4220   47.0400 N   0  0  0  0  0  0  0  0  0  0  0  0
   35.2470   29.8210   47.8900 C   0  0  0  0  0  0  0  0  0  0  0  0
   35.6110   29.5500   49.1530 N   0  0  0  0  0  0  0  0  0  0  0  0
   33.9000   29.4550   47.4430 C   0  0  0  0  0  0  0  0  0  0  0  0
   33.3030   30.1830   46.4200 C   0  0  0  0  0  0  0  0  0  0  0  0
   32.0310   29.8620   45.9730 C   0  0  0  0  0  0  0  0  0  0  0  0
   31.3390   28.8140   46.5400 C   0  0  0  0  0  0  0  0  0  0  0  0
   30.1130   28.4780   46.1340 N   0  0  0  0  0  0  0  0  0  0  0  0
   29.4390   27.4570   46.6870 C   0  0  0  0  0  0  0  0  0  0  0  0
   29.9600   26.6810   47.7120 C   0  0  0  0  0  0  0  0  0  0  0  0
   31.2250   27.0340   48.1230 C   0  0  0  0  0  0  0  0  0  0  0  0
   31.9330   28.0800   47.5680 C   0  0  0  0  0  0  0  0  0  0  0  0
   33.1940   28.4140   47.9960 C   0  0  0  0  0  0  0  0  0  0  0  0
   37.2680   29.5820   50.9930 C   0  0  0  0  0  0  0  0  0  0  0  0
   36.1580   29.5790   51.8140 F   0  0  0  0  0  0  0  0  0  0  0  0
   37.9400   28.3990   50.9770 F   0  0  0  0  0  0  0  0  0  0  0  0
   38.0680   30.6360   51.4070 F   0  0  0  0  0  0  0  0  0  0  0  0
   38.7692   30.7715   49.0916 H   0  0  0  0  0  0  0  0  0  0  0  0
   38.0540   31.2719   46.7084 H   0  0  0  0  0  0  0  0  0  0  0  0
   33.8458   31.0223   45.9607 H   0  0  0  0  0  0  0  0  0  0  0  0
   31.5719   30.4464   45.1620 H   0  0  0  0  0  0  0  0  0  0  0  0
   28.4312   27.2261   46.3115 H   0  0  0  0  0  0  0  0  0  0  0  0
   29.4036   25.8459   48.1626 H   0  0  0  0  0  0  0  0  0  0  0  0
   31.6938   26.4549   48.9322 H   0  0  0  0  0  0  0  0  0  0  0  0
   33.6535   27.8299   48.8070 H   0  0  0  0  0  0  0  0  0  0  0  0
  1 17  1  0
  2  1  2  0
  3  2  1  0
  4  3  2  0
  4  5  1  0
  5  6  2  0
  6  1  1  0
  7  5  1  0
  7 16  1  0
  8  7  2  0
  9  8  1  0
  9 10  2  0
 10 15  1  0
 11 10  1  0
 11 12  2  0
 12 13  1  0
 13 14  2  0
 15 16  2  0
 15 14  1  0
 17 20  1  0
 17 18  1  0
 19 17  1  0
  2 21  1  0
  3 22  1  0
  8 23  1  0
  9 24  1  0
 12 25  1  0
 13 26  1  0
 14 27  1  0
 16 28  1  0
M  ISO  8  21  14  22  14  23  14  24  14  25  14  26  14  27  14  28  14
M  END
>  <minimizedAffinity>  (1) 
-5.77639198

>  <minimizedRMSD>  (1) 
3.35902953

$$$$
