
     RDKit          3D

 23 24  0  0  0  0  0  0  0  0999 V2000
   37.1473   30.2764   50.4641 C   0  0  0  0  0  0  0  0  0  0  0  0
   37.8673   31.3490   49.9134 C   0  0  0  0  0  0  0  0  0  0  0  0
   37.6317   31.6639   48.5689 C   0  0  0  0  0  0  0  0  0  0  0  0
   36.7247   30.9244   47.8622 N   0  0  0  0  0  0  0  0  0  0  0  0
   36.0602   29.9031   48.4421 C   0  0  0  0  0  0  0  0  0  0  0  0
   36.2610   29.5756   49.7236 N   0  0  0  0  0  0  0  0  0  0  0  0
   37.3878   29.9335   51.8857 C   0  0  0  0  0  0  0  0  0  0  0  0
   38.5813   31.9252   50.4834 H   0  0  0  0  0  0  0  0  0  0  0  0
   38.1822   32.4859   48.1437 H   0  0  0  0  0  0  0  0  0  0  0  0
   35.3556   29.3565   47.8291 H   0  0  0  0  0  0  0  0  0  0  0  0
   37.6326   30.8556   52.4753 H   0  0  0  0  0  0  0  0  0  0  0  0
   36.4407   29.5618   52.3176 H   0  0  0  0  0  0  0  0  0  0  0  0
   38.4397   28.9732   52.0520 N   0  0  0  0  0  0  0  0  0  0  0  0
   38.4366   28.1094   53.0816 C   0  0  0  0  0  0  0  0  0  0  0  0
   39.4491   27.2014   53.2224 C   0  0  0  0  0  0  0  0  0  0  0  0
   39.5505   26.4616   54.0076 H   0  0  0  0  0  0  0  0  0  0  0  0
   40.4546   27.2122   52.2774 C   0  0  0  0  0  0  0  0  0  0  0  0
   41.4424   26.4112   52.3138 O   0  0  0  0  0  0  0  0  0  0  0  0
   40.4873   28.0761   51.2203 N   0  0  0  0  0  0  0  0  0  0  0  0
   39.4394   28.9386   51.1663 C   0  0  0  0  0  0  0  0  0  0  0  0
   39.4245   29.7558   50.2088 O   0  0  0  0  0  0  0  0  0  0  0  0
   37.6540   28.0966   53.8223 H   0  0  0  0  0  0  0  0  0  0  0  0
   41.2584   28.0658   50.5176 H   0  0  0  0  0  0  0  0  0  0  0  0
  1  7  1  0
  2  1  2  0
  3  2  1  0
  4  5  1  0
  4  3  2  0
  5  6  2  0
  6  1  1  0
  2  8  1  0
  3  9  1  0
  5 10  1  0
  7 11  1  0
  7 12  1  0
 13 14  1  0
 14 15  2  0
 15 16  1  0
 15 17  1  0
 17 18  2  0
 17 19  1  0
 19 20  1  0
 20 21  2  0
 20 13  1  0
 14 22  1  0
 19 23  1  0
  7 13  1  0
M  ISO  6   8  14   9  14  10  14  11   8  12   8  16  16
M  END
>  <DihAtoms>  (1) 
0,6,12,13

>  <DihDeg>  (1) 
89.99837671691827

$$$$
