
     RDKit          3D

 37 40  0  0  0  0  0  0  0  0999 V2000
   38.8450   30.8980   45.8350 C   0  0  0  0  0  0  0  0  0  0  0  0
   40.0280   31.5730   46.1040 C   0  0  0  0  0  0  0  0  0  0  0  0
   40.8700   31.5270   45.0050 C   0  0  0  0  0  0  0  0  0  0  0  0
   40.1520   30.8090   44.0940 N   0  0  0  0  0  0  0  0  0  0  0  0
   38.9850   30.4520   44.5830 N   0  0  0  0  0  0  0  0  0  0  0  0
   37.7250   30.7320   46.7340 C   0  0  0  0  0  0  0  0  0  0  0  0
   37.9290   30.9230   48.1280 C   0  0  0  0  0  0  0  0  0  0  0  0
   36.8350   30.7580   48.9670 C   0  0  0  0  0  0  0  0  0  0  0  0
   35.6410   30.4250   48.4180 N   0  0  0  0  0  0  0  0  0  0  0  0
   35.4670   30.2460   47.0850 C   0  0  0  0  0  0  0  0  0  0  0  0
   36.5170   30.4030   46.2540 N   0  0  0  0  0  0  0  0  0  0  0  0
   37.0350   30.9550   50.4350 C   0  0  0  0  0  0  0  0  0  0  0  0
   36.5470   32.2110   50.7090 F   0  0  0  0  0  0  0  0  0  0  0  0
   36.3320   30.0320   51.1910 F   0  0  0  0  0  0  0  0  0  0  0  0
   38.3810   30.9310   50.7850 F   0  0  0  0  0  0  0  0  0  0  0  0
   40.5420   30.4450   42.7370 C   0  0  0  0  0  0  0  0  0  0  0  0
   40.1220   31.2130   41.6340 C   0  0  0  0  0  0  0  0  0  0  0  0
   40.5370   30.8220   40.3910 C   0  0  0  0  0  0  0  0  0  0  0  0
   41.3680   29.6650   40.2480 C   0  0  0  0  0  0  0  0  0  0  0  0
   41.5570   29.1180   42.0050 S   0  0  0  0  0  0  0  0  0  0  0  0
   41.9310   29.0260   39.2260 N   0  0  0  0  0  0  0  0  0  0  0  0
   41.4400   27.8460   38.8000 C   0  0  0  0  0  0  0  0  0  0  0  0
   42.0370   27.1800   37.7250 C   0  0  0  0  0  0  0  0  0  0  0  0
   43.1340   27.7900   37.1400 C   0  0  0  0  0  0  0  0  0  0  0  0
   43.7710   27.2930   36.1540 O   0  0  0  0  0  0  0  0  0  0  0  0
   43.6300   28.9740   37.5650 N   0  0  0  0  0  0  0  0  0  0  0  0
   43.0010   29.5720   38.6190 C   0  0  0  0  0  0  0  0  0  0  0  0
   43.4640   30.6710   39.0110 O   0  0  0  0  0  0  0  0  0  0  0  0
   40.2633   32.0734   47.0549 H   0  0  0  0  0  0  0  0  0  0  0  0
   41.8736   31.9634   44.8939 H   0  0  0  0  0  0  0  0  0  0  0  0
   38.9180   31.1918   48.5275 H   0  0  0  0  0  0  0  0  0  0  0  0
   34.4785   29.9753   46.6856 H   0  0  0  0  0  0  0  0  0  0  0  0
   39.4818   32.0975   41.7677 H   0  0  0  0  0  0  0  0  0  0  0  0
   40.2329   31.3953   39.5028 H   0  0  0  0  0  0  0  0  0  0  0  0
   40.5654   27.4043   39.3001 H   0  0  0  0  0  0  0  0  0  0  0  0
   41.6528   26.2158   37.3608 H   0  0  0  0  0  0  0  0  0  0  0  0
   44.4480   29.4066   37.1126 H   0  0  0  0  0  0  0  0  0  0  0  0
  1  2  1  0
  1  6  1  0
  3  2  2  0
  4  5  1  0
  4  3  1  0
  5  1  2  0
  6  7  2  0
  7  8  1  0
  8 12  1  0
  9  8  2  0
 10  9  1  0
 11  6  1  0
 11 10  2  0
 12 13  1  0
 12 15  1  0
 12 14  1  0
 16  4  1  0
 17 16  2  0
 18 17  1  0
 19 18  2  0
 19 20  1  0
 20 16  1  0
 21 19  1  0
 22 21  1  0
 23 22  2  0
 24 26  1  0
 24 23  1  0
 25 24  2  0
 26 27  1  0
 27 28  2  0
 27 21  1  0
  2 29  1  0
  3 30  1  0
  7 31  1  0
 10 32  1  0
 17 33  1  0
 18 34  1  0
 22 35  1  0
 23 36  1  0
 26 37  1  0
M  ISO  8  29  14  30  14  31  14  32  14  33  14  34  14  35  14  36  14
M  ISO  1  37   9
M  END
>  <minimizedAffinity>  (1) 
-6.56135559

>  <minimizedRMSD>  (1) 
0.601660132

$$$$
