
     RDKit          3D

 42 46  0  0  0  0  0  0  0  0999 V2000
   35.5499   29.6991   49.8106 C   0  0  0  0  0  0  0  0  0  0  0  0
   36.5424   29.5314   50.7539 C   0  0  0  0  0  0  0  0  0  0  0  0
   37.6696   30.0721   50.1456 C   0  0  0  0  0  0  0  0  0  0  0  0
   37.3284   30.5298   48.9021 C   0  0  0  0  0  0  0  0  0  0  0  0
   36.0363   30.2907   48.7250 O   0  0  0  0  0  0  0  0  0  0  0  0
   38.6315   32.4634   48.1432 C   0  0  0  0  0  0  0  0  0  0  0  0
   38.2038   31.1695   47.9244 C   0  0  0  0  0  0  0  0  0  0  0  0
   38.5840   30.4504   46.7923 C   0  0  0  0  0  0  0  0  0  0  0  0
   39.4131   31.0353   45.8514 C   0  0  0  0  0  0  0  0  0  0  0  0
   39.9499   30.6228   44.6807 N   0  0  0  0  0  0  0  0  0  0  0  0
   40.6794   31.6367   44.2073 N   0  0  0  0  0  0  0  0  0  0  0  0
   40.6194   32.6793   45.0453 C   0  0  0  0  0  0  0  0  0  0  0  0
   39.8136   32.3291   46.1146 C   0  0  0  0  0  0  0  0  0  0  0  0
   39.4719   33.0800   47.2063 C   0  0  0  0  0  0  0  0  0  0  0  0
   34.1582   29.2809   49.9892 C   0  0  0  0  0  0  0  0  0  0  0  0
   33.4952   29.8269   50.8929 O   0  0  0  0  0  0  0  0  0  0  0  0
   31.6926   27.1530   48.3483 C   0  0  0  0  0  0  0  0  0  0  0  0
   32.4622   26.3525   47.5194 C   0  0  0  0  0  0  0  0  0  0  0  0
   33.8256   26.5289   47.5109 C   0  0  0  0  0  0  0  0  0  0  0  0
   34.3582   27.4801   48.3154 N   0  0  0  0  0  0  0  0  0  0  0  0
   33.5953   28.2534   49.1187 C   0  0  0  0  0  0  0  0  0  0  0  0
   32.2626   28.0828   49.1286 N   0  0  0  0  0  0  0  0  0  0  0  0
   36.5088   29.0943   51.7393 H   0  0  0  0  0  0  0  0  0  0  0  0
   38.6648   30.1493   50.5276 H   0  0  0  0  0  0  0  0  0  0  0  0
   38.3436   33.0290   49.0154 H   0  0  0  0  0  0  0  0  0  0  0  0
   38.2437   29.4229   46.6196 H   0  0  0  0  0  0  0  0  0  0  0  0
   39.7759   29.6584   44.2808 H   0  0  0  0  0  0  0  0  0  0  0  0
   41.1472   33.6002   44.8356 H   0  0  0  0  0  0  0  0  0  0  0  0
   39.8243   34.0928   47.3487 H   0  0  0  0  0  0  0  0  0  0  0  0
   30.6132   27.0100   48.3521 H   0  0  0  0  0  0  0  0  0  0  0  0
   31.9640   25.6062   46.8982 H   0  0  0  0  0  0  0  0  0  0  0  0
   34.6219   25.7091   46.6609 N   0  0  0  0  0  0  0  0  0  0  0  0
   34.0602   24.7895   45.8452 C   0  0  0  0  0  0  0  0  0  0  0  0
   34.8436   23.9848   45.0107 C   0  0  0  0  0  0  0  0  0  0  0  0
   34.3928   23.2479   44.3571 H   0  0  0  0  0  0  0  0  0  0  0  0
   36.2127   24.1907   45.0756 C   0  0  0  0  0  0  0  0  0  0  0  0
   36.9695   23.4798   44.3323 O   0  0  0  0  0  0  0  0  0  0  0  0
   36.7471   25.1287   45.9114 N   0  0  0  0  0  0  0  0  0  0  0  0
   35.9567   25.8798   46.6959 C   0  0  0  0  0  0  0  0  0  0  0  0
   36.5632   26.7082   47.4212 O   0  0  0  0  0  0  0  0  0  0  0  0
   32.9677   24.6579   45.8242 H   0  0  0  0  0  0  0  0  0  0  0  0
   37.8056   25.2273   45.9045 H   0  0  0  0  0  0  0  0  0  0  0  0
  1 15  1  0
  1  2  2  0
  3  2  1  0
  4  3  2  0
  5  4  1  0
  5  1  1  0
  7  6  2  0
  7  4  1  0
  8  7  1  0
  9 13  1  0
  9  8  2  0
 10  9  1  0
 11 10  1  0
 11 12  2  0
 12 13  1  0
 13 14  2  0
 14  6  1  0
 15 16  2  0
 17 22  2  0
 18 17  1  0
 19 18  2  0
 19 20  1  0
 20 21  2  0
 21 22  1  0
 21 15  1  0
  2 23  1  0
  3 24  1  0
  6 25  1  0
  8 26  1  0
 10 27  1  0
 12 28  1  0
 14 29  1  0
 17 30  1  0
 18 31  1  0
 32 33  1  0
 33 34  2  0
 34 35  1  0
 34 36  1  0
 36 37  2  0
 36 38  1  0
 38 39  1  0
 39 40  2  0
 39 32  1  0
 33 41  1  0
 38 42  1  0
 19 32  1  0
M  ISO  8  23  14  24  14  25  14  26  14  27   9  28  14  29  14  30  14
M  ISO  2  31  14  35  16
M  END
>  <DihAtoms>  (1) 
17,18,31,32

>  <DihDeg>  (1) 
-88.40910472533851

$$$$
