
     RDKit          3D

 32 34  0  0  0  0  0  0  0  0999 V2000
   36.4300   29.4490   50.8380 C   0  0  0  0  0  0  0  0  0  0  0  0
   37.3270   30.0610   49.9670 C   0  0  0  0  0  0  0  0  0  0  0  0
   37.0610   30.3030   48.6210 C   0  0  0  0  0  0  0  0  0  0  0  0
   35.8450   29.8900   48.2240 N   0  0  0  0  0  0  0  0  0  0  0  0
   34.9620   29.2940   49.0550 C   0  0  0  0  0  0  0  0  0  0  0  0
   35.2410   29.0770   50.3260 N   0  0  0  0  0  0  0  0  0  0  0  0
   33.7250   28.9290   48.4440 N   0  0  0  0  0  0  0  0  0  0  0  0
   32.9470   27.9340   48.9160 C   0  0  0  0  0  0  0  0  0  0  0  0
   31.7510   27.5830   48.3220 C   0  0  0  0  0  0  0  0  0  0  0  0
   31.4240   28.3330   47.2130 C   0  0  0  0  0  0  0  0  0  0  0  0
   30.3340   28.0610   46.6200 O   0  0  0  0  0  0  0  0  0  0  0  0
   32.1710   29.3220   46.7230 N   0  0  0  0  0  0  0  0  0  0  0  0
   33.3370   29.6180   47.3540 C   0  0  0  0  0  0  0  0  0  0  0  0
   34.0070   30.5690   46.8410 O   0  0  0  0  0  0  0  0  0  0  0  0
   37.5780   33.1220   49.3260 Cl  0  0  0  0  0  0  0  0  0  0  0  0
   38.3030   32.2750   47.9890 C   0  0  0  0  0  0  0  0  0  0  0  0
   38.0050   30.9410   47.7250 C   0  0  0  0  0  0  0  0  0  0  0  0
   38.6120   30.3470   46.6600 C   0  0  0  0  0  0  0  0  0  0  0  0
   39.5050   31.0200   45.8460 C   0  0  0  0  0  0  0  0  0  0  0  0
   39.7880   32.3680   46.1380 C   0  0  0  0  0  0  0  0  0  0  0  0
   40.9200   33.1540   45.0740 Cl  0  0  0  0  0  0  0  0  0  0  0  0
   39.1940   32.9880   47.1970 C   0  0  0  0  0  0  0  0  0  0  0  0
   38.5940   30.4580   50.5030 N   0  0  0  0  0  0  0  0  0  0  0  0
   36.6805   29.2772   51.8952 H   0  0  0  0  0  0  0  0  0  0  0  0
   33.2775   27.3812   49.8077 H   0  0  0  0  0  0  0  0  0  0  0  0
   31.1123   26.7722   48.7023 H   0  0  0  0  0  0  0  0  0  0  0  0
   31.8725   29.8474   45.8889 H   0  0  0  0  0  0  0  0  0  0  0  0
   38.3837   29.2938   46.4393 H   0  0  0  0  0  0  0  0  0  0  0  0
   39.9817   30.5153   44.9927 H   0  0  0  0  0  0  0  0  0  0  0  0
   39.4179   34.0413   47.4218 H   0  0  0  0  0  0  0  0  0  0  0  0
   39.2897   30.9145   49.8960 H   0  0  0  0  0  0  0  0  0  0  0  0
   38.8097   30.2870   51.4956 H   0  0  0  0  0  0  0  0  0  0  0  0
  2 23  1  0
  2  1  2  0
  3  2  1  0
  4  3  2  0
  4  5  1  0
  5  6  2  0
  6  1  1  0
  7  8  1  0
  7  5  1  0
  9  8  2  0
 10  9  1  0
 11 10  2  0
 12 10  1  0
 12 13  1  0
 13  7  1  0
 14 13  2  0
 16 15  1  0
 17 16  2  0
 17  3  1  0
 18 17  1  0
 19 20  1  0
 19 18  2  0
 20 22  2  0
 21 20  1  0
 22 16  1  0
  1 24  1  0
  8 25  1  0
  9 26  1  0
 12 27  1  0
 18 28  1  0
 19 29  1  0
 22 30  1  0
 23 31  1  0
 23 32  1  0
M  ISO  7  24  14  25  14  26  14  27   9  28  14  29  14  30  14
M  END
>  <minimizedAffinity>  (1) 
-7.24596548

>  <minimizedRMSD>  (1) 
1.42520368

$$$$
