
     RDKit          3D

 39 41  0  0  0  0  0  0  0  0999 V2000
   38.1629   31.2424   44.9271 C   0  0  0  0  0  0  0  0  0  0  0  0
   37.3477   30.9402   45.9704 C   0  0  0  0  0  0  0  0  0  0  0  0
   36.1119   30.3479   45.7317 C   0  0  0  0  0  0  0  0  0  0  0  0
   35.6707   30.0524   44.4545 C   0  0  0  0  0  0  0  0  0  0  0  0
   36.4635   30.3467   43.3848 C   0  0  0  0  0  0  0  0  0  0  0  0
   37.6741   30.9276   43.6538 C   0  0  0  0  0  0  0  0  0  0  0  0
   38.6820   32.7791   48.8602 C   0  0  0  0  0  0  0  0  0  0  0  0
   38.3112   32.4434   47.5668 C   0  0  0  0  0  0  0  0  0  0  0  0
   37.7034   31.2525   47.3130 C   0  0  0  0  0  0  0  0  0  0  0  0
   37.4794   30.4297   48.3750 N   0  0  0  0  0  0  0  0  0  0  0  0
   37.8319   30.7514   49.6245 C   0  0  0  0  0  0  0  0  0  0  0  0
   38.4328   31.9227   49.8571 N   0  0  0  0  0  0  0  0  0  0  0  0
   37.4638   29.7898   50.6964 C   0  0  0  0  0  0  0  0  0  0  0  0
   37.7088   30.2994   51.9561 F   0  0  0  0  0  0  0  0  0  0  0  0
   36.0258   29.6320   50.7032 F   0  0  0  0  0  0  0  0  0  0  0  0
   37.9074   28.5587   50.5761 F   0  0  0  0  0  0  0  0  0  0  0  0
   39.7332   31.9327   45.1008 S   0  0  0  0  0  0  0  0  0  0  0  0
   39.6912   33.4020   44.8876 O   0  0  0  0  0  0  0  0  0  0  0  0
   40.2696   31.5773   43.7310 O   0  0  0  0  0  0  0  0  0  0  0  0
   41.1247   31.2299   45.7389 C   0  0  0  0  0  0  0  0  0  0  0  0
   35.4744   30.1121   46.5978 H   0  0  0  0  0  0  0  0  0  0  0  0
   34.7003   29.5934   44.3912 H   0  0  0  0  0  0  0  0  0  0  0  0
   36.0692   30.0977   42.4311 H   0  0  0  0  0  0  0  0  0  0  0  0
   38.2137   31.1180   42.7168 H   0  0  0  0  0  0  0  0  0  0  0  0
   39.1668   33.6635   49.2336 H   0  0  0  0  0  0  0  0  0  0  0  0
   38.5835   33.2947   46.9911 H   0  0  0  0  0  0  0  0  0  0  0  0
   40.9050   31.1133   46.8771 H   0  0  0  0  0  0  0  0  0  0  0  0
   41.2446   30.1637   45.4780 H   0  0  0  0  0  0  0  0  0  0  0  0
   42.3405   31.9578   45.7640 N   0  0  0  0  0  0  0  0  0  0  0  0
   43.5786   31.4494   45.9733 C   0  0  0  0  0  0  0  0  0  0  0  0
   44.7359   32.2018   45.9885 C   0  0  0  0  0  0  0  0  0  0  0  0
   45.6995   31.7020   46.1667 H   0  0  0  0  0  0  0  0  0  0  0  0
   44.6018   33.5627   45.7738 C   0  0  0  0  0  0  0  0  0  0  0  0
   45.6523   34.2320   45.7895 O   0  0  0  0  0  0  0  0  0  0  0  0
   43.3683   34.0923   45.5618 N   0  0  0  0  0  0  0  0  0  0  0  0
   42.3041   33.3041   45.5621 C   0  0  0  0  0  0  0  0  0  0  0  0
   41.1862   33.8855   45.3551 O   0  0  0  0  0  0  0  0  0  0  0  0
   43.6069   30.3764   46.1342 H   0  0  0  0  0  0  0  0  0  0  0  0
   43.3239   35.1234   45.4054 H   0  0  0  0  0  0  0  0  0  0  0  0
  1 17  1  0
  1  2  1  0
  2  9  1  0
  3  2  2  0
  4  3  1  0
  5  6  1  0
  5  4  2  0
  6  1  2  0
  7 12  2  0
  8  7  1  0
  9  8  2  0
  9 10  1  0
 10 11  2  0
 11 12  1  0
 11 13  1  0
 13 15  1  0
 13 14  1  0
 16 13  1  0
 17 20  1  0
 18 17  2  0
 19 17  2  0
  3 21  1  0
  4 22  1  0
  5 23  1  0
  6 24  1  0
  7 25  1  0
  8 26  1  0
 20 27  1  0
 20 28  1  0
 29 30  1  0
 30 31  2  0
 31 32  1  0
 31 33  1  0
 33 34  2  0
 33 35  1  0
 35 36  1  0
 36 37  2  0
 36 29  1  0
 30 38  1  0
 35 39  1  0
 20 29  1  0
M  ISO  8  21  14  22  14  23  14  24  14  25  14  26  14  27   8  28   8
M  ISO  1  32  16
M  END
>  <DihAtoms>  (1) 
16,19,28,29

>  <DihDeg>  (1) 
90.0000416801228

$$$$
