
     RDKit          3D

 42 44  0  0  0  0  0  0  0  0999 V2000
   37.0799   30.9493   49.0266 C   0  0  0  0  0  0  0  0  0  0  0  0
   36.8107   31.8810   50.0305 C   0  0  0  0  0  0  0  0  0  0  0  0
   37.4205   33.1233   50.0662 C   0  0  0  0  0  0  0  0  0  0  0  0
   38.3396   33.4607   49.0616 C   0  0  0  0  0  0  0  0  0  0  0  0
   38.5939   32.5385   48.0843 C   0  0  0  0  0  0  0  0  0  0  0  0
   37.9614   31.3029   48.0846 C   0  0  0  0  0  0  0  0  0  0  0  0
   36.4644   29.6401   49.0176 C   0  0  1  0  0  0  0  0  0  0  0  0
   36.8598   28.9012   49.9940 O   0  0  0  0  0  0  0  0  0  0  0  0
   33.6133   30.1476   46.8229 C   0  0  0  0  0  0  0  0  0  0  0  0
   32.9536   28.9340   46.8440 C   0  0  0  0  0  0  0  0  0  0  0  0
   33.4491   27.9352   47.6700 C   0  0  0  0  0  0  0  0  0  0  0  0
   34.5699   28.1870   48.4294 N   0  0  0  0  0  0  0  0  0  0  0  0
   35.1544   29.3658   48.3617 C   0  0  0  0  0  0  0  0  0  0  0  0
   34.6857   30.3467   47.5683 N   0  0  0  0  0  0  0  0  0  0  0  0
   38.3431   30.4160   47.0111 C   0  0  0  0  0  0  0  0  0  0  0  0
   38.8232   30.8373   45.8347 C   0  0  0  0  0  0  0  0  0  0  0  0
   39.2801   30.0222   44.6861 C   0  0  0  0  0  0  0  0  0  0  0  0
   39.1903   30.9972   43.1804 S   0  0  0  0  0  0  0  0  0  0  0  0
   36.0963   31.6062   50.8015 H   0  0  0  0  0  0  0  0  0  0  0  0
   37.1465   33.7630   50.8767 H   0  0  0  0  0  0  0  0  0  0  0  0
   38.7578   34.4347   49.1690 H   0  0  0  0  0  0  0  0  0  0  0  0
   39.3224   32.9430   47.3864 H   0  0  0  0  0  0  0  0  0  0  0  0
   37.0045   29.0568   48.1773 H   0  0  0  0  0  0  0  0  0  0  0  0
   36.4272   29.1425   50.8644 H   0  0  0  0  0  0  0  0  0  0  0  0
   33.2406   30.9315   46.1883 H   0  0  0  0  0  0  0  0  0  0  0  0
   32.0838   28.8283   46.2137 H   0  0  0  0  0  0  0  0  0  0  0  0
   32.9449   26.9932   47.6938 H   0  0  0  0  0  0  0  0  0  0  0  0
   38.3552   29.3295   46.8947 H   0  0  0  0  0  0  0  0  0  0  0  0
   38.9226   31.9342   45.6967 H   0  0  0  0  0  0  0  0  0  0  0  0
   38.5544   29.1718   44.5738 H   0  0  0  0  0  0  0  0  0  0  0  0
   40.2520   29.5644   44.8617 H   0  0  0  0  0  0  0  0  0  0  0  0
   34.6653   31.9427   44.3383 H   0  0  0  0  0  0  0  0  0  0  0  0
   35.3505   31.8424   43.5643 N   0  0  0  0  0  0  0  0  0  0  0  0
   36.6547   31.5297   43.7897 C   0  0  0  0  0  0  0  0  0  0  0  0
   37.5295   31.4069   42.7215 C   0  0  0  0  0  0  0  0  0  0  0  0
   37.0342   31.6100   41.4500 C   0  0  0  0  0  0  0  0  0  0  0  0
   37.8861   31.4813   40.5377 O   0  0  0  0  0  0  0  0  0  0  0  0
   35.7461   31.9193   41.2194 N   0  0  0  0  0  0  0  0  0  0  0  0
   34.9356   32.0271   42.2953 C   0  0  0  0  0  0  0  0  0  0  0  0
   33.7078   32.3193   42.1119 O   0  0  0  0  0  0  0  0  0  0  0  0
   36.9329   31.3927   44.8283 H   0  0  0  0  0  0  0  0  0  0  0  0
   35.4387   32.0594   40.2374 H   0  0  0  0  0  0  0  0  0  0  0  0
  1  7  1  0
  1  2  2  0
  2  3  1  0
  4  3  2  0
  5  6  2  0
  5  4  1  0
  6  1  1  0
  7  8  1  0
  9 10  2  0
  9 14  1  0
 10 11  1  0
 11 12  2  0
 13 12  1  0
 13  7  1  0
 14 13  2  0
 15  6  1  0
 16 15  2  0
 17 16  1  0
 18 17  1  0
  2 19  1  0
  3 20  1  0
  4 21  1  0
  5 22  1  0
  7 23  1  6
  8 24  1  0
  9 25  1  0
 10 26  1  0
 11 27  1  0
 15 28  1  0
 16 29  1  0
 17 30  1  0
 17 31  1  0
 32 33  1  0
 33 34  1  0
 34 35  2  0
 35 36  1  0
 36 37  2  0
 36 38  1  0
 38 39  1  0
 39 40  2  0
 39 33  1  0
 34 41  1  0
 38 42  1  0
 18 35  1  0
M  ISO  8  19  14  20  14  21  14  22  14  23   8  24   3  25  14  26  14
M  ISO  4  27  14  30   8  31   8  32   9
M  END
>  <DihAtoms>  (1) 
16,17,34,33

>  <DihDeg>  (1) 
-90.09362950084338

$$$$
