
     RDKit          3D

 36 38  0  0  0  0  0  0  0  0999 V2000
   34.7493   29.4331   48.7984 C   0  0  0  0  0  0  0  0  0  0  0  0
   34.2306   30.0664   47.6534 C   0  0  0  0  0  0  0  0  0  0  0  0
   33.5033   29.2415   46.7723 C   0  0  0  0  0  0  0  0  0  0  0  0
   33.3458   27.9219   47.0651 N   0  0  0  0  0  0  0  0  0  0  0  0
   33.8643   27.3505   48.1846 C   0  0  0  0  0  0  0  0  0  0  0  0
   34.5575   28.1144   49.0332 N   0  0  0  0  0  0  0  0  0  0  0  0
   35.5179   30.3007   49.7422 C   0  0  2  0  0  0  0  0  0  0  0  0
   36.4752   31.1722   48.9704 C   0  0  0  0  0  0  0  0  0  0  0  0
   37.9169   30.7973   49.1498 C   0  0  0  0  0  0  0  0  0  0  0  0
   38.3096   30.7866   50.6158 C   0  0  0  0  0  0  0  0  0  0  0  0
   37.2886   30.1341   51.5017 C   0  0  0  0  0  0  0  0  0  0  0  0
   36.2258   29.4104   50.7041 C   0  0  1  0  0  0  0  0  0  0  0  0
   34.3221   31.0862   47.3818 H   0  0  0  0  0  0  0  0  0  0  0  0
   33.0561   29.5831   45.8708 H   0  0  0  0  0  0  0  0  0  0  0  0
   33.7401   26.3222   48.4111 H   0  0  0  0  0  0  0  0  0  0  0  0
   34.8004   30.9500   50.2728 H   0  0  0  0  0  0  0  0  0  0  0  0
   36.3733   32.2490   49.2822 H   0  0  0  0  0  0  0  0  0  0  0  0
   36.2773   31.1239   47.8798 H   0  0  0  0  0  0  0  0  0  0  0  0
   38.0668   29.7552   48.7720 H   0  0  0  0  0  0  0  0  0  0  0  0
   38.5519   31.4952   48.6152 H   0  0  0  0  0  0  0  0  0  0  0  0
   39.2883   30.2611   50.6536 H   0  0  0  0  0  0  0  0  0  0  0  0
   38.5295   31.8322   50.9043 H   0  0  0  0  0  0  0  0  0  0  0  0
   36.8632   30.9423   52.1394 H   0  0  0  0  0  0  0  0  0  0  0  0
   37.7875   29.4016   52.1406 H   0  0  0  0  0  0  0  0  0  0  0  0
   36.8073   28.6688   50.0801 H   0  0  0  0  0  0  0  0  0  0  0  0
   35.3826   28.6550   51.5597 N   0  0  0  0  0  0  0  0  0  0  0  0
   35.7291   27.4307   52.0568 C   0  0  0  0  0  0  0  0  0  0  0  0
   34.9403   26.6704   52.8872 C   0  0  0  0  0  0  0  0  0  0  0  0
   35.2727   25.7065   53.2474 H   0  0  0  0  0  0  0  0  0  0  0  0
   33.7120   27.1572   53.2562 C   0  0  0  0  0  0  0  0  0  0  0  0
   32.9725   26.4800   54.0150 O   0  0  0  0  0  0  0  0  0  0  0  0
   33.3496   28.3593   52.7797 N   0  0  0  0  0  0  0  0  0  0  0  0
   34.1662   29.0562   51.9699 C   0  0  0  0  0  0  0  0  0  0  0  0
   33.7114   30.1467   51.6034 O   0  0  0  0  0  0  0  0  0  0  0  0
   36.6880   26.9957   51.8002 H   0  0  0  0  0  0  0  0  0  0  0  0
   32.4126   28.6983   53.0791 H   0  0  0  0  0  0  0  0  0  0  0  0
  1  6  1  0
  1  7  1  0
  2  1  2  0
  3  4  2  0
  3  2  1  0
  4  5  1  0
  5  6  2  0
  7 12  1  0
  8  9  1  0
  8  7  1  0
  9 10  1  0
 10 11  1  0
 12 11  1  0
  2 13  1  0
  3 14  1  0
  5 15  1  0
  7 16  1  1
  8 17  1  0
  8 18  1  0
  9 19  1  0
  9 20  1  0
 10 21  1  0
 10 22  1  0
 11 23  1  0
 11 24  1  0
 12 25  1  6
 26 27  1  0
 27 28  2  0
 28 29  1  0
 28 30  1  0
 30 31  2  0
 30 32  1  0
 32 33  1  0
 33 34  2  0
 33 26  1  0
 27 35  1  0
 32 36  1  0
 12 26  1  0
M  ISO  8  13  14  14  14  15  14  16  13  17  13  18  13  19  13  20  13
M  ISO  6  21  13  22  13  23  13  24  13  25  13  29  16
M  END
>  <DihAtoms>  (1) 
6,11,25,26

>  <DihDeg>  (1) 
120.3522892686342

$$$$
