
     RDKit          3D

 34 36  0  0  0  0  0  0  0  0999 V2000
   37.4672   31.4330   49.3843 C   0  0  0  0  0  0  0  0  0  0  0  0
   37.8710   32.7225   49.7005 C   0  0  0  0  0  0  0  0  0  0  0  0
   38.6810   33.3255   48.7561 C   0  0  0  0  0  0  0  0  0  0  0  0
   39.0329   32.6705   47.6147 N   0  0  0  0  0  0  0  0  0  0  0  0
   38.6160   31.4170   47.3493 C   0  0  0  0  0  0  0  0  0  0  0  0
   37.8174   30.8013   48.2660 N   0  0  0  0  0  0  0  0  0  0  0  0
   36.5559   30.7254   50.3514 C   0  0  0  0  0  0  0  0  0  0  0  0
   36.4971   29.3048   50.4611 C   0  0  0  0  0  0  0  0  0  0  0  0
   37.3390   30.0404   51.4967 C   0  0  0  0  0  0  0  0  0  0  0  0
   38.9799   30.7173   46.1210 C   0  0  0  0  0  0  0  0  0  0  0  0
   41.0566   31.5322   45.0348 C   0  0  0  0  0  0  0  0  0  0  0  0
   40.4486   32.2806   44.1794 O   0  0  0  0  0  0  0  0  0  0  0  0
   40.4164   30.7684   45.9837 N   0  0  0  0  0  0  0  0  0  0  0  0
   37.6113   33.2670   50.5958 H   0  0  0  0  0  0  0  0  0  0  0  0
   39.0532   34.3288   48.8985 H   0  0  0  0  0  0  0  0  0  0  0  0
   35.6967   31.3579   50.7255 H   0  0  0  0  0  0  0  0  0  0  0  0
   35.5684   28.8115   50.8126 H   0  0  0  0  0  0  0  0  0  0  0  0
   37.0946   28.6696   49.7560 H   0  0  0  0  0  0  0  0  0  0  0  0
   36.9259   30.1722   52.5139 H   0  0  0  0  0  0  0  0  0  0  0  0
   38.4447   29.9918   51.4096 H   0  0  0  0  0  0  0  0  0  0  0  0
   38.4658   31.1463   45.2348 H   0  0  0  0  0  0  0  0  0  0  0  0
   38.7251   29.6456   46.2127 H   0  0  0  0  0  0  0  0  0  0  0  0
   41.1654   30.3089   46.4899 H   0  0  0  0  0  0  0  0  0  0  0  0
   45.1995   30.2119   45.2886 H   0  0  0  0  0  0  0  0  0  0  0  0
   44.4255   30.8478   44.9091 N   0  0  0  0  0  0  0  0  0  0  0  0
   43.0356   31.0204   45.0544 C   0  0  0  0  0  0  0  0  0  0  0  0
   42.1675   32.0426   44.3620 C   0  0  0  0  0  0  0  0  0  0  0  0
   43.1348   32.4869   43.7762 C   0  0  0  0  0  0  0  0  0  0  0  0
   42.3147   33.3761   43.1835 O   0  0  0  0  0  0  0  0  0  0  0  0
   44.3790   32.6663   43.3604 N   0  0  0  0  0  0  0  0  0  0  0  0
   45.0657   31.7039   44.0403 C   0  0  0  0  0  0  0  0  0  0  0  0
   46.3131   31.7310   43.7546 O   0  0  0  0  0  0  0  0  0  0  0  0
   43.0024   30.1504   45.8092 H   0  0  0  0  0  0  0  0  0  0  0  0
   44.6403   33.3951   42.6884 H   0  0  0  0  0  0  0  0  0  0  0  0
  1  2  2  0
  1  7  1  0
  3  2  1  0
  4  3  2  0
  5  4  1  0
  5  6  2  0
  6  1  1  0
  7  8  1  0
  7  9  1  0
  8  9  1  0
 10  5  1  0
 11 13  1  0
 12 11  2  0
 13 10  1  0
  2 14  1  0
  3 15  1  0
  7 16  1  0
  8 17  1  0
  8 18  1  0
  9 19  1  0
  9 20  1  0
 10 21  1  0
 10 22  1  0
 13 23  1  0
 24 25  1  0
 25 26  1  0
 26 27  2  0
 27 28  1  0
 28 29  2  0
 28 30  1  0
 30 31  1  0
 31 32  2  0
 31 25  1  0
 26 33  1  0
 30 34  1  0
 11 27  1  0
M  ISO  8  14  14  15  14  16  13  17  13  18  13  19  13  20  13  21   8
M  ISO  2  22   8  24   9
M  END
>  <DihAtoms>  (1) 
12,10,26,25

>  <DihDeg>  (1) 
-3.234895048953439

$$$$
