
     RDKit          3D

 27 29  0  0  0  0  0  0  0  0999 V2000
   37.0129   31.1477   49.2408 C   0  0  0  0  0  0  0  0  0  0  0  0
   37.3205   32.4384   49.7096 C   0  0  0  0  0  0  0  0  0  0  0  0
   38.3011   33.1273   49.0175 C   0  0  0  0  0  0  0  0  0  0  0  0
   38.9052   32.5445   47.9475 N   0  0  0  0  0  0  0  0  0  0  0  0
   38.5830   31.2853   47.5154 C   0  0  0  0  0  0  0  0  0  0  0  0
   37.6181   30.5964   48.1903 N   0  0  0  0  0  0  0  0  0  0  0  0
   35.9281   30.3978   49.9731 C   0  0  1  0  0  0  0  0  0  0  0  0
   35.7951   28.9521   49.8480 C   0  0  1  0  0  0  0  0  0  0  0  0
   36.4710   29.4995   51.0778 C   0  0  0  0  0  0  0  0  0  0  0  0
   36.8427   32.9054   50.5590 H   0  0  0  0  0  0  0  0  0  0  0  0
   38.6189   34.1338   49.2939 H   0  0  0  0  0  0  0  0  0  0  0  0
   39.0981   30.8747   46.6577 H   0  0  0  0  0  0  0  0  0  0  0  0
   35.1220   31.1109   50.2836 H   0  0  0  0  0  0  0  0  0  0  0  0
   36.5346   28.4823   49.1335 H   0  0  0  0  0  0  0  0  0  0  0  0
   37.5711   29.4069   51.1975 H   0  0  0  0  0  0  0  0  0  0  0  0
   35.8803   29.4292   52.0097 H   0  0  0  0  0  0  0  0  0  0  0  0
   34.5537   28.2521   49.9304 N   0  0  0  0  0  0  0  0  0  0  0  0
   33.4150   28.6987   49.3272 C   0  0  0  0  0  0  0  0  0  0  0  0
   32.2057   28.0607   49.3801 C   0  0  0  0  0  0  0  0  0  0  0  0
   31.3510   28.5076   48.8576 H   0  0  0  0  0  0  0  0  0  0  0  0
   32.1349   26.8796   50.0964 C   0  0  0  0  0  0  0  0  0  0  0  0
   31.0363   26.2702   50.1629 O   0  0  0  0  0  0  0  0  0  0  0  0
   33.2606   26.4120   50.7090 N   0  0  0  0  0  0  0  0  0  0  0  0
   34.4228   27.0995   50.6118 C   0  0  0  0  0  0  0  0  0  0  0  0
   35.3778   26.5841   51.2056 O   0  0  0  0  0  0  0  0  0  0  0  0
   33.5010   29.6312   48.7702 H   0  0  0  0  0  0  0  0  0  0  0  0
   33.1177   25.5326   51.2167 H   0  0  0  0  0  0  0  0  0  0  0  0
  1  2  2  0
  1  7  1  0
  3  2  1  0
  4  3  2  0
  5  4  1  0
  5  6  2  0
  6  1  1  0
  7  9  1  0
  8  7  1  0
  8  9  1  0
  2 10  1  0
  3 11  1  0
  5 12  1  0
  7 13  1  1
  8 14  1  6
  9 15  1  0
  9 16  1  0
 17 18  1  0
 18 19  2  0
 19 20  1  0
 19 21  1  0
 21 22  2  0
 21 23  1  0
 23 24  1  0
 24 25  2  0
 24 17  1  0
 18 26  1  0
 23 27  1  0
  8 17  1  0
M  ISO  8  10  14  11  14  12  14  13  13  14  13  15  13  16  13  20  16
M  END
>  <DihAtoms>  (1) 
6,7,16,17

>  <DihDeg>  (1) 
147.5212841176068

$$$$
