
     RDKit          3D

 21 22  0  0  0  0  0  0  0  0999 V2000
   37.2710   30.1830   51.4171 C   0  0  0  0  0  0  0  0  0  0  0  0
   38.1177   30.7591   50.4733 C   0  0  0  0  0  0  0  0  0  0  0  0
   37.8455   30.5483   49.1157 C   0  0  0  0  0  0  0  0  0  0  0  0
   36.7555   29.7828   48.7800 N   0  0  0  0  0  0  0  0  0  0  0  0
   35.9560   29.2397   49.7306 C   0  0  0  0  0  0  0  0  0  0  0  0
   36.2125   29.4389   51.0393 N   0  0  0  0  0  0  0  0  0  0  0  0
   34.5438   28.2473   49.2779 S   0  0  0  0  0  0  0  0  0  0  0  0
   37.5063   30.3624   52.4586 H   0  0  0  0  0  0  0  0  0  0  0  0
   38.9739   31.3601   50.7157 H   0  0  0  0  0  0  0  0  0  0  0  0
   38.4463   30.9540   48.2888 H   0  0  0  0  0  0  0  0  0  0  0  0
   36.0104   24.5886   46.5753 H   0  0  0  0  0  0  0  0  0  0  0  0
   35.7029   24.9143   47.5194 N   0  0  0  0  0  0  0  0  0  0  0  0
   35.3513   26.1930   47.8242 C   0  0  0  0  0  0  0  0  0  0  0  0
   34.9579   26.5164   49.1167 C   0  0  0  0  0  0  0  0  0  0  0  0
   34.9227   25.5415   50.0960 C   0  0  0  0  0  0  0  0  0  0  0  0
   34.5482   25.9682   51.2247 O   0  0  0  0  0  0  0  0  0  0  0  0
   35.2762   24.2843   49.7654 N   0  0  0  0  0  0  0  0  0  0  0  0
   35.6504   23.9936   48.5207 C   0  0  0  0  0  0  0  0  0  0  0  0
   35.9764   22.7989   48.2445 O   0  0  0  0  0  0  0  0  0  0  0  0
   35.4192   26.8506   46.9869 H   0  0  0  0  0  0  0  0  0  0  0  0
   35.2300   23.5946   50.5447 H   0  0  0  0  0  0  0  0  0  0  0  0
  2  1  2  0
  3  2  1  0
  4  3  2  0
  4  5  1  0
  5  6  2  0
  6  1  1  0
  7  5  1  0
  1  8  1  0
  2  9  1  0
  3 10  1  0
 11 12  1  0
 12 13  1  0
 13 14  2  0
 14 15  1  0
 15 16  2  0
 15 17  1  0
 17 18  1  0
 18 19  2  0
 18 12  1  0
 13 20  1  0
 17 21  1  0
  7 14  1  0
M  ISO  4   8  14   9  14  10  14  11   9
M  END
>  <DihAtoms>  (1) 
4,6,13,12

>  <DihDeg>  (1) 
-179.97052828826259

$$$$
