
     RDKit          3D

 29 30  0  0  0  0  0  0  0  0999 V2000
   38.9550   31.5530   43.3760 O   0  0  0  0  0  0  0  0  0  0  0  0
   39.0070   30.2240   44.1100 P   0  0  2  0  0  0  0  0  0  0  0  0
   40.0090   29.2100   43.1680 O   0  0  0  0  0  0  0  0  0  0  0  0
   37.4580   29.5570   44.2120 O   0  0  0  0  0  0  0  0  0  0  0  0
   36.5650   30.4940   43.7530 C   0  0  0  0  0  0  0  0  0  0  0  0
   35.2530   30.4470   44.4470 C   0  0  0  0  0  0  0  0  0  0  0  0
   35.2260   29.9660   45.7540 C   0  0  0  0  0  0  0  0  0  0  0  0
   34.0160   29.9080   46.4350 C   0  0  0  0  0  0  0  0  0  0  0  0
   32.9050   30.3370   45.7640 N   0  0  0  0  0  0  0  0  0  0  0  0
   32.9570   30.7970   44.5030 C   0  0  0  0  0  0  0  0  0  0  0  0
   34.1260   30.8530   43.8460 N   0  0  0  0  0  0  0  0  0  0  0  0
   39.6870   30.4910   45.6240 O   0  0  0  0  0  0  0  0  0  0  0  0
   37.7500   31.4260   48.4770 N   0  0  0  0  0  0  0  0  0  0  0  0
   38.3210   30.7530   47.4640 C   0  0  0  0  0  0  0  0  0  0  0  0
   39.2260   31.3530   46.5820 C   0  0  0  0  0  0  0  0  0  0  0  0
   39.5100   32.6880   46.8040 C   0  0  0  0  0  0  0  0  0  0  0  0
   40.3360   33.1570   45.9660 O   0  0  0  0  0  0  0  0  0  0  0  0
   38.9330   33.3520   47.8220 N   0  0  0  0  0  0  0  0  0  0  0  0
   38.0670   32.7380   48.6470 C   0  0  0  0  0  0  0  0  0  0  0  0
   37.5610   33.4120   49.5800 O   0  0  0  0  0  0  0  0  0  0  0  0
   40.5642   28.6481   43.7648 H   0  0  0  0  0  0  0  0  0  0  0  0
   37.0015   31.4930   43.8995 H   0  0  0  0  0  0  0  0  0  0  0  0
   36.3793   30.2734   42.6915 H   0  0  0  0  0  0  0  0  0  0  0  0
   36.1542   29.6350   46.2427 H   0  0  0  0  0  0  0  0  0  0  0  0
   33.9550   29.5337   47.4676 H   0  0  0  0  0  0  0  0  0  0  0  0
   32.0345   31.1303   44.0051 H   0  0  0  0  0  0  0  0  0  0  0  0
   37.0865   30.9586   49.1112 H   0  0  0  0  0  0  0  0  0  0  0  0
   38.0677   29.6919   47.3231 H   0  0  0  0  0  0  0  0  0  0  0  0
   39.1582   34.3459   47.9716 H   0  0  0  0  0  0  0  0  0  0  0  0
  2  1  2  0
  2  4  1  0
  2 12  1  0
  3  2  1  0
  5  4  1  0
  5  6  1  0
  6  7  2  0
  7  8  1  0
  9  8  2  0
 10  9  1  0
 11  6  1  0
 11 10  2  0
 12 15  1  0
 13 19  1  0
 14 13  1  0
 15 16  1  0
 15 14  2  0
 16 18  1  0
 17 16  2  0
 18 19  1  0
 19 20  2  0
  3 21  1  0
  5 22  1  0
  5 23  1  0
  7 24  1  0
  8 25  1  0
 10 26  1  0
 13 27  1  0
 14 28  1  0
 18 29  1  0
M  ISO  8  21   3  22   8  23   8  24  14  25  14  26  14  27   9  28  14
M  ISO  1  29   9
M  END
>  <minimizedAffinity>  (1) 
-4.43154097

>  <minimizedRMSD>  (1) 
5.24816084

$$$$
