
     RDKit          3D

 41 43  0  0  1  0  0  0  0  0999 V2000
   31.5380   26.7360   48.4350 C   0  0  1  0  0  0  0  0  0  0  0  0
   32.2110   28.0830   48.3180 C   0  0  2  0  0  0  0  0  0  0  0  0
   32.0990   28.5090   46.8820 C   0  0  0  0  0  0  0  0  0  0  0  0
   31.4420   27.6030   46.0840 O   0  0  0  0  0  0  0  0  0  0  0  0
   30.1470   27.3410   46.5290 C   0  0  0  0  0  0  0  0  0  0  0  0
   30.1000   26.9170   47.9710 C   0  0  2  0  0  0  0  0  0  0  0  0
   32.1230   25.7960   47.5880 O   0  0  0  0  0  0  0  0  0  0  0  0
   33.9330   28.0230   48.8610 S   0  0  0  0  0  0  0  0  0  0  0  0
   34.2870   29.4130   49.9550 C   0  0  0  0  0  0  0  0  0  0  0  0
   35.9450   29.4590   50.5910 S   0  0  0  0  0  0  0  0  0  0  0  0
   36.9280   30.5650   49.5870 C   0  0  0  0  0  0  0  0  0  0  0  0
   37.0080   31.8660   50.0480 C   0  0  0  0  0  0  0  0  0  0  0  0
   37.7580   32.7980   49.3230 C   0  0  0  0  0  0  0  0  0  0  0  0
   38.3760   32.3540   48.1810 N   0  0  0  0  0  0  0  0  0  0  0  0
   38.2590   31.0720   47.7830 C   0  0  0  0  0  0  0  0  0  0  0  0
   37.5580   30.1920   48.4580 N   0  0  0  0  0  0  0  0  0  0  0  0
   29.5870   27.9380   48.7590 O   0  0  0  0  0  0  0  0  0  0  0  0
   26.2500   29.4640   48.5030 N   0  0  0  0  0  0  0  0  0  0  0  0
   27.5320   29.1730   48.2360 C   0  0  0  0  0  0  0  0  0  0  0  0
   28.2850   28.2870   48.9640 C   0  0  0  0  0  0  0  0  0  0  0  0
   27.6780   27.6490   50.0520 C   0  0  0  0  0  0  0  0  0  0  0  0
   28.2270   26.8010   50.8330 O   0  0  0  0  0  0  0  0  0  0  0  0
   26.3730   27.9460   50.3220 N   0  0  0  0  0  0  0  0  0  0  0  0
   25.7010   28.8290   49.5570 C   0  0  0  0  0  0  0  0  0  0  0  0
   24.4860   29.1180   49.7940 O   0  0  0  0  0  0  0  0  0  0  0  0
   31.6216   26.3830   49.4735 H   0  0  0  0  0  0  0  0  0  0  0  0
   31.7179   28.8135   48.9762 H   0  0  0  0  0  0  0  0  0  0  0  0
   31.5533   29.4634   46.8450 H   0  0  0  0  0  0  0  0  0  0  0  0
   33.1241   28.5946   46.4924 H   0  0  0  0  0  0  0  0  0  0  0  0
   29.5438   28.2533   46.4112 H   0  0  0  0  0  0  0  0  0  0  0  0
   29.7521   26.5096   45.9267 H   0  0  0  0  0  0  0  0  0  0  0  0
   29.4865   26.0082   48.0583 H   0  0  0  0  0  0  0  0  0  0  0  0
   32.5611   25.0920   48.1288 H   0  0  0  0  0  0  0  0  0  0  0  0
   34.1098   30.3429   49.3947 H   0  0  0  0  0  0  0  0  0  0  0  0
   33.6250   29.2973   50.8259 H   0  0  0  0  0  0  0  0  0  0  0  0
   36.4895   32.1638   50.9713 H   0  0  0  0  0  0  0  0  0  0  0  0
   37.8486   33.8430   49.6544 H   0  0  0  0  0  0  0  0  0  0  0  0
   38.7681   30.7526   46.8617 H   0  0  0  0  0  0  0  0  0  0  0  0
   25.7151   30.1355   47.9339 H   0  0  0  0  0  0  0  0  0  0  0  0
   28.0085   29.6754   47.3813 H   0  0  0  0  0  0  0  0  0  0  0  0
   25.8988   27.4921   51.1158 H   0  0  0  0  0  0  0  0  0  0  0  0
  2  1  1  0
  2  8  1  0
  3  2  1  0
  4  5  1  0
  4  3  1  0
  5  6  1  0
  6  1  1  0
  6 17  1  0
  7  1  1  0
  8  9  1  0
  9 10  1  0
 11 12  2  0
 11 10  1  0
 13 12  1  0
 14 13  2  0
 15 14  1  0
 15 16  2  0
 16 11  1  0
 17 20  1  0
 18 24  1  0
 19 18  1  0
 19 20  2  0
 20 21  1  0
 21 23  1  0
 21 22  2  0
 24 25  2  0
 24 23  1  0
  1 26  1  1
  2 27  1  1
  3 28  1  0
  3 29  1  0
  5 30  1  0
  5 31  1  0
  6 32  1  6
  7 33  1  0
  9 34  1  0
  9 35  1  0
 12 36  1  0
 13 37  1  0
 15 38  1  0
 18 39  1  0
 19 40  1  0
 23 41  1  0
M  ISO  8  26  13  27  13  28  13  29  13  30  13  31  13  32  13  33   3
M  ISO  8  34   8  35   8  36  14  37  14  38  14  39   9  40  14  41   9
M  END
>  <minimizedAffinity>  (1) 
-6.04512739

>  <minimizedRMSD>  (1) 
1.87220228

$$$$
