
     RDKit          3D

 21 22  0  0  0  0  0  0  0  0999 V2000
   37.3300   30.2341   51.4127 C   0  0  0  0  0  0  0  0  0  0  0  0
   38.0827   30.7401   50.3478 C   0  0  0  0  0  0  0  0  0  0  0  0
   37.6968   30.3725   49.0515 C   0  0  0  0  0  0  0  0  0  0  0  0
   36.6079   29.5407   48.8891 N   0  0  0  0  0  0  0  0  0  0  0  0
   35.9189   29.0837   49.9695 C   0  0  0  0  0  0  0  0  0  0  0  0
   36.2797   29.4302   51.2299 N   0  0  0  0  0  0  0  0  0  0  0  0
   34.8760   28.2737   49.5886 O   0  0  0  0  0  0  0  0  0  0  0  0
   37.6353   30.5231   52.4095 H   0  0  0  0  0  0  0  0  0  0  0  0
   38.9341   31.3906   50.4769 H   0  0  0  0  0  0  0  0  0  0  0  0
   38.2388   30.7305   48.1767 H   0  0  0  0  0  0  0  0  0  0  0  0
   32.1125   28.4550   53.0154 H   0  0  0  0  0  0  0  0  0  0  0  0
   32.5197   27.8625   52.2361 N   0  0  0  0  0  0  0  0  0  0  0  0
   33.4379   28.4187   51.3965 C   0  0  0  0  0  0  0  0  0  0  0  0
   33.9665   27.6332   50.3769 C   0  0  0  0  0  0  0  0  0  0  0  0
   33.5340   26.3268   50.2661 C   0  0  0  0  0  0  0  0  0  0  0  0
   34.0339   25.6529   49.3353 O   0  0  0  0  0  0  0  0  0  0  0  0
   32.6218   25.8027   51.1141 N   0  0  0  0  0  0  0  0  0  0  0  0
   32.1154   26.5839   52.1045 C   0  0  0  0  0  0  0  0  0  0  0  0
   31.2609   26.1278   52.9158 O   0  0  0  0  0  0  0  0  0  0  0  0
   33.7103   29.4363   51.5607 H   0  0  0  0  0  0  0  0  0  0  0  0
   32.3106   24.8109   51.0090 H   0  0  0  0  0  0  0  0  0  0  0  0
  2  1  2  0
  3  2  1  0
  4  3  2  0
  4  5  1  0
  5  6  2  0
  6  1  1  0
  7  5  1  0
  1  8  1  0
  2  9  1  0
  3 10  1  0
 11 12  1  0
 12 13  1  0
 13 14  2  0
 14 15  1  0
 15 16  2  0
 15 17  1  0
 17 18  1  0
 18 19  2  0
 18 12  1  0
 13 20  1  0
 17 21  1  0
  7 14  1  0
M  ISO  4   8  14   9  14  10  14  11   9
M  END
>  <DihAtoms>  (1) 
4,6,13,12

>  <DihDeg>  (1) 
120.00255456883448

$$$$
