
     RDKit          3D

 41 43  0  0  1  0  0  0  0  0999 V2000
   38.8790   32.3070   47.7600 C   0  0  2  0  0  0  0  0  0  0  0  0
   38.2040   31.3870   48.7610 C   0  0  1  0  0  0  0  0  0  0  0  0
   38.7590   32.0140   50.0420 C   0  0  0  0  0  0  0  0  0  0  0  0
   38.4480   33.3480   49.8290 O   0  0  0  0  0  0  0  0  0  0  0  0
   38.6940   33.6430   48.5030 C   0  0  0  0  0  0  0  0  0  0  0  0
   36.8500   31.6010   48.6810 O   0  0  0  0  0  0  0  0  0  0  0  0
   35.9010   29.8470   47.0020 O   0  0  0  0  0  0  0  0  0  0  0  0
   35.9720   30.1760   48.4650 P   0  0  1  0  0  0  0  0  0  0  0  0
   36.7780   28.8850   49.2580 O   0  0  0  0  0  0  0  0  0  0  0  0
   34.4160   30.3500   49.1220 O   0  0  0  0  0  0  0  0  0  0  0  0
   34.1490   29.2000   49.8360 C   0  0  0  0  0  0  0  0  0  0  0  0
   33.2830   28.2420   49.1130 C   0  0  0  0  0  0  0  0  0  0  0  0
   33.9120   27.3490   48.2770 C   0  0  0  0  0  0  0  0  0  0  0  0
   33.1490   26.4190   47.5660 C   0  0  0  0  0  0  0  0  0  0  0  0
   31.7980   26.4560   47.7500 N   0  0  0  0  0  0  0  0  0  0  0  0
   31.2050   27.3440   48.5760 C   0  0  0  0  0  0  0  0  0  0  0  0
   31.9480   28.2380   49.2570 N   0  0  0  0  0  0  0  0  0  0  0  0
   38.1550   32.2670   46.5930 O   0  0  0  0  0  0  0  0  0  0  0  0
   38.4740   32.5100   42.9300 N   0  0  0  0  0  0  0  0  0  0  0  0
   37.9850   32.6450   44.1700 C   0  0  0  0  0  0  0  0  0  0  0  0
   38.6290   32.1470   45.2980 C   0  0  0  0  0  0  0  0  0  0  0  0
   39.8250   31.4890   45.0950 C   0  0  0  0  0  0  0  0  0  0  0  0
   40.5290   30.9820   46.0220 O   0  0  0  0  0  0  0  0  0  0  0  0
   40.3430   31.3390   43.8440 N   0  0  0  0  0  0  0  0  0  0  0  0
   39.6490   31.8530   42.8140 C   0  0  0  0  0  0  0  0  0  0  0  0
   40.0960   31.7350   41.6430 O   0  0  0  0  0  0  0  0  0  0  0  0
   39.9197   32.0855   47.4811 H   0  0  0  0  0  0  0  0  0  0  0  0
   38.3690   30.3050   48.6508 H   0  0  0  0  0  0  0  0  0  0  0  0
   38.2573   31.6185   50.9375 H   0  0  0  0  0  0  0  0  0  0  0  0
   39.8259   31.8165   50.2226 H   0  0  0  0  0  0  0  0  0  0  0  0
   39.6067   34.2509   48.4162 H   0  0  0  0  0  0  0  0  0  0  0  0
   37.8594   34.2149   48.0713 H   0  0  0  0  0  0  0  0  0  0  0  0
   36.7046   29.0026   50.2382 H   0  0  0  0  0  0  0  0  0  0  0  0
   35.1033   28.7027   50.0640 H   0  0  0  0  0  0  0  0  0  0  0  0
   33.6076   29.5025   50.7445 H   0  0  0  0  0  0  0  0  0  0  0  0
   35.0065   27.3668   48.1690 H   0  0  0  0  0  0  0  0  0  0  0  0
   33.6169   25.6898   46.8883 H   0  0  0  0  0  0  0  0  0  0  0  0
   30.1113   27.3376   48.6934 H   0  0  0  0  0  0  0  0  0  0  0  0
   37.9803   32.8871   42.1085 H   0  0  0  0  0  0  0  0  0  0  0  0
   37.0298   33.1743   44.3023 H   0  0  0  0  0  0  0  0  0  0  0  0
   41.2359   30.8485   43.6926 H   0  0  0  0  0  0  0  0  0  0  0  0
  1  5  1  0
  1  2  1  0
  2  3  1  0
  4  3  1  0
  5  4  1  0
  6  2  1  0
  8  7  2  0
  8  6  1  0
  8 10  1  0
  8  9  1  0
 10 11  1  0
 12 17  1  0
 12 11  1  0
 13 12  2  0
 14 15  2  0
 14 13  1  0
 15 16  1  0
 16 17  2  0
 18  1  1  0
 19 20  1  0
 20 21  2  0
 21 18  1  0
 22 21  1  0
 22 23  2  0
 24 22  1  0
 25 19  1  0
 25 24  1  0
 26 25  2  0
  1 27  1  6
  2 28  1  6
  3 29  1  0
  3 30  1  0
  5 31  1  0
  5 32  1  0
  9 33  1  0
 11 34  1  0
 11 35  1  0
 13 36  1  0
 14 37  1  0
 16 38  1  0
 19 39  1  0
 20 40  1  0
 24 41  1  0
M  ISO  8  27  13  28  13  29  13  30  13  31  13  32  13  33   3  34   8
M  ISO  7  35   8  36  14  37  14  38  14  39   9  40  14  41   9
M  END
>  <minimizedAffinity>  (1) 
-5.18692875

>  <minimizedRMSD>  (1) 
0.302000761

$$$$
