
     RDKit          3D

 40 43  0  0  0  0  0  0  0  0999 V2000
   35.8114   30.5483   49.0683 C   0  0  1  0  0  0  0  0  0  0  0  0
   35.9044   29.1261   48.8359 C   0  0  1  0  0  0  0  0  0  0  0  0
   36.0594   29.5907   50.2469 C   0  0  0  0  0  0  0  0  0  0  0  0
   37.0076   31.4574   48.8204 C   0  0  0  0  0  0  0  0  0  0  0  0
   37.1794   32.5320   49.6962 C   0  0  0  0  0  0  0  0  0  0  0  0
   38.2705   33.3420   49.4130 C   0  0  0  0  0  0  0  0  0  0  0  0
   39.0933   33.0805   48.3510 N   0  0  0  0  0  0  0  0  0  0  0  0
   38.8823   32.0215   47.5285 C   0  0  0  0  0  0  0  0  0  0  0  0
   37.8271   31.2001   47.7661 N   0  0  0  0  0  0  0  0  0  0  0  0
   33.9653   29.0782   47.3743 C   0  0  2  0  0  0  0  0  0  0  0  0
   34.7485   28.2810   48.4102 C   0  0  2  0  0  0  0  0  0  0  0  0
   33.8734   28.0637   49.4411 O   0  0  0  0  0  0  0  0  0  0  0  0
   32.5805   28.1331   49.0051 C   0  0  0  0  0  0  0  0  0  0  0  0
   32.6034   28.3847   47.5089 C   0  0  1  0  0  0  0  0  0  0  0  0
   34.4581   28.9721   46.0951 O   0  0  0  0  0  0  0  0  0  0  0  0
   31.5814   29.1616   47.0609 O   0  0  0  0  0  0  0  0  0  0  0  0
   34.9060   31.1572   49.2326 H   0  0  0  0  0  0  0  0  0  0  0  0
   36.8732   28.7810   48.3690 H   0  0  0  0  0  0  0  0  0  0  0  0
   37.0491   29.5894   50.7308 H   0  0  0  0  0  0  0  0  0  0  0  0
   35.1994   29.3861   50.9122 H   0  0  0  0  0  0  0  0  0  0  0  0
   36.5029   32.6825   50.5062 H   0  0  0  0  0  0  0  0  0  0  0  0
   38.4500   34.1900   50.0614 H   0  0  0  0  0  0  0  0  0  0  0  0
   39.5590   31.8656   46.7124 H   0  0  0  0  0  0  0  0  0  0  0  0
   33.8034   30.1239   47.6583 H   0  0  0  0  0  0  0  0  0  0  0  0
   35.0444   27.3469   47.8957 H   0  0  0  0  0  0  0  0  0  0  0  0
   32.0812   28.9627   49.5549 H   0  0  0  0  0  0  0  0  0  0  0  0
   32.1024   27.1522   49.2359 H   0  0  0  0  0  0  0  0  0  0  0  0
   32.6868   27.4104   47.0148 H   0  0  0  0  0  0  0  0  0  0  0  0
   35.0804   28.2180   45.9407 H   0  0  0  0  0  0  0  0  0  0  0  0
   30.1353   27.3763   43.1753 H   0  0  0  0  0  0  0  0  0  0  0  0
   29.8313   27.8452   44.0768 N   0  0  0  0  0  0  0  0  0  0  0  0
   30.9000   28.1289   44.8404 C   0  0  0  0  0  0  0  0  0  0  0  0
   30.7232   28.7440   46.0614 C   0  0  0  0  0  0  0  0  0  0  0  0
   29.4103   29.0466   46.4488 C   0  0  0  0  0  0  0  0  0  0  0  0
   29.0159   29.6010   47.5086 O   0  0  0  0  0  0  0  0  0  0  0  0
   28.3576   28.7382   45.6378 N   0  0  0  0  0  0  0  0  0  0  0  0
   28.5743   28.1380   44.4537 C   0  0  0  0  0  0  0  0  0  0  0  0
   27.6913   27.8045   43.6214 O   0  0  0  0  0  0  0  0  0  0  0  0
   31.9410   27.9469   44.6512 H   0  0  0  0  0  0  0  0  0  0  0  0
   27.3583   28.9280   45.8502 H   0  0  0  0  0  0  0  0  0  0  0  0
  1  3  1  0
  2  1  1  0
  2  3  1  0
  4  1  1  0
  4  5  2  0
  6  5  1  0
  7  6  2  0
  8  9  2  0
  8  7  1  0
  9  4  1  0
 10 15  1  0
 10 14  1  0
 10 11  1  0
 11  2  1  0
 11 12  1  0
 13 12  1  0
 14 16  1  0
 14 13  1  0
  1 17  1  1
  2 18  1  6
  3 19  1  0
  3 20  1  0
  5 21  1  0
  6 22  1  0
  8 23  1  0
 10 24  1  1
 11 25  1  6
 13 26  1  0
 13 27  1  0
 14 28  1  6
 15 29  1  0
 30 31  1  0
 31 32  1  0
 32 33  2  0
 33 34  1  0
 34 35  2  0
 34 36  1  0
 36 37  1  0
 37 38  2  0
 37 31  1  0
 32 39  1  0
 36 40  1  0
 16 33  1  0
M  ISO  8  17  13  18  13  19  13  20  13  21  14  22  14  23  14  24  13
M  ISO  6  25  13  26  13  27  13  28  13  29   3  30   9
M  END
>  <DihAtoms>  (1) 
13,15,32,31

>  <DihDeg>  (1) 
-0.002445096934332506

$$$$
