
     RDKit          3D

 26 27  0  0  0  0  0  0  0  0999 V2000
   35.7010   31.1200   49.4960 O   0  0  0  0  0  0  0  0  0  0  0  0
   35.8190   30.1480   48.3590 P   0  0  2  0  0  0  0  0  0  0  0  0
   34.9400   30.7210   47.0190 O   0  0  0  0  0  0  0  0  0  0  0  0
   35.3240   28.5870   48.7460 O   0  0  0  0  0  0  0  0  0  0  0  0
   31.7600   27.5740   48.7660 C   0  0  0  0  0  0  0  0  0  0  0  0
   32.8840   28.3530   49.0980 C   0  0  0  0  0  0  0  0  0  0  0  0
   34.1320   27.9940   48.5650 C   0  0  0  0  0  0  0  0  0  0  0  0
   34.1750   26.9030   47.7480 N   0  0  0  0  0  0  0  0  0  0  0  0
   33.0780   26.1890   47.4570 C   0  0  0  0  0  0  0  0  0  0  0  0
   31.8750   26.5170   47.9590 N   0  0  0  0  0  0  0  0  0  0  0  0
   37.4510   30.1310   47.9070 O   0  0  0  0  0  0  0  0  0  0  0  0
   39.4290   32.9720   47.0530 N   0  0  0  0  0  0  0  0  0  0  0  0
   38.7590   32.0000   47.7390 C   0  0  0  0  0  0  0  0  0  0  0  0
   38.0590   31.0190   47.0260 C   0  0  0  0  0  0  0  0  0  0  0  0
   38.0490   31.0400   45.6460 C   0  0  0  0  0  0  0  0  0  0  0  0
   37.3920   30.1150   45.1470 O   0  0  0  0  0  0  0  0  0  0  0  0
   38.7150   32.0070   44.9970 N   0  0  0  0  0  0  0  0  0  0  0  0
   39.3870   32.9460   45.7100 C   0  0  0  0  0  0  0  0  0  0  0  0
   39.9780   33.8060   44.9940 O   0  0  0  0  0  0  0  0  0  0  0  0
   34.1539   31.2334   47.3346 H   0  0  0  0  0  0  0  0  0  0  0  0
   30.7746   27.8394   49.1766 H   0  0  0  0  0  0  0  0  0  0  0  0
   32.7866   29.2251   49.7614 H   0  0  0  0  0  0  0  0  0  0  0  0
   33.1644   25.3161   46.7932 H   0  0  0  0  0  0  0  0  0  0  0  0
   39.9526   33.7056   47.5515 H   0  0  0  0  0  0  0  0  0  0  0  0
   38.7690   31.9877   48.8389 H   0  0  0  0  0  0  0  0  0  0  0  0
   38.7163   32.0364   43.9674 H   0  0  0  0  0  0  0  0  0  0  0  0
  2  4  1  0
  2  1  2  0
  3  2  1  0
  5  6  2  0
  7  4  1  0
  7  6  1  0
  8  7  2  0
  9  8  1  0
  9 10  2  0
 10  5  1  0
 11  2  1  0
 12 13  1  0
 14 13  2  0
 14 11  1  0
 15 14  1  0
 16 15  2  0
 17 15  1  0
 17 18  1  0
 18 12  1  0
 19 18  2  0
  3 20  1  0
  5 21  1  0
  6 22  1  0
  9 23  1  0
 12 24  1  0
 13 25  1  0
 17 26  1  0
M  ISO  7  20   3  21  14  22  14  23  14  24   9  25  14  26   9
M  END
>  <minimizedAffinity>  (1) 
-4.66934776

>  <minimizedRMSD>  (1) 
4.20215082

$$$$
