
     RDKit          3D

 30 32  0  0  0  0  0  0  0  0999 V2000
   37.4760   30.2526   51.3289 C   0  0  0  0  0  0  0  0  0  0  0  0
   38.1570   30.9780   50.3124 C   0  0  0  0  0  0  0  0  0  0  0  0
   37.8373   30.7300   48.9928 C   0  0  0  0  0  0  0  0  0  0  0  0
   36.8834   29.7988   48.7367 N   0  0  0  0  0  0  0  0  0  0  0  0
   36.2325   29.1052   49.6930 C   0  0  0  0  0  0  0  0  0  0  0  0
   36.5334   29.3367   50.9941 N   0  0  0  0  0  0  0  0  0  0  0  0
   38.4588   31.4098   47.9211 N   0  0  0  0  0  0  0  0  0  0  0  0
   38.6794   30.8237   46.7287 C   0  0  0  0  0  0  0  0  0  0  0  0
   39.2898   31.5125   45.6843 C   0  0  0  0  0  0  0  0  0  0  0  0
   39.6709   32.8428   45.9116 C   0  0  0  0  0  0  0  0  0  0  0  0
   40.2225   33.5024   45.0048 O   0  0  0  0  0  0  0  0  0  0  0  0
   39.4431   33.4239   47.1194 N   0  0  0  0  0  0  0  0  0  0  0  0
   38.8448   32.6728   48.0680 C   0  0  0  0  0  0  0  0  0  0  0  0
   38.6492   33.2457   49.1712 O   0  0  0  0  0  0  0  0  0  0  0  0
   37.7004   30.4211   52.3850 H   0  0  0  0  0  0  0  0  0  0  0  0
   38.8772   31.6525   50.6910 H   0  0  0  0  0  0  0  0  0  0  0  0
   35.4812   28.3749   49.4227 H   0  0  0  0  0  0  0  0  0  0  0  0
   38.3707   29.7952   46.5929 H   0  0  0  0  0  0  0  0  0  0  0  0
   39.4707   31.0526   44.7260 H   0  0  0  0  0  0  0  0  0  0  0  0
   41.3758   36.7247   49.5849 H   0  0  0  0  0  0  0  0  0  0  0  0
   40.8512   36.4321   48.7272 N   0  0  0  0  0  0  0  0  0  0  0  0
   40.5119   35.1303   48.5200 C   0  0  0  0  0  0  0  0  0  0  0  0
   39.8191   34.7719   47.3787 C   0  0  0  0  0  0  0  0  0  0  0  0
   39.4597   35.7128   46.4348 C   0  0  0  0  0  0  0  0  0  0  0  0
   38.8249   35.4491   45.3688 O   0  0  0  0  0  0  0  0  0  0  0  0
   39.8119   37.0042   46.6686 N   0  0  0  0  0  0  0  0  0  0  0  0
   40.4888   37.3335   47.7902 C   0  0  0  0  0  0  0  0  0  0  0  0
   40.7731   38.5718   47.9179 O   0  0  0  0  0  0  0  0  0  0  0  0
   40.7829   34.3538   49.2527 H   0  0  0  0  0  0  0  0  0  0  0  0
   39.5371   37.7216   45.9474 H   0  0  0  0  0  0  0  0  0  0  0  0
  2  1  2  0
  3  2  1  0
  4  3  2  0
  4  5  1  0
  5  6  2  0
  6  1  1  0
  7 13  1  0
  7  3  1  0
  8  7  1  0
  9 10  1  0
  9  8  2  0
 10 12  1  0
 11 10  2  0
 12 13  1  0
 13 14  2  0
  1 15  1  0
  2 16  1  0
  5 17  1  0
  8 18  1  0
  9 19  1  0
 20 21  1  0
 21 22  1  0
 22 23  2  0
 23 24  1  0
 24 25  2  0
 24 26  1  0
 26 27  1  0
 27 28  2  0
 27 21  1  0
 22 29  1  0
 26 30  1  0
 12 23  1  0
M  ISO  6  15  14  16  14  17  14  18  14  19  14  20   9
M  END
>  <DihAtoms>  (1) 
9,11,22,21

>  <DihDeg>  (1) 
-101.98548163566079

$$$$
