
     RDKit          3D

 21 22  0  0  0  0  0  0  0  0999 V2000
   37.3300   30.2341   51.4127 C   0  0  0  0  0  0  0  0  0  0  0  0
   38.0827   30.7401   50.3478 C   0  0  0  0  0  0  0  0  0  0  0  0
   37.6968   30.3725   49.0515 C   0  0  0  0  0  0  0  0  0  0  0  0
   36.6079   29.5407   48.8891 N   0  0  0  0  0  0  0  0  0  0  0  0
   35.9189   29.0837   49.9695 C   0  0  0  0  0  0  0  0  0  0  0  0
   36.2797   29.4302   51.2299 N   0  0  0  0  0  0  0  0  0  0  0  0
   34.8760   28.2737   49.5886 O   0  0  0  0  0  0  0  0  0  0  0  0
   37.6353   30.5231   52.4095 H   0  0  0  0  0  0  0  0  0  0  0  0
   38.9341   31.3906   50.4769 H   0  0  0  0  0  0  0  0  0  0  0  0
   38.2388   30.7305   48.1767 H   0  0  0  0  0  0  0  0  0  0  0  0
   30.7947   26.6799   50.0527 H   0  0  0  0  0  0  0  0  0  0  0  0
   31.7466   26.8210   50.4979 N   0  0  0  0  0  0  0  0  0  0  0  0
   32.7207   27.4528   49.7841 C   0  0  0  0  0  0  0  0  0  0  0  0
   33.9665   27.6332   50.3769 C   0  0  0  0  0  0  0  0  0  0  0  0
   34.1545   27.1627   51.6612 C   0  0  0  0  0  0  0  0  0  0  0  0
   35.2900   27.3448   52.1591 O   0  0  0  0  0  0  0  0  0  0  0  0
   33.1690   26.5399   52.3444 N   0  0  0  0  0  0  0  0  0  0  0  0
   31.9580   26.3717   51.7505 C   0  0  0  0  0  0  0  0  0  0  0  0
   31.0132   25.7940   52.3588 O   0  0  0  0  0  0  0  0  0  0  0  0
   32.4816   27.7813   48.7985 H   0  0  0  0  0  0  0  0  0  0  0  0
   33.3366   26.1927   53.3155 H   0  0  0  0  0  0  0  0  0  0  0  0
  2  1  2  0
  3  2  1  0
  4  3  2  0
  4  5  1  0
  5  6  2  0
  6  1  1  0
  7  5  1  0
  1  8  1  0
  2  9  1  0
  3 10  1  0
 11 12  1  0
 12 13  1  0
 13 14  2  0
 14 15  1  0
 15 16  2  0
 15 17  1  0
 17 18  1  0
 18 19  2  0
 18 12  1  0
 13 20  1  0
 17 21  1  0
  7 14  1  0
M  ISO  4   8  14   9  14  10  14  11   9
M  END
>  <DihAtoms>  (1) 
4,6,13,12

>  <DihDeg>  (1) 
120.00255456883448

$$$$
