
     RDKit          3D

 21 22  0  0  0  0  0  0  0  0999 V2000
   37.2710   30.1830   51.4171 C   0  0  0  0  0  0  0  0  0  0  0  0
   38.1177   30.7591   50.4733 C   0  0  0  0  0  0  0  0  0  0  0  0
   37.8455   30.5483   49.1157 C   0  0  0  0  0  0  0  0  0  0  0  0
   36.7555   29.7828   48.7800 N   0  0  0  0  0  0  0  0  0  0  0  0
   35.9560   29.2397   49.7306 C   0  0  0  0  0  0  0  0  0  0  0  0
   36.2125   29.4389   51.0393 N   0  0  0  0  0  0  0  0  0  0  0  0
   34.5438   28.2473   49.2779 S   0  0  0  0  0  0  0  0  0  0  0  0
   37.5063   30.3624   52.4586 H   0  0  0  0  0  0  0  0  0  0  0  0
   38.9739   31.3601   50.7157 H   0  0  0  0  0  0  0  0  0  0  0  0
   38.4463   30.9540   48.2888 H   0  0  0  0  0  0  0  0  0  0  0  0
   33.7741   23.9913   47.2445 H   0  0  0  0  0  0  0  0  0  0  0  0
   34.3322   24.5481   47.9304 N   0  0  0  0  0  0  0  0  0  0  0  0
   34.1561   25.8738   48.1819 C   0  0  0  0  0  0  0  0  0  0  0  0
   34.9579   26.5164   49.1167 C   0  0  0  0  0  0  0  0  0  0  0  0
   35.9361   25.8122   49.7932 C   0  0  0  0  0  0  0  0  0  0  0  0
   36.5926   26.5143   50.6133 O   0  0  0  0  0  0  0  0  0  0  0  0
   36.0879   24.5010   49.5238 N   0  0  0  0  0  0  0  0  0  0  0  0
   35.3093   23.9024   48.6242 C   0  0  0  0  0  0  0  0  0  0  0  0
   35.4796   22.6659   48.3956 O   0  0  0  0  0  0  0  0  0  0  0  0
   33.3730   26.3041   47.5989 H   0  0  0  0  0  0  0  0  0  0  0  0
   36.8403   24.0246   50.0642 H   0  0  0  0  0  0  0  0  0  0  0  0
  2  1  2  0
  3  2  1  0
  4  3  2  0
  4  5  1  0
  5  6  2  0
  6  1  1  0
  7  5  1  0
  1  8  1  0
  2  9  1  0
  3 10  1  0
 11 12  1  0
 12 13  1  0
 13 14  2  0
 14 15  1  0
 15 16  2  0
 15 17  1  0
 17 18  1  0
 18 19  2  0
 18 12  1  0
 13 20  1  0
 17 21  1  0
  7 14  1  0
M  ISO  4   8  14   9  14  10  14  11   9
M  END
>  <DihAtoms>  (1) 
4,6,13,12

>  <DihDeg>  (1) 
-179.97052828826259

$$$$
