
     RDKit          3D

 21 22  0  0  0  0  0  0  0  0999 V2000
   37.3300   30.2341   51.4127 C   0  0  0  0  0  0  0  0  0  0  0  0
   38.0827   30.7401   50.3478 C   0  0  0  0  0  0  0  0  0  0  0  0
   37.6968   30.3725   49.0515 C   0  0  0  0  0  0  0  0  0  0  0  0
   36.6079   29.5407   48.8891 N   0  0  0  0  0  0  0  0  0  0  0  0
   35.9189   29.0837   49.9695 C   0  0  0  0  0  0  0  0  0  0  0  0
   36.2797   29.4302   51.2299 N   0  0  0  0  0  0  0  0  0  0  0  0
   34.8760   28.2737   49.5886 O   0  0  0  0  0  0  0  0  0  0  0  0
   37.6353   30.5231   52.4095 H   0  0  0  0  0  0  0  0  0  0  0  0
   38.9341   31.3906   50.4769 H   0  0  0  0  0  0  0  0  0  0  0  0
   38.2388   30.7305   48.1767 H   0  0  0  0  0  0  0  0  0  0  0  0
   31.2912   28.5394   52.1364 H   0  0  0  0  0  0  0  0  0  0  0  0
   32.0378   27.9120   51.7204 N   0  0  0  0  0  0  0  0  0  0  0  0
   32.9910   28.4647   50.9181 C   0  0  0  0  0  0  0  0  0  0  0  0
   33.9665   27.6332   50.3769 C   0  0  0  0  0  0  0  0  0  0  0  0
   33.9207   26.2871   50.6800 C   0  0  0  0  0  0  0  0  0  0  0  0
   34.8168   25.5725   50.1731 O   0  0  0  0  0  0  0  0  0  0  0  0
   32.9628   25.7677   51.4791 N   0  0  0  0  0  0  0  0  0  0  0  0
   32.0173   26.5939   51.9994 C   0  0  0  0  0  0  0  0  0  0  0  0
   31.1065   26.1437   52.7506 O   0  0  0  0  0  0  0  0  0  0  0  0
   32.9446   29.5150   50.7412 H   0  0  0  0  0  0  0  0  0  0  0  0
   32.9500   24.7451   51.6933 H   0  0  0  0  0  0  0  0  0  0  0  0
  2  1  2  0
  3  2  1  0
  4  3  2  0
  4  5  1  0
  5  6  2  0
  6  1  1  0
  7  5  1  0
  1  8  1  0
  2  9  1  0
  3 10  1  0
 11 12  1  0
 12 13  1  0
 13 14  2  0
 14 15  1  0
 15 16  2  0
 15 17  1  0
 17 18  1  0
 18 19  2  0
 18 12  1  0
 13 20  1  0
 17 21  1  0
  7 14  1  0
M  ISO  4   8  14   9  14  10  14  11   9
M  END
>  <DihAtoms>  (1) 
4,6,13,12

>  <DihDeg>  (1) 
120.00255456883448

$$$$
