
     RDKit          3D

 39 42  0  0  1  0  0  0  0  0999 V2000
   38.3920   31.5410   45.3730 C   0  0  1  0  0  0  0  0  0  0  0  0
   38.8290   32.4720   46.4300 C   0  0  2  0  0  0  0  0  0  0  0  0
   40.2860   32.7880   46.0500 C   0  0  0  0  0  0  0  0  0  0  0  0
   40.7330   31.5610   45.6600 O   0  0  0  0  0  0  0  0  0  0  0  0
   39.7410   30.8850   45.0040 C   0  0  0  0  0  0  0  0  0  0  0  0
   37.6010   32.4150   48.7220 C   0  0  1  0  0  0  0  0  0  0  0  0
   38.8510   33.1130   48.8700 C   0  0  0  0  0  0  0  0  0  0  0  0
   38.7710   31.9640   47.8450 C   0  0  2  0  0  0  0  0  0  0  0  0
   35.5140   29.8270   50.4370 C   0  0  0  0  0  0  0  0  0  0  0  0
   35.8990   30.8070   49.5400 C   0  0  0  0  0  0  0  0  0  0  0  0
   37.1570   31.3670   49.6590 C   0  0  0  0  0  0  0  0  0  0  0  0
   37.9650   30.9130   50.6800 N   0  0  0  0  0  0  0  0  0  0  0  0
   37.5740   29.9550   51.5520 C   0  0  0  0  0  0  0  0  0  0  0  0
   36.3260   29.3970   51.4320 N   0  0  0  0  0  0  0  0  0  0  0  0
   37.5190   30.5520   45.7720 O   0  0  0  0  0  0  0  0  0  0  0  0
   33.9440   29.8650   46.1550 N   0  0  0  0  0  0  0  0  0  0  0  0
   35.2500   30.0500   46.3520 C   0  0  0  0  0  0  0  0  0  0  0  0
   36.2150   30.3980   45.3970 C   0  0  0  0  0  0  0  0  0  0  0  0
   35.6150   30.5290   44.1690 C   0  0  0  0  0  0  0  0  0  0  0  0
   36.2640   30.8320   43.1640 O   0  0  0  0  0  0  0  0  0  0  0  0
   34.3090   30.3510   43.9340 N   0  0  0  0  0  0  0  0  0  0  0  0
   33.4600   30.0190   44.9130 C   0  0  0  0  0  0  0  0  0  0  0  0
   32.2400   29.8520   44.6940 O   0  0  0  0  0  0  0  0  0  0  0  0
   37.8390   32.0680   44.5815 H   0  0  0  0  0  0  0  0  0  0  0  0
   38.1411   33.3300   46.4561 H   0  0  0  0  0  0  0  0  0  0  0  0
   40.3386   33.5159   45.2270 H   0  0  0  0  0  0  0  0  0  0  0  0
   40.8736   33.2447   46.8600 H   0  0  0  0  0  0  0  0  0  0  0  0
   39.7402   29.8297   45.3142 H   0  0  0  0  0  0  0  0  0  0  0  0
   39.9028   30.9291   43.9169 H   0  0  0  0  0  0  0  0  0  0  0  0
   36.5833   32.8128   48.5957 H   0  0  0  0  0  0  0  0  0  0  0  0
   38.9405   34.1517   48.5190 H   0  0  0  0  0  0  0  0  0  0  0  0
   39.5091   33.3373   49.7224 H   0  0  0  0  0  0  0  0  0  0  0  0
   39.2457   30.9940   47.6356 H   0  0  0  0  0  0  0  0  0  0  0  0
   34.5132   29.3812   50.3388 H   0  0  0  0  0  0  0  0  0  0  0  0
   35.2145   31.1356   48.7441 H   0  0  0  0  0  0  0  0  0  0  0  0
   38.2526   29.6254   52.3525 H   0  0  0  0  0  0  0  0  0  0  0  0
   33.3228   29.6104   46.9362 H   0  0  0  0  0  0  0  0  0  0  0  0
   35.6112   29.9139   47.3820 H   0  0  0  0  0  0  0  0  0  0  0  0
   33.9494   30.4726   42.9765 H   0  0  0  0  0  0  0  0  0  0  0  0
  1 15  1  0
  1  2  1  0
  2  8  1  0
  3  2  1  0
  4  3  1  0
  5  1  1  0
  5  4  1  0
  6  7  1  0
  6 11  1  0
  8  6  1  0
  8  7  1  0
  9 14  2  0
 10 11  2  0
 10  9  1  0
 11 12  1  0
 12 13  2  0
 14 13  1  0
 16 17  1  0
 18 15  1  0
 18 17  2  0
 19 18  1  0
 20 19  2  0
 21 19  1  0
 21 22  1  0
 22 16  1  0
 23 22  2  0
  1 24  1  6
  2 25  1  1
  3 26  1  0
  3 27  1  0
  5 28  1  0
  5 29  1  0
  6 30  1  6
  7 31  1  0
  7 32  1  0
  8 33  1  1
  9 34  1  0
 10 35  1  0
 13 36  1  0
 16 37  1  0
 17 38  1  0
 21 39  1  0
M  ISO  8  24  13  25  13  26  13  27  13  28  13  29  13  30  13  31  13
M  ISO  8  32  13  33  13  34  14  35  14  36  14  37   9  38  14  39   9
M  END
>  <minimizedAffinity>  (1) 
-5.67077017

>  <minimizedRMSD>  (1) 
1.1277318

$$$$
