
     RDKit          3D

 21 22  0  0  0  0  0  0  0  0999 V2000
   37.2710   30.1830   51.4171 C   0  0  0  0  0  0  0  0  0  0  0  0
   38.1177   30.7591   50.4733 C   0  0  0  0  0  0  0  0  0  0  0  0
   37.8455   30.5483   49.1157 C   0  0  0  0  0  0  0  0  0  0  0  0
   36.7555   29.7828   48.7800 N   0  0  0  0  0  0  0  0  0  0  0  0
   35.9560   29.2397   49.7306 C   0  0  0  0  0  0  0  0  0  0  0  0
   36.2125   29.4389   51.0393 N   0  0  0  0  0  0  0  0  0  0  0  0
   34.5438   28.2473   49.2779 S   0  0  0  0  0  0  0  0  0  0  0  0
   37.5063   30.3624   52.4586 H   0  0  0  0  0  0  0  0  0  0  0  0
   38.9739   31.3601   50.7157 H   0  0  0  0  0  0  0  0  0  0  0  0
   38.4463   30.9540   48.2888 H   0  0  0  0  0  0  0  0  0  0  0  0
   37.7879   24.7436   49.4783 H   0  0  0  0  0  0  0  0  0  0  0  0
   36.7934   25.0095   49.2985 N   0  0  0  0  0  0  0  0  0  0  0  0
   36.3013   26.2758   49.3758 C   0  0  0  0  0  0  0  0  0  0  0  0
   34.9579   26.5164   49.1167 C   0  0  0  0  0  0  0  0  0  0  0  0
   34.1179   25.4715   48.7803 C   0  0  0  0  0  0  0  0  0  0  0  0
   32.9236   25.8268   48.5706 O   0  0  0  0  0  0  0  0  0  0  0  0
   34.6327   24.2285   48.7114 N   0  0  0  0  0  0  0  0  0  0  0  0
   35.9234   24.0178   48.9631 C   0  0  0  0  0  0  0  0  0  0  0  0
   36.3747   22.8342   48.8886 O   0  0  0  0  0  0  0  0  0  0  0  0
   37.0453   26.9923   49.6432 H   0  0  0  0  0  0  0  0  0  0  0  0
   33.9517   23.4835   48.4538 H   0  0  0  0  0  0  0  0  0  0  0  0
  2  1  2  0
  3  2  1  0
  4  3  2  0
  4  5  1  0
  5  6  2  0
  6  1  1  0
  7  5  1  0
  1  8  1  0
  2  9  1  0
  3 10  1  0
 11 12  1  0
 12 13  1  0
 13 14  2  0
 14 15  1  0
 15 16  2  0
 15 17  1  0
 17 18  1  0
 18 19  2  0
 18 12  1  0
 13 20  1  0
 17 21  1  0
  7 14  1  0
M  ISO  4   8  14   9  14  10  14  11   9
M  END
>  <DihAtoms>  (1) 
4,6,13,12

>  <DihDeg>  (1) 
-179.97052828826259

$$$$
