
     RDKit          3D

 21 22  0  0  0  0  0  0  0  0999 V2000
   37.3300   30.2341   51.4127 C   0  0  0  0  0  0  0  0  0  0  0  0
   38.0827   30.7401   50.3478 C   0  0  0  0  0  0  0  0  0  0  0  0
   37.6968   30.3725   49.0515 C   0  0  0  0  0  0  0  0  0  0  0  0
   36.6079   29.5407   48.8891 N   0  0  0  0  0  0  0  0  0  0  0  0
   35.9189   29.0837   49.9695 C   0  0  0  0  0  0  0  0  0  0  0  0
   36.2797   29.4302   51.2299 N   0  0  0  0  0  0  0  0  0  0  0  0
   34.8760   28.2737   49.5886 O   0  0  0  0  0  0  0  0  0  0  0  0
   37.6353   30.5231   52.4095 H   0  0  0  0  0  0  0  0  0  0  0  0
   38.9341   31.3906   50.4769 H   0  0  0  0  0  0  0  0  0  0  0  0
   38.2388   30.7305   48.1767 H   0  0  0  0  0  0  0  0  0  0  0  0
   33.0848   24.4667   50.8967 H   0  0  0  0  0  0  0  0  0  0  0  0
   33.0902   25.5226   50.9931 N   0  0  0  0  0  0  0  0  0  0  0  0
   33.9670   26.2482   50.2434 C   0  0  0  0  0  0  0  0  0  0  0  0
   33.9665   27.6332   50.3769 C   0  0  0  0  0  0  0  0  0  0  0  0
   33.0761   28.2048   51.2637 C   0  0  0  0  0  0  0  0  0  0  0  0
   33.1072   29.4543   51.3547 O   0  0  0  0  0  0  0  0  0  0  0  0
   32.2180   27.4589   51.9939 N   0  0  0  0  0  0  0  0  0  0  0  0
   32.2317   26.1073   51.8514 C   0  0  0  0  0  0  0  0  0  0  0  0
   31.4438   25.3780   52.5176 O   0  0  0  0  0  0  0  0  0  0  0  0
   34.6168   25.7178   49.5853 H   0  0  0  0  0  0  0  0  0  0  0  0
   31.5537   27.9158   52.6585 H   0  0  0  0  0  0  0  0  0  0  0  0
  2  1  2  0
  3  2  1  0
  4  3  2  0
  4  5  1  0
  5  6  2  0
  6  1  1  0
  7  5  1  0
  1  8  1  0
  2  9  1  0
  3 10  1  0
 11 12  1  0
 12 13  1  0
 13 14  2  0
 14 15  1  0
 15 16  2  0
 15 17  1  0
 17 18  1  0
 18 19  2  0
 18 12  1  0
 13 20  1  0
 17 21  1  0
  7 14  1  0
M  ISO  4   8  14   9  14  10  14  11   9
M  END
>  <DihAtoms>  (1) 
4,6,13,12

>  <DihDeg>  (1) 
120.00255456883448

$$$$
