
     RDKit          3D

 39 41  0  0  0  0  0  0  0  0999 V2000
   37.1334   30.9655   49.0182 C   0  0  0  0  0  0  0  0  0  0  0  0
   36.9146   31.9384   50.0031 C   0  0  0  0  0  0  0  0  0  0  0  0
   37.5519   33.1598   49.9838 C   0  0  0  0  0  0  0  0  0  0  0  0
   38.4487   33.4577   48.9585 C   0  0  0  0  0  0  0  0  0  0  0  0
   38.6546   32.4954   47.9991 C   0  0  0  0  0  0  0  0  0  0  0  0
   38.0041   31.2760   48.0378 C   0  0  0  0  0  0  0  0  0  0  0  0
   36.4170   29.7076   49.1205 C   0  0  0  0  0  0  0  0  0  0  0  0
   36.9318   28.8733   49.9512 O   0  0  0  0  0  0  0  0  0  0  0  0
   33.6300   30.1767   46.8519 C   0  0  0  0  0  0  0  0  0  0  0  0
   32.9661   28.9530   46.8759 C   0  0  0  0  0  0  0  0  0  0  0  0
   33.4709   27.9528   47.6737 C   0  0  0  0  0  0  0  0  0  0  0  0
   34.5899   28.1987   48.4012 N   0  0  0  0  0  0  0  0  0  0  0  0
   35.2157   29.3633   48.3739 C   0  0  0  0  0  0  0  0  0  0  0  0
   34.7149   30.3422   47.5881 N   0  0  0  0  0  0  0  0  0  0  0  0
   38.3339   30.3863   46.9595 C   0  0  0  0  0  0  0  0  0  0  0  0
   38.8047   30.7082   45.7610 C   0  0  0  0  0  0  0  0  0  0  0  0
   39.1769   29.9019   44.5888 C   0  0  0  0  0  0  0  0  0  0  0  0
   36.2238   31.7632   50.8309 H   0  0  0  0  0  0  0  0  0  0  0  0
   37.3635   33.8918   50.7574 H   0  0  0  0  0  0  0  0  0  0  0  0
   38.9320   34.4210   48.9700 H   0  0  0  0  0  0  0  0  0  0  0  0
   39.3643   32.8043   47.2391 H   0  0  0  0  0  0  0  0  0  0  0  0
   33.2342   30.9518   46.2303 H   0  0  0  0  0  0  0  0  0  0  0  0
   32.0716   28.8476   46.2558 H   0  0  0  0  0  0  0  0  0  0  0  0
   32.9695   26.9933   47.7067 H   0  0  0  0  0  0  0  0  0  0  0  0
   38.2274   29.2894   47.0116 H   0  0  0  0  0  0  0  0  0  0  0  0
   38.9769   31.7705   45.5246 H   0  0  0  0  0  0  0  0  0  0  0  0
   38.5221   30.2207   43.7508 H   0  0  0  0  0  0  0  0  0  0  0  0
   38.9114   28.8260   44.7506 H   0  0  0  0  0  0  0  0  0  0  0  0
   40.5537   30.0802   44.2373 N   0  0  0  0  0  0  0  0  0  0  0  0
   41.5982   29.5693   44.8799 C   0  0  0  0  0  0  0  0  0  0  0  0
   42.8921   29.8014   44.4590 C   0  0  0  0  0  0  0  0  0  0  0  0
   43.7417   29.3826   44.9862 H   0  0  0  0  0  0  0  0  0  0  0  0
   43.1320   30.5888   43.3334 C   0  0  0  0  0  0  0  0  0  0  0  0
   44.3131   30.8244   42.9159 O   0  0  0  0  0  0  0  0  0  0  0  0
   42.0459   31.1005   42.6928 N   0  0  0  0  0  0  0  0  0  0  0  0
   40.8293   30.8346   43.1558 C   0  0  0  0  0  0  0  0  0  0  0  0
   39.8748   31.3551   42.4930 O   0  0  0  0  0  0  0  0  0  0  0  0
   41.4007   28.9582   45.7543 H   0  0  0  0  0  0  0  0  0  0  0  0
   42.2163   31.6904   41.8503 H   0  0  0  0  0  0  0  0  0  0  0  0
  1  7  1  0
  1  2  2  0
  3  2  1  0
  4  3  2  0
  5  6  2  0
  5  4  1  0
  6  1  1  0
  7  8  2  0
  9 10  2  0
  9 14  1  0
 10 11  1  0
 11 12  2  0
 13 12  1  0
 13  7  1  0
 14 13  2  0
 15  6  1  0
 16 15  2  0
 17 16  1  0
  2 18  1  0
  3 19  1  0
  4 20  1  0
  5 21  1  0
  9 22  1  0
 10 23  1  0
 11 24  1  0
 15 25  1  0
 16 26  1  0
 17 27  1  0
 17 28  1  0
 29 30  1  0
 30 31  2  0
 31 32  1  0
 31 33  1  0
 33 34  2  0
 33 35  1  0
 35 36  1  0
 36 37  2  0
 36 29  1  0
 30 38  1  0
 35 39  1  0
 17 29  1  0
M  ISO  8  18  14  19  14  20  14  21  14  22  14  23  14  24  14  27   8
M  ISO  2  28   8  32  16
M  END
>  <DihAtoms>  (1) 
15,16,28,29

>  <DihDeg>  (1) 
90.00254541090709

$$$$
