
     RDKit          3D

 33 35  0  0  0  0  0  0  0  0999 V2000
   37.9917   30.5027   47.1829 C   0  0  0  0  0  0  0  0  0  0  0  0
   38.9820   31.2396   46.4469 C   0  0  0  0  0  0  0  0  0  0  0  0
   39.2430   32.5515   46.7313 C   0  0  0  0  0  0  0  0  0  0  0  0
   40.2125   33.2717   45.9983 C   0  0  0  0  0  0  0  0  0  0  0  0
   40.8539   32.5543   44.9993 N   0  0  0  0  0  0  0  0  0  0  0  0
   40.5630   31.2586   44.7549 C   0  0  0  0  0  0  0  0  0  0  0  0
   39.6233   30.6038   45.4837 N   0  0  0  0  0  0  0  0  0  0  0  0
   37.1399   31.2240   48.1559 C   0  0  0  0  0  0  0  0  0  0  0  0
   37.2574   30.6966   49.5314 C   0  0  0  0  0  0  0  0  0  0  0  0
   36.3079   29.8311   50.0511 C   0  0  0  0  0  0  0  0  0  0  0  0
   36.6819   29.5089   51.3276 C   0  0  0  0  0  0  0  0  0  0  0  0
   37.8216   30.1623   51.5649 N   0  0  0  0  0  0  0  0  0  0  0  0
   38.1517   30.8549   50.5107 N   0  0  0  0  0  0  0  0  0  0  0  0
   38.5461   29.7081   47.7718 H   0  0  0  0  0  0  0  0  0  0  0  0
   37.3978   29.8818   46.4502 H   0  0  0  0  0  0  0  0  0  0  0  0
   38.8169   33.2020   47.4748 H   0  0  0  0  0  0  0  0  0  0  0  0
   40.4916   34.2861   46.1347 H   0  0  0  0  0  0  0  0  0  0  0  0
   41.1156   30.7810   43.9552 H   0  0  0  0  0  0  0  0  0  0  0  0
   36.0793   31.1109   47.7794 H   0  0  0  0  0  0  0  0  0  0  0  0
   37.2531   32.3104   48.2334 H   0  0  0  0  0  0  0  0  0  0  0  0
   35.4126   29.4522   49.5646 H   0  0  0  0  0  0  0  0  0  0  0  0
   36.1511   28.8595   51.9881 H   0  0  0  0  0  0  0  0  0  0  0  0
   36.6770   32.2784   53.3935 Br  0  0  0  0  0  0  0  0  0  0  0  0
   38.1775   31.1086   53.6708 C   0  0  0  0  0  0  0  0  0  0  0  0
   38.6164   30.1629   52.7457 C   0  0  0  0  0  0  0  0  0  0  0  0
   39.7066   29.3842   53.0659 C   0  0  0  0  0  0  0  0  0  0  0  0
   39.9707   28.6838   52.2905 H   0  0  0  0  0  0  0  0  0  0  0  0
   40.3334   29.5557   54.2822 C   0  0  0  0  0  0  0  0  0  0  0  0
   41.1859   28.9187   54.4857 H   0  0  0  0  0  0  0  0  0  0  0  0
   39.9080   30.4885   55.2057 C   0  0  0  0  0  0  0  0  0  0  0  0
   38.8114   31.2680   54.8774 C   0  0  0  0  0  0  0  0  0  0  0  0
   40.4028   30.6151   56.1514 H   0  0  0  0  0  0  0  0  0  0  0  0
   38.5062   31.9918   55.6310 H   0  0  0  0  0  0  0  0  0  0  0  0
  1  8  1  0
  2  3  2  0
  2  1  1  0
  4  3  1  0
  5  4  2  0
  6  5  1  0
  6  7  2  0
  7  2  1  0
  8  9  1  0
  9 10  1  0
  9 13  2  0
 10 11  2  0
 11 12  1  0
 13 12  1  0
  1 14  1  0
  1 15  1  0
  3 16  1  0
  4 17  1  0
  6 18  1  0
  8 19  1  0
  8 20  1  0
 10 21  1  0
 11 22  1  0
 23 24  1  0
 24 25  2  0
 25 26  1  0
 26 27  1  0
 26 28  2  0
 28 29  1  0
 28 30  1  0
 30 31  2  0
 31 24  1  0
 30 32  1  0
 31 33  1  0
 12 25  1  0
M  ISO  8  14   8  15   8  16  14  17  14  18  14  19   8  20   8  21  14
M  ISO  3  22  14  27  15  29  16
M  END
>  <DihAtoms>  (1) 
10,11,24,23

>  <DihDeg>  (1) 
49.19159782178938

$$$$
