
     RDKit          3D

 30 32  0  0  0  0  0  0  0  0999 V2000
   38.8850   30.9080   45.7590 C   0  0  0  0  0  0  0  0  0  0  0  0
   40.1020   31.4910   46.0340 C   0  0  0  0  0  0  0  0  0  0  0  0
   40.9020   31.4520   44.8820 C   0  0  0  0  0  0  0  0  0  0  0  0
   40.1150   30.8380   43.9500 N   0  0  0  0  0  0  0  0  0  0  0  0
   38.9410   30.5260   44.4790 N   0  0  0  0  0  0  0  0  0  0  0  0
   38.9970   32.8070   41.7870 Br  0  0  0  0  0  0  0  0  0  0  0  0
   40.0720   31.2870   41.4960 C   0  0  0  0  0  0  0  0  0  0  0  0
   40.4580   30.5510   42.5990 C   0  0  0  0  0  0  0  0  0  0  0  0
   41.2510   29.4340   42.3600 C   0  0  0  0  0  0  0  0  0  0  0  0
   41.6560   29.0340   41.1250 C   0  0  0  0  0  0  0  0  0  0  0  0
   41.2470   29.8010   40.0290 C   0  0  0  0  0  0  0  0  0  0  0  0
   40.4510   30.9330   40.2170 C   0  0  0  0  0  0  0  0  0  0  0  0
   37.7620   30.7430   46.6870 C   0  0  0  0  0  0  0  0  0  0  0  0
   38.0140   30.9700   48.0660 C   0  0  0  0  0  0  0  0  0  0  0  0
   36.9220   30.8070   48.9350 C   0  0  0  0  0  0  0  0  0  0  0  0
   35.7190   30.4510   48.4240 N   0  0  0  0  0  0  0  0  0  0  0  0
   35.5230   30.2460   47.1050 C   0  0  0  0  0  0  0  0  0  0  0  0
   36.5570   30.3970   46.2540 N   0  0  0  0  0  0  0  0  0  0  0  0
   37.1640   31.0400   50.3940 C   0  0  0  0  0  0  0  0  0  0  0  0
   36.6270   32.2900   50.6550 F   0  0  0  0  0  0  0  0  0  0  0  0
   36.5010   30.1240   51.1860 F   0  0  0  0  0  0  0  0  0  0  0  0
   38.5040   31.0700   50.7090 F   0  0  0  0  0  0  0  0  0  0  0  0
   40.3995   31.9191   47.0026 H   0  0  0  0  0  0  0  0  0  0  0  0
   41.9278   31.8294   44.7580 H   0  0  0  0  0  0  0  0  0  0  0  0
   41.5713   28.8355   43.2256 H   0  0  0  0  0  0  0  0  0  0  0  0
   42.2826   28.1396   40.9926 H   0  0  0  0  0  0  0  0  0  0  0  0
   41.5541   29.5109   39.0134 H   0  0  0  0  0  0  0  0  0  0  0  0
   40.1296   31.5360   39.3550 H   0  0  0  0  0  0  0  0  0  0  0  0
   39.0099   31.2578   48.4338 H   0  0  0  0  0  0  0  0  0  0  0  0
   34.5302   29.9588   46.7284 H   0  0  0  0  0  0  0  0  0  0  0  0
  1  2  1  0
  1 13  1  0
  3  2  2  0
  4  5  1  0
  4  3  1  0
  5  1  2  0
  7  6  1  0
  7  8  2  0
  8  4  1  0
  9  8  1  0
 10  9  2  0
 11 12  2  0
 11 10  1  0
 12  7  1  0
 13 14  2  0
 14 15  1  0
 15 19  1  0
 16 15  2  0
 17 16  1  0
 18 13  1  0
 18 17  2  0
 19 20  1  0
 19 22  1  0
 19 21  1  0
  2 23  1  0
  3 24  1  0
  9 25  1  0
 10 26  1  0
 11 27  1  0
 12 28  1  0
 14 29  1  0
 17 30  1  0
M  ISO  8  23  14  24  14  25  14  26  14  27  14  28  14  29  14  30  14
M  END
>  <minimizedAffinity>  (1) 
-6.37118292

>  <minimizedRMSD>  (1) 
1.19313252

$$$$
