
     RDKit          3D

 27 28  0  0  0  0  0  0  0  0999 V2000
   37.0496   29.4116   51.1659 C   0  0  0  0  0  0  0  0  0  0  0  0
   37.6939   30.0130   50.1007 C   0  0  0  0  0  0  0  0  0  0  0  0
   36.9286   30.4814   49.0650 C   0  0  0  0  0  0  0  0  0  0  0  0
   35.5586   30.3204   49.1556 N   0  0  0  0  0  0  0  0  0  0  0  0
   34.9766   29.7370   50.1961 C   0  0  0  0  0  0  0  0  0  0  0  0
   35.7108   29.2746   51.2146 N   0  0  0  0  0  0  0  0  0  0  0  0
   37.4256   31.1588   47.8308 C   0  0  0  0  0  0  0  0  0  0  0  0
   38.7370   31.8610   48.1618 C   0  0  0  0  0  0  0  0  0  0  0  0
   38.4723   33.3452   49.0866 S   0  0  0  0  0  0  0  0  0  0  0  0
   37.6136   29.0364   51.9872 H   0  0  0  0  0  0  0  0  0  0  0  0
   38.7430   30.1161   50.0686 H   0  0  0  0  0  0  0  0  0  0  0  0
   33.8788   29.6575   50.1730 H   0  0  0  0  0  0  0  0  0  0  0  0
   37.5351   30.4509   47.0048 H   0  0  0  0  0  0  0  0  0  0  0  0
   36.6713   31.9231   47.6032 H   0  0  0  0  0  0  0  0  0  0  0  0
   39.1777   32.1416   47.1570 H   0  0  0  0  0  0  0  0  0  0  0  0
   39.5050   31.1839   48.5786 H   0  0  0  0  0  0  0  0  0  0  0  0
   40.0551   36.1724   47.8143 Br  0  0  0  0  0  0  0  0  0  0  0  0
   38.2027   35.8965   47.6938 C   0  0  0  0  0  0  0  0  0  0  0  0
   37.7724   34.7222   48.2616 C   0  0  0  0  0  0  0  0  0  0  0  0
   36.3820   34.5071   48.2203 C   0  0  0  0  0  0  0  0  0  0  0  0
   35.7411   33.6850   48.5809 H   0  0  0  0  0  0  0  0  0  0  0  0
   35.5199   35.4448   47.6317 C   0  0  0  0  0  0  0  0  0  0  0  0
   34.4443   35.4038   47.5338 H   0  0  0  0  0  0  0  0  0  0  0  0
   36.0350   36.5953   47.0845 C   0  0  0  0  0  0  0  0  0  0  0  0
   37.3931   36.8238   47.1160 C   0  0  0  0  0  0  0  0  0  0  0  0
   35.4501   37.3755   46.6089 H   0  0  0  0  0  0  0  0  0  0  0  0
   37.8744   37.6993   46.7094 H   0  0  0  0  0  0  0  0  0  0  0  0
  1  6  2  0
  2  1  1  0
  3  4  1  0
  3  2  2  0
  4  5  2  0
  5  6  1  0
  7  8  1  0
  7  3  1  0
  8  9  1  0
  1 10  1  0
  2 11  1  0
  5 12  1  0
  7 13  1  0
  7 14  1  0
  8 15  1  0
  8 16  1  0
 17 18  1  0
 18 19  2  0
 19 20  1  0
 20 21  1  0
 20 22  2  0
 22 23  1  0
 22 24  1  0
 24 25  2  0
 25 18  1  0
 24 26  1  0
 25 27  1  0
  9 19  1  0
M  ISO  8  10  14  11  14  12  14  13   8  14   8  15   8  16   8  21  15
M  ISO  1  23  16
M  END
>  <DihAtoms>  (1) 
7,8,18,17

>  <DihDeg>  (1) 
-10.066569113431198

$$$$
