
     RDKit          3D

 31 33  0  0  0  0  0  0  0  0999 V2000
   36.3639   30.4893   46.3885 Cl  0  0  0  0  0  0  0  0  0  0  0  0
   36.7893   30.5405   48.0779 C   0  0  0  0  0  0  0  0  0  0  0  0
   38.0064   31.0871   48.3720 C   0  0  0  0  0  0  0  0  0  0  0  0
   38.3771   31.1426   49.7200 C   0  0  0  0  0  0  0  0  0  0  0  0
   37.5372   30.6619   50.6900 C   0  0  0  0  0  0  0  0  0  0  0  0
   36.3289   30.1267   50.3121 C   0  0  0  0  0  0  0  0  0  0  0  0
   35.9004   30.0402   49.0070 C   0  0  0  0  0  0  0  0  0  0  0  0
   40.0063   33.4161   46.3990 C   0  0  0  0  0  0  0  0  0  0  0  0
   40.5752   32.6126   45.3986 C   0  0  0  0  0  0  0  0  0  0  0  0
   40.2590   31.2502   45.4128 C   0  0  0  0  0  0  0  0  0  0  0  0
   39.4279   30.8047   46.3892 N   0  0  0  0  0  0  0  0  0  0  0  0
   38.9016   31.6002   47.3303 C   0  0  0  0  0  0  0  0  0  0  0  0
   39.2015   32.8957   47.3180 N   0  0  0  0  0  0  0  0  0  0  0  0
   34.3422   29.3530   48.4866 S   0  0  0  0  0  0  0  0  0  0  0  0
   39.3286   31.5637   50.0219 H   0  0  0  0  0  0  0  0  0  0  0  0
   37.7716   30.6800   51.7347 H   0  0  0  0  0  0  0  0  0  0  0  0
   35.6502   29.7396   51.0805 H   0  0  0  0  0  0  0  0  0  0  0  0
   40.2762   34.4612   46.3518 H   0  0  0  0  0  0  0  0  0  0  0  0
   41.2405   32.9232   44.6033 H   0  0  0  0  0  0  0  0  0  0  0  0
   40.5869   30.4931   44.7482 H   0  0  0  0  0  0  0  0  0  0  0  0
   31.1530   29.9764   48.9806 Br  0  0  0  0  0  0  0  0  0  0  0  0
   32.1523   29.0004   50.2789 C   0  0  0  0  0  0  0  0  0  0  0  0
   33.4608   28.8086   49.9573 C   0  0  0  0  0  0  0  0  0  0  0  0
   34.3003   28.1147   50.8134 C   0  0  0  0  0  0  0  0  0  0  0  0
   35.3524   27.8922   50.6819 H   0  0  0  0  0  0  0  0  0  0  0  0
   33.8162   27.6027   52.0177 C   0  0  0  0  0  0  0  0  0  0  0  0
   34.4067   27.0509   52.7385 H   0  0  0  0  0  0  0  0  0  0  0  0
   32.4713   27.8093   52.3308 C   0  0  0  0  0  0  0  0  0  0  0  0
   31.6641   28.4992   51.4653 C   0  0  0  0  0  0  0  0  0  0  0  0
   32.0895   27.4169   53.2593 H   0  0  0  0  0  0  0  0  0  0  0  0
   30.6199   28.6871   51.6572 H   0  0  0  0  0  0  0  0  0  0  0  0
  1  2  1  0
  2  3  2  0
  2  7  1  0
  3  4  1  0
  4  5  2  0
  6  5  1  0
  7  6  2  0
  8 13  2  0
  9 10  2  0
  9  8  1  0
 10 11  1  0
 11 12  2  0
 12  3  1  0
 13 12  1  0
 14  7  1  0
  4 15  1  0
  5 16  1  0
  6 17  1  0
  8 18  1  0
  9 19  1  0
 10 20  1  0
 21 22  1  0
 22 23  2  0
 23 24  1  0
 24 25  1  0
 24 26  2  0
 26 27  1  0
 26 28  1  0
 28 29  2  0
 29 22  1  0
 28 30  1  0
 29 31  1  0
 14 23  1  0
M  ISO  8  15  14  16  14  17  14  18  14  19  14  20  14  25  15  27  16
M  END
>  <DihAtoms>  (1) 
6,13,22,21

>  <DihDeg>  (1) 
90.00044161964907

$$$$
