
     RDKit          3D

 30 32  0  0  0  0  0  0  0  0999 V2000
   37.3703   31.3611   49.2081 C   0  0  0  0  0  0  0  0  0  0  0  0
   37.7077   32.6619   49.5938 C   0  0  0  0  0  0  0  0  0  0  0  0
   38.5821   33.3366   48.7681 C   0  0  0  0  0  0  0  0  0  0  0  0
   39.0626   32.7291   47.6511 N   0  0  0  0  0  0  0  0  0  0  0  0
   38.7078   31.4512   47.3058 C   0  0  0  0  0  0  0  0  0  0  0  0
   37.8393   30.7592   48.1132 N   0  0  0  0  0  0  0  0  0  0  0  0
   36.3898   30.6164   50.0662 C   0  0  0  0  0  0  0  0  0  0  0  0
   36.2559   29.1804   50.0419 C   0  0  0  0  0  0  0  0  0  0  0  0
   37.0610   29.7907   51.1739 C   0  0  0  0  0  0  0  0  0  0  0  0
   39.1907   30.7854   46.1018 C   0  0  0  0  0  0  0  0  0  0  0  0
   37.3465   33.1644   50.4640 H   0  0  0  0  0  0  0  0  0  0  0  0
   38.9382   34.3472   48.9301 H   0  0  0  0  0  0  0  0  0  0  0  0
   35.5770   31.2952   50.4111 H   0  0  0  0  0  0  0  0  0  0  0  0
   35.2447   28.7607   50.3129 H   0  0  0  0  0  0  0  0  0  0  0  0
   36.8191   28.5250   49.3759 H   0  0  0  0  0  0  0  0  0  0  0  0
   36.5536   29.8188   52.1395 H   0  0  0  0  0  0  0  0  0  0  0  0
   38.1472   29.7113   51.2114 H   0  0  0  0  0  0  0  0  0  0  0  0
   39.2842   31.5858   45.3137 H   0  0  0  0  0  0  0  0  0  0  0  0
   38.4061   30.1040   45.6569 H   0  0  0  0  0  0  0  0  0  0  0  0
   41.1051   31.3403   43.6486 Br  0  0  0  0  0  0  0  0  0  0  0  0
   41.3538   30.2546   45.1960 C   0  0  0  0  0  0  0  0  0  0  0  0
   40.4672   30.0444   46.2572 C   0  0  0  0  0  0  0  0  0  0  0  0
   40.8633   29.2091   47.2800 C   0  0  0  0  0  0  0  0  0  0  0  0
   40.1153   29.1049   48.0586 H   0  0  0  0  0  0  0  0  0  0  0  0
   42.0926   28.5862   47.2806 C   0  0  0  0  0  0  0  0  0  0  0  0
   42.3261   27.9443   48.1229 H   0  0  0  0  0  0  0  0  0  0  0  0
   42.9671   28.7888   46.2410 C   0  0  0  0  0  0  0  0  0  0  0  0
   42.5936   29.6275   45.1950 C   0  0  0  0  0  0  0  0  0  0  0  0
   43.9083   28.2733   46.3005 H   0  0  0  0  0  0  0  0  0  0  0  0
   43.3636   29.7059   44.4411 H   0  0  0  0  0  0  0  0  0  0  0  0
  1  2  2  0
  1  7  1  0
  3  2  1  0
  4  3  2  0
  5  4  1  0
  5  6  2  0
  6  1  1  0
  7  9  1  0
  8  7  1  0
  8  9  1  0
 10  5  1  0
  2 11  1  0
  3 12  1  0
  7 13  1  0
  8 14  1  0
  8 15  1  0
  9 16  1  0
  9 17  1  0
 10 18  1  0
 10 19  1  0
 20 21  1  0
 21 22  2  0
 22 23  1  0
 23 24  1  0
 23 25  2  0
 25 26  1  0
 25 27  1  0
 27 28  2  0
 28 21  1  0
 27 29  1  0
 28 30  1  0
 10 22  1  0
M  ISO  8  11  14  12  14  13  13  14  13  15  13  16  13  17  13  18   8
M  ISO  3  19   8  24  15  26  16
M  END
>  <DihAtoms>  (1) 
4,9,21,20

>  <DihDeg>  (1) 
-76.2215217712114

$$$$
