
     RDKit          3D

 36 38  0  0  0  0  0  0  0  0999 V2000
   39.8840   31.6900   46.5460 C   0  0  0  0  0  0  0  0  0  0  0  0
   39.8130   31.8810   45.1250 C   0  0  0  0  0  0  0  0  0  0  0  0
   39.5460   33.1000   44.5910 C   0  0  0  0  0  0  0  0  0  0  0  0
   39.4770   33.2920   43.2070 C   0  0  0  0  0  0  0  0  0  0  0  0
   39.6980   32.1550   42.4390 N   0  0  0  0  0  0  0  0  0  0  0  0
   39.9600   30.9630   42.9930 C   0  0  0  0  0  0  0  0  0  0  0  0
   40.0110   30.8550   44.3310 N   0  0  0  0  0  0  0  0  0  0  0  0
   37.4760   29.1020   42.8580 Br  0  0  0  0  0  0  0  0  0  0  0  0
   39.1550   28.8710   41.9840 C   0  0  0  0  0  0  0  0  0  0  0  0
   40.1840   29.8010   42.1430 C   0  0  0  0  0  0  0  0  0  0  0  0
   41.3800   29.6180   41.5080 C   0  0  0  0  0  0  0  0  0  0  0  0
   41.6400   28.5240   40.6860 C   0  0  0  0  0  0  0  0  0  0  0  0
   40.6250   27.5850   40.5150 C   0  0  0  0  0  0  0  0  0  0  0  0
   39.4160   27.7900   41.1690 C   0  0  0  0  0  0  0  0  0  0  0  0
   38.8980   32.3260   47.4310 C   0  0  0  0  0  0  0  0  0  0  0  0
   38.1120   31.3860   48.2550 C   0  0  0  0  0  0  0  0  0  0  0  0
   37.0400   30.6820   47.7120 C   0  0  0  0  0  0  0  0  0  0  0  0
   36.5040   29.8950   48.6990 C   0  0  0  0  0  0  0  0  0  0  0  0
   37.2330   30.1200   49.8040 N   0  0  0  0  0  0  0  0  0  0  0  0
   38.1610   30.9940   49.5090 N   0  0  0  0  0  0  0  0  0  0  0  0
   37.0680   29.5240   51.1290 C   0  0  0  0  0  0  0  0  0  0  0  0
   37.8420   28.3820   51.2340 F   0  0  0  0  0  0  0  0  0  0  0  0
   35.7640   29.1810   51.3820 F   0  0  0  0  0  0  0  0  0  0  0  0
   37.4900   30.3840   52.1230 F   0  0  0  0  0  0  0  0  0  0  0  0
   40.8732   32.0509   46.8642 H   0  0  0  0  0  0  0  0  0  0  0  0
   39.6694   30.6176   46.6641 H   0  0  0  0  0  0  0  0  0  0  0  0
   39.3802   33.9561   45.2615 H   0  0  0  0  0  0  0  0  0  0  0  0
   39.2630   34.2733   42.7584 H   0  0  0  0  0  0  0  0  0  0  0  0
   42.1721   30.3675   41.6523 H   0  0  0  0  0  0  0  0  0  0  0  0
   42.6139   28.4054   40.1886 H   0  0  0  0  0  0  0  0  0  0  0  0
   40.7771   26.7018   39.8771 H   0  0  0  0  0  0  0  0  0  0  0  0
   38.6192   27.0448   41.0279 H   0  0  0  0  0  0  0  0  0  0  0  0
   39.4341   33.0085   48.1069 H   0  0  0  0  0  0  0  0  0  0  0  0
   38.1796   32.8412   46.7765 H   0  0  0  0  0  0  0  0  0  0  0  0
   36.6851   30.7460   46.6728 H   0  0  0  0  0  0  0  0  0  0  0  0
   35.6458   29.2135   48.6041 H   0  0  0  0  0  0  0  0  0  0  0  0
  1 15  1  0
  2  1  1  0
  3  2  2  0
  4  3  1  0
  5  6  1  0
  5  4  2  0
  6  7  2  0
  7  2  1  0
  9 10  2  0
  9  8  1  0
 10  6  1  0
 11 10  1  0
 12 11  2  0
 13 12  1  0
 13 14  2  0
 14  9  1  0
 15 16  1  0
 16 20  2  0
 17 16  1  0
 17 18  2  0
 18 19  1  0
 19 21  1  0
 20 19  1  0
 21 22  1  0
 21 23  1  0
 21 24  1  0
  1 25  1  0
  1 26  1  0
  3 27  1  0
  4 28  1  0
 11 29  1  0
 12 30  1  0
 13 31  1  0
 14 32  1  0
 15 33  1  0
 15 34  1  0
 17 35  1  0
 18 36  1  0
M  ISO  8  25   8  26   8  27  14  28  14  29  14  30  14  31  14  32  14
M  ISO  4  33   8  34   8  35  14  36  14
M  END
>  <minimizedAffinity>  (1) 
-6.16096735

>  <minimizedRMSD>  (1) 
1.07057655

$$$$
