
     RDKit          3D

 31 33  0  0  0  0  0  0  0  0999 V2000
   36.3639   30.4893   46.3885 Cl  0  0  0  0  0  0  0  0  0  0  0  0
   36.7893   30.5405   48.0779 C   0  0  0  0  0  0  0  0  0  0  0  0
   38.0064   31.0871   48.3720 C   0  0  0  0  0  0  0  0  0  0  0  0
   38.3771   31.1426   49.7200 C   0  0  0  0  0  0  0  0  0  0  0  0
   37.5372   30.6619   50.6900 C   0  0  0  0  0  0  0  0  0  0  0  0
   36.3289   30.1267   50.3121 C   0  0  0  0  0  0  0  0  0  0  0  0
   35.9004   30.0402   49.0070 C   0  0  0  0  0  0  0  0  0  0  0  0
   40.0063   33.4161   46.3990 C   0  0  0  0  0  0  0  0  0  0  0  0
   40.5752   32.6126   45.3986 C   0  0  0  0  0  0  0  0  0  0  0  0
   40.2590   31.2502   45.4128 C   0  0  0  0  0  0  0  0  0  0  0  0
   39.4279   30.8047   46.3892 N   0  0  0  0  0  0  0  0  0  0  0  0
   38.9016   31.6002   47.3303 C   0  0  0  0  0  0  0  0  0  0  0  0
   39.2015   32.8957   47.3180 N   0  0  0  0  0  0  0  0  0  0  0  0
   34.3422   29.3530   48.4866 S   0  0  0  0  0  0  0  0  0  0  0  0
   39.3286   31.5637   50.0219 H   0  0  0  0  0  0  0  0  0  0  0  0
   37.7716   30.6800   51.7347 H   0  0  0  0  0  0  0  0  0  0  0  0
   35.6502   29.7396   51.0805 H   0  0  0  0  0  0  0  0  0  0  0  0
   40.2762   34.4612   46.3518 H   0  0  0  0  0  0  0  0  0  0  0  0
   41.2405   32.9232   44.6033 H   0  0  0  0  0  0  0  0  0  0  0  0
   40.5869   30.4931   44.7482 H   0  0  0  0  0  0  0  0  0  0  0  0
   31.7413   27.3474   48.3599 Br  0  0  0  0  0  0  0  0  0  0  0  0
   32.3792   27.9865   50.0395 C   0  0  0  0  0  0  0  0  0  0  0  0
   33.4608   28.8086   49.9573 C   0  0  0  0  0  0  0  0  0  0  0  0
   34.0253   29.3439   51.1035 C   0  0  0  0  0  0  0  0  0  0  0  0
   34.8795   30.0057   51.1808 H   0  0  0  0  0  0  0  0  0  0  0  0
   33.4929   29.0478   52.3589 C   0  0  0  0  0  0  0  0  0  0  0  0
   33.8755   29.4252   53.2990 H   0  0  0  0  0  0  0  0  0  0  0  0
   32.3833   28.2027   52.4237 C   0  0  0  0  0  0  0  0  0  0  0  0
   31.8457   27.6878   51.2738 C   0  0  0  0  0  0  0  0  0  0  0  0
   31.9660   27.9691   53.3897 H   0  0  0  0  0  0  0  0  0  0  0  0
   30.9905   27.0313   51.2663 H   0  0  0  0  0  0  0  0  0  0  0  0
  1  2  1  0
  2  3  2  0
  2  7  1  0
  3  4  1  0
  4  5  2  0
  6  5  1  0
  7  6  2  0
  8 13  2  0
  9 10  2  0
  9  8  1  0
 10 11  1  0
 11 12  2  0
 12  3  1  0
 13 12  1  0
 14  7  1  0
  4 15  1  0
  5 16  1  0
  6 17  1  0
  8 18  1  0
  9 19  1  0
 10 20  1  0
 21 22  1  0
 22 23  2  0
 23 24  1  0
 24 25  1  0
 24 26  2  0
 26 27  1  0
 26 28  1  0
 28 29  2  0
 29 22  1  0
 28 30  1  0
 29 31  1  0
 14 23  1  0
M  ISO  8  15  14  16  14  17  14  18  14  19  14  20  14  25  15  27  16
M  END
>  <DihAtoms>  (1) 
6,13,22,21

>  <DihDeg>  (1) 
90.00044161964907

$$$$
