
     RDKit          3D

 33 35  0  0  0  0  0  0  0  0999 V2000
   38.4726   30.8075   49.8555 Cl  0  0  0  0  0  0  0  0  0  0  0  0
   37.0944   30.3581   48.8904 C   0  0  0  0  0  0  0  0  0  0  0  0
   37.0941   30.6339   47.5313 C   0  0  0  0  0  0  0  0  0  0  0  0
   36.0269   30.3011   46.7274 C   0  0  0  0  0  0  0  0  0  0  0  0
   34.9192   29.6785   47.2604 C   0  0  0  0  0  0  0  0  0  0  0  0
   34.8823   29.3895   48.6009 C   0  0  0  0  0  0  0  0  0  0  0  0
   33.5340   28.6125   49.4091 Cl  0  0  0  0  0  0  0  0  0  0  0  0
   35.9726   29.7365   49.3825 C   0  0  0  0  0  0  0  0  0  0  0  0
   39.5933   33.1631   46.6434 C   0  0  0  0  0  0  0  0  0  0  0  0
   40.4639   32.4701   45.7992 C   0  0  0  0  0  0  0  0  0  0  0  0
   40.1717   31.1194   45.5430 C   0  0  0  0  0  0  0  0  0  0  0  0
   39.0679   30.5552   46.1229 N   0  0  0  0  0  0  0  0  0  0  0  0
   38.2523   31.2864   46.9416 C   0  0  0  0  0  0  0  0  0  0  0  0
   38.5300   32.5699   47.1846 N   0  0  0  0  0  0  0  0  0  0  0  0
   35.9737   29.4286   50.8599 C   0  0  0  0  0  0  0  0  0  0  0  0
   35.9847   30.4958   45.6639 H   0  0  0  0  0  0  0  0  0  0  0  0
   34.0633   29.4018   46.6599 H   0  0  0  0  0  0  0  0  0  0  0  0
   39.8713   34.1954   46.7992 H   0  0  0  0  0  0  0  0  0  0  0  0
   41.3535   32.8410   45.3032 H   0  0  0  0  0  0  0  0  0  0  0  0
   40.7477   30.4421   44.9127 H   0  0  0  0  0  0  0  0  0  0  0  0
   36.2895   30.3520   51.3859 H   0  0  0  0  0  0  0  0  0  0  0  0
   34.9405   29.1477   51.1171 H   0  0  0  0  0  0  0  0  0  0  0  0
   37.4297   28.5792   48.3132 Br  0  0  0  0  0  0  0  0  0  0  0  0
   37.5685   27.7880   50.0594 C   0  0  0  0  0  0  0  0  0  0  0  0
   36.8625   28.2719   51.1429 C   0  0  0  0  0  0  0  0  0  0  0  0
   36.9886   27.6750   52.4024 C   0  0  0  0  0  0  0  0  0  0  0  0
   36.4102   28.0950   53.2198 H   0  0  0  0  0  0  0  0  0  0  0  0
   37.8384   26.5856   52.5390 C   0  0  0  0  0  0  0  0  0  0  0  0
   37.9277   26.1239   53.5339 H   0  0  0  0  0  0  0  0  0  0  0  0
   38.5665   26.0697   51.4705 C   0  0  0  0  0  0  0  0  0  0  0  0
   38.4188   26.6879   50.2247 C   0  0  0  0  0  0  0  0  0  0  0  0
   39.2278   25.2122   51.6109 H   0  0  0  0  0  0  0  0  0  0  0  0
   39.0088   26.2491   49.4189 H   0  0  0  0  0  0  0  0  0  0  0  0
  2  8  2  0
  2  1  1  0
  3  2  1  0
  4  5  1  0
  4  3  2  0
  5  6  2  0
  6  8  1  0
  6  7  1  0
  8 15  1  0
  9 14  2  0
 10  9  1  0
 11 10  2  0
 11 12  1  0
 12 13  2  0
 13 14  1  0
 13  3  1  0
  4 16  1  0
  5 17  1  0
  9 18  1  0
 10 19  1  0
 11 20  1  0
 15 21  1  0
 15 22  1  0
 23 24  1  0
 24 25  2  0
 25 26  1  0
 26 27  1  0
 26 28  2  0
 28 29  1  0
 28 30  1  0
 30 31  2  0
 31 24  1  0
 30 32  1  0
 31 33  1  0
 15 25  1  0
M  ISO  8  16  14  17  14  18  14  19  14  20  14  21   8  22   8  27  15
M  ISO  1  29  16
M  END
>  <DihAtoms>  (1) 
7,14,24,23

>  <DihDeg>  (1) 
154.6908813849859

$$$$
