
     RDKit          3D

 36 38  0  0  0  0  0  0  0  0999 V2000
   37.9171   31.6106   49.8504 C   0  0  0  0  0  0  0  0  0  0  0  0
   37.9316   31.6383   48.4507 C   0  0  0  0  0  0  0  0  0  0  0  0
   37.0820   30.8236   47.7696 C   0  0  0  0  0  0  0  0  0  0  0  0
   36.2407   30.0247   48.4977 N   0  0  0  0  0  0  0  0  0  0  0  0
   36.2282   30.0148   49.8411 C   0  0  0  0  0  0  0  0  0  0  0  0
   37.0736   30.8059   50.5022 N   0  0  0  0  0  0  0  0  0  0  0  0
   38.2128   31.1973   45.6334 C   0  0  0  0  0  0  0  0  0  0  0  0
   37.0873   30.8099   46.3291 C   0  0  0  0  0  0  0  0  0  0  0  0
   35.9507   30.4690   45.6290 C   0  0  0  0  0  0  0  0  0  0  0  0
   35.8692   30.4973   44.2534 C   0  0  0  0  0  0  0  0  0  0  0  0
   36.9741   30.8857   43.5267 C   0  0  0  0  0  0  0  0  0  0  0  0
   38.0949   31.2182   44.2345 C   0  0  0  0  0  0  0  0  0  0  0  0
   39.6620   31.6656   46.3948 S   0  0  0  0  0  0  0  0  0  0  0  0
   40.1071   33.0223   46.0592 O   0  0  0  0  0  0  0  0  0  0  0  0
   40.7114   30.9203   45.5716 O   0  0  0  0  0  0  0  0  0  0  0  0
   35.1699   29.2118   50.4903 C   0  0  0  0  0  0  0  0  0  0  0  0
   35.3691   29.0953   51.8520 F   0  0  0  0  0  0  0  0  0  0  0  0
   33.8964   29.8670   50.3907 F   0  0  0  0  0  0  0  0  0  0  0  0
   34.9540   28.0125   49.9548 F   0  0  0  0  0  0  0  0  0  0  0  0
   38.5142   32.1678   50.5724 H   0  0  0  0  0  0  0  0  0  0  0  0
   38.6082   32.4243   48.2193 H   0  0  0  0  0  0  0  0  0  0  0  0
   35.0857   30.1644   46.2307 H   0  0  0  0  0  0  0  0  0  0  0  0
   34.9175   30.2038   43.8401 H   0  0  0  0  0  0  0  0  0  0  0  0
   36.9128   30.9108   42.4685 H   0  0  0  0  0  0  0  0  0  0  0  0
   38.9558   31.5221   43.6323 H   0  0  0  0  0  0  0  0  0  0  0  0
   41.9686   33.2918   47.7875 Br  0  0  0  0  0  0  0  0  0  0  0  0
   41.4874   31.4875   48.2760 C   0  0  0  0  0  0  0  0  0  0  0  0
   40.4574   30.7777   47.6423 C   0  0  0  0  0  0  0  0  0  0  0  0
   40.2537   29.5043   48.1174 C   0  0  0  0  0  0  0  0  0  0  0  0
   39.4333   29.0058   47.5749 H   0  0  0  0  0  0  0  0  0  0  0  0
   40.9513   28.8833   49.1329 C   0  0  0  0  0  0  0  0  0  0  0  0
   40.6134   27.8774   49.3347 H   0  0  0  0  0  0  0  0  0  0  0  0
   41.9495   29.6257   49.7201 C   0  0  0  0  0  0  0  0  0  0  0  0
   42.2164   30.9093   49.3001 C   0  0  0  0  0  0  0  0  0  0  0  0
   42.4792   29.1077   50.5167 H   0  0  0  0  0  0  0  0  0  0  0  0
   43.0066   31.4644   49.7822 H   0  0  0  0  0  0  0  0  0  0  0  0
  1  6  2  0
  2  1  1  0
  3  2  2  0
  3  4  1  0
  4  5  2  0
  5 16  1  0
  5  6  1  0
  7  8  1  0
  7 13  1  0
  8  3  1  0
  9  8  2  0
 10  9  1  0
 11 12  1  0
 11 10  2  0
 12  7  2  0
 14 13  2  0
 15 13  2  0
 16 17  1  0
 18 16  1  0
 19 16  1  0
  1 20  1  0
  2 21  1  0
  9 22  1  0
 10 23  1  0
 11 24  1  0
 12 25  1  0
 26 27  1  0
 27 28  2  0
 28 29  1  0
 29 30  1  0
 29 31  2  0
 31 32  1  0
 31 33  1  0
 33 34  2  0
 34 27  1  0
 33 35  1  0
 34 36  1  0
 13 28  1  0
M  ISO  8  20  14  21  14  22  14  23  14  24  14  25  14  30  15  32  16
M  END
>  <DihAtoms>  (1) 
6,12,27,26

>  <DihDeg>  (1) 
-168.65748271234602

$$$$
