
     RDKit          3D

 49 53  0  0  0  0  0  0  0  0999 V2000
   34.3402   29.7592   46.0759 N   0  0  0  0  0  0  0  0  0  0  0  0
   33.0154   29.9757   45.5306 C   0  0  0  0  0  0  0  0  0  0  0  0
   32.9849   29.8332   44.0456 C   0  0  0  0  0  0  0  0  0  0  0  0
   34.0609   28.9900   43.6001 N   0  0  0  0  0  0  0  0  0  0  0  0
   35.3031   29.7319   43.8242 C   0  0  0  0  0  0  0  0  0  0  0  0
   35.6053   29.6131   45.2764 C   0  0  1  0  0  0  0  0  0  0  0  0
   37.2383   31.5258   44.8920 C   0  0  0  0  0  0  0  0  0  0  0  0
   36.6440   30.5504   45.7304 C   0  0  0  0  0  0  0  0  0  0  0  0
   36.9669   30.4807   47.0644 C   0  0  0  0  0  0  0  0  0  0  0  0
   37.8743   31.3949   47.5445 C   0  0  0  0  0  0  0  0  0  0  0  0
   38.4740   32.3791   46.6970 C   0  0  0  0  0  0  0  0  0  0  0  0
   38.1591   32.4626   45.3207 C   0  0  0  0  0  0  0  0  0  0  0  0
   39.3711   33.1910   47.4228 O   0  0  0  0  0  0  0  0  0  0  0  0
   39.0996   32.9436   48.7653 C   0  0  0  0  0  0  0  0  0  0  0  0
   38.4442   31.6702   48.7870 O   0  0  0  0  0  0  0  0  0  0  0  0
   34.7095   28.3654   48.0698 C   0  0  0  0  0  0  0  0  0  0  0  0
   34.4622   29.6524   47.4948 C   0  0  0  0  0  0  0  0  0  0  0  0
   34.3781   30.7349   48.3304 C   0  0  0  0  0  0  0  0  0  0  0  0
   34.5443   30.5113   49.6832 N   0  0  0  0  0  0  0  0  0  0  0  0
   34.7751   29.3092   50.1910 C   0  0  0  0  0  0  0  0  0  0  0  0
   34.8579   28.2449   49.4122 N   0  0  0  0  0  0  0  0  0  0  0  0
   34.9337   29.1896   51.6008 N   0  0  0  0  0  0  0  0  0  0  0  0
   32.5832   30.9499   45.8170 H   0  0  0  0  0  0  0  0  0  0  0  0
   32.3602   29.1941   45.9699 H   0  0  0  0  0  0  0  0  0  0  0  0
   33.0747   30.8448   43.5527 H   0  0  0  0  0  0  0  0  0  0  0  0
   32.0095   29.4356   43.7174 H   0  0  0  0  0  0  0  0  0  0  0  0
   33.9175   28.7867   42.5895 H   0  0  0  0  0  0  0  0  0  0  0  0
   36.1043   29.3125   43.2116 H   0  0  0  0  0  0  0  0  0  0  0  0
   35.0409   30.7948   43.5751 H   0  0  0  0  0  0  0  0  0  0  0  0
   35.9131   28.5800   45.5248 H   0  0  0  0  0  0  0  0  0  0  0  0
   36.9265   31.5035   43.8610 H   0  0  0  0  0  0  0  0  0  0  0  0
   36.7633   29.8373   47.8765 H   0  0  0  0  0  0  0  0  0  0  0  0
   38.6028   33.1931   44.6780 H   0  0  0  0  0  0  0  0  0  0  0  0
   38.5328   33.7211   49.2857 H   0  0  0  0  0  0  0  0  0  0  0  0
   40.0822   32.7654   49.2941 H   0  0  0  0  0  0  0  0  0  0  0  0
   34.7624   27.5518   47.3711 H   0  0  0  0  0  0  0  0  0  0  0  0
   35.6813   28.5734   52.0026 H   0  0  0  0  0  0  0  0  0  0  0  0
   34.2961   29.7231   52.2284 H   0  0  0  0  0  0  0  0  0  0  0  0
   35.5473   31.1206   45.6048 Br  0  0  0  0  0  0  0  0  0  0  0  0
   34.5507   32.3707   46.6905 C   0  0  0  0  0  0  0  0  0  0  0  0
   34.0408   32.0947   47.9762 C   0  0  0  0  0  0  0  0  0  0  0  0
   33.3775   33.1533   48.5180 C   0  0  0  0  0  0  0  0  0  0  0  0
   32.9774   32.9598   49.4875 H   0  0  0  0  0  0  0  0  0  0  0  0
   33.2148   34.3629   47.8951 C   0  0  0  0  0  0  0  0  0  0  0  0
   32.6623   35.0961   48.4637 H   0  0  0  0  0  0  0  0  0  0  0  0
   33.7199   34.6112   46.6427 C   0  0  0  0  0  0  0  0  0  0  0  0
   34.4014   33.5869   46.0344 C   0  0  0  0  0  0  0  0  0  0  0  0
   33.5346   35.5960   46.2496 H   0  0  0  0  0  0  0  0  0  0  0  0
   34.7752   33.8333   45.0613 H   0  0  0  0  0  0  0  0  0  0  0  0
  1 17  1  0
  2  1  1  0
  3  2  1  0
  4  5  1  0
  4  3  1  0
  5  6  1  0
  6  8  1  0
  6  1  1  0
  7 12  2  0
  7  8  1  0
  8  9  2  0
  9 10  1  0
 10 15  1  0
 11 13  1  0
 11 10  2  0
 12 11  1  0
 13 14  1  0
 14 15  1  0
 16 21  2  0
 17 16  1  0
 17 18  2  0
 18 19  1  0
 19 20  2  0
 20 22  1  0
 21 20  1  0
  2 23  1  0
  2 24  1  0
  3 25  1  0
  3 26  1  0
  4 27  1  0
  5 28  1  0
  5 29  1  0
  6 30  1  6
  7 31  1  0
  9 32  1  0
 12 33  1  0
 14 34  1  0
 14 35  1  0
 16 36  1  0
 22 37  1  0
 22 38  1  0
 39 40  1  0
 40 41  2  0
 41 42  1  0
 42 43  1  0
 42 44  2  0
 44 45  1  0
 44 46  1  0
 46 47  2  0
 47 40  1  0
 46 48  1  0
 47 49  1  0
 18 41  1  0
M  ISO  8  23  13  24  13  25  13  26  13  27   5  28  13  29  13  30  13
M  ISO  8  31  14  32  14  33  14  34  13  35  13  36  14  43  15  45  16
M  END
>  <DihAtoms>  (1) 
16,17,40,39

>  <DihDeg>  (1) 
115.65475981562284

$$$$
