
     RDKit          3D

 44 47  0  0  1  0  0  0  0  0999 V2000
   37.1650   31.0820   48.4290 N   0  0  0  0  0  0  0  0  0  0  0  0
   37.8470   31.1610   49.7190 C   0  0  0  0  0  0  0  0  0  0  0  0
   38.9820   32.1260   49.7420 C   0  0  0  0  0  0  0  0  0  0  0  0
   38.6950   33.3170   48.8290 C   0  0  0  0  0  0  0  0  0  0  0  0
   38.6810   32.7300   47.4520 C   0  0  0  0  0  0  0  0  0  0  0  0
   37.5190   31.7970   47.2500 C   0  0  1  0  0  0  0  0  0  0  0  0
   40.5010   31.2260   46.1890 Br  0  0  0  0  0  0  0  0  0  0  0  0
   38.8920   30.6430   45.4090 C   0  0  0  0  0  0  0  0  0  0  0  0
   37.7200   30.9950   46.0280 C   0  0  0  0  0  0  0  0  0  0  0  0
   36.5940   30.5050   45.3440 C   0  0  0  0  0  0  0  0  0  0  0  0
   36.6080   29.7590   44.1890 C   0  0  0  0  0  0  0  0  0  0  0  0
   37.8260   29.4550   43.6390 C   0  0  0  0  0  0  0  0  0  0  0  0
   38.9690   29.9010   44.2540 C   0  0  0  0  0  0  0  0  0  0  0  0
   36.0580   28.9800   49.0250 C   0  0  0  0  0  0  0  0  0  0  0  0
   36.0460   30.2160   48.3920 C   0  0  0  0  0  0  0  0  0  0  0  0
   34.8830   30.5520   47.7250 C   0  0  0  0  0  0  0  0  0  0  0  0
   33.8300   29.6880   47.7150 N   0  0  0  0  0  0  0  0  0  0  0  0
   33.8830   28.5000   48.3410 C   0  0  0  0  0  0  0  0  0  0  0  0
   34.9990   28.1610   48.9900 N   0  0  0  0  0  0  0  0  0  0  0  0
   32.7490   27.6020   48.3160 C   0  0  0  0  0  0  0  0  0  0  0  0
   32.8160   26.4140   47.6280 C   0  0  0  0  0  0  0  0  0  0  0  0
   31.7690   25.5230   47.5730 C   0  0  0  0  0  0  0  0  0  0  0  0
   30.6490   25.8990   48.2520 C   0  0  0  0  0  0  0  0  0  0  0  0
   30.5280   27.0940   48.9670 C   0  0  0  0  0  0  0  0  0  0  0  0
   31.6150   27.9410   48.9810 N   0  0  0  0  0  0  0  0  0  0  0  0
   37.1148   31.4689   50.4799 H   0  0  0  0  0  0  0  0  0  0  0  0
   38.2695   30.1653   49.9191 H   0  0  0  0  0  0  0  0  0  0  0  0
   39.1290   32.4865   50.7708 H   0  0  0  0  0  0  0  0  0  0  0  0
   39.8883   31.6156   49.3841 H   0  0  0  0  0  0  0  0  0  0  0  0
   37.7212   33.7679   49.0707 H   0  0  0  0  0  0  0  0  0  0  0  0
   39.4396   34.1194   48.9371 H   0  0  0  0  0  0  0  0  0  0  0  0
   38.6126   33.5467   46.7183 H   0  0  0  0  0  0  0  0  0  0  0  0
   39.6078   32.1527   47.3189 H   0  0  0  0  0  0  0  0  0  0  0  0
   36.6075   32.3843   47.0646 H   0  0  0  0  0  0  0  0  0  0  0  0
   35.6089   30.7405   45.7731 H   0  0  0  0  0  0  0  0  0  0  0  0
   35.6725   29.4175   43.7219 H   0  0  0  0  0  0  0  0  0  0  0  0
   37.8867   28.8605   42.7155 H   0  0  0  0  0  0  0  0  0  0  0  0
   39.9518   29.6636   43.8207 H   0  0  0  0  0  0  0  0  0  0  0  0
   36.9607   28.6655   49.5692 H   0  0  0  0  0  0  0  0  0  0  0  0
   34.8078   31.5170   47.2023 H   0  0  0  0  0  0  0  0  0  0  0  0
   33.7473   26.1647   47.0983 H   0  0  0  0  0  0  0  0  0  0  0  0
   31.8316   24.5742   47.0200 H   0  0  0  0  0  0  0  0  0  0  0  0
   29.7848   25.2186   48.2365 H   0  0  0  0  0  0  0  0  0  0  0  0
   29.5995   27.3489   49.4988 H   0  0  0  0  0  0  0  0  0  0  0  0
  1  2  1  0
  2  3  1  0
  4  3  1  0
  5  4  1  0
  6  5  1  0
  6  1  1  0
  8  9  2  0
  8  7  1  0
  9  6  1  0
 10  9  1  0
 11 10  2  0
 12 11  1  0
 12 13  2  0
 13  8  1  0
 15  1  1  0
 15 14  2  0
 16 15  1  0
 17 16  2  0
 17 18  1  0
 18 19  2  0
 19 14  1  0
 20 18  1  0
 20 25  1  0
 21 20  2  0
 22 21  1  0
 22 23  2  0
 23 24  1  0
 24 25  2  0
  2 26  1  0
  2 27  1  0
  3 28  1  0
  3 29  1  0
  4 30  1  0
  4 31  1  0
  5 32  1  0
  5 33  1  0
  6 34  1  6
 10 35  1  0
 11 36  1  0
 12 37  1  0
 13 38  1  0
 14 39  1  0
 16 40  1  0
 21 41  1  0
 22 42  1  0
 23 43  1  0
 24 44  1  0
M  ISO  8  26  13  27  13  28  13  29  13  30  13  31  13  32  13  33  13
M  ISO  8  34  13  35  14  36  14  37  14  38  14  39  14  40  14  41  14
M  ISO  3  42  14  43  14  44  14
M  END
>  <minimizedAffinity>  (1) 
-5.57316256

>  <minimizedRMSD>  (1) 
1.60365868

$$$$
