
     RDKit          3D

 29 31  0  0  0  0  0  0  0  0999 V2000
   37.5118   30.4326   50.9176 C   0  0  0  0  0  0  0  0  0  0  0  0
   37.2055   31.0600   49.7148 C   0  0  0  0  0  0  0  0  0  0  0  0
   35.9588   30.7790   49.1388 C   0  0  0  0  0  0  0  0  0  0  0  0
   35.1261   29.9107   49.7913 N   0  0  0  0  0  0  0  0  0  0  0  0
   35.4710   29.3332   50.9491 C   0  0  0  0  0  0  0  0  0  0  0  0
   36.6666   29.5864   51.5262 N   0  0  0  0  0  0  0  0  0  0  0  0
   38.0852   31.9827   49.0174 C   0  0  0  0  0  0  0  0  0  0  0  0
   38.5463   33.1463   49.5753 C   0  0  0  0  0  0  0  0  0  0  0  0
   39.3817   34.0385   48.9346 C   0  0  0  0  0  0  0  0  0  0  0  0
   39.7932   33.7688   47.6561 C   0  0  0  0  0  0  0  0  0  0  0  0
   39.3230   32.5871   47.0938 C   0  0  0  0  0  0  0  0  0  0  0  0
   38.5058   31.7426   47.7588 N   0  0  0  0  0  0  0  0  0  0  0  0
   38.4727   30.6467   51.3653 H   0  0  0  0  0  0  0  0  0  0  0  0
   35.7109   31.2620   48.2031 H   0  0  0  0  0  0  0  0  0  0  0  0
   34.6919   28.6800   51.3169 H   0  0  0  0  0  0  0  0  0  0  0  0
   38.2439   33.3929   50.5805 H   0  0  0  0  0  0  0  0  0  0  0  0
   39.7515   34.9574   49.3626 H   0  0  0  0  0  0  0  0  0  0  0  0
   39.5439   32.2202   46.1059 H   0  0  0  0  0  0  0  0  0  0  0  0
   38.5547   34.7811   44.9473 Br  0  0  0  0  0  0  0  0  0  0  0  0
   40.3137   35.1200   45.6003 C   0  0  0  0  0  0  0  0  0  0  0  0
   40.6697   34.5839   46.8198 C   0  0  0  0  0  0  0  0  0  0  0  0
   41.9689   34.8656   47.2459 C   0  0  0  0  0  0  0  0  0  0  0  0
   42.2938   34.4615   48.2054 H   0  0  0  0  0  0  0  0  0  0  0  0
   42.8597   35.6312   46.5084 C   0  0  0  0  0  0  0  0  0  0  0  0
   43.8444   35.7861   46.9366 H   0  0  0  0  0  0  0  0  0  0  0  0
   42.4598   36.1475   45.2932 C   0  0  0  0  0  0  0  0  0  0  0  0
   41.1701   35.8856   44.8384 C   0  0  0  0  0  0  0  0  0  0  0  0
   43.1449   36.7438   44.7127 H   0  0  0  0  0  0  0  0  0  0  0  0
   40.8509   36.2912   43.8799 H   0  0  0  0  0  0  0  0  0  0  0  0
  1  6  2  0
  2  1  1  0
  3  2  2  0
  3  4  1  0
  4  5  2  0
  5  6  1  0
  7  8  2  0
  7  2  1  0
  9  8  1  0
 10  9  2  0
 11 10  1  0
 11 12  2  0
 12  7  1  0
  1 13  1  0
  3 14  1  0
  5 15  1  0
  8 16  1  0
  9 17  1  0
 11 18  1  0
 19 20  1  0
 20 21  2  0
 21 22  1  0
 22 23  1  0
 22 24  2  0
 24 25  1  0
 24 26  1  0
 26 27  2  0
 27 20  1  0
 26 28  1  0
 27 29  1  0
 10 21  1  0
M  ISO  8  13  14  14  14  15  14  16  14  17  14  18  14  23  15  25  16
M  END
>  <DihAtoms>  (1) 
8,9,20,19

>  <DihDeg>  (1) 
45.01969106932921

$$$$
