
     RDKit          3D

 20 21  0  0  0  0  0  0  0  0999 V2000
   37.2959   30.1831   51.4314 C   0  0  0  0  0  0  0  0  0  0  0  0
   38.0345   30.6560   50.3385 C   0  0  0  0  0  0  0  0  0  0  0  0
   37.6799   30.3436   49.0278 C   0  0  0  0  0  0  0  0  0  0  0  0
   36.5817   29.5583   48.8914 N   0  0  0  0  0  0  0  0  0  0  0  0
   35.8749   29.1060   49.9424 C   0  0  0  0  0  0  0  0  0  0  0  0
   36.2270   29.4140   51.1964 N   0  0  0  0  0  0  0  0  0  0  0  0
   37.5841   30.4346   52.4435 H   0  0  0  0  0  0  0  0  0  0  0  0
   38.8908   31.2727   50.5413 H   0  0  0  0  0  0  0  0  0  0  0  0
   35.0235   28.4880   49.6398 H   0  0  0  0  0  0  0  0  0  0  0  0
   40.5536   29.3666   49.1478 Br  0  0  0  0  0  0  0  0  0  0  0  0
   39.7651   30.4613   47.7926 C   0  0  0  0  0  0  0  0  0  0  0  0
   38.4361   30.8263   47.8760 C   0  0  0  0  0  0  0  0  0  0  0  0
   37.9198   31.6163   46.8717 C   0  0  0  0  0  0  0  0  0  0  0  0
   36.8883   31.9083   46.9225 H   0  0  0  0  0  0  0  0  0  0  0  0
   38.7212   32.0217   45.8207 C   0  0  0  0  0  0  0  0  0  0  0  0
   38.3024   32.6460   45.0324 H   0  0  0  0  0  0  0  0  0  0  0  0
   40.0670   31.6535   45.7338 C   0  0  0  0  0  0  0  0  0  0  0  0
   40.5781   30.8574   46.7506 C   0  0  0  0  0  0  0  0  0  0  0  0
   40.6607   31.9934   44.8920 H   0  0  0  0  0  0  0  0  0  0  0  0
   41.6216   30.5591   46.7037 H   0  0  0  0  0  0  0  0  0  0  0  0
  2  1  2  0
  3  2  1  0
  4  3  2  0
  4  5  1  0
  5  6  2  0
  6  1  1  0
  1  7  1  0
  2  8  1  0
  5  9  1  0
 10 11  1  0
 11 12  2  0
 12 13  1  0
 13 14  1  0
 13 15  2  0
 15 16  1  0
 15 17  1  0
 17 18  2  0
 18 11  1  0
 17 19  1  0
 18 20  1  0
  3 12  1  0
M  ISO  5   7  14   8  14   9  14  14  15  16  16
M  END
>  <DihAtoms>  (1) 
1,2,11,10

>  <DihDeg>  (1) 
-179.98847856025327

$$$$
