
     RDKit          3D

 30 32  0  0  0  0  0  0  0  0999 V2000
   37.9745   33.1684   49.4366 C   0  0  0  0  0  0  0  0  0  0  0  0
   39.0159   33.1653   48.4618 C   0  0  0  0  0  0  0  0  0  0  0  0
   39.0107   32.1250   47.5336 C   0  0  0  0  0  0  0  0  0  0  0  0
   38.0289   31.1714   47.5946 N   0  0  0  0  0  0  0  0  0  0  0  0
   37.0637   31.2203   48.5393 C   0  0  0  0  0  0  0  0  0  0  0  0
   37.0320   32.2177   49.4635 N   0  0  0  0  0  0  0  0  0  0  0  0
   37.2710   29.3558   51.0518 Br  0  0  0  0  0  0  0  0  0  0  0  0
   35.9607   29.3153   49.6696 C   0  0  0  0  0  0  0  0  0  0  0  0
   36.0043   30.2090   48.6208 C   0  0  0  0  0  0  0  0  0  0  0  0
   35.0221   30.1332   47.6404 C   0  0  0  0  0  0  0  0  0  0  0  0
   34.0076   29.1834   47.6970 C   0  0  0  0  0  0  0  0  0  0  0  0
   33.9880   28.3081   48.7494 C   0  0  0  0  0  0  0  0  0  0  0  0
   34.9588   28.3781   49.7245 C   0  0  0  0  0  0  0  0  0  0  0  0
   37.9249   33.9415   50.1763 H   0  0  0  0  0  0  0  0  0  0  0  0
   39.7503   33.9497   48.4799 H   0  0  0  0  0  0  0  0  0  0  0  0
   39.7858   32.0903   46.7789 H   0  0  0  0  0  0  0  0  0  0  0  0
   35.1116   30.8612   46.8450 H   0  0  0  0  0  0  0  0  0  0  0  0
   33.1863   27.5815   48.7647 H   0  0  0  0  0  0  0  0  0  0  0  0
   34.9244   27.6771   50.5468 H   0  0  0  0  0  0  0  0  0  0  0  0
   34.0296   31.7854   45.9301 Br  0  0  0  0  0  0  0  0  0  0  0  0
   32.9026   30.2752   45.7080 C   0  0  0  0  0  0  0  0  0  0  0  0
   33.0527   29.2311   46.5950 C   0  0  0  0  0  0  0  0  0  0  0  0
   32.2182   28.1227   46.4239 C   0  0  0  0  0  0  0  0  0  0  0  0
   32.2210   27.2333   47.0393 H   0  0  0  0  0  0  0  0  0  0  0  0
   31.2816   28.1073   45.3858 C   0  0  0  0  0  0  0  0  0  0  0  0
   30.6094   27.2586   45.2175 H   0  0  0  0  0  0  0  0  0  0  0  0
   31.1558   29.1676   44.5149 C   0  0  0  0  0  0  0  0  0  0  0  0
   31.9820   30.2576   44.6894 C   0  0  0  0  0  0  0  0  0  0  0  0
   30.4362   29.1465   43.7238 H   0  0  0  0  0  0  0  0  0  0  0  0
   31.9309   31.1294   44.0320 H   0  0  0  0  0  0  0  0  0  0  0  0
  1  6  2  0
  2  1  1  0
  3  4  1  0
  3  2  2  0
  4  5  2  0
  5  9  1  0
  5  6  1  0
  8 13  2  0
  8  7  1  0
  9  8  1  0
 10 11  1  0
 10  9  2  0
 11 12  2  0
 12 13  1  0
  1 14  1  0
  2 15  1  0
  3 16  1  0
 10 17  1  0
 12 18  1  0
 13 19  1  0
 20 21  1  0
 21 22  2  0
 22 23  1  0
 23 24  1  0
 23 25  2  0
 25 26  1  0
 25 27  1  0
 27 28  2  0
 28 21  1  0
 27 29  1  0
 28 30  1  0
 11 22  1  0
M  ISO  8  14  14  15  14  16  14  17  14  18  14  19  14  24  15  26  16
M  END
>  <DihAtoms>  (1) 
9,10,21,20

>  <DihDeg>  (1) 
134.99787258139995

$$$$
