
     RDKit          3D

 42 44  0  0  1  0  0  0  0  0999 V2000
   34.8590   30.0810   46.8890 C   0  0  0  0  0  0  0  0  0  0  0  0
   36.1970   30.5830   46.9700 C   0  0  0  0  0  0  0  0  0  0  0  0
   36.8850   30.7570   45.7690 C   0  0  0  0  0  0  0  0  0  0  0  0
   36.2570   30.4460   44.6030 N   0  0  0  0  0  0  0  0  0  0  0  0
   34.9930   29.9740   44.5670 C   0  0  0  0  0  0  0  0  0  0  0  0
   34.3110   29.7980   45.6960 N   0  0  0  0  0  0  0  0  0  0  0  0
   36.6760   30.8420   48.2950 N   0  0  0  0  0  0  0  0  0  0  0  0
   37.0820   31.9980   49.0810 C   0  0  0  0  0  0  0  0  0  0  0  0
   38.4210   31.4880   49.6510 C   0  0  0  0  0  0  0  0  0  0  0  0
   38.2170   30.0050   49.8470 C   0  0  0  0  0  0  0  0  0  0  0  0
   36.8720   29.7370   49.2560 C   0  0  1  0  0  0  0  0  0  0  0  0
   34.7850   29.0260   50.4530 C   0  0  0  0  0  0  0  0  0  0  0  0
   34.5170   28.0770   49.6430 O   0  0  0  0  0  0  0  0  0  0  0  0
   35.8970   29.8960   50.3240 N   0  0  0  0  0  0  0  0  0  0  0  0
   38.2210   31.2590   45.7350 C   0  0  0  0  0  0  0  0  0  0  0  0
   38.4880   32.5010   46.2590 C   0  0  0  0  0  0  0  0  0  0  0  0
   39.7470   33.0670   46.2800 C   0  0  0  0  0  0  0  0  0  0  0  0
   40.7800   32.3220   45.7380 C   0  0  0  0  0  0  0  0  0  0  0  0
   40.5910   31.0630   45.1890 C   0  0  0  0  0  0  0  0  0  0  0  0
   39.2830   30.5780   45.2130 C   0  0  0  0  0  0  0  0  0  0  0  0
   38.9700   29.2610   44.5950 C   0  0  0  0  0  0  0  0  0  0  0  0
   39.3830   29.2040   43.1400 C   0  0  0  0  0  0  0  0  0  0  0  0
   34.2763   29.9261   47.8091 H   0  0  0  0  0  0  0  0  0  0  0  0
   34.5250   29.7340   43.6009 H   0  0  0  0  0  0  0  0  0  0  0  0
   37.2209   32.8895   48.4517 H   0  0  0  0  0  0  0  0  0  0  0  0
   36.3518   32.3189   49.8385 H   0  0  0  0  0  0  0  0  0  0  0  0
   39.2407   31.6760   48.9419 H   0  0  0  0  0  0  0  0  0  0  0  0
   38.6944   31.9968   50.5872 H   0  0  0  0  0  0  0  0  0  0  0  0
   38.9949   29.4317   49.3215 H   0  0  0  0  0  0  0  0  0  0  0  0
   38.2785   29.7082   50.9044 H   0  0  0  0  0  0  0  0  0  0  0  0
   36.7781   28.7422   48.7959 H   0  0  0  0  0  0  0  0  0  0  0  0
   34.1090   29.1790   51.3072 H   0  0  0  0  0  0  0  0  0  0  0  0
   36.0177   30.6603   51.0039 H   0  0  0  0  0  0  0  0  0  0  0  0
   37.6526   33.0758   46.6852 H   0  0  0  0  0  0  0  0  0  0  0  0
   39.9214   34.0651   46.7082 H   0  0  0  0  0  0  0  0  0  0  0  0
   41.7945   32.7471   45.7431 H   0  0  0  0  0  0  0  0  0  0  0  0
   41.4212   30.4822   44.7608 H   0  0  0  0  0  0  0  0  0  0  0  0
   39.5047   28.4739   45.1469 H   0  0  0  0  0  0  0  0  0  0  0  0
   37.8811   29.1129   44.6448 H   0  0  0  0  0  0  0  0  0  0  0  0
   40.4707   29.0539   43.0732 H   0  0  0  0  0  0  0  0  0  0  0  0
   38.8665   28.3686   42.6447 H   0  0  0  0  0  0  0  0  0  0  0  0
   39.1120   30.1481   42.6447 H   0  0  0  0  0  0  0  0  0  0  0  0
  1  2  2  0
  2  7  1  0
  3  2  1  0
  4  3  2  0
  5  4  1  0
  5  6  2  0
  6  1  1  0
  7  8  1  0
  7 11  1  0
  8  9  1  0
  9 10  1  0
 11 10  1  0
 11 14  1  0
 13 12  2  0
 14 12  1  0
 15  3  1  0
 15 16  2  0
 16 17  1  0
 18 17  2  0
 19 20  2  0
 19 18  1  0
 20 15  1  0
 21 20  1  0
 22 21  1  0
  1 23  1  0
  5 24  1  0
  8 25  1  0
  8 26  1  0
  9 27  1  0
  9 28  1  0
 10 29  1  0
 10 30  1  0
 11 31  1  6
 12 32  1  0
 14 33  1  0
 16 34  1  0
 17 35  1  0
 18 36  1  0
 19 37  1  0
 21 38  1  0
 21 39  1  0
 22 40  1  0
 22 41  1  0
 22 42  1  0
M  ISO  8  23  14  24  14  25  13  26  13  27  13  28  13  29  13  30  13
M  ISO  8  31  13  32   6  34  14  35  14  36  14  37  14  38   8  39   8
M  ISO  3  40   8  41   8  42   8
M  END
>  <minimizedAffinity>  (1) 
-5.43906307

>  <minimizedRMSD>  (1) 
0.730052114

$$$$
