
     RDKit          3D

 38 41  0  0  0  0  0  0  0  0999 V2000
   35.6630   29.8680   49.7140 C   0  0  0  0  0  0  0  0  0  0  0  0
   36.6340   29.8130   50.6950 C   0  0  0  0  0  0  0  0  0  0  0  0
   37.7520   30.3620   50.0780 C   0  0  0  0  0  0  0  0  0  0  0  0
   37.4240   30.7160   48.7940 C   0  0  0  0  0  0  0  0  0  0  0  0
   36.1620   30.4050   48.6100 O   0  0  0  0  0  0  0  0  0  0  0  0
   38.8620   32.5680   48.0600 C   0  0  0  0  0  0  0  0  0  0  0  0
   38.2990   31.3280   47.7970 C   0  0  0  0  0  0  0  0  0  0  0  0
   38.5460   30.6470   46.6070 C   0  0  0  0  0  0  0  0  0  0  0  0
   39.3740   31.2100   45.6480 C   0  0  0  0  0  0  0  0  0  0  0  0
   39.8000   30.8180   44.4280 N   0  0  0  0  0  0  0  0  0  0  0  0
   40.5880   31.7770   43.9640 N   0  0  0  0  0  0  0  0  0  0  0  0
   40.6800   32.7830   44.8640 C   0  0  0  0  0  0  0  0  0  0  0  0
   39.9020   32.4350   45.9600 C   0  0  0  0  0  0  0  0  0  0  0  0
   39.6990   33.1620   47.1180 C   0  0  0  0  0  0  0  0  0  0  0  0
   34.2930   29.4000   49.8850 C   0  0  0  0  0  0  0  0  0  0  0  0
   33.7160   29.6210   50.9640 O   0  0  0  0  0  0  0  0  0  0  0  0
   31.9390   27.2500   48.1180 C   0  0  0  0  0  0  0  0  0  0  0  0
   32.3580   27.3120   46.8040 C   0  0  0  0  0  0  0  0  0  0  0  0
   33.4470   28.0850   46.4940 C   0  0  0  0  0  0  0  0  0  0  0  0
   34.0680   28.7590   47.5020 N   0  0  0  0  0  0  0  0  0  0  0  0
   33.6420   28.6860   48.7870 C   0  0  0  0  0  0  0  0  0  0  0  0
   32.5770   27.9250   49.0670 N   0  0  0  0  0  0  0  0  0  0  0  0
   34.1210   28.3470   45.2020 C   0  0  0  0  0  0  0  0  0  0  0  0
   34.9520   29.6340   45.2760 C   0  0  0  0  0  0  0  0  0  0  0  0
   36.5438   29.4265   51.7209 H   0  0  0  0  0  0  0  0  0  0  0  0
   38.7400   30.4916   50.5440 H   0  0  0  0  0  0  0  0  0  0  0  0
   38.6483   33.0808   49.0094 H   0  0  0  0  0  0  0  0  0  0  0  0
   38.0849   29.6644   46.4286 H   0  0  0  0  0  0  0  0  0  0  0  0
   39.5580   29.9391   43.9485 H   0  0  0  0  0  0  0  0  0  0  0  0
   41.2644   33.7077   44.7485 H   0  0  0  0  0  0  0  0  0  0  0  0
   40.1669   34.1435   47.2845 H   0  0  0  0  0  0  0  0  0  0  0  0
   31.0665   26.6343   48.3819 H   0  0  0  0  0  0  0  0  0  0  0  0
   31.8277   26.7514   46.0201 H   0  0  0  0  0  0  0  0  0  0  0  0
   33.3616   28.4522   44.4132 H   0  0  0  0  0  0  0  0  0  0  0  0
   34.7918   27.5051   44.9756 H   0  0  0  0  0  0  0  0  0  0  0  0
   35.1235   29.8996   46.3296 H   0  0  0  0  0  0  0  0  0  0  0  0
   35.9188   29.4755   44.7757 H   0  0  0  0  0  0  0  0  0  0  0  0
   34.4097   30.4499   44.7757 H   0  0  0  0  0  0  0  0  0  0  0  0
  1 15  1  0
  1  2  2  0
  3  2  1  0
  4  3  2  0
  5  4  1  0
  5  1  1  0
  7  6  2  0
  7  4  1  0
  8  7  1  0
  9 13  1  0
  9  8  2  0
 10  9  1  0
 11 10  1  0
 11 12  2  0
 12 13  1  0
 13 14  2  0
 14  6  1  0
 15 16  2  0
 17 22  2  0
 18 17  1  0
 19 18  2  0
 19 20  1  0
 20 21  2  0
 21 22  1  0
 21 15  1  0
 23 24  1  0
 23 19  1  0
  2 25  1  0
  3 26  1  0
  6 27  1  0
  8 28  1  0
 10 29  1  0
 12 30  1  0
 14 31  1  0
 17 32  1  0
 18 33  1  0
 23 34  1  0
 23 35  1  0
 24 36  1  0
 24 37  1  0
 24 38  1  0
M  ISO  8  25  14  26  14  27  14  28  14  29   9  30  14  31  14  32  14
M  ISO  6  33  14  34   8  35   8  36   8  37   8  38   8
M  END
>  <minimizedAffinity>  (1) 
-6.3126502

>  <minimizedRMSD>  (1) 
1.22506034

$$$$
