
     RDKit          3D

 32 33  0  0  0  0  0  0  0  0999 V2000
   36.9150   32.0310   48.7620 O   0  0  0  0  0  0  0  0  0  0  0  0
   38.5730   32.3990   46.9750 C   0  0  0  0  0  0  0  0  0  0  0  0
   38.0450   32.6300   48.2180 C   0  0  0  0  0  0  0  0  0  0  0  0
   38.6350   33.5380   49.0840 C   0  0  0  0  0  0  0  0  0  0  0  0
   39.7840   34.2150   48.6640 C   0  0  0  0  0  0  0  0  0  0  0  0
   40.3160   33.9780   47.4090 C   0  0  0  0  0  0  0  0  0  0  0  0
   39.6940   33.0640   46.5770 C   0  0  0  0  0  0  0  0  0  0  0  0
   37.3530   30.6850   45.4700 N   0  0  0  0  0  0  0  0  0  0  0  0
   37.8920   31.4530   46.1510 C   0  0  0  0  0  0  0  0  0  0  0  0
   40.2840   32.8160   45.2370 C   0  0  0  0  0  0  0  0  0  0  0  0
   41.1800   31.5750   45.3130 C   0  0  0  0  0  0  0  0  0  0  0  0
   36.9450   31.0540   49.7060 C   0  0  0  0  0  0  0  0  0  0  0  0
   36.3060   29.8860   49.2540 C   0  0  0  0  0  0  0  0  0  0  0  0
   36.2220   28.7640   50.0660 C   0  0  0  0  0  0  0  0  0  0  0  0
   36.7940   28.8640   51.3160 N   0  0  0  0  0  0  0  0  0  0  0  0
   37.4020   29.9940   51.7270 C   0  0  0  0  0  0  0  0  0  0  0  0
   37.4690   31.0450   50.9400 N   0  0  0  0  0  0  0  0  0  0  0  0
   34.3690   29.2480   47.9030 C   0  0  0  0  0  0  0  0  0  0  0  0
   33.5030   28.8000   48.7480 O   0  0  0  0  0  0  0  0  0  0  0  0
   35.7240   29.6900   48.0000 N   0  0  0  0  0  0  0  0  0  0  0  0
   38.2079   33.7219   50.0809 H   0  0  0  0  0  0  0  0  0  0  0  0
   40.2677   34.9401   49.3351 H   0  0  0  0  0  0  0  0  0  0  0  0
   41.2206   34.5087   47.0773 H   0  0  0  0  0  0  0  0  0  0  0  0
   40.8830   33.6861   44.9302 H   0  0  0  0  0  0  0  0  0  0  0  0
   39.4831   32.6538   44.5006 H   0  0  0  0  0  0  0  0  0  0  0  0
   41.3643   31.3198   46.3670 H   0  0  0  0  0  0  0  0  0  0  0  0
   40.6812   30.7315   44.8133 H   0  0  0  0  0  0  0  0  0  0  0  0
   42.1376   31.7830   44.8133 H   0  0  0  0  0  0  0  0  0  0  0  0
   35.7246   27.8424   49.7295 H   0  0  0  0  0  0  0  0  0  0  0  0
   37.8472   30.0376   52.7320 H   0  0  0  0  0  0  0  0  0  0  0  0
   33.9755   29.3017   46.8772 H   0  0  0  0  0  0  0  0  0  0  0  0
   36.2715   29.8641   47.1451 H   0  0  0  0  0  0  0  0  0  0  0  0
  1 12  1  0
  2  3  2  0
  3  1  1  0
  3  4  1  0
  5  4  2  0
  6  5  1  0
  7  2  1  0
  7  6  2  0
  8  9  3  0
  9  2  1  0
 10 11  1  0
 10  7  1  0
 12 17  1  0
 13 12  2  0
 13 14  1  0
 14 15  2  0
 15 16  1  0
 17 16  2  0
 18 20  1  0
 18 19  2  0
 20 13  1  0
  4 21  1  0
  5 22  1  0
  6 23  1  0
 10 24  1  0
 10 25  1  0
 11 26  1  0
 11 27  1  0
 11 28  1  0
 14 29  1  0
 16 30  1  0
 18 31  1  0
 20 32  1  0
M  ISO  8  21  14  22  14  23  14  24   8  25   8  26   8  27   8  28   8
M  ISO  3  29  14  30  14  31   6
M  END
>  <minimizedAffinity>  (1) 
-5.05880928

>  <minimizedRMSD>  (1) 
0.433263272

$$$$
