
     RDKit          3D

 36 38  0  0  1  0  0  0  0  0999 V2000
   38.0840   32.0560   47.1730 C   0  0  2  0  0  0  0  0  0  0  0  0
   38.5500   30.5380   47.0100 C   0  0  0  0  0  0  0  0  0  0  0  0
   39.3060   31.7410   46.5110 C   0  0  1  0  0  0  0  0  0  0  0  0
   39.5320   31.7870   45.0640 C   0  0  0  0  0  0  0  0  0  0  0  0
   39.1350   32.9320   44.3920 C   0  0  0  0  0  0  0  0  0  0  0  0
   39.3480   32.9750   43.0350 C   0  0  0  0  0  0  0  0  0  0  0  0
   39.9360   31.9230   42.3480 C   0  0  0  0  0  0  0  0  0  0  0  0
   40.3150   30.8070   43.0560 C   0  0  0  0  0  0  0  0  0  0  0  0
   40.1110   30.7580   44.3760 N   0  0  0  0  0  0  0  0  0  0  0  0
   38.0620   32.3520   48.6540 C   0  0  0  0  0  0  0  0  0  0  0  0
   38.6460   33.4250   49.0800 O   0  0  0  0  0  0  0  0  0  0  0  0
   37.5180   30.0220   51.5120 C   0  0  0  0  0  0  0  0  0  0  0  0
   38.0690   30.9440   50.6530 C   0  0  0  0  0  0  0  0  0  0  0  0
   37.3960   31.4120   49.5060 C   0  0  0  0  0  0  0  0  0  0  0  0
   36.2030   30.9200   49.2970 N   0  0  0  0  0  0  0  0  0  0  0  0
   35.6610   29.9990   50.1630 C   0  0  0  0  0  0  0  0  0  0  0  0
   36.2930   29.5530   51.2480 N   0  0  0  0  0  0  0  0  0  0  0  0
   34.2840   29.5360   49.7770 C   0  0  0  0  0  0  0  0  0  0  0  0
   34.4360   28.1550   49.1950 C   0  0  0  0  0  0  0  0  0  0  0  0
   37.2802   32.7473   46.8799 H   0  0  0  0  0  0  0  0  0  0  0  0
   38.9120   29.9628   47.8749 H   0  0  0  0  0  0  0  0  0  0  0  0
   38.1413   29.6081   46.5878 H   0  0  0  0  0  0  0  0  0  0  0  0
   40.2975   32.1905   46.6686 H   0  0  0  0  0  0  0  0  0  0  0  0
   38.6676   33.7737   44.9240 H   0  0  0  0  0  0  0  0  0  0  0  0
   39.0426   33.8718   42.4760 H   0  0  0  0  0  0  0  0  0  0  0  0
   40.0955   31.9804   41.2611 H   0  0  0  0  0  0  0  0  0  0  0  0
   40.7844   29.9576   42.5380 H   0  0  0  0  0  0  0  0  0  0  0  0
   39.0000   31.7914   48.7800 H   0  0  0  0  0  0  0  0  0  0  0  0
   38.6480   33.4287   50.0700 H   0  0  0  0  0  0  0  0  0  0  0  0
   38.0726   29.6775   52.3973 H   0  0  0  0  0  0  0  0  0  0  0  0
   39.0753   31.3319   50.8696 H   0  0  0  0  0  0  0  0  0  0  0  0
   33.6331   29.5039   50.6632 H   0  0  0  0  0  0  0  0  0  0  0  0
   33.8264   30.2226   49.0495 H   0  0  0  0  0  0  0  0  0  0  0  0
   34.5168   27.4205   50.0099 H   0  0  0  0  0  0  0  0  0  0  0  0
   33.5583   27.9197   48.5751 H   0  0  0  0  0  0  0  0  0  0  0  0
   35.3438   28.1162   48.5751 H   0  0  0  0  0  0  0  0  0  0  0  0
  1 10  1  0
  2  1  1  0
  3  2  1  0
  3  1  1  0
  4  3  1  0
  5  4  2  0
  6  5  1  0
  7  6  2  0
  7  8  1  0
  8  9  2  0
  9  4  1  0
 10 11  1  0
 10 14  1  0
 13 12  2  0
 14 13  1  0
 15 14  2  0
 15 16  1  0
 16 17  2  0
 17 12  1  0
 18 16  1  0
 19 18  1  0
  1 20  1  6
  2 21  1  0
  2 22  1  0
  3 23  1  1
  5 24  1  0
  6 25  1  0
  7 26  1  0
  8 27  1  0
 10 28  1  0
 11 29  1  0
 12 30  1  0
 13 31  1  0
 18 32  1  0
 18 33  1  0
 19 34  1  0
 19 35  1  0
 19 36  1  0
M  ISO  8  20  13  21  13  22  13  23  13  24  14  25  14  26  14  27  14
M  ISO  8  28   8  29   3  30  14  31  14  32   8  33   8  34   8  35   8
M  ISO  1  36   8
M  END
>  <minimizedAffinity>  (1) 
-6.05009937

>  <minimizedRMSD>  (1) 
0.499210954

$$$$
