
     RDKit          3D

 40 42  0  0  1  0  0  0  0  0999 V2000
   38.2820   32.3510   48.2880 C   0  0  0  0  0  0  0  0  0  0  0  0
   38.8650   33.3550   49.0190 C   0  0  0  0  0  0  0  0  0  0  0  0
   39.8210   34.2360   48.4920 C   0  0  0  0  0  0  0  0  0  0  0  0
   40.1740   34.0700   47.1880 N   0  0  0  0  0  0  0  0  0  0  0  0
   39.6040   33.0870   46.4720 C   0  0  0  0  0  0  0  0  0  0  0  0
   38.6920   32.2560   46.9980 N   0  0  0  0  0  0  0  0  0  0  0  0
   39.9930   32.9150   45.0630 C   0  0  2  0  0  0  0  0  0  0  0  0
   38.8700   33.1140   44.0770 C   0  0  0  0  0  0  0  0  0  0  0  0
   39.3500   32.2700   42.8740 C   0  0  0  0  0  0  0  0  0  0  0  0
   40.5570   31.5060   43.3400 C   0  0  0  0  0  0  0  0  0  0  0  0
   40.3070   31.4540   44.8390 C   0  0  1  0  0  0  0  0  0  0  0  0
   41.4640   30.9430   45.6250 C   0  0  0  0  0  0  0  0  0  0  0  0
   37.2060   31.1090   50.1870 C   0  0  0  0  0  0  0  0  0  0  0  0
   37.3060   31.4520   48.8280 C   0  0  0  0  0  0  0  0  0  0  0  0
   36.3850   30.8670   47.9870 C   0  0  0  0  0  0  0  0  0  0  0  0
   35.4570   30.0140   48.4930 N   0  0  0  0  0  0  0  0  0  0  0  0
   35.4040   29.7180   49.8060 C   0  0  0  0  0  0  0  0  0  0  0  0
   36.2920   30.2740   50.6540 N   0  0  0  0  0  0  0  0  0  0  0  0
   34.3640   28.7740   50.3130 C   0  0  0  0  0  0  0  0  0  0  0  0
   33.5260   28.2610   49.1670 C   0  0  0  0  0  0  0  0  0  0  0  0
   38.5678   33.4752   50.0713 H   0  0  0  0  0  0  0  0  0  0  0  0
   40.2679   35.0299   49.1085 H   0  0  0  0  0  0  0  0  0  0  0  0
   40.8039   33.6415   44.9061 H   0  0  0  0  0  0  0  0  0  0  0  0
   37.9163   32.7372   44.4752 H   0  0  0  0  0  0  0  0  0  0  0  0
   38.6754   34.1684   43.8313 H   0  0  0  0  0  0  0  0  0  0  0  0
   39.6177   32.9262   42.0327 H   0  0  0  0  0  0  0  0  0  0  0  0
   38.5592   31.5889   42.5265 H   0  0  0  0  0  0  0  0  0  0  0  0
   40.5912   30.4980   42.9010 H   0  0  0  0  0  0  0  0  0  0  0  0
   41.5181   31.9597   43.0562 H   0  0  0  0  0  0  0  0  0  0  0  0
   39.5258   30.7533   45.1689 H   0  0  0  0  0  0  0  0  0  0  0  0
   41.2481   31.0383   46.6994 H   0  0  0  0  0  0  0  0  0  0  0  0
   41.6364   29.8850   45.3781 H   0  0  0  0  0  0  0  0  0  0  0  0
   42.3621   31.5282   45.3781 H   0  0  0  0  0  0  0  0  0  0  0  0
   37.9201   31.5550   50.8949 H   0  0  0  0  0  0  0  0  0  0  0  0
   36.4011   31.0898   46.9099 H   0  0  0  0  0  0  0  0  0  0  0  0
   34.8550   27.9260   50.8128 H   0  0  0  0  0  0  0  0  0  0  0  0
   33.7141   29.3032   51.0255 H   0  0  0  0  0  0  0  0  0  0  0  0
   32.6510   27.7253   49.5637 H   0  0  0  0  0  0  0  0  0  0  0  0
   33.1893   29.1079   48.5511 H   0  0  0  0  0  0  0  0  0  0  0  0
   34.1271   27.5759   48.5511 H   0  0  0  0  0  0  0  0  0  0  0  0
  1 14  1  0
  1  2  2  0
  3  2  1  0
  4  3  2  0
  5  6  2  0
  5  4  1  0
  6  1  1  0
  7  5  1  0
  8  7  1  0
  9 10  1  0
  9  8  1  0
 10 11  1  0
 11  7  1  0
 11 12  1  0
 13 18  2  0
 14 13  1  0
 15 16  1  0
 15 14  2  0
 16 17  2  0
 17 19  1  0
 17 18  1  0
 20 19  1  0
  2 21  1  0
  3 22  1  0
  7 23  1  6
  8 24  1  0
  8 25  1  0
  9 26  1  0
  9 27  1  0
 10 28  1  0
 10 29  1  0
 11 30  1  6
 12 31  1  0
 12 32  1  0
 12 33  1  0
 13 34  1  0
 15 35  1  0
 19 36  1  0
 19 37  1  0
 20 38  1  0
 20 39  1  0
 20 40  1  0
M  ISO  8  21  14  22  14  23  13  24  13  25  13  26  13  27  13  28  13
M  ISO  8  29  13  30  13  31   8  32   8  33   8  34  14  35  14  36   8
M  ISO  4  37   8  38   8  39   8  40   8
M  END
>  <minimizedAffinity>  (1) 
-5.46185398

>  <minimizedRMSD>  (1) 
0.808537662

$$$$
