
     RDKit          3D

 25 26  0  0  0  0  0  0  0  0999 V2000
   38.2020   31.2280   48.2700 C   0  0  0  0  0  0  0  0  0  0  0  0
   38.7290   32.5000   48.4180 C   0  0  0  0  0  0  0  0  0  0  0  0
   39.4270   33.1820   47.4390 C   0  0  0  0  0  0  0  0  0  0  0  0
   39.6210   32.5700   46.2270 C   0  0  0  0  0  0  0  0  0  0  0  0
   39.0880   31.2940   46.0900 C   0  0  0  0  0  0  0  0  0  0  0  0
   38.4210   30.6760   47.0670 N   0  0  0  0  0  0  0  0  0  0  0  0
   37.7670   30.6720   50.6920 C   0  0  0  0  0  0  0  0  0  0  0  0
   37.4770   30.5540   49.3260 C   0  0  0  0  0  0  0  0  0  0  0  0
   36.4160   29.7300   48.9370 C   0  0  0  0  0  0  0  0  0  0  0  0
   35.7240   29.0870   49.9410 N   0  0  0  0  0  0  0  0  0  0  0  0
   36.0340   29.2270   51.2350 C   0  0  0  0  0  0  0  0  0  0  0  0
   37.0500   30.0150   51.6230 N   0  0  0  0  0  0  0  0  0  0  0  0
   40.3360   33.1510   45.0880 C   0  0  0  0  0  0  0  0  0  0  0  0
   39.6210   33.0030   43.7680 C   0  0  0  0  0  0  0  0  0  0  0  0
   38.5815   33.0041   49.3845 H   0  0  0  0  0  0  0  0  0  0  0  0
   39.8180   34.1927   47.6277 H   0  0  0  0  0  0  0  0  0  0  0  0
   39.2219   30.7693   45.1325 H   0  0  0  0  0  0  0  0  0  0  0  0
   38.5996   31.3163   51.0109 H   0  0  0  0  0  0  0  0  0  0  0  0
   36.1461   29.6009   47.8785 H   0  0  0  0  0  0  0  0  0  0  0  0
   35.4472   28.6880   51.9934 H   0  0  0  0  0  0  0  0  0  0  0  0
   40.4816   34.2237   45.2830 H   0  0  0  0  0  0  0  0  0  0  0  0
   41.2846   32.6016   44.9969 H   0  0  0  0  0  0  0  0  0  0  0  0
   38.5585   32.7831   43.9491 H   0  0  0  0  0  0  0  0  0  0  0  0
   39.7095   33.9385   43.1962 H   0  0  0  0  0  0  0  0  0  0  0  0
   40.0736   32.1795   43.1962 H   0  0  0  0  0  0  0  0  0  0  0  0
  1  2  2  0
  1  8  1  0
  3  2  1  0
  4  3  2  0
  5  4  1  0
  5  6  2  0
  6  1  1  0
  7 12  2  0
  8  7  1  0
  9  8  2  0
  9 10  1  0
 10 11  2  0
 11 12  1  0
 13  4  1  0
 14 13  1  0
  2 15  1  0
  3 16  1  0
  5 17  1  0
  7 18  1  0
  9 19  1  0
 11 20  1  0
 13 21  1  0
 13 22  1  0
 14 23  1  0
 14 24  1  0
 14 25  1  0
M  ISO  8  15  14  16  14  17  14  18  14  19  14  20  14  21   8  22   8
M  ISO  3  23   8  24   8  25   8
M  END
>  <minimizedAffinity>  (1) 
-5.09989214

>  <minimizedRMSD>  (1) 
1.48212862

$$$$
