
     RDKit          3D

 43 46  0  0  1  0  0  0  0  0999 V2000
   33.7520   29.6260   46.2140 N   0  0  0  0  0  0  0  0  0  0  0  0
   32.3360   29.8890   46.0720 C   0  0  0  0  0  0  0  0  0  0  0  0
   31.8420   29.6740   44.6870 C   0  0  0  0  0  0  0  0  0  0  0  0
   32.7040   28.7410   43.9940 N   0  0  0  0  0  0  0  0  0  0  0  0
   33.9770   29.4250   43.7800 C   0  0  0  0  0  0  0  0  0  0  0  0
   34.6860   29.3830   45.0990 C   0  0  1  0  0  0  0  0  0  0  0  0
   36.1410   31.2410   44.1520 C   0  0  0  0  0  0  0  0  0  0  0  0
   35.8540   30.2960   45.1440 C   0  0  0  0  0  0  0  0  0  0  0  0
   36.6530   30.1880   46.2660 C   0  0  0  0  0  0  0  0  0  0  0  0
   37.7260   31.0480   46.3660 C   0  0  0  0  0  0  0  0  0  0  0  0
   38.0100   32.0010   45.3580 C   0  0  0  0  0  0  0  0  0  0  0  0
   37.2040   32.1120   44.2130 C   0  0  0  0  0  0  0  0  0  0  0  0
   39.1570   32.7390   45.7050 O   0  0  0  0  0  0  0  0  0  0  0  0
   39.3560   32.5210   47.0780 C   0  0  0  0  0  0  0  0  0  0  0  0
   38.7310   31.2580   47.3140 O   0  0  0  0  0  0  0  0  0  0  0  0
   34.6710   28.3550   48.1140 C   0  0  0  0  0  0  0  0  0  0  0  0
   34.3020   29.5890   47.5340 C   0  0  0  0  0  0  0  0  0  0  0  0
   34.5070   30.7290   48.2790 C   0  0  0  0  0  0  0  0  0  0  0  0
   35.0580   30.6130   49.5330 N   0  0  0  0  0  0  0  0  0  0  0  0
   35.3930   29.4210   50.0350 C   0  0  0  0  0  0  0  0  0  0  0  0
   35.2110   28.2840   49.3500 N   0  0  0  0  0  0  0  0  0  0  0  0
   35.9790   29.4880   51.4100 C   0  0  0  0  0  0  0  0  0  0  0  0
   37.3380   30.1850   51.3140 C   0  0  0  0  0  0  0  0  0  0  0  0
   31.7853   29.2190   46.7486 H   0  0  0  0  0  0  0  0  0  0  0  0
   32.1714   30.9480   46.3196 H   0  0  0  0  0  0  0  0  0  0  0  0
   30.8203   29.2681   44.7235 H   0  0  0  0  0  0  0  0  0  0  0  0
   31.8428   30.6340   44.1500 H   0  0  0  0  0  0  0  0  0  0  0  0
   32.8465   27.8968   44.5666 H   0  0  0  0  0  0  0  0  0  0  0  0
   34.5670   28.9055   43.0106 H   0  0  0  0  0  0  0  0  0  0  0  0
   33.8296   30.4576   43.4308 H   0  0  0  0  0  0  0  0  0  0  0  0
   35.0876   28.3658   45.2173 H   0  0  0  0  0  0  0  0  0  0  0  0
   35.4795   31.2899   43.2745 H   0  0  0  0  0  0  0  0  0  0  0  0
   36.4413   29.4449   47.0489 H   0  0  0  0  0  0  0  0  0  0  0  0
   37.4089   32.8454   43.4192 H   0  0  0  0  0  0  0  0  0  0  0  0
   40.4289   32.4786   47.3171 H   0  0  0  0  0  0  0  0  0  0  0  0
   38.9404   33.3258   47.7022 H   0  0  0  0  0  0  0  0  0  0  0  0
   34.5144   27.4273   47.5440 H   0  0  0  0  0  0  0  0  0  0  0  0
   34.2343   31.7160   47.8772 H   0  0  0  0  0  0  0  0  0  0  0  0
   35.3124   30.0602   52.0719 H   0  0  0  0  0  0  0  0  0  0  0  0
   36.0982   28.4756   51.8233 H   0  0  0  0  0  0  0  0  0  0  0  0
   37.7215   30.3817   52.3260 H   0  0  0  0  0  0  0  0  0  0  0  0
   38.0445   29.5380   50.7735 H   0  0  0  0  0  0  0  0  0  0  0  0
   37.2248   31.1363   50.7735 H   0  0  0  0  0  0  0  0  0  0  0  0
  1 17  1  0
  2  1  1  0
  3  2  1  0
  4  3  1  0
  5  4  1  0
  5  6  1  0
  6  8  1  0
  6  1  1  0
  7 12  2  0
  7  8  1  0
  8  9  2  0
  9 10  1  0
 10 15  1  0
 11 13  1  0
 11 10  2  0
 12 11  1  0
 13 14  1  0
 14 15  1  0
 16 21  2  0
 17 16  1  0
 17 18  2  0
 18 19  1  0
 19 20  2  0
 20 22  1  0
 21 20  1  0
 23 22  1  0
  2 24  1  0
  2 25  1  0
  3 26  1  0
  3 27  1  0
  4 28  1  0
  5 29  1  0
  5 30  1  0
  6 31  1  1
  7 32  1  0
  9 33  1  0
 12 34  1  0
 14 35  1  0
 14 36  1  0
 16 37  1  0
 18 38  1  0
 22 39  1  0
 22 40  1  0
 23 41  1  0
 23 42  1  0
 23 43  1  0
M  ISO  8  24  13  25  13  26  13  27  13  28   5  29  13  30  13  31  13
M  ISO  8  32  14  33  14  34  14  35  13  36  13  37  14  38  14  39   8
M  ISO  4  40   8  41   8  42   8  43   8
M  END
>  <minimizedAffinity>  (1) 
-4.91942978

>  <minimizedRMSD>  (1) 
1.62128043

$$$$
