
     RDKit          3D

 31 32  0  0  0  0  0  0  0  0999 V2000
   33.7308   28.5927   48.6959 C   0  0  0  0  0  0  0  0  0  0  0  0
   32.8089   27.4484   48.3630 C   0  0  0  0  0  0  0  0  0  0  0  0
   31.3859   27.8540   48.3578 C   0  0  0  0  0  0  0  0  0  0  0  0
   30.6915   27.7358   49.5481 C   0  0  0  0  0  0  0  0  0  0  0  0
   29.3658   28.0867   49.6447 C   0  0  0  0  0  0  0  0  0  0  0  0
   28.7095   28.5564   48.5761 N   0  0  0  0  0  0  0  0  0  0  0  0
   29.4020   28.6689   47.4091 C   0  0  0  0  0  0  0  0  0  0  0  0
   30.6944   28.3326   47.2930 N   0  0  0  0  0  0  0  0  0  0  0  0
   34.6220   28.2037   49.7339 O   0  0  0  0  0  0  0  0  0  0  0  0
   37.2333   30.1749   51.2985 C   0  0  0  0  0  0  0  0  0  0  0  0
   37.9053   30.6425   50.1455 C   0  0  0  0  0  0  0  0  0  0  0  0
   37.4106   30.2451   48.9079 C   0  0  0  0  0  0  0  0  0  0  0  0
   36.3145   29.4336   48.8758 N   0  0  0  0  0  0  0  0  0  0  0  0
   35.7014   29.0088   49.9985 C   0  0  0  0  0  0  0  0  0  0  0  0
   36.1740   29.3888   51.1950 N   0  0  0  0  0  0  0  0  0  0  0  0
   34.3015   28.8963   47.7767 H   0  0  0  0  0  0  0  0  0  0  0  0
   33.1146   29.4247   49.1038 H   0  0  0  0  0  0  0  0  0  0  0  0
   33.0995   27.0216   47.3626 H   0  0  0  0  0  0  0  0  0  0  0  0
   32.9485   26.6303   49.1094 H   0  0  0  0  0  0  0  0  0  0  0  0
   31.1088   27.3702   50.4802 H   0  0  0  0  0  0  0  0  0  0  0  0
   28.7792   28.0133   50.5505 H   0  0  0  0  0  0  0  0  0  0  0  0
   29.0307   29.0287   46.4498 H   0  0  0  0  0  0  0  0  0  0  0  0
   37.6418   30.5011   52.2455 H   0  0  0  0  0  0  0  0  0  0  0  0
   38.7798   31.2892   50.1392 H   0  0  0  0  0  0  0  0  0  0  0  0
   38.0606   30.6933   47.6275 C   0  0  0  0  0  0  0  0  0  0  0  0
   39.2525   31.5813   47.8767 C   0  0  0  0  0  0  0  0  0  0  0  0
   38.9971   32.6563   47.8651 H   0  0  0  0  0  0  0  0  0  0  0  0
   38.4266   29.7996   47.0807 H   0  0  0  0  0  0  0  0  0  0  0  0
   37.3243   31.1967   46.9693 H   0  0  0  0  0  0  0  0  0  0  0  0
   39.6844   31.2655   48.8709 H   0  0  0  0  0  0  0  0  0  0  0  0
   40.0231   31.3923   47.0968 H   0  0  0  0  0  0  0  0  0  0  0  0
  1  9  1  0
  2  1  1  0
  3  2  1  0
  3  4  2  0
  4  5  1  0
  6  5  2  0
  7  6  1  0
  8  7  2  0
  8  3  1  0
  9 14  1  0
 11 10  2  0
 12 11  1  0
 13 12  2  0
 13 14  1  0
 14 15  2  0
 15 10  1  0
  1 16  1  0
  1 17  1  0
  2 18  1  0
  2 19  1  0
  4 20  1  0
  5 21  1  0
  7 22  1  0
 10 23  1  0
 11 24  1  0
 25 26  1  0
 26 27  1  0
 25 28  1  0
 25 29  1  0
 26 30  1  0
 26 31  1  0
 12 25  1  0
M  ISO  8  16   8  17   8  18   8  19   8  20  14  21  14  22  14  23  14
M  ISO  2  24  14  27   8
M  END
>  <DihAtoms>  (1) 
10,11,24,25

>  <DihDeg>  (1) 
89.99985690382839

$$$$
