
     RDKit          3D

 31 32  0  0  0  0  0  0  0  0999 V2000
   36.9560   30.6390   48.4150 N   0  0  0  0  0  0  0  0  0  0  0  0
   35.9290   30.3980   47.4370 C   0  0  0  0  0  0  0  0  0  0  0  0
   34.5850   30.0740   47.9110 C   0  0  0  0  0  0  0  0  0  0  0  0
   34.4370   29.4290   49.2410 C   0  0  0  0  0  0  0  0  0  0  0  0
   35.6090   29.6390   50.1700 C   0  0  0  0  0  0  0  0  0  0  0  0
   36.9100   29.5700   49.3650 C   0  0  0  0  0  0  0  0  0  0  0  0
   37.8460   31.7390   48.4250 C   0  0  0  0  0  0  0  0  0  0  0  0
   38.0200   32.6130   49.4990 C   0  0  0  0  0  0  0  0  0  0  0  0
   38.9210   33.6600   49.4000 C   0  0  0  0  0  0  0  0  0  0  0  0
   39.6110   33.7840   48.2200 N   0  0  0  0  0  0  0  0  0  0  0  0
   39.4200   32.9220   47.2020 C   0  0  0  0  0  0  0  0  0  0  0  0
   38.5480   31.9190   47.3120 N   0  0  0  0  0  0  0  0  0  0  0  0
   34.0310   27.9730   49.1240 C   0  0  0  0  0  0  0  0  0  0  0  0
   32.6390   27.8380   48.5460 C   0  0  0  0  0  0  0  0  0  0  0  0
   36.2653   29.5580   46.8114 H   0  0  0  0  0  0  0  0  0  0  0  0
   35.8109   31.3633   46.9230 H   0  0  0  0  0  0  0  0  0  0  0  0
   34.0163   31.0151   47.9418 H   0  0  0  0  0  0  0  0  0  0  0  0
   34.2265   29.3130   47.2022 H   0  0  0  0  0  0  0  0  0  0  0  0
   33.6057   29.9584   49.7296 H   0  0  0  0  0  0  0  0  0  0  0  0
   35.5255   30.6252   50.6501 H   0  0  0  0  0  0  0  0  0  0  0  0
   35.6116   28.8568   50.9434 H   0  0  0  0  0  0  0  0  0  0  0  0
   36.9587   28.6082   48.8335 H   0  0  0  0  0  0  0  0  0  0  0  0
   37.7644   29.6609   50.0519 H   0  0  0  0  0  0  0  0  0  0  0  0
   37.4417   32.4703   50.4238 H   0  0  0  0  0  0  0  0  0  0  0  0
   39.0771   34.3626   50.2319 H   0  0  0  0  0  0  0  0  0  0  0  0
   39.9899   33.0471   46.2695 H   0  0  0  0  0  0  0  0  0  0  0  0
   34.7442   27.4533   48.4673 H   0  0  0  0  0  0  0  0  0  0  0  0
   34.0351   27.5282   50.1301 H   0  0  0  0  0  0  0  0  0  0  0  0
   31.9074   27.7671   49.3644 H   0  0  0  0  0  0  0  0  0  0  0  0
   32.4122   28.7184   47.9267 H   0  0  0  0  0  0  0  0  0  0  0  0
   32.5855   26.9305   47.9267 H   0  0  0  0  0  0  0  0  0  0  0  0
  1  7  1  0
  1  6  1  0
  2  3  1  0
  2  1  1  0
  3  4  1  0
  4  5  1  0
  6  5  1  0
  7  8  2  0
  9  8  1  0
 10  9  2  0
 11 12  2  0
 11 10  1  0
 12  7  1  0
 13  4  1  0
 14 13  1  0
  2 15  1  0
  2 16  1  0
  3 17  1  0
  3 18  1  0
  4 19  1  0
  5 20  1  0
  5 21  1  0
  6 22  1  0
  6 23  1  0
  8 24  1  0
  9 25  1  0
 11 26  1  0
 13 27  1  0
 13 28  1  0
 14 29  1  0
 14 30  1  0
 14 31  1  0
M  ISO  8  15  13  16  13  17  13  18  13  19  13  20  13  21  13  22  13
M  ISO  8  23  13  24  14  25  14  26  14  27   8  28   8  29   8  30   8
M  ISO  1  31   8
M  END
>  <minimizedAffinity>  (1) 
-4.88299465

>  <minimizedRMSD>  (1) 
5.71897459

$$$$
