
     RDKit          3D

 38 40  0  0  1  0  0  0  0  0999 V2000
   39.0160   32.4490   47.7050 C   0  0  2  0  0  0  0  0  0  0  0  0
   37.9650   32.6370   48.8470 C   0  0  2  0  0  0  0  0  0  0  0  0
   38.7550   33.3770   49.8180 C   0  0  0  0  0  0  0  0  0  0  0  0
   39.6020   34.2330   49.1300 O   0  0  0  0  0  0  0  0  0  0  0  0
   39.6080   33.8820   47.8170 C   0  0  0  0  0  0  0  0  0  0  0  0
   37.3280   29.3730   50.6150 C   0  0  0  0  0  0  0  0  0  0  0  0
   37.9570   30.6030   50.2830 C   0  0  0  0  0  0  0  0  0  0  0  0
   37.3790   31.3870   49.2450 C   0  0  0  0  0  0  0  0  0  0  0  0
   36.2370   30.9130   48.6140 N   0  0  0  0  0  0  0  0  0  0  0  0
   35.6950   29.7460   48.9760 C   0  0  0  0  0  0  0  0  0  0  0  0
   36.2140   28.9730   49.9560 N   0  0  0  0  0  0  0  0  0  0  0  0
   38.4370   32.3130   46.4900 O   0  0  0  0  0  0  0  0  0  0  0  0
   41.0890   31.9570   44.9650 Cl  0  0  0  0  0  0  0  0  0  0  0  0
   39.5720   31.1730   44.5720 C   0  0  0  0  0  0  0  0  0  0  0  0
   38.5230   31.4990   45.4200 C   0  0  0  0  0  0  0  0  0  0  0  0
   37.3240   30.8770   45.1270 C   0  0  0  0  0  0  0  0  0  0  0  0
   37.1890   29.9980   44.0670 C   0  0  0  0  0  0  0  0  0  0  0  0
   38.2700   29.7270   43.2740 C   0  0  0  0  0  0  0  0  0  0  0  0
   39.4840   30.3130   43.5160 C   0  0  0  0  0  0  0  0  0  0  0  0
   40.6320   29.9980   42.6320 C   0  0  0  0  0  0  0  0  0  0  0  0
   40.5470   28.5640   42.1320 C   0  0  0  0  0  0  0  0  0  0  0  0
   39.6817   31.5778   47.7935 H   0  0  0  0  0  0  0  0  0  0  0  0
   37.0437   33.1861   48.6026 H   0  0  0  0  0  0  0  0  0  0  0  0
   38.0896   33.9591   50.4725 H   0  0  0  0  0  0  0  0  0  0  0  0
   39.3407   32.6823   50.4379 H   0  0  0  0  0  0  0  0  0  0  0  0
   40.6383   33.8923   47.4317 H   0  0  0  0  0  0  0  0  0  0  0  0
   39.0097   34.5919   47.2270 H   0  0  0  0  0  0  0  0  0  0  0  0
   37.7481   28.7417   51.4119 H   0  0  0  0  0  0  0  0  0  0  0  0
   38.8616   30.9386   50.8112 H   0  0  0  0  0  0  0  0  0  0  0  0
   34.7898   29.4006   48.4552 H   0  0  0  0  0  0  0  0  0  0  0  0
   36.4477   31.0878   45.7576 H   0  0  0  0  0  0  0  0  0  0  0  0
   36.2192   29.5205   43.8635 H   0  0  0  0  0  0  0  0  0  0  0  0
   38.1629   29.0290   42.4306 H   0  0  0  0  0  0  0  0  0  0  0  0
   40.6229   30.6820   41.7706 H   0  0  0  0  0  0  0  0  0  0  0  0
   41.5633   30.1185   43.2048 H   0  0  0  0  0  0  0  0  0  0  0  0
   40.5063   27.8780   42.9909 H   0  0  0  0  0  0  0  0  0  0  0  0
   39.6400   28.4416   41.5217 H   0  0  0  0  0  0  0  0  0  0  0  0
   41.4332   28.3353   41.5217 H   0  0  0  0  0  0  0  0  0  0  0  0
  1  5  1  0
  1  2  1  0
  2  8  1  0
  2  3  1  0
  4  3  1  0
  5  4  1  0
  7  6  2  0
  8  7  1  0
  9 10  1  0
  9  8  2  0
 10 11  2  0
 11  6  1  0
 12  1  1  0
 14 13  1  0
 14 15  2  0
 15 12  1  0
 16 15  1  0
 17 16  2  0
 18 19  2  0
 18 17  1  0
 19 14  1  0
 20 19  1  0
 21 20  1  0
  1 22  1  1
  2 23  1  6
  3 24  1  0
  3 25  1  0
  5 26  1  0
  5 27  1  0
  6 28  1  0
  7 29  1  0
 10 30  1  0
 16 31  1  0
 17 32  1  0
 18 33  1  0
 20 34  1  0
 20 35  1  0
 21 36  1  0
 21 37  1  0
 21 38  1  0
M  ISO  8  22  13  23  13  24  13  25  13  26  13  27  13  28  14  29  14
M  ISO  8  30  14  31  14  32  14  33  14  34   8  35   8  36   8  37   8
M  ISO  1  38   8
M  END
>  <minimizedAffinity>  (1) 
-5.66716242

>  <minimizedRMSD>  (1) 
0.564744115

$$$$
