
     RDKit          3D

 40 42  0  0  1  0  0  0  0  0999 V2000
   32.1960   28.4600   47.5140 C   0  0  2  0  0  0  0  0  0  0  0  0
   33.4650   28.3610   48.3150 C   0  0  1  0  0  0  0  0  0  0  0  0
   33.9100   27.0770   48.2400 O   0  0  0  0  0  0  0  0  0  0  0  0
   33.2180   26.4040   47.2370 C   0  0  0  0  0  0  0  0  0  0  0  0
   32.5480   27.4490   46.3790 C   0  0  1  0  0  0  0  0  0  0  0  0
   32.0620   29.7440   46.9470 O   0  0  0  0  0  0  0  0  0  0  0  0
   34.7140   29.4410   47.4980 S   0  0  0  0  0  0  0  0  0  0  0  0
   37.2310   29.3500   50.5540 C   0  0  0  0  0  0  0  0  0  0  0  0
   37.7840   30.6340   50.6230 C   0  0  0  0  0  0  0  0  0  0  0  0
   37.3470   31.5560   49.6750 C   0  0  0  0  0  0  0  0  0  0  0  0
   36.4290   31.1770   48.7500 N   0  0  0  0  0  0  0  0  0  0  0  0
   35.9260   29.9200   48.7310 C   0  0  0  0  0  0  0  0  0  0  0  0
   36.3230   28.9930   49.6330 N   0  0  0  0  0  0  0  0  0  0  0  0
   31.4110   26.9070   45.8280 O   0  0  0  0  0  0  0  0  0  0  0  0
   29.8670   28.6510   44.0280 Cl  0  0  0  0  0  0  0  0  0  0  0  0
   29.3520   27.8870   45.5100 C   0  0  0  0  0  0  0  0  0  0  0  0
   30.1690   27.0770   46.2670 C   0  0  0  0  0  0  0  0  0  0  0  0
   29.6330   26.5010   47.4220 C   0  0  0  0  0  0  0  0  0  0  0  0
   28.3270   26.7400   47.7880 C   0  0  0  0  0  0  0  0  0  0  0  0
   27.4980   27.5530   47.0360 C   0  0  0  0  0  0  0  0  0  0  0  0
   28.0240   28.1310   45.8800 C   0  0  0  0  0  0  0  0  0  0  0  0
   27.1480   28.9980   45.0710 C   0  0  0  0  0  0  0  0  0  0  0  0
   25.9930   28.1650   44.5070 C   0  0  0  0  0  0  0  0  0  0  0  0
   31.2717   28.2733   48.0803 H   0  0  0  0  0  0  0  0  0  0  0  0
   33.3014   28.6568   49.3618 H   0  0  0  0  0  0  0  0  0  0  0  0
   33.9171   25.8098   46.6302 H   0  0  0  0  0  0  0  0  0  0  0  0
   32.4745   25.7176   47.6685 H   0  0  0  0  0  0  0  0  0  0  0  0
   33.1211   27.8622   45.5359 H   0  0  0  0  0  0  0  0  0  0  0  0
   31.9917   30.4178   47.6689 H   0  0  0  0  0  0  0  0  0  0  0  0
   37.5559   28.5988   51.2889 H   0  0  0  0  0  0  0  0  0  0  0  0
   38.5273   30.9017   51.3884 H   0  0  0  0  0  0  0  0  0  0  0  0
   37.7425   32.5825   49.6760 H   0  0  0  0  0  0  0  0  0  0  0  0
   30.2617   25.8490   48.0462 H   0  0  0  0  0  0  0  0  0  0  0  0
   27.9328   26.2722   48.7022 H   0  0  0  0  0  0  0  0  0  0  0  0
   26.4571   27.7380   47.3397 H   0  0  0  0  0  0  0  0  0  0  0  0
   26.7457   29.8047   45.7014 H   0  0  0  0  0  0  0  0  0  0  0  0
   27.7253   29.4358   44.2433 H   0  0  0  0  0  0  0  0  0  0  0  0
   25.4068   27.7422   45.3362 H   0  0  0  0  0  0  0  0  0  0  0  0
   25.3460   28.8057   43.8899 H   0  0  0  0  0  0  0  0  0  0  0  0
   26.3967   27.3488   43.8899 H   0  0  0  0  0  0  0  0  0  0  0  0
  1  2  1  0
  3  2  1  0
  4  3  1  0
  5  4  1  0
  5  1  1  0
  6  1  1  0
  7  2  1  0
  7 12  1  0
  8  9  2  0
 10  9  1  0
 11 10  2  0
 12 11  1  0
 12 13  2  0
 13  8  1  0
 14 17  1  0
 14  5  1  0
 15 16  1  0
 16 21  2  0
 16 17  1  0
 17 18  2  0
 18 19  1  0
 20 19  2  0
 21 20  1  0
 22 21  1  0
 23 22  1  0
  1 24  1  1
  2 25  1  1
  4 26  1  0
  4 27  1  0
  5 28  1  6
  6 29  1  0
  8 30  1  0
  9 31  1  0
 10 32  1  0
 18 33  1  0
 19 34  1  0
 20 35  1  0
 22 36  1  0
 22 37  1  0
 23 38  1  0
 23 39  1  0
 23 40  1  0
M  ISO  8  24  13  25  13  26  13  27  13  28  13  29   3  30  14  31  14
M  ISO  8  32  14  33  14  34  14  35  14  36   8  37   8  38   8  39   8
M  ISO  1  40   8
M  END
>  <minimizedAffinity>  (1) 
-4.68473816

>  <minimizedRMSD>  (1) 
0.438637793

$$$$
