
     RDKit          3D

 42 43  0  0  0  0  0  0  0  0999 V2000
   30.3900   26.1580   47.5030 O   0  0  0  0  0  0  0  0  0  0  0  0
   30.8480   27.6020   47.7570 P   0  0  2  0  0  0  0  0  0  0  0  0
   31.3360   28.3420   46.3130 O   0  0  0  0  0  0  0  0  0  0  0  0
   32.2090   27.4370   48.7710 O   0  0  0  0  0  0  0  0  0  0  0  0
   33.3400   27.2520   47.9630 C   0  0  0  0  0  0  0  0  0  0  0  0
   34.7480   28.3440   49.6600 C   0  0  0  0  0  0  0  0  0  0  0  0
   34.4870   28.0780   48.4090 C   0  0  0  0  0  0  0  0  0  0  0  0
   37.3450   30.2330   51.4220 C   0  0  0  0  0  0  0  0  0  0  0  0
   38.1210   30.7350   50.3580 C   0  0  0  0  0  0  0  0  0  0  0  0
   37.7320   30.4110   49.0450 C   0  0  0  0  0  0  0  0  0  0  0  0
   36.6130   29.6230   48.9430 N   0  0  0  0  0  0  0  0  0  0  0  0
   35.9100   29.1710   49.9610 C   0  0  0  0  0  0  0  0  0  0  0  0
   36.2890   29.4840   51.1970 N   0  0  0  0  0  0  0  0  0  0  0  0
   29.6210   28.4940   48.5030 O   0  0  0  0  0  0  0  0  0  0  0  0
   27.5180   28.6050   49.4260 C   0  0  0  0  0  0  0  0  0  0  0  0
   28.8190   28.0840   49.5450 C   0  0  0  0  0  0  0  0  0  0  0  0
   29.1910   27.2740   50.5860 C   0  0  0  0  0  0  0  0  0  0  0  0
   28.2610   26.9600   51.5490 C   0  0  0  0  0  0  0  0  0  0  0  0
   26.9980   27.4550   51.4480 C   0  0  0  0  0  0  0  0  0  0  0  0
   26.5860   28.2670   50.4230 C   0  0  0  0  0  0  0  0  0  0  0  0
   26.9730   29.6260   48.1240 S   0  0  0  0  0  0  0  0  0  0  0  0
   28.0790   29.8990   47.1640 O   0  0  0  0  0  0  0  0  0  0  0  0
   25.8160   28.9030   47.4190 O   0  0  0  0  0  0  0  0  0  0  0  0
   26.4120   31.1870   48.7340 C   0  0  0  0  0  0  0  0  0  0  0  0
   24.9020   31.1240   48.8400 C   0  0  0  0  0  0  0  0  0  0  0  0
   31.8690   29.1502   46.5201 H   0  0  0  0  0  0  0  0  0  0  0  0
   33.0857   27.5276   46.9289 H   0  0  0  0  0  0  0  0  0  0  0  0
   33.6368   26.1952   48.0338 H   0  0  0  0  0  0  0  0  0  0  0  0
   34.1082   27.9545   50.4655 H   0  0  0  0  0  0  0  0  0  0  0  0
   35.1575   28.4910   47.6409 H   0  0  0  0  0  0  0  0  0  0  0  0
   37.6279   30.4721   52.4578 H   0  0  0  0  0  0  0  0  0  0  0  0
   39.0048   31.3617   50.5483 H   0  0  0  0  0  0  0  0  0  0  0  0
   38.2857   30.7644   48.1627 H   0  0  0  0  0  0  0  0  0  0  0  0
   30.2166   26.8815   50.6501 H   0  0  0  0  0  0  0  0  0  0  0  0
   28.5364   26.3131   52.3950 H   0  0  0  0  0  0  0  0  0  0  0  0
   26.2698   27.1902   52.2288 H   0  0  0  0  0  0  0  0  0  0  0  0
   25.5535   28.6441   50.3817 H   0  0  0  0  0  0  0  0  0  0  0  0
   26.8494   31.3814   49.7244 H   0  0  0  0  0  0  0  0  0  0  0  0
   26.7173   31.9979   48.0563 H   0  0  0  0  0  0  0  0  0  0  0  0
   24.6091   31.1118   49.9002 H   0  0  0  0  0  0  0  0  0  0  0  0
   24.4629   32.0046   48.3484 H   0  0  0  0  0  0  0  0  0  0  0  0
   24.5377   30.2099   48.3484 H   0  0  0  0  0  0  0  0  0  0  0  0
  2  1  2  0
  2 14  1  0
  2  4  1  0
  3  2  1  0
  5  7  1  0
  5  4  1  0
  6 12  1  0
  7  6  2  0
  9  8  2  0
 10  9  1  0
 11 10  2  0
 11 12  1  0
 12 13  2  0
 13  8  1  0
 14 16  1  0
 15 16  2  0
 15 20  1  0
 16 17  1  0
 17 18  2  0
 19 18  1  0
 20 19  2  0
 21 24  1  0
 21 15  1  0
 22 21  2  0
 23 21  2  0
 24 25  1  0
  3 26  1  0
  5 27  1  0
  5 28  1  0
  6 29  1  0
  7 30  1  0
  8 31  1  0
  9 32  1  0
 10 33  1  0
 17 34  1  0
 18 35  1  0
 19 36  1  0
 20 37  1  0
 24 38  1  0
 24 39  1  0
 25 40  1  0
 25 41  1  0
 25 42  1  0
M  ISO  8  26   3  27   8  28   8  31  14  32  14  33  14  34  14  35  14
M  ISO  7  36  14  37  14  38   8  39   8  40   8  41   8  42   8
M  END
>  <minimizedAffinity>  (1) 
-6.480196

>  <minimizedRMSD>  (1) 
0.833853662

$$$$
