
     RDKit          3D

 30 32  0  0  0  0  0  0  0  0999 V2000
   36.8594   30.5365   46.9041 C   0  0  0  0  0  0  0  0  0  0  0  0
   37.5182   31.0332   48.0213 C   0  0  0  0  0  0  0  0  0  0  0  0
   38.5100   32.0010   47.9010 C   0  0  0  0  0  0  0  0  0  0  0  0
   38.7967   32.4337   46.6126 C   0  0  0  0  0  0  0  0  0  0  0  0
   39.7137   33.3612   46.2337 N   0  0  0  0  0  0  0  0  0  0  0  0
   39.6364   33.4493   44.9042 C   0  0  0  0  0  0  0  0  0  0  0  0
   38.7117   32.6200   44.4174 N   0  0  0  0  0  0  0  0  0  0  0  0
   38.1683   31.9691   45.4718 C   0  0  0  0  0  0  0  0  0  0  0  0
   37.1788   30.9991   45.6283 C   0  0  0  0  0  0  0  0  0  0  0  0
   37.3962   30.0648   51.6601 C   0  0  0  0  0  0  0  0  0  0  0  0
   37.8574   30.6081   50.4773 C   0  0  0  0  0  0  0  0  0  0  0  0
   37.1293   30.5020   49.3133 C   0  0  0  0  0  0  0  0  0  0  0  0
   35.9485   29.8399   49.4007 N   0  0  0  0  0  0  0  0  0  0  0  0
   35.4982   29.3075   50.5636 C   0  0  0  0  0  0  0  0  0  0  0  0
   36.2190   29.4218   51.6789 N   0  0  0  0  0  0  0  0  0  0  0  0
   40.4543   34.3250   44.1698 O   0  0  0  0  0  0  0  0  0  0  0  0
   36.0937   29.7958   46.9435 H   0  0  0  0  0  0  0  0  0  0  0  0
   39.0234   32.3888   48.7660 H   0  0  0  0  0  0  0  0  0  0  0  0
   40.3599   33.9041   46.8742 H   0  0  0  0  0  0  0  0  0  0  0  0
   36.6704   30.6178   44.7497 H   0  0  0  0  0  0  0  0  0  0  0  0
   38.0473   30.2065   52.5126 H   0  0  0  0  0  0  0  0  0  0  0  0
   38.8014   31.1324   50.4276 H   0  0  0  0  0  0  0  0  0  0  0  0
   34.5348   28.7834   50.5703 H   0  0  0  0  0  0  0  0  0  0  0  0
   40.3329   34.3811   42.7548 C   0  0  0  0  0  0  0  0  0  0  0  0
   41.7307   34.3753   42.1712 C   0  0  0  0  0  0  0  0  0  0  0  0
   42.5026   34.7130   42.9009 H   0  0  0  0  0  0  0  0  0  0  0  0
   39.8054   35.3189   42.4804 H   0  0  0  0  0  0  0  0  0  0  0  0
   39.8123   33.4644   42.4139 H   0  0  0  0  0  0  0  0  0  0  0  0
   41.7270   35.0924   41.3051 H   0  0  0  0  0  0  0  0  0  0  0  0
   42.0011   33.3705   41.7986 H   0  0  0  0  0  0  0  0  0  0  0  0
  1  2  2  0
  2 12  1  0
  3  2  1  0
  4  3  2  0
  5  4  1  0
  6  5  1  0
  7  6  2  0
  7  8  1  0
  8  9  2  0
  8  4  1  0
  9  1  1  0
 10 15  2  0
 11 10  1  0
 12 13  1  0
 12 11  2  0
 13 14  2  0
 14 15  1  0
 16  6  1  0
  1 17  1  0
  3 18  1  0
  5 19  1  0
  9 20  1  0
 10 21  1  0
 11 22  1  0
 14 23  1  0
 24 25  1  0
 25 26  1  0
 24 27  1  0
 24 28  1  0
 25 29  1  0
 25 30  1  0
 16 24  1  0
M  ISO  8  17  14  18  14  19   9  20  14  21  14  22  14  23  14  26   8
M  END
>  <DihAtoms>  (1) 
5,15,23,24

>  <DihDeg>  (1) 
179.9994429038384

$$$$
