
     RDKit          3D

 26 27  0  0  0  0  0  0  0  0999 V2000
   37.2305   29.1012   50.5654 Cl  0  0  0  0  0  0  0  0  0  0  0  0
   35.9510   29.1806   49.3838 C   0  0  0  0  0  0  0  0  0  0  0  0
   35.9430   30.2258   48.4781 C   0  0  0  0  0  0  0  0  0  0  0  0
   34.9522   30.3280   47.5343 C   0  0  0  0  0  0  0  0  0  0  0  0
   33.9356   29.3907   47.4635 C   0  0  0  0  0  0  0  0  0  0  0  0
   33.9277   28.3351   48.3645 C   0  0  0  0  0  0  0  0  0  0  0  0
   32.7016   27.0857   48.3767 Cl  0  0  0  0  0  0  0  0  0  0  0  0
   34.9398   28.2665   49.2979 C   0  0  0  0  0  0  0  0  0  0  0  0
   37.9737   33.1029   49.5080 C   0  0  0  0  0  0  0  0  0  0  0  0
   39.0019   33.1129   48.5671 C   0  0  0  0  0  0  0  0  0  0  0  0
   38.9816   32.1073   47.5668 C   0  0  0  0  0  0  0  0  0  0  0  0
   37.9650   31.1956   47.5837 N   0  0  0  0  0  0  0  0  0  0  0  0
   36.9933   31.2337   48.5207 C   0  0  0  0  0  0  0  0  0  0  0  0
   37.0063   32.1841   49.4717 N   0  0  0  0  0  0  0  0  0  0  0  0
   34.9227   31.1370   46.8122 H   0  0  0  0  0  0  0  0  0  0  0  0
   33.1458   29.4494   46.7302 H   0  0  0  0  0  0  0  0  0  0  0  0
   37.9581   33.8507   50.2845 H   0  0  0  0  0  0  0  0  0  0  0  0
   39.7573   33.8545   48.6202 H   0  0  0  0  0  0  0  0  0  0  0  0
   39.7662   32.0909   46.8219 H   0  0  0  0  0  0  0  0  0  0  0  0
   35.0240   27.1651   50.3210 C   0  0  0  0  0  0  0  0  0  0  0  0
   33.7284   26.3868   50.4084 C   0  0  0  0  0  0  0  0  0  0  0  0
   33.3302   26.5025   51.4582 H   0  0  0  0  0  0  0  0  0  0  0  0
   35.3734   27.5775   51.2659 H   0  0  0  0  0  0  0  0  0  0  0  0
   35.7985   26.4360   49.9512 H   0  0  0  0  0  0  0  0  0  0  0  0
   33.8771   25.2977   50.2657 H   0  0  0  0  0  0  0  0  0  0  0  0
   32.9979   26.7203   49.6423 H   0  0  0  0  0  0  0  0  0  0  0  0
  2  1  1  0
  3 13  1  0
  3  2  2  0
  4  3  1  0
  5  4  2  0
  5  6  1  0
  6  7  1  0
  6  8  2  0
  8  2  1  0
 10  9  2  0
 11 12  2  0
 11 10  1  0
 12 13  1  0
 13 14  2  0
 14  9  1  0
  4 15  1  0
  5 16  1  0
  9 17  1  0
 10 18  1  0
 11 19  1  0
 20 21  1  0
 21 22  1  0
 20 23  1  0
 20 24  1  0
 21 25  1  0
 21 26  1  0
  8 20  1  0
M  ISO  6  15  14  16  14  17  14  18  14  19  14  22   8
M  END
>  <DihAtoms>  (1) 
5,7,19,20

>  <DihDeg>  (1) 
-103.92742385547126

$$$$
