
     RDKit          3D

 45 47  0  0  0  0  0  0  0  0999 V2000
   34.7470   29.4020   48.7820 C   0  0  0  0  0  0  0  0  0  0  0  0
   37.4890   30.4650   48.4900 Cl  0  0  0  0  0  0  0  0  0  0  0  0
   36.3620   30.2930   47.1430 C   0  0  0  0  0  0  0  0  0  0  0  0
   36.7520   30.6660   45.8920 C   0  0  0  0  0  0  0  0  0  0  0  0
   35.8850   30.5350   44.8430 C   0  0  0  0  0  0  0  0  0  0  0  0
   34.6250   30.0230   45.0810 C   0  0  0  0  0  0  0  0  0  0  0  0
   34.2730   29.6550   46.3810 C   0  0  0  0  0  0  0  0  0  0  0  0
   35.1200   29.7770   47.4380 C   0  0  0  0  0  0  0  0  0  0  0  0
   39.7550   32.8180   45.9900 C   0  0  0  0  0  0  0  0  0  0  0  0
   40.6310   32.0990   45.1250 C   0  0  0  0  0  0  0  0  0  0  0  0
   40.1510   30.9180   44.5540 C   0  0  0  0  0  0  0  0  0  0  0  0
   38.8920   30.5110   44.8420 N   0  0  0  0  0  0  0  0  0  0  0  0
   38.0870   31.2070   45.6600 C   0  0  0  0  0  0  0  0  0  0  0  0
   38.5210   32.3500   46.2260 N   0  0  0  0  0  0  0  0  0  0  0  0
   41.0410   30.2370   43.7080 N   0  0  0  0  0  0  0  0  0  0  0  0
   34.0680   28.1330   49.0080 C   0  0  0  0  0  0  0  0  0  0  0  0
   32.7580   28.3100   49.3960 O   0  0  0  0  0  0  0  0  0  0  0  0
   32.4310   26.5360   47.4840 O   0  0  0  0  0  0  0  0  0  0  0  0
   31.7050   27.5370   48.3070 P   0  0  2  0  0  0  0  0  0  0  0  0
   31.0430   28.8140   47.3760 O   0  0  0  0  0  0  0  0  0  0  0  0
   30.4520   26.8070   49.1070 O   0  0  0  0  0  0  0  0  0  0  0  0
   28.0360   27.0220   48.3540 C   0  0  0  0  0  0  0  0  0  0  0  0
   29.1500   27.1400   49.1440 C   0  0  0  0  0  0  0  0  0  0  0  0
   28.9350   27.7930   50.3720 C   0  0  0  0  0  0  0  0  0  0  0  0
   27.6770   28.2840   50.7540 C   0  0  0  0  0  0  0  0  0  0  0  0
   26.6010   28.1290   49.9060 C   0  0  0  0  0  0  0  0  0  0  0  0
   26.7890   27.4920   48.6980 C   0  0  0  0  0  0  0  0  0  0  0  0
   28.4140   25.8360   46.1160 N   0  0  0  0  0  0  0  0  0  0  0  0
   28.2560   26.3640   47.1190 C   0  0  0  0  0  0  0  0  0  0  0  0
   34.0837   30.1926   49.1629 H   0  0  0  0  0  0  0  0  0  0  0  0
   35.7126   29.2742   49.2931 H   0  0  0  0  0  0  0  0  0  0  0  0
   36.1859   30.8322   43.8276 H   0  0  0  0  0  0  0  0  0  0  0  0
   33.9068   29.9064   44.2560 H   0  0  0  0  0  0  0  0  0  0  0  0
   33.2663   29.2485   46.5581 H   0  0  0  0  0  0  0  0  0  0  0  0
   40.0903   33.7533   46.4620 H   0  0  0  0  0  0  0  0  0  0  0  0
   41.6482   32.4612   44.9148 H   0  0  0  0  0  0  0  0  0  0  0  0
   41.9843   30.6154   43.5410 H   0  0  0  0  0  0  0  0  0  0  0  0
   40.7506   29.3590   43.2545 H   0  0  0  0  0  0  0  0  0  0  0  0
   34.0864   27.5495   48.0757 H   0  0  0  0  0  0  0  0  0  0  0  0
   34.5938   27.6061   49.8179 H   0  0  0  0  0  0  0  0  0  0  0  0
   30.6821   29.5102   47.9803 H   0  0  0  0  0  0  0  0  0  0  0  0
   29.7848   27.9234   51.0581 H   0  0  0  0  0  0  0  0  0  0  0  0
   27.5504   28.7889   51.7230 H   0  0  0  0  0  0  0  0  0  0  0  0
   25.6078   28.5078   50.1890 H   0  0  0  0  0  0  0  0  0  0  0  0
   25.9420   27.3593   48.0088 H   0  0  0  0  0  0  0  0  0  0  0  0
  1 16  1  0
  3  8  2  0
  3  2  1  0
  4  3  1  0
  5  6  1  0
  5  4  2  0
  6  7  2  0
  7  8  1  0
  8  1  1  0
  9 14  2  0
 10  9  1  0
 11 12  1  0
 11 10  2  0
 12 13  2  0
 13  4  1  0
 13 14  1  0
 15 11  1  0
 16 17  1  0
 19 18  2  0
 19 21  1  0
 19 17  1  0
 20 19  1  0
 21 23  1  0
 22 27  2  0
 22 23  1  0
 23 24  2  0
 24 25  1  0
 26 25  2  0
 27 26  1  0
 28 29  3  0
 29 22  1  0
  1 30  1  0
  1 31  1  0
  5 32  1  0
  6 33  1  0
  7 34  1  0
  9 35  1  0
 10 36  1  0
 15 37  1  0
 15 38  1  0
 16 39  1  0
 16 40  1  0
 20 41  1  0
 24 42  1  0
 25 43  1  0
 26 44  1  0
 27 45  1  0
M  ISO  8  30   8  31   8  32  14  33  14  34  14  35  14  36  14  39   8
M  ISO  6  40   8  41   3  42  14  43  14  44  14  45  14
M  END
>  <minimizedAffinity>  (1) 
-6.56021214

>  <minimizedRMSD>  (1) 
1.70730233

$$$$
