
     RDKit          3D

 32 34  0  0  0  0  0  0  0  0999 V2000
   38.3486   30.5951   47.0870 C   0  0  2  0  0  0  0  0  0  0  0  0
   36.9564   30.5605   47.5228 C   0  0  0  0  0  0  0  0  0  0  0  0
   38.0598   31.1392   48.4165 C   0  0  1  0  0  0  0  0  0  0  0  0
   40.6096   32.6907   45.0324 C   0  0  0  0  0  0  0  0  0  0  0  0
   39.7328   33.1801   44.0308 C   0  0  0  0  0  0  0  0  0  0  0  0
   38.3566   32.7637   44.0944 C   0  0  0  0  0  0  0  0  0  0  0  0
   37.9878   31.9366   45.1023 N   0  0  0  0  0  0  0  0  0  0  0  0
   38.8618   31.5045   46.0216 C   0  0  0  0  0  0  0  0  0  0  0  0
   40.1765   31.8615   46.0155 N   0  0  0  0  0  0  0  0  0  0  0  0
   37.7405   30.5202   50.7930 C   0  0  0  0  0  0  0  0  0  0  0  0
   36.7432   31.3270   50.8099 O   0  0  0  0  0  0  0  0  0  0  0  0
   38.4003   30.2911   49.5658 N   0  0  0  0  0  0  0  0  0  0  0  0
   38.9850   29.6549   47.1240 H   0  0  0  0  0  0  0  0  0  0  0  0
   36.1881   31.2332   47.1131 H   0  0  0  0  0  0  0  0  0  0  0  0
   36.5329   29.6026   47.8899 H   0  0  0  0  0  0  0  0  0  0  0  0
   37.7795   32.1679   48.6943 H   0  0  0  0  0  0  0  0  0  0  0  0
   41.6261   33.0491   44.9286 H   0  0  0  0  0  0  0  0  0  0  0  0
   40.0766   33.8388   43.2512 H   0  0  0  0  0  0  0  0  0  0  0  0
   37.6781   33.1224   43.3377 H   0  0  0  0  0  0  0  0  0  0  0  0
   39.1435   29.5739   49.2914 H   0  0  0  0  0  0  0  0  0  0  0  0
   38.3822   32.5488   53.5750 N   0  0  0  0  0  0  0  0  0  0  0  0
   38.6576   31.4675   53.2769 C   0  0  0  0  0  0  0  0  0  0  0  0
   38.9863   30.1265   52.9239 C   0  0  0  0  0  0  0  0  0  0  0  0
   38.5170   29.6470   51.7186 C   0  0  0  0  0  0  0  0  0  0  0  0
   38.7376   28.3744   51.2205 C   0  0  0  0  0  0  0  0  0  0  0  0
   38.3641   28.0170   50.2751 H   0  0  0  0  0  0  0  0  0  0  0  0
   39.4911   27.5074   51.9925 C   0  0  0  0  0  0  0  0  0  0  0  0
   39.7354   26.4748   51.7033 H   0  0  0  0  0  0  0  0  0  0  0  0
   39.9579   27.9891   53.1952 C   0  0  0  0  0  0  0  0  0  0  0  0
   39.7431   29.2501   53.6962 C   0  0  0  0  0  0  0  0  0  0  0  0
   40.5673   27.3348   53.8495 H   0  0  0  0  0  0  0  0  0  0  0  0
   40.1043   29.6363   54.6410 H   0  0  0  0  0  0  0  0  0  0  0  0
  1  2  1  0
  1  3  1  0
  2  3  1  0
  3 12  1  0
  4  9  2  0
  5  6  2  0
  5  4  1  0
  6  7  1  0
  7  8  2  0
  8  1  1  0
  9  8  1  0
 10 11  2  0
 12 10  1  0
  1 13  1  1
  2 14  1  0
  2 15  1  0
  3 16  1  1
  4 17  1  0
  5 18  1  0
  6 19  1  0
 12 20  1  0
 21 22  3  0
 22 23  1  0
 23 24  2  0
 24 25  1  0
 25 26  1  0
 25 27  2  0
 27 28  1  0
 27 29  1  0
 29 30  2  0
 30 23  1  0
 29 31  1  0
 30 32  1  0
 10 24  1  0
M  ISO  8  13  13  14  13  15  13  16  13  17  14  18  14  19  14  26  15
M  ISO  1  28  16
M  END
>  <DihAtoms>  (1) 
10,9,23,22

>  <DihDeg>  (1) 
-109.17420523367458

$$$$
