
     RDKit          3D

 39 41  0  0  0  0  0  0  0  0999 V2000
   38.5728   31.1554   49.1590 Cl  0  0  0  0  0  0  0  0  0  0  0  0
   37.2272   30.6655   48.1627 C   0  0  0  0  0  0  0  0  0  0  0  0
   37.3074   30.8054   46.8121 C   0  0  0  0  0  0  0  0  0  0  0  0
   36.2544   30.4231   46.0189 C   0  0  0  0  0  0  0  0  0  0  0  0
   35.1232   29.9005   46.5937 C   0  0  0  0  0  0  0  0  0  0  0  0
   35.0595   29.7656   47.9706 C   0  0  0  0  0  0  0  0  0  0  0  0
   36.1154   30.1457   48.8059 C   0  0  0  0  0  0  0  0  0  0  0  0
   40.0603   33.0685   45.8635 C   0  0  0  0  0  0  0  0  0  0  0  0
   40.7529   32.2778   44.9242 C   0  0  0  0  0  0  0  0  0  0  0  0
   40.2558   31.0111   44.6536 C   0  0  0  0  0  0  0  0  0  0  0  0
   39.1402   30.5965   45.2968 N   0  0  0  0  0  0  0  0  0  0  0  0
   38.4987   31.3577   46.1816 C   0  0  0  0  0  0  0  0  0  0  0  0
   38.9618   32.5881   46.4597 N   0  0  0  0  0  0  0  0  0  0  0  0
   40.9771   30.2434   43.7042 N   0  0  0  0  0  0  0  0  0  0  0  0
   36.0830   30.0178   50.2621 C   0  0  0  0  0  0  0  0  0  0  0  0
   35.0114   29.1928   50.8343 C   0  0  0  0  0  0  0  0  0  0  0  0
   36.3335   30.5396   44.9611 H   0  0  0  0  0  0  0  0  0  0  0  0
   34.3225   29.6128   45.9535 H   0  0  0  0  0  0  0  0  0  0  0  0
   34.1548   29.3478   48.4275 H   0  0  0  0  0  0  0  0  0  0  0  0
   40.4700   34.0401   46.0493 H   0  0  0  0  0  0  0  0  0  0  0  0
   41.6552   32.6373   44.4164 H   0  0  0  0  0  0  0  0  0  0  0  0
   40.4154   30.4105   42.8233 H   0  0  0  0  0  0  0  0  0  0  0  0
   41.8353   29.6770   43.8798 H   0  0  0  0  0  0  0  0  0  0  0  0
   35.9804   31.0678   50.6651 H   0  0  0  0  0  0  0  0  0  0  0  0
   37.0739   29.6337   50.5900 H   0  0  0  0  0  0  0  0  0  0  0  0
   35.0556   28.1604   50.4055 H   0  0  0  0  0  0  0  0  0  0  0  0
   34.0027   29.6101   50.5590 H   0  0  0  0  0  0  0  0  0  0  0  0
   32.9776   31.9186   51.7226 N   0  0  0  0  0  0  0  0  0  0  0  0
   33.5790   31.0934   52.2730 C   0  0  0  0  0  0  0  0  0  0  0  0
   34.2970   30.0783   52.9590 C   0  0  0  0  0  0  0  0  0  0  0  0
   35.0304   29.1020   52.2976 C   0  0  0  0  0  0  0  0  0  0  0  0
   35.7242   28.1206   52.9750 C   0  0  0  0  0  0  0  0  0  0  0  0
   36.2872   27.3741   52.3974 H   0  0  0  0  0  0  0  0  0  0  0  0
   35.6735   28.1289   54.3530 C   0  0  0  0  0  0  0  0  0  0  0  0
   36.2173   27.3590   54.8994 H   0  0  0  0  0  0  0  0  0  0  0  0
   34.9568   29.0807   55.0550 C   0  0  0  0  0  0  0  0  0  0  0  0
   34.2671   30.0581   54.3438 C   0  0  0  0  0  0  0  0  0  0  0  0
   34.9228   29.0794   56.1367 H   0  0  0  0  0  0  0  0  0  0  0  0
   33.7112   30.7941   54.9394 H   0  0  0  0  0  0  0  0  0  0  0  0
  2  7  2  0
  2  1  1  0
  3  2  1  0
  4  5  1  0
  4  3  2  0
  5  6  2  0
  6  7  1  0
  7 15  1  0
  8 13  2  0
  9  8  1  0
 10  9  2  0
 10 11  1  0
 11 12  2  0
 12 13  1  0
 12  3  1  0
 14 10  1  0
 15 16  1  0
  4 17  1  0
  5 18  1  0
  6 19  1  0
  8 20  1  0
  9 21  1  0
 14 22  1  0
 14 23  1  0
 15 24  1  0
 15 25  1  0
 16 26  1  0
 16 27  1  0
 28 29  3  0
 29 30  1  0
 30 31  2  0
 31 32  1  0
 32 33  1  0
 32 34  2  0
 34 35  1  0
 34 36  1  0
 36 37  2  0
 37 30  1  0
 36 38  1  0
 37 39  1  0
 16 31  1  0
M  ISO  8  17  14  18  14  19  14  20  14  21  14  24   8  25   8  26   8
M  ISO  3  27   8  33  15  35  16
M  END
>  <DihAtoms>  (1) 
14,15,30,29

>  <DihDeg>  (1) 
179.9967715694574

$$$$
