
     RDKit          3D

 35 37  0  0  0  0  0  0  0  0999 V2000
   37.9800   30.0740   47.3150 F   0  0  0  0  0  0  0  0  0  0  0  0
   38.3950   31.2950   47.7520 C   0  0  0  0  0  0  0  0  0  0  0  0
   37.9600   31.7680   48.9680 C   0  0  0  0  0  0  0  0  0  0  0  0
   38.4100   32.9950   49.3490 C   0  0  0  0  0  0  0  0  0  0  0  0
   39.2610   33.7600   48.5840 C   0  0  0  0  0  0  0  0  0  0  0  0
   39.6860   33.2670   47.3650 C   0  0  0  0  0  0  0  0  0  0  0  0
   39.2470   32.0190   46.9460 C   0  0  0  0  0  0  0  0  0  0  0  0
   36.5800   29.4690   51.6430 C   0  0  0  0  0  0  0  0  0  0  0  0
   37.4700   30.2800   50.9110 C   0  0  0  0  0  0  0  0  0  0  0  0
   37.0540   30.9160   49.7530 C   0  0  0  0  0  0  0  0  0  0  0  0
   35.7660   30.7240   49.3620 N   0  0  0  0  0  0  0  0  0  0  0  0
   34.9270   29.9470   50.0700 C   0  0  0  0  0  0  0  0  0  0  0  0
   35.3160   29.3300   51.1850 N   0  0  0  0  0  0  0  0  0  0  0  0
   38.7890   31.8030   44.5960 C   0  0  0  0  0  0  0  0  0  0  0  0
   37.7720   32.5260   44.9110 O   0  0  0  0  0  0  0  0  0  0  0  0
   39.6660   31.4740   45.6920 N   0  0  0  0  0  0  0  0  0  0  0  0
   37.9790   30.5060   42.7670 C   0  0  0  0  0  0  0  0  0  0  0  0
   38.9080   31.4240   43.1960 C   0  0  0  0  0  0  0  0  0  0  0  0
   39.8850   31.9580   42.3880 C   0  0  0  0  0  0  0  0  0  0  0  0
   39.8610   31.4830   41.0740 C   0  0  0  0  0  0  0  0  0  0  0  0
   38.9500   30.5710   40.6200 C   0  0  0  0  0  0  0  0  0  0  0  0
   37.9700   30.0470   41.4620 C   0  0  0  0  0  0  0  0  0  0  0  0
   36.1200   29.5050   44.2990 N   0  0  0  0  0  0  0  0  0  0  0  0
   36.9510   29.9440   43.6300 C   0  0  0  0  0  0  0  0  0  0  0  0
   38.0765   33.3956   50.3177 H   0  0  0  0  0  0  0  0  0  0  0  0
   39.5968   34.7463   48.9367 H   0  0  0  0  0  0  0  0  0  0  0  0
   40.3654   33.8579   46.7332 H   0  0  0  0  0  0  0  0  0  0  0  0
   36.9056   28.9621   52.5634 H   0  0  0  0  0  0  0  0  0  0  0  0
   38.5043   30.4091   51.2624 H   0  0  0  0  0  0  0  0  0  0  0  0
   33.8925   29.8175   49.7193 H   0  0  0  0  0  0  0  0  0  0  0  0
   40.5144   30.9004   45.5822 H   0  0  0  0  0  0  0  0  0  0  0  0
   40.6204   32.6941   42.7449 H   0  0  0  0  0  0  0  0  0  0  0  0
   40.6145   31.8629   40.3684 H   0  0  0  0  0  0  0  0  0  0  0  0
   38.9907   30.2442   39.5705 H   0  0  0  0  0  0  0  0  0  0  0  0
   37.2324   29.3112   41.1091 H   0  0  0  0  0  0  0  0  0  0  0  0
  1  2  1  0
  2  3  2  0
  3  4  1  0
  3 10  1  0
  5  4  2  0
  6  5  1  0
  7  6  2  0
  7  2  1  0
  9  8  2  0
 10  9  1  0
 11 10  2  0
 11 12  1  0
 12 13  2  0
 13  8  1  0
 14 15  2  0
 14 16  1  0
 16  7  1  0
 17 18  2  0
 17 24  1  0
 18 14  1  0
 19 18  1  0
 20 19  2  0
 21 20  1  0
 21 22  2  0
 22 17  1  0
 24 23  3  0
  4 25  1  0
  5 26  1  0
  6 27  1  0
  8 28  1  0
  9 29  1  0
 12 30  1  0
 16 31  1  0
 19 32  1  0
 20 33  1  0
 21 34  1  0
 22 35  1  0
M  ISO  8  25  14  26  14  27  14  28  14  29  14  30  14  32  14  33  14
M  ISO  2  34  14  35  14
M  END
>  <minimizedAffinity>  (1) 
-6.14115763

>  <minimizedRMSD>  (1) 
1.51023185

$$$$
