
     RDKit          3D

 45 47  0  0  0  0  0  0  0  0999 V2000
   37.6489   30.4474   48.5182 Cl  0  0  0  0  0  0  0  0  0  0  0  0
   36.4809   30.3038   47.2031 C   0  0  0  0  0  0  0  0  0  0  0  0
   36.8363   30.6924   45.9466 C   0  0  0  0  0  0  0  0  0  0  0  0
   35.9367   30.5832   44.9220 C   0  0  0  0  0  0  0  0  0  0  0  0
   34.6809   30.0774   45.1905 C   0  0  0  0  0  0  0  0  0  0  0  0
   34.3651   29.6931   46.4945 C   0  0  0  0  0  0  0  0  0  0  0  0
   35.2437   29.7931   47.5284 C   0  0  0  0  0  0  0  0  0  0  0  0
   39.8502   32.8301   45.9688 C   0  0  0  0  0  0  0  0  0  0  0  0
   40.7031   32.1041   45.0872 C   0  0  0  0  0  0  0  0  0  0  0  0
   40.2053   30.9232   44.5313 C   0  0  0  0  0  0  0  0  0  0  0  0
   38.9509   30.5235   44.8490 N   0  0  0  0  0  0  0  0  0  0  0  0
   38.1681   31.2255   45.6820 C   0  0  0  0  0  0  0  0  0  0  0  0
   38.6198   32.3691   46.2344 N   0  0  0  0  0  0  0  0  0  0  0  0
   41.0724   30.2348   43.6674 N   0  0  0  0  0  0  0  0  0  0  0  0
   34.9083   29.4008   48.8773 C   0  0  0  0  0  0  0  0  0  0  0  0
   34.1983   28.1495   49.1015 C   0  0  0  0  0  0  0  0  0  0  0  0
   32.8746   28.3565   49.4246 O   0  0  0  0  0  0  0  0  0  0  0  0
   32.6381   26.6023   47.4833 O   0  0  0  0  0  0  0  0  0  0  0  0
   31.8604   27.5383   48.3333 P   0  0  2  0  0  0  0  0  0  0  0  0
   31.1053   28.7869   47.4353 O   0  0  0  0  0  0  0  0  0  0  0  0
   30.6667   26.7140   49.1332 O   0  0  0  0  0  0  0  0  0  0  0  0
   36.2631   30.9066   43.9285 H   0  0  0  0  0  0  0  0  0  0  0  0
   34.0469   30.0338   44.3081 H   0  0  0  0  0  0  0  0  0  0  0  0
   33.3929   29.3462   46.4903 H   0  0  0  0  0  0  0  0  0  0  0  0
   40.2086   33.7436   46.4111 H   0  0  0  0  0  0  0  0  0  0  0  0
   41.6880   32.5062   44.8966 H   0  0  0  0  0  0  0  0  0  0  0  0
   41.0265   30.2076   42.6095 H   0  0  0  0  0  0  0  0  0  0  0  0
   41.7414   29.7795   44.3179 H   0  0  0  0  0  0  0  0  0  0  0  0
   34.2921   30.2427   49.3136 H   0  0  0  0  0  0  0  0  0  0  0  0
   35.8313   29.4114   49.4924 H   0  0  0  0  0  0  0  0  0  0  0  0
   34.2817   27.4829   48.2090 H   0  0  0  0  0  0  0  0  0  0  0  0
   34.6372   27.5484   49.9330 H   0  0  0  0  0  0  0  0  0  0  0  0
   31.0643   29.6302   47.9335 H   0  0  0  0  0  0  0  0  0  0  0  0
   27.8245   28.7360   47.7655 N   0  0  0  0  0  0  0  0  0  0  0  0
   28.0967   27.6324   47.9008 C   0  0  0  0  0  0  0  0  0  0  0  0
   28.4117   26.2610   48.0578 C   0  0  0  0  0  0  0  0  0  0  0  0
   29.6276   26.0180   48.6399 C   0  0  0  0  0  0  0  0  0  0  0  0
   29.9435   24.6557   48.7971 C   0  0  0  0  0  0  0  0  0  0  0  0
   30.8370   24.1726   49.2263 H   0  0  0  0  0  0  0  0  0  0  0  0
   29.0783   23.6293   48.3885 C   0  0  0  0  0  0  0  0  0  0  0  0
   29.2344   22.5701   48.4679 H   0  0  0  0  0  0  0  0  0  0  0  0
   27.8686   23.9507   47.8090 C   0  0  0  0  0  0  0  0  0  0  0  0
   27.5401   25.2796   47.6459 C   0  0  0  0  0  0  0  0  0  0  0  0
   27.1101   23.2690   47.4497 H   0  0  0  0  0  0  0  0  0  0  0  0
   26.6155   25.6210   47.2025 H   0  0  0  0  0  0  0  0  0  0  0  0
  2  7  2  0
  2  1  1  0
  3  2  1  0
  4  5  1  0
  4  3  2  0
  5  6  2  0
  6  7  1  0
  7 15  1  0
  8 13  2  0
  9  8  1  0
 10 11  1  0
 10  9  2  0
 11 12  2  0
 12  3  1  0
 12 13  1  0
 14 10  1  0
 15 16  1  0
 16 17  1  0
 18 19  2  0
 19 21  1  1
 19 17  1  0
 20 19  1  0
  4 22  1  0
  5 23  1  0
  6 24  1  0
  8 25  1  0
  9 26  1  0
 14 27  1  0
 14 28  1  0
 15 29  1  0
 15 30  1  0
 16 31  1  0
 16 32  1  0
 20 33  1  0
 34 35  3  0
 35 36  1  0
 36 37  2  0
 37 38  1  0
 38 39  1  0
 38 40  2  0
 40 41  1  0
 40 42  1  0
 42 43  2  0
 43 36  1  0
 42 44  1  0
 43 45  1  0
 21 37  1  0
M  ISO  8  22  14  23  14  24  14  25  14  26  14  29   8  30   8  31   8
M  ISO  4  32   8  33   3  39  15  41  16
M  END
>  <DihAtoms>  (1) 
18,20,36,35

>  <DihDeg>  (1) 
0.011092337809824776

$$$$
