
     RDKit          3D

 29 31  0  0  0  0  0  0  0  0999 V2000
   37.5168   31.4043   49.3267 C   0  0  0  0  0  0  0  0  0  0  0  0
   38.1595   32.6399   49.4116 C   0  0  0  0  0  0  0  0  0  0  0  0
   38.9572   32.9754   48.3083 C   0  0  0  0  0  0  0  0  0  0  0  0
   39.0691   32.1137   47.2365 N   0  0  0  0  0  0  0  0  0  0  0  0
   38.4161   30.9230   47.2160 C   0  0  0  0  0  0  0  0  0  0  0  0
   37.6341   30.5767   48.2807 N   0  0  0  0  0  0  0  0  0  0  0  0
   36.6309   31.0345   50.4852 C   0  0  1  0  0  0  0  0  0  0  0  0
   36.1410   29.6840   50.6591 C   0  0  2  0  0  0  0  0  0  0  0  0
   37.3366   30.1107   51.4846 C   0  0  0  0  0  0  0  0  0  0  0  0
   36.4147   28.7259   49.6705 O   0  0  0  0  0  0  0  0  0  0  0  0
   38.0658   33.3087   50.2554 H   0  0  0  0  0  0  0  0  0  0  0  0
   39.4722   33.9210   48.3316 H   0  0  0  0  0  0  0  0  0  0  0  0
   38.5575   30.3071   46.3388 H   0  0  0  0  0  0  0  0  0  0  0  0
   36.1955   31.9433   50.9837 H   0  0  0  0  0  0  0  0  0  0  0  0
   35.1618   29.5437   51.1610 H   0  0  0  0  0  0  0  0  0  0  0  0
   38.3202   29.7062   51.2463 H   0  0  0  0  0  0  0  0  0  0  0  0
   37.1022   30.2353   52.5601 H   0  0  0  0  0  0  0  0  0  0  0  0
   36.8909   26.5608   52.4055 N   0  0  0  0  0  0  0  0  0  0  0  0
   36.2981   26.5723   51.3991 C   0  0  0  0  0  0  0  0  0  0  0  0
   35.5637   26.6021   50.1681 C   0  0  0  0  0  0  0  0  0  0  0  0
   35.6171   27.6844   49.2909 C   0  0  0  0  0  0  0  0  0  0  0  0
   34.8574   27.5743   48.1432 C   0  0  0  0  0  0  0  0  0  0  0  0
   34.9027   28.4116   47.4710 H   0  0  0  0  0  0  0  0  0  0  0  0
   34.0947   26.4648   47.8814 C   0  0  0  0  0  0  0  0  0  0  0  0
   33.5383   26.4796   46.9557 H   0  0  0  0  0  0  0  0  0  0  0  0
   34.0292   25.3864   48.7354 C   0  0  0  0  0  0  0  0  0  0  0  0
   34.7925   25.4933   49.8921 C   0  0  0  0  0  0  0  0  0  0  0  0
   33.4152   24.5608   48.4646 H   0  0  0  0  0  0  0  0  0  0  0  0
   34.7328   24.6305   50.5634 H   0  0  0  0  0  0  0  0  0  0  0  0
  1  2  2  0
  1  7  1  0
  3  2  1  0
  4  3  2  0
  5  4  1  0
  5  6  2  0
  6  1  1  0
  7  8  1  0
  7  9  1  0
  8  9  1  0
 10  8  1  0
  2 11  1  0
  3 12  1  0
  5 13  1  0
  7 14  1  1
  8 15  1  1
  9 16  1  0
  9 17  1  0
 18 19  3  0
 19 20  1  0
 20 21  2  0
 21 22  1  0
 22 23  1  0
 22 24  2  0
 24 25  1  0
 24 26  1  0
 26 27  2  0
 27 20  1  0
 26 28  1  0
 27 29  1  0
 10 21  1  0
M  ISO  8  11  14  12  14  13  14  14  13  15  13  16  13  17  13  23  15
M  ISO  1  25  16
M  END
>  <DihAtoms>  (1) 
7,9,20,19

>  <DihDeg>  (1) 
179.99753313293166

$$$$
