
     RDKit          3D

 31 33  0  0  0  0  0  0  0  0999 V2000
   37.4530   31.4470   49.5160 C   0  0  0  0  0  0  0  0  0  0  0  0
   37.9290   32.7120   49.8630 C   0  0  0  0  0  0  0  0  0  0  0  0
   38.7250   33.3210   48.9290 C   0  0  0  0  0  0  0  0  0  0  0  0
   39.0170   32.7000   47.7330 N   0  0  0  0  0  0  0  0  0  0  0  0
   38.5190   31.4510   47.4420 C   0  0  0  0  0  0  0  0  0  0  0  0
   37.7310   30.8400   48.3640 N   0  0  0  0  0  0  0  0  0  0  0  0
   36.5440   30.7330   50.4860 C   0  0  0  0  0  0  0  0  0  0  0  0
   36.4450   29.2980   50.5660 C   0  0  0  0  0  0  0  0  0  0  0  0
   37.3290   29.9980   51.5780 C   0  0  0  0  0  0  0  0  0  0  0  0
   38.8040   30.7920   46.1810 C   0  0  0  0  0  0  0  0  0  0  0  0
   38.0280   32.1500   44.2270 C   0  0  0  0  0  0  0  0  0  0  0  0
   37.8070   31.1150   45.1040 C   0  0  0  0  0  0  0  0  0  0  0  0
   36.6400   30.3540   44.9760 C   0  0  0  0  0  0  0  0  0  0  0  0
   35.7430   30.6600   43.9750 C   0  0  0  0  0  0  0  0  0  0  0  0
   35.9620   31.6950   43.0970 C   0  0  0  0  0  0  0  0  0  0  0  0
   37.1100   32.4530   43.2130 C   0  0  0  0  0  0  0  0  0  0  0  0
   40.1490   33.6530   44.3600 N   0  0  0  0  0  0  0  0  0  0  0  0
   39.2030   32.9910   44.2950 C   0  0  0  0  0  0  0  0  0  0  0  0
   37.6815   33.1887   50.8230 H   0  0  0  0  0  0  0  0  0  0  0  0
   39.1371   34.3196   49.1361 H   0  0  0  0  0  0  0  0  0  0  0  0
   35.7528   31.4913   50.3913 H   0  0  0  0  0  0  0  0  0  0  0  0
   35.5026   28.8360   50.8954 H   0  0  0  0  0  0  0  0  0  0  0  0
   36.6061   28.4805   49.8479 H   0  0  0  0  0  0  0  0  0  0  0  0
   38.4240   29.9123   51.5186 H   0  0  0  0  0  0  0  0  0  0  0  0
   37.4055   30.0441   52.6744 H   0  0  0  0  0  0  0  0  0  0  0  0
   39.8012   31.1070   45.8398 H   0  0  0  0  0  0  0  0  0  0  0  0
   38.7510   29.7080   46.3601 H   0  0  0  0  0  0  0  0  0  0  0  0
   36.4405   29.5210   45.6662 H   0  0  0  0  0  0  0  0  0  0  0  0
   34.8267   30.0595   43.8760 H   0  0  0  0  0  0  0  0  0  0  0  0
   35.2283   31.9174   42.3082 H   0  0  0  0  0  0  0  0  0  0  0  0
   37.3014   33.2841   42.5183 H   0  0  0  0  0  0  0  0  0  0  0  0
  1  2  2  0
  1  7  1  0
  3  2  1  0
  4  3  2  0
  5  4  1  0
  5  6  2  0
  6  1  1  0
  7  8  1  0
  7  9  1  0
  8  9  1  0
 10  5  1  0
 11 18  1  0
 11 12  2  0
 12 10  1  0
 13 12  1  0
 14 13  2  0
 15 16  2  0
 15 14  1  0
 16 11  1  0
 18 17  3  0
  2 19  1  0
  3 20  1  0
  7 21  1  0
  8 22  1  0
  8 23  1  0
  9 24  1  0
  9 25  1  0
 10 26  1  0
 10 27  1  0
 13 28  1  0
 14 29  1  0
 15 30  1  0
 16 31  1  0
M  ISO  8  19  14  20  14  21  13  22  13  23  13  24  13  25  13  26   8
M  ISO  5  27   8  28  14  29  14  30  14  31  14
M  END
>  <minimizedAffinity>  (1) 
-5.45583487

>  <minimizedRMSD>  (1) 
0.755163252

$$$$
