
     RDKit          3D

 32 34  0  0  0  0  0  0  0  0999 V2000
   38.3486   30.5951   47.0870 C   0  0  2  0  0  0  0  0  0  0  0  0
   36.9564   30.5605   47.5228 C   0  0  0  0  0  0  0  0  0  0  0  0
   38.0598   31.1392   48.4165 C   0  0  1  0  0  0  0  0  0  0  0  0
   40.6096   32.6907   45.0324 C   0  0  0  0  0  0  0  0  0  0  0  0
   39.7328   33.1801   44.0308 C   0  0  0  0  0  0  0  0  0  0  0  0
   38.3566   32.7637   44.0944 C   0  0  0  0  0  0  0  0  0  0  0  0
   37.9878   31.9366   45.1023 N   0  0  0  0  0  0  0  0  0  0  0  0
   38.8618   31.5045   46.0216 C   0  0  0  0  0  0  0  0  0  0  0  0
   40.1765   31.8615   46.0155 N   0  0  0  0  0  0  0  0  0  0  0  0
   37.7405   30.5202   50.7930 C   0  0  0  0  0  0  0  0  0  0  0  0
   36.7432   31.3270   50.8099 O   0  0  0  0  0  0  0  0  0  0  0  0
   38.4003   30.2911   49.5658 N   0  0  0  0  0  0  0  0  0  0  0  0
   38.9850   29.6549   47.1240 H   0  0  0  0  0  0  0  0  0  0  0  0
   36.1881   31.2332   47.1131 H   0  0  0  0  0  0  0  0  0  0  0  0
   36.5329   29.6026   47.8899 H   0  0  0  0  0  0  0  0  0  0  0  0
   37.7795   32.1679   48.6943 H   0  0  0  0  0  0  0  0  0  0  0  0
   41.6261   33.0491   44.9286 H   0  0  0  0  0  0  0  0  0  0  0  0
   40.0766   33.8388   43.2512 H   0  0  0  0  0  0  0  0  0  0  0  0
   37.6781   33.1224   43.3377 H   0  0  0  0  0  0  0  0  0  0  0  0
   39.1435   29.5739   49.2914 H   0  0  0  0  0  0  0  0  0  0  0  0
   40.7910   32.1886   51.2145 N   0  0  0  0  0  0  0  0  0  0  0  0
   40.3501   31.1921   51.5972 C   0  0  0  0  0  0  0  0  0  0  0  0
   39.8064   29.9695   52.0879 C   0  0  0  0  0  0  0  0  0  0  0  0
   38.5170   29.6470   51.7186 C   0  0  0  0  0  0  0  0  0  0  0  0
   37.8338   28.5061   52.1028 C   0  0  0  0  0  0  0  0  0  0  0  0
   36.8263   28.2692   51.8032 H   0  0  0  0  0  0  0  0  0  0  0  0
   38.4953   27.6114   52.9260 C   0  0  0  0  0  0  0  0  0  0  0  0
   38.0594   26.6715   53.2949 H   0  0  0  0  0  0  0  0  0  0  0  0
   39.7822   27.9365   53.2930 C   0  0  0  0  0  0  0  0  0  0  0  0
   40.4666   29.0665   52.9162 C   0  0  0  0  0  0  0  0  0  0  0  0
   40.3553   27.2527   53.9499 H   0  0  0  0  0  0  0  0  0  0  0  0
   41.4769   29.3310   53.2014 H   0  0  0  0  0  0  0  0  0  0  0  0
  1  2  1  0
  1  3  1  0
  2  3  1  0
  3 12  1  0
  4  9  2  0
  5  6  2  0
  5  4  1  0
  6  7  1  0
  7  8  2  0
  8  1  1  0
  9  8  1  0
 10 11  2  0
 12 10  1  0
  1 13  1  1
  2 14  1  0
  2 15  1  0
  3 16  1  1
  4 17  1  0
  5 18  1  0
  6 19  1  0
 12 20  1  0
 21 22  3  0
 22 23  1  0
 23 24  2  0
 24 25  1  0
 25 26  1  0
 25 27  2  0
 27 28  1  0
 27 29  1  0
 29 30  2  0
 30 23  1  0
 29 31  1  0
 30 32  1  0
 10 24  1  0
M  ISO  8  13  13  14  13  15  13  16  13  17  14  18  14  19  14  26  15
M  ISO  1  28  16
M  END
>  <DihAtoms>  (1) 
10,9,23,22

>  <DihDeg>  (1) 
-109.17420523367458

$$$$
