
     RDKit          3D

 35 38  0  0  0  0  0  0  0  0999 V2000
   36.8563   30.5397   46.9002 C   0  0  0  0  0  0  0  0  0  0  0  0
   37.5216   31.0336   48.0250 C   0  0  0  0  0  0  0  0  0  0  0  0
   38.5198   32.0021   47.9106 C   0  0  0  0  0  0  0  0  0  0  0  0
   38.7965   32.4308   46.6080 C   0  0  0  0  0  0  0  0  0  0  0  0
   39.7182   33.3596   46.2293 N   0  0  0  0  0  0  0  0  0  0  0  0
   39.6345   33.4480   44.8948 C   0  0  0  0  0  0  0  0  0  0  0  0
   38.7115   32.6257   44.4211 N   0  0  0  0  0  0  0  0  0  0  0  0
   38.1643   31.9699   45.4735 C   0  0  0  0  0  0  0  0  0  0  0  0
   37.1704   31.0005   45.6272 C   0  0  0  0  0  0  0  0  0  0  0  0
   37.3911   30.0697   51.6640 C   0  0  0  0  0  0  0  0  0  0  0  0
   37.8757   30.6254   50.4849 C   0  0  0  0  0  0  0  0  0  0  0  0
   37.1391   30.5037   49.3277 C   0  0  0  0  0  0  0  0  0  0  0  0
   35.9504   29.8320   49.3995 N   0  0  0  0  0  0  0  0  0  0  0  0
   35.4885   29.2962   50.5484 C   0  0  0  0  0  0  0  0  0  0  0  0
   36.2101   29.4186   51.6690 N   0  0  0  0  0  0  0  0  0  0  0  0
   40.4481   34.3165   44.1749 O   0  0  0  0  0  0  0  0  0  0  0  0
   36.0770   29.7855   46.9751 H   0  0  0  0  0  0  0  0  0  0  0  0
   39.0338   32.3855   48.7647 H   0  0  0  0  0  0  0  0  0  0  0  0
   40.3641   33.8949   46.8789 H   0  0  0  0  0  0  0  0  0  0  0  0
   36.6829   30.6451   44.7523 H   0  0  0  0  0  0  0  0  0  0  0  0
   38.0615   30.2339   52.4991 H   0  0  0  0  0  0  0  0  0  0  0  0
   38.8188   31.1631   50.4084 H   0  0  0  0  0  0  0  0  0  0  0  0
   34.5484   28.7653   50.6041 H   0  0  0  0  0  0  0  0  0  0  0  0
   43.7579   33.4554   43.0989 N   0  0  0  0  0  0  0  0  0  0  0  0
   42.7650   33.7883   42.6103 C   0  0  0  0  0  0  0  0  0  0  0  0
   41.5264   34.2198   42.0074 C   0  0  0  0  0  0  0  0  0  0  0  0
   40.4236   34.4646   42.8160 C   0  0  0  0  0  0  0  0  0  0  0  0
   39.3056   34.8704   42.1136 C   0  0  0  0  0  0  0  0  0  0  0  0
   38.4037   35.0776   42.7072 H   0  0  0  0  0  0  0  0  0  0  0  0
   39.2433   35.0307   40.7456 C   0  0  0  0  0  0  0  0  0  0  0  0
   38.2960   35.3568   40.3225 H   0  0  0  0  0  0  0  0  0  0  0  0
   40.3730   34.7708   40.0054 C   0  0  0  0  0  0  0  0  0  0  0  0
   41.5235   34.3628   40.6351 C   0  0  0  0  0  0  0  0  0  0  0  0
   40.3393   34.8920   38.9320 H   0  0  0  0  0  0  0  0  0  0  0  0
   42.4126   34.1585   40.0505 H   0  0  0  0  0  0  0  0  0  0  0  0
  1  2  2  0
  2 12  1  0
  3  2  1  0
  4  3  2  0
  5  4  1  0
  6  5  1  0
  7  6  2  0
  7  8  1  0
  8  9  2  0
  8  4  1  0
  9  1  1  0
 10 15  2  0
 11 10  1  0
 12 13  1  0
 12 11  2  0
 13 14  2  0
 14 15  1  0
 16  6  1  0
  1 17  1  0
  3 18  1  0
  5 19  1  0
  9 20  1  0
 10 21  1  0
 11 22  1  0
 14 23  1  0
 24 25  3  0
 25 26  1  0
 26 27  2  0
 27 28  1  0
 28 29  1  0
 28 30  2  0
 30 31  1  0
 30 32  1  0
 32 33  2  0
 33 26  1  0
 32 34  1  0
 33 35  1  0
 16 27  1  0
M  ISO  8  17  14  18  14  19   9  20  14  21  14  22  14  23  14  29  15
M  ISO  1  31  16
M  END
>  <DihAtoms>  (1) 
5,15,26,25

>  <DihDeg>  (1) 
60.00011639359758

$$$$
