
     RDKit          3D

 43 46  0  0  0  0  0  0  0  0999 V2000
   38.9529   32.3688   47.7908 C   0  0  2  0  0  0  0  0  0  0  0  0
   38.0035   32.7450   48.9736 C   0  0  2  0  0  0  0  0  0  0  0  0
   38.8956   33.5459   49.7979 C   0  0  0  0  0  0  0  0  0  0  0  0
   39.7311   34.2685   48.9573 O   0  0  0  0  0  0  0  0  0  0  0  0
   39.6241   33.7681   47.7045 C   0  0  0  0  0  0  0  0  0  0  0  0
   37.3628   29.6986   51.0861 C   0  0  0  0  0  0  0  0  0  0  0  0
   38.0346   30.8367   50.5595 C   0  0  0  0  0  0  0  0  0  0  0  0
   37.3701   31.5875   49.5519 C   0  0  0  0  0  0  0  0  0  0  0  0
   36.1218   31.1868   49.1340 N   0  0  0  0  0  0  0  0  0  0  0  0
   35.5314   30.1088   49.6599 C   0  0  0  0  0  0  0  0  0  0  0  0
   36.1251   29.3613   50.6228 N   0  0  0  0  0  0  0  0  0  0  0  0
   38.2757   32.1337   46.6455 O   0  0  0  0  0  0  0  0  0  0  0  0
   40.9454   31.2622   45.3727 Cl  0  0  0  0  0  0  0  0  0  0  0  0
   39.3594   30.6926   44.9009 C   0  0  0  0  0  0  0  0  0  0  0  0
   38.3258   31.2434   45.6344 C   0  0  0  0  0  0  0  0  0  0  0  0
   37.0654   30.7962   45.2654 C   0  0  0  0  0  0  0  0  0  0  0  0
   36.8480   29.8847   44.2603 C   0  0  0  0  0  0  0  0  0  0  0  0
   37.9393   29.3810   43.5739 C   0  0  0  0  0  0  0  0  0  0  0  0
   39.2320   29.7791   43.8834 C   0  0  0  0  0  0  0  0  0  0  0  0
   39.6951   31.6326   48.0810 H   0  0  0  0  0  0  0  0  0  0  0  0
   37.2232   33.3712   48.4922 H   0  0  0  0  0  0  0  0  0  0  0  0
   39.5436   33.0202   50.4972 H   0  0  0  0  0  0  0  0  0  0  0  0
   38.2830   34.2871   50.3878 H   0  0  0  0  0  0  0  0  0  0  0  0
   40.6283   33.5776   47.2623 H   0  0  0  0  0  0  0  0  0  0  0  0
   39.0040   34.4313   47.0826 H   0  0  0  0  0  0  0  0  0  0  0  0
   37.8972   29.1592   51.8443 H   0  0  0  0  0  0  0  0  0  0  0  0
   39.0154   31.1016   50.9280 H   0  0  0  0  0  0  0  0  0  0  0  0
   34.5520   29.7647   49.3560 H   0  0  0  0  0  0  0  0  0  0  0  0
   36.1367   31.1140   45.7240 H   0  0  0  0  0  0  0  0  0  0  0  0
   35.8782   29.5194   43.9530 H   0  0  0  0  0  0  0  0  0  0  0  0
   37.8418   28.6611   42.7721 H   0  0  0  0  0  0  0  0  0  0  0  0
   39.2246   31.4446   40.7662 N   0  0  0  0  0  0  0  0  0  0  0  0
   39.9274   30.7001   41.3038 C   0  0  0  0  0  0  0  0  0  0  0  0
   40.8073   29.7553   41.9553 C   0  0  0  0  0  0  0  0  0  0  0  0
   40.4480   29.3131   43.2256 C   0  0  0  0  0  0  0  0  0  0  0  0
   41.2978   28.4138   43.8303 C   0  0  0  0  0  0  0  0  0  0  0  0
   41.0052   28.0751   44.8253 H   0  0  0  0  0  0  0  0  0  0  0  0
   42.4647   27.9211   43.2837 C   0  0  0  0  0  0  0  0  0  0  0  0
   43.0764   27.2145   43.8291 H   0  0  0  0  0  0  0  0  0  0  0  0
   42.7901   28.3778   42.0286 C   0  0  0  0  0  0  0  0  0  0  0  0
   41.9703   29.2780   41.3850 C   0  0  0  0  0  0  0  0  0  0  0  0
   43.6914   28.0316   41.5427 H   0  0  0  0  0  0  0  0  0  0  0  0
   42.2431   29.6265   40.3967 H   0  0  0  0  0  0  0  0  0  0  0  0
  1  2  1  0
  2  8  1  0
  2  3  1  0
  4  3  1  0
  5  1  1  0
  5  4  1  0
  7  6  2  0
  8  7  1  0
  9  8  2  0
  9 10  1  0
 10 11  2  0
 11  6  1  0
 12  1  1  0
 14 13  1  0
 14 15  2  0
 15 12  1  0
 16 15  1  0
 17 16  2  0
 18 19  2  0
 18 17  1  0
 19 14  1  0
  1 20  1  1
  2 21  1  6
  3 22  1  0
  3 23  1  0
  5 24  1  0
  5 25  1  0
  6 26  1  0
  7 27  1  0
 10 28  1  0
 16 29  1  0
 17 30  1  0
 18 31  1  0
 32 33  3  0
 33 34  1  0
 34 35  2  0
 35 36  1  0
 36 37  1  0
 36 38  2  0
 38 39  1  0
 38 40  1  0
 40 41  2  0
 41 34  1  0
 40 42  1  0
 41 43  1  0
 19 35  1  0
M  ISO  8  20  13  21  13  22  13  23  13  24  13  25  13  26  14  27  14
M  ISO  6  28  14  29  14  30  14  31  14  37  15  39  16
M  END
>  <DihAtoms>  (1) 
17,18,34,33

>  <DihDeg>  (1) 
90.00155874502393

$$$$
