
     RDKit          3D

 34 36  0  0  0  0  0  0  0  0999 V2000
   31.5800   28.8870   46.3930 C   0  0  0  0  0  0  0  0  0  0  0  0
   30.7790   28.0600   45.6180 C   0  0  0  0  0  0  0  0  0  0  0  0
   29.8080   27.5890   46.3830 N   0  0  0  0  0  0  0  0  0  0  0  0
   29.9390   28.0720   47.6340 C   0  0  0  0  0  0  0  0  0  0  0  0
   31.0250   28.8660   47.6370 N   0  0  0  0  0  0  0  0  0  0  0  0
   27.7020   27.9820   48.7740 C   0  0  0  0  0  0  0  0  0  0  0  0
   29.0690   27.7870   48.7670 C   0  0  0  0  0  0  0  0  0  0  0  0
   29.6100   27.2870   49.9330 C   0  0  0  0  0  0  0  0  0  0  0  0
   28.8430   26.9920   51.0540 C   0  0  0  0  0  0  0  0  0  0  0  0
   27.4810   27.2000   51.0190 C   0  0  0  0  0  0  0  0  0  0  0  0
   26.9060   27.7010   49.8660 C   0  0  0  0  0  0  0  0  0  0  0  0
   26.5720   28.9080   46.6320 N   0  0  0  0  0  0  0  0  0  0  0  0
   27.0860   28.5000   47.5850 C   0  0  0  0  0  0  0  0  0  0  0  0
   32.7240   29.6110   46.0350 O   0  0  0  0  0  0  0  0  0  0  0  0
   35.2930   29.5730   46.0050 O   0  0  0  0  0  0  0  0  0  0  0  0
   34.1220   29.3290   46.9470 P   0  0  2  0  0  0  0  0  0  0  0  0
   34.1420   27.7280   47.5220 O   0  0  0  0  0  0  0  0  0  0  0  0
   34.1700   30.3600   48.2940 O   0  0  0  0  0  0  0  0  0  0  0  0
   35.1760   30.2850   49.2510 C   0  0  0  0  0  0  0  0  0  0  0  0
   35.1920   29.4390   50.3750 C   0  0  0  0  0  0  0  0  0  0  0  0
   36.2830   29.5080   51.2140 C   0  0  0  0  0  0  0  0  0  0  0  0
   37.2900   30.3670   50.9450 N   0  0  0  0  0  0  0  0  0  0  0  0
   37.2490   31.1760   49.8480 C   0  0  0  0  0  0  0  0  0  0  0  0
   36.1910   31.1360   48.9980 N   0  0  0  0  0  0  0  0  0  0  0  0
   30.9262   27.8350   44.5514 H   0  0  0  0  0  0  0  0  0  0  0  0
   29.0639   26.9494   46.0696 H   0  0  0  0  0  0  0  0  0  0  0  0
   30.6954   27.1142   49.9777 H   0  0  0  0  0  0  0  0  0  0  0  0
   29.3196   26.5954   51.9626 H   0  0  0  0  0  0  0  0  0  0  0  0
   26.8596   26.9703   51.8971 H   0  0  0  0  0  0  0  0  0  0  0  0
   25.8208   27.8746   49.8191 H   0  0  0  0  0  0  0  0  0  0  0  0
   34.1419   27.7329   48.5120 H   0  0  0  0  0  0  0  0  0  0  0  0
   34.3619   28.7461   50.5772 H   0  0  0  0  0  0  0  0  0  0  0  0
   36.3338   28.8629   52.1036 H   0  0  0  0  0  0  0  0  0  0  0  0
   38.0811   31.8676   49.6498 H   0  0  0  0  0  0  0  0  0  0  0  0
  1  5  1  0
  2  3  1  0
  2  1  2  0
  3  4  1  0
  4  5  2  0
  4  7  1  0
  6 11  2  0
  7  6  1  0
  7  8  2  0
  8  9  1  0
 10  9  2  0
 11 10  1  0
 12 13  3  0
 13  6  1  0
 14  1  1  0
 14 16  1  0
 16 15  2  0
 16 17  1  0
 16 18  1  0
 18 19  1  0
 19 20  2  0
 20 21  1  0
 22 21  2  0
 23 22  1  0
 24 19  1  0
 24 23  2  0
  2 25  1  0
  3 26  1  0
  8 27  1  0
  9 28  1  0
 10 29  1  0
 11 30  1  0
 17 31  1  0
 20 32  1  0
 21 33  1  0
 23 34  1  0
M  ISO  8  25  14  26   9  27  14  28  14  29  14  30  14  31   3  32  14
M  ISO  2  33  14  34  14
M  END
>  <minimizedAffinity>  (1) 
-5.15610409

>  <minimizedRMSD>  (1) 
2.11935663

$$$$
