
     RDKit          3D

 43 46  0  0  1  0  0  0  0  0999 V2000
   34.4620   29.0540   48.7400 C   0  0  2  0  0  0  0  0  0  0  0  0
   35.0380   28.3770   49.9350 C   0  0  0  0  0  0  0  0  0  0  0  0
   36.1810   29.1500   50.4210 N   0  0  0  0  0  0  0  0  0  0  0  0
   37.1280   29.9050   51.1920 C   0  0  0  0  0  0  0  0  0  0  0  0
   37.3040   30.1680   52.3960 O   0  0  0  0  0  0  0  0  0  0  0  0
   37.9070   30.3230   50.0620 C   0  0  1  0  0  0  0  0  0  0  0  0
   37.0720   29.2940   49.3090 C   0  0  2  0  0  0  0  0  0  0  0  0
   35.9290   29.9610   48.0790 S   0  0  0  0  0  0  0  0  0  0  0  0
   33.2760   29.9260   48.9670 C   0  0  0  0  0  0  0  0  0  0  0  0
   34.1830   27.9790   47.6690 C   0  0  0  0  0  0  0  0  0  0  0  0
   34.1910   28.5910   46.4170 O   0  0  0  0  0  0  0  0  0  0  0  0
   37.7510   31.7260   49.6180 C   0  0  0  0  0  0  0  0  0  0  0  0
   36.8300   32.3500   50.2410 O   0  0  0  0  0  0  0  0  0  0  0  0
   38.5450   32.3390   48.5980 C   0  0  0  0  0  0  0  0  0  0  0  0
   39.1470   33.5440   48.8770 C   0  0  0  0  0  0  0  0  0  0  0  0
   39.9280   34.1450   47.8660 C   0  0  0  0  0  0  0  0  0  0  0  0
   40.0380   33.4910   46.6690 N   0  0  0  0  0  0  0  0  0  0  0  0
   39.4450   32.3260   46.4290 C   0  0  0  0  0  0  0  0  0  0  0  0
   38.6940   31.7430   47.3920 N   0  0  0  0  0  0  0  0  0  0  0  0
   39.8640   32.4090   44.0150 C   0  0  0  0  0  0  0  0  0  0  0  0
   39.5720   31.6410   45.1470 C   0  0  0  0  0  0  0  0  0  0  0  0
   39.4110   30.2690   45.0290 C   0  0  0  0  0  0  0  0  0  0  0  0
   39.5410   29.6550   43.7830 C   0  0  0  0  0  0  0  0  0  0  0  0
   39.8300   30.4510   42.6920 C   0  0  0  0  0  0  0  0  0  0  0  0
   40.0010   31.8290   42.7530 C   0  0  0  0  0  0  0  0  0  0  0  0
   40.1900   34.9840   44.1330 N   0  0  0  0  0  0  0  0  0  0  0  0
   40.0420   33.8390   44.0750 C   0  0  0  0  0  0  0  0  0  0  0  0
   34.2750   28.3123   50.7247 H   0  0  0  0  0  0  0  0  0  0  0  0
   35.3662   27.3629   49.6631 H   0  0  0  0  0  0  0  0  0  0  0  0
   39.0069   30.3399   50.0680 H   0  0  0  0  0  0  0  0  0  0  0  0
   37.6618   28.5066   48.8170 H   0  0  0  0  0  0  0  0  0  0  0  0
   33.1114   30.0470   50.0479 H   0  0  0  0  0  0  0  0  0  0  0  0
   33.4524   30.9111   48.5104 H   0  0  0  0  0  0  0  0  0  0  0  0
   32.3883   29.4639   48.5104 H   0  0  0  0  0  0  0  0  0  0  0  0
   34.9630   27.2044   47.7085 H   0  0  0  0  0  0  0  0  0  0  0  0
   33.2060   27.5081   47.8526 H   0  0  0  0  0  0  0  0  0  0  0  0
   34.2039   29.5744   46.5305 H   0  0  0  0  0  0  0  0  0  0  0  0
   39.0236   34.0250   49.8585 H   0  0  0  0  0  0  0  0  0  0  0  0
   40.4319   35.1081   48.0351 H   0  0  0  0  0  0  0  0  0  0  0  0
   39.1806   29.6641   45.9184 H   0  0  0  0  0  0  0  0  0  0  0  0
   39.4168   28.5676   43.6727 H   0  0  0  0  0  0  0  0  0  0  0  0
   39.9314   29.9629   41.7115 H   0  0  0  0  0  0  0  0  0  0  0  0
   40.2308   32.4273   41.8590 H   0  0  0  0  0  0  0  0  0  0  0  0
  1 10  1  6
  1  9  1  0
  1  2  1  0
  2  3  1  0
  3  4  1  0
  4  5  2  0
  6  4  1  0
  7  6  1  0
  7  3  1  0
  8  1  1  0
  8  7  1  0
 11 10  1  0
 12  6  1  0
 12 13  2  0
 14 15  2  0
 14 12  1  0
 16 15  1  0
 17 16  2  0
 18 17  1  0
 18 19  2  0
 19 14  1  0
 20 27  1  0
 20 21  2  0
 21 18  1  0
 22 21  1  0
 23 22  2  0
 24 25  2  0
 24 23  1  0
 25 20  1  0
 27 26  3  0
  2 28  1  0
  2 29  1  0
  6 30  1  1
  7 31  1  6
  9 32  1  0
  9 33  1  0
  9 34  1  0
 10 35  1  0
 10 36  1  0
 11 37  1  0
 15 38  1  0
 16 39  1  0
 22 40  1  0
 23 41  1  0
 24 42  1  0
 25 43  1  0
M  ISO  8  28  13  29  13  30  13  31  13  32   8  33   8  34   8  35   8
M  ISO  8  36   8  37   3  38  14  39  14  40  14  41  14  42  14  43  14
M  END
>  <minimizedAffinity>  (1) 
-5.12254047

>  <minimizedRMSD>  (1) 
0.642166257

$$$$
