
     RDKit          3D

 31 33  0  0  0  0  0  0  0  0999 V2000
   37.0531   29.5501   50.8438 C   0  0  0  0  0  0  0  0  0  0  0  0
   37.9338   30.0838   49.8907 C   0  0  0  0  0  0  0  0  0  0  0  0
   37.4458   30.7430   48.7518 C   0  0  0  0  0  0  0  0  0  0  0  0
   36.1070   30.8234   48.6439 N   0  0  0  0  0  0  0  0  0  0  0  0
   35.2637   30.3131   49.5550 C   0  0  0  0  0  0  0  0  0  0  0  0
   35.7283   29.6792   50.6505 N   0  0  0  0  0  0  0  0  0  0  0  0
   38.4305   33.4566   49.3554 Cl  0  0  0  0  0  0  0  0  0  0  0  0
   38.8364   32.5401   47.9277 C   0  0  0  0  0  0  0  0  0  0  0  0
   38.3268   31.3033   47.7518 C   0  0  0  0  0  0  0  0  0  0  0  0
   38.7092   30.6584   46.5861 C   0  0  0  0  0  0  0  0  0  0  0  0
   39.5361   31.1714   45.6392 C   0  0  0  0  0  0  0  0  0  0  0  0
   40.0360   32.4354   45.8538 C   0  0  0  0  0  0  0  0  0  0  0  0
   39.6892   33.1442   47.0133 C   0  0  0  0  0  0  0  0  0  0  0  0
   37.6023   29.0835   51.6449 H   0  0  0  0  0  0  0  0  0  0  0  0
   39.0107   30.0385   49.9438 H   0  0  0  0  0  0  0  0  0  0  0  0
   34.1888   30.3692   49.4831 H   0  0  0  0  0  0  0  0  0  0  0  0
   38.3140   29.6482   46.4075 H   0  0  0  0  0  0  0  0  0  0  0  0
   39.8021   30.6193   44.7431 H   0  0  0  0  0  0  0  0  0  0  0  0
   40.7039   32.9338   45.1583 H   0  0  0  0  0  0  0  0  0  0  0  0
   37.7384   34.6582   49.6356 N   0  0  0  0  0  0  0  0  0  0  0  0
   38.6396   34.9837   48.9632 C   0  0  0  0  0  0  0  0  0  0  0  0
   39.7582   35.4025   48.1502 C   0  0  0  0  0  0  0  0  0  0  0  0
   40.2293   34.4901   47.2289 C   0  0  0  0  0  0  0  0  0  0  0  0
   41.2943   34.7804   46.3973 C   0  0  0  0  0  0  0  0  0  0  0  0
   41.7115   34.1078   45.6533 H   0  0  0  0  0  0  0  0  0  0  0  0
   41.8890   36.0352   46.5138 C   0  0  0  0  0  0  0  0  0  0  0  0
   42.7404   36.3258   45.8800 H   0  0  0  0  0  0  0  0  0  0  0  0
   41.4211   36.9552   47.4361 C   0  0  0  0  0  0  0  0  0  0  0  0
   40.3419   36.6485   48.2724 C   0  0  0  0  0  0  0  0  0  0  0  0
   41.8903   37.9201   47.5148 H   0  0  0  0  0  0  0  0  0  0  0  0
   39.9474   37.3436   49.0071 H   0  0  0  0  0  0  0  0  0  0  0  0
  2  1  2  0
  3  2  1  0
  4  3  2  0
  4  5  1  0
  5  6  2  0
  6  1  1  0
  8  7  1  0
  9  8  2  0
  9  3  1  0
 10  9  1  0
 11 12  1  0
 11 10  2  0
 12 13  2  0
 13  8  1  0
  1 14  1  0
  2 15  1  0
  5 16  1  0
 10 17  1  0
 11 18  1  0
 12 19  1  0
 20 21  3  0
 21 22  1  0
 22 23  2  0
 23 24  1  0
 24 25  1  0
 24 26  2  0
 26 27  1  0
 26 28  1  0
 28 29  2  0
 29 22  1  0
 28 30  1  0
 29 31  1  0
 13 23  1  0
M  ISO  8  14  14  15  14  16  14  17  14  18  14  19  14  25  15  27  16
M  END
>  <DihAtoms>  (1) 
11,12,22,21

>  <DihDeg>  (1) 
90.00277715704222

$$$$
