
     RDKit          3D

 42 45  0  0  0  0  0  0  0  0999 V2000
   34.2990   30.4230   47.6560 F   0  0  0  0  0  0  0  0  0  0  0  0
   34.6390   29.9230   46.4240 C   0  0  0  0  0  0  0  0  0  0  0  0
   33.7210   29.2800   45.6130 C   0  0  0  0  0  0  0  0  0  0  0  0
   34.1330   28.8180   44.3800 C   0  0  0  0  0  0  0  0  0  0  0  0
   35.4550   28.9950   43.9540 C   0  0  0  0  0  0  0  0  0  0  0  0
   36.3190   29.6480   44.8190 C   0  0  0  0  0  0  0  0  0  0  0  0
   35.9620   30.1140   46.0290 C   0  0  0  0  0  0  0  0  0  0  0  0
   37.7870   32.3090   44.7480 Br  0  0  0  0  0  0  0  0  0  0  0  0
   37.8060   31.7750   46.5720 C   0  0  0  0  0  0  0  0  0  0  0  0
   36.9240   30.7740   46.8840 C   0  0  0  0  0  0  0  0  0  0  0  0
   36.9060   30.3040   48.2080 C   0  0  0  0  0  0  0  0  0  0  0  0
   37.7350   30.8290   49.1450 C   0  0  0  0  0  0  0  0  0  0  0  0
   38.6020   31.8440   48.7620 C   0  0  0  0  0  0  0  0  0  0  0  0
   38.6430   32.3320   47.4490 C   0  0  0  0  0  0  0  0  0  0  0  0
   39.4660   33.3220   47.0110 O   0  0  0  0  0  0  0  0  0  0  0  0
   32.2210   28.2530   47.1870 C   0  0  0  0  0  0  0  0  0  0  0  0
   32.4040   29.1630   46.1640 C   0  0  0  0  0  0  0  0  0  0  0  0
   31.3000   29.9010   45.7500 C   0  0  0  0  0  0  0  0  0  0  0  0
   30.0960   29.7130   46.3510 N   0  0  0  0  0  0  0  0  0  0  0  0
   29.9620   28.8260   47.3340 C   0  0  0  0  0  0  0  0  0  0  0  0
   30.9930   28.1070   47.7510 N   0  0  0  0  0  0  0  0  0  0  0  0
   27.8500   27.5650   47.6640 C   0  0  0  0  0  0  0  0  0  0  0  0
   28.6550   28.6450   47.9620 C   0  0  0  0  0  0  0  0  0  0  0  0
   28.1660   29.5520   48.8880 C   0  0  0  0  0  0  0  0  0  0  0  0
   26.9240   29.3290   49.4500 C   0  0  0  0  0  0  0  0  0  0  0  0
   26.1490   28.2350   49.1240 C   0  0  0  0  0  0  0  0  0  0  0  0
   26.6090   27.3050   48.2000 C   0  0  0  0  0  0  0  0  0  0  0  0
   28.7380   25.8270   45.9180 N   0  0  0  0  0  0  0  0  0  0  0  0
   28.3430   26.5980   46.6950 C   0  0  0  0  0  0  0  0  0  0  0  0
   33.4146   28.3046   43.7240 H   0  0  0  0  0  0  0  0  0  0  0  0
   35.7940   28.6307   42.9730 H   0  0  0  0  0  0  0  0  0  0  0  0
   37.3603   29.7940   44.4961 H   0  0  0  0  0  0  0  0  0  0  0  0
   36.2103   29.4995   48.4887 H   0  0  0  0  0  0  0  0  0  0  0  0
   37.7207   30.4602   50.1812 H   0  0  0  0  0  0  0  0  0  0  0  0
   39.2780   32.2787   49.5131 H   0  0  0  0  0  0  0  0  0  0  0  0
   40.0979   33.7543   47.6386 H   0  0  0  0  0  0  0  0  0  0  0  0
   33.0672   27.6479   47.5444 H   0  0  0  0  0  0  0  0  0  0  0  0
   31.4015   30.6355   44.9375 H   0  0  0  0  0  0  0  0  0  0  0  0
   28.7572   30.4354   49.1711 H   0  0  0  0  0  0  0  0  0  0  0  0
   26.5383   30.0507   50.1851 H   0  0  0  0  0  0  0  0  0  0  0  0
   25.1651   28.0989   49.5966 H   0  0  0  0  0  0  0  0  0  0  0  0
   26.0208   26.4200   47.9157 H   0  0  0  0  0  0  0  0  0  0  0  0
  2  1  1  0
  3 17  1  0
  3  2  2  0
  4  3  1  0
  5  4  2  0
  5  6  1  0
  6  7  2  0
  7  2  1  0
  7 10  1  0
  8  9  1  0
  9 10  2  0
  9 14  1  0
 10 11  1  0
 11 12  2  0
 13 12  1  0
 14 13  2  0
 15 14  1  0
 16 21  2  0
 17 16  1  0
 18 17  2  0
 18 19  1  0
 19 20  2  0
 20 21  1  0
 20 23  1  0
 22 23  2  0
 22 27  1  0
 23 24  1  0
 24 25  2  0
 26 25  1  0
 27 26  2  0
 28 29  3  0
 29 22  1  0
  4 30  1  0
  5 31  1  0
  6 32  1  0
 11 33  1  0
 12 34  1  0
 13 35  1  0
 15 36  1  0
 16 37  1  0
 18 38  1  0
 24 39  1  0
 25 40  1  0
 26 41  1  0
 27 42  1  0
M  ISO  8  30  14  31  14  32  14  33  14  34  14  35  14  36   3  37  14
M  ISO  5  38  14  39  14  40  14  41  14  42  14
M  END
>  <minimizedAffinity>  (1) 
-6.79664946

>  <minimizedRMSD>  (1) 
0.400458932

$$$$
