
     RDKit          3D

 38 40  0  0  0  0  0  0  0  0999 V2000
   33.2961   27.2689   48.0121 C   0  0  0  0  0  0  0  0  0  0  0  0
   33.7111   26.1969   47.0529 C   0  0  0  0  0  0  0  0  0  0  0  0
   33.9331   24.8859   47.3749 C   0  0  0  0  0  0  0  0  0  0  0  0
   34.3143   23.9916   46.4047 C   0  0  0  0  0  0  0  0  0  0  0  0
   34.4854   24.3869   45.0738 C   0  0  0  0  0  0  0  0  0  0  0  0
   34.2644   25.7035   44.7399 C   0  0  0  0  0  0  0  0  0  0  0  0
   33.8797   26.6081   45.7174 C   0  0  0  0  0  0  0  0  0  0  0  0
   34.7111   28.3878   49.7302 C   0  0  0  0  0  0  0  0  0  0  0  0
   34.4148   28.0641   48.5173 C   0  0  0  0  0  0  0  0  0  0  0  0
   37.3378   30.2670   51.4348 C   0  0  0  0  0  0  0  0  0  0  0  0
   38.0991   30.7040   50.3311 C   0  0  0  0  0  0  0  0  0  0  0  0
   37.7000   30.3428   49.0079 C   0  0  0  0  0  0  0  0  0  0  0  0
   36.5845   29.5829   48.9111 N   0  0  0  0  0  0  0  0  0  0  0  0
   35.8885   29.1886   49.9867 C   0  0  0  0  0  0  0  0  0  0  0  0
   36.2452   29.5160   51.2344 N   0  0  0  0  0  0  0  0  0  0  0  0
   32.7701   26.7527   48.8397 H   0  0  0  0  0  0  0  0  0  0  0  0
   32.5609   27.9553   47.5281 H   0  0  0  0  0  0  0  0  0  0  0  0
   33.7952   24.6006   48.4095 H   0  0  0  0  0  0  0  0  0  0  0  0
   34.4747   22.9694   46.7216 H   0  0  0  0  0  0  0  0  0  0  0  0
   34.7913   23.6039   44.3685 H   0  0  0  0  0  0  0  0  0  0  0  0
   34.4021   25.9909   43.7038 H   0  0  0  0  0  0  0  0  0  0  0  0
   33.7319   27.6152   45.3519 H   0  0  0  0  0  0  0  0  0  0  0  0
   34.0948   28.0662   50.5595 H   0  0  0  0  0  0  0  0  0  0  0  0
   34.9505   28.3392   47.6285 H   0  0  0  0  0  0  0  0  0  0  0  0
   37.5457   30.4782   52.4563 H   0  0  0  0  0  0  0  0  0  0  0  0
   38.9204   31.2741   50.6739 H   0  0  0  0  0  0  0  0  0  0  0  0
   39.0251   27.5064   47.1096 N   0  0  0  0  0  0  0  0  0  0  0  0
   39.1096   28.6559   47.0832 C   0  0  0  0  0  0  0  0  0  0  0  0
   39.2380   30.0654   47.0529 C   0  0  0  0  0  0  0  0  0  0  0  0
   38.5756   30.8265   47.9606 C   0  0  0  0  0  0  0  0  0  0  0  0
   38.8232   32.1750   47.8224 C   0  0  0  0  0  0  0  0  0  0  0  0
   38.3961   32.9492   48.4330 H   0  0  0  0  0  0  0  0  0  0  0  0
   39.6504   32.7074   46.8704 C   0  0  0  0  0  0  0  0  0  0  0  0
   39.8444   33.7623   46.7613 H   0  0  0  0  0  0  0  0  0  0  0  0
   40.3049   31.9025   45.9657 C   0  0  0  0  0  0  0  0  0  0  0  0
   40.0878   30.5482   46.0662 C   0  0  0  0  0  0  0  0  0  0  0  0
   40.9620   32.2851   45.2039 H   0  0  0  0  0  0  0  0  0  0  0  0
   40.6050   29.9154   45.3514 H   0  0  0  0  0  0  0  0  0  0  0  0
  1  9  1  0
  2  3  2  0
  2  1  1  0
  4  3  1  0
  5  4  2  0
  6  5  1  0
  6  7  2  0
  7  2  1  0
  8 14  1  0
  9  8  2  0
 11 10  2  0
 12 11  1  0
 13 12  2  0
 13 14  1  0
 14 15  2  0
 15 10  1  0
  1 16  1  0
  1 17  1  0
  3 18  1  0
  4 19  1  0
  5 20  1  0
  6 21  1  0
  7 22  1  0
  8 23  1  0
  9 24  1  0
 10 25  1  0
 11 26  1  0
 27 28  3  0
 28 29  1  0
 29 30  2  0
 30 31  1  0
 31 32  1  0
 31 33  2  0
 33 34  1  0
 33 35  1  0
 35 36  2  0
 36 29  1  0
 35 37  1  0
 36 38  1  0
 12 30  1  0
M  ISO  8  16   8  17   8  18  14  19  14  20  14  21  14  22  14  25  14
M  ISO  3  26  14  32  15  34  16
M  END
>  <DihAtoms>  (1) 
10,11,29,28

>  <DihDeg>  (1) 
166.09996956449575

$$$$
