
     RDKit          3D

 35 37  0  0  0  0  0  0  0  0999 V2000
   38.1097   31.1950   47.9029 C   0  0  0  0  0  0  0  0  0  0  0  0
   38.3893   30.3888   46.7883 C   0  0  0  0  0  0  0  0  0  0  0  0
   39.1746   30.8157   45.7326 C   0  0  0  0  0  0  0  0  0  0  0  0
   39.7179   32.1238   45.7786 C   0  0  0  0  0  0  0  0  0  0  0  0
   39.4267   32.8832   46.8765 C   0  0  0  0  0  0  0  0  0  0  0  0
   38.6583   32.4644   47.9176 C   0  0  0  0  0  0  0  0  0  0  0  0
   37.8534   29.9672   49.9733 C   0  0  0  0  0  0  0  0  0  0  0  0
   37.2297   30.6101   48.8886 C   0  0  0  0  0  0  0  0  0  0  0  0
   35.8259   30.6092   48.8733 C   0  0  0  0  0  0  0  0  0  0  0  0
   35.1425   30.0172   49.8588 N   0  0  0  0  0  0  0  0  0  0  0  0
   35.7556   29.4060   50.8898 C   0  0  0  0  0  0  0  0  0  0  0  0
   37.1026   29.3881   50.9346 N   0  0  0  0  0  0  0  0  0  0  0  0
   39.2960   34.3256   49.1702 C   0  0  0  0  0  0  0  0  0  0  0  0
   40.3947   34.2674   48.4819 O   0  0  0  0  0  0  0  0  0  0  0  0
   38.3921   33.2423   49.0490 N   0  0  0  0  0  0  0  0  0  0  0  0
   37.9847   29.3830   46.7361 H   0  0  0  0  0  0  0  0  0  0  0  0
   39.3406   30.1137   44.9007 H   0  0  0  0  0  0  0  0  0  0  0  0
   40.2968   32.3363   44.9175 H   0  0  0  0  0  0  0  0  0  0  0  0
   39.8842   33.8326   46.6879 H   0  0  0  0  0  0  0  0  0  0  0  0
   38.9278   29.9306   50.0485 H   0  0  0  0  0  0  0  0  0  0  0  0
   35.3825   31.1041   48.0240 H   0  0  0  0  0  0  0  0  0  0  0  0
   35.2214   28.9188   51.6999 H   0  0  0  0  0  0  0  0  0  0  0  0
   37.7163   33.2576   49.8171 H   0  0  0  0  0  0  0  0  0  0  0  0
   41.5193   34.1245   52.0415 N   0  0  0  0  0  0  0  0  0  0  0  0
   40.8323   34.9383   51.5865 C   0  0  0  0  0  0  0  0  0  0  0  0
   39.9966   35.9368   51.0269 C   0  0  0  0  0  0  0  0  0  0  0  0
   39.3092   35.5759   49.9209 C   0  0  0  0  0  0  0  0  0  0  0  0
   38.4560   36.4794   49.2831 C   0  0  0  0  0  0  0  0  0  0  0  0
   37.8383   36.3188   48.3828 H   0  0  0  0  0  0  0  0  0  0  0  0
   38.2689   37.7876   49.7458 C   0  0  0  0  0  0  0  0  0  0  0  0
   37.6310   38.5154   49.2972 H   0  0  0  0  0  0  0  0  0  0  0  0
   38.9953   38.1300   50.8908 C   0  0  0  0  0  0  0  0  0  0  0  0
   39.8390   37.2195   51.5134 C   0  0  0  0  0  0  0  0  0  0  0  0
   38.8735   39.1497   51.2806 H   0  0  0  0  0  0  0  0  0  0  0  0
   40.3993   37.4853   52.3934 H   0  0  0  0  0  0  0  0  0  0  0  0
  1  6  1  0
  1  8  1  0
  2  1  2  0
  3  4  2  0
  3  2  1  0
  4  5  1  0
  5  6  2  0
  6 15  1  0
  7 12  2  0
  8  9  2  0
  8  7  1  0
  9 10  1  0
 10 11  2  0
 11 12  1  0
 14 13  2  0
 15 13  1  0
  2 16  1  0
  3 17  1  0
  4 18  1  0
  5 19  1  0
  7 20  1  0
  9 21  1  0
 11 22  1  0
 15 23  1  0
 24 25  3  0
 25 26  1  0
 26 27  2  0
 27 28  1  0
 28 29  1  0
 28 30  2  0
 30 31  1  0
 30 32  1  0
 32 33  2  0
 33 26  1  0
 32 34  1  0
 33 35  1  0
 13 27  1  0
M  ISO  8  16  14  17  14  18  14  19  14  20  14  21  14  22  14  29  15
M  ISO  1  31  16
M  END
>  <DihAtoms>  (1) 
13,12,26,25

>  <DihDeg>  (1) 
-75.23156716560376

$$$$
