
     RDKit          3D

 35 37  0  0  0  0  0  0  0  0999 V2000
   36.3600   29.9480   44.2550 C   0  0  0  0  0  0  0  0  0  0  0  0
   36.4960   28.8590   43.3810 C   0  0  0  0  0  0  0  0  0  0  0  0
   37.6440   28.6270   42.6440 C   0  0  0  0  0  0  0  0  0  0  0  0
   38.7260   29.5320   42.7760 C   0  0  0  0  0  0  0  0  0  0  0  0
   38.5620   30.5820   43.6340 C   0  0  0  0  0  0  0  0  0  0  0  0
   37.4360   30.8090   44.3630 C   0  0  0  0  0  0  0  0  0  0  0  0
   34.0240   30.5660   44.1170 C   0  0  0  0  0  0  0  0  0  0  0  0
   35.0750   30.0680   44.9060 C   0  0  0  0  0  0  0  0  0  0  0  0
   34.7710   29.7480   46.2390 C   0  0  0  0  0  0  0  0  0  0  0  0
   33.5290   29.9190   46.7060 N   0  0  0  0  0  0  0  0  0  0  0  0
   32.5340   30.3970   45.9350 C   0  0  0  0  0  0  0  0  0  0  0  0
   32.7930   30.7150   44.6510 N   0  0  0  0  0  0  0  0  0  0  0  0
   38.0410   31.6700   46.4450 C   0  0  0  0  0  0  0  0  0  0  0  0
   38.4460   30.4630   46.6970 O   0  0  0  0  0  0  0  0  0  0  0  0
   37.2930   31.8730   45.2590 N   0  0  0  0  0  0  0  0  0  0  0  0
   38.1170   32.6100   48.8210 C   0  0  0  0  0  0  0  0  0  0  0  0
   38.5050   32.5290   47.5290 C   0  0  0  0  0  0  0  0  0  0  0  0
   39.5340   33.3350   47.0390 C   0  0  0  0  0  0  0  0  0  0  0  0
   40.2130   34.2570   47.8460 C   0  0  0  0  0  0  0  0  0  0  0  0
   39.7890   34.3150   49.1780 C   0  0  0  0  0  0  0  0  0  0  0  0
   38.7630   33.5070   49.6490 C   0  0  0  0  0  0  0  0  0  0  0  0
   36.2090   31.0300   49.5200 N   0  0  0  0  0  0  0  0  0  0  0  0
   37.0650   31.7410   49.2040 C   0  0  0  0  0  0  0  0  0  0  0  0
   35.6536   28.1593   43.2771 H   0  0  0  0  0  0  0  0  0  0  0  0
   37.7148   27.7598   41.9711 H   0  0  0  0  0  0  0  0  0  0  0  0
   39.6597   29.3947   42.2108 H   0  0  0  0  0  0  0  0  0  0  0  0
   39.3958   31.2912   43.7428 H   0  0  0  0  0  0  0  0  0  0  0  0
   34.2042   30.8341   43.0655 H   0  0  0  0  0  0  0  0  0  0  0  0
   35.5566   29.3555   46.9014 H   0  0  0  0  0  0  0  0  0  0  0  0
   31.5226   30.5264   46.3477 H   0  0  0  0  0  0  0  0  0  0  0  0
   36.7132   32.7049   45.0784 H   0  0  0  0  0  0  0  0  0  0  0  0
   39.8220   33.2429   45.9814 H   0  0  0  0  0  0  0  0  0  0  0  0
   41.0238   34.8917   47.4590 H   0  0  0  0  0  0  0  0  0  0  0  0
   40.2799   35.0170   49.8680 H   0  0  0  0  0  0  0  0  0  0  0  0
   38.4583   33.5828   50.7032 H   0  0  0  0  0  0  0  0  0  0  0  0
  1  6  1  0
  1  8  1  0
  2  1  2  0
  3  4  2  0
  3  2  1  0
  4  5  1  0
  5  6  2  0
  6 15  1  0
  7 12  2  0
  7  8  1  0
  8  9  2  0
  9 10  1  0
 11 10  2  0
 12 11  1  0
 13 14  2  0
 13 17  1  0
 15 13  1  0
 16 23  1  0
 16 21  2  0
 17 16  1  0
 18 17  2  0
 18 19  1  0
 19 20  2  0
 20 21  1  0
 23 22  3  0
  2 24  1  0
  3 25  1  0
  4 26  1  0
  5 27  1  0
  7 28  1  0
  9 29  1  0
 11 30  1  0
 15 31  1  0
 18 32  1  0
 19 33  1  0
 20 34  1  0
 21 35  1  0
M  ISO  8  24  14  25  14  26  14  27  14  28  14  29  14  30  14  32  14
M  ISO  3  33  14  34  14  35  14
M  END
>  <minimizedAffinity>  (1) 
-5.40253925

>  <minimizedRMSD>  (1) 
4.67047215

$$$$
