
     RDKit          3D

 31 33  0  0  1  0  0  0  0  0999 V2000
   35.6500   30.6950   48.3270 C   0  0  0  0  0  0  0  0  0  0  0  0
   36.6510   30.7750   47.3310 C   0  0  0  0  0  0  0  0  0  0  0  0
   36.3060   30.3320   46.0430 C   0  0  0  0  0  0  0  0  0  0  0  0
   35.0450   29.8550   45.8120 N   0  0  0  0  0  0  0  0  0  0  0  0
   34.1250   29.8060   46.8200 C   0  0  0  0  0  0  0  0  0  0  0  0
   34.4260   30.2210   48.0600 N   0  0  0  0  0  0  0  0  0  0  0  0
   33.7440   26.8080   47.6690 Br  0  0  0  0  0  0  0  0  0  0  0  0
   32.4480   27.9880   46.9000 C   0  0  0  0  0  0  0  0  0  0  0  0
   32.7750   29.2950   46.5770 C   0  0  0  0  0  0  0  0  0  0  0  0
   31.7840   30.0680   46.0310 C   0  0  0  0  0  0  0  0  0  0  0  0
   30.5010   29.6360   45.7850 C   0  0  0  0  0  0  0  0  0  0  0  0
   30.2090   28.3360   46.1150 C   0  0  0  0  0  0  0  0  0  0  0  0
   31.1820   27.5200   46.6690 C   0  0  0  0  0  0  0  0  0  0  0  0
   38.2390   32.5690   45.5140 O   0  0  0  0  0  0  0  0  0  0  0  0
   38.4830   32.3320   46.7460 C   0  0  0  0  0  0  0  0  0  0  0  0
   37.9900   31.3070   47.6760 C   0  0  1  0  0  0  0  0  0  0  0  0
   38.0320   31.9840   49.0030 C   0  0  0  0  0  0  0  0  0  0  0  0
   38.8850   33.2260   48.8740 C   0  0  0  0  0  0  0  0  0  0  0  0
   39.4020   33.1490   47.5020 N   0  0  0  0  0  0  0  0  0  0  0  0
   35.8829   31.0310   49.3482 H   0  0  0  0  0  0  0  0  0  0  0  0
   37.0435   30.3685   45.2276 H   0  0  0  0  0  0  0  0  0  0  0  0
   32.0318   31.1077   45.7709 H   0  0  0  0  0  0  0  0  0  0  0  0
   29.7443   30.3017   45.3442 H   0  0  0  0  0  0  0  0  0  0  0  0
   29.1979   27.9403   45.9388 H   0  0  0  0  0  0  0  0  0  0  0  0
   30.9337   26.4800   46.9273 H   0  0  0  0  0  0  0  0  0  0  0  0
   38.6091   30.3982   47.6478 H   0  0  0  0  0  0  0  0  0  0  0  0
   37.0134   32.2624   49.3112 H   0  0  0  0  0  0  0  0  0  0  0  0
   38.4568   31.3087   49.7604 H   0  0  0  0  0  0  0  0  0  0  0  0
   38.2805   34.1340   49.0155 H   0  0  0  0  0  0  0  0  0  0  0  0
   39.6832   33.2766   49.6292 H   0  0  0  0  0  0  0  0  0  0  0  0
   40.2596   33.5944   47.1457 H   0  0  0  0  0  0  0  0  0  0  0  0
  2  1  2  0
  3  2  1  0
  4  3  2  0
  4  5  1  0
  5  6  2  0
  6  1  1  0
  8  7  1  0
  9  5  1  0
  9  8  2  0
 10  9  1  0
 11 10  2  0
 11 12  1  0
 12 13  2  0
 13  8  1  0
 14 15  2  0
 15 19  1  0
 15 16  1  0
 16  2  1  0
 16 17  1  0
 18 17  1  0
 19 18  1  0
  1 20  1  0
  3 21  1  0
 10 22  1  0
 11 23  1  0
 12 24  1  0
 13 25  1  0
 16 26  1  1
 17 27  1  0
 17 28  1  0
 18 29  1  0
 18 30  1  0
 19 31  1  0
M  ISO  8  20  14  21  14  22  14  23  14  24  14  25  14  26  13  27  13
M  ISO  4  28  13  29  13  30  13  31  10
M  END
>  <minimizedAffinity>  (1) 
-5.25037241

>  <minimizedRMSD>  (1) 
3.98310804

$$$$
