
     RDKit          3D

 31 33  0  0  0  0  0  0  0  0999 V2000
   37.2259   29.0956   50.5677 Cl  0  0  0  0  0  0  0  0  0  0  0  0
   35.9617   29.1893   49.3930 C   0  0  0  0  0  0  0  0  0  0  0  0
   35.9318   30.2328   48.4839 C   0  0  0  0  0  0  0  0  0  0  0  0
   34.9443   30.3381   47.5391 C   0  0  0  0  0  0  0  0  0  0  0  0
   33.9368   29.3854   47.4723 C   0  0  0  0  0  0  0  0  0  0  0  0
   33.9276   28.3277   48.3595 C   0  0  0  0  0  0  0  0  0  0  0  0
   32.7110   27.0787   48.3635 Cl  0  0  0  0  0  0  0  0  0  0  0  0
   34.9394   28.2681   49.2866 C   0  0  0  0  0  0  0  0  0  0  0  0
   37.9798   33.1011   49.4961 C   0  0  0  0  0  0  0  0  0  0  0  0
   39.0146   33.1049   48.5504 C   0  0  0  0  0  0  0  0  0  0  0  0
   38.9829   32.0991   47.5656 C   0  0  0  0  0  0  0  0  0  0  0  0
   37.9670   31.2011   47.5925 N   0  0  0  0  0  0  0  0  0  0  0  0
   36.9783   31.2394   48.5384 C   0  0  0  0  0  0  0  0  0  0  0  0
   37.0019   32.1886   49.4736 N   0  0  0  0  0  0  0  0  0  0  0  0
   34.9635   31.1830   46.8407 H   0  0  0  0  0  0  0  0  0  0  0  0
   33.1551   29.4420   46.7471 H   0  0  0  0  0  0  0  0  0  0  0  0
   38.0662   33.9021   50.2243 H   0  0  0  0  0  0  0  0  0  0  0  0
   39.8249   33.8186   48.5264 H   0  0  0  0  0  0  0  0  0  0  0  0
   39.7380   32.0055   46.7783 H   0  0  0  0  0  0  0  0  0  0  0  0
   34.3827   25.4436   48.7591 O   0  0  0  0  0  0  0  0  0  0  0  0
   34.2062   25.9864   49.8635 C   0  0  0  0  0  0  0  0  0  0  0  0
   35.0040   27.1507   50.2883 C   0  0  2  0  0  0  0  0  0  0  0  0
   34.5968   27.5614   51.6523 C   0  0  2  0  0  0  0  0  0  0  0  0
   34.0807   28.5361   51.7277 H   0  0  0  0  0  0  0  0  0  0  0  0
   33.7300   26.4069   52.1109 C   0  0  1  0  0  0  0  0  0  0  0  0
   34.3255   25.6875   52.7213 H   0  0  0  0  0  0  0  0  0  0  0  0
   33.3073   25.7049   50.9272 N   0  0  0  0  0  0  0  0  0  0  0  0
   36.0582   26.7590   50.3897 H   0  0  0  0  0  0  0  0  0  0  0  0
   35.4372   27.6237   52.3777 H   0  0  0  0  0  0  0  0  0  0  0  0
   32.8171   26.7584   52.6336 H   0  0  0  0  0  0  0  0  0  0  0  0
   32.4828   25.0873   50.8403 H   0  0  0  0  0  0  0  0  0  0  0  0
  2  1  1  0
  3 13  1  0
  3  2  2  0
  4  3  1  0
  5  4  2  0
  5  6  1  0
  6  7  1  0
  6  8  2  0
  8  2  1  0
 10  9  2  0
 11 12  2  0
 11 10  1  0
 12 13  1  0
 13 14  2  0
 14  9  1  0
  4 15  1  0
  5 16  1  0
  9 17  1  0
 10 18  1  0
 11 19  1  0
 20 21  2  0
 21 22  1  0
 22 23  1  0
 23 24  1  6
 23 25  1  0
 25 26  1  1
 25 27  1  0
 27 21  1  0
 22 28  1  1
 23 29  1  0
 25 30  1  0
 27 31  1  0
  8 22  1  0
M  ISO  7  15  14  16  14  17  14  18  14  19  14  24   8  26   8
M  END
>  <DihAtoms>  (1) 
5,7,21,20

>  <DihDeg>  (1) 
34.54975821466851

$$$$
