
     RDKit          3D

 47 50  0  0  0  0  0  0  0  0999 V2000
   34.6009   29.5292   48.8937 C   0  0  0  0  0  0  0  0  0  0  0  0
   34.1090   30.1776   47.7595 C   0  0  0  0  0  0  0  0  0  0  0  0
   33.3108   29.4253   46.8905 C   0  0  0  0  0  0  0  0  0  0  0  0
   33.0487   28.0941   47.1903 N   0  0  0  0  0  0  0  0  0  0  0  0
   33.5584   27.5091   48.3192 C   0  0  0  0  0  0  0  0  0  0  0  0
   34.3157   28.2188   49.1450 N   0  0  0  0  0  0  0  0  0  0  0  0
   32.7684   29.9785   45.7134 N   0  0  0  0  0  0  0  0  0  0  0  0
   33.5674   30.4904   44.7269 C   0  0  0  0  0  0  0  0  0  0  0  0
   33.0207   31.0246   43.5837 C   0  0  0  0  0  0  0  0  0  0  0  0
   31.6578   31.0283   43.4637 C   0  0  0  0  0  0  0  0  0  0  0  0
   31.1437   31.5187   42.4133 O   0  0  0  0  0  0  0  0  0  0  0  0
   30.8578   30.5232   44.4363 N   0  0  0  0  0  0  0  0  0  0  0  0
   31.4523   30.0147   45.5306 C   0  0  0  0  0  0  0  0  0  0  0  0
   30.6216   29.5659   46.3851 O   0  0  0  0  0  0  0  0  0  0  0  0
   35.4446   30.3713   49.8062 C   0  0  2  0  0  0  0  0  0  0  0  0
   36.4795   31.1056   48.9567 C   0  0  0  0  0  0  0  0  0  0  0  0
   37.8677   30.6251   49.1842 C   0  0  0  0  0  0  0  0  0  0  0  0
   38.2684   30.6530   50.6208 C   0  0  0  0  0  0  0  0  0  0  0  0
   37.2375   30.0991   51.5386 C   0  0  0  0  0  0  0  0  0  0  0  0
   36.0433   29.4805   50.8194 C   0  0  1  0  0  0  0  0  0  0  0  0
   34.2645   31.1925   47.4637 H   0  0  0  0  0  0  0  0  0  0  0  0
   33.3145   26.4714   48.4900 H   0  0  0  0  0  0  0  0  0  0  0  0
   34.6522   30.4621   44.8744 H   0  0  0  0  0  0  0  0  0  0  0  0
   33.7152   31.4107   42.8471 H   0  0  0  0  0  0  0  0  0  0  0  0
   29.8246   30.5531   44.2898 H   0  0  0  0  0  0  0  0  0  0  0  0
   34.7334   31.0958   50.2524 H   0  0  0  0  0  0  0  0  0  0  0  0
   36.4411   32.1694   49.2673 H   0  0  0  0  0  0  0  0  0  0  0  0
   36.2479   31.0844   47.8783 H   0  0  0  0  0  0  0  0  0  0  0  0
   38.5509   31.2058   48.5697 H   0  0  0  0  0  0  0  0  0  0  0  0
   37.9901   29.5556   48.8457 H   0  0  0  0  0  0  0  0  0  0  0  0
   39.2522   30.1326   50.7012 H   0  0  0  0  0  0  0  0  0  0  0  0
   38.4612   31.7224   50.8740 H   0  0  0  0  0  0  0  0  0  0  0  0
   36.9250   30.8669   52.2867 H   0  0  0  0  0  0  0  0  0  0  0  0
   37.7206   29.2784   52.1181 H   0  0  0  0  0  0  0  0  0  0  0  0
   36.4015   28.5157   50.4065 H   0  0  0  0  0  0  0  0  0  0  0  0
   32.7552   29.0637   50.7422 O   0  0  0  0  0  0  0  0  0  0  0  0
   33.6445   29.5247   51.4985 C   0  0  0  0  0  0  0  0  0  0  0  0
   35.0313   29.1642   51.9052 C   0  0  2  0  0  0  0  0  0  0  0  0
   35.2832   29.9316   53.1835 C   0  0  2  0  0  0  0  0  0  0  0  0
   36.3476   30.3061   53.2304 H   0  0  0  0  0  0  0  0  0  0  0  0
   34.2801   31.0453   53.2623 C   0  0  1  0  0  0  0  0  0  0  0  0
   33.6831   31.0072   54.2083 H   0  0  0  0  0  0  0  0  0  0  0  0
   33.3271   30.7233   52.2044 N   0  0  0  0  0  0  0  0  0  0  0  0
   35.0180   28.0691   52.0922 H   0  0  0  0  0  0  0  0  0  0  0  0
   35.1005   29.2644   54.0768 H   0  0  0  0  0  0  0  0  0  0  0  0
   34.7085   32.0583   53.1009 H   0  0  0  0  0  0  0  0  0  0  0  0
   32.5284   31.4126   52.0953 H   0  0  0  0  0  0  0  0  0  0  0  0
  1  6  1  0
  1 15  1  0
  2  1  2  0
  3  4  2  0
  3  2  1  0
  4  5  1  0
  5  6  2  0
  7  3  1  0
  8  7  1  0
  9  8  2  0
 10  9  1  0
 10 12  1  0
 11 10  2  0
 12 13  1  0
 13  7  1  0
 13 14  2  0
 15 20  1  0
 16 17  1  0
 16 15  1  0
 17 18  1  0
 18 19  1  0
 20 19  1  0
  2 21  1  0
  5 22  1  0
  8 23  1  0
  9 24  1  0
 12 25  1  0
 15 26  1  1
 16 27  1  0
 16 28  1  0
 17 29  1  0
 17 30  1  0
 18 31  1  0
 18 32  1  0
 19 33  1  0
 19 34  1  0
 20 35  1  6
 36 37  2  0
 37 38  1  0
 38 39  1  0
 39 40  1  6
 39 41  1  0
 41 42  1  1
 41 43  1  0
 43 37  1  0
 38 44  1  1
 39 45  1  0
 41 46  1  0
 43 47  1  0
 20 38  1  0
M  ISO  8  21  14  22  14  23  14  24  14  25   9  26  13  27  13  28  13
M  ISO  8  29  13  30  13  31  13  32  13  33  13  34  13  35  13  40   8
M  ISO  1  42   8
M  END
>  <DihAtoms>  (1) 
14,19,37,36

>  <DihDeg>  (1) 
-60.29332931263744

$$$$
