
     RDKit          3D

 35 37  0  0  0  0  0  0  0  0999 V2000
   37.3686   30.2565   50.5336 C   0  0  0  0  0  0  0  0  0  0  0  0
   36.7742   30.7019   49.3395 C   0  0  0  0  0  0  0  0  0  0  0  0
   35.4120   30.4298   49.1212 C   0  0  0  0  0  0  0  0  0  0  0  0
   34.7511   29.7353   50.1131 N   0  0  0  0  0  0  0  0  0  0  0  0
   35.3791   29.3325   51.2443 C   0  0  0  0  0  0  0  0  0  0  0  0
   36.6766   29.5792   51.4746 N   0  0  0  0  0  0  0  0  0  0  0  0
   37.5276   31.4249   48.3752 N   0  0  0  0  0  0  0  0  0  0  0  0
   37.3166   31.1381   46.9619 C   0  0  0  0  0  0  0  0  0  0  0  0
   38.3038   31.8140   46.0840 C   0  0  0  0  0  0  0  0  0  0  0  0
   39.4933   32.1128   46.8026 N   0  0  0  0  0  0  0  0  0  0  0  0
   39.1195   33.1756   47.7591 C   0  0  0  0  0  0  0  0  0  0  0  0
   38.4686   32.4155   48.8769 C   0  0  1  0  0  0  0  0  0  0  0  0
   38.4100   30.4474   50.7323 H   0  0  0  0  0  0  0  0  0  0  0  0
   34.9229   30.7493   48.2284 H   0  0  0  0  0  0  0  0  0  0  0  0
   34.6457   28.8117   51.8585 H   0  0  0  0  0  0  0  0  0  0  0  0
   37.3850   30.0319   46.7742 H   0  0  0  0  0  0  0  0  0  0  0  0
   36.3020   31.4225   46.6278 H   0  0  0  0  0  0  0  0  0  0  0  0
   38.6110   31.1376   45.2326 H   0  0  0  0  0  0  0  0  0  0  0  0
   37.8894   32.7336   45.6442 H   0  0  0  0  0  0  0  0  0  0  0  0
   40.1736   32.5934   46.1636 H   0  0  0  0  0  0  0  0  0  0  0  0
   40.0369   33.6402   48.1493 H   0  0  0  0  0  0  0  0  0  0  0  0
   38.4404   33.9150   47.2864 H   0  0  0  0  0  0  0  0  0  0  0  0
   39.2677   31.8386   49.3899 H   0  0  0  0  0  0  0  0  0  0  0  0
   36.2668   34.6743   48.2947 O   0  0  0  0  0  0  0  0  0  0  0  0
   36.9250   34.3125   49.3301 C   0  0  0  0  0  0  0  0  0  0  0  0
   37.8443   33.3102   49.9105 C   0  0  2  0  0  0  0  0  0  0  0  0
   38.8512   34.2323   50.5580 C   0  0  2  0  0  0  0  0  0  0  0  0
   39.3092   34.8211   49.7393 H   0  0  0  0  0  0  0  0  0  0  0  0
   37.8934   35.1433   51.3391 C   0  0  1  0  0  0  0  0  0  0  0  0
   37.5716   34.6614   52.2713 H   0  0  0  0  0  0  0  0  0  0  0  0
   36.7356   35.2229   50.4354 N   0  0  0  0  0  0  0  0  0  0  0  0
   37.3227   32.6988   50.6646 H   0  0  0  0  0  0  0  0  0  0  0  0
   39.5745   33.7234   51.2073 H   0  0  0  0  0  0  0  0  0  0  0  0
   38.3609   36.1282   51.5013 H   0  0  0  0  0  0  0  0  0  0  0  0
   36.0298   35.9257   50.7982 H   0  0  0  0  0  0  0  0  0  0  0  0
  1  6  2  0
  2  1  1  0
  3  2  2  0
  3  4  1  0
  4  5  2  0
  5  6  1  0
  7 12  1  0
  7  2  1  0
  8  7  1  0
  9 10  1  0
  9  8  1  0
 10 11  1  0
 11 12  1  0
  1 13  1  0
  3 14  1  0
  5 15  1  0
  8 16  1  0
  8 17  1  0
  9 18  1  0
  9 19  1  0
 10 20  1  0
 11 21  1  0
 11 22  1  0
 12 23  1  1
 24 25  2  0
 25 26  1  0
 26 27  1  0
 27 28  1  6
 27 29  1  0
 29 30  1  1
 29 31  1  0
 31 25  1  0
 26 32  1  1
 27 33  1  0
 29 34  1  0
 31 35  1  0
 12 26  1  0
M  ISO  8  13  14  14  14  15  14  16  13  17  13  18  13  19  13  20   5
M  ISO  5  21  13  22  13  23  13  28   8  30   8
M  END
>  <DihAtoms>  (1) 
6,11,25,24

>  <DihDeg>  (1) 
-59.90173042904344

$$$$
