
     RDKit          3D

 28 29  0  0  0  0  0  0  0  0999 V2000
   37.0523   29.4034   51.1675 C   0  0  0  0  0  0  0  0  0  0  0  0
   37.6937   30.0127   50.0779 C   0  0  0  0  0  0  0  0  0  0  0  0
   36.9135   30.4831   49.0503 C   0  0  0  0  0  0  0  0  0  0  0  0
   35.5436   30.3314   49.1454 N   0  0  0  0  0  0  0  0  0  0  0  0
   34.9693   29.7421   50.2064 C   0  0  0  0  0  0  0  0  0  0  0  0
   35.7174   29.2713   51.2294 N   0  0  0  0  0  0  0  0  0  0  0  0
   37.4614   31.1336   47.8540 C   0  0  0  0  0  0  0  0  0  0  0  0
   38.7402   31.8620   48.1494 C   0  0  0  0  0  0  0  0  0  0  0  0
   38.4616   33.3634   49.0967 S   0  0  0  0  0  0  0  0  0  0  0  0
   37.6391   29.0246   51.9896 H   0  0  0  0  0  0  0  0  0  0  0  0
   38.7689   30.1086   50.0464 H   0  0  0  0  0  0  0  0  0  0  0  0
   33.8715   29.7073   50.1145 H   0  0  0  0  0  0  0  0  0  0  0  0
   37.6897   30.3675   47.0706 H   0  0  0  0  0  0  0  0  0  0  0  0
   36.7715   31.8438   47.3753 H   0  0  0  0  0  0  0  0  0  0  0  0
   39.5512   31.2227   48.5351 H   0  0  0  0  0  0  0  0  0  0  0  0
   39.1223   32.2105   47.1443 H   0  0  0  0  0  0  0  0  0  0  0  0
   36.1996   32.9798   46.8946 O   0  0  0  0  0  0  0  0  0  0  0  0
   36.2047   33.9898   47.6731 C   0  0  0  0  0  0  0  0  0  0  0  0
   37.5436   34.5366   48.0962 C   0  0  1  0  0  0  0  0  0  0  0  0
   37.1367   35.7078   48.9660 C   0  0  1  0  0  0  0  0  0  0  0  0
   37.8640   35.9524   49.7543 H   0  0  0  0  0  0  0  0  0  0  0  0
   35.8033   35.2299   49.5207 C   0  0  1  0  0  0  0  0  0  0  0  0
   36.0365   34.3376   50.1223 H   0  0  0  0  0  0  0  0  0  0  0  0
   35.1745   34.7708   48.2738 N   0  0  0  0  0  0  0  0  0  0  0  0
   38.0923   34.8528   47.1832 H   0  0  0  0  0  0  0  0  0  0  0  0
   36.9444   36.5723   48.2834 H   0  0  0  0  0  0  0  0  0  0  0  0
   35.2264   36.0058   50.0267 H   0  0  0  0  0  0  0  0  0  0  0  0
   34.2523   34.8559   47.7551 H   0  0  0  0  0  0  0  0  0  0  0  0
  1  6  2  0
  2  1  1  0
  3  4  1  0
  3  2  2  0
  4  5  2  0
  5  6  1  0
  7  8  1  0
  7  3  1  0
  8  9  1  0
  1 10  1  0
  2 11  1  0
  5 12  1  0
  7 13  1  0
  7 14  1  0
  8 15  1  0
  8 16  1  0
 17 18  2  0
 18 19  1  0
 19 20  1  0
 20 21  1  1
 20 22  1  0
 22 23  1  1
 22 24  1  0
 24 18  1  0
 19 25  1  6
 20 26  1  0
 22 27  1  0
 24 28  1  0
  9 19  1  0
M  ISO  8  10  14  11  14  12  14  13   8  14   8  15   8  16   8  21   8
M  ISO  1  23   8
M  END
>  <DihAtoms>  (1) 
7,8,18,17

>  <DihDeg>  (1) 
-179.99508937412037

$$$$
