
     RDKit          3D

 36 38  0  0  0  0  0  0  0  0999 V2000
   36.9926   31.5621   48.6689 C   0  0  1  0  0  0  0  0  0  0  0  0
   36.2384   30.9004   47.6306 C   0  0  0  0  0  0  0  0  0  0  0  0
   37.1831   30.1257   48.4876 C   0  0  2  0  0  0  0  0  0  0  0  0
   38.1515   32.4553   48.3293 C   0  0  0  0  0  0  0  0  0  0  0  0
   38.5456   33.3659   49.3364 C   0  0  0  0  0  0  0  0  0  0  0  0
   39.6094   34.1665   48.9917 C   0  0  0  0  0  0  0  0  0  0  0  0
   40.1996   34.0465   47.7577 N   0  0  0  0  0  0  0  0  0  0  0  0
   39.7852   33.1624   46.8342 C   0  0  0  0  0  0  0  0  0  0  0  0
   38.7256   32.3457   47.1418 N   0  0  0  0  0  0  0  0  0  0  0  0
   40.3845   33.0346   45.5736 N   0  0  0  0  0  0  0  0  0  0  0  0
   36.5835   29.3123   49.4595 O   0  0  0  0  0  0  0  0  0  0  0  0
   34.6064   27.6761   49.6942 O   0  0  0  0  0  0  0  0  0  0  0  0
   35.0115   28.9562   49.0368 P   0  0  1  0  0  0  0  0  0  0  0  0
   33.9591   30.1595   49.7066 O   0  0  0  0  0  0  0  0  0  0  0  0
   34.8771   28.9378   47.3651 O   0  0  0  0  0  0  0  0  0  0  0  0
   36.5371   31.8396   49.6821 H   0  0  0  0  0  0  0  0  0  0  0  0
   35.2093   31.1641   47.7604 H   0  0  0  0  0  0  0  0  0  0  0  0
   36.5768   31.0741   46.5876 H   0  0  0  0  0  0  0  0  0  0  0  0
   37.9157   29.6163   47.8984 H   0  0  0  0  0  0  0  0  0  0  0  0
   38.0812   33.4572   50.3020 H   0  0  0  0  0  0  0  0  0  0  0  0
   39.9895   34.8975   49.6910 H   0  0  0  0  0  0  0  0  0  0  0  0
   40.1481   32.2722   44.9322 H   0  0  0  0  0  0  0  0  0  0  0  0
   41.0978   33.7240   45.2516 H   0  0  0  0  0  0  0  0  0  0  0  0
   34.0445   30.0127   50.6819 H   0  0  0  0  0  0  0  0  0  0  0  0
   32.8071   26.8149   47.7707 O   0  0  0  0  0  0  0  0  0  0  0  0
   34.0210   26.7938   47.4404 C   0  0  0  0  0  0  0  0  0  0  0  0
   34.9915   27.7064   46.7813 C   0  0  2  0  0  0  0  0  0  0  0  0
   36.3349   27.1068   47.1818 C   0  0  2  0  0  0  0  0  0  0  0  0
   36.6628   27.4338   48.1753 H   0  0  0  0  0  0  0  0  0  0  0  0
   36.0156   25.6178   47.1239 C   0  0  2  0  0  0  0  0  0  0  0  0
   36.7877   25.0549   47.6526 H   0  0  0  0  0  0  0  0  0  0  0  0
   34.7130   25.5855   47.7608 N   0  0  0  0  0  0  0  0  0  0  0  0
   34.9022   27.6972   45.6742 H   0  0  0  0  0  0  0  0  0  0  0  0
   37.0708   27.3891   46.3841 H   0  0  0  0  0  0  0  0  0  0  0  0
   35.9026   25.3668   46.0495 H   0  0  0  0  0  0  0  0  0  0  0  0
   34.4653   24.7337   48.3363 H   0  0  0  0  0  0  0  0  0  0  0  0
  2  3  1  0
  2  1  1  0
  3  1  1  0
  3 11  1  0
  4  1  1  0
  4  5  2  0
  6  5  1  0
  7  6  2  0
  8  9  2  0
  8  7  1  0
  9  4  1  0
 10  8  1  0
 13 11  1  6
 13 12  2  0
 13 14  1  0
 15 13  1  0
  1 16  1  1
  2 17  1  0
  2 18  1  0
  3 19  1  6
  5 20  1  0
  6 21  1  0
 10 22  1  0
 10 23  1  0
 14 24  1  0
 25 26  2  0
 26 27  1  0
 27 28  1  0
 28 29  1  1
 28 30  1  0
 30 31  1  1
 30 32  1  0
 32 26  1  0
 27 33  1  6
 28 34  1  0
 30 35  1  0
 32 36  1  0
 15 27  1  0
M  ISO  8  16  13  17  13  18  13  19  13  20  14  21  14  24   3  29   8
M  ISO  1  31   8
M  END
>  <DihAtoms>  (1) 
12,14,26,25

>  <DihDeg>  (1) 
-126.85463064127408

$$$$
