
     RDKit          3D

 36 38  0  0  1  0  0  0  0  0999 V2000
   37.0360   31.5600   48.6340 C   0  0  1  0  0  0  0  0  0  0  0  0
   36.3160   30.8560   47.5980 C   0  0  0  0  0  0  0  0  0  0  0  0
   37.2580   30.1240   48.4940 C   0  0  2  0  0  0  0  0  0  0  0  0
   38.1830   32.4670   48.2950 C   0  0  0  0  0  0  0  0  0  0  0  0
   38.5400   33.4100   49.2870 C   0  0  0  0  0  0  0  0  0  0  0  0
   39.5940   34.2230   48.9440 C   0  0  0  0  0  0  0  0  0  0  0  0
   40.2110   34.0860   47.7250 N   0  0  0  0  0  0  0  0  0  0  0  0
   39.8320   33.1710   46.8150 C   0  0  0  0  0  0  0  0  0  0  0  0
   38.7830   32.3420   47.1220 N   0  0  0  0  0  0  0  0  0  0  0  0
   40.4590   33.0260   45.5700 N   0  0  0  0  0  0  0  0  0  0  0  0
   36.6560   29.3230   49.4730 O   0  0  0  0  0  0  0  0  0  0  0  0
   34.6330   27.7610   49.8090 O   0  0  0  0  0  0  0  0  0  0  0  0
   35.0800   28.9720   49.0560 P   0  0  1  0  0  0  0  0  0  0  0  0
   34.0500   30.2520   49.6080 O   0  0  0  0  0  0  0  0  0  0  0  0
   34.9700   28.8190   47.3890 O   0  0  0  0  0  0  0  0  0  0  0  0
   32.7230   30.4350   46.2510 O   0  0  0  0  0  0  0  0  0  0  0  0
   32.7960   29.2880   46.7630 C   0  0  0  0  0  0  0  0  0  0  0  0
   33.8250   28.2280   46.9300 C   0  0  2  0  0  0  0  0  0  0  0  0
   33.2410   27.3740   48.0490 C   0  0  0  0  0  0  0  0  0  0  0  0
   31.7580   27.4170   47.7040 C   0  0  0  0  0  0  0  0  0  0  0  0
   31.5900   28.8180   47.3670 N   0  0  0  0  0  0  0  0  0  0  0  0
   36.7114   32.2333   49.4410 H   0  0  0  0  0  0  0  0  0  0  0  0
   36.5738   31.0170   46.5408 H   0  0  0  0  0  0  0  0  0  0  0  0
   35.2572   30.7450   47.3212 H   0  0  0  0  0  0  0  0  0  0  0  0
   38.1334   29.4728   48.3539 H   0  0  0  0  0  0  0  0  0  0  0  0
   38.0179   33.4864   50.2522 H   0  0  0  0  0  0  0  0  0  0  0  0
   39.9457   34.9888   49.6511 H   0  0  0  0  0  0  0  0  0  0  0  0
   41.2487   33.6368   45.3169 H   0  0  0  0  0  0  0  0  0  0  0  0
   40.1301   32.3086   44.9082 H   0  0  0  0  0  0  0  0  0  0  0  0
   34.0403   30.2641   50.5979 H   0  0  0  0  0  0  0  0  0  0  0  0
   34.0535   27.6672   46.0117 H   0  0  0  0  0  0  0  0  0  0  0  0
   33.6329   26.3466   48.0196 H   0  0  0  0  0  0  0  0  0  0  0  0
   33.4812   27.7284   49.0623 H   0  0  0  0  0  0  0  0  0  0  0  0
   31.5235   26.7655   46.8493 H   0  0  0  0  0  0  0  0  0  0  0  0
   31.0961   27.0625   48.5079 H   0  0  0  0  0  0  0  0  0  0  0  0
   30.7431   29.3796   47.5351 H   0  0  0  0  0  0  0  0  0  0  0  0
  2  3  1  0
  2  1  1  0
  3  1  1  0
  3 11  1  0
  4  1  1  0
  4  5  2  0
  6  5  1  0
  7  6  2  0
  8  9  2  0
  8  7  1  0
  9  4  1  0
 10  8  1  0
 13 11  1  0
 13 14  1  0
 13 12  2  0
 15 13  1  0
 16 17  2  0
 17 18  1  0
 17 21  1  0
 18 15  1  0
 18 19  1  0
 20 19  1  0
 21 20  1  0
  1 22  1  1
  2 23  1  0
  2 24  1  0
  3 25  1  6
  5 26  1  0
  6 27  1  0
 10 28  1  0
 10 29  1  0
 14 30  1  0
 18 31  1  6
 19 32  1  0
 19 33  1  0
 20 34  1  0
 20 35  1  0
 21 36  1  0
M  ISO  8  22  13  23  13  24  13  25  13  26  14  27  14  30   3  31  13
M  ISO  5  32  13  33  13  34  13  35  13  36  10
M  END
>  <minimizedAffinity>  (1) 
-5.14579535

>  <minimizedRMSD>  (1) 
1.50403035

$$$$
