
     RDKit          3D

 40 42  0  0  1  0  0  0  0  0999 V2000
   37.1090   29.9700   48.8350 C   0  0  0  0  0  0  0  0  0  0  0  0
   38.0840   30.5280   47.9890 C   0  0  0  0  0  0  0  0  0  0  0  0
   37.6750   30.9360   46.7160 C   0  0  0  0  0  0  0  0  0  0  0  0
   36.3820   30.7810   46.3590 N   0  0  0  0  0  0  0  0  0  0  0  0
   35.4590   30.2360   47.2030 C   0  0  0  0  0  0  0  0  0  0  0  0
   35.8370   29.8390   48.4280 N   0  0  0  0  0  0  0  0  0  0  0  0
   38.6000   31.5030   45.8160 N   0  0  0  0  0  0  0  0  0  0  0  0
   39.7940   32.2630   46.2070 C   0  0  0  0  0  0  0  0  0  0  0  0
   40.3460   32.8650   44.9580 C   0  0  0  0  0  0  0  0  0  0  0  0
   39.1880   32.8110   44.0250 C   0  0  0  0  0  0  0  0  0  0  0  0
   38.5980   31.4770   44.4020 C   0  0  2  0  0  0  0  0  0  0  0  0
   37.3090   31.2290   43.7020 C   0  0  0  0  0  0  0  0  0  0  0  0
   36.5120   32.3400   43.9470 F   0  0  0  0  0  0  0  0  0  0  0  0
   36.6000   30.1480   44.1210 F   0  0  0  0  0  0  0  0  0  0  0  0
   37.5660   31.2360   42.3490 F   0  0  0  0  0  0  0  0  0  0  0  0
   39.5360   30.3870   43.9900 C   0  0  0  0  0  0  0  0  0  0  0  0
   38.9830   29.3090   44.2120 O   0  0  0  0  0  0  0  0  0  0  0  0
   41.3520   29.5850   42.1470 O   0  0  0  0  0  0  0  0  0  0  0  0
   40.4400   28.7430   42.3930 C   0  0  0  0  0  0  0  0  0  0  0  0
   39.3260   28.3120   43.3110 C   0  0  2  0  0  0  0  0  0  0  0  0
   38.2740   27.9770   42.3050 C   0  0  0  0  0  0  0  0  0  0  0  0
   39.0780   27.0300   41.4100 C   0  0  0  0  0  0  0  0  0  0  0  0
   40.3740   27.7010   41.3980 N   0  0  0  0  0  0  0  0  0  0  0  0
   37.3929   29.6364   49.8440 H   0  0  0  0  0  0  0  0  0  0  0  0
   39.1283   30.6391   48.3163 H   0  0  0  0  0  0  0  0  0  0  0  0
   34.4130   30.1228   46.8819 H   0  0  0  0  0  0  0  0  0  0  0  0
   39.5229   33.0541   46.9216 H   0  0  0  0  0  0  0  0  0  0  0  0
   40.5353   31.6128   46.6945 H   0  0  0  0  0  0  0  0  0  0  0  0
   40.6697   33.9025   45.1279 H   0  0  0  0  0  0  0  0  0  0  0  0
   41.2353   32.3406   44.5784 H   0  0  0  0  0  0  0  0  0  0  0  0
   39.5115   32.8301   42.9738 H   0  0  0  0  0  0  0  0  0  0  0  0
   38.4932   33.6600   44.1050 H   0  0  0  0  0  0  0  0  0  0  0  0
   40.4676   30.4560   44.5708 H   0  0  0  0  0  0  0  0  0  0  0  0
   39.7846   30.4780   42.9223 H   0  0  0  0  0  0  0  0  0  0  0  0
   39.5532   27.4761   43.9890 H   0  0  0  0  0  0  0  0  0  0  0  0
   37.4108   27.4738   42.7651 H   0  0  0  0  0  0  0  0  0  0  0  0
   37.8237   28.8393   41.7915 H   0  0  0  0  0  0  0  0  0  0  0  0
   39.1476   26.0224   41.8459 H   0  0  0  0  0  0  0  0  0  0  0  0
   38.6416   26.8638   40.4141 H   0  0  0  0  0  0  0  0  0  0  0  0
   41.1451   27.4605   40.7589 H   0  0  0  0  0  0  0  0  0  0  0  0
  2  1  2  0
  3  2  1  0
  4  3  2  0
  4  5  1  0
  5  6  2  0
  6  1  1  0
  7  8  1  0
  7  3  1  0
  9  8  1  0
 10 11  1  0
 10  9  1  0
 11 12  1  6
 11  7  1  0
 12 13  1  0
 12 14  1  0
 15 12  1  0
 16 17  1  0
 16 11  1  0
 18 19  2  0
 19 20  1  0
 20 17  1  0
 21 20  1  0
 22 21  1  0
 23 22  1  0
 23 19  1  0
  1 24  1  0
  2 25  1  0
  5 26  1  0
  8 27  1  0
  8 28  1  0
  9 29  1  0
  9 30  1  0
 10 31  1  0
 10 32  1  0
 16 33  1  0
 16 34  1  0
 20 35  1  1
 21 36  1  0
 21 37  1  0
 22 38  1  0
 22 39  1  0
 23 40  1  0
M  ISO  8  24  14  25  14  26  14  27  13  28  13  29  13  30  13  31  13
M  ISO  8  32  13  33   8  34   8  35  13  36  13  37  13  38  13  39  13
M  ISO  1  40  10
M  END
>  <minimizedAffinity>  (1) 
-4.86540699

>  <minimizedRMSD>  (1) 
1.19492388

$$$$
