
     RDKit          3D

 34 35  0  0  0  0  0  0  0  0999 V2000
   38.1860   31.8640   47.4370 C   0  0  0  0  0  0  0  0  0  0  0  0
   38.7950   32.6740   48.3560 C   0  0  0  0  0  0  0  0  0  0  0  0
   38.3750   32.7360   49.6900 C   0  0  0  0  0  0  0  0  0  0  0  0
   37.2550   31.8960   50.0700 C   0  0  0  0  0  0  0  0  0  0  0  0
   36.6990   31.1180   49.1110 C   0  0  0  0  0  0  0  0  0  0  0  0
   37.1080   31.0670   47.8320 C   0  0  0  0  0  0  0  0  0  0  0  0
   39.9840   31.2390   45.9110 C   0  0  0  0  0  0  0  0  0  0  0  0
   38.7500   31.8950   46.1040 C   0  0  0  0  0  0  0  0  0  0  0  0
   38.2300   32.4850   44.9790 C   0  0  0  0  0  0  0  0  0  0  0  0
   38.8850   32.4150   43.8040 N   0  0  0  0  0  0  0  0  0  0  0  0
   40.0320   31.8010   43.6430 C   0  0  0  0  0  0  0  0  0  0  0  0
   40.5810   31.2140   44.6960 N   0  0  0  0  0  0  0  0  0  0  0  0
   35.0760   30.0690   47.1970 C   0  0  0  0  0  0  0  0  0  0  0  0
   34.5910   30.5920   48.2780 O   0  0  0  0  0  0  0  0  0  0  0  0
   36.4820   30.2740   46.9040 N   0  0  0  0  0  0  0  0  0  0  0  0
   34.2500   29.3480   46.3800 O   0  0  0  0  0  0  0  0  0  0  0  0
   32.8630   29.4360   46.3710 C   0  0  0  0  0  0  0  0  0  0  0  0
   32.2390   30.5250   45.9720 O   0  0  0  0  0  0  0  0  0  0  0  0
   32.0100   28.2970   46.7880 C   0  0  0  0  0  0  0  0  0  0  0  0
   31.9830   27.8310   48.0120 C   0  0  0  0  0  0  0  0  0  0  0  0
   31.1470   26.6940   48.4800 C   0  0  0  0  0  0  0  0  0  0  0  0
   39.6430   33.2974   48.0361 H   0  0  0  0  0  0  0  0  0  0  0  0
   38.8726   33.3931   50.4184 H   0  0  0  0  0  0  0  0  0  0  0  0
   36.8709   31.8911   51.1007 H   0  0  0  0  0  0  0  0  0  0  0  0
   35.8502   30.4810   49.4003 H   0  0  0  0  0  0  0  0  0  0  0  0
   40.4695   30.7392   46.7622 H   0  0  0  0  0  0  0  0  0  0  0  0
   37.2703   33.0195   45.0374 H   0  0  0  0  0  0  0  0  0  0  0  0
   40.5252   31.7740   42.6601 H   0  0  0  0  0  0  0  0  0  0  0  0
   36.9592   29.8676   46.0866 H   0  0  0  0  0  0  0  0  0  0  0  0
   31.3684   27.8200   46.0325 H   0  0  0  0  0  0  0  0  0  0  0  0
   32.6313   28.3205   48.7536 H   0  0  0  0  0  0  0  0  0  0  0  0
   31.1342   26.6766   49.5798 H   0  0  0  0  0  0  0  0  0  0  0  0
   30.1205   26.8141   48.1032 H   0  0  0  0  0  0  0  0  0  0  0  0
   31.5677   25.7501   48.1032 H   0  0  0  0  0  0  0  0  0  0  0  0
  1  6  1  0
  1  2  2  0
  2  3  1  0
  3  4  2  0
  5  4  1  0
  6  5  2  0
  7  8  2  0
  8  1  1  0
  9  8  1  0
 10  9  2  0
 11 10  1  0
 11 12  2  0
 12  7  1  0
 13 14  2  0
 15 13  1  0
 15  6  1  0
 16 13  1  0
 17 16  1  0
 17 19  1  0
 18 17  2  0
 19 20  2  0
 20 21  1  0
  2 22  1  0
  3 23  1  0
  4 24  1  0
  5 25  1  0
  7 26  1  0
  9 27  1  0
 11 28  1  0
 15 29  1  0
 19 30  1  0
 20 31  1  0
 21 32  1  0
 21 33  1  0
 21 34  1  0
M  ISO  8  22  14  23  14  24  14  25  14  26  14  27  14  28  14  32   8
M  ISO  2  33   8  34   8
M  END
>  <minimizedAffinity>  (1) 
-5.60416746

>  <minimizedRMSD>  (1) 
1.35501695

$$$$
