
     RDKit          3D

 33 34  0  0  1  0  0  0  0  0999 V2000
   35.3360   30.3780   49.6010 C   0  0  2  0  0  0  0  0  0  0  0  0
   36.3220   31.0310   48.6530 C   0  0  0  0  0  0  0  0  0  0  0  0
   37.7150   30.4990   48.8000 C   0  0  2  0  0  0  0  0  0  0  0  0
   38.2300   30.5570   50.2160 C   0  0  0  0  0  0  0  0  0  0  0  0
   37.1940   30.2000   51.2380 C   0  0  0  0  0  0  0  0  0  0  0  0
   35.9940   29.5110   50.6180 C   0  0  0  0  0  0  0  0  0  0  0  0
   34.3750   29.5360   48.8280 C   0  0  0  0  0  0  0  0  0  0  0  0
   34.2790   29.8060   47.4520 C   0  0  0  0  0  0  0  0  0  0  0  0
   33.3750   29.0320   46.7220 C   0  0  0  0  0  0  0  0  0  0  0  0
   32.6400   28.0650   47.3790 N   0  0  0  0  0  0  0  0  0  0  0  0
   32.7670   27.8420   48.7050 C   0  0  0  0  0  0  0  0  0  0  0  0
   33.6370   28.5860   49.4090 N   0  0  0  0  0  0  0  0  0  0  0  0
   38.6040   31.3990   48.0100 C   0  0  0  0  0  0  0  0  0  0  0  0
   38.7700   32.6880   48.2440 C   0  0  0  0  0  0  0  0  0  0  0  0
   38.0220   33.2920   49.3720 C   0  0  0  0  0  0  0  0  0  0  0  0
   34.8227   31.1960   50.1277 H   0  0  0  0  0  0  0  0  0  0  0  0
   36.3368   32.1126   48.8529 H   0  0  0  0  0  0  0  0  0  0  0  0
   35.9907   30.8076   47.6282 H   0  0  0  0  0  0  0  0  0  0  0  0
   37.7067   29.4490   48.4722 H   0  0  0  0  0  0  0  0  0  0  0  0
   39.0709   29.8542   50.3109 H   0  0  0  0  0  0  0  0  0  0  0  0
   38.5347   31.5960   50.4098 H   0  0  0  0  0  0  0  0  0  0  0  0
   37.6458   29.5255   51.9803 H   0  0  0  0  0  0  0  0  0  0  0  0
   36.8447   31.1323   51.7058 H   0  0  0  0  0  0  0  0  0  0  0  0
   35.2683   29.2741   51.4100 H   0  0  0  0  0  0  0  0  0  0  0  0
   36.3403   28.5936   50.1195 H   0  0  0  0  0  0  0  0  0  0  0  0
   34.8863   30.5887   46.9738 H   0  0  0  0  0  0  0  0  0  0  0  0
   33.2502   29.1900   45.6406 H   0  0  0  0  0  0  0  0  0  0  0  0
   32.1680   27.0639   49.2007 H   0  0  0  0  0  0  0  0  0  0  0  0
   39.1620   30.9569   47.1714 H   0  0  0  0  0  0  0  0  0  0  0  0
   39.4430   33.2950   47.6207 H   0  0  0  0  0  0  0  0  0  0  0  0
   38.4510   32.9456   50.3238 H   0  0  0  0  0  0  0  0  0  0  0  0
   38.0942   34.3881   49.3147 H   0  0  0  0  0  0  0  0  0  0  0  0
   36.9657   32.9906   49.3147 H   0  0  0  0  0  0  0  0  0  0  0  0
  1  6  1  0
  2  3  1  0
  2  1  1  0
  3  4  1  0
  4  5  1  0
  6  5  1  0
  7 12  1  0
  7  1  1  0
  8  7  2  0
  9 10  2  0
  9  8  1  0
 10 11  1  0
 11 12  2  0
 13 14  2  0
 13  3  1  0
 14 15  1  0
  1 16  1  1
  2 17  1  0
  2 18  1  0
  3 19  1  6
  4 20  1  0
  4 21  1  0
  5 22  1  0
  5 23  1  0
  6 24  1  0
  6 25  1  0
  8 26  1  0
  9 27  1  0
 11 28  1  0
 13 29  1  0
 14 30  1  0
 15 31  1  0
 15 32  1  0
 15 33  1  0
M  ISO  8  16  13  17  13  18  13  19  13  20  13  21  13  22  13  23  13
M  ISO  8  24  13  25  13  26  14  27  14  28  14  31   8  32   8  33   8
M  END
>  <minimizedAffinity>  (1) 
-5.93936539

>  <minimizedRMSD>  (1) 
0.915589094

$$$$
