
     RDKit          3D

 33 34  0  0  0  0  0  0  0  0999 V2000
   35.4630   30.2990   49.8610 C   0  0  0  0  0  0  0  0  0  0  0  0
   36.4260   31.1770   49.0960 C   0  0  0  0  0  0  0  0  0  0  0  0
   37.8570   30.7550   49.2580 C   0  0  0  0  0  0  0  0  0  0  0  0
   38.2840   30.6620   50.6960 C   0  0  0  0  0  0  0  0  0  0  0  0
   37.2490   30.0430   51.5830 C   0  0  0  0  0  0  0  0  0  0  0  0
   36.1410   29.3630   50.8010 C   0  0  0  0  0  0  0  0  0  0  0  0
   34.6560   29.4820   48.9080 C   0  0  0  0  0  0  0  0  0  0  0  0
   34.1690   30.1340   47.7620 C   0  0  0  0  0  0  0  0  0  0  0  0
   33.4110   29.3830   46.8730 C   0  0  0  0  0  0  0  0  0  0  0  0
   33.1740   28.0710   47.1410 N   0  0  0  0  0  0  0  0  0  0  0  0
   33.6620   27.4600   48.2660 C   0  0  0  0  0  0  0  0  0  0  0  0
   34.3930   28.1720   49.1310 N   0  0  0  0  0  0  0  0  0  0  0  0
   32.8560   29.9540   45.6530 C   0  0  0  0  0  0  0  0  0  0  0  0
   32.1900   31.0950   45.6380 C   0  0  0  0  0  0  0  0  0  0  0  0
   31.6130   31.7030   44.4120 C   0  0  0  0  0  0  0  0  0  0  0  0
   34.8311   30.9803   50.4497 H   0  0  0  0  0  0  0  0  0  0  0  0
   36.3219   32.2105   49.4580 H   0  0  0  0  0  0  0  0  0  0  0  0
   36.1752   31.0895   48.0285 H   0  0  0  0  0  0  0  0  0  0  0  0
   37.9863   29.7681   48.7897 H   0  0  0  0  0  0  0  0  0  0  0  0
   38.4821   31.5228   48.7788 H   0  0  0  0  0  0  0  0  0  0  0  0
   39.1988   30.0535   50.7498 H   0  0  0  0  0  0  0  0  0  0  0  0
   38.4473   31.6892   51.0541 H   0  0  0  0  0  0  0  0  0  0  0  0
   37.7371   29.2950   52.2251 H   0  0  0  0  0  0  0  0  0  0  0  0
   36.7921   30.8498   52.1748 H   0  0  0  0  0  0  0  0  0  0  0  0
   35.3965   28.9703   51.5092 H   0  0  0  0  0  0  0  0  0  0  0  0
   36.5923   28.5544   50.2073 H   0  0  0  0  0  0  0  0  0  0  0  0
   34.3800   31.1975   47.5765 H   0  0  0  0  0  0  0  0  0  0  0  0
   33.4551   26.3964   48.4557 H   0  0  0  0  0  0  0  0  0  0  0  0
   32.9972   29.4131   44.7056 H   0  0  0  0  0  0  0  0  0  0  0  0
   32.0547   31.6268   46.5913 H   0  0  0  0  0  0  0  0  0  0  0  0
   30.8812   32.4741   44.6946 H   0  0  0  0  0  0  0  0  0  0  0  0
   32.4167   32.1609   43.8166 H   0  0  0  0  0  0  0  0  0  0  0  0
   31.1137   30.9244   43.8166 H   0  0  0  0  0  0  0  0  0  0  0  0
  1  6  1  0
  2  3  1  0
  2  1  1  0
  3  4  1  0
  4  5  1  0
  6  5  1  0
  7 12  1  0
  7  1  1  0
  8  7  2  0
  9 10  2  0
  9  8  1  0
 10 11  1  0
 11 12  2  0
 13  9  1  0
 14 13  2  0
 15 14  1  0
  1 16  1  0
  2 17  1  0
  2 18  1  0
  3 19  1  0
  3 20  1  0
  4 21  1  0
  4 22  1  0
  5 23  1  0
  5 24  1  0
  6 25  1  0
  6 26  1  0
  8 27  1  0
 11 28  1  0
 13 29  1  0
 14 30  1  0
 15 31  1  0
 15 32  1  0
 15 33  1  0
M  ISO  8  16  13  17  13  18  13  19  13  20  13  21  13  22  13  23  13
M  ISO  8  24  13  25  13  26  13  27  14  28  14  31   8  32   8  33   8
M  END
>  <minimizedAffinity>  (1) 
-5.0414362

>  <minimizedRMSD>  (1) 
0.673725307

$$$$
