
     RDKit          3D

 41 43  0  0  1  0  0  0  0  0999 V2000
   36.9590   30.8440   48.3080 N   0  0  0  0  0  0  0  0  0  0  0  0
   37.0700   31.7120   49.4500 C   0  0  0  0  0  0  0  0  0  0  0  0
   38.3110   32.5330   49.4730 C   0  0  0  0  0  0  0  0  0  0  0  0
   38.8470   32.8070   48.0880 C   0  0  0  0  0  0  0  0  0  0  0  0
   39.2150   31.4270   47.5490 C   0  0  0  0  0  0  0  0  0  0  0  0
   37.9500   30.6780   47.2720 C   0  0  2  0  0  0  0  0  0  0  0  0
   35.5470   28.9820   49.0330 C   0  0  0  0  0  0  0  0  0  0  0  0
   35.7610   30.0890   48.2000 C   0  0  0  0  0  0  0  0  0  0  0  0
   34.7570   30.4150   47.2800 C   0  0  0  0  0  0  0  0  0  0  0  0
   33.6320   29.6390   47.2460 N   0  0  0  0  0  0  0  0  0  0  0  0
   33.4680   28.5920   48.0570 C   0  0  0  0  0  0  0  0  0  0  0  0
   34.4220   28.2520   48.9580 N   0  0  0  0  0  0  0  0  0  0  0  0
   32.2490   27.7930   47.9940 C   0  0  0  0  0  0  0  0  0  0  0  0
   31.3900   27.7370   49.0480 C   0  0  0  0  0  0  0  0  0  0  0  0
   30.2280   26.9990   49.0320 C   0  0  0  0  0  0  0  0  0  0  0  0
   29.9900   26.3100   47.8640 C   0  0  0  0  0  0  0  0  0  0  0  0
   30.8380   26.3320   46.7530 C   0  0  0  0  0  0  0  0  0  0  0  0
   31.9720   27.0960   46.8620 N   0  0  0  0  0  0  0  0  0  0  0  0
   37.3950   31.3020   46.0370 C   0  0  0  0  0  0  0  0  0  0  0  0
   37.7800   30.8840   44.8370 C   0  0  0  0  0  0  0  0  0  0  0  0
   38.7500   29.8140   44.5200 C   0  0  0  0  0  0  0  0  0  0  0  0
   36.2059   32.3926   49.4514 H   0  0  0  0  0  0  0  0  0  0  0  0
   37.1029   31.0638   50.3381 H   0  0  0  0  0  0  0  0  0  0  0  0
   38.0902   33.4930   49.9624 H   0  0  0  0  0  0  0  0  0  0  0  0
   39.0772   31.9666   50.0227 H   0  0  0  0  0  0  0  0  0  0  0  0
   38.0784   33.2794   47.4586 H   0  0  0  0  0  0  0  0  0  0  0  0
   39.7029   33.4979   48.0965 H   0  0  0  0  0  0  0  0  0  0  0  0
   39.7954   31.5330   46.6206 H   0  0  0  0  0  0  0  0  0  0  0  0
   39.8241   30.8826   48.2856 H   0  0  0  0  0  0  0  0  0  0  0  0
   38.1717   29.6034   47.1945 H   0  0  0  0  0  0  0  0  0  0  0  0
   36.3190   28.7045   49.7658 H   0  0  0  0  0  0  0  0  0  0  0  0
   34.8706   31.2736   46.6019 H   0  0  0  0  0  0  0  0  0  0  0  0
   31.6357   28.3083   49.9554 H   0  0  0  0  0  0  0  0  0  0  0  0
   29.5401   26.9625   49.8896 H   0  0  0  0  0  0  0  0  0  0  0  0
   29.0743   25.7037   47.8011 H   0  0  0  0  0  0  0  0  0  0  0  0
   30.6078   25.7658   45.8384 H   0  0  0  0  0  0  0  0  0  0  0  0
   36.6599   32.1160   46.1207 H   0  0  0  0  0  0  0  0  0  0  0  0
   37.3230   31.3944   43.9764 H   0  0  0  0  0  0  0  0  0  0  0  0
   39.1399   29.3839   45.4544 H   0  0  0  0  0  0  0  0  0  0  0  0
   38.2505   29.0278   43.9349 H   0  0  0  0  0  0  0  0  0  0  0  0
   39.5813   30.2343   43.9349 H   0  0  0  0  0  0  0  0  0  0  0  0
  1  2  1  0
  2  3  1  0
  4  3  1  0
  5  4  1  0
  6  5  1  0
  6  1  1  0
  8  1  1  0
  8  7  2  0
  9  8  1  0
 10  9  2  0
 10 11  1  0
 11 12  2  0
 12  7  1  0
 13 11  1  0
 13 14  2  0
 15 14  1  0
 16 15  2  0
 17 18  2  0
 17 16  1  0
 18 13  1  0
 19  6  1  0
 20 19  2  0
 21 20  1  0
  2 22  1  0
  2 23  1  0
  3 24  1  0
  3 25  1  0
  4 26  1  0
  4 27  1  0
  5 28  1  0
  5 29  1  0
  6 30  1  6
  7 31  1  0
  9 32  1  0
 14 33  1  0
 15 34  1  0
 16 35  1  0
 17 36  1  0
 19 37  1  0
 20 38  1  0
 21 39  1  0
 21 40  1  0
 21 41  1  0
M  ISO  8  22  13  23  13  24  13  25  13  26  13  27  13  28  13  29  13
M  ISO  8  30  13  31  14  32  14  33  14  34  14  35  14  36  14  39   8
M  ISO  2  40   8  41   8
M  END
>  <minimizedAffinity>  (1) 
-5.24983788

>  <minimizedRMSD>  (1) 
1.25969255

$$$$
