
     RDKit          3D

 41 43  0  0  1  0  0  0  0  0999 V2000
   40.0970   30.8800   44.5360 N   0  0  0  0  0  0  0  0  0  0  0  0
   39.2800   30.6860   45.7290 C   0  0  0  0  0  0  0  0  0  0  0  0
   38.3970   31.8080   46.0480 C   0  0  2  0  0  0  0  0  0  0  0  0
   39.0930   33.1170   45.9220 N   0  0  0  0  0  0  0  0  0  0  0  0
   39.6550   33.1800   44.5600 C   0  0  0  0  0  0  0  0  0  0  0  0
   40.7500   32.1390   44.5910 C   0  0  0  0  0  0  0  0  0  0  0  0
   35.8170   30.3520   46.3100 Cl  0  0  0  0  0  0  0  0  0  0  0  0
   36.7250   31.0070   47.6740 C   0  0  0  0  0  0  0  0  0  0  0  0
   37.8830   31.6810   47.3990 C   0  0  0  0  0  0  0  0  0  0  0  0
   38.7060   32.2520   48.3800 C   0  0  0  0  0  0  0  0  0  0  0  0
   38.2720   32.1010   49.7030 C   0  0  0  0  0  0  0  0  0  0  0  0
   37.0840   31.4150   49.9900 C   0  0  0  0  0  0  0  0  0  0  0  0
   36.3280   30.8760   48.9700 C   0  0  0  0  0  0  0  0  0  0  0  0
   35.0920   30.1580   49.2360 C   0  0  0  0  0  0  0  0  0  0  0  0
   34.9480   28.8750   48.9880 C   0  0  0  0  0  0  0  0  0  0  0  0
   33.7130   28.0950   49.2400 C   0  0  0  0  0  0  0  0  0  0  0  0
   40.1950   29.9060   43.5090 C   0  0  0  0  0  0  0  0  0  0  0  0
   41.1720   29.9770   42.5110 C   0  0  0  0  0  0  0  0  0  0  0  0
   41.2030   28.9810   41.5390 C   0  0  0  0  0  0  0  0  0  0  0  0
   40.2560   27.9690   41.6160 N   0  0  0  0  0  0  0  0  0  0  0  0
   39.3360   27.9490   42.6000 C   0  0  0  0  0  0  0  0  0  0  0  0
   39.2930   28.8880   43.5310 N   0  0  0  0  0  0  0  0  0  0  0  0
   38.6581   29.7914   45.5779 H   0  0  0  0  0  0  0  0  0  0  0  0
   39.9777   30.5868   46.5736 H   0  0  0  0  0  0  0  0  0  0  0  0
   37.5699   31.7788   45.3233 H   0  0  0  0  0  0  0  0  0  0  0  0
   38.4246   33.8877   46.0644 H   0  0  0  0  0  0  0  0  0  0  0  0
   40.0655   34.1783   44.3483 H   0  0  0  0  0  0  0  0  0  0  0  0
   38.9066   32.9962   43.7751 H   0  0  0  0  0  0  0  0  0  0  0  0
   41.3337   32.2262   45.5193 H   0  0  0  0  0  0  0  0  0  0  0  0
   41.4496   32.2661   43.7517 H   0  0  0  0  0  0  0  0  0  0  0  0
   39.6342   32.7851   48.1265 H   0  0  0  0  0  0  0  0  0  0  0  0
   38.8689   32.5246   50.5242 H   0  0  0  0  0  0  0  0  0  0  0  0
   36.7530   31.3060   51.0333 H   0  0  0  0  0  0  0  0  0  0  0  0
   34.2422   30.7112   49.6624 H   0  0  0  0  0  0  0  0  0  0  0  0
   35.8091   28.3399   48.5612 H   0  0  0  0  0  0  0  0  0  0  0  0
   33.5566   27.9962   50.3243 H   0  0  0  0  0  0  0  0  0  0  0  0
   32.8534   28.6143   48.7913 H   0  0  0  0  0  0  0  0  0  0  0  0
   33.8126   27.0956   48.7913 H   0  0  0  0  0  0  0  0  0  0  0  0
   41.8999   30.8016   42.4944 H   0  0  0  0  0  0  0  0  0  0  0  0
   41.9541   28.9954   40.7354 H   0  0  0  0  0  0  0  0  0  0  0  0
   38.6015   27.1307   42.6301 H   0  0  0  0  0  0  0  0  0  0  0  0
  1  6  1  0
  1  2  1  0
  2  3  1  0
  3  9  1  0
  4  3  1  0
  5  6  1  0
  5  4  1  0
  7  8  1  0
  8 13  2  0
  9  8  1  0
  9 10  2  0
 10 11  1  0
 11 12  2  0
 13 14  1  0
 13 12  1  0
 15 14  2  0
 15 16  1  0
 17 22  1  0
 17  1  1  0
 18 17  2  0
 19 20  2  0
 19 18  1  0
 20 21  1  0
 21 22  2  0
  2 23  1  0
  2 24  1  0
  3 25  1  6
  4 26  1  0
  5 27  1  0
  5 28  1  0
  6 29  1  0
  6 30  1  0
 10 31  1  0
 11 32  1  0
 12 33  1  0
 14 34  1  0
 15 35  1  0
 16 36  1  0
 16 37  1  0
 16 38  1  0
 18 39  1  0
 19 40  1  0
 21 41  1  0
M  ISO  8  23  13  24  13  25  13  26   5  27  13  28  13  29  13  30  13
M  ISO  8  31  14  32  14  33  14  36   8  37   8  38   8  39  14  40  14
M  ISO  1  41  14
M  END
>  <minimizedAffinity>  (1) 
-6.8987608

>  <minimizedRMSD>  (1) 
5.99948406

$$$$
