
     RDKit          3D

 24 24  0  0  0  0  0  0  0  0999 V2000
   37.3565   30.2239   51.4270 C   0  0  0  0  0  0  0  0  0  0  0  0
   38.1165   30.7062   50.3493 C   0  0  0  0  0  0  0  0  0  0  0  0
   37.7038   30.3898   49.0293 C   0  0  0  0  0  0  0  0  0  0  0  0
   36.5758   29.6245   48.9000 N   0  0  0  0  0  0  0  0  0  0  0  0
   35.8837   29.1881   49.9764 C   0  0  0  0  0  0  0  0  0  0  0  0
   36.2691   29.4836   51.2115 N   0  0  0  0  0  0  0  0  0  0  0  0
   34.7071   28.3860   49.7021 C   0  0  0  0  0  0  0  0  0  0  0  0
   34.4608   28.0204   48.4843 C   0  0  0  0  0  0  0  0  0  0  0  0
   33.3457   27.2144   47.9550 C   0  0  0  0  0  0  0  0  0  0  0  0
   37.6206   30.4317   52.4547 H   0  0  0  0  0  0  0  0  0  0  0  0
   38.9898   31.3008   50.5250 H   0  0  0  0  0  0  0  0  0  0  0  0
   38.2650   30.7443   48.1759 H   0  0  0  0  0  0  0  0  0  0  0  0
   33.9851   28.0469   50.4328 H   0  0  0  0  0  0  0  0  0  0  0  0
   35.0999   28.2847   47.6273 H   0  0  0  0  0  0  0  0  0  0  0  0
   32.7300   27.8688   47.2979 H   0  0  0  0  0  0  0  0  0  0  0  0
   32.7360   26.9016   48.8488 H   0  0  0  0  0  0  0  0  0  0  0  0
   33.8068   25.9742   47.2876 C   0  0  0  0  0  0  0  0  0  0  0  0
   34.9516   25.8278   46.6682 C   0  0  0  0  0  0  0  0  0  0  0  0
   35.8982   26.9674   46.6020 C   0  0  0  0  0  0  0  0  0  0  0  0
   35.9994   27.5379   47.5352 H   0  0  0  0  0  0  0  0  0  0  0  0
   33.0610   25.1917   47.3805 H   0  0  0  0  0  0  0  0  0  0  0  0
   35.1535   24.8588   46.2252 H   0  0  0  0  0  0  0  0  0  0  0  0
   36.9113   26.6162   46.2559 H   0  0  0  0  0  0  0  0  0  0  0  0
   35.4985   27.6757   45.8185 H   0  0  0  0  0  0  0  0  0  0  0  0
  2  1  2  0
  3  2  1  0
  4  3  2  0
  4  5  1  0
  5  6  2  0
  6  1  1  0
  7  5  1  0
  8  7  2  0
  9  8  1  0
  1 10  1  0
  2 11  1  0
  3 12  1  0
  7 13  1  0
  8 14  1  0
  9 15  1  0
  9 16  1  0
 17 18  2  3
 18 19  1  0
 19 20  1  0
 17 21  1  0
 18 22  1  0
 19 23  1  0
 19 24  1  0
  9 17  1  0
M  ISO  6  10  14  11  14  12  14  15   8  16   8  20   8
M  END
>  <DihAtoms>  (1) 
7,8,16,17

>  <DihDeg>  (1) 
-120.00368817081944

$$$$
