
     RDKit          3D

 22 22  0  0  0  0  0  0  0  0999 V2000
   36.7854   29.6837   51.1125 C   0  0  0  0  0  0  0  0  0  0  0  0
   37.2992   30.0663   49.8889 C   0  0  0  0  0  0  0  0  0  0  0  0
   36.5490   29.8570   48.7479 C   0  0  0  0  0  0  0  0  0  0  0  0
   35.3190   29.2738   48.8900 N   0  0  0  0  0  0  0  0  0  0  0  0
   34.8331   28.9052   50.1043 C   0  0  0  0  0  0  0  0  0  0  0  0
   35.5726   29.1147   51.2015 N   0  0  0  0  0  0  0  0  0  0  0  0
   38.6330   32.0587   49.4908 C   0  0  0  0  0  0  0  0  0  0  0  0
   37.8058   33.0375   49.4648 O   0  0  0  0  0  0  0  0  0  0  0  0
   38.5461   30.6655   49.6786 N   0  0  0  0  0  0  0  0  0  0  0  0
   37.6507   29.9565   52.1648 O   0  0  0  0  0  0  0  0  0  0  0  0
   36.8931   30.1340   47.7543 H   0  0  0  0  0  0  0  0  0  0  0  0
   33.8601   28.4447   50.2092 H   0  0  0  0  0  0  0  0  0  0  0  0
   39.5661   32.5896   49.3117 H   0  0  0  0  0  0  0  0  0  0  0  0
   39.4477   30.1803   49.6443 H   0  0  0  0  0  0  0  0  0  0  0  0
   37.1932   29.5956   53.4244 C   0  0  0  0  0  0  0  0  0  0  0  0
   35.9264   29.2777   53.5774 C   0  0  0  0  0  0  0  0  0  0  0  0
   34.9037   29.2658   52.5029 C   0  0  0  0  0  0  0  0  0  0  0  0
   35.3342   29.4910   51.4952 H   0  0  0  0  0  0  0  0  0  0  0  0
   37.7962   29.5496   54.3178 H   0  0  0  0  0  0  0  0  0  0  0  0
   35.4642   28.9871   54.4880 H   0  0  0  0  0  0  0  0  0  0  0  0
   34.1375   30.0539   52.7447 H   0  0  0  0  0  0  0  0  0  0  0  0
   34.4359   28.2583   52.4397 H   0  0  0  0  0  0  0  0  0  0  0  0
  1  6  2  0
  1 10  1  0
  2  1  1  0
  3  4  1  0
  3  2  2  0
  4  5  2  0
  5  6  1  0
  7  9  1  0
  8  7  2  0
  9  2  1  0
  3 11  1  0
  5 12  1  0
  7 13  1  0
  9 14  1  0
 15 16  2  3
 16 17  1  0
 17 18  1  0
 15 19  1  0
 16 20  1  0
 17 21  1  0
 17 22  1  0
 10 15  1  0
M  ISO  4  11  14  12  14  13   6  18   8
M  END
>  <DihAtoms>  (1) 
0,9,14,15

>  <DihDeg>  (1) 
152.12599272306534

$$$$
