
     RDKit          3D

 22 22  0  0  0  0  0  0  0  0999 V2000
   36.8140   30.4650   47.7980 C   0  0  0  0  0  0  0  0  0  0  0  0
   37.8410   31.1330   47.1630 C   0  0  0  0  0  0  0  0  0  0  0  0
   37.7660   31.3460   45.8000 C   0  0  0  0  0  0  0  0  0  0  0  0
   36.6620   30.8780   45.1410 N   0  0  0  0  0  0  0  0  0  0  0  0
   35.6620   30.2220   45.7860 C   0  0  0  0  0  0  0  0  0  0  0  0
   35.7500   30.0230   47.1090 N   0  0  0  0  0  0  0  0  0  0  0  0
   38.9080   32.7770   48.6020 C   0  0  0  0  0  0  0  0  0  0  0  0
   37.9740   33.5630   48.9930 O   0  0  0  0  0  0  0  0  0  0  0  0
   38.9920   31.6360   47.7810 N   0  0  0  0  0  0  0  0  0  0  0  0
   37.0290   30.3260   49.1640 O   0  0  0  0  0  0  0  0  0  0  0  0
   36.0660   29.6010   49.8510 C   0  0  0  0  0  0  0  0  0  0  0  0
   36.2080   29.4140   51.1450 C   0  0  0  0  0  0  0  0  0  0  0  0
   37.3330   29.9160   51.9710 C   0  0  0  0  0  0  0  0  0  0  0  0
   38.5672   31.8743   45.2625 H   0  0  0  0  0  0  0  0  0  0  0  0
   34.7875   29.8572   45.2273 H   0  0  0  0  0  0  0  0  0  0  0  0
   39.8882   33.0657   49.0093 H   0  0  0  0  0  0  0  0  0  0  0  0
   39.8998   31.1718   47.6353 H   0  0  0  0  0  0  0  0  0  0  0  0
   35.1954   29.1881   49.3204 H   0  0  0  0  0  0  0  0  0  0  0  0
   35.4256   28.8359   51.6586 H   0  0  0  0  0  0  0  0  0  0  0  0
   37.0837   29.8047   53.0366 H   0  0  0  0  0  0  0  0  0  0  0  0
   38.2408   29.3376   51.7445 H   0  0  0  0  0  0  0  0  0  0  0  0
   37.5088   30.9780   51.7445 H   0  0  0  0  0  0  0  0  0  0  0  0
  1 10  1  0
  2  9  1  0
  2  1  2  0
  3  2  1  0
  4  5  1  0
  4  3  2  0
  5  6  2  0
  6  1  1  0
  7  8  2  0
  9  7  1  0
 10 11  1  0
 11 12  2  0
 12 13  1  0
  3 14  1  0
  5 15  1  0
  7 16  1  0
  9 17  1  0
 11 18  1  0
 12 19  1  0
 13 20  1  0
 13 21  1  0
 13 22  1  0
M  ISO  6  14  14  15  14  16   6  20   8  21   8  22   8
M  END
>  <minimizedAffinity>  (1) 
-4.09088516

>  <minimizedRMSD>  (1) 
3.20146585

$$$$
