
     RDKit          3D

 18 18  0  0  0  0  0  0  0  0999 V2000
   37.3291   30.2341   51.4232 C   0  0  0  0  0  0  0  0  0  0  0  0
   38.0786   30.7365   50.3412 C   0  0  0  0  0  0  0  0  0  0  0  0
   37.7006   30.3749   49.0431 C   0  0  0  0  0  0  0  0  0  0  0  0
   36.6085   29.5423   48.9097 N   0  0  0  0  0  0  0  0  0  0  0  0
   35.9160   29.0813   49.9654 C   0  0  0  0  0  0  0  0  0  0  0  0
   36.2863   29.4347   51.2227 N   0  0  0  0  0  0  0  0  0  0  0  0
   34.8730   28.2712   49.5837 O   0  0  0  0  0  0  0  0  0  0  0  0
   37.6386   30.5251   52.3985 H   0  0  0  0  0  0  0  0  0  0  0  0
   38.9396   31.3924   50.4366 H   0  0  0  0  0  0  0  0  0  0  0  0
   38.2490   30.7390   48.1906 H   0  0  0  0  0  0  0  0  0  0  0  0
   34.0216   27.6831   50.5183 C   0  0  0  0  0  0  0  0  0  0  0  0
   34.3641   27.0503   51.6226 C   0  0  0  0  0  0  0  0  0  0  0  0
   33.3770   26.4460   52.5741 C   0  0  0  0  0  0  0  0  0  0  0  0
   33.3422   27.0890   53.4937 H   0  0  0  0  0  0  0  0  0  0  0  0
   33.0492   27.8886   50.0923 H   0  0  0  0  0  0  0  0  0  0  0  0
   35.4218   27.0017   51.7881 H   0  0  0  0  0  0  0  0  0  0  0  0
   33.7497   25.4432   52.8936 H   0  0  0  0  0  0  0  0  0  0  0  0
   32.3933   26.3570   52.0802 H   0  0  0  0  0  0  0  0  0  0  0  0
  2  1  2  0
  3  2  1  0
  4  3  2  0
  4  5  1  0
  5  6  2  0
  6  1  1  0
  7  5  1  0
  1  8  1  0
  2  9  1  0
  3 10  1  0
 11 12  2  3
 12 13  1  0
 13 14  1  0
 11 15  1  0
 12 16  1  0
 13 17  1  0
 13 18  1  0
  7 11  1  0
M  ISO  4   8  14   9  14  10  14  14   8
M  END
>  <DihAtoms>  (1) 
4,6,10,11

>  <DihDeg>  (1) 
58.39256347050507

$$$$
