
     RDKit          3D

 18 18  0  0  0  0  0  0  0  0999 V2000
   37.3291   30.2341   51.4232 C   0  0  0  0  0  0  0  0  0  0  0  0
   38.0786   30.7365   50.3412 C   0  0  0  0  0  0  0  0  0  0  0  0
   37.7006   30.3749   49.0431 C   0  0  0  0  0  0  0  0  0  0  0  0
   36.6085   29.5423   48.9097 N   0  0  0  0  0  0  0  0  0  0  0  0
   35.9160   29.0813   49.9654 C   0  0  0  0  0  0  0  0  0  0  0  0
   36.2863   29.4347   51.2227 N   0  0  0  0  0  0  0  0  0  0  0  0
   34.8730   28.2712   49.5837 O   0  0  0  0  0  0  0  0  0  0  0  0
   37.6386   30.5251   52.3985 H   0  0  0  0  0  0  0  0  0  0  0  0
   38.9396   31.3924   50.4366 H   0  0  0  0  0  0  0  0  0  0  0  0
   38.2490   30.7390   48.1906 H   0  0  0  0  0  0  0  0  0  0  0  0
   34.0216   27.6831   50.5183 C   0  0  0  0  0  0  0  0  0  0  0  0
   32.9771   26.9169   50.2751 C   0  0  0  0  0  0  0  0  0  0  0  0
   32.1137   26.3246   51.3469 C   0  0  0  0  0  0  0  0  0  0  0  0
   32.3353   25.2255   51.4039 H   0  0  0  0  0  0  0  0  0  0  0  0
   34.4486   28.0231   51.4517 H   0  0  0  0  0  0  0  0  0  0  0  0
   32.7917   26.7489   49.2330 H   0  0  0  0  0  0  0  0  0  0  0  0
   31.0433   26.4242   51.0454 H   0  0  0  0  0  0  0  0  0  0  0  0
   32.2996   26.8459   52.3025 H   0  0  0  0  0  0  0  0  0  0  0  0
  2  1  2  0
  3  2  1  0
  4  3  2  0
  4  5  1  0
  5  6  2  0
  6  1  1  0
  7  5  1  0
  1  8  1  0
  2  9  1  0
  3 10  1  0
 11 12  2  3
 12 13  1  0
 13 14  1  0
 11 15  1  0
 12 16  1  0
 13 17  1  0
 13 18  1  0
  7 11  1  0
M  ISO  4   8  14   9  14  10  14  14   8
M  END
>  <DihAtoms>  (1) 
4,6,10,11

>  <DihDeg>  (1) 
58.39256347050507

$$$$
