
     RDKit          3D

 18 18  0  0  0  0  0  0  0  0999 V2000
   37.3291   30.2341   51.4232 C   0  0  0  0  0  0  0  0  0  0  0  0
   38.0786   30.7365   50.3412 C   0  0  0  0  0  0  0  0  0  0  0  0
   37.7006   30.3749   49.0431 C   0  0  0  0  0  0  0  0  0  0  0  0
   36.6085   29.5423   48.9097 N   0  0  0  0  0  0  0  0  0  0  0  0
   35.9160   29.0813   49.9654 C   0  0  0  0  0  0  0  0  0  0  0  0
   36.2863   29.4347   51.2227 N   0  0  0  0  0  0  0  0  0  0  0  0
   34.8730   28.2712   49.5837 O   0  0  0  0  0  0  0  0  0  0  0  0
   37.6386   30.5251   52.3985 H   0  0  0  0  0  0  0  0  0  0  0  0
   38.9396   31.3924   50.4366 H   0  0  0  0  0  0  0  0  0  0  0  0
   38.2490   30.7390   48.1906 H   0  0  0  0  0  0  0  0  0  0  0  0
   34.0216   27.6831   50.5183 C   0  0  0  0  0  0  0  0  0  0  0  0
   33.1555   26.7119   50.3087 C   0  0  0  0  0  0  0  0  0  0  0  0
   32.2763   26.1379   51.3774 C   0  0  0  0  0  0  0  0  0  0  0  0
   32.6671   25.1184   51.6387 H   0  0  0  0  0  0  0  0  0  0  0  0
   34.2685   28.2299   51.4179 H   0  0  0  0  0  0  0  0  0  0  0  0
   33.1301   26.3602   49.2967 H   0  0  0  0  0  0  0  0  0  0  0  0
   31.2494   25.9949   50.9630 H   0  0  0  0  0  0  0  0  0  0  0  0
   32.2547   26.8203   52.2454 H   0  0  0  0  0  0  0  0  0  0  0  0
  2  1  2  0
  3  2  1  0
  4  3  2  0
  4  5  1  0
  5  6  2  0
  6  1  1  0
  7  5  1  0
  1  8  1  0
  2  9  1  0
  3 10  1  0
 11 12  2  3
 12 13  1  0
 13 14  1  0
 11 15  1  0
 12 16  1  0
 13 17  1  0
 13 18  1  0
  7 11  1  0
M  ISO  4   8  14   9  14  10  14  14   8
M  END
>  <DihAtoms>  (1) 
4,6,10,11

>  <DihDeg>  (1) 
58.39256347050507

$$$$
