
     RDKit          3D

 33 35  0  0  0  0  0  0  0  0999 V2000
   37.8950   31.6325   49.8441 C   0  0  0  0  0  0  0  0  0  0  0  0
   37.9185   31.6555   48.4418 C   0  0  0  0  0  0  0  0  0  0  0  0
   37.0764   30.8243   47.7668 C   0  0  0  0  0  0  0  0  0  0  0  0
   36.2417   30.0220   48.4973 N   0  0  0  0  0  0  0  0  0  0  0  0
   36.2259   30.0212   49.8411 C   0  0  0  0  0  0  0  0  0  0  0  0
   37.0608   30.8259   50.4984 N   0  0  0  0  0  0  0  0  0  0  0  0
   38.2163   31.1937   45.6382 C   0  0  0  0  0  0  0  0  0  0  0  0
   37.0872   30.8066   46.3273 C   0  0  0  0  0  0  0  0  0  0  0  0
   35.9471   30.4738   45.6290 C   0  0  0  0  0  0  0  0  0  0  0  0
   35.8654   30.5115   44.2525 C   0  0  0  0  0  0  0  0  0  0  0  0
   36.9734   30.9005   43.5307 C   0  0  0  0  0  0  0  0  0  0  0  0
   38.0953   31.2236   44.2397 C   0  0  0  0  0  0  0  0  0  0  0  0
   39.6700   31.6482   46.3973 S   0  0  0  0  0  0  0  0  0  0  0  0
   40.1282   32.9982   46.0748 O   0  0  0  0  0  0  0  0  0  0  0  0
   40.7012   30.9029   45.5585 O   0  0  0  0  0  0  0  0  0  0  0  0
   35.1784   29.2077   50.4927 C   0  0  0  0  0  0  0  0  0  0  0  0
   35.3747   29.1011   51.8545 F   0  0  0  0  0  0  0  0  0  0  0  0
   33.8952   29.8396   50.3851 F   0  0  0  0  0  0  0  0  0  0  0  0
   34.9815   28.0010   49.9611 F   0  0  0  0  0  0  0  0  0  0  0  0
   38.4886   32.2061   50.5712 H   0  0  0  0  0  0  0  0  0  0  0  0
   38.5924   32.4464   48.2133 H   0  0  0  0  0  0  0  0  0  0  0  0
   35.0798   30.1684   46.2248 H   0  0  0  0  0  0  0  0  0  0  0  0
   34.9149   30.2258   43.8329 H   0  0  0  0  0  0  0  0  0  0  0  0
   36.9162   30.9344   42.4706 H   0  0  0  0  0  0  0  0  0  0  0  0
   38.9748   31.5322   43.6683 H   0  0  0  0  0  0  0  0  0  0  0  0
   40.4153   30.7496   47.6680 C   0  0  0  0  0  0  0  0  0  0  0  0
   41.6061   30.8567   48.3856 C   0  0  0  0  0  0  0  0  0  0  0  0
   42.2939   31.6891   48.1529 H   0  0  0  0  0  0  0  0  0  0  0  0
   41.7721   29.8602   49.3354 C   0  0  0  0  0  0  0  0  0  0  0  0
   42.5737   29.7105   50.0029 H   0  0  0  0  0  0  0  0  0  0  0  0
   40.6057   29.1649   49.1315 C   0  0  0  0  0  0  0  0  0  0  0  0
   40.2616   28.2797   49.6427 H   0  0  0  0  0  0  0  0  0  0  0  0
   39.8568   29.6802   48.1925 O   0  0  0  0  0  0  0  0  0  0  0  0
  1  6  2  0
  2  1  1  0
  3  2  2  0
  3  4  1  0
  4  5  2  0
  5 16  1  0
  5  6  1  0
  7  8  1  0
  7 13  1  0
  8  3  1  0
  9  8  2  0
 10  9  1  0
 11 12  1  0
 11 10  2  0
 12  7  2  0
 14 13  2  0
 15 13  2  0
 16 17  1  0
 18 16  1  0
 19 16  1  0
  1 20  1  0
  2 21  1  0
  9 22  1  0
 10 23  1  0
 11 24  1  0
 12 25  1  0
 26 27  2  0
 27 28  1  0
 27 29  1  0
 29 30  1  0
 29 31  2  0
 31 32  1  0
 31 33  1  0
 33 26  1  0
 13 26  1  0
M  ISO  8  20  14  21  14  22  14  23  14  24  14  25  14  28  16  30  16
M  ISO  1  32  14
M  END
>  <DihAtoms>  (1) 
6,12,25,26

>  <DihDeg>  (1) 
10.643422221705803

$$$$
