
     RDKit          3D

 27 29  0  0  0  0  0  0  0  0999 V2000
   37.7765   30.6809   50.6093 C   0  0  0  0  0  0  0  0  0  0  0  0
   38.4578   31.6057   49.7898 C   0  0  0  0  0  0  0  0  0  0  0  0
   37.9338   31.8607   48.5077 C   0  0  0  0  0  0  0  0  0  0  0  0
   36.8006   31.2010   48.1320 N   0  0  0  0  0  0  0  0  0  0  0  0
   36.1839   30.3249   48.9512 C   0  0  0  0  0  0  0  0  0  0  0  0
   36.6613   30.0589   50.1859 N   0  0  0  0  0  0  0  0  0  0  0  0
   34.9998   29.6137   48.6020 N   0  0  0  0  0  0  0  0  0  0  0  0
   34.7501   29.4281   47.2848 C   0  0  0  0  0  0  0  0  0  0  0  0
   33.5860   28.7305   47.0179 C   0  0  0  0  0  0  0  0  0  0  0  0
   32.7282   28.2497   47.9823 C   0  0  0  0  0  0  0  0  0  0  0  0
   31.6721   27.6164   47.7239 O   0  0  0  0  0  0  0  0  0  0  0  0
   33.0382   28.4712   49.3034 N   0  0  0  0  0  0  0  0  0  0  0  0
   34.1723   29.1502   49.5437 C   0  0  0  0  0  0  0  0  0  0  0  0
   34.4985   29.3782   50.7571 O   0  0  0  0  0  0  0  0  0  0  0  0
   38.1837   30.4892   51.5931 H   0  0  0  0  0  0  0  0  0  0  0  0
   39.3576   32.1229   50.1012 H   0  0  0  0  0  0  0  0  0  0  0  0
   38.3982   32.5593   47.8142 H   0  0  0  0  0  0  0  0  0  0  0  0
   35.4067   29.7951   46.5114 H   0  0  0  0  0  0  0  0  0  0  0  0
   33.3349   28.5518   45.9710 H   0  0  0  0  0  0  0  0  0  0  0  0
   32.2193   28.0165   50.3768 C   0  0  0  0  0  0  0  0  0  0  0  0
   31.3849   26.9132   50.5699 C   0  0  0  0  0  0  0  0  0  0  0  0
   31.2733   26.1947   49.7921 H   0  0  0  0  0  0  0  0  0  0  0  0
   30.8961   27.0957   51.8493 C   0  0  0  0  0  0  0  0  0  0  0  0
   30.1983   26.3539   52.2650 H   0  0  0  0  0  0  0  0  0  0  0  0
   31.4280   28.2588   52.3734 C   0  0  0  0  0  0  0  0  0  0  0  0
   31.1882   28.6099   53.3691 H   0  0  0  0  0  0  0  0  0  0  0  0
   32.2205   28.7868   51.4582 O   0  0  0  0  0  0  0  0  0  0  0  0
  2  1  2  0
  3  2  1  0
  4  3  2  0
  4  5  1  0
  5  6  2  0
  6  1  1  0
  7  5  1  0
  7 13  1  0
  8  7  1  0
  9  8  2  0
  9 10  1  0
 10 12  1  0
 11 10  2  0
 12 13  1  0
 13 14  2  0
  1 15  1  0
  2 16  1  0
  3 17  1  0
  8 18  1  0
  9 19  1  0
 20 21  2  0
 21 22  1  0
 21 23  1  0
 23 24  1  0
 23 25  2  0
 25 26  1  0
 25 27  1  0
 27 20  1  0
 12 20  1  0
M  ISO  8  15  14  16  14  17  14  18  14  19  14  22  16  24  16  26  14
M  END
>  <DihAtoms>  (1) 
9,11,19,20

>  <DihDeg>  (1) 
-73.03744525480103

$$$$
