
     RDKit          3D

 45 48  0  0  0  0  0  0  0  0999 V2000
   37.3396   30.1757   51.5149 C   0  0  0  0  0  0  0  0  0  0  0  0
   38.0713   30.8642   50.5233 C   0  0  0  0  0  0  0  0  0  0  0  0
   37.7009   30.6518   49.2012 C   0  0  0  0  0  0  0  0  0  0  0  0
   36.6569   29.7908   48.9901 N   0  0  0  0  0  0  0  0  0  0  0  0
   35.9819   29.1533   49.9350 C   0  0  0  0  0  0  0  0  0  0  0  0
   36.3379   29.3562   51.2216 N   0  0  0  0  0  0  0  0  0  0  0  0
   38.9363   33.2684   49.0152 F   0  0  0  0  0  0  0  0  0  0  0  0
   38.9051   32.4747   47.9493 C   0  0  0  0  0  0  0  0  0  0  0  0
   38.3322   31.2683   48.0461 C   0  0  0  0  0  0  0  0  0  0  0  0
   38.3545   30.5241   46.8783 C   0  0  0  0  0  0  0  0  0  0  0  0
   38.9159   30.9804   45.7160 C   0  0  0  0  0  0  0  0  0  0  0  0
   39.4982   32.2331   45.6570 C   0  0  0  0  0  0  0  0  0  0  0  0
   39.4836   32.9740   46.7945 C   0  0  0  0  0  0  0  0  0  0  0  0
   34.9914   28.3571   49.4549 O   0  0  0  0  0  0  0  0  0  0  0  0
   34.4552   28.6313   48.1777 C   0  0  0  0  0  0  0  0  0  0  0  0
   33.5615   27.5211   47.6980 C   0  0  0  0  0  0  0  0  0  0  0  0
   32.1161   27.8886   47.7387 C   0  0  0  0  0  0  0  0  0  0  0  0
   31.3728   27.4783   48.8486 C   0  0  0  0  0  0  0  0  0  0  0  0
   30.0378   27.7726   48.9682 C   0  0  0  0  0  0  0  0  0  0  0  0
   29.4308   28.4686   48.0013 N   0  0  0  0  0  0  0  0  0  0  0  0
   30.1762   28.8578   46.9288 C   0  0  0  0  0  0  0  0  0  0  0  0
   31.4834   28.5872   46.7797 N   0  0  0  0  0  0  0  0  0  0  0  0
   29.4474   29.6363   45.8715 C   0  0  0  0  0  0  0  0  0  0  0  0
   37.6572   30.3661   52.5381 H   0  0  0  0  0  0  0  0  0  0  0  0
   38.8850   31.5345   50.6998 H   0  0  0  0  0  0  0  0  0  0  0  0
   37.9159   29.5200   46.8338 H   0  0  0  0  0  0  0  0  0  0  0  0
   38.9187   30.3748   44.8162 H   0  0  0  0  0  0  0  0  0  0  0  0
   39.9550   32.6351   44.7561 H   0  0  0  0  0  0  0  0  0  0  0  0
   39.9332   33.9583   46.7740 H   0  0  0  0  0  0  0  0  0  0  0  0
   35.3286   28.6462   47.4799 H   0  0  0  0  0  0  0  0  0  0  0  0
   33.9919   29.6256   48.1083 H   0  0  0  0  0  0  0  0  0  0  0  0
   33.7263   26.6231   48.2961 H   0  0  0  0  0  0  0  0  0  0  0  0
   33.7757   27.2454   46.6374 H   0  0  0  0  0  0  0  0  0  0  0  0
   31.8006   26.9127   49.6667 H   0  0  0  0  0  0  0  0  0  0  0  0
   29.4413   27.4650   49.8195 H   0  0  0  0  0  0  0  0  0  0  0  0
   29.9204   29.3449   44.9100 H   0  0  0  0  0  0  0  0  0  0  0  0
   28.3983   29.2669   45.8247 H   0  0  0  0  0  0  0  0  0  0  0  0
   29.5071   31.0937   46.1459 C   0  0  0  0  0  0  0  0  0  0  0  0
   28.7600   31.7210   47.1258 C   0  0  0  0  0  0  0  0  0  0  0  0
   28.0548   31.2094   47.7926 H   0  0  0  0  0  0  0  0  0  0  0  0
   29.1094   33.0560   47.0485 C   0  0  0  0  0  0  0  0  0  0  0  0
   28.6403   33.7578   47.7358 H   0  0  0  0  0  0  0  0  0  0  0  0
   30.0539   33.1756   46.0230 C   0  0  0  0  0  0  0  0  0  0  0  0
   30.4300   34.1729   45.8368 H   0  0  0  0  0  0  0  0  0  0  0  0
   30.2354   31.9830   45.5415 O   0  0  0  0  0  0  0  0  0  0  0  0
  2  1  2  0
  3  2  1  0
  4  3  2  0
  4  5  1  0
  5  6  2  0
  6  1  1  0
  8  9  2  0
  8  7  1  0
  9  3  1  0
 10  9  1  0
 11 10  2  0
 12 11  1  0
 12 13  2  0
 13  8  1  0
 14  5  1  0
 15 14  1  0
 16 17  1  0
 16 15  1  0
 17 18  2  0
 18 19  1  0
 20 19  2  0
 21 20  1  0
 22 21  2  0
 22 17  1  0
 23 21  1  0
  1 24  1  0
  2 25  1  0
 10 26  1  0
 11 27  1  0
 12 28  1  0
 13 29  1  0
 15 30  1  0
 15 31  1  0
 16 32  1  0
 16 33  1  0
 18 34  1  0
 19 35  1  0
 23 36  1  0
 23 37  1  0
 38 39  2  0
 39 40  1  0
 39 41  1  0
 41 42  1  0
 41 43  2  0
 43 44  1  0
 43 45  1  0
 45 38  1  0
 23 38  1  0
M  ISO  8  24  14  25  14  26  14  27  14  28  14  29  14  30   8  31   8
M  ISO  8  32   8  33   8  34  14  35  14  36   8  37   8  40  16  42  16
M  ISO  1  44  14
M  END
>  <DihAtoms>  (1) 
20,22,37,38

>  <DihDeg>  (1) 
89.9972286797984

$$$$
