
     RDKit          3D

 19 20  0  0  0  0  0  0  0  0999 V2000
   37.9110   32.4080   48.9740 C   0  0  0  0  0  0  0  0  0  0  0  0
   37.9210   33.5940   49.3600 O   0  0  0  0  0  0  0  0  0  0  0  0
   37.1350   29.6460   51.3600 C   0  0  0  0  0  0  0  0  0  0  0  0
   37.8680   30.6510   50.7270 C   0  0  0  0  0  0  0  0  0  0  0  0
   37.2270   31.3380   49.6990 C   0  0  0  0  0  0  0  0  0  0  0  0
   35.9470   31.0030   49.3690 N   0  0  0  0  0  0  0  0  0  0  0  0
   35.2870   30.0230   50.0160 C   0  0  0  0  0  0  0  0  0  0  0  0
   35.8740   29.3480   51.0050 N   0  0  0  0  0  0  0  0  0  0  0  0
   38.6210   32.0710   47.7330 C   0  0  0  0  0  0  0  0  0  0  0  0
   38.4960   30.8550   47.1090 C   0  0  0  0  0  0  0  0  0  0  0  0
   39.3240   30.9580   45.9880 C   0  0  0  0  0  0  0  0  0  0  0  0
   39.8850   32.1990   46.0010 C   0  0  0  0  0  0  0  0  0  0  0  0
   39.4480   32.8440   47.0550 O   0  0  0  0  0  0  0  0  0  0  0  0
   37.6055   29.0790   52.1768 H   0  0  0  0  0  0  0  0  0  0  0  0
   38.8999   30.8885   51.0250 H   0  0  0  0  0  0  0  0  0  0  0  0
   34.2547   29.7774   49.7260 H   0  0  0  0  0  0  0  0  0  0  0  0
   37.8839   29.9956   47.4202 H   0  0  0  0  0  0  0  0  0  0  0  0
   39.4923   30.1774   45.2314 H   0  0  0  0  0  0  0  0  0  0  0  0
   40.5874   32.5939   45.2522 H   0  0  0  0  0  0  0  0  0  0  0  0
  1  2  2  0
  1  5  1  0
  4  3  2  0
  5  4  1  0
  6  5  2  0
  6  7  1  0
  7  8  2  0
  8  3  1  0
  9  1  1  0
 10  9  2  0
 11 12  2  0
 11 10  1  0
 12 13  1  0
 13  9  1  0
  3 14  1  0
  4 15  1  0
  7 16  1  0
 10 17  1  0
 11 18  1  0
 12 19  1  0
M  ISO  6  14  14  15  14  16  14  17  14  18  14  19  14
M  END
>  <minimizedAffinity>  (1) 
-4.93539238

>  <minimizedRMSD>  (1) 
2.10892177

$$$$
