
     RDKit          3D

 46 49  0  0  0  0  0  0  0  0999 V2000
   34.8153   30.1038   46.8649 C   0  0  0  0  0  0  0  0  0  0  0  0
   36.1464   30.5902   46.9389 C   0  0  0  0  0  0  0  0  0  0  0  0
   36.8426   30.7480   45.7344 C   0  0  0  0  0  0  0  0  0  0  0  0
   36.2139   30.4296   44.5827 N   0  0  0  0  0  0  0  0  0  0  0  0
   34.9560   29.9715   44.5461 C   0  0  0  0  0  0  0  0  0  0  0  0
   34.2631   29.8103   45.6772 N   0  0  0  0  0  0  0  0  0  0  0  0
   36.6428   30.8524   48.2711 N   0  0  0  0  0  0  0  0  0  0  0  0
   37.0613   31.9512   49.0792 C   0  0  0  0  0  0  0  0  0  0  0  0
   38.3921   31.4920   49.6069 C   0  0  0  0  0  0  0  0  0  0  0  0
   38.1994   29.9838   49.7805 C   0  0  0  0  0  0  0  0  0  0  0  0
   36.8454   29.7209   49.2286 C   0  0  1  0  0  0  0  0  0  0  0  0
   34.7952   28.9625   50.4232 C   0  0  0  0  0  0  0  0  0  0  0  0
   34.4855   28.0491   49.5995 O   0  0  0  0  0  0  0  0  0  0  0  0
   35.8802   29.8902   50.3029 N   0  0  0  0  0  0  0  0  0  0  0  0
   38.1834   31.2381   45.6952 C   0  0  0  0  0  0  0  0  0  0  0  0
   38.4440   32.4603   46.2468 C   0  0  0  0  0  0  0  0  0  0  0  0
   39.7051   33.0250   46.2796 C   0  0  0  0  0  0  0  0  0  0  0  0
   40.7450   32.2970   45.7150 C   0  0  0  0  0  0  0  0  0  0  0  0
   40.5543   31.0641   45.1416 C   0  0  0  0  0  0  0  0  0  0  0  0
   39.2453   30.5662   45.1531 C   0  0  0  0  0  0  0  0  0  0  0  0
   39.0056   29.2227   44.5354 C   0  0  0  0  0  0  0  0  0  0  0  0
   34.1900   29.9560   47.7276 H   0  0  0  0  0  0  0  0  0  0  0  0
   34.5497   29.7477   43.5700 H   0  0  0  0  0  0  0  0  0  0  0  0
   36.3818   31.9117   49.9879 H   0  0  0  0  0  0  0  0  0  0  0  0
   36.9626   32.9568   48.7373 H   0  0  0  0  0  0  0  0  0  0  0  0
   38.5501   31.9849   50.6043 H   0  0  0  0  0  0  0  0  0  0  0  0
   39.2447   31.7092   48.9322 H   0  0  0  0  0  0  0  0  0  0  0  0
   38.9977   29.4629   49.1995 H   0  0  0  0  0  0  0  0  0  0  0  0
   38.2334   29.7490   50.8673 H   0  0  0  0  0  0  0  0  0  0  0  0
   36.7248   28.7690   48.7175 H   0  0  0  0  0  0  0  0  0  0  0  0
   34.0432   28.8314   51.1844 H   0  0  0  0  0  0  0  0  0  0  0  0
   35.7098   30.5268   51.1033 H   0  0  0  0  0  0  0  0  0  0  0  0
   37.7601   33.1690   46.6723 H   0  0  0  0  0  0  0  0  0  0  0  0
   40.0142   33.9692   46.6869 H   0  0  0  0  0  0  0  0  0  0  0  0
   41.7841   32.6202   45.6715 H   0  0  0  0  0  0  0  0  0  0  0  0
   41.3264   30.4686   44.6940 H   0  0  0  0  0  0  0  0  0  0  0  0
   38.1100   29.2173   43.8951 H   0  0  0  0  0  0  0  0  0  0  0  0
   39.8708   28.9698   43.9126 H   0  0  0  0  0  0  0  0  0  0  0  0
   38.8967   28.1992   45.6334 C   0  0  0  0  0  0  0  0  0  0  0  0
   38.3440   28.2095   46.9137 C   0  0  0  0  0  0  0  0  0  0  0  0
   37.8650   29.1075   47.2849 H   0  0  0  0  0  0  0  0  0  0  0  0
   38.5465   26.9493   47.4846 C   0  0  0  0  0  0  0  0  0  0  0  0
   38.1968   26.7279   48.4781 H   0  0  0  0  0  0  0  0  0  0  0  0
   39.2164   26.2480   46.5039 C   0  0  0  0  0  0  0  0  0  0  0  0
   39.5190   25.2008   46.6666 H   0  0  0  0  0  0  0  0  0  0  0  0
   39.3929   26.9958   45.4721 O   0  0  0  0  0  0  0  0  0  0  0  0
  1  2  2  0
  2  7  1  0
  3  2  1  0
  4  3  2  0
  5  4  1  0
  5  6  2  0
  6  1  1  0
  7  8  1  0
  7 11  1  0
  8  9  1  0
  9 10  1  0
 11 10  1  0
 11 14  1  0
 13 12  2  0
 14 12  1  0
 15  3  1  0
 15 16  2  0
 16 17  1  0
 18 17  2  0
 19 20  2  0
 19 18  1  0
 20 15  1  0
 21 20  1  0
  1 22  1  0
  5 23  1  0
  8 24  1  0
  8 25  1  0
  9 26  1  0
  9 27  1  0
 10 28  1  0
 10 29  1  0
 11 30  1  6
 12 31  1  0
 14 32  1  0
 16 33  1  0
 17 34  1  0
 18 35  1  0
 19 36  1  0
 21 37  1  0
 21 38  1  0
 39 40  2  0
 40 41  1  0
 40 42  1  0
 42 43  1  0
 42 44  2  0
 44 45  1  0
 44 46  1  0
 46 39  1  0
 21 39  1  0
M  ISO  8  22  14  23  14  24  13  25  13  26  13  27  13  28  13  29  13
M  ISO  8  30  13  31   6  33  14  34  14  35  14  36  14  37   8  38   8
M  ISO  3  41  16  43  16  45  14
M  END
>  <DihAtoms>  (1) 
19,20,38,39

>  <DihDeg>  (1) 
97.12320139849932

$$$$
