
     RDKit          3D

 28 30  0  0  0  0  0  0  0  0999 V2000
   37.2440   29.7170   50.2120 C   0  0  0  0  0  0  0  0  0  0  0  0
   37.7810   30.4280   49.1400 C   0  0  0  0  0  0  0  0  0  0  0  0
   37.1150   30.3940   47.9280 C   0  0  0  0  0  0  0  0  0  0  0  0
   35.9710   29.6660   47.8520 N   0  0  0  0  0  0  0  0  0  0  0  0
   35.4760   28.9900   48.9000 C   0  0  0  0  0  0  0  0  0  0  0  0
   36.1170   29.0180   50.0840 N   0  0  0  0  0  0  0  0  0  0  0  0
   37.5540   31.0870   46.7040 C   0  0  0  0  0  0  0  0  0  0  0  0
   36.8940   30.9800   45.5120 C   0  0  0  0  0  0  0  0  0  0  0  0
   37.3170   31.6330   44.3740 C   0  0  0  0  0  0  0  0  0  0  0  0
   38.4230   32.4150   44.4210 N   0  0  0  0  0  0  0  0  0  0  0  0
   39.0550   32.5080   45.5940 C   0  0  0  0  0  0  0  0  0  0  0  0
   38.6560   31.8770   46.7110 N   0  0  0  0  0  0  0  0  0  0  0  0
   40.2720   33.3570   45.6750 C   0  0  0  0  0  0  0  0  0  0  0  0
   40.2990   33.9370   46.9430 F   0  0  0  0  0  0  0  0  0  0  0  0
   41.4280   32.6050   45.4470 F   0  0  0  0  0  0  0  0  0  0  0  0
   40.2480   34.3780   44.7840 F   0  0  0  0  0  0  0  0  0  0  0  0
   34.2340   28.2490   48.6730 C   0  0  0  0  0  0  0  0  0  0  0  0
   33.9460   27.1760   47.8540 C   0  0  0  0  0  0  0  0  0  0  0  0
   32.6040   26.9070   48.0630 C   0  0  0  0  0  0  0  0  0  0  0  0
   32.1300   27.8140   48.9890 C   0  0  0  0  0  0  0  0  0  0  0  0
   33.1450   28.5930   49.3200 O   0  0  0  0  0  0  0  0  0  0  0  0
   37.7609   29.7334   51.1828 H   0  0  0  0  0  0  0  0  0  0  0  0
   38.7121   31.0024   49.2550 H   0  0  0  0  0  0  0  0  0  0  0  0
   35.9934   30.3506   45.4588 H   0  0  0  0  0  0  0  0  0  0  0  0
   36.7596   31.5199   43.4324 H   0  0  0  0  0  0  0  0  0  0  0  0
   34.6355   26.6474   47.1793 H   0  0  0  0  0  0  0  0  0  0  0  0
   32.0195   26.1117   47.5773 H   0  0  0  0  0  0  0  0  0  0  0  0
   31.1028   27.8766   49.3776 H   0  0  0  0  0  0  0  0  0  0  0  0
  2  1  2  0
  3  2  1  0
  4  3  2  0
  4  5  1  0
  5  6  2  0
  6  1  1  0
  7 12  1  0
  7  3  1  0
  8  7  2  0
  9 10  2  0
  9  8  1  0
 10 11  1  0
 11 13  1  0
 11 12  2  0
 13 14  1  0
 15 13  1  0
 16 13  1  0
 17  5  1  0
 17 21  1  0
 18 19  1  0
 18 17  2  0
 19 20  2  0
 20 21  1  0
  1 22  1  0
  2 23  1  0
  8 24  1  0
  9 25  1  0
 18 26  1  0
 19 27  1  0
 20 28  1  0
M  ISO  7  22  14  23  14  24  14  25  14  26  14  27  14  28  14
M  END
>  <minimizedAffinity>  (1) 
-6.12274504

>  <minimizedRMSD>  (1) 
1.1518091

$$$$
