
     RDKit          3D

 33 35  0  0  0  0  0  0  0  0999 V2000
   36.6750   29.4370   44.0550 Cl  0  0  0  0  0  0  0  0  0  0  0  0
   38.3190   29.8330   43.5230 C   0  0  0  0  0  0  0  0  0  0  0  0
   39.3180   30.3330   44.3580 C   0  0  0  0  0  0  0  0  0  0  0  0
   40.5580   30.6010   43.8030 C   0  0  0  0  0  0  0  0  0  0  0  0
   40.7860   30.3780   42.4700 C   0  0  0  0  0  0  0  0  0  0  0  0
   39.8300   29.8930   41.6400 C   0  0  0  0  0  0  0  0  0  0  0  0
   38.5870   29.6160   42.1570 C   0  0  0  0  0  0  0  0  0  0  0  0
   37.5350   29.0920   41.2860 C   0  0  0  0  0  0  0  0  0  0  0  0
   37.3810   27.7720   40.9260 C   0  0  0  0  0  0  0  0  0  0  0  0
   36.2720   27.6760   40.0930 C   0  0  0  0  0  0  0  0  0  0  0  0
   35.8010   28.9900   39.9900 C   0  0  0  0  0  0  0  0  0  0  0  0
   36.5760   29.7710   40.7060 O   0  0  0  0  0  0  0  0  0  0  0  0
   38.8750   30.4770   45.6440 O   0  0  0  0  0  0  0  0  0  0  0  0
   39.4390   32.5200   47.1230 O   0  0  0  0  0  0  0  0  0  0  0  0
   38.3060   31.8390   46.4240 P   0  0  1  0  0  0  0  0  0  0  0  0
   37.7180   32.8490   45.1730 O   0  0  0  0  0  0  0  0  0  0  0  0
   37.0270   31.4190   47.4530 O   0  0  0  0  0  0  0  0  0  0  0  0
   37.6100   30.5300   50.9860 C   0  0  0  0  0  0  0  0  0  0  0  0
   37.6990   31.3010   49.8240 C   0  0  0  0  0  0  0  0  0  0  0  0
   37.0700   30.8440   48.6700 C   0  0  0  0  0  0  0  0  0  0  0  0
   36.3940   29.6580   48.7380 N   0  0  0  0  0  0  0  0  0  0  0  0
   36.3280   28.9390   49.8780 C   0  0  0  0  0  0  0  0  0  0  0  0
   36.9330   29.3720   50.9950 N   0  0  0  0  0  0  0  0  0  0  0  0
   41.3660   30.9957   44.4365 H   0  0  0  0  0  0  0  0  0  0  0  0
   41.7815   30.6008   42.0584 H   0  0  0  0  0  0  0  0  0  0  0  0
   40.0448   29.7246   40.5744 H   0  0  0  0  0  0  0  0  0  0  0  0
   38.0241   26.9377   41.2427 H   0  0  0  0  0  0  0  0  0  0  0  0
   35.8585   26.7722   39.6217 H   0  0  0  0  0  0  0  0  0  0  0  0
   34.9269   29.3143   39.4062 H   0  0  0  0  0  0  0  0  0  0  0  0
   37.2615   33.6331   45.5690 H   0  0  0  0  0  0  0  0  0  0  0  0
   38.1021   30.8776   51.9064 H   0  0  0  0  0  0  0  0  0  0  0  0
   38.2551   32.2501   49.8216 H   0  0  0  0  0  0  0  0  0  0  0  0
   35.7732   27.9892   49.8919 H   0  0  0  0  0  0  0  0  0  0  0  0
  2  1  1  0
  2  3  2  0
  3 13  1  0
  4  3  1  0
  5  4  2  0
  6  7  2  0
  6  5  1  0
  7  2  1  0
  8  7  1  0
  9  8  2  0
 10  9  1  0
 11 10  2  0
 11 12  1  0
 12  8  1  0
 13 15  1  0
 15 14  2  0
 15 17  1  0
 16 15  1  0
 17 20  1  0
 18 23  2  0
 19 18  1  0
 20 21  1  0
 20 19  2  0
 21 22  2  0
 22 23  1  0
  4 24  1  0
  5 25  1  0
  6 26  1  0
  9 27  1  0
 10 28  1  0
 11 29  1  0
 16 30  1  0
 18 31  1  0
 19 32  1  0
 22 33  1  0
M  ISO  8  24  14  25  14  26  14  27  14  28  14  29  14  30   3  31  14
M  ISO  2  32  14  33  14
M  END
>  <minimizedAffinity>  (1) 
-4.80177784

>  <minimizedRMSD>  (1) 
0.343622208

$$$$
