
     RDKit          3D

 33 35  0  0  0  0  0  0  0  0999 V2000
   35.4630   30.3220   49.9480 C   0  0  0  0  0  0  0  0  0  0  0  0
   36.4300   31.2550   49.2590 C   0  0  0  0  0  0  0  0  0  0  0  0
   37.8630   30.8400   49.3880 C   0  0  0  0  0  0  0  0  0  0  0  0
   38.2910   30.6080   50.8090 C   0  0  0  0  0  0  0  0  0  0  0  0
   37.2480   29.9350   51.6500 C   0  0  0  0  0  0  0  0  0  0  0  0
   36.1490   29.3150   50.8070 C   0  0  0  0  0  0  0  0  0  0  0  0
   34.6710   29.5860   48.9200 C   0  0  0  0  0  0  0  0  0  0  0  0
   34.2850   30.3000   47.7730 C   0  0  0  0  0  0  0  0  0  0  0  0
   33.5440   29.6170   46.8220 C   0  0  0  0  0  0  0  0  0  0  0  0
   33.2140   28.2890   47.0220 N   0  0  0  0  0  0  0  0  0  0  0  0
   33.6120   27.6360   48.1580 C   0  0  0  0  0  0  0  0  0  0  0  0
   34.3290   28.2860   49.0820 N   0  0  0  0  0  0  0  0  0  0  0  0
   33.1040   30.2830   45.6010 C   0  0  0  0  0  0  0  0  0  0  0  0
   32.0000   31.1030   45.4860 C   0  0  0  0  0  0  0  0  0  0  0  0
   32.0020   31.4890   44.1400 C   0  0  0  0  0  0  0  0  0  0  0  0
   33.0870   30.8880   43.5330 C   0  0  0  0  0  0  0  0  0  0  0  0
   33.7010   30.1850   44.4530 O   0  0  0  0  0  0  0  0  0  0  0  0
   34.8208   30.9431   50.5896 H   0  0  0  0  0  0  0  0  0  0  0  0
   36.3179   32.2573   49.6981 H   0  0  0  0  0  0  0  0  0  0  0  0
   36.1855   31.2365   48.1867 H   0  0  0  0  0  0  0  0  0  0  0  0
   38.0081   29.9072   48.8234 H   0  0  0  0  0  0  0  0  0  0  0  0
   38.4765   31.6638   48.9944 H   0  0  0  0  0  0  0  0  0  0  0  0
   39.1918   29.9767   50.8018 H   0  0  0  0  0  0  0  0  0  0  0  0
   38.4750   31.5966   51.2549 H   0  0  0  0  0  0  0  0  0  0  0  0
   37.7280   29.1439   52.2449 H   0  0  0  0  0  0  0  0  0  0  0  0
   36.7898   30.6977   52.2968 H   0  0  0  0  0  0  0  0  0  0  0  0
   35.4065   28.8549   51.4755 H   0  0  0  0  0  0  0  0  0  0  0  0
   36.6112   28.5663   50.1468 H   0  0  0  0  0  0  0  0  0  0  0  0
   34.5594   31.3564   47.6359 H   0  0  0  0  0  0  0  0  0  0  0  0
   33.3431   26.5803   48.3104 H   0  0  0  0  0  0  0  0  0  0  0  0
   31.2837   31.3877   46.2707 H   0  0  0  0  0  0  0  0  0  0  0  0
   31.2709   32.1516   43.6537 H   0  0  0  0  0  0  0  0  0  0  0  0
   33.3804   30.9816   42.4770 H   0  0  0  0  0  0  0  0  0  0  0  0
  1  6  1  0
  2  3  1  0
  2  1  1  0
  3  4  1  0
  4  5  1  0
  6  5  1  0
  7 12  1  0
  7  1  1  0
  8  7  2  0
  9 10  2  0
  9  8  1  0
 10 11  1  0
 11 12  2  0
 13  9  1  0
 14 13  2  0
 15 14  1  0
 16 15  2  0
 16 17  1  0
 17 13  1  0
  1 18  1  0
  2 19  1  0
  2 20  1  0
  3 21  1  0
  3 22  1  0
  4 23  1  0
  4 24  1  0
  5 25  1  0
  5 26  1  0
  6 27  1  0
  6 28  1  0
  8 29  1  0
 11 30  1  0
 14 31  1  0
 15 32  1  0
 16 33  1  0
M  ISO  8  18  13  19  13  20  13  21  13  22  13  23  13  24  13  25  13
M  ISO  8  26  13  27  13  28  13  29  14  30  14  31  14  32  14  33  14
M  END
>  <minimizedAffinity>  (1) 
-5.20210505

>  <minimizedRMSD>  (1) 
0.424121141

$$$$
