
     RDKit          3D

 27 29  0  0  0  0  0  0  0  0999 V2000
   36.3870   31.4250   49.8220 Cl  0  0  0  0  0  0  0  0  0  0  0  0
   36.9110   31.3270   48.1630 C   0  0  0  0  0  0  0  0  0  0  0  0
   36.1900   30.4460   47.4030 C   0  0  0  0  0  0  0  0  0  0  0  0
   36.5380   30.2980   46.0490 C   0  0  0  0  0  0  0  0  0  0  0  0
   37.5650   31.0110   45.4980 C   0  0  0  0  0  0  0  0  0  0  0  0
   38.2620   31.8780   46.2770 C   0  0  0  0  0  0  0  0  0  0  0  0
   39.5760   32.7880   45.5620 Cl  0  0  0  0  0  0  0  0  0  0  0  0
   37.9370   32.0390   47.6090 C   0  0  0  0  0  0  0  0  0  0  0  0
   35.2280   28.6970   48.8490 C   0  0  0  0  0  0  0  0  0  0  0  0
   35.0720   29.5990   47.7840 C   0  0  0  0  0  0  0  0  0  0  0  0
   33.8150   29.6110   47.1500 C   0  0  0  0  0  0  0  0  0  0  0  0
   32.8460   28.7690   47.5930 N   0  0  0  0  0  0  0  0  0  0  0  0
   33.0470   27.9210   48.6230 C   0  0  0  0  0  0  0  0  0  0  0  0
   34.2390   27.8890   49.2450 N   0  0  0  0  0  0  0  0  0  0  0  0
   38.7190   32.9820   48.3950 C   0  0  0  0  0  0  0  0  0  0  0  0
   38.8460   33.2380   49.7340 C   0  0  0  0  0  0  0  0  0  0  0  0
   39.7330   34.2550   49.9960 C   0  0  0  0  0  0  0  0  0  0  0  0
   40.1400   34.6050   48.7300 C   0  0  0  0  0  0  0  0  0  0  0  0
   39.5380   33.8580   47.8820 O   0  0  0  0  0  0  0  0  0  0  0  0
   35.9723   29.5943   45.4208 H   0  0  0  0  0  0  0  0  0  0  0  0
   37.8241   30.8844   44.4365 H   0  0  0  0  0  0  0  0  0  0  0  0
   36.1938   28.6539   49.3737 H   0  0  0  0  0  0  0  0  0  0  0  0
   33.6207   30.2922   46.3084 H   0  0  0  0  0  0  0  0  0  0  0  0
   32.2359   27.2558   48.9540 H   0  0  0  0  0  0  0  0  0  0  0  0
   38.2982   32.6899   50.5147 H   0  0  0  0  0  0  0  0  0  0  0  0
   40.0375   34.6780   50.9647 H   0  0  0  0  0  0  0  0  0  0  0  0
   40.8638   35.3966   48.4859 H   0  0  0  0  0  0  0  0  0  0  0  0
  2  1  1  0
  3 10  1  0
  3  2  2  0
  4  3  1  0
  5  4  2  0
  5  6  1  0
  6  8  2  0
  7  6  1  0
  8  2  1  0
  8 15  1  0
  9 14  2  0
 10  9  1  0
 11 12  1  0
 11 10  2  0
 12 13  2  0
 13 14  1  0
 15 16  2  0
 16 17  1  0
 18 17  2  0
 19 15  1  0
 19 18  1  0
  4 20  1  0
  5 21  1  0
  9 22  1  0
 11 23  1  0
 13 24  1  0
 16 25  1  0
 17 26  1  0
 18 27  1  0
M  ISO  8  20  14  21  14  22  14  23  14  24  14  25  14  26  14  27  14
M  END
>  <minimizedAffinity>  (1) 
-5.50571203

>  <minimizedRMSD>  (1) 
2.69840813

$$$$
