
     RDKit          3D

 44 48  0  0  0  0  0  0  0  0999 V2000
   36.2409   30.1818   46.8561 C   0  0  0  0  0  0  0  0  0  0  0  0
   37.0757   30.7300   47.7988 C   0  0  0  0  0  0  0  0  0  0  0  0
   38.0747   31.6500   47.4374 C   0  0  0  0  0  0  0  0  0  0  0  0
   38.1618   31.9657   46.0796 C   0  0  0  0  0  0  0  0  0  0  0  0
   39.0327   32.8251   45.4731 N   0  0  0  0  0  0  0  0  0  0  0  0
   38.7378   32.8083   44.1672 C   0  0  0  0  0  0  0  0  0  0  0  0
   37.7327   31.9814   43.9539 N   0  0  0  0  0  0  0  0  0  0  0  0
   37.3422   31.4345   45.1167 C   0  0  0  0  0  0  0  0  0  0  0  0
   36.3614   30.5215   45.5239 C   0  0  0  0  0  0  0  0  0  0  0  0
   37.4774   30.1690   51.5009 C   0  0  0  0  0  0  0  0  0  0  0  0
   37.8028   30.6019   50.2155 C   0  0  0  0  0  0  0  0  0  0  0  0
   36.9240   30.3610   49.1936 C   0  0  0  0  0  0  0  0  0  0  0  0
   35.7586   29.6949   49.5161 N   0  0  0  0  0  0  0  0  0  0  0  0
   35.4520   29.2809   50.7573 C   0  0  0  0  0  0  0  0  0  0  0  0
   36.3074   29.5193   51.7333 N   0  0  0  0  0  0  0  0  0  0  0  0
   39.4335   33.5786   43.2337 O   0  0  0  0  0  0  0  0  0  0  0  0
   39.5713   31.8487   41.7178 N   0  0  0  0  0  0  0  0  0  0  0  0
   39.2014   33.2400   41.8711 C   0  0  1  0  0  0  0  0  0  0  0  0
   37.8061   33.4469   41.5179 C   0  0  0  0  0  0  0  0  0  0  0  0
   37.6334   33.1337   40.1587 O   0  0  0  0  0  0  0  0  0  0  0  0
   38.0560   31.8894   39.7893 C   0  0  0  0  0  0  0  0  0  0  0  0
   39.4410   31.5743   40.2978 C   0  0  1  0  0  0  0  0  0  0  0  0
   35.4726   29.4721   47.1446 H   0  0  0  0  0  0  0  0  0  0  0  0
   38.7513   32.1018   48.1571 H   0  0  0  0  0  0  0  0  0  0  0  0
   39.7699   33.3725   45.9522 H   0  0  0  0  0  0  0  0  0  0  0  0
   35.7147   30.1019   44.7647 H   0  0  0  0  0  0  0  0  0  0  0  0
   38.1848   30.3693   52.2929 H   0  0  0  0  0  0  0  0  0  0  0  0
   38.7056   31.1212   49.9492 H   0  0  0  0  0  0  0  0  0  0  0  0
   34.5175   28.7648   50.9288 H   0  0  0  0  0  0  0  0  0  0  0  0
   39.0230   31.1457   42.1795 H   0  0  0  0  0  0  0  0  0  0  0  0
   39.8672   33.8065   41.1978 H   0  0  0  0  0  0  0  0  0  0  0  0
   37.6049   34.5608   41.5553 H   0  0  0  0  0  0  0  0  0  0  0  0
   36.9789   32.9787   41.9813 H   0  0  0  0  0  0  0  0  0  0  0  0
   38.0690   31.8428   38.6998 H   0  0  0  0  0  0  0  0  0  0  0  0
   37.3549   31.1267   40.2248 H   0  0  0  0  0  0  0  0  0  0  0  0
   39.6347   30.4993   40.0677 H   0  0  0  0  0  0  0  0  0  0  0  0
   40.3996   32.4612   39.5885 C   0  0  0  0  0  0  0  0  0  0  0  0
   41.4011   31.8755   38.8072 C   0  0  0  0  0  0  0  0  0  0  0  0
   41.6147   30.8315   38.6163 H   0  0  0  0  0  0  0  0  0  0  0  0
   42.1640   32.8903   38.2509 C   0  0  0  0  0  0  0  0  0  0  0  0
   43.0153   32.7592   37.5966 H   0  0  0  0  0  0  0  0  0  0  0  0
   41.5790   34.0465   38.7288 C   0  0  0  0  0  0  0  0  0  0  0  0
   41.9534   35.0278   38.4685 H   0  0  0  0  0  0  0  0  0  0  0  0
   40.5485   33.7644   39.5092 O   0  0  0  0  0  0  0  0  0  0  0  0
  1  2  2  0
  2 12  1  0
  3  2  1  0
  4  3  2  0
  5  4  1  0
  6  5  1  0
  7  6  2  0
  7  8  1  0
  8  9  2  0
  8  4  1  0
  9  1  1  0
 10 15  2  0
 11 10  1  0
 12 13  1  0
 12 11  2  0
 13 14  2  0
 14 15  1  0
 16  6  1  0
 17 18  1  0
 18 16  1  0
 19 18  1  0
 20 19  1  0
 21 20  1  0
 21 22  1  0
 22 17  1  0
  1 23  1  0
  3 24  1  0
  5 25  1  0
  9 26  1  0
 10 27  1  0
 11 28  1  0
 14 29  1  0
 17 30  1  0
 18 31  1  6
 19 32  1  0
 19 33  1  0
 21 34  1  0
 21 35  1  0
 22 36  1  1
 37 38  2  0
 38 39  1  0
 38 40  1  0
 40 41  1  0
 40 42  2  0
 42 43  1  0
 42 44  1  0
 44 37  1  0
 22 37  1  0
M  ISO  8  23  14  24  14  25   9  26  14  27  14  28  14  29  14  30   5
M  ISO  8  31  13  32  13  33  13  34  13  35  13  36  13  39  16  41  16
M  ISO  1  43  14
M  END
>  <DihAtoms>  (1) 
20,21,36,37

>  <DihDeg>  (1) 
165.6395613227068

$$$$
