
     RDKit          3D

 38 41  0  0  0  0  0  0  0  0999 V2000
   36.4190   30.8460   45.6190 Cl  0  0  0  0  0  0  0  0  0  0  0  0
   36.6740   30.7090   47.3330 C   0  0  0  0  0  0  0  0  0  0  0  0
   37.9090   31.0470   47.8270 C   0  0  0  0  0  0  0  0  0  0  0  0
   38.1160   30.9400   49.1900 C   0  0  0  0  0  0  0  0  0  0  0  0
   37.1060   30.5070   50.0050 C   0  0  0  0  0  0  0  0  0  0  0  0
   35.8800   30.1810   49.4420 C   0  0  0  0  0  0  0  0  0  0  0  0
   35.5990   30.2600   48.1040 C   0  0  0  0  0  0  0  0  0  0  0  0
   40.1850   33.3110   46.0890 C   0  0  0  0  0  0  0  0  0  0  0  0
   40.9220   32.4670   45.2200 C   0  0  0  0  0  0  0  0  0  0  0  0
   40.6130   31.1030   45.2500 C   0  0  0  0  0  0  0  0  0  0  0  0
   39.6370   30.6670   46.1010 N   0  0  0  0  0  0  0  0  0  0  0  0
   38.9700   31.5100   46.9020 C   0  0  0  0  0  0  0  0  0  0  0  0
   39.2450   32.8190   46.8940 N   0  0  0  0  0  0  0  0  0  0  0  0
   34.0370   29.8460   47.3710 S   0  0  0  0  0  0  0  0  0  0  0  0
   33.9650   28.9550   44.3630 Cl  0  0  0  0  0  0  0  0  0  0  0  0
   33.8990   27.7830   45.6470 C   0  0  0  0  0  0  0  0  0  0  0  0
   33.9240   28.0940   47.0070 C   0  0  0  0  0  0  0  0  0  0  0  0
   33.8640   27.0810   47.9440 C   0  0  0  0  0  0  0  0  0  0  0  0
   33.7790   25.7700   47.5460 C   0  0  0  0  0  0  0  0  0  0  0  0
   33.7510   25.4010   46.2100 C   0  0  0  0  0  0  0  0  0  0  0  0
   33.8140   26.4460   45.3000 C   0  0  0  0  0  0  0  0  0  0  0  0
   33.7860   26.0740   43.8820 C   0  0  0  0  0  0  0  0  0  0  0  0
   34.8010   25.7000   43.0650 C   0  0  0  0  0  0  0  0  0  0  0  0
   34.3730   25.4260   41.7820 C   0  0  0  0  0  0  0  0  0  0  0  0
   33.0090   25.6650   41.8940 C   0  0  0  0  0  0  0  0  0  0  0  0
   32.7220   26.0330   43.1150 O   0  0  0  0  0  0  0  0  0  0  0  0
   39.0939   31.2033   49.6195 H   0  0  0  0  0  0  0  0  0  0  0  0
   37.2632   30.4186   51.0901 H   0  0  0  0  0  0  0  0  0  0  0  0
   35.0811   29.8364   50.1151 H   0  0  0  0  0  0  0  0  0  0  0  0
   40.3933   34.3911   46.0984 H   0  0  0  0  0  0  0  0  0  0  0  0
   41.7005   32.8663   44.5533 H   0  0  0  0  0  0  0  0  0  0  0  0
   41.1464   30.3939   44.5999 H   0  0  0  0  0  0  0  0  0  0  0  0
   33.8845   27.3264   49.0161 H   0  0  0  0  0  0  0  0  0  0  0  0
   33.7314   24.9844   48.3144 H   0  0  0  0  0  0  0  0  0  0  0  0
   33.6834   24.3499   45.8928 H   0  0  0  0  0  0  0  0  0  0  0  0
   35.8495   25.6234   43.3888 H   0  0  0  0  0  0  0  0  0  0  0  0
   34.9554   25.1047   40.9059 H   0  0  0  0  0  0  0  0  0  0  0  0
   32.2796   25.5602   41.0773 H   0  0  0  0  0  0  0  0  0  0  0  0
  1  2  1  0
  2  3  2  0
  2  7  1  0
  3  4  1  0
  4  5  2  0
  6  5  1  0
  7  6  2  0
  8 13  2  0
  9 10  2  0
  9  8  1  0
 10 11  1  0
 11 12  2  0
 12  3  1  0
 13 12  1  0
 14  7  1  0
 15 16  1  0
 16 17  2  0
 17 14  1  0
 17 18  1  0
 19 18  2  0
 20 19  1  0
 21 16  1  0
 21 20  2  0
 22 21  1  0
 23 22  2  0
 24 25  2  0
 24 23  1  0
 25 26  1  0
 26 22  1  0
  4 27  1  0
  5 28  1  0
  6 29  1  0
  8 30  1  0
  9 31  1  0
 10 32  1  0
 18 33  1  0
 19 34  1  0
 20 35  1  0
 23 36  1  0
 24 37  1  0
 25 38  1  0
M  ISO  8  27  14  28  14  29  14  30  14  31  14  32  14  33  14  34  14
M  ISO  4  35  14  36  14  37  14  38  14
M  END
>  <minimizedAffinity>  (1) 
-5.62807608

>  <minimizedRMSD>  (1) 
0.233553201

$$$$
