
     RDKit          3D

 41 43  0  0  0  0  0  0  0  0999 V2000
   35.2800   30.4580   49.4150 C   0  0  0  0  0  0  0  0  0  0  0  0
   38.1880   31.6070   48.9700 Br  0  0  0  0  0  0  0  0  0  0  0  0
   36.9700   30.9690   47.6310 C   0  0  0  0  0  0  0  0  0  0  0  0
   37.3270   30.9790   46.3050 C   0  0  0  0  0  0  0  0  0  0  0  0
   36.4190   30.5180   45.3910 C   0  0  0  0  0  0  0  0  0  0  0  0
   35.1660   30.0490   45.7600 C   0  0  0  0  0  0  0  0  0  0  0  0
   34.8370   30.0550   47.1190 C   0  0  0  0  0  0  0  0  0  0  0  0
   35.7440   30.5140   48.0340 C   0  0  0  0  0  0  0  0  0  0  0  0
   39.8900   33.2630   45.0650 C   0  0  0  0  0  0  0  0  0  0  0  0
   41.0720   32.4600   45.0420 C   0  0  0  0  0  0  0  0  0  0  0  0
   40.9460   31.1580   45.4540 C   0  0  0  0  0  0  0  0  0  0  0  0
   39.7230   30.6740   45.8670 N   0  0  0  0  0  0  0  0  0  0  0  0
   38.6390   31.4720   45.8710 C   0  0  0  0  0  0  0  0  0  0  0  0
   38.7350   32.7490   45.4710 N   0  0  0  0  0  0  0  0  0  0  0  0
   34.1860   29.5000   49.7260 C   0  0  0  0  0  0  0  0  0  0  0  0
   34.6720   28.1780   49.5730 N   0  0  0  0  0  0  0  0  0  0  0  0
   33.9480   27.3080   48.7270 C   0  0  0  0  0  0  0  0  0  0  0  0
   32.5260   27.7630   48.6720 C   0  0  0  0  0  0  0  0  0  0  0  0
   31.8470   26.6970   47.7980 C   0  0  0  0  0  0  0  0  0  0  0  0
   32.3600   25.4480   47.5140 C   0  0  0  0  0  0  0  0  0  0  0  0
   31.4580   24.7910   46.7020 C   0  0  0  0  0  0  0  0  0  0  0  0
   30.4200   25.7000   46.5300 C   0  0  0  0  0  0  0  0  0  0  0  0
   30.6880   26.8100   47.1920 O   0  0  0  0  0  0  0  0  0  0  0  0
   34.9263   31.4636   49.6863 H   0  0  0  0  0  0  0  0  0  0  0  0
   36.1452   30.0969   49.9904 H   0  0  0  0  0  0  0  0  0  0  0  0
   36.6920   30.5192   44.3254 H   0  0  0  0  0  0  0  0  0  0  0  0
   34.4532   29.6836   45.0061 H   0  0  0  0  0  0  0  0  0  0  0  0
   33.8530   29.6921   47.4507 H   0  0  0  0  0  0  0  0  0  0  0  0
   39.9374   34.3141   44.7442 H   0  0  0  0  0  0  0  0  0  0  0  0
   42.0381   32.8674   44.7093 H   0  0  0  0  0  0  0  0  0  0  0  0
   41.8250   30.4967   45.4549 H   0  0  0  0  0  0  0  0  0  0  0  0
   33.8474   29.6507   50.7617 H   0  0  0  0  0  0  0  0  0  0  0  0
   33.3411   29.6664   49.0416 H   0  0  0  0  0  0  0  0  0  0  0  0
   35.6301   28.2432   49.2005 H   0  0  0  0  0  0  0  0  0  0  0  0
   34.3822   27.3288   47.7165 H   0  0  0  0  0  0  0  0  0  0  0  0
   33.9969   26.2807   49.1172 H   0  0  0  0  0  0  0  0  0  0  0  0
   32.0816   27.7893   49.6779 H   0  0  0  0  0  0  0  0  0  0  0  0
   32.4153   28.7817   48.2721 H   0  0  0  0  0  0  0  0  0  0  0  0
   33.3195   25.0464   47.8720 H   0  0  0  0  0  0  0  0  0  0  0  0
   31.5414   23.7766   46.2848 H   0  0  0  0  0  0  0  0  0  0  0  0
   29.5135   25.5213   45.9331 H   0  0  0  0  0  0  0  0  0  0  0  0
  1 15  1  0
  3  8  2  0
  3  2  1  0
  4  3  1  0
  5  6  1  0
  5  4  2  0
  6  7  2  0
  7  8  1  0
  8  1  1  0
  9 14  2  0
 10  9  1  0
 10 11  2  0
 11 12  1  0
 12 13  2  0
 13  4  1  0
 14 13  1  0
 16 15  1  0
 17 16  1  0
 18 17  1  0
 19 18  1  0
 20 19  2  0
 21 20  1  0
 22 21  2  0
 22 23  1  0
 23 19  1  0
  1 24  1  0
  1 25  1  0
  5 26  1  0
  6 27  1  0
  7 28  1  0
  9 29  1  0
 10 30  1  0
 11 31  1  0
 15 32  1  0
 15 33  1  0
 16 34  1  0
 17 35  1  0
 17 36  1  0
 18 37  1  0
 18 38  1  0
 20 39  1  0
 21 40  1  0
 22 41  1  0
M  ISO  8  24   8  25   8  26  14  27  14  28  14  29  14  30  14  31  14
M  ISO  8  32   8  33   8  34   5  35   8  36   8  37   8  38   8  39  14
M  ISO  2  40  14  41  14
M  END
>  <minimizedAffinity>  (1) 
-5.13929415

>  <minimizedRMSD>  (1) 
0.299622804

$$$$
