
     RDKit          3D

 26 28  0  0  0  0  0  0  0  0999 V2000
   37.5157   30.4242   50.9237 C   0  0  0  0  0  0  0  0  0  0  0  0
   37.2200   31.0523   49.7211 C   0  0  0  0  0  0  0  0  0  0  0  0
   35.9729   30.7802   49.1412 C   0  0  0  0  0  0  0  0  0  0  0  0
   35.1176   29.9247   49.7723 N   0  0  0  0  0  0  0  0  0  0  0  0
   35.4665   29.3413   50.9489 C   0  0  0  0  0  0  0  0  0  0  0  0
   36.6640   29.5863   51.5306 N   0  0  0  0  0  0  0  0  0  0  0  0
   38.0931   31.9705   49.0124 C   0  0  0  0  0  0  0  0  0  0  0  0
   38.5429   33.1483   49.5953 C   0  0  0  0  0  0  0  0  0  0  0  0
   39.3758   34.0387   48.9240 C   0  0  0  0  0  0  0  0  0  0  0  0
   39.7796   33.7658   47.6432 C   0  0  0  0  0  0  0  0  0  0  0  0
   39.3149   32.5955   47.1051 C   0  0  0  0  0  0  0  0  0  0  0  0
   38.5120   31.7402   47.7561 N   0  0  0  0  0  0  0  0  0  0  0  0
   38.4947   30.6882   51.3014 H   0  0  0  0  0  0  0  0  0  0  0  0
   35.6333   31.2112   48.2063 H   0  0  0  0  0  0  0  0  0  0  0  0
   34.8178   28.6560   51.4836 H   0  0  0  0  0  0  0  0  0  0  0  0
   38.2277   33.3690   50.6059 H   0  0  0  0  0  0  0  0  0  0  0  0
   39.6703   34.9256   49.4624 H   0  0  0  0  0  0  0  0  0  0  0  0
   39.6026   32.3306   46.0976 H   0  0  0  0  0  0  0  0  0  0  0  0
   40.6524   34.7030   46.9447 C   0  0  0  0  0  0  0  0  0  0  0  0
   41.1527   34.5907   45.6636 C   0  0  0  0  0  0  0  0  0  0  0  0
   40.9350   33.7553   45.0221 H   0  0  0  0  0  0  0  0  0  0  0  0
   41.9205   35.7305   45.4767 C   0  0  0  0  0  0  0  0  0  0  0  0
   42.4186   35.8472   44.5111 H   0  0  0  0  0  0  0  0  0  0  0  0
   41.8362   36.4628   46.6597 C   0  0  0  0  0  0  0  0  0  0  0  0
   42.3839   37.3965   46.6900 H   0  0  0  0  0  0  0  0  0  0  0  0
   41.0733   35.8141   47.5014 O   0  0  0  0  0  0  0  0  0  0  0  0
  1  6  2  0
  2  1  1  0
  3  2  2  0
  3  4  1  0
  4  5  2  0
  5  6  1  0
  7  8  2  0
  7  2  1  0
  9  8  1  0
 10  9  2  0
 11 10  1  0
 11 12  2  0
 12  7  1  0
  1 13  1  0
  3 14  1  0
  5 15  1  0
  8 16  1  0
  9 17  1  0
 11 18  1  0
 19 20  2  0
 20 21  1  0
 20 22  1  0
 22 23  1  0
 22 24  2  0
 24 25  1  0
 24 26  1  0
 26 19  1  0
 10 19  1  0
M  ISO  8  13  14  14  14  15  14  16  14  17  14  18  14  21  16  23  16
M  ISO  1  25  14
M  END
>  <DihAtoms>  (1) 
8,9,18,19

>  <DihDeg>  (1) 
-179.99690625716383

$$$$
