
     RDKit          3D

 35 38  0  0  0  0  0  0  0  0999 V2000
   37.3170   29.3339   51.0286 Br  0  0  0  0  0  0  0  0  0  0  0  0
   35.9607   29.3284   49.6754 C   0  0  0  0  0  0  0  0  0  0  0  0
   35.9961   30.2509   48.6415 C   0  0  0  0  0  0  0  0  0  0  0  0
   34.9899   30.1968   47.6956 C   0  0  0  0  0  0  0  0  0  0  0  0
   33.9653   29.2564   47.7584 C   0  0  0  0  0  0  0  0  0  0  0  0
   33.9604   28.3659   48.7855 C   0  0  0  0  0  0  0  0  0  0  0  0
   34.9588   28.4099   49.7355 C   0  0  0  0  0  0  0  0  0  0  0  0
   37.9881   33.1997   49.4629 C   0  0  0  0  0  0  0  0  0  0  0  0
   39.0131   33.1820   48.4823 C   0  0  0  0  0  0  0  0  0  0  0  0
   39.0091   32.1524   47.5449 C   0  0  0  0  0  0  0  0  0  0  0  0
   38.0178   31.2013   47.6082 N   0  0  0  0  0  0  0  0  0  0  0  0
   37.0589   31.2472   48.5523 C   0  0  0  0  0  0  0  0  0  0  0  0
   37.0492   32.2488   49.4770 N   0  0  0  0  0  0  0  0  0  0  0  0
   32.8982   29.1966   46.7579 C   0  0  0  0  0  0  0  0  0  0  0  0
   32.2552   28.0365   46.3690 C   0  0  0  0  0  0  0  0  0  0  0  0
   31.2486   28.0382   45.4143 C   0  0  0  0  0  0  0  0  0  0  0  0
   30.8738   29.1767   44.8421 N   0  0  0  0  0  0  0  0  0  0  0  0
   31.4922   30.3144   45.2118 C   0  0  0  0  0  0  0  0  0  0  0  0
   32.4628   30.3120   46.1327 N   0  0  0  0  0  0  0  0  0  0  0  0
   34.9521   30.8824   46.8631 H   0  0  0  0  0  0  0  0  0  0  0  0
   33.1796   27.6419   48.8420 H   0  0  0  0  0  0  0  0  0  0  0  0
   34.9024   27.6767   50.5288 H   0  0  0  0  0  0  0  0  0  0  0  0
   38.0337   34.0153   50.1656 H   0  0  0  0  0  0  0  0  0  0  0  0
   39.7659   33.9477   48.4740 H   0  0  0  0  0  0  0  0  0  0  0  0
   39.7580   32.0915   46.7846 H   0  0  0  0  0  0  0  0  0  0  0  0
   32.5670   27.1124   46.8406 H   0  0  0  0  0  0  0  0  0  0  0  0
   30.7810   27.0981   45.1499 H   0  0  0  0  0  0  0  0  0  0  0  0
   31.2024   31.6467   44.6835 C   0  0  0  0  0  0  0  0  0  0  0  0
   29.8976   31.9587   44.2830 C   0  0  0  0  0  0  0  0  0  0  0  0
   29.0156   31.3338   44.3030 H   0  0  0  0  0  0  0  0  0  0  0  0
   29.8979   33.2769   43.8245 C   0  0  0  0  0  0  0  0  0  0  0  0
   29.0150   33.7815   43.4515 H   0  0  0  0  0  0  0  0  0  0  0  0
   31.2287   33.6842   43.9808 C   0  0  0  0  0  0  0  0  0  0  0  0
   31.5594   34.6784   43.7090 H   0  0  0  0  0  0  0  0  0  0  0  0
   31.9339   32.7171   44.4750 O   0  0  0  0  0  0  0  0  0  0  0  0
  2  7  2  0
  2  1  1  0
  3  2  1  0
  4  5  1  0
  4  3  2  0
  5  6  2  0
  6  7  1  0
  8 13  2  0
  9  8  1  0
 10 11  1  0
 10  9  2  0
 11 12  2  0
 12  3  1  0
 12 13  1  0
 14  5  1  0
 15 14  2  0
 16 15  1  0
 17 18  1  0
 17 16  2  0
 18 19  2  0
 19 14  1  0
  4 20  1  0
  6 21  1  0
  7 22  1  0
  8 23  1  0
  9 24  1  0
 10 25  1  0
 15 26  1  0
 16 27  1  0
 28 29  2  0
 29 30  1  0
 29 31  1  0
 31 32  1  0
 31 33  2  0
 33 34  1  0
 33 35  1  0
 35 28  1  0
 18 28  1  0
M  ISO  8  20  14  21  14  22  14  23  14  24  14  25  14  26  14  27  14
M  ISO  3  30  16  32  16  34  14
M  END
>  <DihAtoms>  (1) 
16,17,27,28

>  <DihDeg>  (1) 
106.8721220418339

$$$$
