
     RDKit          3D

 44 47  0  0  0  0  0  0  0  0999 V2000
   35.5330   30.1340   46.6080 C   0  0  0  0  0  0  0  0  0  0  0  0
   34.2030   29.7620   46.8180 C   0  0  0  0  0  0  0  0  0  0  0  0
   33.4180   29.4350   45.7230 C   0  0  0  0  0  0  0  0  0  0  0  0
   33.8670   29.4520   44.4220 C   0  0  0  0  0  0  0  0  0  0  0  0
   35.1880   29.8240   44.2200 C   0  0  0  0  0  0  0  0  0  0  0  0
   35.9600   30.1470   45.3180 C   0  0  0  0  0  0  0  0  0  0  0  0
   37.2800   30.5000   44.9120 N   0  0  0  0  0  0  0  0  0  0  0  0
   38.5490   29.8660   44.7280 C   0  0  0  0  0  0  0  0  0  0  0  0
   39.5600   30.6390   45.5570 C   0  0  0  0  0  0  0  0  0  0  0  0
   39.7610   31.9060   44.9250 N   0  0  0  0  0  0  0  0  0  0  0  0
   38.6670   32.3620   44.1450 C   0  0  0  0  0  0  0  0  0  0  0  0
   37.3170   31.9030   44.5930 C   0  0  0  0  0  0  0  0  0  0  0  0
   37.0850   30.1120   49.9080 C   0  0  0  0  0  0  0  0  0  0  0  0
   37.9750   31.1960   49.8290 C   0  0  0  0  0  0  0  0  0  0  0  0
   38.0230   31.9160   48.6350 C   0  0  0  0  0  0  0  0  0  0  0  0
   37.2070   31.5160   47.6330 N   0  0  0  0  0  0  0  0  0  0  0  0
   36.3660   30.4800   47.7270 C   0  0  0  0  0  0  0  0  0  0  0  0
   36.3040   29.7710   48.8740 N   0  0  0  0  0  0  0  0  0  0  0  0
   38.9270   33.0550   48.5160 C   0  0  0  0  0  0  0  0  0  0  0  0
   39.2050   33.9530   49.5230 C   0  0  0  0  0  0  0  0  0  0  0  0
   40.0970   34.9070   49.0800 C   0  0  0  0  0  0  0  0  0  0  0  0
   40.3360   34.5400   47.7720 C   0  0  0  0  0  0  0  0  0  0  0  0
   39.6400   33.4780   47.5140 O   0  0  0  0  0  0  0  0  0  0  0  0
   37.0490   29.3670   51.2170 C   0  0  0  0  0  0  0  0  0  0  0  0
   35.7090   29.0310   51.4850 F   0  0  0  0  0  0  0  0  0  0  0  0
   37.8190   28.2790   51.1100 F   0  0  0  0  0  0  0  0  0  0  0  0
   37.4300   30.2200   52.2180 F   0  0  0  0  0  0  0  0  0  0  0  0
   33.7855   29.7291   47.8352 H   0  0  0  0  0  0  0  0  0  0  0  0
   32.3728   29.1443   45.9050 H   0  0  0  0  0  0  0  0  0  0  0  0
   33.2094   29.1833   43.5821 H   0  0  0  0  0  0  0  0  0  0  0  0
   35.6118   29.8609   43.2056 H   0  0  0  0  0  0  0  0  0  0  0  0
   38.5016   28.8213   45.0690 H   0  0  0  0  0  0  0  0  0  0  0  0
   38.8345   29.8634   43.6657 H   0  0  0  0  0  0  0  0  0  0  0  0
   39.1747   30.7857   46.5768 H   0  0  0  0  0  0  0  0  0  0  0  0
   40.5086   30.0859   45.6227 H   0  0  0  0  0  0  0  0  0  0  0  0
   39.9444   32.6048   45.6591 H   0  0  0  0  0  0  0  0  0  0  0  0
   38.8181   32.0118   43.1132 H   0  0  0  0  0  0  0  0  0  0  0  0
   38.6611   33.4572   44.2473 H   0  0  0  0  0  0  0  0  0  0  0  0
   37.0313   32.4743   45.4886 H   0  0  0  0  0  0  0  0  0  0  0  0
   36.6181   32.0708   43.7603 H   0  0  0  0  0  0  0  0  0  0  0  0
   38.6140   31.4686   50.6818 H   0  0  0  0  0  0  0  0  0  0  0  0
   38.7768   33.9146   50.5355 H   0  0  0  0  0  0  0  0  0  0  0  0
   40.5174   35.7574   49.6368 H   0  0  0  0  0  0  0  0  0  0  0  0
   41.0031   35.0598   47.0686 H   0  0  0  0  0  0  0  0  0  0  0  0
  1  2  2  0
  1 17  1  0
  3  2  1  0
  4  3  2  0
  5  4  1  0
  5  6  2  0
  6  1  1  0
  7  6  1  0
  8  7  1  0
  8  9  1  0
 10  9  1  0
 11 12  1  0
 11 10  1  0
 12  7  1  0
 13 24  1  0
 14 13  2  0
 15 14  1  0
 16 17  1  0
 16 15  2  0
 17 18  2  0
 18 13  1  0
 19 15  1  0
 19 20  2  0
 21 20  1  0
 22 21  2  0
 23 22  1  0
 23 19  1  0
 24 25  1  0
 24 27  1  0
 26 24  1  0
  2 28  1  0
  3 29  1  0
  4 30  1  0
  5 31  1  0
  8 32  1  0
  8 33  1  0
  9 34  1  0
  9 35  1  0
 10 36  1  0
 11 37  1  0
 11 38  1  0
 12 39  1  0
 12 40  1  0
 14 41  1  0
 20 42  1  0
 21 43  1  0
 22 44  1  0
M  ISO  8  28  14  29  14  30  14  31  14  32  13  33  13  34  13  35  13
M  ISO  8  36   5  37  13  38  13  39  13  40  13  41  14  42  14  43  14
M  ISO  1  44  14
M  END
>  <minimizedAffinity>  (1) 
-6.61976004

>  <minimizedRMSD>  (1) 
0.727759123

$$$$
