
     RDKit          3D

 35 38  0  0  0  0  0  0  0  0999 V2000
   37.4170   29.1610   50.8080 Br  0  0  0  0  0  0  0  0  0  0  0  0
   36.0030   29.2730   49.5190 C   0  0  0  0  0  0  0  0  0  0  0  0
   36.0030   30.2740   48.5610 C   0  0  0  0  0  0  0  0  0  0  0  0
   34.9560   30.3030   47.6590 C   0  0  0  0  0  0  0  0  0  0  0  0
   33.9240   29.3690   47.6930 C   0  0  0  0  0  0  0  0  0  0  0  0
   33.9530   28.4010   48.6470 C   0  0  0  0  0  0  0  0  0  0  0  0
   34.9930   28.3620   49.5530 C   0  0  0  0  0  0  0  0  0  0  0  0
   38.0140   33.1840   49.4680 C   0  0  0  0  0  0  0  0  0  0  0  0
   39.0410   33.1870   48.4900 C   0  0  0  0  0  0  0  0  0  0  0  0
   39.0320   32.1830   47.5240 C   0  0  0  0  0  0  0  0  0  0  0  0
   38.0350   31.2380   47.5580 N   0  0  0  0  0  0  0  0  0  0  0  0
   37.0740   31.2640   48.5010 C   0  0  0  0  0  0  0  0  0  0  0  0
   37.0690   32.2400   49.4540 N   0  0  0  0  0  0  0  0  0  0  0  0
   32.8130   29.3980   46.7410 C   0  0  0  0  0  0  0  0  0  0  0  0
   32.0420   28.3010   46.4060 C   0  0  0  0  0  0  0  0  0  0  0  0
   31.0000   28.3840   45.4940 C   0  0  0  0  0  0  0  0  0  0  0  0
   30.7150   29.5440   44.9120 N   0  0  0  0  0  0  0  0  0  0  0  0
   31.4580   30.6200   45.2300 C   0  0  0  0  0  0  0  0  0  0  0  0
   32.4630   30.5390   46.1090 N   0  0  0  0  0  0  0  0  0  0  0  0
   31.2780   31.9650   44.6840 C   0  0  0  0  0  0  0  0  0  0  0  0
   30.4670   32.1470   43.5570 C   0  0  0  0  0  0  0  0  0  0  0  0
   30.4680   33.5080   43.2480 C   0  0  0  0  0  0  0  0  0  0  0  0
   31.2940   34.0710   44.2270 C   0  0  0  0  0  0  0  0  0  0  0  0
   31.7330   33.1490   45.0240 O   0  0  0  0  0  0  0  0  0  0  0  0
   34.9375   31.0891   46.8898 H   0  0  0  0  0  0  0  0  0  0  0  0
   33.1498   27.6511   48.6965 H   0  0  0  0  0  0  0  0  0  0  0  0
   35.0058   27.5751   50.3216 H   0  0  0  0  0  0  0  0  0  0  0  0
   37.9955   33.9642   50.2432 H   0  0  0  0  0  0  0  0  0  0  0  0
   39.8230   33.9606   48.4940 H   0  0  0  0  0  0  0  0  0  0  0  0
   39.8100   32.1474   46.7471 H   0  0  0  0  0  0  0  0  0  0  0  0
   32.2615   27.3316   46.8773 H   0  0  0  0  0  0  0  0  0  0  0  0
   30.4089   27.4883   45.2523 H   0  0  0  0  0  0  0  0  0  0  0  0
   29.9262   31.3587   43.0129 H   0  0  0  0  0  0  0  0  0  0  0  0
   29.9426   34.0184   42.4273 H   0  0  0  0  0  0  0  0  0  0  0  0
   31.5355   35.1411   44.3081 H   0  0  0  0  0  0  0  0  0  0  0  0
  2  7  2  0
  2  1  1  0
  3  2  1  0
  4  5  1  0
  4  3  2  0
  5  6  2  0
  6  7  1  0
  9  8  2  0
 10 11  2  0
 10  9  1  0
 11 12  1  0
 12  3  1  0
 12 13  2  0
 13  8  1  0
 14  5  1  0
 15 14  2  0
 16 15  1  0
 17 18  1  0
 17 16  2  0
 18 19  2  0
 19 14  1  0
 20 24  1  0
 20 18  1  0
 21 20  2  0
 22 21  1  0
 22 23  2  0
 23 24  1  0
  4 25  1  0
  6 26  1  0
  7 27  1  0
  8 28  1  0
  9 29  1  0
 10 30  1  0
 15 31  1  0
 16 32  1  0
 21 33  1  0
 22 34  1  0
 23 35  1  0
M  ISO  8  25  14  26  14  27  14  28  14  29  14  30  14  31  14  32  14
M  ISO  3  33  14  34  14  35  14
M  END
>  <minimizedAffinity>  (1) 
-6.4859786

>  <minimizedRMSD>  (1) 
0.258659452

$$$$
