
     RDKit          3D

 48 50  0  0  0  0  0  0  0  0999 V2000
   36.6929   29.9698   49.0162 C   0  0  0  0  0  0  0  0  0  0  0  0
   37.6927   30.6316   48.3091 C   0  0  0  0  0  0  0  0  0  0  0  0
   37.4807   30.9158   46.9653 C   0  0  0  0  0  0  0  0  0  0  0  0
   36.3327   30.5451   46.4146 N   0  0  0  0  0  0  0  0  0  0  0  0
   35.3694   29.9041   47.1095 C   0  0  0  0  0  0  0  0  0  0  0  0
   35.5501   29.6197   48.3989 N   0  0  0  0  0  0  0  0  0  0  0  0
   38.4700   31.5555   46.2196 N   0  0  0  0  0  0  0  0  0  0  0  0
   39.4673   32.5282   46.7392 C   0  0  0  0  0  0  0  0  0  0  0  0
   40.0628   33.2137   45.5614 C   0  0  0  0  0  0  0  0  0  0  0  0
   39.2223   32.8462   44.4443 C   0  0  0  0  0  0  0  0  0  0  0  0
   38.7953   31.4815   44.8354 C   0  0  2  0  0  0  0  0  0  0  0  0
   37.6377   31.0344   43.9366 C   0  0  0  0  0  0  0  0  0  0  0  0
   36.5112   31.7491   44.2873 F   0  0  0  0  0  0  0  0  0  0  0  0
   37.3101   29.7162   44.0247 F   0  0  0  0  0  0  0  0  0  0  0  0
   37.9594   31.4230   42.6524 F   0  0  0  0  0  0  0  0  0  0  0  0
   39.8304   30.5014   44.6731 C   0  0  1  0  0  0  0  0  0  0  0  0
   40.3478   30.6971   43.5288 O   0  0  0  0  0  0  0  0  0  0  0  0
   40.9933   29.9848   42.5892 C   0  0  0  0  0  0  0  0  0  0  0  0
   40.7614   30.4199   41.4587 O   0  0  0  0  0  0  0  0  0  0  0  0
   41.8674   28.9168   42.2458 N   0  0  0  0  0  0  0  0  0  0  0  0
   36.9653   29.7966   50.0642 H   0  0  0  0  0  0  0  0  0  0  0  0
   38.6220   30.9346   48.7501 H   0  0  0  0  0  0  0  0  0  0  0  0
   34.4175   29.5879   46.6837 H   0  0  0  0  0  0  0  0  0  0  0  0
   38.7657   33.2057   47.3512 H   0  0  0  0  0  0  0  0  0  0  0  0
   40.1265   32.1518   47.4952 H   0  0  0  0  0  0  0  0  0  0  0  0
   41.0756   33.5015   45.5211 H   0  0  0  0  0  0  0  0  0  0  0  0
   39.6362   34.3198   45.7562 H   0  0  0  0  0  0  0  0  0  0  0  0
   39.7925   32.7883   43.4679 H   0  0  0  0  0  0  0  0  0  0  0  0
   38.3379   33.4584   44.1984 H   0  0  0  0  0  0  0  0  0  0  0  0
   39.5401   29.5254   44.9677 H   0  0  0  0  0  0  0  0  0  0  0  0
   42.9145   29.0975   42.2795 H   0  0  0  0  0  0  0  0  0  0  0  0
   41.5518   27.9610   41.9609 H   0  0  0  0  0  0  0  0  0  0  0  0
   41.4552   34.1490   46.1047 N   0  0  0  0  0  0  0  0  0  0  0  0
   40.8842   32.9964   45.9937 C   0  0  0  0  0  0  0  0  0  0  0  0
   39.6104   33.5730   45.7567 N   0  0  0  0  0  0  0  0  0  0  0  0
   41.5889   31.7302   46.1327 C   0  0  0  0  0  0  0  0  0  0  0  0
   41.1329   30.5646   45.5457 C   0  0  0  0  0  0  0  0  0  0  0  0
   41.8976   29.4665   45.8790 C   0  0  0  0  0  0  0  0  0  0  0  0
   41.5768   28.4918   45.4732 H   0  0  0  0  0  0  0  0  0  0  0  0
   42.9952   29.4544   46.6863 C   0  0  0  0  0  0  0  0  0  0  0  0
   43.5102   28.5460   46.8743 H   0  0  0  0  0  0  0  0  0  0  0  0
   43.3701   30.6596   47.2175 C   0  0  0  0  0  0  0  0  0  0  0  0
   42.6767   31.8098   46.9510 C   0  0  0  0  0  0  0  0  0  0  0  0
   40.8405   34.9804   45.9922 H   0  0  0  0  0  0  0  0  0  0  0  0
   38.6491   33.4983   46.1013 H   0  0  0  0  0  0  0  0  0  0  0  0
   38.6346   33.4850   46.1189 H   0  0  0  0  0  0  0  0  0  0  0  0
   44.2394   30.6558   47.8561 H   0  0  0  0  0  0  0  0  0  0  0  0
   43.0180   32.7295   47.3975 H   0  0  0  0  0  0  0  0  0  0  0  0
  2  1  2  0
  3  2  1  0
  4  3  2  0
  4  5  1  0
  5  6  2  0
  6  1  1  0
  7  8  1  0
  7  3  1  0
  9  8  1  0
 10 11  1  0
 10  9  1  0
 11 12  1  6
 11  7  1  0
 12 14  1  0
 12 13  1  0
 15 12  1  0
 16 11  1  0
 17 16  1  0
 18 17  1  0
 19 18  2  0
 20 18  1  0
  1 21  1  0
  2 22  1  0
  5 23  1  0
  8 24  1  0
  8 25  1  0
  9 26  1  0
  9 27  1  0
 10 28  1  0
 10 29  1  0
 16 30  1  6
 20 31  1  0
 20 32  1  0
 33 34  2  3
 34 35  1  0
 34 36  1  0
 36 37  2  0
 37 38  1  0
 38 39  1  0
 38 40  2  0
 40 41  1  0
 40 42  1  0
 42 43  2  0
 43 36  1  0
 33 44  1  0
 35 45  1  0
 35 46  1  0
 42 47  1  0
 43 48  1  0
 16 37  1  0
M  ISO  8  21  14  22  14  23  14  24  13  25  13  26  13  27  13  28  13
M  ISO  4  29  13  30   8  39  15  41  16
M  END
>  <DihAtoms>  (1) 
10,15,36,35

>  <DihDeg>  (1) 
96.49849593735206

$$$$
