
     RDKit          3D

 39 42  0  0  0  0  0  0  0  0999 V2000
   36.8552   30.5705   46.9219 C   0  0  0  0  0  0  0  0  0  0  0  0
   37.5186   31.0406   48.0366 C   0  0  0  0  0  0  0  0  0  0  0  0
   38.5104   31.9843   47.9014 C   0  0  0  0  0  0  0  0  0  0  0  0
   38.7901   32.4187   46.6042 C   0  0  0  0  0  0  0  0  0  0  0  0
   39.7298   33.3474   46.2119 N   0  0  0  0  0  0  0  0  0  0  0  0
   39.6382   33.4405   44.8715 C   0  0  0  0  0  0  0  0  0  0  0  0
   38.7000   32.6256   44.4204 N   0  0  0  0  0  0  0  0  0  0  0  0
   38.1584   31.9808   45.4687 C   0  0  0  0  0  0  0  0  0  0  0  0
   37.1663   31.0331   45.6318 C   0  0  0  0  0  0  0  0  0  0  0  0
   37.3830   30.0985   51.6676 C   0  0  0  0  0  0  0  0  0  0  0  0
   37.8590   30.6606   50.4868 C   0  0  0  0  0  0  0  0  0  0  0  0
   37.1297   30.5051   49.3232 C   0  0  0  0  0  0  0  0  0  0  0  0
   35.9557   29.7941   49.3913 N   0  0  0  0  0  0  0  0  0  0  0  0
   35.5145   29.2563   50.5566 C   0  0  0  0  0  0  0  0  0  0  0  0
   36.2133   29.4065   51.6659 N   0  0  0  0  0  0  0  0  0  0  0  0
   40.4738   34.3094   44.1982 O   0  0  0  0  0  0  0  0  0  0  0  0
   36.0604   29.8282   46.9262 H   0  0  0  0  0  0  0  0  0  0  0  0
   39.0433   32.3670   48.7612 H   0  0  0  0  0  0  0  0  0  0  0  0
   40.3723   33.8567   46.8862 H   0  0  0  0  0  0  0  0  0  0  0  0
   36.6484   30.6673   44.7524 H   0  0  0  0  0  0  0  0  0  0  0  0
   37.9785   30.2393   52.5595 H   0  0  0  0  0  0  0  0  0  0  0  0
   38.7834   31.2212   50.4301 H   0  0  0  0  0  0  0  0  0  0  0  0
   34.5773   28.7144   50.5025 H   0  0  0  0  0  0  0  0  0  0  0  0
   41.4105   31.5601   43.9920 N   0  0  0  0  0  0  0  0  0  0  0  0
   41.6180   32.2089   42.9032 C   0  0  0  0  0  0  0  0  0  0  0  0
   42.7169   31.4807   42.3816 N   0  0  0  0  0  0  0  0  0  0  0  0
   41.0412   33.3538   42.2200 C   0  0  0  0  0  0  0  0  0  0  0  0
   40.4402   34.4601   42.8336 C   0  0  0  0  0  0  0  0  0  0  0  0
   39.9604   35.4278   41.9896 C   0  0  0  0  0  0  0  0  0  0  0  0
   39.5157   36.2426   42.5015 H   0  0  0  0  0  0  0  0  0  0  0  0
   40.0538   35.3369   40.6201 C   0  0  0  0  0  0  0  0  0  0  0  0
   39.6244   36.1886   40.0870 H   0  0  0  0  0  0  0  0  0  0  0  0
   40.6455   34.2474   40.0200 C   0  0  0  0  0  0  0  0  0  0  0  0
   41.1335   33.2665   40.8280 C   0  0  0  0  0  0  0  0  0  0  0  0
   40.6915   31.7491   44.6955 H   0  0  0  0  0  0  0  0  0  0  0  0
   43.6593   31.1646   42.0390 H   0  0  0  0  0  0  0  0  0  0  0  0
   43.7463   31.5264   42.1424 H   0  0  0  0  0  0  0  0  0  0  0  0
   40.6901   34.2313   38.9392 H   0  0  0  0  0  0  0  0  0  0  0  0
   41.5900   32.4297   40.3095 H   0  0  0  0  0  0  0  0  0  0  0  0
  1  2  2  0
  2 12  1  0
  3  2  1  0
  4  3  2  0
  5  4  1  0
  6  5  1  0
  7  6  2  0
  7  8  1  0
  8  9  2  0
  8  4  1  0
  9  1  1  0
 10 15  2  0
 11 10  1  0
 12 13  1  0
 12 11  2  0
 13 14  2  0
 14 15  1  0
 16  6  1  0
  1 17  1  0
  3 18  1  0
  5 19  1  0
  9 20  1  0
 10 21  1  0
 11 22  1  0
 14 23  1  0
 24 25  2  3
 25 26  1  0
 25 27  1  0
 27 28  2  0
 28 29  1  0
 29 30  1  0
 29 31  2  0
 31 32  1  0
 31 33  1  0
 33 34  2  0
 34 27  1  0
 24 35  1  0
 26 36  1  0
 26 37  1  0
 33 38  1  0
 34 39  1  0
 16 28  1  0
M  ISO  8  17  14  18  14  19   9  20  14  21  14  22  14  23  14  30  15
M  ISO  1  32  16
M  END
>  <DihAtoms>  (1) 
5,15,27,26

>  <DihDeg>  (1) 
-179.94645162543443

$$$$
