
     RDKit          3D

 41 44  0  0  0  0  0  0  0  0999 V2000
   37.4784   31.3271   48.3642 C   0  0  0  0  0  0  0  0  0  0  0  0
   36.7657   30.8609   47.2657 C   0  0  0  0  0  0  0  0  0  0  0  0
   37.2393   31.2194   46.0260 C   0  0  0  0  0  0  0  0  0  0  0  0
   38.3717   32.0069   45.8862 C   0  0  0  0  0  0  0  0  0  0  0  0
   39.0453   32.5022   44.8455 N   0  0  0  0  0  0  0  0  0  0  0  0
   40.0840   33.2128   45.2620 C   0  0  0  0  0  0  0  0  0  0  0  0
   40.1108   33.1960   46.6159 N   0  0  0  0  0  0  0  0  0  0  0  0
   39.0593   32.4554   47.0000 C   0  0  0  0  0  0  0  0  0  0  0  0
   38.6063   32.1107   48.2475 C   0  0  0  0  0  0  0  0  0  0  0  0
   35.6144   29.3359   48.7536 C   0  0  0  0  0  0  0  0  0  0  0  0
   35.5971   30.0534   47.5177 C   0  0  0  0  0  0  0  0  0  0  0  0
   34.4808   29.9115   46.7068 C   0  0  0  0  0  0  0  0  0  0  0  0
   33.4738   29.1087   47.1230 N   0  0  0  0  0  0  0  0  0  0  0  0
   33.5058   28.4419   48.2873 C   0  0  0  0  0  0  0  0  0  0  0  0
   34.5771   28.5608   49.0942 N   0  0  0  0  0  0  0  0  0  0  0  0
   32.3652   27.5646   48.7073 C   0  0  0  0  0  0  0  0  0  0  0  0
   37.2352   31.1367   49.4184 H   0  0  0  0  0  0  0  0  0  0  0  0
   36.6943   30.8634   45.1517 H   0  0  0  0  0  0  0  0  0  0  0  0
   38.7204   32.3022   43.8600 H   0  0  0  0  0  0  0  0  0  0  0  0
   40.7371   33.6856   44.5257 H   0  0  0  0  0  0  0  0  0  0  0  0
   39.1776   32.4847   49.1041 H   0  0  0  0  0  0  0  0  0  0  0  0
   36.3895   29.3185   49.5058 H   0  0  0  0  0  0  0  0  0  0  0  0
   34.4902   30.4535   45.7939 H   0  0  0  0  0  0  0  0  0  0  0  0
   32.2762   27.5889   49.8346 H   0  0  0  0  0  0  0  0  0  0  0  0
   31.4210   28.0178   48.3630 H   0  0  0  0  0  0  0  0  0  0  0  0
   29.9585   25.8310   50.3373 N   0  0  0  0  0  0  0  0  0  0  0  0
   30.5666   25.3326   49.3278 C   0  0  0  0  0  0  0  0  0  0  0  0
   29.3634   24.6862   48.9460 N   0  0  0  0  0  0  0  0  0  0  0  0
   31.7367   25.1532   48.5013 C   0  0  0  0  0  0  0  0  0  0  0  0
   32.5852   26.1980   48.2328 C   0  0  0  0  0  0  0  0  0  0  0  0
   33.6934   25.9472   47.4611 C   0  0  0  0  0  0  0  0  0  0  0  0
   34.3937   26.7502   47.2242 H   0  0  0  0  0  0  0  0  0  0  0  0
   33.8835   24.6705   47.0063 C   0  0  0  0  0  0  0  0  0  0  0  0
   34.7401   24.4215   46.3960 H   0  0  0  0  0  0  0  0  0  0  0  0
   33.0387   23.6163   47.2692 C   0  0  0  0  0  0  0  0  0  0  0  0
   31.9244   23.8500   48.0407 C   0  0  0  0  0  0  0  0  0  0  0  0
   30.4313   26.4496   51.0192 H   0  0  0  0  0  0  0  0  0  0  0  0
   29.0032   24.1825   48.1099 H   0  0  0  0  0  0  0  0  0  0  0  0
   28.4922   24.2216   48.6773 H   0  0  0  0  0  0  0  0  0  0  0  0
   33.2299   22.6086   46.8837 H   0  0  0  0  0  0  0  0  0  0  0  0
   31.2456   23.0487   48.2636 H   0  0  0  0  0  0  0  0  0  0  0  0
  2 11  1  0
  2  1  2  0
  3  2  1  0
  4  3  2  0
  4  8  1  0
  5  6  1  0
  5  4  1  0
  6  7  2  0
  7  8  1  0
  8  9  2  0
  9  1  1  0
 10 15  2  0
 11 10  1  0
 12 13  1  0
 12 11  2  0
 13 14  2  0
 14 16  1  0
 14 15  1  0
  1 17  1  0
  3 18  1  0
  5 19  1  0
  6 20  1  0
  9 21  1  0
 10 22  1  0
 12 23  1  0
 16 24  1  0
 16 25  1  0
 26 27  2  3
 27 28  1  0
 27 29  1  0
 29 30  2  0
 30 31  1  0
 31 32  1  0
 31 33  2  0
 33 34  1  0
 33 35  1  0
 35 36  2  0
 36 29  1  0
 26 37  1  0
 28 38  1  0
 28 39  1  0
 35 40  1  0
 36 41  1  0
 16 30  1  0
M  ISO  8  17  14  18  14  19   9  20  14  21  14  22  14  23  14  24   8
M  ISO  3  25   8  32  15  34  16
M  END
>  <DihAtoms>  (1) 
13,15,29,28

>  <DihDeg>  (1) 
-77.40967071019186

$$$$
