
     RDKit          3D

 33 34  0  0  0  0  0  0  0  0999 V2000
   33.9270   29.4180   45.0070 O   0  0  0  0  0  0  0  0  0  0  0  0
   33.7540   29.5390   46.5050 P   0  0  1  0  0  0  0  0  0  0  0  0
   33.1820   31.0580   46.9320 O   0  0  0  0  0  0  0  0  0  0  0  0
   32.6370   28.3980   47.1330 O   0  0  0  0  0  0  0  0  0  0  0  0
   31.6440   27.8330   46.3410 C   0  0  0  0  0  0  0  0  0  0  0  0
   30.3980   28.3880   46.0670 C   0  0  0  0  0  0  0  0  0  0  0  0
   29.5300   27.6680   45.2450 C   0  0  0  0  0  0  0  0  0  0  0  0
   29.9160   26.4640   44.7430 N   0  0  0  0  0  0  0  0  0  0  0  0
   31.1550   25.9610   45.0430 C   0  0  0  0  0  0  0  0  0  0  0  0
   32.0180   26.6350   45.8360 N   0  0  0  0  0  0  0  0  0  0  0  0
   30.1680   29.6340   46.6660 N   0  0  0  0  0  0  0  0  0  0  0  0
   35.2930   29.2560   47.1770 O   0  0  0  0  0  0  0  0  0  0  0  0
   35.6730   30.3140   49.2940 C   0  0  0  0  0  0  0  0  0  0  0  0
   35.9830   30.1800   47.9360 C   0  0  0  0  0  0  0  0  0  0  0  0
   36.9800   31.0170   47.4880 C   0  0  0  0  0  0  0  0  0  0  0  0
   37.6370   31.9210   48.2830 C   0  0  0  0  0  0  0  0  0  0  0  0
   37.3040   32.0220   49.6080 C   0  0  0  0  0  0  0  0  0  0  0  0
   36.3160   31.2110   50.1080 C   0  0  0  0  0  0  0  0  0  0  0  0
   34.6630   28.1480   49.7220 N   0  0  0  0  0  0  0  0  0  0  0  0
   34.6230   29.4530   49.8290 C   0  0  0  0  0  0  0  0  0  0  0  0
   33.4430   29.8500   50.5180 N   0  0  0  0  0  0  0  0  0  0  0  0
   33.8620   27.6510   50.1410 H   0  0  0  0  0  0  0  0  0  0  0  0
   33.1532   31.1344   47.9186 H   0  0  0  0  0  0  0  0  0  0  0  0
   28.5362   28.0730   45.0036 H   0  0  0  0  0  0  0  0  0  0  0  0
   31.4542   24.9867   44.6292 H   0  0  0  0  0  0  0  0  0  0  0  0
   29.2716   30.1191   46.5176 H   0  0  0  0  0  0  0  0  0  0  0  0
   30.8954   30.0646   47.2546 H   0  0  0  0  0  0  0  0  0  0  0  0
   37.2671   30.9571   46.4278 H   0  0  0  0  0  0  0  0  0  0  0  0
   38.4257   32.5604   47.8598 H   0  0  0  0  0  0  0  0  0  0  0  0
   37.8201   32.7415   50.2607 H   0  0  0  0  0  0  0  0  0  0  0  0
   36.0378   31.2811   51.1699 H   0  0  0  0  0  0  0  0  0  0  0  0
   32.7752   29.1386   50.8477 H   0  0  0  0  0  0  0  0  0  0  0  0
   33.2567   30.8488   50.6870 H   0  0  0  0  0  0  0  0  0  0  0  0
  2  1  2  0
  2  3  1  0
  2  4  1  0
  2 12  1  0
  5  4  1  0
  6  5  2  0
  6 11  1  0
  7  6  1  0
  8  9  1  0
  8  7  2  0
  9 10  2  0
 10  5  1  0
 12 14  1  0
 13 20  1  0
 13 18  2  0
 14 13  1  0
 15 14  2  0
 15 16  1  0
 16 17  2  0
 17 18  1  0
 19 20  2  0
 19 22  1  0
 20 21  1  0
  3 23  1  0
  7 24  1  0
  9 25  1  0
 11 26  1  0
 11 27  1  0
 15 28  1  0
 16 29  1  0
 17 30  1  0
 18 31  1  0
 21 32  1  0
 21 33  1  0
M  ISO  7  23   3  24  14  25  14  28  14  29  14  30  14  31  14
M  END
>  <minimizedAffinity>  (1) 
-4.9092021

>  <minimizedRMSD>  (1) 
6.53751802

$$$$
