
     RDKit          3D

 36 38  0  0  0  0  0  0  0  0999 V2000
   36.3698   30.4813   46.3930 Cl  0  0  0  0  0  0  0  0  0  0  0  0
   36.7983   30.5401   48.0793 C   0  0  0  0  0  0  0  0  0  0  0  0
   38.0263   31.0873   48.3906 C   0  0  0  0  0  0  0  0  0  0  0  0
   38.3915   31.1450   49.7384 C   0  0  0  0  0  0  0  0  0  0  0  0
   37.5216   30.6599   50.6813 C   0  0  0  0  0  0  0  0  0  0  0  0
   36.3161   30.1282   50.3103 C   0  0  0  0  0  0  0  0  0  0  0  0
   35.8958   30.0417   49.0005 C   0  0  0  0  0  0  0  0  0  0  0  0
   39.9963   33.4223   46.4012 C   0  0  0  0  0  0  0  0  0  0  0  0
   40.5654   32.6117   45.3797 C   0  0  0  0  0  0  0  0  0  0  0  0
   40.2460   31.2538   45.4077 C   0  0  0  0  0  0  0  0  0  0  0  0
   39.4269   30.8071   46.3925 N   0  0  0  0  0  0  0  0  0  0  0  0
   38.9117   31.5893   47.3318 C   0  0  0  0  0  0  0  0  0  0  0  0
   39.2062   32.8914   47.3210 N   0  0  0  0  0  0  0  0  0  0  0  0
   34.3451   29.3618   48.4748 S   0  0  0  0  0  0  0  0  0  0  0  0
   39.3562   31.5774   49.9522 H   0  0  0  0  0  0  0  0  0  0  0  0
   37.8589   30.7318   51.7038 H   0  0  0  0  0  0  0  0  0  0  0  0
   35.6463   29.7512   51.0794 H   0  0  0  0  0  0  0  0  0  0  0  0
   40.2038   34.4865   46.4377 H   0  0  0  0  0  0  0  0  0  0  0  0
   41.2100   33.0958   44.6444 H   0  0  0  0  0  0  0  0  0  0  0  0
   40.6667   30.6386   44.6477 H   0  0  0  0  0  0  0  0  0  0  0  0
   32.5898   27.8196   47.4611 N   0  0  0  0  0  0  0  0  0  0  0  0
   32.4356   27.1074   48.5028 C   0  0  0  0  0  0  0  0  0  0  0  0
   32.1161   25.7286   48.4298 N   0  0  0  0  0  0  0  0  0  0  0  0
   32.5986   27.7556   49.7997 C   0  0  0  0  0  0  0  0  0  0  0  0
   33.4573   28.8245   49.9439 C   0  0  0  0  0  0  0  0  0  0  0  0
   33.6401   29.4688   51.1630 C   0  0  0  0  0  0  0  0  0  0  0  0
   34.3191   30.3052   51.2525 H   0  0  0  0  0  0  0  0  0  0  0  0
   32.9302   29.0103   52.2559 C   0  0  0  0  0  0  0  0  0  0  0  0
   33.0244   29.4664   53.2375 H   0  0  0  0  0  0  0  0  0  0  0  0
   32.0526   27.9384   52.1663 C   0  0  0  0  0  0  0  0  0  0  0  0
   31.9167   27.3412   50.9230 C   0  0  0  0  0  0  0  0  0  0  0  0
   32.5017   27.4820   46.4731 H   0  0  0  0  0  0  0  0  0  0  0  0
   32.3733   24.7375   48.5684 H   0  0  0  0  0  0  0  0  0  0  0  0
   31.8160   24.7534   48.3491 H   0  0  0  0  0  0  0  0  0  0  0  0
   31.4712   27.5359   52.9844 H   0  0  0  0  0  0  0  0  0  0  0  0
   31.2346   26.4865   50.7926 H   0  0  0  0  0  0  0  0  0  0  0  0
  1  2  1  0
  2  3  2  0
  2  7  1  0
  3  4  1  0
  4  5  2  0
  6  5  1  0
  7  6  2  0
  8 13  2  0
  9 10  2  0
  9  8  1  0
 10 11  1  0
 11 12  2  0
 12  3  1  0
 13 12  1  0
 14  7  1  0
  4 15  1  0
  5 16  1  0
  6 17  1  0
  8 18  1  0
  9 19  1  0
 10 20  1  0
 21 22  2  3
 22 23  1  0
 22 24  1  0
 24 25  2  0
 25 26  1  0
 26 27  1  0
 26 28  2  0
 28 29  1  0
 28 30  1  0
 30 31  2  0
 31 24  1  0
 21 32  1  0
 23 33  1  0
 23 34  1  0
 30 35  1  0
 31 36  1  0
 14 25  1  0
M  ISO  8  15  14  16  14  17  14  18  14  19  14  20  14  27  15  29  16
M  END
>  <DihAtoms>  (1) 
6,13,24,23

>  <DihDeg>  (1) 
90.00879446871716

$$$$
