
     RDKit          3D

 36 38  0  0  0  0  0  0  0  0999 V2000
   37.2739   29.4425   51.1103 Br  0  0  0  0  0  0  0  0  0  0  0  0
   36.0002   29.3188   49.7156 C   0  0  0  0  0  0  0  0  0  0  0  0
   36.0338   30.1891   48.6653 C   0  0  0  0  0  0  0  0  0  0  0  0
   35.0608   30.0361   47.6746 C   0  0  0  0  0  0  0  0  0  0  0  0
   34.0795   29.0696   47.6937 C   0  0  0  0  0  0  0  0  0  0  0  0
   34.0958   28.2081   48.7935 C   0  0  0  0  0  0  0  0  0  0  0  0
   35.0610   28.3458   49.7939 C   0  0  0  0  0  0  0  0  0  0  0  0
   37.8638   33.2357   49.4511 C   0  0  0  0  0  0  0  0  0  0  0  0
   38.9073   33.2741   48.4770 C   0  0  0  0  0  0  0  0  0  0  0  0
   38.9422   32.2316   47.5739 C   0  0  0  0  0  0  0  0  0  0  0  0
   38.0105   31.2440   47.6479 N   0  0  0  0  0  0  0  0  0  0  0  0
   37.0430   31.2398   48.5763 C   0  0  0  0  0  0  0  0  0  0  0  0
   36.9536   32.2481   49.5039 N   0  0  0  0  0  0  0  0  0  0  0  0
   39.7596   34.3404   48.5368 O   0  0  0  0  0  0  0  0  0  0  0  0
   35.0779   30.7258   46.8309 H   0  0  0  0  0  0  0  0  0  0  0  0
   33.3735   29.0224   46.8946 H   0  0  0  0  0  0  0  0  0  0  0  0
   33.3351   27.4362   48.8365 H   0  0  0  0  0  0  0  0  0  0  0  0
   34.9668   27.6107   50.6011 H   0  0  0  0  0  0  0  0  0  0  0  0
   37.7639   34.0231   50.2048 H   0  0  0  0  0  0  0  0  0  0  0  0
   39.7086   32.2523   46.8400 H   0  0  0  0  0  0  0  0  0  0  0  0
   42.3804   37.6088   48.5270 N   0  0  0  0  0  0  0  0  0  0  0  0
   41.9490   36.4140   48.2483 C   0  0  0  0  0  0  0  0  0  0  0  0
   41.7941   36.7567   46.9133 N   0  0  0  0  0  0  0  0  0  0  0  0
   41.8778   35.4730   49.3394 C   0  0  0  0  0  0  0  0  0  0  0  0
   40.8216   34.6079   49.3038 C   0  0  0  0  0  0  0  0  0  0  0  0
   40.7974   33.7037   50.3782 C   0  0  0  0  0  0  0  0  0  0  0  0
   40.0853   32.8989   50.6237 H   0  0  0  0  0  0  0  0  0  0  0  0
   41.7858   33.7238   51.3714 C   0  0  0  0  0  0  0  0  0  0  0  0
   41.8491   33.0710   52.2294 H   0  0  0  0  0  0  0  0  0  0  0  0
   42.8187   34.6336   51.3290 C   0  0  0  0  0  0  0  0  0  0  0  0
   42.8681   35.5307   50.2891 C   0  0  0  0  0  0  0  0  0  0  0  0
   42.6580   37.8890   49.4879 H   0  0  0  0  0  0  0  0  0  0  0  0
   42.5095   36.5665   46.1527 H   0  0  0  0  0  0  0  0  0  0  0  0
   41.0403   37.2205   46.4022 H   0  0  0  0  0  0  0  0  0  0  0  0
   43.6061   34.6929   52.0676 H   0  0  0  0  0  0  0  0  0  0  0  0
   43.6492   36.2634   50.2013 H   0  0  0  0  0  0  0  0  0  0  0  0
  2  7  2  0
  2  1  1  0
  3  2  1  0
  4  5  1  0
  4  3  2  0
  5  6  2  0
  6  7  1  0
  8 13  2  0
  9 14  1  0
  9  8  1  0
 10 11  1  0
 10  9  2  0
 11 12  2  0
 12  3  1  0
 12 13  1  0
  4 15  1  0
  5 16  1  0
  6 17  1  0
  7 18  1  0
  8 19  1  0
 10 20  1  0
 21 22  2  3
 22 23  1  0
 22 24  1  0
 24 25  2  0
 25 26  1  0
 26 27  1  0
 26 28  2  0
 28 29  1  0
 28 30  1  0
 30 31  2  0
 31 24  1  0
 21 32  1  0
 23 33  1  0
 23 34  1  0
 30 35  1  0
 31 36  1  0
 14 25  1  0
M  ISO  8  15  14  16  14  17  14  18  14  19  14  20  14  27  15  29  16
M  END
>  <DihAtoms>  (1) 
8,13,24,23

>  <DihDeg>  (1) 
60.351524560218415

$$$$
