
     RDKit          3D

 41 44  0  0  0  0  0  0  0  0999 V2000
   37.4784   31.3271   48.3642 C   0  0  0  0  0  0  0  0  0  0  0  0
   36.7657   30.8609   47.2657 C   0  0  0  0  0  0  0  0  0  0  0  0
   37.2393   31.2194   46.0260 C   0  0  0  0  0  0  0  0  0  0  0  0
   38.3717   32.0069   45.8862 C   0  0  0  0  0  0  0  0  0  0  0  0
   39.0453   32.5022   44.8455 N   0  0  0  0  0  0  0  0  0  0  0  0
   40.0840   33.2128   45.2620 C   0  0  0  0  0  0  0  0  0  0  0  0
   40.1108   33.1960   46.6159 N   0  0  0  0  0  0  0  0  0  0  0  0
   39.0593   32.4554   47.0000 C   0  0  0  0  0  0  0  0  0  0  0  0
   38.6063   32.1107   48.2475 C   0  0  0  0  0  0  0  0  0  0  0  0
   35.6144   29.3359   48.7536 C   0  0  0  0  0  0  0  0  0  0  0  0
   35.5971   30.0534   47.5177 C   0  0  0  0  0  0  0  0  0  0  0  0
   34.4808   29.9115   46.7068 C   0  0  0  0  0  0  0  0  0  0  0  0
   33.4738   29.1087   47.1230 N   0  0  0  0  0  0  0  0  0  0  0  0
   33.5058   28.4419   48.2873 C   0  0  0  0  0  0  0  0  0  0  0  0
   34.5771   28.5608   49.0942 N   0  0  0  0  0  0  0  0  0  0  0  0
   32.3652   27.5646   48.7073 C   0  0  0  0  0  0  0  0  0  0  0  0
   37.2352   31.1367   49.4184 H   0  0  0  0  0  0  0  0  0  0  0  0
   36.6943   30.8634   45.1517 H   0  0  0  0  0  0  0  0  0  0  0  0
   38.7204   32.3022   43.8600 H   0  0  0  0  0  0  0  0  0  0  0  0
   40.7371   33.6856   44.5257 H   0  0  0  0  0  0  0  0  0  0  0  0
   39.1776   32.4847   49.1041 H   0  0  0  0  0  0  0  0  0  0  0  0
   36.3895   29.3185   49.5058 H   0  0  0  0  0  0  0  0  0  0  0  0
   34.4902   30.4535   45.7939 H   0  0  0  0  0  0  0  0  0  0  0  0
   32.2762   27.5889   49.8346 H   0  0  0  0  0  0  0  0  0  0  0  0
   31.4210   28.0178   48.3630 H   0  0  0  0  0  0  0  0  0  0  0  0
   31.1126   27.6738   45.5651 N   0  0  0  0  0  0  0  0  0  0  0  0
   31.8771   26.7193   45.9416 C   0  0  0  0  0  0  0  0  0  0  0  0
   32.4339   26.6764   44.6380 N   0  0  0  0  0  0  0  0  0  0  0  0
   32.3794   25.8003   46.9354 C   0  0  0  0  0  0  0  0  0  0  0  0
   32.5852   26.1980   48.2328 C   0  0  0  0  0  0  0  0  0  0  0  0
   33.0392   25.2624   49.1300 C   0  0  0  0  0  0  0  0  0  0  0  0
   33.2157   25.5372   50.1715 H   0  0  0  0  0  0  0  0  0  0  0  0
   33.2594   23.9906   48.6752 C   0  0  0  0  0  0  0  0  0  0  0  0
   33.6161   23.2179   49.3415 H   0  0  0  0  0  0  0  0  0  0  0  0
   33.0568   23.5819   47.3767 C   0  0  0  0  0  0  0  0  0  0  0  0
   32.6021   24.5061   46.4654 C   0  0  0  0  0  0  0  0  0  0  0  0
   30.4310   28.1222   46.2020 H   0  0  0  0  0  0  0  0  0  0  0  0
   33.2538   26.2327   44.1757 H   0  0  0  0  0  0  0  0  0  0  0  0
   32.8301   26.6499   43.6949 H   0  0  0  0  0  0  0  0  0  0  0  0
   33.2467   22.5516   47.0557 H   0  0  0  0  0  0  0  0  0  0  0  0
   32.4344   24.2188   45.4447 H   0  0  0  0  0  0  0  0  0  0  0  0
  2 11  1  0
  2  1  2  0
  3  2  1  0
  4  3  2  0
  4  8  1  0
  5  6  1  0
  5  4  1  0
  6  7  2  0
  7  8  1  0
  8  9  2  0
  9  1  1  0
 10 15  2  0
 11 10  1  0
 12 13  1  0
 12 11  2  0
 13 14  2  0
 14 16  1  0
 14 15  1  0
  1 17  1  0
  3 18  1  0
  5 19  1  0
  6 20  1  0
  9 21  1  0
 10 22  1  0
 12 23  1  0
 16 24  1  0
 16 25  1  0
 26 27  2  3
 27 28  1  0
 27 29  1  0
 29 30  2  0
 30 31  1  0
 31 32  1  0
 31 33  2  0
 33 34  1  0
 33 35  1  0
 35 36  2  0
 36 29  1  0
 26 37  1  0
 28 38  1  0
 28 39  1  0
 35 40  1  0
 36 41  1  0
 16 30  1  0
M  ISO  8  17  14  18  14  19   9  20  14  21  14  22  14  23  14  24   8
M  ISO  3  25   8  32  15  34  16
M  END
>  <DihAtoms>  (1) 
13,15,29,28

>  <DihDeg>  (1) 
-77.40967071019186

$$$$
