
     RDKit          3D

 58 61  0  0  0  0  0  0  0  0999 V2000
   33.9140   28.3968   47.9473 C   0  0  0  0  0  0  0  0  0  0  0  0
   35.2093   30.6133   46.8855 F   0  0  0  0  0  0  0  0  0  0  0  0
   35.5839   30.0887   48.1035 C   0  0  0  0  0  0  0  0  0  0  0  0
   34.9591   28.9776   48.6989 C   0  0  0  0  0  0  0  0  0  0  0  0
   35.4732   28.6416   49.8702 C   0  0  0  0  0  0  0  0  0  0  0  0
   36.5093   29.2727   50.4915 C   0  0  0  0  0  0  0  0  0  0  0  0
   37.1306   30.3714   49.9054 C   0  0  0  0  0  0  0  0  0  0  0  0
   36.6118   30.7136   48.7188 C   0  0  0  0  0  0  0  0  0  0  0  0
   38.2457   31.0456   50.5718 C   0  0  0  0  0  0  0  0  0  0  0  0
   37.2673   31.8542   48.1087 O   0  0  0  0  0  0  0  0  0  0  0  0
   38.3736   31.5605   47.3775 C   0  0  0  0  0  0  0  0  0  0  0  0
   39.2308   32.5058   47.3678 O   0  0  0  0  0  0  0  0  0  0  0  0
   38.8031   30.4525   46.6206 N   0  0  0  0  0  0  0  0  0  0  0  0
   32.7426   27.8836   48.7274 C   0  0  0  0  0  0  0  0  0  0  0  0
   30.4187   27.2005   48.3684 C   0  0  0  0  0  0  0  0  0  0  0  0
   31.7358   27.2176   47.9581 C   0  0  0  0  0  0  0  0  0  0  0  0
   31.9542   26.5806   46.7934 C   0  0  0  0  0  0  0  0  0  0  0  0
   30.9796   25.9845   46.0971 N   0  0  0  0  0  0  0  0  0  0  0  0
   29.6842   25.9646   46.4949 C   0  0  0  0  0  0  0  0  0  0  0  0
   29.4009   26.5810   47.6451 N   0  0  0  0  0  0  0  0  0  0  0  0
   29.9861   27.7917   49.6839 C   0  0  1  0  0  0  0  0  0  0  0  0
   28.9118   28.7616   49.6976 C   0  0  0  0  0  0  0  0  0  0  0  0
   28.6430   27.2957   50.1459 C   0  0  2  0  0  0  0  0  0  0  0  0
   28.3236   27.1982   51.5572 C   0  0  0  0  0  0  0  0  0  0  0  0
   27.2271   26.6581   51.8004 O   0  0  0  0  0  0  0  0  0  0  0  0
   34.3423   27.4937   47.4162 H   0  0  0  0  0  0  0  0  0  0  0  0
   33.4873   29.0233   47.1368 H   0  0  0  0  0  0  0  0  0  0  0  0
   35.0142   27.7672   50.3857 H   0  0  0  0  0  0  0  0  0  0  0  0
   36.8459   28.8939   51.4700 H   0  0  0  0  0  0  0  0  0  0  0  0
   38.3062   30.7008   51.6288 H   0  0  0  0  0  0  0  0  0  0  0  0
   39.2219   30.7977   50.1040 H   0  0  0  0  0  0  0  0  0  0  0  0
   38.1502   32.1656   50.5329 H   0  0  0  0  0  0  0  0  0  0  0  0
   39.8242   30.1326   46.5935 H   0  0  0  0  0  0  0  0  0  0  0  0
   39.8248   30.1333   46.5942 H   0  0  0  0  0  0  0  0  0  0  0  0
   32.2855   28.7992   49.2095 H   0  0  0  0  0  0  0  0  0  0  0  0
   33.1081   27.2510   49.5507 H   0  0  0  0  0  0  0  0  0  0  0  0
   32.9339   26.5076   46.3417 H   0  0  0  0  0  0  0  0  0  0  0  0
   28.9330   25.4826   45.9199 H   0  0  0  0  0  0  0  0  0  0  0  0
   30.8355   28.0060   50.3161 H   0  0  0  0  0  0  0  0  0  0  0  0
   28.5167   29.0899   48.7243 H   0  0  0  0  0  0  0  0  0  0  0  0
   28.8953   29.5475   50.4651 H   0  0  0  0  0  0  0  0  0  0  0  0
   27.9430   26.8113   49.4102 H   0  0  0  0  0  0  0  0  0  0  0  0
   31.3556   25.2069   51.8370 N   0  0  0  0  0  0  0  0  0  0  0  0
   30.7051   25.8379   52.7227 C   0  0  0  0  0  0  0  0  0  0  0  0
   31.1248   24.6580   53.4519 N   0  0  0  0  0  0  0  0  0  0  0  0
   29.9036   26.8474   53.3948 C   0  0  0  0  0  0  0  0  0  0  0  0
   28.8323   27.5122   52.8610 C   0  0  0  0  0  0  0  0  0  0  0  0
   28.2672   28.4494   53.6778 C   0  0  0  0  0  0  0  0  0  0  0  0
   27.4225   29.0658   53.4736 H   0  0  0  0  0  0  0  0  0  0  0  0
   28.7262   28.7138   54.9340 C   0  0  0  0  0  0  0  0  0  0  0  0
   28.3105   29.4442   55.6063 H   0  0  0  0  0  0  0  0  0  0  0  0
   29.7912   28.0437   55.4496 C   0  0  0  0  0  0  0  0  0  0  0  0
   30.3990   27.0950   54.6835 C   0  0  0  0  0  0  0  0  0  0  0  0
   31.5595   25.4222   50.8662 H   0  0  0  0  0  0  0  0  0  0  0  0
   31.1518   23.7321   53.9346 H   0  0  0  0  0  0  0  0  0  0  0  0
   31.1383   23.7182   53.9376 H   0  0  0  0  0  0  0  0  0  0  0  0
   30.1749   28.2322   56.4400 H   0  0  0  0  0  0  0  0  0  0  0  0
   31.2447   26.5637   55.0956 H   0  0  0  0  0  0  0  0  0  0  0  0
  1  4  1  0
  1 14  1  0
  2  3  1  0
  3  4  2  0
  3  8  1  0
  4  5  1  0
  5  6  2  0
  7  6  1  0
  7  9  1  0
  8  7  2  0
 10  8  1  0
 11 10  1  0
 12 11  2  0
 13 11  1  0
 15 21  1  0
 16 15  1  0
 16 14  1  0
 17 16  2  0
 18 19  2  0
 18 17  1  0
 19 20  1  0
 20 15  2  0
 21 22  1  0
 21 23  1  0
 22 23  1  0
 23 24  1  0
 24 25  2  0
  1 26  1  0
  1 27  1  0
  5 28  1  0
  6 29  1  0
  9 30  1  0
  9 31  1  0
  9 32  1  0
 13 33  1  0
 13 34  1  0
 14 35  1  0
 14 36  1  0
 17 37  1  0
 19 38  1  0
 21 39  1  1
 22 40  1  0
 22 41  1  0
 23 42  1  6
 43 44  2  3
 44 45  1  0
 44 46  1  0
 46 47  2  0
 47 48  1  0
 48 49  1  0
 48 50  2  0
 50 51  1  0
 50 52  1  0
 52 53  2  0
 53 46  1  0
 43 54  1  0
 45 55  1  0
 45 56  1  0
 52 57  1  0
 53 58  1  0
 24 47  1  0
M  ISO  8  26   8  27   8  28  14  29  14  30   8  31   8  32   8  35   8
M  ISO  8  36   8  37  14  38  14  39  13  40  13  41  13  42  13  49  15
M  ISO  1  51  16
M  END
>  <DihAtoms>  (1) 
22,23,46,45

>  <DihDeg>  (1) 
-175.15346569376598

$$$$
