
     RDKit          3D

 35 37  0  0  0  0  0  0  0  0999 V2000
   37.5654   31.6698   48.9399 C   0  0  0  0  0  0  0  0  0  0  0  0
   38.1784   32.7455   49.5014 C   0  0  0  0  0  0  0  0  0  0  0  0
   39.0526   33.5726   48.8296 C   0  0  0  0  0  0  0  0  0  0  0  0
   39.3475   33.3293   47.5149 C   0  0  0  0  0  0  0  0  0  0  0  0
   38.7121   32.2224   46.9497 C   0  0  0  0  0  0  0  0  0  0  0  0
   37.8651   31.4395   47.6393 N   0  0  0  0  0  0  0  0  0  0  0  0
   36.9606   30.1550   50.8663 C   0  0  0  0  0  0  0  0  0  0  0  0
   36.6470   30.8019   49.6479 C   0  0  0  0  0  0  0  0  0  0  0  0
   35.3842   30.5803   49.1172 C   0  0  0  0  0  0  0  0  0  0  0  0
   34.5178   29.7601   49.7873 N   0  0  0  0  0  0  0  0  0  0  0  0
   34.8584   29.1686   50.9386 C   0  0  0  0  0  0  0  0  0  0  0  0
   36.0775   29.3564   51.4915 N   0  0  0  0  0  0  0  0  0  0  0  0
   40.2004   34.0537   46.6875 O   0  0  0  0  0  0  0  0  0  0  0  0
   37.9747   32.9787   50.5453 H   0  0  0  0  0  0  0  0  0  0  0  0
   39.5468   34.4324   49.2667 H   0  0  0  0  0  0  0  0  0  0  0  0
   38.8944   31.9609   45.9057 H   0  0  0  0  0  0  0  0  0  0  0  0
   37.9545   30.3554   51.2438 H   0  0  0  0  0  0  0  0  0  0  0  0
   35.0906   31.0496   48.1876 H   0  0  0  0  0  0  0  0  0  0  0  0
   34.1340   28.5269   51.4307 H   0  0  0  0  0  0  0  0  0  0  0  0
   40.7632   36.3846   45.2371 N   0  0  0  0  0  0  0  0  0  0  0  0
   41.7501   35.5854   45.0054 C   0  0  0  0  0  0  0  0  0  0  0  0
   42.2989   35.9534   43.7402 N   0  0  0  0  0  0  0  0  0  0  0  0
   42.3239   34.4753   45.7737 C   0  0  0  0  0  0  0  0  0  0  0  0
   41.5368   33.7000   46.6258 C   0  0  0  0  0  0  0  0  0  0  0  0
   42.1699   32.6862   47.2985 C   0  0  0  0  0  0  0  0  0  0  0  0
   41.5441   32.1008   47.9502 H   0  0  0  0  0  0  0  0  0  0  0  0
   43.5064   32.4475   47.1414 C   0  0  0  0  0  0  0  0  0  0  0  0
   43.9980   31.6371   47.6829 H   0  0  0  0  0  0  0  0  0  0  0  0
   44.2825   33.2238   46.2913 C   0  0  0  0  0  0  0  0  0  0  0  0
   43.6723   34.2521   45.6006 C   0  0  0  0  0  0  0  0  0  0  0  0
   40.1836   36.3389   46.0937 H   0  0  0  0  0  0  0  0  0  0  0  0
   42.3280   35.6471   42.7500 H   0  0  0  0  0  0  0  0  0  0  0  0
   42.9102   36.7514   43.4300 H   0  0  0  0  0  0  0  0  0  0  0  0
   45.3293   33.0452   46.1614 H   0  0  0  0  0  0  0  0  0  0  0  0
   44.2651   34.8587   44.9400 H   0  0  0  0  0  0  0  0  0  0  0  0
  1  2  2  0
  1  8  1  0
  3  2  1  0
  4  3  2  0
  5  4  1  0
  5  6  2  0
  6  1  1  0
  7 12  2  0
  8  7  1  0
  9  8  2  0
  9 10  1  0
 10 11  2  0
 11 12  1  0
 13  4  1  0
  2 14  1  0
  3 15  1  0
  5 16  1  0
  7 17  1  0
  9 18  1  0
 11 19  1  0
 20 21  2  3
 21 22  1  0
 21 23  1  0
 23 24  2  0
 24 25  1  0
 25 26  1  0
 25 27  2  0
 27 28  1  0
 27 29  1  0
 29 30  2  0
 30 23  1  0
 20 31  1  0
 22 32  1  0
 22 33  1  0
 29 34  1  0
 30 35  1  0
 13 24  1  0
M  ISO  8  14  14  15  14  16  14  17  14  18  14  19  14  26  15  28  16
M  END
>  <DihAtoms>  (1) 
3,12,23,22

>  <DihDeg>  (1) 
-179.9996099063937

$$$$
