
     RDKit          3D

 45 48  0  0  0  0  0  0  0  0999 V2000
   35.8153   30.5410   49.0680 C   0  0  1  0  0  0  0  0  0  0  0  0
   35.9080   29.1187   48.8361 C   0  0  1  0  0  0  0  0  0  0  0  0
   36.0678   29.5885   50.2449 C   0  0  0  0  0  0  0  0  0  0  0  0
   37.0104   31.4485   48.8175 C   0  0  0  0  0  0  0  0  0  0  0  0
   37.1772   32.5349   49.7005 C   0  0  0  0  0  0  0  0  0  0  0  0
   38.2679   33.3478   49.4090 C   0  0  0  0  0  0  0  0  0  0  0  0
   39.0892   33.0846   48.3457 N   0  0  0  0  0  0  0  0  0  0  0  0
   38.8774   32.0326   47.5407 C   0  0  0  0  0  0  0  0  0  0  0  0
   37.8307   31.1920   47.7623 N   0  0  0  0  0  0  0  0  0  0  0  0
   33.9638   29.0833   47.3785 C   0  0  2  0  0  0  0  0  0  0  0  0
   34.7456   28.2760   48.4091 C   0  0  2  0  0  0  0  0  0  0  0  0
   33.8699   28.0646   49.4398 O   0  0  0  0  0  0  0  0  0  0  0  0
   32.5746   28.1438   49.0054 C   0  0  0  0  0  0  0  0  0  0  0  0
   32.6047   28.3863   47.5057 C   0  0  1  0  0  0  0  0  0  0  0  0
   34.4597   28.9653   46.0971 O   0  0  0  0  0  0  0  0  0  0  0  0
   31.5836   29.1652   47.0616 O   0  0  0  0  0  0  0  0  0  0  0  0
   34.9190   31.1466   49.2695 H   0  0  0  0  0  0  0  0  0  0  0  0
   36.8595   28.7758   48.3312 H   0  0  0  0  0  0  0  0  0  0  0  0
   37.0723   29.5499   50.7001 H   0  0  0  0  0  0  0  0  0  0  0  0
   35.2658   29.4030   50.9730 H   0  0  0  0  0  0  0  0  0  0  0  0
   36.5017   32.6837   50.5100 H   0  0  0  0  0  0  0  0  0  0  0  0
   38.3864   34.1778   50.0923 H   0  0  0  0  0  0  0  0  0  0  0  0
   39.5597   31.8753   46.7168 H   0  0  0  0  0  0  0  0  0  0  0  0
   33.8364   30.1291   47.6751 H   0  0  0  0  0  0  0  0  0  0  0  0
   35.0259   27.3311   47.9036 H   0  0  0  0  0  0  0  0  0  0  0  0
   32.0530   27.1680   49.1265 H   0  0  0  0  0  0  0  0  0  0  0  0
   32.0790   28.9912   49.4886 H   0  0  0  0  0  0  0  0  0  0  0  0
   32.7263   27.4425   46.9472 H   0  0  0  0  0  0  0  0  0  0  0  0
   35.0692   28.1949   45.9901 H   0  0  0  0  0  0  0  0  0  0  0  0
   29.9491   32.4094   45.4867 N   0  0  0  0  0  0  0  0  0  0  0  0
   30.1355   31.2848   46.1204 C   0  0  0  0  0  0  0  0  0  0  0  0
   30.4176   31.6091   47.4688 N   0  0  0  0  0  0  0  0  0  0  0  0
   30.0729   29.9154   45.5718 C   0  0  0  0  0  0  0  0  0  0  0  0
   30.7842   28.7868   46.0038 C   0  0  0  0  0  0  0  0  0  0  0  0
   30.5593   27.6052   45.3324 C   0  0  0  0  0  0  0  0  0  0  0  0
   31.1573   26.8105   45.7491 H   0  0  0  0  0  0  0  0  0  0  0  0
   29.6724   27.5446   44.2837 C   0  0  0  0  0  0  0  0  0  0  0  0
   29.5707   26.5706   43.8272 H   0  0  0  0  0  0  0  0  0  0  0  0
   28.9645   28.6426   43.8452 C   0  0  0  0  0  0  0  0  0  0  0  0
   29.1726   29.8375   44.5016 C   0  0  0  0  0  0  0  0  0  0  0  0
   29.7239   32.3629   44.4514 H   0  0  0  0  0  0  0  0  0  0  0  0
   31.4115   31.7616   47.7957 H   0  0  0  0  0  0  0  0  0  0  0  0
   29.8646   31.7576   48.3298 H   0  0  0  0  0  0  0  0  0  0  0  0
   28.2921   28.4927   43.0138 H   0  0  0  0  0  0  0  0  0  0  0  0
   28.5945   30.6635   44.1188 H   0  0  0  0  0  0  0  0  0  0  0  0
  1  3  1  0
  2  1  1  0
  2  3  1  0
  4  1  1  0
  4  5  2  0
  6  5  1  0
  7  6  2  0
  8  9  2  0
  8  7  1  0
  9  4  1  0
 10 15  1  0
 10 14  1  0
 10 11  1  0
 11  2  1  0
 11 12  1  0
 13 12  1  0
 14 16  1  0
 14 13  1  0
  1 17  1  1
  2 18  1  6
  3 19  1  0
  3 20  1  0
  5 21  1  0
  6 22  1  0
  8 23  1  0
 10 24  1  1
 11 25  1  6
 13 26  1  0
 13 27  1  0
 14 28  1  6
 15 29  1  0
 30 31  2  3
 31 32  1  0
 31 33  1  0
 33 34  2  0
 34 35  1  0
 35 36  1  0
 35 37  2  0
 37 38  1  0
 37 39  1  0
 39 40  2  0
 40 33  1  0
 30 41  1  0
 32 42  1  0
 32 43  1  0
 39 44  1  0
 40 45  1  0
 16 34  1  0
M  ISO  8  17  13  18  13  19  13  20  13  21  14  22  14  23  14  24  13
M  ISO  7  25  13  26  13  27  13  28  13  29   3  36  15  38  16
M  END
>  <DihAtoms>  (1) 
13,15,33,32

>  <DihDeg>  (1) 
179.99862771384628

$$$$
