
     RDKit          3D

 37 39  0  0  0  0  0  0  0  0999 V2000
   38.1002   33.1393   49.4976 C   0  0  0  0  0  0  0  0  0  0  0  0
   38.9451   33.0609   48.3835 C   0  0  0  0  0  0  0  0  0  0  0  0
   38.7078   32.0513   47.4495 C   0  0  0  0  0  0  0  0  0  0  0  0
   37.6716   31.1904   47.6594 N   0  0  0  0  0  0  0  0  0  0  0  0
   36.8792   31.2927   48.7390 C   0  0  0  0  0  0  0  0  0  0  0  0
   37.0955   32.2526   49.6382 N   0  0  0  0  0  0  0  0  0  0  0  0
   35.8089   30.3552   48.8980 N   0  0  0  0  0  0  0  0  0  0  0  0
   34.7337   30.1854   47.9423 C   0  0  0  0  0  0  0  0  0  0  0  0
   34.0194   28.9549   48.3737 C   0  0  0  0  0  0  0  0  0  0  0  0
   34.8937   28.3104   49.4293 C   0  0  0  0  0  0  0  0  0  0  0  0
   35.6457   29.4468   50.0286 C   0  0  0  0  0  0  0  0  0  0  0  0
   38.2708   33.9213   50.2366 H   0  0  0  0  0  0  0  0  0  0  0  0
   39.3623   32.0043   46.5957 H   0  0  0  0  0  0  0  0  0  0  0  0
   35.1264   30.0931   46.9002 H   0  0  0  0  0  0  0  0  0  0  0  0
   34.0418   31.0558   47.9997 H   0  0  0  0  0  0  0  0  0  0  0  0
   33.7976   28.2518   47.5529 H   0  0  0  0  0  0  0  0  0  0  0  0
   33.0633   29.2293   48.9078 H   0  0  0  0  0  0  0  0  0  0  0  0
   35.6135   27.6443   48.9083 H   0  0  0  0  0  0  0  0  0  0  0  0
   34.2579   27.7725   50.1707 H   0  0  0  0  0  0  0  0  0  0  0  0
   36.6128   29.1804   50.4751 H   0  0  0  0  0  0  0  0  0  0  0  0
   34.9993   29.9387   50.7907 H   0  0  0  0  0  0  0  0  0  0  0  0
   42.8186   31.7408   48.8524 N   0  0  0  0  0  0  0  0  0  0  0  0
   41.6637   32.2781   49.1252 C   0  0  0  0  0  0  0  0  0  0  0  0
   40.9843   31.3514   49.9301 N   0  0  0  0  0  0  0  0  0  0  0  0
   41.2544   33.5915   48.6478 C   0  0  0  0  0  0  0  0  0  0  0  0
   40.0068   34.0547   48.2890 C   0  0  0  0  0  0  0  0  0  0  0  0
   39.8415   35.3581   47.8727 C   0  0  0  0  0  0  0  0  0  0  0  0
   38.8027   35.5619   47.6283 H   0  0  0  0  0  0  0  0  0  0  0  0
   40.8874   36.2463   47.7938 C   0  0  0  0  0  0  0  0  0  0  0  0
   40.5857   37.2045   47.4559 H   0  0  0  0  0  0  0  0  0  0  0  0
   42.1360   35.7865   48.1513 C   0  0  0  0  0  0  0  0  0  0  0  0
   42.3347   34.4775   48.5755 C   0  0  0  0  0  0  0  0  0  0  0  0
   43.5255   32.2414   48.2553 H   0  0  0  0  0  0  0  0  0  0  0  0
   40.2391   30.7208   50.2731 H   0  0  0  0  0  0  0  0  0  0  0  0
   41.3232   30.9039   50.8025 H   0  0  0  0  0  0  0  0  0  0  0  0
   42.9338   36.5264   48.0725 H   0  0  0  0  0  0  0  0  0  0  0  0
   43.3712   34.2250   48.8340 H   0  0  0  0  0  0  0  0  0  0  0  0
  1  6  2  0
  2  1  1  0
  3  4  1  0
  3  2  2  0
  4  5  2  0
  5  7  1  0
  5  6  1  0
  7 11  1  0
  8  9  1  0
  8  7  1  0
  9 10  1  0
 10 11  1  0
  1 12  1  0
  3 13  1  0
  8 14  1  0
  8 15  1  0
  9 16  1  0
  9 17  1  0
 10 18  1  0
 10 19  1  0
 11 20  1  0
 11 21  1  0
 22 23  2  3
 23 24  1  0
 23 25  1  0
 25 26  2  0
 26 27  1  0
 27 28  1  0
 27 29  2  0
 29 30  1  0
 29 31  1  0
 31 32  2  0
 32 25  1  0
 22 33  1  0
 24 34  1  0
 24 35  1  0
 31 36  1  0
 32 37  1  0
  2 26  1  0
M  ISO  8  12  14  13  14  14  13  15  13  16  13  17  13  18  13  19  13
M  ISO  4  20  13  21  13  28  15  30  16
M  END
>  <DihAtoms>  (1) 
0,1,25,24

>  <DihDeg>  (1) 
132.12919617762986

$$$$
