
     RDKit          3D

 39 41  0  0  0  0  0  0  0  0999 V2000
   35.1675   28.6657   50.0265 C   0  0  0  0  0  0  0  0  0  0  0  0
   36.2378   29.5984   49.8580 C   0  0  0  0  0  0  0  0  0  0  0  0
   36.1553   30.5084   48.8066 C   0  0  0  0  0  0  0  0  0  0  0  0
   35.0559   30.4670   47.9860 N   0  0  0  0  0  0  0  0  0  0  0  0
   34.0618   29.5520   48.1955 C   0  0  0  0  0  0  0  0  0  0  0  0
   34.1158   28.6698   49.1942 N   0  0  0  0  0  0  0  0  0  0  0  0
   33.0334   29.6993   47.2291 N   0  0  0  0  0  0  0  0  0  0  0  0
   37.2230   31.4717   48.6039 C   0  0  0  0  0  0  0  0  0  0  0  0
   37.1993   32.5054   49.5163 C   0  0  0  0  0  0  0  0  0  0  0  0
   38.1599   33.5029   49.4490 C   0  0  0  0  0  0  0  0  0  0  0  0
   39.1316   33.4426   48.4603 C   0  0  0  0  0  0  0  0  0  0  0  0
   39.1392   32.4061   47.5606 C   0  0  0  0  0  0  0  0  0  0  0  0
   38.1871   31.4802   47.6815 N   0  0  0  0  0  0  0  0  0  0  0  0
   37.3752   29.5522   50.8030 C   0  0  0  0  0  0  0  0  0  0  0  0
   38.5837   29.8074   50.1551 F   0  0  0  0  0  0  0  0  0  0  0  0
   37.1938   30.4999   51.7610 F   0  0  0  0  0  0  0  0  0  0  0  0
   37.5086   28.3220   51.4275 F   0  0  0  0  0  0  0  0  0  0  0  0
   35.2390   27.9631   50.8444 H   0  0  0  0  0  0  0  0  0  0  0  0
   32.2245   30.3814   47.2394 H   0  0  0  0  0  0  0  0  0  0  0  0
   33.0690   29.0606   46.4006 H   0  0  0  0  0  0  0  0  0  0  0  0
   36.4937   32.6578   50.3234 H   0  0  0  0  0  0  0  0  0  0  0  0
   38.1886   34.3482   50.1493 H   0  0  0  0  0  0  0  0  0  0  0  0
   39.8645   34.2335   48.4346 H   0  0  0  0  0  0  0  0  0  0  0  0
   39.5049   28.9012   47.2675 N   0  0  0  0  0  0  0  0  0  0  0  0
   39.9967   29.8274   46.5441 C   0  0  0  0  0  0  0  0  0  0  0  0
   39.8317   28.6458   45.7665 N   0  0  0  0  0  0  0  0  0  0  0  0
   40.5282   31.0617   46.0329 C   0  0  0  0  0  0  0  0  0  0  0  0
   40.1372   32.2969   46.5040 C   0  0  0  0  0  0  0  0  0  0  0  0
   40.7273   33.4049   45.9346 C   0  0  0  0  0  0  0  0  0  0  0  0
   40.4878   34.3956   46.2345 H   0  0  0  0  0  0  0  0  0  0  0  0
   41.6575   33.1801   44.9432 C   0  0  0  0  0  0  0  0  0  0  0  0
   42.1102   34.0541   44.5083 H   0  0  0  0  0  0  0  0  0  0  0  0
   42.0646   31.9567   44.4556 C   0  0  0  0  0  0  0  0  0  0  0  0
   41.4642   30.8595   45.0363 C   0  0  0  0  0  0  0  0  0  0  0  0
   39.3044   27.9369   46.8749 H   0  0  0  0  0  0  0  0  0  0  0  0
   39.7329   28.3767   44.7422 H   0  0  0  0  0  0  0  0  0  0  0  0
   39.7455   28.5365   44.7117 H   0  0  0  0  0  0  0  0  0  0  0  0
   42.8072   31.9153   43.6705 H   0  0  0  0  0  0  0  0  0  0  0  0
   41.7768   29.8949   44.6607 H   0  0  0  0  0  0  0  0  0  0  0  0
  2  1  2  0
  2 14  1  0
  3  2  1  0
  4  5  1  0
  4  3  2  0
  5  6  2  0
  6  1  1  0
  7  5  1  0
  8  3  1  0
  8  9  2  0
 10  9  1  0
 11 10  2  0
 12 13  2  0
 12 11  1  0
 13  8  1  0
 14 17  1  0
 14 16  1  0
 15 14  1  0
  1 18  1  0
  7 19  1  0
  7 20  1  0
  9 21  1  0
 10 22  1  0
 11 23  1  0
 24 25  2  3
 25 26  1  0
 25 27  1  0
 27 28  2  0
 28 29  1  0
 29 30  1  0
 29 31  2  0
 31 32  1  0
 31 33  1  0
 33 34  2  0
 34 27  1  0
 24 35  1  0
 26 36  1  0
 26 37  1  0
 33 38  1  0
 34 39  1  0
 12 28  1  0
M  ISO  6  18  14  21  14  22  14  23  14  30  15  32  16
M  END
>  <DihAtoms>  (1) 
12,11,27,26

>  <DihDeg>  (1) 
-0.002021797535813023

$$$$
