
     RDKit          3D

 49 52  0  0  0  0  0  0  0  0999 V2000
   34.1093   28.7509   45.8743 C   0  0  0  0  0  0  0  0  0  0  0  0
   34.3234   28.2937   44.5875 C   0  0  0  0  0  0  0  0  0  0  0  0
   35.3235   28.7707   43.7408 C   0  0  0  0  0  0  0  0  0  0  0  0
   36.1748   29.7872   44.2259 C   0  0  0  0  0  0  0  0  0  0  0  0
   35.9414   30.2268   45.5121 C   0  0  0  0  0  0  0  0  0  0  0  0
   34.9593   29.7512   46.3306 C   0  0  0  0  0  0  0  0  0  0  0  0
   33.3344   26.9800   47.3280 C   0  0  0  0  0  0  0  0  0  0  0  0
   33.0280   28.1429   46.6029 C   0  0  0  0  0  0  0  0  0  0  0  0
   31.7111   28.6203   46.6405 C   0  0  0  0  0  0  0  0  0  0  0  0
   30.7885   27.9416   47.3741 N   0  0  0  0  0  0  0  0  0  0  0  0
   31.1112   26.8127   48.0710 C   0  0  0  0  0  0  0  0  0  0  0  0
   32.3829   26.3375   48.0443 N   0  0  0  0  0  0  0  0  0  0  0  0
   31.2433   29.8356   45.9186 C   0  0  0  0  0  0  0  0  0  0  0  0
   29.8783   30.0475   46.1934 F   0  0  0  0  0  0  0  0  0  0  0  0
   31.9151   30.9736   46.1780 F   0  0  0  0  0  0  0  0  0  0  0  0
   31.2645   29.5976   44.5399 F   0  0  0  0  0  0  0  0  0  0  0  0
   34.6826   30.3257   47.9658 S   0  0  0  0  0  0  0  0  0  0  0  0
   35.0110   29.1411   50.8242 Cl  0  0  0  0  0  0  0  0  0  0  0  0
   36.2757   30.1258   50.1163 C   0  0  0  0  0  0  0  0  0  0  0  0
   36.1725   30.6970   48.8481 C   0  0  0  0  0  0  0  0  0  0  0  0
   37.1774   31.4748   48.3567 C   0  0  0  0  0  0  0  0  0  0  0  0
   38.3018   31.6823   49.1398 C   0  0  0  0  0  0  0  0  0  0  0  0
   38.4043   31.1101   50.4054 C   0  0  0  0  0  0  0  0  0  0  0  0
   37.3886   30.3202   50.9160 C   0  0  0  0  0  0  0  0  0  0  0  0
   33.6769   27.5006   44.1767 H   0  0  0  0  0  0  0  0  0  0  0  0
   35.3957   28.3280   42.7371 H   0  0  0  0  0  0  0  0  0  0  0  0
   36.8928   30.0696   43.4994 H   0  0  0  0  0  0  0  0  0  0  0  0
   36.6682   30.9811   45.6799 H   0  0  0  0  0  0  0  0  0  0  0  0
   34.3388   26.5902   47.3172 H   0  0  0  0  0  0  0  0  0  0  0  0
   30.3104   26.3662   48.6084 H   0  0  0  0  0  0  0  0  0  0  0  0
   37.1808   31.9817   47.4273 H   0  0  0  0  0  0  0  0  0  0  0  0
   39.1526   32.2816   48.8386 H   0  0  0  0  0  0  0  0  0  0  0  0
   39.2893   31.2719   51.0241 H   0  0  0  0  0  0  0  0  0  0  0  0
   39.7228   31.3760   51.6433 N   0  0  0  0  0  0  0  0  0  0  0  0
   39.3434   31.1665   52.8510 C   0  0  0  0  0  0  0  0  0  0  0  0
   40.0112   32.1794   53.5934 N   0  0  0  0  0  0  0  0  0  0  0  0
   38.4296   30.0910   53.2179 C   0  0  0  0  0  0  0  0  0  0  0  0
   37.5152   29.7292   52.2491 C   0  0  0  0  0  0  0  0  0  0  0  0
   36.6332   28.7069   52.5735 C   0  0  0  0  0  0  0  0  0  0  0  0
   35.8815   28.3416   51.9042 H   0  0  0  0  0  0  0  0  0  0  0  0
   36.6680   28.0771   53.8139 C   0  0  0  0  0  0  0  0  0  0  0  0
   35.9984   27.2835   54.0930 H   0  0  0  0  0  0  0  0  0  0  0  0
   37.5971   28.4680   54.7546 C   0  0  0  0  0  0  0  0  0  0  0  0
   38.4739   29.4824   54.4355 C   0  0  0  0  0  0  0  0  0  0  0  0
   40.3696   32.1511   51.4453 H   0  0  0  0  0  0  0  0  0  0  0  0
   39.8509   32.6962   54.4844 H   0  0  0  0  0  0  0  0  0  0  0  0
   40.0935   32.8226   54.4143 H   0  0  0  0  0  0  0  0  0  0  0  0
   37.6965   28.0335   55.7457 H   0  0  0  0  0  0  0  0  0  0  0  0
   39.2248   29.8216   55.1522 H   0  0  0  0  0  0  0  0  0  0  0  0
  1  6  1  0
  1  8  1  0
  2  1  2  0
  3  4  2  0
  3  2  1  0
  4  5  1  0
  5  6  2  0
  6 17  1  0
  7 12  2  0
  8  9  2  0
  8  7  1  0
  9 10  1  0
 10 11  2  0
 12 11  1  0
 13 15  1  0
 13 14  1  0
 13  9  1  0
 16 13  1  0
 17 20  1  0
 19 18  1  0
 19 24  2  0
 20 19  1  0
 21 20  2  0
 21 22  1  0
 22 23  2  0
 23 24  1  0
  2 25  1  0
  3 26  1  0
  4 27  1  0
  5 28  1  0
  7 29  1  0
 11 30  1  0
 21 31  1  0
 22 32  1  0
 23 33  1  0
 34 35  2  3
 35 36  1  0
 35 37  1  0
 37 38  2  0
 38 39  1  0
 39 40  1  0
 39 41  2  0
 41 42  1  0
 41 43  1  0
 43 44  2  0
 44 37  1  0
 34 45  1  0
 36 46  1  0
 36 47  1  0
 43 48  1  0
 44 49  1  0
 24 38  1  0
M  ISO  8  25  14  26  14  27  14  28  14  29  14  30  14  31  14  32  14
M  ISO  3  33  14  40  15  42  16
M  END
>  <DihAtoms>  (1) 
18,23,37,36

>  <DihDeg>  (1) 
-89.99929504895583

$$$$
