
     RDKit          3D

 47 50  0  0  0  0  0  0  0  0999 V2000
   34.9298   30.1618   47.5900 C   0  0  0  0  0  0  0  0  0  0  0  0
   36.2209   30.7304   47.4030 C   0  0  0  0  0  0  0  0  0  0  0  0
   36.7799   30.6590   46.1226 C   0  0  0  0  0  0  0  0  0  0  0  0
   36.0764   30.0547   45.1284 N   0  0  0  0  0  0  0  0  0  0  0  0
   34.8523   29.5259   45.3542 C   0  0  0  0  0  0  0  0  0  0  0  0
   34.2876   29.5789   46.5642 N   0  0  0  0  0  0  0  0  0  0  0  0
   38.0673   31.2265   45.8274 C   0  0  0  0  0  0  0  0  0  0  0  0
   38.1269   32.4498   45.1970 C   0  0  0  0  0  0  0  0  0  0  0  0
   39.3065   33.0848   44.8706 C   0  0  0  0  0  0  0  0  0  0  0  0
   40.4710   32.4160   45.2158 C   0  0  0  0  0  0  0  0  0  0  0  0
   40.4936   31.1821   45.8514 C   0  0  0  0  0  0  0  0  0  0  0  0
   39.2475   30.6074   46.1470 C   0  0  0  0  0  0  0  0  0  0  0  0
   36.8017   31.2712   48.5781 N   0  0  0  0  0  0  0  0  0  0  0  0
   37.5785   32.4845   48.9444 C   0  0  0  0  0  0  0  0  0  0  0  0
   38.7444   31.8714   49.7055 C   0  0  0  0  0  0  0  0  0  0  0  0
   38.1255   30.6969   50.4245 C   0  0  0  0  0  0  0  0  0  0  0  0
   36.7250   30.5865   49.8658 C   0  0  2  0  0  0  0  0  0  0  0  0
   34.4148   30.1745   48.5380 H   0  0  0  0  0  0  0  0  0  0  0  0
   34.2647   29.0346   44.5788 H   0  0  0  0  0  0  0  0  0  0  0  0
   37.2025   32.9711   44.9278 H   0  0  0  0  0  0  0  0  0  0  0  0
   39.3438   34.0459   44.3756 H   0  0  0  0  0  0  0  0  0  0  0  0
   41.4403   32.8442   44.9957 H   0  0  0  0  0  0  0  0  0  0  0  0
   41.4199   30.6848   46.1080 H   0  0  0  0  0  0  0  0  0  0  0  0
   39.2188   29.6487   46.6410 H   0  0  0  0  0  0  0  0  0  0  0  0
   36.9388   33.1148   49.5636 H   0  0  0  0  0  0  0  0  0  0  0  0
   37.8836   33.0230   48.0399 H   0  0  0  0  0  0  0  0  0  0  0  0
   39.1196   32.5636   50.4864 H   0  0  0  0  0  0  0  0  0  0  0  0
   39.5311   31.5664   48.9863 H   0  0  0  0  0  0  0  0  0  0  0  0
   38.1181   30.8263   51.5237 H   0  0  0  0  0  0  0  0  0  0  0  0
   38.7231   29.7639   50.2209 H   0  0  0  0  0  0  0  0  0  0  0  0
   36.0619   31.1897   50.5084 H   0  0  0  0  0  0  0  0  0  0  0  0
   36.0018   28.9927   46.1379 N   0  0  0  0  0  0  0  0  0  0  0  0
   35.8261   29.4993   47.3141 C   0  0  0  0  0  0  0  0  0  0  0  0
   35.6399   30.8333   46.9338 N   0  0  0  0  0  0  0  0  0  0  0  0
   35.8546   28.7124   48.5384 C   0  0  0  0  0  0  0  0  0  0  0  0
   36.2838   29.1821   49.7869 C   0  0  0  0  0  0  0  0  0  0  0  0
   36.2206   28.2671   50.8026 C   0  0  0  0  0  0  0  0  0  0  0  0
   36.5333   28.5923   51.7716 H   0  0  0  0  0  0  0  0  0  0  0  0
   35.7746   26.9725   50.6472 C   0  0  0  0  0  0  0  0  0  0  0  0
   35.7540   26.3010   51.5061 H   0  0  0  0  0  0  0  0  0  0  0  0
   35.3572   26.5317   49.4091 C   0  0  0  0  0  0  0  0  0  0  0  0
   35.4050   27.4227   48.3601 C   0  0  0  0  0  0  0  0  0  0  0  0
   35.9742   29.5745   45.2970 H   0  0  0  0  0  0  0  0  0  0  0  0
   34.5946   30.9764   47.0502 H   0  0  0  0  0  0  0  0  0  0  0  0
   36.3537   31.5216   46.6134 H   0  0  0  0  0  0  0  0  0  0  0  0
   35.0147   25.5104   49.3273 H   0  0  0  0  0  0  0  0  0  0  0  0
   35.0636   27.0111   47.4203 H   0  0  0  0  0  0  0  0  0  0  0  0
  2  1  2  0
  2 13  1  0
  3  2  1  0
  4  5  1  0
  4  3  2  0
  5  6  2  0
  6  1  1  0
  7  3  1  0
  7 12  1  0
  8  7  2  0
  9  8  1  0
  9 10  2  0
 10 11  1  0
 11 12  2  0
 13 14  1  0
 13 17  1  0
 14 15  1  0
 15 16  1  0
 17 16  1  0
  1 18  1  0
  5 19  1  0
  8 20  1  0
  9 21  1  0
 10 22  1  0
 11 23  1  0
 12 24  1  0
 14 25  1  0
 14 26  1  0
 15 27  1  0
 15 28  1  0
 16 29  1  0
 16 30  1  0
 17 31  1  1
 32 33  2  3
 33 34  1  0
 33 35  1  0
 35 36  2  0
 36 37  1  0
 37 38  1  0
 37 39  2  0
 39 40  1  0
 39 41  1  0
 41 42  2  0
 42 35  1  0
 32 43  1  0
 34 44  1  0
 34 45  1  0
 41 46  1  0
 42 47  1  0
 17 36  1  0
M  ISO  8  18  14  19  14  20  14  21  14  22  14  23  14  24  14  25  13
M  ISO  8  26  13  27  13  28  13  29  13  30  13  31  13  38  15  40  16
M  END
>  <DihAtoms>  (1) 
12,16,35,34

>  <DihDeg>  (1) 
-141.75864042068858

$$$$
