
     RDKit          3D

 47 50  0  0  0  0  0  0  0  0999 V2000
   34.9298   30.1618   47.5900 C   0  0  0  0  0  0  0  0  0  0  0  0
   36.2209   30.7304   47.4030 C   0  0  0  0  0  0  0  0  0  0  0  0
   36.7799   30.6590   46.1226 C   0  0  0  0  0  0  0  0  0  0  0  0
   36.0764   30.0547   45.1284 N   0  0  0  0  0  0  0  0  0  0  0  0
   34.8523   29.5259   45.3542 C   0  0  0  0  0  0  0  0  0  0  0  0
   34.2876   29.5789   46.5642 N   0  0  0  0  0  0  0  0  0  0  0  0
   38.0673   31.2265   45.8274 C   0  0  0  0  0  0  0  0  0  0  0  0
   38.1269   32.4498   45.1970 C   0  0  0  0  0  0  0  0  0  0  0  0
   39.3065   33.0848   44.8706 C   0  0  0  0  0  0  0  0  0  0  0  0
   40.4710   32.4160   45.2158 C   0  0  0  0  0  0  0  0  0  0  0  0
   40.4936   31.1821   45.8514 C   0  0  0  0  0  0  0  0  0  0  0  0
   39.2475   30.6074   46.1470 C   0  0  0  0  0  0  0  0  0  0  0  0
   36.8017   31.2712   48.5781 N   0  0  0  0  0  0  0  0  0  0  0  0
   37.5785   32.4845   48.9444 C   0  0  0  0  0  0  0  0  0  0  0  0
   38.7444   31.8714   49.7055 C   0  0  0  0  0  0  0  0  0  0  0  0
   38.1255   30.6969   50.4245 C   0  0  0  0  0  0  0  0  0  0  0  0
   36.7250   30.5865   49.8658 C   0  0  2  0  0  0  0  0  0  0  0  0
   34.4148   30.1745   48.5380 H   0  0  0  0  0  0  0  0  0  0  0  0
   34.2647   29.0346   44.5788 H   0  0  0  0  0  0  0  0  0  0  0  0
   37.2025   32.9711   44.9278 H   0  0  0  0  0  0  0  0  0  0  0  0
   39.3438   34.0459   44.3756 H   0  0  0  0  0  0  0  0  0  0  0  0
   41.4403   32.8442   44.9957 H   0  0  0  0  0  0  0  0  0  0  0  0
   41.4199   30.6848   46.1080 H   0  0  0  0  0  0  0  0  0  0  0  0
   39.2188   29.6487   46.6410 H   0  0  0  0  0  0  0  0  0  0  0  0
   36.9388   33.1148   49.5636 H   0  0  0  0  0  0  0  0  0  0  0  0
   37.8836   33.0230   48.0399 H   0  0  0  0  0  0  0  0  0  0  0  0
   39.1196   32.5636   50.4864 H   0  0  0  0  0  0  0  0  0  0  0  0
   39.5311   31.5664   48.9863 H   0  0  0  0  0  0  0  0  0  0  0  0
   38.1181   30.8263   51.5237 H   0  0  0  0  0  0  0  0  0  0  0  0
   38.7231   29.7639   50.2209 H   0  0  0  0  0  0  0  0  0  0  0  0
   36.0619   31.1897   50.5084 H   0  0  0  0  0  0  0  0  0  0  0  0
   38.0041   27.9897   52.7950 N   0  0  0  0  0  0  0  0  0  0  0  0
   37.8849   28.6080   51.6662 C   0  0  0  0  0  0  0  0  0  0  0  0
   38.9302   29.5248   51.8266 N   0  0  0  0  0  0  0  0  0  0  0  0
   36.8787   28.2709   50.6698 C   0  0  0  0  0  0  0  0  0  0  0  0
   36.2838   29.1821   49.7869 C   0  0  0  0  0  0  0  0  0  0  0  0
   35.3633   28.6416   48.9305 C   0  0  0  0  0  0  0  0  0  0  0  0
   34.8938   29.3059   48.2372 H   0  0  0  0  0  0  0  0  0  0  0  0
   35.0209   27.3069   48.9092 C   0  0  0  0  0  0  0  0  0  0  0  0
   34.2766   26.9510   48.1960 H   0  0  0  0  0  0  0  0  0  0  0  0
   35.6190   26.4282   49.7874 C   0  0  0  0  0  0  0  0  0  0  0  0
   36.5518   26.9329   50.6659 C   0  0  0  0  0  0  0  0  0  0  0  0
   38.7239   28.2514   53.4731 H   0  0  0  0  0  0  0  0  0  0  0  0
   39.6888   29.1434   51.1894 H   0  0  0  0  0  0  0  0  0  0  0  0
   38.9590   30.3766   52.4262 H   0  0  0  0  0  0  0  0  0  0  0  0
   35.3242   25.3900   49.7401 H   0  0  0  0  0  0  0  0  0  0  0  0
   36.9800   26.1897   51.3244 H   0  0  0  0  0  0  0  0  0  0  0  0
  2  1  2  0
  2 13  1  0
  3  2  1  0
  4  5  1  0
  4  3  2  0
  5  6  2  0
  6  1  1  0
  7  3  1  0
  7 12  1  0
  8  7  2  0
  9  8  1  0
  9 10  2  0
 10 11  1  0
 11 12  2  0
 13 14  1  0
 13 17  1  0
 14 15  1  0
 15 16  1  0
 17 16  1  0
  1 18  1  0
  5 19  1  0
  8 20  1  0
  9 21  1  0
 10 22  1  0
 11 23  1  0
 12 24  1  0
 14 25  1  0
 14 26  1  0
 15 27  1  0
 15 28  1  0
 16 29  1  0
 16 30  1  0
 17 31  1  1
 32 33  2  3
 33 34  1  0
 33 35  1  0
 35 36  2  0
 36 37  1  0
 37 38  1  0
 37 39  2  0
 39 40  1  0
 39 41  1  0
 41 42  2  0
 42 35  1  0
 32 43  1  0
 34 44  1  0
 34 45  1  0
 41 46  1  0
 42 47  1  0
 17 36  1  0
M  ISO  8  18  14  19  14  20  14  21  14  22  14  23  14  24  14  25  13
M  ISO  8  26  13  27  13  28  13  29  13  30  13  31  13  38  15  40  16
M  END
>  <DihAtoms>  (1) 
12,16,35,34

>  <DihDeg>  (1) 
-141.75864042068858

$$$$
