
     RDKit          3D

 25 26  0  0  0  0  0  0  0  0999 V2000
   37.2986   30.1842   51.4165 C   0  0  0  0  0  0  0  0  0  0  0  0
   38.0687   30.6806   50.3443 C   0  0  0  0  0  0  0  0  0  0  0  0
   37.6707   30.3382   49.0530 C   0  0  0  0  0  0  0  0  0  0  0  0
   36.5753   29.5543   48.9029 N   0  0  0  0  0  0  0  0  0  0  0  0
   35.8488   29.0870   49.9319 C   0  0  0  0  0  0  0  0  0  0  0  0
   36.2319   29.4168   51.1794 N   0  0  0  0  0  0  0  0  0  0  0  0
   37.6297   30.4641   52.3888 H   0  0  0  0  0  0  0  0  0  0  0  0
   38.9476   31.3075   50.4190 H   0  0  0  0  0  0  0  0  0  0  0  0
   38.1638   30.6459   48.1474 H   0  0  0  0  0  0  0  0  0  0  0  0
   35.9953   28.2288   46.5929 N   0  0  0  0  0  0  0  0  0  0  0  0
   35.1941   27.7234   47.4484 C   0  0  0  0  0  0  0  0  0  0  0  0
   35.3972   26.7422   46.4601 N   0  0  0  0  0  0  0  0  0  0  0  0
   34.3597   27.5927   48.6161 C   0  0  0  0  0  0  0  0  0  0  0  0
   34.6668   28.2411   49.7917 C   0  0  0  0  0  0  0  0  0  0  0  0
   33.7873   28.0434   50.8394 C   0  0  0  0  0  0  0  0  0  0  0  0
   33.9965   28.5404   51.7870 H   0  0  0  0  0  0  0  0  0  0  0  0
   32.7064   27.2414   50.6394 C   0  0  0  0  0  0  0  0  0  0  0  0
   32.0672   27.1377   51.5052 H   0  0  0  0  0  0  0  0  0  0  0  0
   32.3956   26.5904   49.4641 C   0  0  0  0  0  0  0  0  0  0  0  0
   33.2651   26.7796   48.4117 C   0  0  0  0  0  0  0  0  0  0  0  0
   36.2852   27.6459   45.7506 H   0  0  0  0  0  0  0  0  0  0  0  0
   35.0322   25.7923   46.7031 H   0  0  0  0  0  0  0  0  0  0  0  0
   35.2921   25.7633   46.1326 H   0  0  0  0  0  0  0  0  0  0  0  0
   31.5084   25.9730   49.4094 H   0  0  0  0  0  0  0  0  0  0  0  0
   33.0340   26.2752   47.4837 H   0  0  0  0  0  0  0  0  0  0  0  0
  2  1  2  0
  3  2  1  0
  4  3  2  0
  4  5  1  0
  5  6  2  0
  6  1  1  0
  1  7  1  0
  2  8  1  0
  3  9  1  0
 10 11  2  3
 11 12  1  0
 11 13  1  0
 13 14  2  0
 14 15  1  0
 15 16  1  0
 15 17  2  0
 17 18  1  0
 17 19  1  0
 19 20  2  0
 20 13  1  0
 10 21  1  0
 12 22  1  0
 12 23  1  0
 19 24  1  0
 20 25  1  0
  5 14  1  0
M  END
>  <DihAtoms>  (1) 
3,4,13,12

>  <DihDeg>  (1) 
0.21988659255471538

$$$$
