
     RDKit          3D

 39 41  0  0  0  0  0  0  0  0999 V2000
   35.1675   28.6657   50.0265 C   0  0  0  0  0  0  0  0  0  0  0  0
   36.2378   29.5984   49.8580 C   0  0  0  0  0  0  0  0  0  0  0  0
   36.1553   30.5084   48.8066 C   0  0  0  0  0  0  0  0  0  0  0  0
   35.0559   30.4670   47.9860 N   0  0  0  0  0  0  0  0  0  0  0  0
   34.0618   29.5520   48.1955 C   0  0  0  0  0  0  0  0  0  0  0  0
   34.1158   28.6698   49.1942 N   0  0  0  0  0  0  0  0  0  0  0  0
   33.0334   29.6993   47.2291 N   0  0  0  0  0  0  0  0  0  0  0  0
   37.2230   31.4717   48.6039 C   0  0  0  0  0  0  0  0  0  0  0  0
   37.1993   32.5054   49.5163 C   0  0  0  0  0  0  0  0  0  0  0  0
   38.1599   33.5029   49.4490 C   0  0  0  0  0  0  0  0  0  0  0  0
   39.1316   33.4426   48.4603 C   0  0  0  0  0  0  0  0  0  0  0  0
   39.1392   32.4061   47.5606 C   0  0  0  0  0  0  0  0  0  0  0  0
   38.1871   31.4802   47.6815 N   0  0  0  0  0  0  0  0  0  0  0  0
   37.3752   29.5522   50.8030 C   0  0  0  0  0  0  0  0  0  0  0  0
   38.5837   29.8074   50.1551 F   0  0  0  0  0  0  0  0  0  0  0  0
   37.1938   30.4999   51.7610 F   0  0  0  0  0  0  0  0  0  0  0  0
   37.5086   28.3220   51.4275 F   0  0  0  0  0  0  0  0  0  0  0  0
   35.2390   27.9631   50.8444 H   0  0  0  0  0  0  0  0  0  0  0  0
   32.2245   30.3814   47.2394 H   0  0  0  0  0  0  0  0  0  0  0  0
   33.0690   29.0606   46.4006 H   0  0  0  0  0  0  0  0  0  0  0  0
   36.4937   32.6578   50.3234 H   0  0  0  0  0  0  0  0  0  0  0  0
   38.1886   34.3482   50.1493 H   0  0  0  0  0  0  0  0  0  0  0  0
   39.8645   34.2335   48.4346 H   0  0  0  0  0  0  0  0  0  0  0  0
   40.7819   29.3957   48.4225 N   0  0  0  0  0  0  0  0  0  0  0  0
   40.9176   30.1205   47.3836 C   0  0  0  0  0  0  0  0  0  0  0  0
   41.2233   28.7657   47.0686 N   0  0  0  0  0  0  0  0  0  0  0  0
   40.9703   31.2006   46.4361 C   0  0  0  0  0  0  0  0  0  0  0  0
   40.1372   32.2969   46.5040 C   0  0  0  0  0  0  0  0  0  0  0  0
   40.2926   33.2681   45.5381 C   0  0  0  0  0  0  0  0  0  0  0  0
   39.6956   34.1464   45.5119 H   0  0  0  0  0  0  0  0  0  0  0  0
   41.2684   33.0573   44.5884 C   0  0  0  0  0  0  0  0  0  0  0  0
   41.3788   33.8239   43.8412 H   0  0  0  0  0  0  0  0  0  0  0  0
   42.1126   31.9711   44.4995 C   0  0  0  0  0  0  0  0  0  0  0  0
   41.9433   31.0097   45.4733 C   0  0  0  0  0  0  0  0  0  0  0  0
   40.9632   28.3513   48.3989 H   0  0  0  0  0  0  0  0  0  0  0  0
   41.2608   28.1392   46.2098 H   0  0  0  0  0  0  0  0  0  0  0  0
   41.2143   28.2715   46.1264 H   0  0  0  0  0  0  0  0  0  0  0  0
   42.8404   31.9249   43.7009 H   0  0  0  0  0  0  0  0  0  0  0  0
   42.6008   30.1534   45.4123 H   0  0  0  0  0  0  0  0  0  0  0  0
  2  1  2  0
  2 14  1  0
  3  2  1  0
  4  5  1  0
  4  3  2  0
  5  6  2  0
  6  1  1  0
  7  5  1  0
  8  3  1  0
  8  9  2  0
 10  9  1  0
 11 10  2  0
 12 13  2  0
 12 11  1  0
 13  8  1  0
 14 17  1  0
 14 16  1  0
 15 14  1  0
  1 18  1  0
  7 19  1  0
  7 20  1  0
  9 21  1  0
 10 22  1  0
 11 23  1  0
 24 25  2  3
 25 26  1  0
 25 27  1  0
 27 28  2  0
 28 29  1  0
 29 30  1  0
 29 31  2  0
 31 32  1  0
 31 33  1  0
 33 34  2  0
 34 27  1  0
 24 35  1  0
 26 36  1  0
 26 37  1  0
 33 38  1  0
 34 39  1  0
 12 28  1  0
M  ISO  6  18  14  21  14  22  14  23  14  30  15  32  16
M  END
>  <DihAtoms>  (1) 
12,11,27,26

>  <DihDeg>  (1) 
-0.002021797535813023

$$$$
