
     RDKit          3D

 37 39  0  0  0  0  0  0  0  0999 V2000
   33.6930   28.5550   48.2840 C   0  0  0  0  0  0  0  0  0  0  0  0
   33.7530   29.5810   47.2710 C   0  0  0  0  0  0  0  0  0  0  0  0
   32.2410   29.2800   46.4090 S   0  0  0  0  0  0  0  0  0  0  0  0
   31.7240   27.8440   47.4940 C   0  0  0  0  0  0  0  0  0  0  0  0
   32.6380   27.7890   48.2590 N   0  0  0  0  0  0  0  0  0  0  0  0
   29.4820   27.1280   48.1410 C   0  0  0  0  0  0  0  0  0  0  0  0
   30.4430   27.1880   47.1790 C   0  0  0  0  0  0  0  0  0  0  0  0
   30.1560   26.6220   45.9580 C   0  0  0  0  0  0  0  0  0  0  0  0
   28.9480   26.0360   45.7560 C   0  0  0  0  0  0  0  0  0  0  0  0
   27.9910   25.9850   46.7350 C   0  0  0  0  0  0  0  0  0  0  0  0
   28.2480   26.5410   47.9680 C   0  0  0  0  0  0  0  0  0  0  0  0
   30.2230   28.6440   50.1510 N   0  0  0  0  0  0  0  0  0  0  0  0
   29.7240   27.7060   49.4300 C   0  0  0  0  0  0  0  0  0  0  0  0
   29.2500   27.0630   50.6310 N   0  0  0  0  0  0  0  0  0  0  0  0
   30.1240   28.6110   51.1890 H   0  0  0  0  0  0  0  0  0  0  0  0
   34.8210   28.4530   49.2650 C   0  0  0  0  0  0  0  0  0  0  0  0
   34.9680   29.6840   50.0850 C   0  0  0  0  0  0  0  0  0  0  0  0
   37.4870   32.3640   49.6330 C   0  0  0  0  0  0  0  0  0  0  0  0
   38.3590   31.8300   48.6880 C   0  0  0  0  0  0  0  0  0  0  0  0
   38.0730   30.5410   48.2070 C   0  0  0  0  0  0  0  0  0  0  0  0
   36.9750   29.9040   48.6910 N   0  0  0  0  0  0  0  0  0  0  0  0
   36.1640   30.4810   49.6140 C   0  0  0  0  0  0  0  0  0  0  0  0
   36.4120   31.7050   50.0870 N   0  0  0  0  0  0  0  0  0  0  0  0
   34.5268   30.3408   47.0866 H   0  0  0  0  0  0  0  0  0  0  0  0
   30.9016   26.6442   45.1496 H   0  0  0  0  0  0  0  0  0  0  0  0
   28.7308   25.5880   44.7751 H   0  0  0  0  0  0  0  0  0  0  0  0
   27.0225   25.5024   46.5370 H   0  0  0  0  0  0  0  0  0  0  0  0
   27.5029   26.5176   48.7769 H   0  0  0  0  0  0  0  0  0  0  0  0
   29.4317   27.4907   51.5502 H   0  0  0  0  0  0  0  0  0  0  0  0
   28.7298   26.1762   50.5694 H   0  0  0  0  0  0  0  0  0  0  0  0
   34.6310   27.6019   49.9354 H   0  0  0  0  0  0  0  0  0  0  0  0
   35.7516   28.3151   48.6949 H   0  0  0  0  0  0  0  0  0  0  0  0
   34.0602   30.2974   49.9868 H   0  0  0  0  0  0  0  0  0  0  0  0
   35.1154   29.4006   51.1376 H   0  0  0  0  0  0  0  0  0  0  0  0
   37.6895   33.3719   50.0245 H   0  0  0  0  0  0  0  0  0  0  0  0
   39.2346   32.3932   48.3330 H   0  0  0  0  0  0  0  0  0  0  0  0
   38.7207   30.0607   47.4588 H   0  0  0  0  0  0  0  0  0  0  0  0
  1 16  1  0
  2  1  2  0
  3  2  1  0
  3  4  1  0
  4  5  2  0
  5  1  1  0
  6 13  1  0
  7  4  1  0
  7  6  2  0
  8  7  1  0
  9  8  2  0
  9 10  1  0
 10 11  2  0
 11  6  1  0
 12 15  1  0
 13 12  2  0
 13 14  1  0
 16 17  1  0
 18 23  2  0
 19 18  1  0
 20 19  2  0
 20 21  1  0
 21 22  2  0
 22 17  1  0
 22 23  1  0
  2 24  1  0
  8 25  1  0
  9 26  1  0
 10 27  1  0
 11 28  1  0
 14 29  1  0
 14 30  1  0
 16 31  1  0
 16 32  1  0
 17 33  1  0
 17 34  1  0
 18 35  1  0
 19 36  1  0
 20 37  1  0
M  ISO  8  24  14  25  14  26  14  27  14  28  14  31   8  32   8  33   8
M  ISO  4  34   8  35  14  36  14  37  14
M  END
>  <minimizedAffinity>  (1) 
-5.59856176

>  <minimizedRMSD>  (1) 
1.83797574

$$$$
