
     RDKit          3D

 23 25  0  0  0  0  0  0  0  0999 V2000
   36.6247   29.7582   51.2605 C   0  0  0  0  0  0  0  0  0  0  0  0
   37.3822   30.1174   50.1295 C   0  0  0  0  0  0  0  0  0  0  0  0
   36.8036   29.7938   48.8731 C   0  0  0  0  0  0  0  0  0  0  0  0
   35.5865   29.1741   48.8548 N   0  0  0  0  0  0  0  0  0  0  0  0
   34.9219   28.8619   49.9736 C   0  0  0  0  0  0  0  0  0  0  0  0
   35.4234   29.1454   51.1929 N   0  0  0  0  0  0  0  0  0  0  0  0
   38.6457   30.7633   50.2606 N   0  0  0  0  0  0  0  0  0  0  0  0
   37.0359   29.9903   52.2485 H   0  0  0  0  0  0  0  0  0  0  0  0
   37.3465   30.0496   47.9949 H   0  0  0  0  0  0  0  0  0  0  0  0
   38.6871   31.5993   50.9106 H   0  0  0  0  0  0  0  0  0  0  0  0
   39.4702   30.4065   49.7296 H   0  0  0  0  0  0  0  0  0  0  0  0
   33.6714   28.2195   49.7088 N   0  0  0  0  0  0  0  0  0  0  0  0
   32.7714   28.5166   48.7506 C   0  0  0  0  0  0  0  0  0  0  0  0
   32.9154   29.3314   48.0324 H   0  0  0  0  0  0  0  0  0  0  0  0
   31.7262   27.6735   48.8388 N   0  0  0  0  0  0  0  0  0  0  0  0
   31.9416   26.8123   49.8666 C   0  0  0  0  0  0  0  0  0  0  0  0
   31.1424   25.7821   50.3237 C   0  0  0  0  0  0  0  0  0  0  0  0
   30.2075   25.5507   49.8742 H   0  0  0  0  0  0  0  0  0  0  0  0
   31.6431   25.0906   51.3887 N   0  0  0  0  0  0  0  0  0  0  0  0
   32.8399   25.4290   51.9215 C   0  0  0  0  0  0  0  0  0  0  0  0
   33.2081   24.8536   52.7721 H   0  0  0  0  0  0  0  0  0  0  0  0
   33.5660   26.4321   51.4383 N   0  0  0  0  0  0  0  0  0  0  0  0
   33.1792   27.1772   50.4025 C   0  0  0  0  0  0  0  0  0  0  0  0
  2  7  1  0
  2  1  2  0
  3  2  1  0
  4  3  2  0
  4  5  1  0
  5  6  2  0
  6  1  1  0
  1  8  1  0
  3  9  1  0
  7 10  1  0
  7 11  1  0
 12 13  1  0
 13 14  1  0
 13 15  2  0
 15 16  1  0
 16 17  2  0
 17 18  1  0
 17 19  1  0
 19 20  2  0
 20 21  1  0
 20 22  1  0
 22 23  2  0
 23 12  1  0
 23 16  1  0
  5 12  1  0
M  ISO  5   8  14   9  14  14  15  18  16  21  16
M  END
>  <DihAtoms>  (1) 
3,4,11,12

>  <DihDeg>  (1) 
-130.73653459445242

$$$$
