
     RDKit          3D

 33 36  0  0  0  0  0  0  0  0999 V2000
   38.0964   33.1387   49.5033 C   0  0  0  0  0  0  0  0  0  0  0  0
   38.9396   33.0650   48.3752 C   0  0  0  0  0  0  0  0  0  0  0  0
   38.7030   32.0506   47.4310 C   0  0  0  0  0  0  0  0  0  0  0  0
   37.6744   31.2004   47.6623 N   0  0  0  0  0  0  0  0  0  0  0  0
   36.8804   31.2913   48.7508 C   0  0  0  0  0  0  0  0  0  0  0  0
   37.0958   32.2494   49.6524 N   0  0  0  0  0  0  0  0  0  0  0  0
   35.8159   30.3413   48.9048 N   0  0  0  0  0  0  0  0  0  0  0  0
   34.7459   30.1751   47.9197 C   0  0  0  0  0  0  0  0  0  0  0  0
   34.0193   28.9637   48.3643 C   0  0  0  0  0  0  0  0  0  0  0  0
   34.8689   28.3258   49.4427 C   0  0  0  0  0  0  0  0  0  0  0  0
   35.6614   29.4387   50.0326 C   0  0  0  0  0  0  0  0  0  0  0  0
   38.2111   33.8881   50.2748 H   0  0  0  0  0  0  0  0  0  0  0  0
   39.3417   31.9808   46.5593 H   0  0  0  0  0  0  0  0  0  0  0  0
   35.2473   30.0261   46.9416 H   0  0  0  0  0  0  0  0  0  0  0  0
   34.1576   31.1116   47.9071 H   0  0  0  0  0  0  0  0  0  0  0  0
   33.0596   29.2558   48.8413 H   0  0  0  0  0  0  0  0  0  0  0  0
   33.8585   28.2635   47.5241 H   0  0  0  0  0  0  0  0  0  0  0  0
   34.2116   27.9267   50.2573 H   0  0  0  0  0  0  0  0  0  0  0  0
   35.4707   27.4866   49.0530 H   0  0  0  0  0  0  0  0  0  0  0  0
   36.6299   29.0406   50.3935 H   0  0  0  0  0  0  0  0  0  0  0  0
   35.1354   29.9446   50.8627 H   0  0  0  0  0  0  0  0  0  0  0  0
   39.9806   34.0044   48.2373 N   0  0  0  0  0  0  0  0  0  0  0  0
   40.0579   35.0975   48.9955 C   0  0  0  0  0  0  0  0  0  0  0  0
   39.4250   35.4754   49.7918 H   0  0  0  0  0  0  0  0  0  0  0  0
   41.1584   35.8099   48.6389 N   0  0  0  0  0  0  0  0  0  0  0  0
   41.7675   35.1406   47.6430 C   0  0  0  0  0  0  0  0  0  0  0  0
   42.9006   35.3231   46.8622 C   0  0  0  0  0  0  0  0  0  0  0  0
   43.4595   36.2199   47.0828 H   0  0  0  0  0  0  0  0  0  0  0  0
   43.2737   34.4477   45.9027 N   0  0  0  0  0  0  0  0  0  0  0  0
   42.5186   33.3513   45.6911 C   0  0  0  0  0  0  0  0  0  0  0  0
   42.8103   32.6486   44.9273 H   0  0  0  0  0  0  0  0  0  0  0  0
   41.3944   33.1080   46.4190 N   0  0  0  0  0  0  0  0  0  0  0  0
   41.0147   33.9890   47.3880 C   0  0  0  0  0  0  0  0  0  0  0  0
  1  6  2  0
  2  1  1  0
  3  4  1  0
  3  2  2  0
  4  5  2  0
  5  7  1  0
  5  6  1  0
  7 11  1  0
  8  9  1  0
  8  7  1  0
  9 10  1  0
 10 11  1  0
  1 12  1  0
  3 13  1  0
  8 14  1  0
  8 15  1  0
  9 16  1  0
  9 17  1  0
 10 18  1  0
 10 19  1  0
 11 20  1  0
 11 21  1  0
 22 23  1  0
 23 24  1  0
 23 25  2  0
 25 26  1  0
 26 27  2  0
 27 28  1  0
 27 29  1  0
 29 30  2  0
 30 31  1  0
 30 32  1  0
 32 33  2  0
 33 22  1  0
 33 26  1  0
  2 22  1  0
M  ISO  8  12  14  13  14  14  13  15  13  16  13  17  13  18  13  19  13
M  ISO  5  20  13  21  13  24  15  28  16  31  16
M  END
>  <DihAtoms>  (1) 
0,1,21,22

>  <DihDeg>  (1) 
-147.24639402141435

$$$$
