
     RDKit          3D

 27 29  0  0  0  0  0  0  0  0999 V2000
   32.3760   28.0630   48.9180 O   0  0  0  0  0  0  0  0  0  0  0  0
   33.8260   28.2470   48.5180 P   0  0  2  0  0  0  0  0  0  0  0  0
   34.1660   26.9760   47.4490 O   0  0  0  0  0  0  0  0  0  0  0  0
   34.7970   28.1680   49.9160 O   0  0  0  0  0  0  0  0  0  0  0  0
   37.2900   30.3420   51.4410 C   0  0  0  0  0  0  0  0  0  0  0  0
   38.0560   30.6830   50.3010 C   0  0  0  0  0  0  0  0  0  0  0  0
   37.6690   30.1430   49.0700 C   0  0  0  0  0  0  0  0  0  0  0  0
   36.5820   29.3280   49.0610 N   0  0  0  0  0  0  0  0  0  0  0  0
   35.8700   29.0190   50.1540 C   0  0  0  0  0  0  0  0  0  0  0  0
   36.2230   29.5270   51.3510 N   0  0  0  0  0  0  0  0  0  0  0  0
   33.9330   29.6880   47.6820 O   0  0  0  0  0  0  0  0  0  0  0  0
   35.7070   30.5940   46.2430 N   0  0  0  0  0  0  0  0  0  0  0  0
   34.6360   29.8190   46.4850 C   0  0  0  0  0  0  0  0  0  0  0  0
   34.3060   29.1450   45.3620 N   0  0  0  0  0  0  0  0  0  0  0  0
   35.1650   29.4770   44.3710 C   0  0  0  0  0  0  0  0  0  0  0  0
   35.2450   29.0630   43.0570 C   0  0  0  0  0  0  0  0  0  0  0  0
   36.2430   29.6110   42.3530 N   0  0  0  0  0  0  0  0  0  0  0  0
   37.0920   30.4890   42.8850 C   0  0  0  0  0  0  0  0  0  0  0  0
   36.9980   30.8860   44.1870 N   0  0  0  0  0  0  0  0  0  0  0  0
   36.0140   30.3770   44.9660 C   0  0  0  0  0  0  0  0  0  0  0  0
   34.3843   26.1600   47.9653 H   0  0  0  0  0  0  0  0  0  0  0  0
   37.5729   30.7520   52.4218 H   0  0  0  0  0  0  0  0  0  0  0  0
   38.9267   31.3505   50.3803 H   0  0  0  0  0  0  0  0  0  0  0  0
   38.2224   30.3691   48.1466 H   0  0  0  0  0  0  0  0  0  0  0  0
   36.1873   31.2213   46.9039 H   0  0  0  0  0  0  0  0  0  0  0  0
   34.5421   28.3378   42.6212 H   0  0  0  0  0  0  0  0  0  0  0  0
   37.8923   30.9062   42.2561 H   0  0  0  0  0  0  0  0  0  0  0  0
  2  1  2  0
  2  4  1  0
  3  2  1  0
  4  9  1  0
  6  5  2  0
  7  6  1  0
  8  7  2  0
  8  9  1  0
  9 10  2  0
 10  5  1  0
 11  2  1  0
 12 13  1  0
 13 11  1  0
 14 13  2  0
 15 20  2  0
 15 14  1  0
 16 15  1  0
 17 18  1  0
 17 16  2  0
 18 19  2  0
 19 20  1  0
 20 12  1  0
  3 21  1  0
  5 22  1  0
  6 23  1  0
  7 24  1  0
 12 25  1  0
 16 26  1  0
 18 27  1  0
M  ISO  7  21   3  22  14  23  14  24  14  25   9  26  14  27  14
M  END
>  <minimizedAffinity>  (1) 
-4.69226217

>  <minimizedRMSD>  (1) 
1.27711666

$$$$
