
     RDKit          3D

 34 37  0  0  0  0  0  0  0  0999 V2000
   37.7605   30.4951   50.7230 C   0  0  0  0  0  0  0  0  0  0  0  0
   37.2298   30.6611   49.4066 C   0  0  0  0  0  0  0  0  0  0  0  0
   35.9715   30.1222   49.1547 C   0  0  0  0  0  0  0  0  0  0  0  0
   35.3261   29.4766   50.1614 N   0  0  0  0  0  0  0  0  0  0  0  0
   35.8574   29.3343   51.4057 C   0  0  0  0  0  0  0  0  0  0  0  0
   37.0871   29.8526   51.6776 N   0  0  0  0  0  0  0  0  0  0  0  0
   38.0511   31.3757   48.4546 C   0  0  0  0  0  0  0  0  0  0  0  0
   38.5433   30.6587   47.3955 C   0  0  0  0  0  0  0  0  0  0  0  0
   39.3412   31.1800   46.3969 C   0  0  0  0  0  0  0  0  0  0  0  0
   39.6793   32.5586   46.4676 C   0  0  0  0  0  0  0  0  0  0  0  0
   39.1800   33.2809   47.5397 C   0  0  0  0  0  0  0  0  0  0  0  0
   38.3860   32.7304   48.5199 C   0  0  0  0  0  0  0  0  0  0  0  0
   35.3054   30.2178   47.8495 C   0  0  0  0  0  0  0  0  0  0  0  0
   34.0174   30.7704   48.0065 F   0  0  0  0  0  0  0  0  0  0  0  0
   35.9446   30.9065   46.8742 F   0  0  0  0  0  0  0  0  0  0  0  0
   35.0185   28.9389   47.3527 F   0  0  0  0  0  0  0  0  0  0  0  0
   38.7346   30.8907   50.9843 H   0  0  0  0  0  0  0  0  0  0  0  0
   35.2380   28.7988   52.1131 H   0  0  0  0  0  0  0  0  0  0  0  0
   38.3275   29.6041   47.2758 H   0  0  0  0  0  0  0  0  0  0  0  0
   39.7138   30.5878   45.5740 H   0  0  0  0  0  0  0  0  0  0  0  0
   40.2979   32.9779   45.6998 H   0  0  0  0  0  0  0  0  0  0  0  0
   39.4258   34.3398   47.6154 H   0  0  0  0  0  0  0  0  0  0  0  0
   37.8669   33.4553   49.6235 N   0  0  0  0  0  0  0  0  0  0  0  0
   37.6162   33.1173   50.9207 C   0  0  0  0  0  0  0  0  0  0  0  0
   37.8390   32.0892   51.2426 H   0  0  0  0  0  0  0  0  0  0  0  0
   37.1157   34.1819   51.5786 N   0  0  0  0  0  0  0  0  0  0  0  0
   37.0367   35.2268   50.7089 C   0  0  0  0  0  0  0  0  0  0  0  0
   36.5859   36.5052   50.9469 C   0  0  0  0  0  0  0  0  0  0  0  0
   36.2360   36.7744   51.9340 H   0  0  0  0  0  0  0  0  0  0  0  0
   36.6292   37.3320   49.8697 N   0  0  0  0  0  0  0  0  0  0  0  0
   37.0901   36.8804   48.6766 C   0  0  0  0  0  0  0  0  0  0  0  0
   37.0852   37.6251   47.8682 H   0  0  0  0  0  0  0  0  0  0  0  0
   37.5304   35.6312   48.4449 N   0  0  0  0  0  0  0  0  0  0  0  0
   37.5106   34.7658   49.4784 C   0  0  0  0  0  0  0  0  0  0  0  0
  1  6  2  0
  2  1  1  0
  3  2  2  0
  3  4  1  0
  4  5  2  0
  5  6  1  0
  7 12  1  0
  7  2  1  0
  8  7  2  0
  9 10  2  0
  9  8  1  0
 10 11  1  0
 11 12  2  0
 13 14  1  0
 13  3  1  0
 15 13  1  0
 16 13  1  0
  1 17  1  0
  5 18  1  0
  8 19  1  0
  9 20  1  0
 10 21  1  0
 11 22  1  0
 23 24  1  0
 24 25  1  0
 24 26  2  0
 26 27  1  0
 27 28  2  0
 28 29  1  0
 28 30  1  0
 30 31  2  0
 31 32  1  0
 31 33  1  0
 33 34  2  0
 34 23  1  0
 34 27  1  0
 12 23  1  0
M  ISO  8  17  14  18  14  19  14  20  14  21  14  22  14  25  15  29  16
M  ISO  1  32  16
M  END
>  <DihAtoms>  (1) 
6,11,22,23

>  <DihDeg>  (1) 
94.32101078696763

$$$$
