
     RDKit          3D

 40 43  0  0  0  0  0  0  0  0999 V2000
   37.3429   30.1159   48.2973 O   0  0  0  0  0  0  0  0  0  0  0  0
   38.0642   31.3052   48.2224 C   0  0  0  0  0  0  0  0  0  0  0  0
   38.2168   32.0142   49.3996 C   0  0  0  0  0  0  0  0  0  0  0  0
   38.9305   33.2045   49.3590 C   0  0  0  0  0  0  0  0  0  0  0  0
   39.4453   33.6189   48.1691 N   0  0  0  0  0  0  0  0  0  0  0  0
   39.2879   32.9188   47.0358 C   0  0  0  0  0  0  0  0  0  0  0  0
   38.6057   31.7860   47.0888 N   0  0  0  0  0  0  0  0  0  0  0  0
   40.7671   32.4673   45.2390 C   0  0  0  0  0  0  0  0  0  0  0  0
   41.1298   31.3480   45.6860 O   0  0  0  0  0  0  0  0  0  0  0  0
   39.8388   33.3857   45.8087 N   0  0  0  0  0  0  0  0  0  0  0  0
   35.4749   28.6804   50.0556 O   0  0  0  0  0  0  0  0  0  0  0  0
   35.2572   29.0517   48.8919 C   0  0  0  0  0  0  0  0  0  0  0  0
   35.9186   30.2112   48.3304 C   0  0  2  0  0  0  0  0  0  0  0  0
   35.4595   30.1159   46.8380 C   0  0  0  0  0  0  0  0  0  0  0  0
   34.1460   29.3978   46.9395 C   0  0  0  0  0  0  0  0  0  0  0  0
   34.3490   28.3990   47.9765 N   0  0  0  0  0  0  0  0  0  0  0  0
   33.7789   27.0725   48.0634 C   0  0  0  0  0  0  0  0  0  0  0  0
   37.8276   31.7234   50.3570 H   0  0  0  0  0  0  0  0  0  0  0  0
   39.0685   33.7829   50.2608 H   0  0  0  0  0  0  0  0  0  0  0  0
   41.2767   32.6718   44.3023 H   0  0  0  0  0  0  0  0  0  0  0  0
   39.6377   34.2711   45.3282 H   0  0  0  0  0  0  0  0  0  0  0  0
   35.6330   31.1972   48.7073 H   0  0  0  0  0  0  0  0  0  0  0  0
   36.2093   29.5922   46.2473 H   0  0  0  0  0  0  0  0  0  0  0  0
   35.4032   31.1489   46.4778 H   0  0  0  0  0  0  0  0  0  0  0  0
   33.2897   30.0508   47.0976 H   0  0  0  0  0  0  0  0  0  0  0  0
   33.9929   28.8245   45.9890 H   0  0  0  0  0  0  0  0  0  0  0  0
   33.7354   26.5883   47.0805 H   0  0  0  0  0  0  0  0  0  0  0  0
   34.5169   26.4722   48.6723 H   0  0  0  0  0  0  0  0  0  0  0  0
   32.5343   27.0524   48.7696 N   0  0  0  0  0  0  0  0  0  0  0  0
   31.2855   27.2083   48.2435 C   0  0  0  0  0  0  0  0  0  0  0  0
   31.1344   27.3691   47.1846 H   0  0  0  0  0  0  0  0  0  0  0  0
   30.3336   27.1315   49.2142 N   0  0  0  0  0  0  0  0  0  0  0  0
   30.9718   26.9231   50.3862 C   0  0  0  0  0  0  0  0  0  0  0  0
   30.5122   26.7681   51.6817 C   0  0  0  0  0  0  0  0  0  0  0  0
   29.4530   26.8128   51.8489 H   0  0  0  0  0  0  0  0  0  0  0  0
   31.4534   26.5735   52.6189 N   0  0  0  0  0  0  0  0  0  0  0  0
   32.7751   26.5278   52.3392 C   0  0  0  0  0  0  0  0  0  0  0  0
   33.4332   26.3639   53.1897 H   0  0  0  0  0  0  0  0  0  0  0  0
   33.2419   26.6755   51.0913 N   0  0  0  0  0  0  0  0  0  0  0  0
   32.3242   26.8759   50.1027 C   0  0  0  0  0  0  0  0  0  0  0  0
  2  1  1  0
  2  3  2  0
  4  3  1  0
  5  4  2  0
  6  7  2  0
  6  5  1  0
  7  2  1  0
  8  9  2  0
  8 10  1  0
 10  6  1  0
 12 11  2  0
 13  1  1  0
 13 12  1  0
 14 15  1  0
 14 13  1  0
 15 16  1  0
 16 17  1  0
 16 12  1  0
  3 18  1  0
  4 19  1  0
  8 20  1  0
 10 21  1  0
 13 22  1  1
 14 23  1  0
 14 24  1  0
 15 25  1  0
 15 26  1  0
 17 27  1  0
 17 28  1  0
 29 30  1  0
 30 31  1  0
 30 32  2  0
 32 33  1  0
 33 34  2  0
 34 35  1  0
 34 36  1  0
 36 37  2  0
 37 38  1  0
 37 39  1  0
 39 40  2  0
 40 29  1  0
 40 33  1  0
 17 29  1  0
M  ISO  8  18  14  19  14  20   6  22  13  23  13  24  13  25  13  26  13
M  ISO  5  27   8  28   8  31  15  35  16  38  16
M  END
>  <DihAtoms>  (1) 
15,16,28,29

>  <DihDeg>  (1) 
90.00158418992628

$$$$
