
     RDKit          3D

 49 53  0  0  0  0  0  0  0  0999 V2000
   35.2431   30.3065   49.5770 C   0  0  2  0  0  0  0  0  0  0  0  0
   36.2507   30.9568   48.6895 C   0  0  0  0  0  0  0  0  0  0  0  0
   37.6315   30.4053   48.8808 C   0  0  2  0  0  0  0  0  0  0  0  0
   38.1189   30.4424   50.2829 C   0  0  0  0  0  0  0  0  0  0  0  0
   37.0383   30.1202   51.2931 C   0  0  0  0  0  0  0  0  0  0  0  0
   35.8524   29.4333   50.6391 C   0  0  0  0  0  0  0  0  0  0  0  0
   34.2890   29.4788   48.8047 C   0  0  0  0  0  0  0  0  0  0  0  0
   34.1446   29.8570   47.4690 C   0  0  0  0  0  0  0  0  0  0  0  0
   33.2598   29.0928   46.6930 C   0  0  0  0  0  0  0  0  0  0  0  0
   32.5898   28.0297   47.2760 N   0  0  0  0  0  0  0  0  0  0  0  0
   32.7689   27.7050   48.5912 C   0  0  0  0  0  0  0  0  0  0  0  0
   33.6044   28.4299   49.3117 N   0  0  0  0  0  0  0  0  0  0  0  0
   38.4744   31.0917   47.9779 N   0  0  0  0  0  0  0  0  0  0  0  0
   38.4502   30.6511   46.6158 C   0  0  0  0  0  0  0  0  0  0  0  0
   39.6674   31.3911   46.0584 C   0  0  0  0  0  0  0  0  0  0  0  0
   39.4947   32.7312   46.7544 C   0  0  0  0  0  0  0  0  0  0  0  0
   38.7848   32.3820   48.0886 C   0  0  1  0  0  0  0  0  0  0  0  0
   34.5864   31.0277   50.1467 H   0  0  0  0  0  0  0  0  0  0  0  0
   36.1308   32.0193   48.8664 H   0  0  0  0  0  0  0  0  0  0  0  0
   36.0719   30.7922   47.6168 H   0  0  0  0  0  0  0  0  0  0  0  0
   37.5739   29.3434   48.5576 H   0  0  0  0  0  0  0  0  0  0  0  0
   38.7137   31.3401   50.5476 H   0  0  0  0  0  0  0  0  0  0  0  0
   38.8616   29.5952   50.3866 H   0  0  0  0  0  0  0  0  0  0  0  0
   36.6679   31.0911   51.6841 H   0  0  0  0  0  0  0  0  0  0  0  0
   37.4068   29.5603   52.1498 H   0  0  0  0  0  0  0  0  0  0  0  0
   35.1000   29.2613   51.4313 H   0  0  0  0  0  0  0  0  0  0  0  0
   36.1979   28.4657   50.2292 H   0  0  0  0  0  0  0  0  0  0  0  0
   34.4920   30.5970   46.7796 H   0  0  0  0  0  0  0  0  0  0  0  0
   32.9638   29.1502   45.6751 H   0  0  0  0  0  0  0  0  0  0  0  0
   32.2511   26.8849   49.0404 H   0  0  0  0  0  0  0  0  0  0  0  0
   37.5470   31.0085   46.0731 H   0  0  0  0  0  0  0  0  0  0  0  0
   38.6467   29.5815   46.5093 H   0  0  0  0  0  0  0  0  0  0  0  0
   39.5352   31.4767   44.9650 H   0  0  0  0  0  0  0  0  0  0  0  0
   40.5866   30.8858   46.3743 H   0  0  0  0  0  0  0  0  0  0  0  0
   40.4518   33.2447   46.9074 H   0  0  0  0  0  0  0  0  0  0  0  0
   38.8975   33.3574   46.1035 H   0  0  0  0  0  0  0  0  0  0  0  0
   39.7052   32.3574   48.7826 H   0  0  0  0  0  0  0  0  0  0  0  0
   38.0549   33.4998   48.4730 N   0  0  0  0  0  0  0  0  0  0  0  0
   38.4891   34.8019   48.4664 C   0  0  0  0  0  0  0  0  0  0  0  0
   39.4658   35.2161   48.1718 H   0  0  0  0  0  0  0  0  0  0  0  0
   37.5974   35.6780   48.8732 N   0  0  0  0  0  0  0  0  0  0  0  0
   36.4875   34.9844   49.1821 C   0  0  0  0  0  0  0  0  0  0  0  0
   35.2262   35.3128   49.6599 C   0  0  0  0  0  0  0  0  0  0  0  0
   34.9806   36.3478   49.8598 H   0  0  0  0  0  0  0  0  0  0  0  0
   34.2864   34.3768   49.8861 N   0  0  0  0  0  0  0  0  0  0  0  0
   34.5877   33.0890   49.6389 C   0  0  0  0  0  0  0  0  0  0  0  0
   33.9786   32.1852   49.7529 H   0  0  0  0  0  0  0  0  0  0  0  0
   35.7883   32.7797   49.1843 N   0  0  0  0  0  0  0  0  0  0  0  0
   36.7739   33.6592   48.9357 C   0  0  0  0  0  0  0  0  0  0  0  0
  1  6  1  0
  2  3  1  0
  2  1  1  0
  3  4  1  0
  4  5  1  0
  6  5  1  0
  7 12  1  0
  7  1  1  0
  8  7  2  0
  9 10  2  0
  9  8  1  0
 10 11  1  0
 11 12  2  0
 13 14  1  0
 13 17  1  0
 13  3  1  0
 15 14  1  0
 15 16  1  0
 16 17  1  0
  1 18  1  1
  2 19  1  0
  2 20  1  0
  3 21  1  6
  4 22  1  0
  4 23  1  0
  5 24  1  0
  5 25  1  0
  6 26  1  0
  6 27  1  0
  8 28  1  0
  9 29  1  0
 11 30  1  0
 14 31  1  0
 14 32  1  0
 15 33  1  0
 15 34  1  0
 16 35  1  0
 16 36  1  0
 17 37  1  1
 38 39  1  0
 39 40  1  0
 39 41  2  0
 41 42  1  0
 42 43  2  0
 43 44  1  0
 43 45  1  0
 45 46  2  0
 46 47  1  0
 46 48  1  0
 48 49  2  0
 49 38  1  0
 49 42  1  0
 17 38  1  0
M  ISO  8  18  13  19  13  20  13  21  13  22  13  23  13  24  13  25  13
M  ISO  8  26  13  27  13  28  14  29  14  30  14  31  13  32  13  33  13
M  ISO  7  34  13  35  13  36  13  37  13  40  15  44  16  47  16
M  END
>  <DihAtoms>  (1) 
12,16,37,38

>  <DihDeg>  (1) 
94.12318415710529

$$$$
