
     RDKit          3D

 31 34  0  0  0  0  0  0  0  0999 V2000
   37.7838   30.6856   50.6058 C   0  0  0  0  0  0  0  0  0  0  0  0
   38.4573   31.6075   49.7847 C   0  0  0  0  0  0  0  0  0  0  0  0
   37.9306   31.8587   48.5107 C   0  0  0  0  0  0  0  0  0  0  0  0
   36.7961   31.1990   48.1332 N   0  0  0  0  0  0  0  0  0  0  0  0
   36.1869   30.3240   48.9568 C   0  0  0  0  0  0  0  0  0  0  0  0
   36.6681   30.0607   50.1874 N   0  0  0  0  0  0  0  0  0  0  0  0
   35.0055   29.6154   48.6062 N   0  0  0  0  0  0  0  0  0  0  0  0
   34.7446   29.4225   47.2934 C   0  0  0  0  0  0  0  0  0  0  0  0
   33.5851   28.7290   47.0167 C   0  0  0  0  0  0  0  0  0  0  0  0
   32.7191   28.2458   47.9898 C   0  0  0  0  0  0  0  0  0  0  0  0
   31.6721   27.6187   47.7094 O   0  0  0  0  0  0  0  0  0  0  0  0
   33.0385   28.4730   49.2940 N   0  0  0  0  0  0  0  0  0  0  0  0
   34.1772   29.1536   49.5497 C   0  0  0  0  0  0  0  0  0  0  0  0
   34.4942   29.3764   50.7533 O   0  0  0  0  0  0  0  0  0  0  0  0
   38.2291   30.5268   51.5772 H   0  0  0  0  0  0  0  0  0  0  0  0
   39.3559   32.1277   50.0883 H   0  0  0  0  0  0  0  0  0  0  0  0
   38.3868   32.5579   47.8072 H   0  0  0  0  0  0  0  0  0  0  0  0
   35.4087   29.7927   46.5322 H   0  0  0  0  0  0  0  0  0  0  0  0
   33.3644   28.5676   45.9629 H   0  0  0  0  0  0  0  0  0  0  0  0
   31.9099   25.9206   49.5509 H   0  0  0  0  0  0  0  0  0  0  0  0
   31.7608   26.7072   50.2188 N   0  0  0  0  0  0  0  0  0  0  0  0
   32.1770   27.9940   50.3191 C   0  0  0  0  0  0  0  0  0  0  0  0
   31.6324   28.5347   51.4426 N   0  0  0  0  0  0  0  0  0  0  0  0
   30.8745   27.6071   52.0588 C   0  0  0  0  0  0  0  0  0  0  0  0
   30.1524   27.7423   53.2208 C   0  0  0  0  0  0  0  0  0  0  0  0
   30.1406   28.6743   53.7640 H   0  0  0  0  0  0  0  0  0  0  0  0
   29.4559   26.6534   53.6537 N   0  0  0  0  0  0  0  0  0  0  0  0
   29.5296   25.5185   52.9025 C   0  0  0  0  0  0  0  0  0  0  0  0
   28.9587   24.6543   53.2736 H   0  0  0  0  0  0  0  0  0  0  0  0
   30.2469   25.4200   51.7688 N   0  0  0  0  0  0  0  0  0  0  0  0
   30.9690   26.4671   51.2738 C   0  0  0  0  0  0  0  0  0  0  0  0
  2  1  2  0
  3  2  1  0
  4  3  2  0
  4  5  1  0
  5  6  2  0
  6  1  1  0
  7  5  1  0
  7 13  1  0
  8  7  1  0
  9  8  2  0
  9 10  1  0
 10 12  1  0
 11 10  2  0
 12 13  1  0
 13 14  2  0
  1 15  1  0
  2 16  1  0
  3 17  1  0
  8 18  1  0
  9 19  1  0
 20 21  1  0
 21 22  1  0
 22 23  2  0
 23 24  1  0
 24 25  2  0
 25 26  1  0
 25 27  1  0
 27 28  2  0
 28 29  1  0
 28 30  1  0
 30 31  2  0
 31 21  1  0
 31 24  1  0
 12 22  1  0
M  ISO  8  15  14  16  14  17  14  18  14  19  14  20   9  26  16  29  16
M  END
>  <DihAtoms>  (1) 
9,11,21,20

>  <DihDeg>  (1) 
-102.40198784217034

$$$$
