
     RDKit          3D

 35 38  0  0  0  0  0  0  0  0999 V2000
   38.1090   29.9960   47.6320 F   0  0  0  0  0  0  0  0  0  0  0  0
   38.3390   31.2630   48.0450 C   0  0  0  0  0  0  0  0  0  0  0  0
   37.6290   31.7700   49.1100 C   0  0  0  0  0  0  0  0  0  0  0  0
   37.9080   33.0550   49.4770 C   0  0  0  0  0  0  0  0  0  0  0  0
   38.8510   33.8330   48.8330 C   0  0  0  0  0  0  0  0  0  0  0  0
   39.5510   33.2960   47.7630 C   0  0  0  0  0  0  0  0  0  0  0  0
   39.2880   31.9870   47.3650 C   0  0  0  0  0  0  0  0  0  0  0  0
   35.9620   29.3570   51.4970 C   0  0  0  0  0  0  0  0  0  0  0  0
   36.9170   30.1800   50.8940 C   0  0  0  0  0  0  0  0  0  0  0  0
   36.6460   30.9060   49.7530 C   0  0  0  0  0  0  0  0  0  0  0  0
   35.3820   30.7800   49.2350 N   0  0  0  0  0  0  0  0  0  0  0  0
   34.4650   29.9840   49.8210 C   0  0  0  0  0  0  0  0  0  0  0  0
   34.7440   29.2910   50.9220 N   0  0  0  0  0  0  0  0  0  0  0  0
   39.3280   31.5610   45.0050 C   0  0  0  0  0  0  0  0  0  0  0  0
   38.2230   32.1970   45.0640 O   0  0  0  0  0  0  0  0  0  0  0  0
   39.9920   31.4070   46.2690 N   0  0  0  0  0  0  0  0  0  0  0  0
   40.7500   29.9680   43.5640 N   0  0  0  0  0  0  0  0  0  0  0  0
   39.9220   31.0130   43.7810 C   0  0  0  0  0  0  0  0  0  0  0  0
   39.6570   31.5890   42.5780 N   0  0  0  0  0  0  0  0  0  0  0  0
   40.2870   30.9460   41.6030 C   0  0  0  0  0  0  0  0  0  0  0  0
   40.4370   31.0080   40.2330 C   0  0  0  0  0  0  0  0  0  0  0  0
   41.2070   30.1300   39.5270 N   0  0  0  0  0  0  0  0  0  0  0  0
   41.8640   29.1400   40.1970 C   0  0  0  0  0  0  0  0  0  0  0  0
   41.7460   29.0420   41.5370 N   0  0  0  0  0  0  0  0  0  0  0  0
   40.9780   29.9190   42.2380 C   0  0  0  0  0  0  0  0  0  0  0  0
   37.3572   33.4907   50.3236 H   0  0  0  0  0  0  0  0  0  0  0  0
   39.0438   34.8640   49.1644 H   0  0  0  0  0  0  0  0  0  0  0  0
   40.3056   33.8970   47.2343 H   0  0  0  0  0  0  0  0  0  0  0  0
   36.1951   28.7844   52.4068 H   0  0  0  0  0  0  0  0  0  0  0  0
   37.9181   30.2512   51.3443 H   0  0  0  0  0  0  0  0  0  0  0  0
   33.4613   29.9056   49.3778 H   0  0  0  0  0  0  0  0  0  0  0  0
   40.8945   30.9218   46.3743 H   0  0  0  0  0  0  0  0  0  0  0  0
   41.1335   29.3307   44.2765 H   0  0  0  0  0  0  0  0  0  0  0  0
   39.9110   31.8028   39.6837 H   0  0  0  0  0  0  0  0  0  0  0  0
   42.4892   28.4226   39.6452 H   0  0  0  0  0  0  0  0  0  0  0  0
  1  2  1  0
  2  3  2  0
  3  4  1  0
  3 10  1  0
  5  4  2  0
  6  5  1  0
  7  6  2  0
  7  2  1  0
  9  8  2  0
 10  9  1  0
 11 10  2  0
 11 12  1  0
 12 13  2  0
 13  8  1  0
 14 15  2  0
 14 16  1  0
 16  7  1  0
 17 18  1  0
 18 14  1  0
 19 18  2  0
 20 25  2  0
 20 19  1  0
 21 20  1  0
 22 23  1  0
 22 21  2  0
 23 24  2  0
 24 25  1  0
 25 17  1  0
  4 26  1  0
  5 27  1  0
  6 28  1  0
  8 29  1  0
  9 30  1  0
 12 31  1  0
 16 32  1  0
 17 33  1  0
 21 34  1  0
 23 35  1  0
M  ISO  8  26  14  27  14  28  14  29  14  30  14  31  14  33   9  34  14
M  ISO  1  35  14
M  END
>  <minimizedAffinity>  (1) 
-7.19029951

>  <minimizedRMSD>  (1) 
1.04218781

$$$$
