
     RDKit          3D

 34 37  0  0  0  0  0  0  0  0999 V2000
   37.7605   30.4951   50.7230 C   0  0  0  0  0  0  0  0  0  0  0  0
   37.2298   30.6611   49.4066 C   0  0  0  0  0  0  0  0  0  0  0  0
   35.9715   30.1222   49.1547 C   0  0  0  0  0  0  0  0  0  0  0  0
   35.3261   29.4766   50.1614 N   0  0  0  0  0  0  0  0  0  0  0  0
   35.8574   29.3343   51.4057 C   0  0  0  0  0  0  0  0  0  0  0  0
   37.0871   29.8526   51.6776 N   0  0  0  0  0  0  0  0  0  0  0  0
   38.0511   31.3757   48.4546 C   0  0  0  0  0  0  0  0  0  0  0  0
   38.5433   30.6587   47.3955 C   0  0  0  0  0  0  0  0  0  0  0  0
   39.3412   31.1800   46.3969 C   0  0  0  0  0  0  0  0  0  0  0  0
   39.6793   32.5586   46.4676 C   0  0  0  0  0  0  0  0  0  0  0  0
   39.1800   33.2809   47.5397 C   0  0  0  0  0  0  0  0  0  0  0  0
   38.3860   32.7304   48.5199 C   0  0  0  0  0  0  0  0  0  0  0  0
   35.3054   30.2178   47.8495 C   0  0  0  0  0  0  0  0  0  0  0  0
   34.0174   30.7704   48.0065 F   0  0  0  0  0  0  0  0  0  0  0  0
   35.9446   30.9065   46.8742 F   0  0  0  0  0  0  0  0  0  0  0  0
   35.0185   28.9389   47.3527 F   0  0  0  0  0  0  0  0  0  0  0  0
   38.7346   30.8907   50.9843 H   0  0  0  0  0  0  0  0  0  0  0  0
   35.2380   28.7988   52.1131 H   0  0  0  0  0  0  0  0  0  0  0  0
   38.3275   29.6041   47.2758 H   0  0  0  0  0  0  0  0  0  0  0  0
   39.7138   30.5878   45.5740 H   0  0  0  0  0  0  0  0  0  0  0  0
   40.2979   32.9779   45.6998 H   0  0  0  0  0  0  0  0  0  0  0  0
   39.4258   34.3398   47.6154 H   0  0  0  0  0  0  0  0  0  0  0  0
   37.8669   33.4553   49.6235 N   0  0  0  0  0  0  0  0  0  0  0  0
   37.6811   34.7864   49.8549 C   0  0  0  0  0  0  0  0  0  0  0  0
   37.9718   35.4968   49.0668 H   0  0  0  0  0  0  0  0  0  0  0  0
   37.1461   34.9639   51.0792 N   0  0  0  0  0  0  0  0  0  0  0  0
   36.9789   33.7422   51.6569 C   0  0  0  0  0  0  0  0  0  0  0  0
   36.4667   33.4468   52.8997 C   0  0  0  0  0  0  0  0  0  0  0  0
   36.1377   34.2478   53.5473 H   0  0  0  0  0  0  0  0  0  0  0  0
   36.4262   32.1216   53.1966 N   0  0  0  0  0  0  0  0  0  0  0  0
   36.8690   31.2043   52.3010 C   0  0  0  0  0  0  0  0  0  0  0  0
   36.7943   30.1598   52.6349 H   0  0  0  0  0  0  0  0  0  0  0  0
   37.3692   31.4936   51.0869 N   0  0  0  0  0  0  0  0  0  0  0  0
   37.4338   32.7942   50.7373 C   0  0  0  0  0  0  0  0  0  0  0  0
  1  6  2  0
  2  1  1  0
  3  2  2  0
  3  4  1  0
  4  5  2  0
  5  6  1  0
  7 12  1  0
  7  2  1  0
  8  7  2  0
  9 10  2  0
  9  8  1  0
 10 11  1  0
 11 12  2  0
 13 14  1  0
 13  3  1  0
 15 13  1  0
 16 13  1  0
  1 17  1  0
  5 18  1  0
  8 19  1  0
  9 20  1  0
 10 21  1  0
 11 22  1  0
 23 24  1  0
 24 25  1  0
 24 26  2  0
 26 27  1  0
 27 28  2  0
 28 29  1  0
 28 30  1  0
 30 31  2  0
 31 32  1  0
 31 33  1  0
 33 34  2  0
 34 23  1  0
 34 27  1  0
 12 23  1  0
M  ISO  8  17  14  18  14  19  14  20  14  21  14  22  14  25  15  29  16
M  ISO  1  32  16
M  END
>  <DihAtoms>  (1) 
6,11,22,23

>  <DihDeg>  (1) 
94.32101078696763

$$$$
