
     RDKit          3D

 47 51  0  0  1  0  0  0  0  0999 V2000
   35.2290   29.3880   45.5820 N   0  0  0  0  0  0  0  0  0  0  0  0
   36.2630   30.2920   45.0750 C   0  0  0  0  0  0  0  0  0  0  0  0
   36.3480   30.0680   43.5830 C   0  0  0  0  0  0  0  0  0  0  0  0
   35.4190   28.9380   43.3450 C   0  0  0  0  0  0  0  0  0  0  0  0
   34.3910   29.0690   44.4820 C   0  0  1  0  0  0  0  0  0  0  0  0
   37.2530   29.2760   50.5400 C   0  0  0  0  0  0  0  0  0  0  0  0
   37.4230   30.6480   50.7850 C   0  0  0  0  0  0  0  0  0  0  0  0
   36.6770   31.5240   50.0030 C   0  0  0  0  0  0  0  0  0  0  0  0
   35.8440   31.0010   49.0640 N   0  0  0  0  0  0  0  0  0  0  0  0
   35.7180   29.6920   48.8690 C   0  0  0  0  0  0  0  0  0  0  0  0
   36.4180   28.8280   49.6020 N   0  0  0  0  0  0  0  0  0  0  0  0
   34.8280   29.2150   47.8730 N   0  0  0  0  0  0  0  0  0  0  0  0
   34.1830   27.9110   47.9830 C   0  0  0  0  0  0  0  0  0  0  0  0
   32.7040   28.0640   47.8520 C   0  0  0  0  0  0  0  0  0  0  0  0
   32.2440   29.2490   47.3300 N   0  0  0  0  0  0  0  0  0  0  0  0
   33.0770   30.0900   46.5050 C   0  0  0  0  0  0  0  0  0  0  0  0
   34.5100   29.9970   46.6910 C   0  0  2  0  0  0  0  0  0  0  0  0
   33.7890   27.7510   44.4900 N   0  0  0  0  0  0  0  0  0  0  0  0
   34.2980   26.4920   44.6620 C   0  0  0  0  0  0  0  0  0  0  0  0
   33.3100   25.5820   44.5880 N   0  0  0  0  0  0  0  0  0  0  0  0
   32.1400   26.2380   44.3670 C   0  0  0  0  0  0  0  0  0  0  0  0
   30.8970   25.6580   44.2310 C   0  0  0  0  0  0  0  0  0  0  0  0
   29.8760   26.5180   44.0150 N   0  0  0  0  0  0  0  0  0  0  0  0
   30.1240   27.8380   43.9480 C   0  0  0  0  0  0  0  0  0  0  0  0
   31.3600   28.3360   44.0890 N   0  0  0  0  0  0  0  0  0  0  0  0
   32.4450   27.5840   44.3060 C   0  0  0  0  0  0  0  0  0  0  0  0
   35.9891   31.3363   45.2858 H   0  0  0  0  0  0  0  0  0  0  0  0
   37.2309   30.0943   45.5588 H   0  0  0  0  0  0  0  0  0  0  0  0
   36.0252   30.9640   43.0326 H   0  0  0  0  0  0  0  0  0  0  0  0
   37.3721   29.8579   43.2407 H   0  0  0  0  0  0  0  0  0  0  0  0
   34.9322   29.0300   42.3629 H   0  0  0  0  0  0  0  0  0  0  0  0
   35.9263   27.9620   43.3378 H   0  0  0  0  0  0  0  0  0  0  0  0
   33.5792   29.8102   44.4420 H   0  0  0  0  0  0  0  0  0  0  0  0
   37.8243   28.5509   51.1382 H   0  0  0  0  0  0  0  0  0  0  0  0
   38.1138   31.0132   51.5592 H   0  0  0  0  0  0  0  0  0  0  0  0
   36.7589   32.6123   50.1408 H   0  0  0  0  0  0  0  0  0  0  0  0
   34.5538   27.2520   47.1842 H   0  0  0  0  0  0  0  0  0  0  0  0
   34.4166   27.4727   48.9645 H   0  0  0  0  0  0  0  0  0  0  0  0
   32.3425   27.2528   47.2030 H   0  0  0  0  0  0  0  0  0  0  0  0
   32.3213   28.0379   48.8829 H   0  0  0  0  0  0  0  0  0  0  0  0
   31.4178   29.0135   46.7618 H   0  0  0  0  0  0  0  0  0  0  0  0
   32.7863   31.1332   46.6980 H   0  0  0  0  0  0  0  0  0  0  0  0
   32.9033   29.7367   45.4779 H   0  0  0  0  0  0  0  0  0  0  0  0
   34.8345   31.0442   46.7810 H   0  0  0  0  0  0  0  0  0  0  0  0
   35.3589   26.2587   44.8353 H   0  0  0  0  0  0  0  0  0  0  0  0
   30.7459   24.5702   44.2939 H   0  0  0  0  0  0  0  0  0  0  0  0
   29.2870   28.5298   43.7722 H   0  0  0  0  0  0  0  0  0  0  0  0
  1  2  1  0
  1 17  1  0
  3  2  1  0
  4  3  1  0
  4  5  1  0
  5 18  1  0
  5  1  1  0
  6  7  2  0
  8  7  1  0
  9  8  2  0
 10  9  1  0
 10 11  2  0
 11  6  1  0
 12 13  1  0
 12 10  1  0
 14 13  1  0
 15 14  1  0
 16 17  1  0
 16 15  1  0
 17 12  1  0
 18 19  1  0
 20 19  2  0
 21 20  1  0
 22 21  2  0
 23 22  1  0
 24 23  2  0
 24 25  1  0
 25 26  2  0
 26 21  1  0
 26 18  1  0
  2 27  1  0
  2 28  1  0
  3 29  1  0
  3 30  1  0
  4 31  1  0
  4 32  1  0
  5 33  1  6
  6 34  1  0
  7 35  1  0
  8 36  1  0
 13 37  1  0
 13 38  1  0
 14 39  1  0
 14 40  1  0
 15 41  1  0
 16 42  1  0
 16 43  1  0
 17 44  1  1
 19 45  1  0
 22 46  1  0
 24 47  1  0
M  ISO  8  27  13  28  13  29  13  30  13  31  13  32  13  33  13  34  14
M  ISO  8  35  14  36  14  37  13  38  13  39  13  40  13  41   5  42  13
M  ISO  5  43  13  44  13  45  14  46  14  47  14
M  END
>  <minimizedAffinity>  (1) 
-4.80694771

>  <minimizedRMSD>  (1) 
0.595426977

$$$$
