
     RDKit          3D

 41 44  0  0  1  0  0  0  0  0999 V2000
   36.4990   30.7980   49.1060 C   0  0  2  0  0  0  0  0  0  0  0  0
   37.5780   31.5130   49.8630 C   0  0  0  0  0  0  0  0  0  0  0  0
   38.3390   30.6020   50.8020 C   0  0  0  0  0  0  0  0  0  0  0  0
   37.3860   29.9160   51.7780 C   0  0  0  0  0  0  0  0  0  0  0  0
   36.0540   29.5460   51.1730 C   0  0  0  0  0  0  0  0  0  0  0  0
   36.2440   29.4310   49.6480 C   0  0  1  0  0  0  0  0  0  0  0  0
   36.8400   30.6900   47.6650 C   0  0  0  0  0  0  0  0  0  0  0  0
   38.1990   30.8430   47.3480 C   0  0  0  0  0  0  0  0  0  0  0  0
   38.5490   30.7430   45.9960 C   0  0  0  0  0  0  0  0  0  0  0  0
   37.5530   30.5020   45.0750 N   0  0  0  0  0  0  0  0  0  0  0  0
   36.2410   30.3580   45.4370 C   0  0  0  0  0  0  0  0  0  0  0  0
   35.9080   30.4560   46.7340 N   0  0  0  0  0  0  0  0  0  0  0  0
   33.8570   28.6440   49.2900 C   0  0  0  0  0  0  0  0  0  0  0  0
   33.1660   29.2640   50.1740 O   0  0  0  0  0  0  0  0  0  0  0  0
   35.2380   28.6960   48.9700 N   0  0  0  0  0  0  0  0  0  0  0  0
   31.6300   27.9260   48.3220 N   0  0  0  0  0  0  0  0  0  0  0  0
   32.9610   27.7430   48.5230 C   0  0  0  0  0  0  0  0  0  0  0  0
   33.1720   26.6120   47.8750 N   0  0  0  0  0  0  0  0  0  0  0  0
   32.0990   26.0940   47.3020 C   0  0  0  0  0  0  0  0  0  0  0  0
   31.8750   24.9640   46.5520 C   0  0  0  0  0  0  0  0  0  0  0  0
   30.6000   24.7490   46.1200 N   0  0  0  0  0  0  0  0  0  0  0  0
   29.6070   25.5960   46.4080 C   0  0  0  0  0  0  0  0  0  0  0  0
   29.8320   26.7050   47.1460 N   0  0  0  0  0  0  0  0  0  0  0  0
   31.0750   26.9540   47.5910 C   0  0  0  0  0  0  0  0  0  0  0  0
   35.5854   31.3987   49.2264 H   0  0  0  0  0  0  0  0  0  0  0  0
   38.2868   31.9446   49.1410 H   0  0  0  0  0  0  0  0  0  0  0  0
   37.0945   32.2891   50.4745 H   0  0  0  0  0  0  0  0  0  0  0  0
   38.8665   29.8365   50.2140 H   0  0  0  0  0  0  0  0  0  0  0  0
   39.0583   31.2056   51.3750 H   0  0  0  0  0  0  0  0  0  0  0  0
   37.8674   28.9972   52.1442 H   0  0  0  0  0  0  0  0  0  0  0  0
   37.1818   30.6357   52.5844 H   0  0  0  0  0  0  0  0  0  0  0  0
   35.7123   28.5833   51.5810 H   0  0  0  0  0  0  0  0  0  0  0  0
   35.2994   30.3107   51.4093 H   0  0  0  0  0  0  0  0  0  0  0  0
   37.1247   28.8022   49.4505 H   0  0  0  0  0  0  0  0  0  0  0  0
   38.9537   31.0326   48.1255 H   0  0  0  0  0  0  0  0  0  0  0  0
   39.5956   30.8543   45.6763 H   0  0  0  0  0  0  0  0  0  0  0  0
   35.4704   30.1647   44.6762 H   0  0  0  0  0  0  0  0  0  0  0  0
   35.5430   28.1404   48.1581 H   0  0  0  0  0  0  0  0  0  0  0  0
   31.1036   28.7295   48.6938 H   0  0  0  0  0  0  0  0  0  0  0  0
   32.6887   24.2641   46.3110 H   0  0  0  0  0  0  0  0  0  0  0  0
   28.5921   25.3871   46.0389 H   0  0  0  0  0  0  0  0  0  0  0  0
  1  6  1  0
  1  2  1  0
  2  3  1  0
  3  4  1  0
  5  4  1  0
  6  5  1  0
  7  1  1  0
  8  7  2  0
  9  8  1  0
 10 11  1  0
 10  9  2  0
 11 12  2  0
 12  7  1  0
 13 14  2  0
 15 13  1  0
 15  6  1  0
 16 17  1  0
 17 13  1  0
 18 17  2  0
 19 24  2  0
 19 18  1  0
 20 19  1  0
 21 22  1  0
 21 20  2  0
 22 23  2  0
 23 24  1  0
 24 16  1  0
  1 25  1  6
  2 26  1  0
  2 27  1  0
  3 28  1  0
  3 29  1  0
  4 30  1  0
  4 31  1  0
  5 32  1  0
  5 33  1  0
  6 34  1  1
  8 35  1  0
  9 36  1  0
 11 37  1  0
 15 38  1  0
 16 39  1  0
 20 40  1  0
 22 41  1  0
M  ISO  8  25  13  26  13  27  13  28  13  29  13  30  13  31  13  32  13
M  ISO  8  33  13  34  13  35  14  36  14  37  14  39   9  40  14  41  14
M  END
>  <minimizedAffinity>  (1) 
-6.19409609

>  <minimizedRMSD>  (1) 
1.08132625

$$$$
