
     RDKit          3D

 42 46  0  0  0  0  0  0  0  0999 V2000
   33.7800   28.9570   44.3330 Cl  0  0  0  0  0  0  0  0  0  0  0  0
   33.7880   27.7640   45.6250 C   0  0  0  0  0  0  0  0  0  0  0  0
   33.8930   28.0630   46.9880 C   0  0  0  0  0  0  0  0  0  0  0  0
   33.8880   27.0490   47.9050 C   0  0  0  0  0  0  0  0  0  0  0  0
   33.7820   25.7460   47.5110 C   0  0  0  0  0  0  0  0  0  0  0  0
   33.6740   25.3910   46.1660 C   0  0  0  0  0  0  0  0  0  0  0  0
   33.6820   26.4280   45.2710 C   0  0  0  0  0  0  0  0  0  0  0  0
   33.5710   26.0820   43.8720 N   0  0  0  0  0  0  0  0  0  0  0  0
   32.5290   25.9530   43.0340 C   0  0  0  0  0  0  0  0  0  0  0  0
   33.0200   25.6070   41.8220 N   0  0  0  0  0  0  0  0  0  0  0  0
   34.3660   25.5260   41.9300 C   0  0  0  0  0  0  0  0  0  0  0  0
   35.2510   25.2020   40.9290 C   0  0  0  0  0  0  0  0  0  0  0  0
   36.5560   25.1880   41.2810 N   0  0  0  0  0  0  0  0  0  0  0  0
   36.9450   25.4770   42.5460 C   0  0  0  0  0  0  0  0  0  0  0  0
   36.0570   25.7880   43.4940 N   0  0  0  0  0  0  0  0  0  0  0  0
   34.7360   25.8220   43.2140 C   0  0  0  0  0  0  0  0  0  0  0  0
   34.0260   29.8250   47.3470 S   0  0  0  0  0  0  0  0  0  0  0  0
   36.3930   30.8200   45.5730 Cl  0  0  0  0  0  0  0  0  0  0  0  0
   36.6530   30.6720   47.2900 C   0  0  0  0  0  0  0  0  0  0  0  0
   37.9060   31.0060   47.7800 C   0  0  0  0  0  0  0  0  0  0  0  0
   38.1220   30.8910   49.1370 C   0  0  0  0  0  0  0  0  0  0  0  0
   37.1160   30.4600   49.9600 C   0  0  0  0  0  0  0  0  0  0  0  0
   35.8750   30.1390   49.3990 C   0  0  0  0  0  0  0  0  0  0  0  0
   35.5920   30.2280   48.0630 C   0  0  0  0  0  0  0  0  0  0  0  0
   40.1620   33.2840   46.0280 C   0  0  0  0  0  0  0  0  0  0  0  0
   40.8980   32.4340   45.1580 C   0  0  0  0  0  0  0  0  0  0  0  0
   40.5980   31.0720   45.1920 C   0  0  0  0  0  0  0  0  0  0  0  0
   39.6290   30.6240   46.0440 N   0  0  0  0  0  0  0  0  0  0  0  0
   38.9620   31.4700   46.8470 C   0  0  0  0  0  0  0  0  0  0  0  0
   39.2310   32.7750   46.8320 N   0  0  0  0  0  0  0  0  0  0  0  0
   33.9706   27.2864   48.9759 H   0  0  0  0  0  0  0  0  0  0  0  0
   33.7817   24.9545   48.2749 H   0  0  0  0  0  0  0  0  0  0  0  0
   33.5877   24.3427   45.8441 H   0  0  0  0  0  0  0  0  0  0  0  0
   31.4690   26.1017   43.2874 H   0  0  0  0  0  0  0  0  0  0  0  0
   34.9183   24.9690   39.9067 H   0  0  0  0  0  0  0  0  0  0  0  0
   38.0155   25.4551   42.7980 H   0  0  0  0  0  0  0  0  0  0  0  0
   39.1050   31.1462   49.5595 H   0  0  0  0  0  0  0  0  0  0  0  0
   37.2807   30.3677   51.0437 H   0  0  0  0  0  0  0  0  0  0  0  0
   35.0776   29.7938   50.0735 H   0  0  0  0  0  0  0  0  0  0  0  0
   40.3624   34.3656   46.0369 H   0  0  0  0  0  0  0  0  0  0  0  0
   41.6718   32.8336   44.4860 H   0  0  0  0  0  0  0  0  0  0  0  0
   41.1354   30.3673   44.5404 H   0  0  0  0  0  0  0  0  0  0  0  0
  1  2  1  0
  2  3  2  0
  3 17  1  0
  3  4  1  0
  5  4  2  0
  6  5  1  0
  7  2  1  0
  7  6  2  0
  8  7  1  0
  9  8  1  0
 10 11  1  0
 10  9  2  0
 11 16  2  0
 12 13  2  0
 12 11  1  0
 13 14  1  0
 14 15  2  0
 16 15  1  0
 16  8  1  0
 17 24  1  0
 18 19  1  0
 19 20  2  0
 19 24  1  0
 20 21  1  0
 21 22  2  0
 23 22  1  0
 24 23  2  0
 25 30  2  0
 26 27  2  0
 26 25  1  0
 27 28  1  0
 28 29  2  0
 29 20  1  0
 30 29  1  0
  4 31  1  0
  5 32  1  0
  6 33  1  0
  9 34  1  0
 12 35  1  0
 14 36  1  0
 21 37  1  0
 22 38  1  0
 23 39  1  0
 25 40  1  0
 26 41  1  0
 27 42  1  0
M  ISO  8  31  14  32  14  33  14  34  14  35  14  36  14  37  14  38  14
M  ISO  4  39  14  40  14  41  14  42  14
M  END
>  <minimizedAffinity>  (1) 
-5.7251091

>  <minimizedRMSD>  (1) 
1.42491364

$$$$
