
     RDKit          3D

 49 53  0  0  0  0  0  0  0  0999 V2000
   36.5550   29.5070   48.8540 C   0  0  0  0  0  0  0  0  0  0  0  0
   38.5560   30.2210   47.1060 F   0  0  0  0  0  0  0  0  0  0  0  0
   38.1390   31.1300   48.0410 C   0  0  0  0  0  0  0  0  0  0  0  0
   37.1400   30.8770   48.9710 C   0  0  0  0  0  0  0  0  0  0  0  0
   36.7670   31.8280   49.8840 C   0  0  0  0  0  0  0  0  0  0  0  0
   37.3850   33.0770   49.9000 C   0  0  0  0  0  0  0  0  0  0  0  0
   38.3780   33.3540   48.9890 C   0  0  0  0  0  0  0  0  0  0  0  0
   38.7390   32.3820   48.0790 C   0  0  0  0  0  0  0  0  0  0  0  0
   39.7500   32.6990   47.1720 O   0  0  0  0  0  0  0  0  0  0  0  0
   40.4950   31.6450   45.0810 N   0  0  0  0  0  0  0  0  0  0  0  0
   39.7080   32.3990   45.8420 C   0  0  0  0  0  0  0  0  0  0  0  0
   38.7490   32.8820   45.0150 N   0  0  0  0  0  0  0  0  0  0  0  0
   38.9680   32.4170   43.7720 C   0  0  0  0  0  0  0  0  0  0  0  0
   38.2680   32.6320   42.6120 C   0  0  0  0  0  0  0  0  0  0  0  0
   38.7120   32.0350   41.4910 N   0  0  0  0  0  0  0  0  0  0  0  0
   39.7950   31.2550   41.4860 C   0  0  0  0  0  0  0  0  0  0  0  0
   40.4880   31.0450   42.6400 N   0  0  0  0  0  0  0  0  0  0  0  0
   40.0950   31.6130   43.7940 C   0  0  0  0  0  0  0  0  0  0  0  0
   34.7530   29.7080   48.8150 S   0  0  0  0  0  0  0  0  0  0  0  0
   34.7790   30.2070   44.8140 C   0  0  0  0  0  0  0  0  0  0  0  0
   33.4590   30.6130   44.5840 C   0  0  0  0  0  0  0  0  0  0  0  0
   32.6240   30.7140   45.6730 C   0  0  0  0  0  0  0  0  0  0  0  0
   33.1400   30.4100   46.9040 N   0  0  0  0  0  0  0  0  0  0  0  0
   34.3670   30.0380   47.0780 C   0  0  0  0  0  0  0  0  0  0  0  0
   35.2650   29.9130   46.0380 N   0  0  0  0  0  0  0  0  0  0  0  0
   33.1020   30.8770   43.3050 O   0  0  0  0  0  0  0  0  0  0  0  0
   32.5280   32.1080   43.0100 C   0  0  0  0  0  0  0  0  0  0  0  0
   31.1800   32.4200   42.9100 C   0  0  0  0  0  0  0  0  0  0  0  0
   30.8200   33.6850   42.6110 C   0  0  0  0  0  0  0  0  0  0  0  0
   31.7780   34.6290   42.4140 C   0  0  0  0  0  0  0  0  0  0  0  0
   33.1370   34.3010   42.5180 C   0  0  0  0  0  0  0  0  0  0  0  0
   33.4860   33.0230   42.8190 N   0  0  0  0  0  0  0  0  0  0  0  0
   34.1930   35.3630   42.2960 C   0  0  0  0  0  0  0  0  0  0  0  0
   36.9023   29.0248   47.9284 H   0  0  0  0  0  0  0  0  0  0  0  0
   36.8631   28.8729   49.6984 H   0  0  0  0  0  0  0  0  0  0  0  0
   35.9725   31.6037   50.6110 H   0  0  0  0  0  0  0  0  0  0  0  0
   37.0810   33.8360   50.6358 H   0  0  0  0  0  0  0  0  0  0  0  0
   38.8761   34.3347   48.9862 H   0  0  0  0  0  0  0  0  0  0  0  0
   41.3200   31.1405   45.4358 H   0  0  0  0  0  0  0  0  0  0  0  0
   37.3731   33.2715   42.5988 H   0  0  0  0  0  0  0  0  0  0  0  0
   40.1279   30.7819   40.5504 H   0  0  0  0  0  0  0  0  0  0  0  0
   35.4559   30.1232   43.9510 H   0  0  0  0  0  0  0  0  0  0  0  0
   31.5762   31.0287   45.5582 H   0  0  0  0  0  0  0  0  0  0  0  0
   30.4151   31.6463   43.0723 H   0  0  0  0  0  0  0  0  0  0  0  0
   29.7561   33.9515   42.5270 H   0  0  0  0  0  0  0  0  0  0  0  0
   31.4840   35.6606   42.1705 H   0  0  0  0  0  0  0  0  0  0  0  0
   34.5560   35.7280   43.2681 H   0  0  0  0  0  0  0  0  0  0  0  0
   35.0320   34.9330   41.7293 H   0  0  0  0  0  0  0  0  0  0  0  0
   33.7583   36.1996   41.7293 H   0  0  0  0  0  0  0  0  0  0  0  0
  1  4  1  0
  2  3  1  0
  3  8  2  0
  3  4  1  0
  4  5  2  0
  5  6  1  0
  7  6  2  0
  8  7  1  0
  9  8  1  0
 10 11  1  0
 11  9  1  0
 12 11  2  0
 13 18  2  0
 13 12  1  0
 14 13  1  0
 15 14  2  0
 16 15  1  0
 16 17  2  0
 17 18  1  0
 18 10  1  0
 19  1  1  0
 20 25  2  0
 21 20  1  0
 21 22  2  0
 22 23  1  0
 23 24  2  0
 24 19  1  0
 25 24  1  0
 26 21  1  0
 27 26  1  0
 28 27  2  0
 29 28  1  0
 30 31  1  0
 30 29  2  0
 31 32  2  0
 32 27  1  0
 33 31  1  0
  1 34  1  0
  1 35  1  0
  5 36  1  0
  6 37  1  0
  7 38  1  0
 10 39  1  0
 14 40  1  0
 16 41  1  0
 20 42  1  0
 22 43  1  0
 28 44  1  0
 29 45  1  0
 30 46  1  0
 33 47  1  0
 33 48  1  0
 33 49  1  0
M  ISO  8  34   8  35   8  36  14  37  14  38  14  39   9  40  14  41  14
M  ISO  8  42  14  43  14  44  14  45  14  46  14  47   8  48   8  49   8
M  END
>  <minimizedAffinity>  (1) 
-6.52782774

>  <minimizedRMSD>  (1) 
7.70059347

$$$$
