
     RDKit          3D

 34 37  0  0  0  0  0  0  0  0999 V2000
   32.9770   28.1850   47.8070 C   0  0  0  0  0  0  0  0  0  0  0  0
   31.9590   27.4140   48.3450 C   0  0  0  0  0  0  0  0  0  0  0  0
   30.7520   27.8360   47.8030 C   0  0  0  0  0  0  0  0  0  0  0  0
   31.0790   28.8480   46.9560 N   0  0  0  0  0  0  0  0  0  0  0  0
   32.3860   29.0450   46.9650 N   0  0  0  0  0  0  0  0  0  0  0  0
   28.6940   29.2960   46.3300 N   0  0  0  0  0  0  0  0  0  0  0  0
   30.0240   29.4850   46.2450 C   0  0  0  0  0  0  0  0  0  0  0  0
   30.2220   30.4480   45.3090 N   0  0  0  0  0  0  0  0  0  0  0  0
   29.0440   30.8550   44.8160 C   0  0  0  0  0  0  0  0  0  0  0  0
   28.7430   31.8010   43.8580 C   0  0  0  0  0  0  0  0  0  0  0  0
   27.4610   32.0200   43.5430 N   0  0  0  0  0  0  0  0  0  0  0  0
   26.4920   31.3100   44.1710 C   0  0  0  0  0  0  0  0  0  0  0  0
   26.7780   30.3790   45.1130 N   0  0  0  0  0  0  0  0  0  0  0  0
   28.0620   30.1300   45.4570 C   0  0  0  0  0  0  0  0  0  0  0  0
   34.4500   28.0760   48.1090 C   0  0  0  0  0  0  0  0  0  0  0  0
   34.5780   28.3220   49.5940 C   0  0  0  0  0  0  0  0  0  0  0  0
   37.2670   30.1670   51.3490 C   0  0  0  0  0  0  0  0  0  0  0  0
   38.0370   30.6500   50.2710 C   0  0  0  0  0  0  0  0  0  0  0  0
   37.6250   30.3370   48.9520 C   0  0  0  0  0  0  0  0  0  0  0  0
   36.5060   29.5860   48.8080 N   0  0  0  0  0  0  0  0  0  0  0  0
   35.7920   29.1410   49.8730 C   0  0  0  0  0  0  0  0  0  0  0  0
   36.1820   29.4360   51.1010 N   0  0  0  0  0  0  0  0  0  0  0  0
   32.0856   26.6038   49.0782 H   0  0  0  0  0  0  0  0  0  0  0  0
   29.7485   27.4376   48.0135 H   0  0  0  0  0  0  0  0  0  0  0  0
   28.2268   28.6256   46.9571 H   0  0  0  0  0  0  0  0  0  0  0  0
   29.5447   32.3667   43.3606 H   0  0  0  0  0  0  0  0  0  0  0  0
   25.4402   31.4955   43.9076 H   0  0  0  0  0  0  0  0  0  0  0  0
   34.8217   27.0730   47.8522 H   0  0  0  0  0  0  0  0  0  0  0  0
   35.0404   28.7966   47.5241 H   0  0  0  0  0  0  0  0  0  0  0  0
   33.6868   28.8580   49.9525 H   0  0  0  0  0  0  0  0  0  0  0  0
   34.6670   27.3564   50.1133 H   0  0  0  0  0  0  0  0  0  0  0  0
   37.5599   30.3920   52.3851 H   0  0  0  0  0  0  0  0  0  0  0  0
   38.9373   31.2562   50.4500 H   0  0  0  0  0  0  0  0  0  0  0  0
   38.1919   30.6901   48.0780 H   0  0  0  0  0  0  0  0  0  0  0  0
  1 15  1  0
  1  2  1  0
  3  2  2  0
  4  5  1  0
  4  3  1  0
  5  1  2  0
  7  6  1  0
  7  4  1  0
  8  7  2  0
  9  8  1  0
  9 14  2  0
 10  9  1  0
 11 10  2  0
 11 12  1  0
 12 13  2  0
 13 14  1  0
 14  6  1  0
 15 16  1  0
 16 21  1  0
 18 17  2  0
 19 18  1  0
 20 19  2  0
 20 21  1  0
 21 22  2  0
 22 17  1  0
  2 23  1  0
  3 24  1  0
  6 25  1  0
 10 26  1  0
 12 27  1  0
 15 28  1  0
 15 29  1  0
 16 30  1  0
 16 31  1  0
 17 32  1  0
 18 33  1  0
 19 34  1  0
M  ISO  8  23  14  24  14  25   9  26  14  27  14  28   8  29   8  30   8
M  ISO  4  31   8  32  14  33  14  34  14
M  END
>  <minimizedAffinity>  (1) 
-5.47430992

>  <minimizedRMSD>  (1) 
0.542486131

$$$$
