
     RDKit          3D

 34 37  0  0  0  0  0  0  0  0999 V2000
   37.1345   31.2280   48.5938 C   0  0  0  0  0  0  0  0  0  0  0  0
   38.0811   32.2405   48.3923 C   0  0  0  0  0  0  0  0  0  0  0  0
   38.4576   32.4193   47.0869 C   0  0  0  0  0  0  0  0  0  0  0  0
   37.9381   31.6609   46.0812 N   0  0  0  0  0  0  0  0  0  0  0  0
   37.0279   30.6922   46.3065 C   0  0  0  0  0  0  0  0  0  0  0  0
   36.6231   30.4720   47.5659 N   0  0  0  0  0  0  0  0  0  0  0  0
   36.6242   31.0466   50.0146 C   0  0  0  0  0  0  0  0  0  0  0  0
   35.9002   29.8991   50.4124 C   0  0  0  0  0  0  0  0  0  0  0  0
   37.3975   29.8355   50.6561 C   0  0  0  0  0  0  0  0  0  0  0  0
   38.6687   33.0044   49.4763 C   0  0  0  0  0  0  0  0  0  0  0  0
   39.5001   34.1733   49.1730 C   0  0  0  0  0  0  0  0  0  0  0  0
   39.1786   33.1114   46.7156 H   0  0  0  0  0  0  0  0  0  0  0  0
   36.6351   30.1080   45.4894 H   0  0  0  0  0  0  0  0  0  0  0  0
   36.8036   31.9386   50.6648 H   0  0  0  0  0  0  0  0  0  0  0  0
   35.4950   29.1144   49.7752 H   0  0  0  0  0  0  0  0  0  0  0  0
   35.3105   29.9767   51.3743 H   0  0  0  0  0  0  0  0  0  0  0  0
   37.7849   30.0087   51.6589 H   0  0  0  0  0  0  0  0  0  0  0  0
   37.9782   29.1884   50.0108 H   0  0  0  0  0  0  0  0  0  0  0  0
   39.1202   32.3082   50.1888 H   0  0  0  0  0  0  0  0  0  0  0  0
   37.7772   33.4347   50.0569 H   0  0  0  0  0  0  0  0  0  0  0  0
   39.9716   34.5129   50.1418 H   0  0  0  0  0  0  0  0  0  0  0  0
   40.4206   33.9134   48.5552 H   0  0  0  0  0  0  0  0  0  0  0  0
   38.8755   35.2893   48.5429 N   0  0  0  0  0  0  0  0  0  0  0  0
   37.7224   35.6841   48.0265 C   0  0  0  0  0  0  0  0  0  0  0  0
   36.8553   35.0695   48.0033 H   0  0  0  0  0  0  0  0  0  0  0  0
   37.7233   36.9272   47.5168 N   0  0  0  0  0  0  0  0  0  0  0  0
   38.9657   37.4403   47.6877 C   0  0  0  0  0  0  0  0  0  0  0  0
   39.4514   38.6666   47.3336 C   0  0  0  0  0  0  0  0  0  0  0  0
   38.8176   39.3720   46.8495 H   0  0  0  0  0  0  0  0  0  0  0  0
   40.7463   38.8776   47.6445 N   0  0  0  0  0  0  0  0  0  0  0  0
   41.4552   37.9200   48.2552 C   0  0  0  0  0  0  0  0  0  0  0  0
   42.5077   38.1208   48.4959 H   0  0  0  0  0  0  0  0  0  0  0  0
   40.9513   36.7320   48.5880 N   0  0  0  0  0  0  0  0  0  0  0  0
   39.6570   36.4093   48.3231 C   0  0  0  0  0  0  0  0  0  0  0  0
  1  7  1  0
  2  1  1  0
  2 10  1  0
  3  2  2  0
  4  5  2  0
  4  3  1  0
  5  6  1  0
  6  1  2  0
  7  8  1  0
  7  9  1  0
  8  9  1  0
 11 10  1  0
  3 12  1  0
  5 13  1  0
  7 14  1  0
  8 15  1  0
  8 16  1  0
  9 17  1  0
  9 18  1  0
 10 19  1  0
 10 20  1  0
 11 21  1  0
 11 22  1  0
 23 24  1  0
 24 25  1  0
 24 26  2  0
 26 27  1  0
 27 28  2  0
 28 29  1  0
 28 30  1  0
 30 31  2  0
 31 32  1  0
 31 33  1  0
 33 34  2  0
 34 23  1  0
 34 27  1  0
 11 23  1  0
M  ISO  8  12  14  13  14  14  13  15  13  16  13  17  13  18  13  19   8
M  ISO  6  20   8  21   8  22   8  25  15  29  16  32  16
M  END
>  <DihAtoms>  (1) 
9,10,22,23

>  <DihDeg>  (1) 
-94.396824121785

$$$$
