
     RDKit          3D

 35 38  0  0  0  0  0  0  0  0999 V2000
   35.8887   30.0346   47.6074 C   0  0  2  0  0  0  0  0  0  0  0  0
   34.4467   30.1673   47.7448 C   0  0  0  0  0  0  0  0  0  0  0  0
   35.1653   29.1812   48.6021 C   0  0  2  0  0  0  0  0  0  0  0  0
   37.3395   32.7781   49.6901 C   0  0  0  0  0  0  0  0  0  0  0  0
   38.5860   32.9424   49.1046 C   0  0  0  0  0  0  0  0  0  0  0  0
   38.9398   32.1198   47.9984 C   0  0  0  0  0  0  0  0  0  0  0  0
   38.0181   31.2158   47.5853 N   0  0  0  0  0  0  0  0  0  0  0  0
   36.8152   31.0830   48.1781 C   0  0  0  0  0  0  0  0  0  0  0  0
   36.4485   31.8445   49.2262 N   0  0  0  0  0  0  0  0  0  0  0  0
   35.4523   29.5203   50.3575 S   0  0  0  0  0  0  0  0  0  0  0  0
   37.1618   28.9742   50.7356 C   0  0  0  0  0  0  0  0  0  0  0  0
   37.6909   29.7678   51.9118 C   0  0  0  0  0  0  0  0  0  0  0  0
   36.2800   29.4881   46.7519 H   0  0  0  0  0  0  0  0  0  0  0  0
   33.7798   29.7961   46.9161 H   0  0  0  0  0  0  0  0  0  0  0  0
   34.0137   31.0623   48.2491 H   0  0  0  0  0  0  0  0  0  0  0  0
   34.9624   28.1071   48.3394 H   0  0  0  0  0  0  0  0  0  0  0  0
   37.0085   33.3718   50.5345 H   0  0  0  0  0  0  0  0  0  0  0  0
   39.2718   33.6824   49.4848 H   0  0  0  0  0  0  0  0  0  0  0  0
   39.8992   32.2257   47.5257 H   0  0  0  0  0  0  0  0  0  0  0  0
   37.0928   27.9185   51.0487 H   0  0  0  0  0  0  0  0  0  0  0  0
   37.7887   29.1527   49.8412 H   0  0  0  0  0  0  0  0  0  0  0  0
   37.5622   30.8539   51.8125 H   0  0  0  0  0  0  0  0  0  0  0  0
   36.9914   29.4905   52.7582 H   0  0  0  0  0  0  0  0  0  0  0  0
   39.0535   29.3690   52.2485 N   0  0  0  0  0  0  0  0  0  0  0  0
   39.8057   29.8799   53.2402 C   0  0  0  0  0  0  0  0  0  0  0  0
   39.4450   30.6613   53.8957 H   0  0  0  0  0  0  0  0  0  0  0  0
   40.9867   29.2249   53.1912 N   0  0  0  0  0  0  0  0  0  0  0  0
   40.9714   28.3330   52.1996 C   0  0  0  0  0  0  0  0  0  0  0  0
   41.8232   27.3952   51.6512 C   0  0  0  0  0  0  0  0  0  0  0  0
   42.8062   27.2971   52.1033 H   0  0  0  0  0  0  0  0  0  0  0  0
   41.5213   26.6030   50.6062 N   0  0  0  0  0  0  0  0  0  0  0  0
   40.2793   26.7467   50.0570 C   0  0  0  0  0  0  0  0  0  0  0  0
   40.1381   26.0540   49.2131 H   0  0  0  0  0  0  0  0  0  0  0  0
   39.3884   27.6370   50.5306 N   0  0  0  0  0  0  0  0  0  0  0  0
   39.7319   28.4093   51.5774 C   0  0  0  0  0  0  0  0  0  0  0  0
  1  2  1  0
  1  8  1  0
  1  3  1  0
  2  3  1  0
  3 10  1  0
  5  4  2  0
  6  5  1  0
  7  6  2  0
  7  8  1  0
  8  9  2  0
  9  4  1  0
 10 11  1  0
 11 12  1  0
  1 13  1  6
  2 14  1  0
  2 15  1  0
  3 16  1  1
  4 17  1  0
  5 18  1  0
  6 19  1  0
 11 20  1  0
 11 21  1  0
 12 22  1  0
 12 23  1  0
 24 25  1  0
 25 26  1  0
 25 27  2  0
 27 28  1  0
 28 29  2  0
 29 30  1  0
 29 31  1  0
 31 32  2  0
 32 33  1  0
 32 34  1  0
 34 35  2  0
 35 24  1  0
 35 28  1  0
 12 24  1  0
M  ISO  8  13  13  14  13  15  13  16  13  17  14  18  14  19  14  20   8
M  ISO  6  21   8  22   8  23   8  26  15  30  16  33  16
M  END
>  <DihAtoms>  (1) 
10,11,23,24

>  <DihDeg>  (1) 
89.999466359331

$$$$
