
     RDKit          3D

 39 41  0  0  0  0  0  0  0  0999 V2000
   38.9287   30.9017   45.7727 C   0  0  0  0  0  0  0  0  0  0  0  0
   40.1223   31.5287   46.0280 C   0  0  0  0  0  0  0  0  0  0  0  0
   40.9409   31.4591   44.9169 C   0  0  0  0  0  0  0  0  0  0  0  0
   40.1891   30.7729   44.0065 N   0  0  0  0  0  0  0  0  0  0  0  0
   39.0175   30.4459   44.4985 N   0  0  0  0  0  0  0  0  0  0  0  0
   37.7868   30.7465   46.6697 C   0  0  0  0  0  0  0  0  0  0  0  0
   38.0069   30.9761   48.0538 C   0  0  0  0  0  0  0  0  0  0  0  0
   36.9229   30.8297   48.9150 C   0  0  0  0  0  0  0  0  0  0  0  0
   35.7182   30.4753   48.3770 N   0  0  0  0  0  0  0  0  0  0  0  0
   35.5396   30.2636   47.0552 C   0  0  0  0  0  0  0  0  0  0  0  0
   36.5812   30.4023   46.2122 N   0  0  0  0  0  0  0  0  0  0  0  0
   37.1317   31.0664   50.3752 C   0  0  0  0  0  0  0  0  0  0  0  0
   36.6039   32.3090   50.6219 F   0  0  0  0  0  0  0  0  0  0  0  0
   36.4538   30.1434   51.1556 F   0  0  0  0  0  0  0  0  0  0  0  0
   38.4769   31.0730   50.7097 F   0  0  0  0  0  0  0  0  0  0  0  0
   40.5516   30.4054   42.6420 C   0  0  0  0  0  0  0  0  0  0  0  0
   40.1870   31.2067   41.5520 C   0  0  0  0  0  0  0  0  0  0  0  0
   40.5451   30.8502   40.2964 C   0  0  0  0  0  0  0  0  0  0  0  0
   41.2911   29.6546   40.1129 C   0  0  0  0  0  0  0  0  0  0  0  0
   41.4659   29.0424   41.8627 S   0  0  0  0  0  0  0  0  0  0  0  0
   40.4078   32.0193   46.9661 H   0  0  0  0  0  0  0  0  0  0  0  0
   41.9400   31.8324   44.7408 H   0  0  0  0  0  0  0  0  0  0  0  0
   39.0006   31.2580   48.4164 H   0  0  0  0  0  0  0  0  0  0  0  0
   34.5898   29.9866   46.6503 H   0  0  0  0  0  0  0  0  0  0  0  0
   39.6141   32.1323   41.6419 H   0  0  0  0  0  0  0  0  0  0  0  0
   40.3768   31.3060   39.3387 H   0  0  0  0  0  0  0  0  0  0  0  0
   41.8862   28.8837   39.0153 C   0  0  0  0  0  0  0  0  0  0  0  0
   41.1605   27.6965   38.6718 N   0  0  0  0  0  4  0  0  0  0  0  0
   41.2099   26.7862   39.7994 C   0  0  0  0  0  0  0  0  0  0  0  0
   41.2981   25.7501   39.4471 H   0  0  0  0  0  0  0  0  0  0  0  0
   39.7723   28.0124   38.3725 C   0  0  0  0  0  0  0  0  0  0  0  0
   39.3802   27.2356   37.7113 H   0  0  0  0  0  0  0  0  0  0  0  0
   42.0067   29.4933   38.0894 H   0  0  0  0  0  0  0  0  0  0  0  0
   42.9219   28.5789   39.2921 H   0  0  0  0  0  0  0  0  0  0  0  0
   41.5811   27.2870   37.8177 H   0  0  0  0  0  0  0  0  0  0  0  0
   40.2783   26.9467   40.3833 H   0  0  0  0  0  0  0  0  0  0  0  0
   42.0998   27.0301   40.4102 H   0  0  0  0  0  0  0  0  0  0  0  0
   39.1673   28.0416   39.2899 H   0  0  0  0  0  0  0  0  0  0  0  0
   39.7713   28.9976   37.8577 H   0  0  0  0  0  0  0  0  0  0  0  0
  1  2  1  0
  1  6  1  0
  3  2  2  0
  4  5  1  0
  4  3  1  0
  5  1  2  0
  6  7  2  0
  7  8  1  0
  8 12  1  0
  9  8  2  0
 10  9  1  0
 11  6  1  0
 11 10  2  0
 12 13  1  0
 12 15  1  0
 12 14  1  0
 16  4  1  0
 17 16  2  0
 18 17  1  0
 19 18  2  0
 19 20  1  0
 20 16  1  0
  2 21  1  0
  3 22  1  0
  7 23  1  0
 10 24  1  0
 17 25  1  0
 18 26  1  0
 27 28  1  0
 28 29  1  0
 29 30  1  0
 28 31  1  0
 31 32  1  0
 27 33  1  0
 27 34  1  0
 28 35  1  0
 29 36  1  0
 29 37  1  0
 31 38  1  0
 31 39  1  0
 19 27  1  0
M  ISO  8  21  14  22  14  23  14  24  14  25  14  26  14  30   8  32   8
M  CHG  1  28   1
M  END
>  <DihAtoms>  (1) 
17,18,26,27

>  <DihDeg>  (1) 
-89.88146616551414

$$$$
