
     RDKit          3D

 28 28  0  0  0  0  0  0  0  0999 V2000
   35.6447   30.4729   49.7457 C   0  0  0  0  0  0  0  0  0  0  0  0
   35.9658   29.4679   50.6781 C   0  0  0  0  0  0  0  0  0  0  0  0
   37.2350   29.5114   51.2577 C   0  0  0  0  0  0  0  0  0  0  0  0
   38.0920   30.5042   50.9039 N   0  0  0  0  0  0  0  0  0  0  0  0
   37.7489   31.4541   50.0035 C   0  0  0  0  0  0  0  0  0  0  0  0
   36.5289   31.4468   49.4197 N   0  0  0  0  0  0  0  0  0  0  0  0
   34.4405   30.5806   49.0806 O   0  0  0  0  0  0  0  0  0  0  0  0
   35.4954   30.1480   46.6417 O   0  0  0  0  0  0  0  0  0  0  0  0
   34.2368   30.0286   47.4644 P   0  0  0  0  0  0  0  0  0  0  0  0
   33.7558   28.3932   47.5810 O   0  0  0  0  0  0  0  0  0  0  0  0
   33.0583   30.9423   46.6804 O   0  0  0  0  0  0  0  0  0  0  0  0
   35.2178   28.7430   50.8774 H   0  0  0  0  0  0  0  0  0  0  0  0
   38.4972   32.2050   49.7843 H   0  0  0  0  0  0  0  0  0  0  0  0
   32.8441   28.3629   47.9577 H   0  0  0  0  0  0  0  0  0  0  0  0
   32.7245   30.4236   45.8894 H   0  0  0  0  0  0  0  0  0  0  0  0
   37.5902   28.4754   52.2306 C   0  0  0  0  0  0  0  0  0  0  0  0
   38.9834   28.1531   52.2723 N   0  0  0  0  0  4  0  0  0  0  0  0
   39.6914   29.0290   53.2082 C   0  0  0  0  0  0  0  0  0  0  0  0
   40.6814   28.6213   53.4601 H   0  0  0  0  0  0  0  0  0  0  0  0
   39.1167   26.8038   52.7912 C   0  0  0  0  0  0  0  0  0  0  0  0
   39.0648   26.0614   51.9516 H   0  0  0  0  0  0  0  0  0  0  0  0
   37.0290   27.5152   52.0462 H   0  0  0  0  0  0  0  0  0  0  0  0
   37.3145   28.8065   53.2687 H   0  0  0  0  0  0  0  0  0  0  0  0
   39.4531   28.2014   51.3403 H   0  0  0  0  0  0  0  0  0  0  0  0
   39.8411   30.0414   52.7824 H   0  0  0  0  0  0  0  0  0  0  0  0
   39.0830   29.0515   54.1305 H   0  0  0  0  0  0  0  0  0  0  0  0
   38.2584   26.6147   53.4614 H   0  0  0  0  0  0  0  0  0  0  0  0
   40.0319   26.6967   53.4080 H   0  0  0  0  0  0  0  0  0  0  0  0
  1  2  2  0
  2  3  1  0
  4  3  2  0
  5  4  1  0
  6  1  1  0
  6  5  2  0
  7  1  1  0
  8  9  2  0
  9 10  1  0
  9  7  1  0
 11  9  1  0
  2 12  1  0
  5 13  1  0
 10 14  1  0
 11 15  1  0
 16 17  1  0
 17 18  1  0
 18 19  1  0
 17 20  1  0
 20 21  1  0
 16 22  1  0
 16 23  1  0
 17 24  1  0
 18 25  1  0
 18 26  1  0
 20 27  1  0
 20 28  1  0
  3 16  1  0
M  CHG  1  17   1
M  END
>  <DihAtoms>  (1) 
1,2,15,16

>  <DihDeg>  (1) 
90.00565075745223

$$$$
