
     RDKit          3D

 50 53  0  0  0  0  0  0  0  0999 V2000
   32.7094   28.2110   47.4349 N   0  0  0  0  0  0  0  0  0  0  0  0
   33.3054   27.7566   48.6442 C   0  0  0  0  0  0  0  0  0  0  0  0
   34.4786   28.5138   49.1391 C   0  0  0  0  0  0  0  0  0  0  0  0
   35.4169   29.0073   48.1313 C   0  0  0  0  0  0  0  0  0  0  0  0
   34.7135   29.4106   46.8208 C   0  0  0  0  0  0  0  0  0  0  0  0
   33.7553   28.2670   46.4519 C   0  0  0  0  0  0  0  0  0  0  0  0
   35.9389   30.7412   49.7824 C   0  0  0  0  0  0  0  0  0  0  0  0
   36.1949   30.2063   48.5314 C   0  0  0  0  0  0  0  0  0  0  0  0
   37.0960   30.7312   47.6439 C   0  0  0  0  0  0  0  0  0  0  0  0
   37.7960   31.8752   48.0269 C   0  0  0  0  0  0  0  0  0  0  0  0
   37.5434   32.4102   49.2693 C   0  0  0  0  0  0  0  0  0  0  0  0
   36.6279   31.8776   50.1736 C   0  0  0  0  0  0  0  0  0  0  0  0
   38.3380   33.5516   49.4723 O   0  0  0  0  0  0  0  0  0  0  0  0
   39.3337   33.4733   48.4568 C   0  0  0  0  0  0  0  0  0  0  0  0
   38.7617   32.6857   47.4377 O   0  0  0  0  0  0  0  0  0  0  0  0
   31.3409   28.5525   47.1974 C   0  0  0  0  0  0  0  0  0  0  0  0
   30.8699   29.3590   46.1669 C   0  0  0  0  0  0  0  0  0  0  0  0
   29.4968   29.5724   46.1013 C   0  0  0  0  0  0  0  0  0  0  0  0
   28.6875   28.9855   47.0423 N   0  0  0  0  0  0  0  0  0  0  0  0
   29.1851   28.2187   48.0139 C   0  0  0  0  0  0  0  0  0  0  0  0
   30.4923   28.0016   48.0955 N   0  0  0  0  0  0  0  0  0  0  0  0
   32.5284   27.7036   49.4576 H   0  0  0  0  0  0  0  0  0  0  0  0
   33.6224   26.6969   48.4810 H   0  0  0  0  0  0  0  0  0  0  0  0
   33.9778   29.4328   49.5919 H   0  0  0  0  0  0  0  0  0  0  0  0
   35.0006   27.9262   49.9138 H   0  0  0  0  0  0  0  0  0  0  0  0
   36.1626   28.2419   47.7823 H   0  0  0  0  0  0  0  0  0  0  0  0
   35.4700   29.5213   46.0243 H   0  0  0  0  0  0  0  0  0  0  0  0
   34.1009   30.2985   47.0110 H   0  0  0  0  0  0  0  0  0  0  0  0
   33.3163   28.5199   45.4514 H   0  0  0  0  0  0  0  0  0  0  0  0
   34.3340   27.3158   46.3486 H   0  0  0  0  0  0  0  0  0  0  0  0
   35.2691   30.4137   50.5632 H   0  0  0  0  0  0  0  0  0  0  0  0
   37.2661   30.2934   46.6944 H   0  0  0  0  0  0  0  0  0  0  0  0
   36.4807   32.3635   51.1514 H   0  0  0  0  0  0  0  0  0  0  0  0
   40.1999   32.9531   48.9280 H   0  0  0  0  0  0  0  0  0  0  0  0
   39.6164   34.4790   48.1255 H   0  0  0  0  0  0  0  0  0  0  0  0
   31.6054   29.7528   45.5037 H   0  0  0  0  0  0  0  0  0  0  0  0
   29.1752   30.2018   45.2895 H   0  0  0  0  0  0  0  0  0  0  0  0
   28.1826   27.6550   48.9551 C   0  0  0  0  0  0  0  0  0  0  0  0
   27.2075   26.8242   48.3216 N   0  0  0  0  0  4  0  0  0  0  0  0
   26.9046   25.7082   49.1997 C   0  0  0  0  0  0  0  0  0  0  0  0
   27.1087   25.9747   50.2631 H   0  0  0  0  0  0  0  0  0  0  0  0
   27.6844   26.2557   47.0665 C   0  0  0  0  0  0  0  0  0  0  0  0
   27.6357   27.0901   46.3245 H   0  0  0  0  0  0  0  0  0  0  0  0
   28.6836   27.1008   49.7617 H   0  0  0  0  0  0  0  0  0  0  0  0
   27.6188   28.4822   49.4654 H   0  0  0  0  0  0  0  0  0  0  0  0
   26.3000   27.3310   48.1662 H   0  0  0  0  0  0  0  0  0  0  0  0
   27.6517   24.8967   48.9572 H   0  0  0  0  0  0  0  0  0  0  0  0
   25.9090   25.2850   49.0417 H   0  0  0  0  0  0  0  0  0  0  0  0
   28.6763   25.8237   47.2072 H   0  0  0  0  0  0  0  0  0  0  0  0
   26.9469   25.4997   46.7258 H   0  0  0  0  0  0  0  0  0  0  0  0
  1  2  1  0
  2  3  1  0
  4  8  1  0
  4  3  1  0
  5  4  1  0
  6  5  1  0
  6  1  1  0
  7 12  2  0
  8  7  1  0
  9 10  1  0
  9  8  2  0
 10 11  2  0
 11 13  1  0
 11 12  1  0
 14 13  1  0
 15 10  1  0
 15 14  1  0
 16  1  1  0
 16 21  1  0
 17 16  2  0
 18 17  1  0
 18 19  2  0
 19 20  1  0
 20 21  2  0
  2 22  1  0
  2 23  1  0
  3 24  1  0
  3 25  1  0
  4 26  1  0
  5 27  1  0
  5 28  1  0
  6 29  1  0
  6 30  1  0
  7 31  1  0
  9 32  1  0
 12 33  1  0
 14 34  1  0
 14 35  1  0
 17 36  1  0
 18 37  1  0
 38 39  1  0
 39 40  1  0
 40 41  1  0
 39 42  1  0
 42 43  1  0
 38 44  1  0
 38 45  1  0
 39 46  1  0
 40 47  1  0
 40 48  1  0
 42 49  1  0
 42 50  1  0
 20 38  1  0
M  CHG  1  39   1
M  END
>  <DihAtoms>  (1) 
18,19,37,38

>  <DihDeg>  (1) 
-90.00381620386952

$$$$
