
     RDKit          3D

 35 36  0  0  0  0  0  0  0  0999 V2000
   35.3690   29.3185   50.4372 C   0  0  0  0  0  0  0  0  0  0  0  0
   36.3143   30.1592   49.7853 C   0  0  0  0  0  0  0  0  0  0  0  0
   36.2997   30.2217   48.3937 C   0  0  0  0  0  0  0  0  0  0  0  0
   35.3760   29.4705   47.7241 N   0  0  0  0  0  0  0  0  0  0  0  0
   34.5009   28.6913   48.3416 C   0  0  0  0  0  0  0  0  0  0  0  0
   34.4881   28.6081   49.6866 N   0  0  0  0  0  0  0  0  0  0  0  0
   32.7434   30.2964   46.4827 Cl  0  0  0  0  0  0  0  0  0  0  0  0
   32.6817   28.5528   46.6716 C   0  0  0  0  0  0  0  0  0  0  0  0
   33.5428   27.9170   47.5608 C   0  0  0  0  0  0  0  0  0  0  0  0
   33.5225   26.5241   47.7391 C   0  0  0  0  0  0  0  0  0  0  0  0
   32.6053   25.8060   46.9896 C   0  0  0  0  0  0  0  0  0  0  0  0
   31.7398   26.4128   46.1005 C   0  0  0  0  0  0  0  0  0  0  0  0
   30.6202   25.4285   45.2024 Cl  0  0  0  0  0  0  0  0  0  0  0  0
   31.7888   27.8017   45.9494 C   0  0  0  0  0  0  0  0  0  0  0  0
   37.2714   30.9296   50.6361 C   0  0  0  0  0  0  0  0  0  0  0  0
   38.5841   30.7765   50.1298 F   0  0  0  0  0  0  0  0  0  0  0  0
   36.9496   32.2547   50.5616 F   0  0  0  0  0  0  0  0  0  0  0  0
   37.2722   30.5116   51.9538 F   0  0  0  0  0  0  0  0  0  0  0  0
   35.3533   29.2473   51.5184 H   0  0  0  0  0  0  0  0  0  0  0  0
   37.0162   30.8592   47.8973 H   0  0  0  0  0  0  0  0  0  0  0  0
   34.2108   26.0741   48.4416 H   0  0  0  0  0  0  0  0  0  0  0  0
   32.6386   24.7525   47.1695 H   0  0  0  0  0  0  0  0  0  0  0  0
   30.8518   28.4241   44.9915 C   0  0  0  0  0  0  0  0  0  0  0  0
   29.9678   27.5168   44.3313 N   0  0  0  0  0  4  0  0  0  0  0  0
   29.0415   26.8938   45.2482 C   0  0  0  0  0  0  0  0  0  0  0  0
   28.3985   27.6743   45.6947 H   0  0  0  0  0  0  0  0  0  0  0  0
   29.2269   28.3194   43.3491 C   0  0  0  0  0  0  0  0  0  0  0  0
   29.9617   28.6409   42.5715 H   0  0  0  0  0  0  0  0  0  0  0  0
   30.2135   29.2047   45.4739 H   0  0  0  0  0  0  0  0  0  0  0  0
   31.3911   28.9885   44.1854 H   0  0  0  0  0  0  0  0  0  0  0  0
   30.4581   26.7839   43.7673 H   0  0  0  0  0  0  0  0  0  0  0  0
   28.3793   26.1871   44.7291 H   0  0  0  0  0  0  0  0  0  0  0  0
   29.6158   26.4165   46.0692 H   0  0  0  0  0  0  0  0  0  0  0  0
   28.9323   29.2610   43.8936 H   0  0  0  0  0  0  0  0  0  0  0  0
   28.3618   27.7966   42.9272 H   0  0  0  0  0  0  0  0  0  0  0  0
  2  1  2  0
  2 15  1  0
  3  2  1  0
  4  5  1  0
  4  3  2  0
  5  6  2  0
  6  1  1  0
  7  8  1  0
  8  9  2  0
  9 10  1  0
  9  5  1  0
 11 10  2  0
 12 11  1  0
 13 12  1  0
 14 12  2  0
 14  8  1  0
 15 18  1  0
 16 15  1  0
 17 15  1  0
  1 19  1  0
  3 20  1  0
 10 21  1  0
 11 22  1  0
 23 24  1  0
 24 25  1  0
 25 26  1  0
 24 27  1  0
 27 28  1  0
 23 29  1  0
 23 30  1  0
 24 31  1  0
 25 32  1  0
 25 33  1  0
 27 34  1  0
 27 35  1  0
 14 23  1  0
M  CHG  1  24   1
M  END
>  <DihAtoms>  (1) 
11,13,22,23

>  <DihDeg>  (1) 
-103.96698592913071

$$$$
