
     RDKit          3D

 34 35  0  0  0  0  0  0  0  0999 V2000
   34.9463   28.7974   48.6862 C   0  0  0  0  0  0  0  0  0  0  0  0
   34.6018   27.8550   49.4888 O   0  0  0  0  0  0  0  0  0  0  0  0
   33.0064   30.5887   46.2098 C   0  0  0  0  0  0  0  0  0  0  0  0
   32.8195   29.6474   45.1813 C   0  0  0  0  0  0  0  0  0  0  0  0
   33.3597   28.3725   45.3450 C   0  0  0  0  0  0  0  0  0  0  0  0
   34.0511   28.0681   46.4862 N   0  0  0  0  0  0  0  0  0  0  0  0
   34.2084   28.9959   47.4448 C   0  0  0  0  0  0  0  0  0  0  0  0
   33.6866   30.2058   47.2749 N   0  0  0  0  0  0  0  0  0  0  0  0
   36.0830   29.5879   49.1357 C   0  0  0  0  0  0  0  0  0  0  0  0
   36.2690   29.7149   50.5125 C   0  0  0  0  0  0  0  0  0  0  0  0
   37.3373   30.4320   51.0576 C   0  0  0  0  0  0  0  0  0  0  0  0
   38.2415   31.0350   50.1674 C   0  0  0  0  0  0  0  0  0  0  0  0
   38.0383   30.8964   48.8147 C   0  0  0  0  0  0  0  0  0  0  0  0
   36.9791   30.1882   48.2702 C   0  0  0  0  0  0  0  0  0  0  0  0
   32.5685   31.5501   46.0237 H   0  0  0  0  0  0  0  0  0  0  0  0
   32.2917   29.7939   44.2477 H   0  0  0  0  0  0  0  0  0  0  0  0
   33.2819   27.5604   44.6258 H   0  0  0  0  0  0  0  0  0  0  0  0
   35.5503   29.2329   51.1871 H   0  0  0  0  0  0  0  0  0  0  0  0
   37.4038   30.4755   52.1179 H   0  0  0  0  0  0  0  0  0  0  0  0
   39.0239   31.5574   50.6962 H   0  0  0  0  0  0  0  0  0  0  0  0
   38.8399   31.4158   48.3104 H   0  0  0  0  0  0  0  0  0  0  0  0
   36.8556   30.1382   46.8258 C   0  0  0  0  0  0  0  0  0  0  0  0
   37.3884   31.3339   46.1441 N   0  0  0  0  0  4  0  0  0  0  0  0
   37.4392   30.8990   44.7300 C   0  0  0  0  0  0  0  0  0  0  0  0
   36.4020   31.0640   44.3081 H   0  0  0  0  0  0  0  0  0  0  0  0
   36.4745   32.4404   46.1511 C   0  0  0  0  0  0  0  0  0  0  0  0
   37.0846   33.3864   46.2799 H   0  0  0  0  0  0  0  0  0  0  0  0
   37.4114   29.3107   46.4172 H   0  0  0  0  0  0  0  0  0  0  0  0
   35.7811   30.2032   46.4716 H   0  0  0  0  0  0  0  0  0  0  0  0
   38.3550   31.5494   46.3936 H   0  0  0  0  0  0  0  0  0  0  0  0
   38.0903   31.5591   44.1349 H   0  0  0  0  0  0  0  0  0  0  0  0
   37.6232   29.8282   44.6254 H   0  0  0  0  0  0  0  0  0  0  0  0
   35.9617   32.6087   45.1583 H   0  0  0  0  0  0  0  0  0  0  0  0
   35.6433   32.3718   46.8671 H   0  0  0  0  0  0  0  0  0  0  0  0
  1  9  1  0
  1  2  2  0
  3  8  2  0
  4  5  2  0
  4  3  1  0
  5  6  1  0
  6  7  2  0
  7  1  1  0
  8  7  1  0
  9 10  2  0
 10 11  1  0
 12 11  2  0
 13 12  1  0
 14 13  2  0
 14  9  1  0
  3 15  1  0
  4 16  1  0
  5 17  1  0
 10 18  1  0
 11 19  1  0
 12 20  1  0
 13 21  1  0
 22 23  1  0
 23 24  1  0
 24 25  1  0
 23 26  1  0
 26 27  1  0
 22 28  1  0
 22 29  1  0
 23 30  1  0
 24 31  1  0
 24 32  1  0
 26 33  1  0
 26 34  1  0
 14 22  1  0
M  ISO  8  15  14  16  14  17  14  18  14  19  14  20  14  21  14  25   8
M  CHG  1  23   1
M  ISO  1  27   8
M  END
>  <DihAtoms>  (1) 
12,13,21,22

>  <DihDeg>  (1) 
15.038755590059997

$$$$
