
     RDKit          3D

 47 50  0  0  0  0  0  0  0  0999 V2000
   36.9309   31.3490   49.3454 C   0  0  0  0  0  0  0  0  0  0  0  0
   37.1694   32.5193   50.0292 C   0  0  0  0  0  0  0  0  0  0  0  0
   38.0992   33.3803   49.4341 C   0  0  0  0  0  0  0  0  0  0  0  0
   38.7037   33.0444   48.2583 N   0  0  0  0  0  0  0  0  0  0  0  0
   38.4454   31.8834   47.6118 C   0  0  0  0  0  0  0  0  0  0  0  0
   37.5451   31.0335   48.1733 N   0  0  0  0  0  0  0  0  0  0  0  0
   40.0319   32.4201   45.8502 C   0  0  0  0  0  0  0  0  0  0  0  0
   39.1039   31.5337   46.3529 C   0  0  0  0  0  0  0  0  0  0  0  0
   38.8275   30.3621   45.6637 C   0  0  0  0  0  0  0  0  0  0  0  0
   39.4425   30.0237   44.4742 C   0  0  0  0  0  0  0  0  0  0  0  0
   39.3649   28.9839   43.6267 N   0  0  0  0  0  0  0  0  0  0  0  0
   40.2350   29.2465   42.6310 C   0  0  0  0  0  0  0  0  0  0  0  0
   40.8451   30.4209   42.8448 N   0  0  0  0  0  0  0  0  0  0  0  0
   40.3757   30.9441   43.9952 C   0  0  0  0  0  0  0  0  0  0  0  0
   40.6730   32.1221   44.6610 C   0  0  0  0  0  0  0  0  0  0  0  0
   35.9437   30.3822   49.9585 C   0  0  1  0  0  0  0  0  0  0  0  0
   34.7892   29.9234   49.2234 C   0  0  2  0  0  0  0  0  0  0  0  0
   36.0279   29.0022   49.3153 C   0  0  0  0  0  0  0  0  0  0  0  0
   34.5600   30.4015   47.9781 O   0  0  0  0  0  0  0  0  0  0  0  0
   33.8042   30.1070   46.9257 C   0  0  0  0  0  0  0  0  0  0  0  0
   34.0172   28.9642   46.4121 O   0  0  0  0  0  0  0  0  0  0  0  0
   32.9066   31.0744   46.5451 N   0  0  0  0  0  0  0  0  0  0  0  0
   36.7227   32.8201   50.9447 H   0  0  0  0  0  0  0  0  0  0  0  0
   38.3476   34.3262   49.9055 H   0  0  0  0  0  0  0  0  0  0  0  0
   40.2866   33.3444   46.3419 H   0  0  0  0  0  0  0  0  0  0  0  0
   38.0937   29.6795   46.0788 H   0  0  0  0  0  0  0  0  0  0  0  0
   38.7216   28.1711   43.7930 H   0  0  0  0  0  0  0  0  0  0  0  0
   40.4035   28.5931   41.7895 H   0  0  0  0  0  0  0  0  0  0  0  0
   41.4141   32.7900   44.2227 H   0  0  0  0  0  0  0  0  0  0  0  0
   35.8724   30.4932   51.0653 H   0  0  0  0  0  0  0  0  0  0  0  0
   34.0238   29.2360   49.7318 H   0  0  0  0  0  0  0  0  0  0  0  0
   36.5557   28.8954   48.3704 H   0  0  0  0  0  0  0  0  0  0  0  0
   31.8945   31.1831   46.7919 H   0  0  0  0  0  0  0  0  0  0  0  0
   33.1203   31.8859   45.9186 H   0  0  0  0  0  0  0  0  0  0  0  0
   36.1131   27.9065   50.3151 C   0  0  0  0  0  0  0  0  0  0  0  0
   36.1946   26.5872   49.7752 N   0  0  0  0  0  4  0  0  0  0  0  0
   36.5489   26.4990   48.3892 C   0  0  0  0  0  0  0  0  0  0  0  0
   36.7498   25.4160   48.1882 H   0  0  0  0  0  0  0  0  0  0  0  0
   37.1497   25.8070   50.5408 C   0  0  0  0  0  0  0  0  0  0  0  0
   38.1045   25.6667   49.9591 H   0  0  0  0  0  0  0  0  0  0  0  0
   35.2887   27.9666   51.0553 H   0  0  0  0  0  0  0  0  0  0  0  0
   37.0413   28.1016   50.9266 H   0  0  0  0  0  0  0  0  0  0  0  0
   35.2775   26.0999   49.8973 H   0  0  0  0  0  0  0  0  0  0  0  0
   35.6509   26.7186   47.7425 H   0  0  0  0  0  0  0  0  0  0  0  0
   37.4371   27.0539   48.0929 H   0  0  0  0  0  0  0  0  0  0  0  0
   37.4437   26.3247   51.4751 H   0  0  0  0  0  0  0  0  0  0  0  0
   36.7609   24.7707   50.7609 H   0  0  0  0  0  0  0  0  0  0  0  0
  1 16  1  0
  1  2  2  0
  3  2  1  0
  4  3  2  0
  5  6  2  0
  5  4  1  0
  6  1  1  0
  7  8  2  0
  8  5  1  0
  9  8  1  0
 10  9  2  0
 11 10  1  0
 12 13  2  0
 12 11  1  0
 13 14  1  0
 14 10  1  0
 14 15  2  0
 15  7  1  0
 17 18  1  0
 17 16  1  0
 18 16  1  0
 19 17  1  0
 20 19  1  0
 21 20  2  0
 22 20  1  0
  2 23  1  0
  3 24  1  0
  7 25  1  0
  9 26  1  0
 11 27  1  0
 12 28  1  0
 15 29  1  0
 16 30  1  1
 17 31  1  1
 18 32  1  0
 22 33  1  0
 22 34  1  0
 35 36  1  0
 36 37  1  0
 37 38  1  0
 36 39  1  0
 39 40  1  0
 35 41  1  0
 35 42  1  0
 36 43  1  0
 37 44  1  0
 37 45  1  0
 39 46  1  0
 39 47  1  0
 18 35  1  0
M  ISO  8  23  14  24  14  25  14  26  14  27   9  28  14  29  14  30  13
M  CHG  1  36   1
M  ISO  4  31  13  32  13  38   8  40   8
M  END
>  <DihAtoms>  (1) 
16,17,34,35

>  <DihDeg>  (1) 
116.91104223132174

$$$$
