
     RDKit          3D

 34 35  0  0  0  0  0  0  0  0999 V2000
   38.8767   31.8844   47.7739 C   0  0  0  0  0  0  0  0  0  0  0  0
   38.3574   32.1183   49.0181 C   0  0  0  0  0  0  0  0  0  0  0  0
   38.6864   33.3631   49.5496 C   0  0  0  0  0  0  0  0  0  0  0  0
   39.4761   34.2867   48.8683 C   0  0  0  0  0  0  0  0  0  0  0  0
   39.9568   33.9560   47.6086 C   0  0  0  0  0  0  0  0  0  0  0  0
   39.6535   32.7317   47.0467 C   0  0  0  0  0  0  0  0  0  0  0  0
   36.2113   30.9835   49.3755 C   0  0  0  0  0  0  0  0  0  0  0  0
   37.5439   31.1875   49.7308 C   0  0  0  0  0  0  0  0  0  0  0  0
   38.0210   30.4421   50.8083 C   0  0  0  0  0  0  0  0  0  0  0  0
   37.1775   29.5759   51.4395 N   0  0  0  0  0  0  0  0  0  0  0  0
   35.8870   29.4173   51.0501 C   0  0  0  0  0  0  0  0  0  0  0  0
   35.4006   30.1311   50.0050 N   0  0  0  0  0  0  0  0  0  0  0  0
   38.6022   30.6511   47.1452 O   0  0  0  0  0  0  0  0  0  0  0  0
   40.1485   32.4261   45.7824 O   0  0  0  0  0  0  0  0  0  0  0  0
   38.3363   33.6612   50.5235 H   0  0  0  0  0  0  0  0  0  0  0  0
   39.7378   35.2553   49.2680 H   0  0  0  0  0  0  0  0  0  0  0  0
   40.5750   34.6322   47.0323 H   0  0  0  0  0  0  0  0  0  0  0  0
   35.8233   31.5541   48.5426 H   0  0  0  0  0  0  0  0  0  0  0  0
   35.3616   28.6931   51.6576 H   0  0  0  0  0  0  0  0  0  0  0  0
   37.8690   30.7041   46.4298 H   0  0  0  0  0  0  0  0  0  0  0  0
   39.5713   32.3909   44.9638 H   0  0  0  0  0  0  0  0  0  0  0  0
   39.4033   30.5542   51.2733 C   0  0  0  0  0  0  0  0  0  0  0  0
   39.5856   31.0502   52.5982 N   0  0  0  0  0  4  0  0  0  0  0  0
   40.8491   31.8099   52.6245 C   0  0  0  0  0  0  0  0  0  0  0  0
   41.6547   31.0499   52.7622 H   0  0  0  0  0  0  0  0  0  0  0  0
   38.5002   31.9123   53.0346 C   0  0  0  0  0  0  0  0  0  0  0  0
   38.5862   32.1648   54.1116 H   0  0  0  0  0  0  0  0  0  0  0  0
   39.9035   29.5624   51.2225 H   0  0  0  0  0  0  0  0  0  0  0  0
   39.9722   31.1879   50.5278 H   0  0  0  0  0  0  0  0  0  0  0  0
   39.6928   30.2998   53.3121 H   0  0  0  0  0  0  0  0  0  0  0  0
   41.0536   32.2844   51.6292 H   0  0  0  0  0  0  0  0  0  0  0  0
   40.8915   32.5007   53.4690 H   0  0  0  0  0  0  0  0  0  0  0  0
   38.6696   32.8846   52.4820 H   0  0  0  0  0  0  0  0  0  0  0  0
   37.5151   31.4774   52.8678 H   0  0  0  0  0  0  0  0  0  0  0  0
  1  2  2  0
  2  3  1  0
  2  8  1  0
  4  3  2  0
  5  4  1  0
  6  5  2  0
  6  1  1  0
  7  8  2  0
  7 12  1  0
  8  9  1  0
  9 10  2  0
 11 10  1  0
 12 11  2  0
 13  1  1  0
 14  6  1  0
  3 15  1  0
  4 16  1  0
  5 17  1  0
  7 18  1  0
 11 19  1  0
 13 20  1  0
 14 21  1  0
 22 23  1  0
 23 24  1  0
 24 25  1  0
 23 26  1  0
 26 27  1  0
 22 28  1  0
 22 29  1  0
 23 30  1  0
 24 31  1  0
 24 32  1  0
 26 33  1  0
 26 34  1  0
  9 22  1  0
M  ISO  8  15  14  16  14  17  14  18  14  19  14  20   3  21   3  25   8
M  CHG  1  23   1
M  ISO  1  27   8
M  END
>  <DihAtoms>  (1) 
7,8,21,22

>  <DihDeg>  (1) 
-78.32424152386915

$$$$
