
     RDKit          3D

 51 54  0  0  0  0  0  0  0  0999 V2000
   34.3378   29.7727   46.0822 N   0  0  0  0  0  0  0  0  0  0  0  0
   33.0176   29.9681   45.5241 C   0  0  0  0  0  0  0  0  0  0  0  0
   32.9889   29.8237   44.0397 C   0  0  0  0  0  0  0  0  0  0  0  0
   34.0686   28.9741   43.6041 N   0  0  0  0  0  0  0  0  0  0  0  0
   35.3140   29.7176   43.8219 C   0  0  0  0  0  0  0  0  0  0  0  0
   35.5984   29.6275   45.2783 C   0  0  1  0  0  0  0  0  0  0  0  0
   37.2344   31.5337   44.8955 C   0  0  0  0  0  0  0  0  0  0  0  0
   36.6356   30.5583   45.7312 C   0  0  0  0  0  0  0  0  0  0  0  0
   36.9652   30.4859   47.0600 C   0  0  0  0  0  0  0  0  0  0  0  0
   37.8798   31.3881   47.5447 C   0  0  0  0  0  0  0  0  0  0  0  0
   38.4820   32.3704   46.6929 C   0  0  0  0  0  0  0  0  0  0  0  0
   38.1621   32.4617   45.3207 C   0  0  0  0  0  0  0  0  0  0  0  0
   39.3900   33.1713   47.4252 O   0  0  0  0  0  0  0  0  0  0  0  0
   39.0536   32.9758   48.7683 C   0  0  0  0  0  0  0  0  0  0  0  0
   38.4556   31.6592   48.7815 O   0  0  0  0  0  0  0  0  0  0  0  0
   34.6820   28.3944   48.0743 C   0  0  0  0  0  0  0  0  0  0  0  0
   34.4459   29.6766   47.4927 C   0  0  0  0  0  0  0  0  0  0  0  0
   34.3886   30.7343   48.3368 C   0  0  0  0  0  0  0  0  0  0  0  0
   34.5627   30.5004   49.6904 N   0  0  0  0  0  0  0  0  0  0  0  0
   34.7815   29.3009   50.1891 C   0  0  0  0  0  0  0  0  0  0  0  0
   34.8449   28.2396   49.4087 N   0  0  0  0  0  0  0  0  0  0  0  0
   34.9527   29.1744   51.5967 N   0  0  0  0  0  0  0  0  0  0  0  0
   32.5215   30.8971   45.7808 H   0  0  0  0  0  0  0  0  0  0  0  0
   32.4129   29.1294   45.9399 H   0  0  0  0  0  0  0  0  0  0  0  0
   31.9984   29.3815   43.7441 H   0  0  0  0  0  0  0  0  0  0  0  0
   33.0519   30.7958   43.5135 H   0  0  0  0  0  0  0  0  0  0  0  0
   33.9802   28.6739   42.6192 H   0  0  0  0  0  0  0  0  0  0  0  0
   35.1014   30.7370   43.4855 H   0  0  0  0  0  0  0  0  0  0  0  0
   36.0991   29.2058   43.2388 H   0  0  0  0  0  0  0  0  0  0  0  0
   35.9546   28.6037   45.5352 H   0  0  0  0  0  0  0  0  0  0  0  0
   36.9330   31.5286   43.8587 H   0  0  0  0  0  0  0  0  0  0  0  0
   36.7530   29.8465   47.8773 H   0  0  0  0  0  0  0  0  0  0  0  0
   38.6120   33.1831   44.6723 H   0  0  0  0  0  0  0  0  0  0  0  0
   38.1916   33.6442   49.0204 H   0  0  0  0  0  0  0  0  0  0  0  0
   39.8543   33.0852   49.4946 H   0  0  0  0  0  0  0  0  0  0  0  0
   34.7259   27.5216   47.4382 H   0  0  0  0  0  0  0  0  0  0  0  0
   35.6793   28.5398   51.9908 H   0  0  0  0  0  0  0  0  0  0  0  0
   34.3016   29.7583   52.1972 H   0  0  0  0  0  0  0  0  0  0  0  0
   34.1019   32.1370   48.0646 C   0  0  0  0  0  0  0  0  0  0  0  0
   34.8092   33.1102   48.8437 N   0  0  0  0  0  4  0  0  0  0  0  0
   35.5462   32.6424   49.9649 C   0  0  0  0  0  0  0  0  0  0  0  0
   35.4667   33.4581   50.7498 H   0  0  0  0  0  0  0  0  0  0  0  0
   35.8649   33.6533   47.9153 C   0  0  0  0  0  0  0  0  0  0  0  0
   36.2445   34.5721   48.3728 H   0  0  0  0  0  0  0  0  0  0  0  0
   34.2953   32.3382   46.9941 H   0  0  0  0  0  0  0  0  0  0  0  0
   32.9806   32.3181   48.1291 H   0  0  0  0  0  0  0  0  0  0  0  0
   34.1991   33.9371   49.0073 H   0  0  0  0  0  0  0  0  0  0  0  0
   36.6679   32.6055   49.7932 H   0  0  0  0  0  0  0  0  0  0  0  0
   35.2605   31.6886   50.3978 H   0  0  0  0  0  0  0  0  0  0  0  0
   35.4087   33.8574   46.9145 H   0  0  0  0  0  0  0  0  0  0  0  0
   36.6517   32.8870   47.8599 H   0  0  0  0  0  0  0  0  0  0  0  0
  1 17  1  0
  2  1  1  0
  3  2  1  0
  4  5  1  0
  4  3  1  0
  5  6  1  0
  6  8  1  0
  6  1  1  0
  7 12  2  0
  7  8  1  0
  8  9  2  0
  9 10  1  0
 10 15  1  0
 11 13  1  0
 11 10  2  0
 12 11  1  0
 13 14  1  0
 14 15  1  0
 16 21  2  0
 17 16  1  0
 17 18  2  0
 18 19  1  0
 19 20  2  0
 20 22  1  0
 21 20  1  0
  2 23  1  0
  2 24  1  0
  3 25  1  0
  3 26  1  0
  4 27  1  0
  5 28  1  0
  5 29  1  0
  6 30  1  6
  7 31  1  0
  9 32  1  0
 12 33  1  0
 14 34  1  0
 14 35  1  0
 16 36  1  0
 22 37  1  0
 22 38  1  0
 39 40  1  0
 40 41  1  0
 41 42  1  0
 40 43  1  0
 43 44  1  0
 39 45  1  0
 39 46  1  0
 40 47  1  0
 41 48  1  0
 41 49  1  0
 43 50  1  0
 43 51  1  0
 18 39  1  0
M  ISO  8  23  13  24  13  25  13  26  13  27   5  28  13  29  13  30  13
M  ISO  8  31  14  32  14  33  14  34  13  35  13  36  14  42   8  44   8
M  CHG  1  40   1
M  END
>  <DihAtoms>  (1) 
16,17,38,39

>  <DihDeg>  (1) 
95.4409512783496

$$$$
