
     RDKit          3D

 46 48  0  0  0  0  0  0  0  0999 V2000
   32.1665   28.5279   47.4342 C   0  0  2  0  0  0  0  0  0  0  0  0
   33.4110   28.3689   48.2535 C   0  0  1  0  0  0  0  0  0  0  0  0
   33.8001   27.0544   48.1692 O   0  0  0  0  0  0  0  0  0  0  0  0
   33.1064   26.4387   47.1313 C   0  0  0  0  0  0  0  0  0  0  0  0
   32.5055   27.5255   46.2773 C   0  0  1  0  0  0  0  0  0  0  0  0
   32.0908   29.8290   46.9060 O   0  0  0  0  0  0  0  0  0  0  0  0
   34.7241   29.3998   47.5013 S   0  0  0  0  0  0  0  0  0  0  0  0
   37.1255   29.3080   50.6373 C   0  0  0  0  0  0  0  0  0  0  0  0
   37.6335   30.5835   50.7524 C   0  0  0  0  0  0  0  0  0  0  0  0
   37.2175   31.5332   49.8153 C   0  0  0  0  0  0  0  0  0  0  0  0
   36.3465   31.1537   48.8534 N   0  0  0  0  0  0  0  0  0  0  0  0
   35.8686   29.8919   48.7713 C   0  0  0  0  0  0  0  0  0  0  0  0
   36.2571   28.9502   49.6693 N   0  0  0  0  0  0  0  0  0  0  0  0
   31.3638   27.0556   45.6877 O   0  0  0  0  0  0  0  0  0  0  0  0
   29.8765   29.1286   44.2245 Cl  0  0  0  0  0  0  0  0  0  0  0  0
   29.3407   28.1199   45.5422 C   0  0  0  0  0  0  0  0  0  0  0  0
   30.1254   27.1733   46.1577 C   0  0  0  0  0  0  0  0  0  0  0  0
   29.5644   26.4283   47.1929 C   0  0  0  0  0  0  0  0  0  0  0  0
   28.2604   26.6344   47.5886 C   0  0  0  0  0  0  0  0  0  0  0  0
   27.4617   27.5783   46.9782 C   0  0  0  0  0  0  0  0  0  0  0  0
   28.0262   28.3251   45.9374 C   0  0  0  0  0  0  0  0  0  0  0  0
   31.2543   28.1680   47.8903 H   0  0  0  0  0  0  0  0  0  0  0  0
   33.2450   28.7072   49.2976 H   0  0  0  0  0  0  0  0  0  0  0  0
   33.9202   25.9777   46.4799 H   0  0  0  0  0  0  0  0  0  0  0  0
   32.4396   25.6824   47.5033 H   0  0  0  0  0  0  0  0  0  0  0  0
   33.2133   28.0764   45.6590 H   0  0  0  0  0  0  0  0  0  0  0  0
   31.1290   30.0574   46.7923 H   0  0  0  0  0  0  0  0  0  0  0  0
   37.4915   28.5954   51.4009 H   0  0  0  0  0  0  0  0  0  0  0  0
   38.3303   30.9512   51.4884 H   0  0  0  0  0  0  0  0  0  0  0  0
   37.5031   32.5802   49.7416 H   0  0  0  0  0  0  0  0  0  0  0  0
   30.1195   25.6691   47.7165 H   0  0  0  0  0  0  0  0  0  0  0  0
   27.8538   26.0411   48.3955 H   0  0  0  0  0  0  0  0  0  0  0  0
   26.4649   27.7026   47.3267 H   0  0  0  0  0  0  0  0  0  0  0  0
   27.0983   29.3119   45.3289 C   0  0  0  0  0  0  0  0  0  0  0  0
   25.8958   29.5721   46.0348 N   0  0  0  0  0  4  0  0  0  0  0  0
   25.8147   30.9352   46.4966 C   0  0  0  0  0  0  0  0  0  0  0  0
   24.9231   31.1060   47.1466 H   0  0  0  0  0  0  0  0  0  0  0  0
   24.8226   29.4462   45.0248 C   0  0  0  0  0  0  0  0  0  0  0  0
   23.9169   29.8444   45.4618 H   0  0  0  0  0  0  0  0  0  0  0  0
   26.9633   29.1308   44.2322 H   0  0  0  0  0  0  0  0  0  0  0  0
   27.6961   30.2972   45.3242 H   0  0  0  0  0  0  0  0  0  0  0  0
   25.6877   28.9546   46.8513 H   0  0  0  0  0  0  0  0  0  0  0  0
   25.7519   31.6336   45.6364 H   0  0  0  0  0  0  0  0  0  0  0  0
   26.7358   31.2088   47.0619 H   0  0  0  0  0  0  0  0  0  0  0  0
   25.1536   30.1311   44.1879 H   0  0  0  0  0  0  0  0  0  0  0  0
   24.7650   28.4416   44.5926 H   0  0  0  0  0  0  0  0  0  0  0  0
  1  2  1  0
  3  2  1  0
  4  3  1  0
  5  4  1  0
  5  1  1  0
  6  1  1  0
  7  2  1  0
  7 12  1  0
  8  9  2  0
 10  9  1  0
 11 10  2  0
 12 11  1  0
 12 13  2  0
 13  8  1  0
 14 17  1  0
 14  5  1  0
 15 16  1  0
 16 21  2  0
 16 17  1  0
 17 18  2  0
 18 19  1  0
 20 19  2  0
 21 20  1  0
  1 22  1  1
  2 23  1  1
  4 24  1  0
  4 25  1  0
  5 26  1  6
  6 27  1  0
  8 28  1  0
  9 29  1  0
 10 30  1  0
 18 31  1  0
 19 32  1  0
 20 33  1  0
 34 35  1  0
 35 36  1  0
 36 37  1  0
 35 38  1  0
 38 39  1  0
 34 40  1  0
 34 41  1  0
 35 42  1  0
 36 43  1  0
 36 44  1  0
 38 45  1  0
 38 46  1  0
 21 34  1  0
M  ISO  8  22  13  23  13  24  13  25  13  26  13  27   3  28  14  29  14
M  CHG  1  35   1
M  ISO  6  30  14  31  14  32  14  33  14  37   8  39   8
M  END
>  <DihAtoms>  (1) 
15,20,33,34

>  <DihDeg>  (1) 
-137.44037298833155

$$$$
