
     RDKit          3D

 39 40  0  0  0  0  0  0  0  0999 V2000
   39.5096   32.8388   46.3889 N   0  0  0  0  0  0  0  0  0  0  0  0
   38.1973   32.3226   46.1371 C   0  0  1  0  0  0  0  0  0  0  0  0
   37.8755   32.3829   44.6683 C   0  0  0  0  0  0  0  0  0  0  0  0
   38.8784   31.5911   43.9670 N   0  0  0  0  0  0  0  0  0  0  0  0
   40.1378   32.3521   44.1009 C   0  0  0  0  0  0  0  0  0  0  0  0
   40.5301   32.2380   45.5623 C   0  0  2  0  0  0  0  0  0  0  0  0
   40.7836   30.8621   45.8802 N   0  0  0  0  0  0  0  0  0  0  0  0
   38.0730   30.5528   46.6007 S   0  0  0  0  0  0  0  0  0  0  0  0
   37.8739   30.8961   50.6527 C   0  0  0  0  0  0  0  0  0  0  0  0
   38.2904   31.0695   49.3332 C   0  0  0  0  0  0  0  0  0  0  0  0
   37.6409   30.4165   48.3204 C   0  0  0  0  0  0  0  0  0  0  0  0
   36.5895   29.6085   48.6796 N   0  0  0  0  0  0  0  0  0  0  0  0
   36.2066   29.4539   49.9318 C   0  0  0  0  0  0  0  0  0  0  0  0
   36.8504   30.1009   50.9340 N   0  0  0  0  0  0  0  0  0  0  0  0
   39.5051   33.8419   46.1810 H   0  0  0  0  0  0  0  0  0  0  0  0
   37.4815   32.8974   46.7365 H   0  0  0  0  0  0  0  0  0  0  0  0
   37.9797   33.4388   44.3629 H   0  0  0  0  0  0  0  0  0  0  0  0
   36.8475   32.0231   44.4693 H   0  0  0  0  0  0  0  0  0  0  0  0
   38.6421   31.4569   42.9629 H   0  0  0  0  0  0  0  0  0  0  0  0
   39.9816   33.4339   43.8899 H   0  0  0  0  0  0  0  0  0  0  0  0
   40.9157   31.9511   43.4456 H   0  0  0  0  0  0  0  0  0  0  0  0
   41.4472   32.8757   45.6639 H   0  0  0  0  0  0  0  0  0  0  0  0
   41.7746   30.7976   46.2094 H   0  0  0  0  0  0  0  0  0  0  0  0
   40.6944   30.2541   45.0366 H   0  0  0  0  0  0  0  0  0  0  0  0
   38.4694   31.4657   51.3483 H   0  0  0  0  0  0  0  0  0  0  0  0
   39.1203   31.7023   49.0091 H   0  0  0  0  0  0  0  0  0  0  0  0
   35.0518   28.5570   50.2513 C   0  0  0  0  0  0  0  0  0  0  0  0
   35.3437   27.1712   50.1723 N   0  0  0  0  0  4  0  0  0  0  0  0
   34.3502   26.5268   49.3345 C   0  0  0  0  0  0  0  0  0  0  0  0
   34.6759   26.5994   48.2559 H   0  0  0  0  0  0  0  0  0  0  0  0
   36.6889   26.8643   49.7476 C   0  0  0  0  0  0  0  0  0  0  0  0
   37.3999   27.3643   50.4358 H   0  0  0  0  0  0  0  0  0  0  0  0
   34.7102   28.8428   51.2754 H   0  0  0  0  0  0  0  0  0  0  0  0
   34.2093   28.8602   49.5641 H   0  0  0  0  0  0  0  0  0  0  0  0
   35.2235   26.7265   51.1236 H   0  0  0  0  0  0  0  0  0  0  0  0
   34.1892   25.4681   49.6235 H   0  0  0  0  0  0  0  0  0  0  0  0
   33.4190   27.1246   49.4128 H   0  0  0  0  0  0  0  0  0  0  0  0
   36.8233   25.7597   49.9415 H   0  0  0  0  0  0  0  0  0  0  0  0
   36.8651   27.0343   48.6828 H   0  0  0  0  0  0  0  0  0  0  0  0
  2  1  1  0
  2  8  1  0
  3  2  1  0
  4  5  1  0
  4  3  1  0
  5  6  1  0
  6  7  1  0
  6  1  1  0
  8 11  1  0
  9 14  2  0
 10  9  1  0
 11 12  1  0
 11 10  2  0
 12 13  2  0
 13 14  1  0
  1 15  1  0
  2 16  1  1
  3 17  1  0
  3 18  1  0
  4 19  1  0
  5 20  1  0
  5 21  1  0
  6 22  1  6
  7 23  1  0
  7 24  1  0
  9 25  1  0
 10 26  1  0
 27 28  1  0
 28 29  1  0
 29 30  1  0
 28 31  1  0
 31 32  1  0
 27 33  1  0
 27 34  1  0
 28 35  1  0
 29 36  1  0
 29 37  1  0
 31 38  1  0
 31 39  1  0
 13 27  1  0
M  CHG  1  28   1
M  END
>  <DihAtoms>  (1) 
11,12,26,27

>  <DihDeg>  (1) 
90.00291531252743

$$$$
