
     RDKit          3D

 35 36  0  0  0  0  0  0  0  0999 V2000
   38.0797   31.7553   47.9164 C   0  0  0  0  0  0  0  0  0  0  0  0
   38.0037   30.5745   47.2534 C   0  0  0  0  0  0  0  0  0  0  0  0
   38.7248   30.3836   46.1149 C   0  0  0  0  0  0  0  0  0  0  0  0
   39.5208   31.3994   45.6578 C   0  0  0  0  0  0  0  0  0  0  0  0
   39.5971   32.6094   46.3393 C   0  0  0  0  0  0  0  0  0  0  0  0
   38.8532   32.7409   47.4712 N   0  0  0  0  0  0  0  0  0  0  0  0
   40.4706   33.7129   45.8303 C   0  0  0  0  0  0  0  0  0  0  0  0
   37.4146   32.1321   49.0973 O   0  0  0  0  0  0  0  0  0  0  0  0
   37.3312   30.5746   50.7961 C   0  0  0  0  0  0  0  0  0  0  0  0
   36.6614   31.1744   49.7211 C   0  0  0  0  0  0  0  0  0  0  0  0
   35.3934   30.7454   49.4426 C   0  0  0  0  0  0  0  0  0  0  0  0
   34.8582   29.7813   50.2042 N   0  0  0  0  0  0  0  0  0  0  0  0
   35.5003   29.2183   51.2213 C   0  0  0  0  0  0  0  0  0  0  0  0
   36.7752   29.6009   51.5560 N   0  0  0  0  0  0  0  0  0  0  0  0
   37.3347   29.8332   47.7109 H   0  0  0  0  0  0  0  0  0  0  0  0
   38.6597   29.4546   45.6007 H   0  0  0  0  0  0  0  0  0  0  0  0
   40.1059   31.2737   44.7529 H   0  0  0  0  0  0  0  0  0  0  0  0
   41.5276   33.5252   46.1354 H   0  0  0  0  0  0  0  0  0  0  0  0
   40.3597   33.8414   44.7412 H   0  0  0  0  0  0  0  0  0  0  0  0
   40.1294   34.6285   46.3453 H   0  0  0  0  0  0  0  0  0  0  0  0
   38.3535   30.8381   51.1131 H   0  0  0  0  0  0  0  0  0  0  0  0
   34.9298   31.2369   48.6128 H   0  0  0  0  0  0  0  0  0  0  0  0
   34.9060   28.1454   52.0697 C   0  0  0  0  0  0  0  0  0  0  0  0
   35.6245   27.9352   53.2878 N   0  0  0  0  0  4  0  0  0  0  0  0
   34.8169   28.1955   54.4674 C   0  0  0  0  0  0  0  0  0  0  0  0
   33.7394   28.1885   54.2917 H   0  0  0  0  0  0  0  0  0  0  0  0
   36.8128   28.7621   53.3893 C   0  0  0  0  0  0  0  0  0  0  0  0
   36.5324   29.8109   53.1573 H   0  0  0  0  0  0  0  0  0  0  0  0
   34.8718   27.2000   51.4877 H   0  0  0  0  0  0  0  0  0  0  0  0
   33.8450   28.3738   52.3055 H   0  0  0  0  0  0  0  0  0  0  0  0
   35.9715   26.9413   53.3465 H   0  0  0  0  0  0  0  0  0  0  0  0
   35.0586   29.1927   54.9219 H   0  0  0  0  0  0  0  0  0  0  0  0
   35.1009   27.4628   55.2685 H   0  0  0  0  0  0  0  0  0  0  0  0
   37.6485   28.3767   52.7723 H   0  0  0  0  0  0  0  0  0  0  0  0
   37.1693   28.7807   54.4396 H   0  0  0  0  0  0  0  0  0  0  0  0
  1  8  1  0
  2  1  2  0
  3  2  1  0
  4  3  2  0
  4  5  1  0
  5  6  2  0
  6  1  1  0
  7  5  1  0
  8 10  1  0
  9 14  2  0
 10  9  1  0
 11 10  2  0
 11 12  1  0
 12 13  2  0
 13 14  1  0
  2 15  1  0
  3 16  1  0
  4 17  1  0
  7 18  1  0
  7 19  1  0
  7 20  1  0
  9 21  1  0
 11 22  1  0
 23 24  1  0
 24 25  1  0
 25 26  1  0
 24 27  1  0
 27 28  1  0
 23 29  1  0
 23 30  1  0
 24 31  1  0
 25 32  1  0
 25 33  1  0
 27 34  1  0
 27 35  1  0
 13 23  1  0
M  ISO  8  15  14  16  14  17  14  18   8  19   8  20   8  21  14  22  14
M  CHG  1  24   1
M  ISO  2  26   8  28   8
M  END
>  <DihAtoms>  (1) 
11,12,22,23

>  <DihDeg>  (1) 
-90.00246707417358

$$$$
