
     RDKit          3D

 28 28  0  0  0  0  0  0  0  0999 V2000
   35.6448   30.4681   49.7516 C   0  0  0  0  0  0  0  0  0  0  0  0
   35.9717   29.4650   50.6837 C   0  0  0  0  0  0  0  0  0  0  0  0
   37.2311   29.5173   51.2472 C   0  0  0  0  0  0  0  0  0  0  0  0
   38.0837   30.5083   50.8911 N   0  0  0  0  0  0  0  0  0  0  0  0
   37.7572   31.4666   49.9949 C   0  0  0  0  0  0  0  0  0  0  0  0
   36.5269   31.4228   49.4382 N   0  0  0  0  0  0  0  0  0  0  0  0
   34.4292   30.5861   49.0753 O   0  0  0  0  0  0  0  0  0  0  0  0
   35.5104   30.1444   46.6462 O   0  0  0  0  0  0  0  0  0  0  0  0
   34.2323   30.0228   47.4777 P   0  0  0  0  0  0  0  0  0  0  0  0
   33.7556   28.4057   47.5759 O   0  0  0  0  0  0  0  0  0  0  0  0
   33.0590   30.9430   46.6751 O   0  0  0  0  0  0  0  0  0  0  0  0
   37.5330   28.7818   51.9578 H   0  0  0  0  0  0  0  0  0  0  0  0
   38.4540   32.2484   49.7255 H   0  0  0  0  0  0  0  0  0  0  0  0
   32.8407   28.4029   47.9633 H   0  0  0  0  0  0  0  0  0  0  0  0
   32.2538   31.0655   47.2316 H   0  0  0  0  0  0  0  0  0  0  0  0
   34.9686   28.4612   50.9858 C   0  0  0  0  0  0  0  0  0  0  0  0
   33.8988   28.3177   50.0511 N   0  0  0  0  0  4  0  0  0  0  0  0
   33.5013   26.8989   50.1016 C   0  0  0  0  0  0  0  0  0  0  0  0
   33.8284   26.4240   51.0496 H   0  0  0  0  0  0  0  0  0  0  0  0
   32.7456   29.1225   50.4647 C   0  0  0  0  0  0  0  0  0  0  0  0
   32.7407   30.1038   49.9784 H   0  0  0  0  0  0  0  0  0  0  0  0
   35.4968   27.4854   51.1669 H   0  0  0  0  0  0  0  0  0  0  0  0
   34.5033   28.7078   51.9715 H   0  0  0  0  0  0  0  0  0  0  0  0
   34.0976   28.5377   49.0722 H   0  0  0  0  0  0  0  0  0  0  0  0
   34.0627   26.3710   49.2820 H   0  0  0  0  0  0  0  0  0  0  0  0
   32.4133   26.7850   50.0396 H   0  0  0  0  0  0  0  0  0  0  0  0
   31.8180   28.5245   50.2361 H   0  0  0  0  0  0  0  0  0  0  0  0
   32.7456   29.2513   51.5772 H   0  0  0  0  0  0  0  0  0  0  0  0
  1  2  2  0
  2  3  1  0
  4  3  2  0
  5  4  1  0
  6  1  1  0
  6  5  2  0
  7  1  1  0
  8  9  2  0
  9 10  1  0
  9  7  1  0
 11  9  1  0
  3 12  1  0
  5 13  1  0
 10 14  1  0
 11 15  1  0
 16 17  1  0
 17 18  1  0
 18 19  1  0
 17 20  1  0
 20 21  1  0
 16 22  1  0
 16 23  1  0
 17 24  1  0
 18 25  1  0
 18 26  1  0
 20 27  1  0
 20 28  1  0
  2 16  1  0
M  CHG  1  17   1
M  END
>  <DihAtoms>  (1) 
0,1,15,16

>  <DihDeg>  (1) 
-176.76291805334924

$$$$
