
     RDKit          3D

 34 35  0  0  0  0  0  0  0  0999 V2000
   34.9463   28.7974   48.6862 C   0  0  0  0  0  0  0  0  0  0  0  0
   34.6018   27.8550   49.4888 O   0  0  0  0  0  0  0  0  0  0  0  0
   33.0064   30.5887   46.2098 C   0  0  0  0  0  0  0  0  0  0  0  0
   32.8195   29.6474   45.1813 C   0  0  0  0  0  0  0  0  0  0  0  0
   33.3597   28.3725   45.3450 C   0  0  0  0  0  0  0  0  0  0  0  0
   34.0511   28.0681   46.4862 N   0  0  0  0  0  0  0  0  0  0  0  0
   34.2084   28.9959   47.4448 C   0  0  0  0  0  0  0  0  0  0  0  0
   33.6866   30.2058   47.2749 N   0  0  0  0  0  0  0  0  0  0  0  0
   36.0830   29.5879   49.1357 C   0  0  0  0  0  0  0  0  0  0  0  0
   36.2690   29.7149   50.5125 C   0  0  0  0  0  0  0  0  0  0  0  0
   37.3373   30.4320   51.0576 C   0  0  0  0  0  0  0  0  0  0  0  0
   38.2415   31.0350   50.1674 C   0  0  0  0  0  0  0  0  0  0  0  0
   38.0383   30.8964   48.8147 C   0  0  0  0  0  0  0  0  0  0  0  0
   36.9791   30.1882   48.2702 C   0  0  0  0  0  0  0  0  0  0  0  0
   32.5685   31.5501   46.0237 H   0  0  0  0  0  0  0  0  0  0  0  0
   32.2917   29.7939   44.2477 H   0  0  0  0  0  0  0  0  0  0  0  0
   33.2819   27.5604   44.6258 H   0  0  0  0  0  0  0  0  0  0  0  0
   35.5503   29.2329   51.1871 H   0  0  0  0  0  0  0  0  0  0  0  0
   37.4038   30.4755   52.1179 H   0  0  0  0  0  0  0  0  0  0  0  0
   39.0239   31.5574   50.6962 H   0  0  0  0  0  0  0  0  0  0  0  0
   38.8399   31.4158   48.3104 H   0  0  0  0  0  0  0  0  0  0  0  0
   36.8556   30.1382   46.8258 C   0  0  0  0  0  0  0  0  0  0  0  0
   37.9173   30.8766   46.1147 N   0  0  0  0  0  4  0  0  0  0  0  0
   37.7530   30.4080   44.7201 C   0  0  0  0  0  0  0  0  0  0  0  0
   36.9384   31.0470   44.2628 H   0  0  0  0  0  0  0  0  0  0  0  0
   37.6763   32.2901   46.0536 C   0  0  0  0  0  0  0  0  0  0  0  0
   38.6758   32.8121   46.1637 H   0  0  0  0  0  0  0  0  0  0  0  0
   36.9275   29.1256   46.4650 H   0  0  0  0  0  0  0  0  0  0  0  0
   35.9585   30.7123   46.4388 H   0  0  0  0  0  0  0  0  0  0  0  0
   38.8613   30.5943   46.3834 H   0  0  0  0  0  0  0  0  0  0  0  0
   38.6499   30.6278   44.1192 H   0  0  0  0  0  0  0  0  0  0  0  0
   37.3796   29.3840   44.6617 H   0  0  0  0  0  0  0  0  0  0  0  0
   37.3214   32.6442   45.0408 H   0  0  0  0  0  0  0  0  0  0  0  0
   36.9173   32.6779   46.7475 H   0  0  0  0  0  0  0  0  0  0  0  0
  1  9  1  0
  1  2  2  0
  3  8  2  0
  4  5  2  0
  4  3  1  0
  5  6  1  0
  6  7  2  0
  7  1  1  0
  8  7  1  0
  9 10  2  0
 10 11  1  0
 12 11  2  0
 13 12  1  0
 14 13  2  0
 14  9  1  0
  3 15  1  0
  4 16  1  0
  5 17  1  0
 10 18  1  0
 11 19  1  0
 12 20  1  0
 13 21  1  0
 22 23  1  0
 23 24  1  0
 24 25  1  0
 23 26  1  0
 26 27  1  0
 22 28  1  0
 22 29  1  0
 23 30  1  0
 24 31  1  0
 24 32  1  0
 26 33  1  0
 26 34  1  0
 14 22  1  0
M  ISO  8  15  14  16  14  17  14  18  14  19  14  20  14  21  14  25   8
M  CHG  1  23   1
M  ISO  1  27   8
M  END
>  <DihAtoms>  (1) 
12,13,21,22

>  <DihDeg>  (1) 
15.038755590059997

$$$$
