
     RDKit          3D

 46 48  0  0  0  0  0  0  0  0999 V2000
   36.0157   30.2767   48.6387 C   0  0  0  0  0  0  0  0  0  0  0  0
   36.0664   29.3252   49.6345 C   0  0  0  0  0  0  0  0  0  0  0  0
   35.0908   28.3384   49.7105 C   0  0  0  0  0  0  0  0  0  0  0  0
   34.1016   28.3756   48.7530 C   0  0  0  0  0  0  0  0  0  0  0  0
   34.0447   29.3307   47.7478 C   0  0  0  0  0  0  0  0  0  0  0  0
   35.0197   30.2581   47.7304 N   0  0  0  0  0  0  0  0  0  0  0  0
   32.9838   29.2695   46.8217 N   0  0  0  0  0  0  0  0  0  0  0  0
   31.8373   28.4526   47.1309 C   0  0  0  0  0  0  0  0  0  0  0  0
   30.9319   28.4788   45.9251 C   0  0  0  0  0  0  0  0  0  0  0  0
   30.5211   29.9125   45.6371 C   0  0  0  0  0  0  0  0  0  0  0  0
   31.7166   30.7909   45.4697 C   0  0  0  0  0  0  0  0  0  0  0  0
   32.9774   29.9859   45.5655 C   0  0  0  0  0  0  0  0  0  0  0  0
   38.0861   33.1807   49.4962 C   0  0  0  0  0  0  0  0  0  0  0  0
   39.0007   33.2331   48.4483 C   0  0  0  0  0  0  0  0  0  0  0  0
   38.9058   32.2778   47.4557 C   0  0  0  0  0  0  0  0  0  0  0  0
   37.9162   31.3267   47.5525 N   0  0  0  0  0  0  0  0  0  0  0  0
   37.0483   31.3027   48.5766 C   0  0  0  0  0  0  0  0  0  0  0  0
   37.1518   32.2311   49.5278 N   0  0  0  0  0  0  0  0  0  0  0  0
   36.8846   29.3815   50.3398 H   0  0  0  0  0  0  0  0  0  0  0  0
   35.1530   27.6086   50.4960 H   0  0  0  0  0  0  0  0  0  0  0  0
   33.3679   27.5661   48.8773 H   0  0  0  0  0  0  0  0  0  0  0  0
   32.0881   27.3832   47.2993 H   0  0  0  0  0  0  0  0  0  0  0  0
   31.2663   28.9082   47.9608 H   0  0  0  0  0  0  0  0  0  0  0  0
   31.3804   27.9858   45.0488 H   0  0  0  0  0  0  0  0  0  0  0  0
   30.0030   27.9497   46.2282 H   0  0  0  0  0  0  0  0  0  0  0  0
   29.9838   30.2637   46.5639 H   0  0  0  0  0  0  0  0  0  0  0  0
   29.7842   29.9896   44.8399 H   0  0  0  0  0  0  0  0  0  0  0  0
   31.7853   31.6395   46.1533 H   0  0  0  0  0  0  0  0  0  0  0  0
   31.6872   31.1975   44.4190 H   0  0  0  0  0  0  0  0  0  0  0  0
   33.8837   30.6241   45.5516 H   0  0  0  0  0  0  0  0  0  0  0  0
   33.0523   29.2060   44.7755 H   0  0  0  0  0  0  0  0  0  0  0  0
   38.1924   33.9445   50.2530 H   0  0  0  0  0  0  0  0  0  0  0  0
   39.7565   33.9945   48.4150 H   0  0  0  0  0  0  0  0  0  0  0  0
   39.8533   32.3056   46.3395 C   0  0  0  0  0  0  0  0  0  0  0  0
   39.2571   32.4625   45.0466 N   0  0  0  0  0  4  0  0  0  0  0  0
   38.9347   33.8406   44.7338 C   0  0  0  0  0  0  0  0  0  0  0  0
   38.7818   33.9365   43.6443 H   0  0  0  0  0  0  0  0  0  0  0  0
   38.1081   31.6409   44.8086 C   0  0  0  0  0  0  0  0  0  0  0  0
   37.4912   32.1195   44.0080 H   0  0  0  0  0  0  0  0  0  0  0  0
   40.5267   33.1899   46.4791 H   0  0  0  0  0  0  0  0  0  0  0  0
   40.4514   31.3634   46.3076 H   0  0  0  0  0  0  0  0  0  0  0  0
   39.9944   32.1912   44.3365 H   0  0  0  0  0  0  0  0  0  0  0  0
   39.7703   34.5254   45.0314 H   0  0  0  0  0  0  0  0  0  0  0  0
   37.9856   34.1424   45.2502 H   0  0  0  0  0  0  0  0  0  0  0  0
   38.3631   30.6212   44.4782 H   0  0  0  0  0  0  0  0  0  0  0  0
   37.4992   31.6163   45.7362 H   0  0  0  0  0  0  0  0  0  0  0  0
  1  2  2  0
  2  3  1  0
  4  3  2  0
  5  4  1  0
  6  5  2  0
  6  1  1  0
  7  8  1  0
  7  5  1  0
  9  8  1  0
 10  9  1  0
 11 12  1  0
 11 10  1  0
 12  7  1  0
 13 18  2  0
 14 13  1  0
 15 16  1  0
 15 14  2  0
 16 17  2  0
 17  1  1  0
 17 18  1  0
  2 19  1  0
  3 20  1  0
  4 21  1  0
  8 22  1  0
  8 23  1  0
  9 24  1  0
  9 25  1  0
 10 26  1  0
 10 27  1  0
 11 28  1  0
 11 29  1  0
 12 30  1  0
 12 31  1  0
 13 32  1  0
 14 33  1  0
 34 35  1  0
 35 36  1  0
 36 37  1  0
 35 38  1  0
 38 39  1  0
 34 40  1  0
 34 41  1  0
 35 42  1  0
 36 43  1  0
 36 44  1  0
 38 45  1  0
 38 46  1  0
 15 34  1  0
M  CHG  1  35   1
M  END
>  <DihAtoms>  (1) 
15,14,33,34

>  <DihDeg>  (1) 
90.0008517478081

$$$$
