
     RDKit          3D

 36 37  0  0  0  0  0  0  0  0999 V2000
   38.0160   30.3175   50.1922 C   0  0  0  0  0  0  0  0  0  0  0  0
   37.3860   30.4980   48.9258 C   0  0  0  0  0  0  0  0  0  0  0  0
   36.0670   30.1042   48.8051 C   0  0  0  0  0  0  0  0  0  0  0  0
   35.4337   29.5693   49.8810 N   0  0  0  0  0  0  0  0  0  0  0  0
   36.0589   29.4069   51.0829 C   0  0  0  0  0  0  0  0  0  0  0  0
   37.3581   29.7867   51.2283 N   0  0  0  0  0  0  0  0  0  0  0  0
   38.1906   31.0754   47.8938 C   0  0  0  0  0  0  0  0  0  0  0  0
   38.5269   30.2821   46.8150 C   0  0  0  0  0  0  0  0  0  0  0  0
   39.2894   30.6642   45.7337 C   0  0  0  0  0  0  0  0  0  0  0  0
   39.7735   31.9787   45.7179 C   0  0  0  0  0  0  0  0  0  0  0  0
   39.4553   32.7968   46.7808 C   0  0  0  0  0  0  0  0  0  0  0  0
   38.6884   32.3726   47.8434 C   0  0  0  0  0  0  0  0  0  0  0  0
   38.2657   33.4182   49.2297 S   0  0  0  0  0  0  0  0  0  0  0  0
   35.2892   30.2356   47.5416 C   0  0  0  0  0  0  0  0  0  0  0  0
   34.0151   30.7651   47.8361 F   0  0  0  0  0  0  0  0  0  0  0  0
   35.8477   30.9737   46.5559 F   0  0  0  0  0  0  0  0  0  0  0  0
   34.9996   28.9628   47.0359 F   0  0  0  0  0  0  0  0  0  0  0  0
   39.0566   30.6190   50.3178 H   0  0  0  0  0  0  0  0  0  0  0  0
   35.5507   28.9829   51.9293 H   0  0  0  0  0  0  0  0  0  0  0  0
   38.1769   29.2393   46.7685 H   0  0  0  0  0  0  0  0  0  0  0  0
   39.5173   29.9974   44.9218 H   0  0  0  0  0  0  0  0  0  0  0  0
   40.3794   32.3552   44.9042 H   0  0  0  0  0  0  0  0  0  0  0  0
   39.8273   33.8154   46.7739 H   0  0  0  0  0  0  0  0  0  0  0  0
   38.9711   35.0755   49.0454 C   0  0  0  0  0  0  0  0  0  0  0  0
   39.2598   35.6738   50.3368 N   0  0  0  0  0  4  0  0  0  0  0  0
   40.5315   35.1672   50.8177 C   0  0  0  0  0  0  0  0  0  0  0  0
   40.3994   34.5785   51.7570 H   0  0  0  0  0  0  0  0  0  0  0  0
   38.2241   35.3685   51.3099 C   0  0  0  0  0  0  0  0  0  0  0  0
   38.0087   34.2936   51.3829 H   0  0  0  0  0  0  0  0  0  0  0  0
   38.2634   35.7161   48.4697 H   0  0  0  0  0  0  0  0  0  0  0  0
   39.8962   35.0051   48.4430 H   0  0  0  0  0  0  0  0  0  0  0  0
   39.3112   36.7020   50.2594 H   0  0  0  0  0  0  0  0  0  0  0  0
   40.9841   34.4850   50.0590 H   0  0  0  0  0  0  0  0  0  0  0  0
   41.2711   35.9376   51.0368 H   0  0  0  0  0  0  0  0  0  0  0  0
   38.6151   35.6680   52.3096 H   0  0  0  0  0  0  0  0  0  0  0  0
   37.2943   35.9246   51.1168 H   0  0  0  0  0  0  0  0  0  0  0  0
  1  6  2  0
  2  1  1  0
  3  2  2  0
  3  4  1  0
  4  5  2  0
  5  6  1  0
  7  2  1  0
  8  7  2  0
  9  8  1  0
 10  9  2  0
 10 11  1  0
 11 12  2  0
 12  7  1  0
 12 13  1  0
 14 15  1  0
 14  3  1  0
 16 14  1  0
 17 14  1  0
  1 18  1  0
  5 19  1  0
  8 20  1  0
  9 21  1  0
 10 22  1  0
 11 23  1  0
 24 25  1  0
 25 26  1  0
 26 27  1  0
 25 28  1  0
 28 29  1  0
 24 30  1  0
 24 31  1  0
 25 32  1  0
 26 33  1  0
 26 34  1  0
 28 35  1  0
 28 36  1  0
 13 24  1  0
M  ISO  8  18  14  19  14  20  14  21  14  22  14  23  14  27   8  29   8
M  CHG  1  25   1
M  END
>  <DihAtoms>  (1) 
11,12,23,24

>  <DihDeg>  (1) 
179.99636167842138

$$$$
