
     RDKit          3D

 43 44  0  0  0  0  0  0  0  0999 V2000
   35.5167   29.8332   50.5139 C   0  0  0  0  0  0  0  0  0  0  0  0
   37.2634   30.1212   50.7421 S   0  0  0  0  0  0  0  0  0  0  0  0
   37.9099   30.9679   49.3221 C   0  0  0  0  0  0  0  0  0  0  0  0
   38.3397   32.2595   49.5699 C   0  0  0  0  0  0  0  0  0  0  0  0
   38.8684   32.9967   48.4820 C   0  0  0  0  0  0  0  0  0  0  0  0
   38.9221   32.3925   47.2607 N   0  0  0  0  0  0  0  0  0  0  0  0
   38.4834   31.1289   47.0976 C   0  0  0  0  0  0  0  0  0  0  0  0
   37.9879   30.4257   48.0969 N   0  0  0  0  0  0  0  0  0  0  0  0
   35.1235   28.3988   49.4991 S   0  0  0  0  0  0  0  0  0  0  0  0
   32.9542   27.3454   48.1541 C   0  0  1  0  0  0  0  0  0  0  0  0
   33.5857   28.6574   48.5925 C   0  0  2  0  0  0  0  0  0  0  0  0
   33.8050   29.4869   47.3793 C   0  0  0  0  0  0  0  0  0  0  0  0
   33.3965   28.8860   46.2081 O   0  0  0  0  0  0  0  0  0  0  0  0
   32.0401   28.5519   46.2417 C   0  0  0  0  0  0  0  0  0  0  0  0
   31.6820   27.7065   47.4371 C   0  0  2  0  0  0  0  0  0  0  0  0
   33.7660   26.6915   47.2368 O   0  0  0  0  0  0  0  0  0  0  0  0
   30.9375   28.4790   48.3480 O   0  0  0  0  0  0  0  0  0  0  0  0
   34.9955   29.7163   51.4853 H   0  0  0  0  0  0  0  0  0  0  0  0
   35.0291   30.7249   50.0253 H   0  0  0  0  0  0  0  0  0  0  0  0
   38.3166   32.7809   50.5228 H   0  0  0  0  0  0  0  0  0  0  0  0
   39.2144   34.0018   48.6243 H   0  0  0  0  0  0  0  0  0  0  0  0
   38.5502   30.6960   46.0995 H   0  0  0  0  0  0  0  0  0  0  0  0
   32.8089   26.7610   49.0743 H   0  0  0  0  0  0  0  0  0  0  0  0
   32.8264   29.1754   49.2305 H   0  0  0  0  0  0  0  0  0  0  0  0
   34.8800   29.7652   47.2419 H   0  0  0  0  0  0  0  0  0  0  0  0
   33.2602   30.4747   47.4331 H   0  0  0  0  0  0  0  0  0  0  0  0
   31.8633   27.9831   45.3050 H   0  0  0  0  0  0  0  0  0  0  0  0
   31.3900   29.4558   46.1448 H   0  0  0  0  0  0  0  0  0  0  0  0
   31.0832   26.8584   47.0966 H   0  0  0  0  0  0  0  0  0  0  0  0
   34.6109   26.4654   47.7158 H   0  0  0  0  0  0  0  0  0  0  0  0
   29.6766   27.9585   48.5550 C   0  0  0  0  0  0  0  0  0  0  0  0
   28.9722   28.4589   49.6866 N   0  0  0  0  0  4  0  0  0  0  0  0
   27.8577   29.3346   49.3470 C   0  0  0  0  0  0  0  0  0  0  0  0
   28.0954   29.9744   48.4931 H   0  0  0  0  0  0  0  0  0  0  0  0
   28.4065   27.2995   50.3806 C   0  0  0  0  0  0  0  0  0  0  0  0
   27.2883   27.3628   50.4477 H   0  0  0  0  0  0  0  0  0  0  0  0
   29.0834   28.2425   47.6511 H   0  0  0  0  0  0  0  0  0  0  0  0
   29.7228   26.8323   48.5155 H   0  0  0  0  0  0  0  0  0  0  0  0
   29.5329   28.9775   50.3810 H   0  0  0  0  0  0  0  0  0  0  0  0
   26.9352   28.7628   49.1536 H   0  0  0  0  0  0  0  0  0  0  0  0
   27.6399   30.0279   50.2010 H   0  0  0  0  0  0  0  0  0  0  0  0
   28.7130   26.3378   49.9209 H   0  0  0  0  0  0  0  0  0  0  0  0
   28.7556   27.2455   51.4378 H   0  0  0  0  0  0  0  0  0  0  0  0
  1  2  1  0
  3  4  2  0
  3  2  1  0
  5  4  1  0
  6  5  2  0
  7  6  1  0
  7  8  2  0
  8  3  1  0
  9  1  1  0
 10 16  1  0
 10 11  1  0
 11  9  1  0
 12 11  1  0
 13 14  1  0
 13 12  1  0
 14 15  1  0
 15 10  1  0
 15 17  1  0
  1 18  1  0
  1 19  1  0
  4 20  1  0
  5 21  1  0
  7 22  1  0
 10 23  1  1
 11 24  1  1
 12 25  1  0
 12 26  1  0
 14 27  1  0
 14 28  1  0
 15 29  1  6
 16 30  1  0
 31 32  1  0
 32 33  1  0
 33 34  1  0
 32 35  1  0
 35 36  1  0
 31 37  1  0
 31 38  1  0
 32 39  1  0
 33 40  1  0
 33 41  1  0
 35 42  1  0
 35 43  1  0
 17 31  1  0
M  CHG  1  32   1
M  END
>  <DihAtoms>  (1) 
14,16,30,31

>  <DihDeg>  (1) 
60.00027252250452

$$$$
