
     RDKit          3D

 52 54  0  0  0  0  0  0  0  0999 V2000
   36.0513   30.9844   48.3329 C   0  0  1  0  0  0  0  0  0  0  0  0
   35.7759   30.0896   47.2679 C   0  0  0  0  0  0  0  0  0  0  0  0
   36.3934   29.5421   48.5142 C   0  0  2  0  0  0  0  0  0  0  0  0
   35.9066   28.7395   50.7982 C   0  0  2  0  0  0  0  0  0  0  0  0
   35.5428   28.6637   49.3886 C   0  0  1  0  0  0  0  0  0  0  0  0
   34.1469   29.0692   49.3394 C   0  0  0  0  0  0  0  0  0  0  0  0
   33.8715   29.8733   50.4594 O   0  0  0  0  0  0  0  0  0  0  0  0
   34.4627   29.1469   51.4289 C   0  0  0  0  0  0  0  0  0  0  0  0
   36.6050   29.8999   51.1039 O   0  0  0  0  0  0  0  0  0  0  0  0
   37.5186   29.8780   52.0045 C   0  0  0  0  0  0  0  0  0  0  0  0
   37.2798   31.8800   48.3257 C   0  0  0  0  0  0  0  0  0  0  0  0
   37.5220   32.6427   49.4530 C   0  0  0  0  0  0  0  0  0  0  0  0
   38.6300   33.4565   49.4158 C   0  0  0  0  0  0  0  0  0  0  0  0
   39.4201   33.4750   48.2982 N   0  0  0  0  0  0  0  0  0  0  0  0
   39.1665   32.7161   47.1947 C   0  0  0  0  0  0  0  0  0  0  0  0
   38.0754   31.9116   47.2259 N   0  0  0  0  0  0  0  0  0  0  0  0
   40.0121   32.7725   46.0594 N   0  0  0  0  0  0  0  0  0  0  0  0
   40.4911   31.3571   45.2263 S   0  0  0  0  0  0  0  0  0  0  0  0
   40.7171   31.5896   43.7654 O   0  0  0  0  0  0  0  0  0  0  0  0
   39.3910   30.3410   45.3490 O   0  0  0  0  0  0  0  0  0  0  0  0
   41.8583   30.6715   45.9117 O   0  0  0  0  0  0  0  0  0  0  0  0
   35.2273   31.3715   48.9995 H   0  0  0  0  0  0  0  0  0  0  0  0
   34.8404   29.7879   46.8330 H   0  0  0  0  0  0  0  0  0  0  0  0
   36.5400   30.1490   46.4277 H   0  0  0  0  0  0  0  0  0  0  0  0
   37.4584   29.2324   48.5431 H   0  0  0  0  0  0  0  0  0  0  0  0
   36.2101   27.8440   51.3357 H   0  0  0  0  0  0  0  0  0  0  0  0
   35.6539   27.6204   49.0045 H   0  0  0  0  0  0  0  0  0  0  0  0
   33.7142   29.5872   48.5117 H   0  0  0  0  0  0  0  0  0  0  0  0
   33.5083   28.1531   49.5103 H   0  0  0  0  0  0  0  0  0  0  0  0
   34.6524   29.6143   52.3913 H   0  0  0  0  0  0  0  0  0  0  0  0
   33.9938   28.1423   51.5144 H   0  0  0  0  0  0  0  0  0  0  0  0
   37.1720   29.5776   53.0150 H   0  0  0  0  0  0  0  0  0  0  0  0
   38.3342   29.1367   51.7676 H   0  0  0  0  0  0  0  0  0  0  0  0
   38.0318   30.8542   52.1200 H   0  0  0  0  0  0  0  0  0  0  0  0
   36.9044   32.6312   50.3318 H   0  0  0  0  0  0  0  0  0  0  0  0
   38.9456   34.1045   50.2135 H   0  0  0  0  0  0  0  0  0  0  0  0
   40.3555   33.6929   45.7162 H   0  0  0  0  0  0  0  0  0  0  0  0
   40.7735   32.5030   43.3841 H   0  0  0  0  0  0  0  0  0  0  0  0
   39.4754   29.5875   45.9808 H   0  0  0  0  0  0  0  0  0  0  0  0
   42.7554   31.5895   46.4036 C   0  0  0  0  0  0  0  0  0  0  0  0
   42.6258   32.8018   45.5831 N   0  0  0  0  0  4  0  0  0  0  0  0
   42.8080   34.0083   46.3280 C   0  0  0  0  0  0  0  0  0  0  0  0
   43.7913   34.4665   46.0380 H   0  0  0  0  0  0  0  0  0  0  0  0
   43.5665   32.6739   44.4841 C   0  0  0  0  0  0  0  0  0  0  0  0
   44.6166   32.6995   44.8025 H   0  0  0  0  0  0  0  0  0  0  0  0
   43.7970   31.2368   46.4690 H   0  0  0  0  0  0  0  0  0  0  0  0
   42.4369   31.8790   47.4236 H   0  0  0  0  0  0  0  0  0  0  0  0
   41.6711   32.8252   45.1600 H   0  0  0  0  0  0  0  0  0  0  0  0
   42.7230   33.8906   47.4347 H   0  0  0  0  0  0  0  0  0  0  0  0
   42.0492   34.7970   46.0567 H   0  0  0  0  0  0  0  0  0  0  0  0
   43.3798   31.6499   44.0537 H   0  0  0  0  0  0  0  0  0  0  0  0
   43.3196   33.3905   43.6821 H   0  0  0  0  0  0  0  0  0  0  0  0
  1  3  1  0
  2  1  1  0
  2  3  1  0
  3  5  1  0
  4  9  1  0
  4  8  1  0
  5  4  1  0
  6  5  1  0
  6  7  1  0
  7  8  1  0
  9 10  1  0
 11  1  1  0
 11 12  2  0
 13 12  1  0
 14 13  2  0
 15 16  2  0
 15 14  1  0
 16 11  1  0
 17 15  1  0
 18 20  1  0
 18 21  1  0
 18 17  1  0
 19 18  1  0
  1 22  1  1
  2 23  1  0
  2 24  1  0
  3 25  1  6
  4 26  1  1
  5 27  1  6
  6 28  1  0
  6 29  1  0
  8 30  1  0
  8 31  1  0
 10 32  1  0
 10 33  1  0
 10 34  1  0
 12 35  1  0
 13 36  1  0
 17 37  1  0
 19 38  1  0
 20 39  1  0
 40 41  1  0
 41 42  1  0
 42 43  1  0
 41 44  1  0
 44 45  1  0
 40 46  1  0
 40 47  1  0
 41 48  1  0
 42 49  1  0
 42 50  1  0
 44 51  1  0
 44 52  1  0
 21 40  1  0
M  ISO  8  22  13  23  13  24  13  25  13  26  13  27  13  28  13  29  13
M  ISO  8  30  13  31  13  32   8  33   8  34   8  35  14  36  14  38   3
M  CHG  1  41   1
M  ISO  3  39   3  43   8  45   8
M  END
>  <DihAtoms>  (1) 
17,20,39,40

>  <DihDeg>  (1) 
-179.99964118208413

$$$$
