
     RDKit          3D

 49 51  0  0  0  0  0  0  0  0999 V2000
   37.7719   31.7504   47.6570 C   0  0  0  0  0  0  0  0  0  0  0  0
   37.9258   32.5415   48.8062 C   0  0  0  0  0  0  0  0  0  0  0  0
   38.9281   33.4864   48.8850 C   0  0  0  0  0  0  0  0  0  0  0  0
   39.7495   33.5982   47.7830 C   0  0  0  0  0  0  0  0  0  0  0  0
   39.5760   32.8190   46.6858 C   0  0  0  0  0  0  0  0  0  0  0  0
   38.5995   31.8910   46.5960 N   0  0  0  0  0  0  0  0  0  0  0  0
   36.6966   30.7835   47.6549 C   0  0  0  0  0  0  0  0  0  0  0  0
   36.2089   30.3808   46.5964 O   0  0  0  0  0  0  0  0  0  0  0  0
   37.0159   29.6335   49.8154 C   0  0  0  0  0  0  0  0  0  0  0  0
   36.1292   30.2313   48.8914 C   0  0  0  0  0  0  0  0  0  0  0  0
   34.7706   30.2677   49.1953 C   0  0  0  0  0  0  0  0  0  0  0  0
   34.3353   29.7278   50.3711 N   0  0  0  0  0  0  0  0  0  0  0  0
   35.2142   29.1599   51.2389 C   0  0  0  0  0  0  0  0  0  0  0  0
   36.5286   29.1153   50.9631 N   0  0  0  0  0  0  0  0  0  0  0  0
   40.6661   32.9711   45.2302 S   0  0  0  0  0  0  0  0  0  0  0  0
   39.5645   32.9338   43.7921 C   0  0  0  0  0  0  0  0  0  0  0  0
   38.7692   29.7929   42.3389 C   0  0  1  0  0  0  0  0  0  0  0  0
   38.8116   31.2922   42.0804 C   0  0  0  0  0  0  0  0  0  0  0  0
   39.9530   31.7140   42.9720 C   0  0  2  0  0  0  0  0  0  0  0  0
   40.3131   30.6486   43.7496 O   0  0  0  0  0  0  0  0  0  0  0  0
   39.2506   29.7519   43.7806 C   0  0  0  0  0  0  0  0  0  0  0  0
   37.4898   29.2941   42.2136 O   0  0  0  0  0  0  0  0  0  0  0  0
   37.2525   32.4080   49.6356 H   0  0  0  0  0  0  0  0  0  0  0  0
   39.0550   34.1052   49.7735 H   0  0  0  0  0  0  0  0  0  0  0  0
   40.5429   34.3342   47.8244 H   0  0  0  0  0  0  0  0  0  0  0  0
   38.0890   29.5678   49.6476 H   0  0  0  0  0  0  0  0  0  0  0  0
   34.1561   30.7314   48.4582 H   0  0  0  0  0  0  0  0  0  0  0  0
   34.6969   28.7872   52.1104 H   0  0  0  0  0  0  0  0  0  0  0  0
   38.5003   32.8231   44.0439 H   0  0  0  0  0  0  0  0  0  0  0  0
   39.7507   33.8265   43.1851 H   0  0  0  0  0  0  0  0  0  0  0  0
   39.4836   29.2650   41.6905 H   0  0  0  0  0  0  0  0  0  0  0  0
   39.1080   31.4142   41.0385 H   0  0  0  0  0  0  0  0  0  0  0  0
   37.8752   31.7762   42.3599 H   0  0  0  0  0  0  0  0  0  0  0  0
   40.8395   32.0144   42.3761 H   0  0  0  0  0  0  0  0  0  0  0  0
   38.4401   30.0760   44.4367 H   0  0  0  0  0  0  0  0  0  0  0  0
   39.6216   28.7299   44.0298 H   0  0  0  0  0  0  0  0  0  0  0  0
   37.3257   28.2616   41.3346 C   0  0  0  0  0  0  0  0  0  0  0  0
   38.6050   27.5348   41.3330 N   0  0  0  0  0  4  0  0  0  0  0  0
   38.6682   26.5350   40.3126 C   0  0  0  0  0  0  0  0  0  0  0  0
   38.0447   26.8568   39.4556 H   0  0  0  0  0  0  0  0  0  0  0  0
   38.9132   27.0215   42.6593 C   0  0  0  0  0  0  0  0  0  0  0  0
   39.9792   27.2592   42.9339 H   0  0  0  0  0  0  0  0  0  0  0  0
   36.5834   27.5473   41.7758 H   0  0  0  0  0  0  0  0  0  0  0  0
   37.0933   28.5280   40.3015 H   0  0  0  0  0  0  0  0  0  0  0  0
   39.3230   28.2915   41.1405 H   0  0  0  0  0  0  0  0  0  0  0  0
   38.3761   25.5393   40.7189 H   0  0  0  0  0  0  0  0  0  0  0  0
   39.7465   26.5056   39.9779 H   0  0  0  0  0  0  0  0  0  0  0  0
   38.7814   25.9361   42.7452 H   0  0  0  0  0  0  0  0  0  0  0  0
   38.2924   27.4991   43.4463 H   0  0  0  0  0  0  0  0  0  0  0  0
  1  2  2  0
  2  3  1  0
  4  3  2  0
  5  4  1  0
  6  5  2  0
  6  1  1  0
  7  1  1  0
  7 10  1  0
  8  7  2  0
  9 14  2  0
 10 11  2  0
 10  9  1  0
 11 12  1  0
 12 13  2  0
 14 13  1  0
 15  5  1  0
 16 15  1  0
 17 22  1  0
 17 21  1  0
 18 17  1  0
 18 19  1  0
 19 20  1  0
 19 16  1  0
 20 21  1  0
  2 23  1  0
  3 24  1  0
  4 25  1  0
  9 26  1  0
 11 27  1  0
 13 28  1  0
 16 29  1  0
 16 30  1  0
 17 31  1  6
 18 32  1  0
 18 33  1  0
 19 34  1  6
 21 35  1  0
 21 36  1  0
 37 38  1  0
 38 39  1  0
 39 40  1  0
 38 41  1  0
 41 42  1  0
 37 43  1  0
 37 44  1  0
 38 45  1  0
 39 46  1  0
 39 47  1  0
 41 48  1  0
 41 49  1  0
 22 37  1  0
M  CHG  1  38   1
M  END
>  <DihAtoms>  (1) 
16,21,36,37

>  <DihDeg>  (1) 
179.9999190931934

$$$$
