
     RDKit          3D

 42 44  0  0  0  0  0  0  0  0999 V2000
   35.8126   30.5468   49.0729 C   0  0  1  0  0  0  0  0  0  0  0  0
   35.9025   29.1232   48.8440 C   0  0  1  0  0  0  0  0  0  0  0  0
   36.0611   29.5917   50.2524 C   0  0  0  0  0  0  0  0  0  0  0  0
   37.0024   31.4543   48.8259 C   0  0  0  0  0  0  0  0  0  0  0  0
   37.1883   32.5281   49.6995 C   0  0  0  0  0  0  0  0  0  0  0  0
   38.2743   33.3421   49.4146 C   0  0  0  0  0  0  0  0  0  0  0  0
   39.0911   33.0858   48.3427 N   0  0  0  0  0  0  0  0  0  0  0  0
   38.8703   32.0283   47.5202 C   0  0  0  0  0  0  0  0  0  0  0  0
   37.8179   31.2094   47.7672 N   0  0  0  0  0  0  0  0  0  0  0  0
   33.9751   29.0509   47.3742 C   0  0  2  0  0  0  0  0  0  0  0  0
   34.7487   28.2713   48.4108 C   0  0  2  0  0  0  0  0  0  0  0  0
   33.8748   28.0568   49.4296 O   0  0  0  0  0  0  0  0  0  0  0  0
   32.5756   28.1496   49.0019 C   0  0  0  0  0  0  0  0  0  0  0  0
   32.6056   28.3997   47.4941 C   0  0  1  0  0  0  0  0  0  0  0  0
   34.4717   28.9574   46.1017 O   0  0  0  0  0  0  0  0  0  0  0  0
   31.5739   29.1777   47.0702 O   0  0  0  0  0  0  0  0  0  0  0  0
   34.9003   31.1512   49.2571 H   0  0  0  0  0  0  0  0  0  0  0  0
   36.8640   28.7798   48.3581 H   0  0  0  0  0  0  0  0  0  0  0  0
   35.2387   29.4176   50.9748 H   0  0  0  0  0  0  0  0  0  0  0  0
   37.0648   29.5630   50.7094 H   0  0  0  0  0  0  0  0  0  0  0  0
   36.5458   32.7172   50.5302 H   0  0  0  0  0  0  0  0  0  0  0  0
   38.5163   34.2019   50.0211 H   0  0  0  0  0  0  0  0  0  0  0  0
   39.4946   31.8052   46.6738 H   0  0  0  0  0  0  0  0  0  0  0  0
   33.8139   30.1097   47.6893 H   0  0  0  0  0  0  0  0  0  0  0  0
   35.0428   27.3136   47.9606 H   0  0  0  0  0  0  0  0  0  0  0  0
   31.9549   27.2935   49.2728 H   0  0  0  0  0  0  0  0  0  0  0  0
   32.1226   29.0644   49.4534 H   0  0  0  0  0  0  0  0  0  0  0  0
   32.6398   27.3712   47.0561 H   0  0  0  0  0  0  0  0  0  0  0  0
   34.3438   29.8341   45.6564 H   0  0  0  0  0  0  0  0  0  0  0  0
   30.7167   28.5541   46.1973 C   0  0  0  0  0  0  0  0  0  0  0  0
   29.3466   28.9612   46.2379 N   0  0  0  0  0  4  0  0  0  0  0  0
   28.4475   27.7960   46.0875 C   0  0  0  0  0  0  0  0  0  0  0  0
   28.6930   27.2915   45.1468 H   0  0  0  0  0  0  0  0  0  0  0  0
   28.9616   29.8724   45.1886 C   0  0  0  0  0  0  0  0  0  0  0  0
   28.0111   29.5559   44.6660 H   0  0  0  0  0  0  0  0  0  0  0  0
   31.1334   28.5903   45.1451 H   0  0  0  0  0  0  0  0  0  0  0  0
   30.7597   27.4562   46.4426 H   0  0  0  0  0  0  0  0  0  0  0  0
   29.1551   29.3818   47.1861 H   0  0  0  0  0  0  0  0  0  0  0  0
   28.5132   27.1355   46.9782 H   0  0  0  0  0  0  0  0  0  0  0  0
   27.4313   28.2294   45.9851 H   0  0  0  0  0  0  0  0  0  0  0  0
   29.6989   29.9575   44.3648 H   0  0  0  0  0  0  0  0  0  0  0  0
   28.6967   30.8911   45.5923 H   0  0  0  0  0  0  0  0  0  0  0  0
  1  3  1  0
  2  1  1  0
  2  3  1  0
  4  1  1  0
  4  5  2  0
  6  5  1  0
  7  6  2  0
  8  9  2  0
  8  7  1  0
  9  4  1  0
 10 15  1  0
 10 14  1  0
 10 11  1  0
 11  2  1  0
 11 12  1  0
 13 12  1  0
 14 16  1  0
 14 13  1  0
  1 17  1  1
  2 18  1  6
  3 19  1  0
  3 20  1  0
  5 21  1  0
  6 22  1  0
  8 23  1  0
 10 24  1  1
 11 25  1  6
 13 26  1  0
 13 27  1  0
 14 28  1  6
 15 29  1  0
 30 31  1  0
 31 32  1  0
 32 33  1  0
 31 34  1  0
 34 35  1  0
 30 36  1  0
 30 37  1  0
 31 38  1  0
 32 39  1  0
 32 40  1  0
 34 41  1  0
 34 42  1  0
 16 30  1  0
M  ISO  8  17  13  18  13  19  13  20  13  21  14  22  14  23  14  24  13
M  CHG  1  31   1
M  ISO  7  25  13  26  13  27  13  28  13  29   3  33   8  35   8
M  END
>  <DihAtoms>  (1) 
13,15,29,30

>  <DihDeg>  (1) 
-61.26379529386352

$$$$
