
     RDKit          3D

 49 50  0  0  0  0  0  0  0  0999 V2000
   37.6086   30.4638   48.5216 Cl  0  0  0  0  0  0  0  0  0  0  0  0
   36.4440   30.3215   47.1919 C   0  0  0  0  0  0  0  0  0  0  0  0
   36.8185   30.6948   45.9495 C   0  0  0  0  0  0  0  0  0  0  0  0
   35.9268   30.5887   44.9085 C   0  0  0  0  0  0  0  0  0  0  0  0
   34.6572   30.0970   45.1715 C   0  0  0  0  0  0  0  0  0  0  0  0
   34.3370   29.7296   46.4855 C   0  0  0  0  0  0  0  0  0  0  0  0
   35.2037   29.8284   47.5137 C   0  0  0  0  0  0  0  0  0  0  0  0
   39.8177   32.8397   45.9814 C   0  0  0  0  0  0  0  0  0  0  0  0
   40.6847   32.0942   45.0987 C   0  0  0  0  0  0  0  0  0  0  0  0
   40.1969   30.8986   44.5405 C   0  0  0  0  0  0  0  0  0  0  0  0
   38.9380   30.4977   44.8533 N   0  0  0  0  0  0  0  0  0  0  0  0
   38.1488   31.2198   45.6853 C   0  0  0  0  0  0  0  0  0  0  0  0
   38.5920   32.3651   46.2310 N   0  0  0  0  0  0  0  0  0  0  0  0
   41.0722   30.2178   43.7001 N   0  0  0  0  0  0  0  0  0  0  0  0
   34.8338   29.4350   48.8437 C   0  0  0  0  0  0  0  0  0  0  0  0
   34.1750   28.1350   49.0627 C   0  0  0  0  0  0  0  0  0  0  0  0
   32.8555   28.2895   49.3978 O   0  0  0  0  0  0  0  0  0  0  0  0
   32.6524   26.7133   47.2991 O   0  0  0  0  0  0  0  0  0  0  0  0
   31.8710   27.5355   48.2837 P   0  0  2  0  0  0  0  0  0  0  0  0
   31.0262   28.7905   47.4504 O   0  0  0  0  0  0  0  0  0  0  0  0
   30.7082   26.5846   48.9919 O   0  0  0  0  0  0  0  0  0  0  0  0
   29.8509   27.3462   49.7608 C   0  0  0  0  0  0  0  0  0  0  0  0
   29.3102   26.6309   50.8294 F   0  0  0  0  0  0  0  0  0  0  0  0
   30.5017   28.4334   50.3178 F   0  0  0  0  0  0  0  0  0  0  0  0
   28.7920   27.8034   48.9830 F   0  0  0  0  0  0  0  0  0  0  0  0
   36.2532   30.8974   43.9079 H   0  0  0  0  0  0  0  0  0  0  0  0
   34.0349   30.0531   44.2901 H   0  0  0  0  0  0  0  0  0  0  0  0
   33.3314   29.3935   46.4529 H   0  0  0  0  0  0  0  0  0  0  0  0
   40.1984   33.7538   46.4046 H   0  0  0  0  0  0  0  0  0  0  0  0
   41.6623   32.5264   44.9346 H   0  0  0  0  0  0  0  0  0  0  0  0
   40.9493   29.7707   42.7736 H   0  0  0  0  0  0  0  0  0  0  0  0
   42.0792   30.0785   43.9728 H   0  0  0  0  0  0  0  0  0  0  0  0
   34.1781   30.2462   49.2674 H   0  0  0  0  0  0  0  0  0  0  0  0
   35.7368   29.4608   49.4872 H   0  0  0  0  0  0  0  0  0  0  0  0
   34.6709   27.5021   49.8348 H   0  0  0  0  0  0  0  0  0  0  0  0
   34.2592   27.5337   48.1176 H   0  0  0  0  0  0  0  0  0  0  0  0
   30.5308   28.2279   46.2761 C   0  0  0  0  0  0  0  0  0  0  0  0
   29.1704   28.5808   46.0040 N   0  0  0  0  0  4  0  0  0  0  0  0
   28.8270   29.9063   46.4786 C   0  0  0  0  0  0  0  0  0  0  0  0
   29.1392   30.6882   45.7530 H   0  0  0  0  0  0  0  0  0  0  0  0
   28.9698   28.5656   44.5669 C   0  0  0  0  0  0  0  0  0  0  0  0
   29.9423   28.5078   44.0410 H   0  0  0  0  0  0  0  0  0  0  0  0
   31.1536   28.5035   45.4205 H   0  0  0  0  0  0  0  0  0  0  0  0
   30.5720   27.1086   46.3341 H   0  0  0  0  0  0  0  0  0  0  0  0
   28.4790   27.9177   46.4206 H   0  0  0  0  0  0  0  0  0  0  0  0
   27.7096   29.9459   46.5222 H   0  0  0  0  0  0  0  0  0  0  0  0
   29.2045   30.1184   47.4995 H   0  0  0  0  0  0  0  0  0  0  0  0
   28.3685   29.4423   44.2423 H   0  0  0  0  0  0  0  0  0  0  0  0
   28.4189   27.6425   44.2677 H   0  0  0  0  0  0  0  0  0  0  0  0
  2  7  2  0
  2  1  1  0
  3  2  1  0
  4  5  1  0
  4  3  2  0
  5  6  2  0
  6  7  1  0
  7 15  1  0
  8 13  2  0
  9  8  1  0
 10 11  1  0
 10  9  2  0
 11 12  2  0
 12  3  1  0
 12 13  1  0
 14 10  1  0
 15 16  1  0
 16 17  1  0
 19 18  2  0
 19 21  1  1
 19 17  1  0
 20 19  1  0
 21 22  1  0
 22 24  1  0
 22 23  1  0
 25 22  1  0
  4 26  1  0
  5 27  1  0
  6 28  1  0
  8 29  1  0
  9 30  1  0
 14 31  1  0
 14 32  1  0
 15 33  1  0
 15 34  1  0
 16 35  1  0
 16 36  1  0
 37 38  1  0
 38 39  1  0
 39 40  1  0
 38 41  1  0
 41 42  1  0
 37 43  1  0
 37 44  1  0
 38 45  1  0
 39 46  1  0
 39 47  1  0
 41 48  1  0
 41 49  1  0
 20 37  1  0
M  CHG  1  38   1
M  END
>  <DihAtoms>  (1) 
18,19,36,37

>  <DihDeg>  (1) 
-179.99966503032775

$$$$
