
     RDKit          3D

 47 49  0  0  0  0  0  0  0  0999 V2000
   38.2112   30.9926   47.6000 C   0  0  1  0  0  0  0  0  0  0  0  0
   37.2328   29.8469   47.7834 C   0  0  2  0  0  0  0  0  0  0  0  0
   36.1553   30.1385   46.9289 O   0  0  0  0  0  0  0  0  0  0  0  0
   36.8124   30.6591   45.8400 C   0  0  0  0  0  0  0  0  0  0  0  0
   37.5807   31.8576   46.6381 C   0  0  2  0  0  0  0  0  0  0  0  0
   37.1124   29.5053   51.5192 C   0  0  0  0  0  0  0  0  0  0  0  0
   37.6893   29.6626   50.2218 C   0  0  0  0  0  0  0  0  0  0  0  0
   36.7565   29.6866   49.1620 C   0  0  0  0  0  0  0  0  0  0  0  0
   35.3888   29.5622   49.4051 N   0  0  0  0  0  0  0  0  0  0  0  0
   34.9349   29.4168   50.6641 C   0  0  0  0  0  0  0  0  0  0  0  0
   35.7811   29.3886   51.7080 N   0  0  0  0  0  0  0  0  0  0  0  0
   38.7314   31.4973   48.7181 O   0  0  0  0  0  0  0  0  0  0  0  0
   38.5192   32.4070   45.8115 O   0  0  0  0  0  0  0  0  0  0  0  0
   38.6733   32.6624   43.4343 C   0  0  1  0  0  0  0  0  0  0  0  0
   38.8937   31.8864   44.6958 C   0  0  1  0  0  0  0  0  0  0  0  0
   40.4431   31.8887   44.7881 C   0  0  0  0  0  0  0  0  0  0  0  0
   40.7420   33.2042   44.3995 O   0  0  0  0  0  0  0  0  0  0  0  0
   39.8757   33.5497   43.3759 C   0  0  0  0  0  0  0  0  0  0  0  0
   38.7112   31.6945   42.3964 O   0  0  0  0  0  0  0  0  0  0  0  0
   39.1163   30.5121   47.0481 H   0  0  0  0  0  0  0  0  0  0  0  0
   37.6768   28.8997   47.4451 H   0  0  0  0  0  0  0  0  0  0  0  0
   36.1677   31.1618   45.1651 H   0  0  0  0  0  0  0  0  0  0  0  0
   37.4446   29.9409   45.4472 H   0  0  0  0  0  0  0  0  0  0  0  0
   36.6682   32.3869   46.6643 H   0  0  0  0  0  0  0  0  0  0  0  0
   37.7493   29.4765   52.3929 H   0  0  0  0  0  0  0  0  0  0  0  0
   38.7375   29.7389   50.1263 H   0  0  0  0  0  0  0  0  0  0  0  0
   33.8583   29.3345   50.6755 H   0  0  0  0  0  0  0  0  0  0  0  0
   38.6679   32.4647   48.8501 H   0  0  0  0  0  0  0  0  0  0  0  0
   37.7203   33.1962   43.4823 H   0  0  0  0  0  0  0  0  0  0  0  0
   38.6842   30.8085   44.4850 H   0  0  0  0  0  0  0  0  0  0  0  0
   40.7686   31.7101   45.8153 H   0  0  0  0  0  0  0  0  0  0  0  0
   40.8628   31.1981   44.0428 H   0  0  0  0  0  0  0  0  0  0  0  0
   40.4551   33.3750   42.4208 H   0  0  0  0  0  0  0  0  0  0  0  0
   39.6264   34.6147   43.3505 H   0  0  0  0  0  0  0  0  0  0  0  0
   37.5480   31.6316   41.6736 C   0  0  0  0  0  0  0  0  0  0  0  0
   37.1986   30.2356   41.4931 N   0  0  0  0  0  4  0  0  0  0  0  0
   37.6859   29.7128   40.2408 C   0  0  0  0  0  0  0  0  0  0  0  0
   36.9739   29.8332   39.4010 H   0  0  0  0  0  0  0  0  0  0  0  0
   35.7792   30.0836   41.6482 C   0  0  0  0  0  0  0  0  0  0  0  0
   35.2978   30.0390   40.6518 H   0  0  0  0  0  0  0  0  0  0  0  0
   36.7515   32.0845   42.3314 H   0  0  0  0  0  0  0  0  0  0  0  0
   37.5207   32.2180   40.7474 H   0  0  0  0  0  0  0  0  0  0  0  0
   37.6404   29.6763   42.2618 H   0  0  0  0  0  0  0  0  0  0  0  0
   37.8784   28.6309   40.3747 H   0  0  0  0  0  0  0  0  0  0  0  0
   38.6618   30.1968   40.0349 H   0  0  0  0  0  0  0  0  0  0  0  0
   35.3090   30.9506   42.1815 H   0  0  0  0  0  0  0  0  0  0  0  0
   35.5218   29.1889   42.2616 H   0  0  0  0  0  0  0  0  0  0  0  0
  1  2  1  0
  1 12  1  0
  2  8  1  0
  3  2  1  0
  4  5  1  0
  4  3  1  0
  5  1  1  0
  6 11  2  0
  7  6  1  0
  8  9  1  0
  8  7  2  0
  9 10  2  0
 10 11  1  0
 13  5  1  0
 14 19  1  0
 14 15  1  0
 15 16  1  0
 15 13  1  0
 17 16  1  0
 18 14  1  0
 18 17  1  0
  1 20  1  6
  2 21  1  6
  4 22  1  0
  4 23  1  0
  5 24  1  1
  6 25  1  0
  7 26  1  0
 10 27  1  0
 12 28  1  0
 14 29  1  1
 15 30  1  6
 16 31  1  0
 16 32  1  0
 18 33  1  0
 18 34  1  0
 35 36  1  0
 36 37  1  0
 37 38  1  0
 36 39  1  0
 39 40  1  0
 35 41  1  0
 35 42  1  0
 36 43  1  0
 37 44  1  0
 37 45  1  0
 39 46  1  0
 39 47  1  0
 19 35  1  0
M  CHG  1  36   1
M  END
>  <DihAtoms>  (1) 
13,18,34,35

>  <DihDeg>  (1) 
179.9992277957064

$$$$
