
     RDKit          3D

 28 28  0  0  0  0  0  0  0  0999 V2000
   37.3371   30.1576   51.3469 C   0  0  0  0  0  0  0  0  0  0  0  0
   37.9917   30.5130   50.1677 C   0  0  0  0  0  0  0  0  0  0  0  0
   37.4232   30.1516   48.9540 C   0  0  0  0  0  0  0  0  0  0  0  0
   36.2420   29.4613   49.0005 N   0  0  0  0  0  0  0  0  0  0  0  0
   35.6398   29.1359   50.1536 C   0  0  0  0  0  0  0  0  0  0  0  0
   36.1870   29.4839   51.3290 N   0  0  0  0  0  0  0  0  0  0  0  0
   37.8610   30.3783   47.6947 O   0  0  0  0  0  0  0  0  0  0  0  0
   39.0634   32.7328   48.1435 O   0  0  0  0  0  0  0  0  0  0  0  0
   38.6928   31.7313   47.1076 P   0  0  2  0  0  0  0  0  0  0  0  0
   37.8272   32.4654   45.8452 O   0  0  0  0  0  0  0  0  0  0  0  0
   40.1548   31.1609   46.4104 O   0  0  0  0  0  0  0  0  0  0  0  0
   37.8396   30.4734   52.2670 H   0  0  0  0  0  0  0  0  0  0  0  0
   38.9215   31.0549   50.0668 H   0  0  0  0  0  0  0  0  0  0  0  0
   34.7015   28.5871   50.1713 H   0  0  0  0  0  0  0  0  0  0  0  0
   37.6107   33.4115   46.0645 H   0  0  0  0  0  0  0  0  0  0  0  0
   40.2392   31.4328   45.0675 C   0  0  0  0  0  0  0  0  0  0  0  0
   39.3984   30.5720   44.2433 N   0  0  0  0  0  4  0  0  0  0  0  0
   39.8760   30.7163   42.8798 C   0  0  0  0  0  0  0  0  0  0  0  0
   39.0442   30.6618   42.1491 H   0  0  0  0  0  0  0  0  0  0  0  0
   39.4803   29.1878   44.6062 C   0  0  0  0  0  0  0  0  0  0  0  0
   39.5709   28.9965   45.6941 H   0  0  0  0  0  0  0  0  0  0  0  0
   41.2652   31.3251   44.6732 H   0  0  0  0  0  0  0  0  0  0  0  0
   39.8594   32.4587   44.9105 H   0  0  0  0  0  0  0  0  0  0  0  0
   38.3884   30.8919   44.3063 H   0  0  0  0  0  0  0  0  0  0  0  0
   40.5680   29.8826   42.6686 H   0  0  0  0  0  0  0  0  0  0  0  0
   40.4779   31.6442   42.7597 H   0  0  0  0  0  0  0  0  0  0  0  0
   38.5746   28.6899   44.1666 H   0  0  0  0  0  0  0  0  0  0  0  0
   40.3362   28.7415   44.0601 H   0  0  0  0  0  0  0  0  0  0  0  0
  2  1  2  0
  3  4  2  0
  3  2  1  0
  4  5  1  0
  5  6  2  0
  6  1  1  0
  7  3  1  0
  9  7  1  1
  9  8  2  0
 10  9  1  0
 11  9  1  0
  1 12  1  0
  2 13  1  0
  5 14  1  0
 10 15  1  0
 16 17  1  0
 17 18  1  0
 18 19  1  0
 17 20  1  0
 20 21  1  0
 16 22  1  0
 16 23  1  0
 17 24  1  0
 18 25  1  0
 18 26  1  0
 20 27  1  0
 20 28  1  0
 11 16  1  0
M  CHG  1  17   1
M  ISO  6  12  14  13  14  14  14  15   3  19   8  21   8
M  END
>  <DihAtoms>  (1) 
8,10,15,16

>  <DihDeg>  (1) 
-179.99989913271642

$$$$
