
     RDKit          3D

 28 28  0  0  0  0  0  0  0  0999 V2000
   35.6497   30.4682   49.7478 C   0  0  0  0  0  0  0  0  0  0  0  0
   35.9688   29.4742   50.6704 C   0  0  0  0  0  0  0  0  0  0  0  0
   37.2379   29.5086   51.2599 C   0  0  0  0  0  0  0  0  0  0  0  0
   38.0899   30.5036   50.9050 N   0  0  0  0  0  0  0  0  0  0  0  0
   37.7433   31.4525   50.0040 C   0  0  0  0  0  0  0  0  0  0  0  0
   36.5246   31.4365   49.4247 N   0  0  0  0  0  0  0  0  0  0  0  0
   34.4406   30.5890   49.0676 O   0  0  0  0  0  0  0  0  0  0  0  0
   35.5043   30.1605   46.6424 O   0  0  0  0  0  0  0  0  0  0  0  0
   34.2420   30.0163   47.4570 P   0  0  1  0  0  0  0  0  0  0  0  0
   33.7515   28.4040   47.5963 O   0  0  0  0  0  0  0  0  0  0  0  0
   33.0493   30.9365   46.6819 O   0  0  0  0  0  0  0  0  0  0  0  0
   35.2184   28.7500   50.8654 H   0  0  0  0  0  0  0  0  0  0  0  0
   37.4808   28.7345   51.9756 H   0  0  0  0  0  0  0  0  0  0  0  0
   38.4643   32.2421   49.7441 H   0  0  0  0  0  0  0  0  0  0  0  0
   34.5424   27.8393   47.4047 H   0  0  0  0  0  0  0  0  0  0  0  0
   33.1999   32.2829   46.8813 C   0  0  0  0  0  0  0  0  0  0  0  0
   31.9324   32.9131   46.4802 N   0  0  0  0  0  4  0  0  0  0  0  0
   32.1239   34.2572   46.0211 C   0  0  0  0  0  0  0  0  0  0  0  0
   32.0611   34.2741   44.9127 H   0  0  0  0  0  0  0  0  0  0  0  0
   31.3228   32.1300   45.4396 C   0  0  0  0  0  0  0  0  0  0  0  0
   32.0424   31.5797   44.8006 H   0  0  0  0  0  0  0  0  0  0  0  0
   33.9275   32.6456   46.0969 H   0  0  0  0  0  0  0  0  0  0  0  0
   33.5283   32.5852   47.8827 H   0  0  0  0  0  0  0  0  0  0  0  0
   31.2973   32.8843   47.3318 H   0  0  0  0  0  0  0  0  0  0  0  0
   31.3054   34.8779   46.4503 H   0  0  0  0  0  0  0  0  0  0  0  0
   33.0985   34.6704   46.3494 H   0  0  0  0  0  0  0  0  0  0  0  0
   30.5996   31.3997   45.8642 H   0  0  0  0  0  0  0  0  0  0  0  0
   30.7255   32.7871   44.7434 H   0  0  0  0  0  0  0  0  0  0  0  0
  1  2  2  0
  2  3  1  0
  4  3  2  0
  5  4  1  0
  6  1  1  0
  6  5  2  0
  7  1  1  0
  8  9  2  0
  9 10  1  1
  9  7  1  0
 11  9  1  0
  2 12  1  0
  3 13  1  0
  5 14  1  0
 10 15  1  0
 16 17  1  0
 17 18  1  0
 18 19  1  0
 17 20  1  0
 20 21  1  0
 16 22  1  0
 16 23  1  0
 17 24  1  0
 18 25  1  0
 18 26  1  0
 20 27  1  0
 20 28  1  0
 11 16  1  0
M  CHG  1  17   1
M  END
>  <DihAtoms>  (1) 
8,10,15,16

>  <DihDeg>  (1) 
-179.9978177614582

$$$$
