
     RDKit          3D

 28 28  0  0  0  0  0  0  0  0999 V2000
   35.6503   30.4693   49.7439 C   0  0  0  0  0  0  0  0  0  0  0  0
   35.9725   29.4806   50.6713 C   0  0  0  0  0  0  0  0  0  0  0  0
   37.2359   29.5074   51.2682 C   0  0  0  0  0  0  0  0  0  0  0  0
   38.0850   30.5078   50.9044 N   0  0  0  0  0  0  0  0  0  0  0  0
   37.7508   31.4581   50.0010 C   0  0  0  0  0  0  0  0  0  0  0  0
   36.5253   31.4338   49.4208 N   0  0  0  0  0  0  0  0  0  0  0  0
   34.4410   30.5748   49.0704 O   0  0  0  0  0  0  0  0  0  0  0  0
   35.4970   30.1523   46.6477 O   0  0  0  0  0  0  0  0  0  0  0  0
   34.2245   30.0136   47.4588 P   0  0  1  0  0  0  0  0  0  0  0  0
   33.7586   28.3972   47.5835 O   0  0  0  0  0  0  0  0  0  0  0  0
   33.0613   30.9549   46.6869 O   0  0  0  0  0  0  0  0  0  0  0  0
   35.2371   28.7526   50.8785 H   0  0  0  0  0  0  0  0  0  0  0  0
   37.5000   28.7474   51.9891 H   0  0  0  0  0  0  0  0  0  0  0  0
   38.4675   32.2457   49.7383 H   0  0  0  0  0  0  0  0  0  0  0  0
   33.1115   30.8066   45.7058 H   0  0  0  0  0  0  0  0  0  0  0  0
   32.5449   28.2242   48.2003 C   0  0  0  0  0  0  0  0  0  0  0  0
   32.5394   28.3999   49.6216 N   0  0  0  0  0  4  0  0  0  0  0  0
   32.3413   27.1366   50.2980 C   0  0  0  0  0  0  0  0  0  0  0  0
   31.2491   26.9718   50.5303 H   0  0  0  0  0  0  0  0  0  0  0  0
   31.3900   29.2500   49.9511 C   0  0  0  0  0  0  0  0  0  0  0  0
   31.4362   29.6352   50.9810 H   0  0  0  0  0  0  0  0  0  0  0  0
   32.2370   27.1645   47.9849 H   0  0  0  0  0  0  0  0  0  0  0  0
   31.8405   28.9395   47.7187 H   0  0  0  0  0  0  0  0  0  0  0  0
   33.3886   28.9151   49.9687 H   0  0  0  0  0  0  0  0  0  0  0  0
   32.6488   26.2554   49.7147 H   0  0  0  0  0  0  0  0  0  0  0  0
   32.8629   27.0870   51.2890 H   0  0  0  0  0  0  0  0  0  0  0  0
   31.4046   30.0767   49.2047 H   0  0  0  0  0  0  0  0  0  0  0  0
   30.4643   28.6614   49.7957 H   0  0  0  0  0  0  0  0  0  0  0  0
  1  2  2  0
  2  3  1  0
  4  3  2  0
  5  4  1  0
  6  1  1  0
  6  5  2  0
  7  1  1  0
  8  9  2  0
  9 10  1  1
  9  7  1  0
 11  9  1  0
  2 12  1  0
  3 13  1  0
  5 14  1  0
 11 15  1  0
 16 17  1  0
 17 18  1  0
 18 19  1  0
 17 20  1  0
 20 21  1  0
 16 22  1  0
 16 23  1  0
 17 24  1  0
 18 25  1  0
 18 26  1  0
 20 27  1  0
 20 28  1  0
 10 16  1  0
M  CHG  1  17   1
M  END
>  <DihAtoms>  (1) 
8,9,15,16

>  <DihDeg>  (1) 
60.14962306176177

$$$$
