
     RDKit          3D

 36 37  0  0  0  0  0  0  0  0999 V2000
   34.8078   29.5308   47.4986 S   0  0  0  0  0  0  0  0  0  0  0  0
   37.3735   29.4749   50.5280 C   0  0  0  0  0  0  0  0  0  0  0  0
   37.9744   30.7333   50.5271 C   0  0  0  0  0  0  0  0  0  0  0  0
   37.5647   31.6489   49.5368 C   0  0  0  0  0  0  0  0  0  0  0  0
   36.6175   31.2551   48.6499 N   0  0  0  0  0  0  0  0  0  0  0  0
   36.0599   30.0268   48.6846 C   0  0  0  0  0  0  0  0  0  0  0  0
   36.4285   29.1185   49.6229 N   0  0  0  0  0  0  0  0  0  0  0  0
   32.3836   28.3571   47.4912 C   0  0  2  0  0  0  0  0  0  0  0  0
   33.6247   28.4117   48.3520 C   0  0  1  0  0  0  0  0  0  0  0  0
   34.1889   27.1596   48.3551 O   0  0  0  0  0  0  0  0  0  0  0  0
   33.5609   26.3712   47.4062 C   0  0  0  0  0  0  0  0  0  0  0  0
   32.8324   27.3233   46.4665 C   0  0  1  0  0  0  0  0  0  0  0  0
   32.1449   29.5904   46.8756 O   0  0  0  0  0  0  0  0  0  0  0  0
   31.7944   26.7103   45.8326 O   0  0  0  0  0  0  0  0  0  0  0  0
   37.6392   28.7186   51.2611 H   0  0  0  0  0  0  0  0  0  0  0  0
   38.7203   30.9919   51.2543 H   0  0  0  0  0  0  0  0  0  0  0  0
   38.0031   32.6379   49.4965 H   0  0  0  0  0  0  0  0  0  0  0  0
   31.5439   27.9858   48.0797 H   0  0  0  0  0  0  0  0  0  0  0  0
   33.4449   28.7564   49.3820 H   0  0  0  0  0  0  0  0  0  0  0  0
   34.3608   25.8076   46.8993 H   0  0  0  0  0  0  0  0  0  0  0  0
   32.8383   25.7364   47.9709 H   0  0  0  0  0  0  0  0  0  0  0  0
   33.5617   27.7693   45.7920 H   0  0  0  0  0  0  0  0  0  0  0  0
   32.7145   29.5961   46.0609 H   0  0  0  0  0  0  0  0  0  0  0  0
   31.7658   26.7115   44.4712 C   0  0  0  0  0  0  0  0  0  0  0  0
   32.4836   25.4991   44.0545 N   0  0  0  0  0  4  0  0  0  0  0  0
   32.1981   24.4172   45.0107 C   0  0  0  0  0  0  0  0  0  0  0  0
   32.5418   24.6391   46.0251 H   0  0  0  0  0  0  0  0  0  0  0  0
   31.9637   25.0492   42.7757 C   0  0  0  0  0  0  0  0  0  0  0  0
   32.2871   24.0081   42.5919 H   0  0  0  0  0  0  0  0  0  0  0  0
   30.7036   26.6010   44.1621 H   0  0  0  0  0  0  0  0  0  0  0  0
   32.1647   27.5902   43.9751 H   0  0  0  0  0  0  0  0  0  0  0  0
   33.5001   25.6395   44.0758 H   0  0  0  0  0  0  0  0  0  0  0  0
   32.5271   23.4624   44.5842 H   0  0  0  0  0  0  0  0  0  0  0  0
   31.0730   24.3419   45.0495 H   0  0  0  0  0  0  0  0  0  0  0  0
   32.3585   25.7329   41.9773 H   0  0  0  0  0  0  0  0  0  0  0  0
   30.8599   25.1699   42.8191 H   0  0  0  0  0  0  0  0  0  0  0  0
  1  6  1  0
  3  2  2  0
  4  3  1  0
  5  6  1  0
  5  4  2  0
  6  7  2  0
  7  2  1  0
  8 13  1  0
  8  9  1  0
  9  1  1  0
  9 10  1  0
 11 10  1  0
 12 14  1  0
 12 11  1  0
 12  8  1  0
  2 15  1  0
  3 16  1  0
  4 17  1  0
  8 18  1  1
  9 19  1  1
 11 20  1  0
 11 21  1  0
 12 22  1  6
 13 23  1  0
 24 25  1  0
 25 26  1  0
 26 27  1  0
 25 28  1  0
 28 29  1  0
 24 30  1  0
 24 31  1  0
 25 32  1  0
 26 33  1  0
 26 34  1  0
 28 35  1  0
 28 36  1  0
 14 24  1  0
M  ISO  8  15  14  16  14  17  14  18  13  19  13  20  13  21  13  22  13
M  CHG  1  25   1
M  ISO  3  23   3  27   8  29   8
M  END
>  <DihAtoms>  (1) 
11,13,23,24

>  <DihDeg>  (1) 
-179.9997862594313

$$$$
