
     RDKit          3D

 40 42  0  0  0  0  0  0  0  0999 V2000
   35.8217   29.1399   49.8026 C   0  0  0  0  0  0  0  0  0  0  0  0
   34.8016   29.6655   50.5650 C   0  0  0  0  0  0  0  0  0  0  0  0
   33.6000   29.1259   50.0851 C   0  0  0  0  0  0  0  0  0  0  0  0
   33.9687   28.2970   49.0509 C   0  0  0  0  0  0  0  0  0  0  0  0
   35.2774   28.3376   48.9219 O   0  0  0  0  0  0  0  0  0  0  0  0
   37.2144   29.4860   50.0275 C   0  0  0  0  0  0  0  0  0  0  0  0
   37.8581   28.8780   50.8956 O   0  0  0  0  0  0  0  0  0  0  0  0
   37.7673   30.5322   49.2128 C   0  0  0  0  0  0  0  0  0  0  0  0
   38.1131   31.7120   49.8521 C   0  0  0  0  0  0  0  0  0  0  0  0
   38.6515   32.7505   49.0851 C   0  0  0  0  0  0  0  0  0  0  0  0
   38.8094   32.5455   47.7351 N   0  0  0  0  0  0  0  0  0  0  0  0
   38.4636   31.3920   47.1543 C   0  0  0  0  0  0  0  0  0  0  0  0
   37.9472   30.3911   47.8800 N   0  0  0  0  0  0  0  0  0  0  0  0
   33.0634   27.4951   48.2267 C   0  0  0  0  0  0  0  0  0  0  0  0
   31.8439   27.3988   48.5929 O   0  0  0  0  0  0  0  0  0  0  0  0
   33.5655   26.8043   46.9927 C   0  0  1  0  0  0  0  0  0  0  0  0
   33.7910   25.2727   47.2910 C   0  0  0  0  0  0  0  0  0  0  0  0
   32.7652   25.7676   46.3387 C   0  0  2  0  0  0  0  0  0  0  0  0
   34.8218   30.3592   51.3872 H   0  0  0  0  0  0  0  0  0  0  0  0
   32.6008   29.3080   50.4355 H   0  0  0  0  0  0  0  0  0  0  0  0
   38.0031   31.9072   50.9080 H   0  0  0  0  0  0  0  0  0  0  0  0
   38.9365   33.6799   49.5168 H   0  0  0  0  0  0  0  0  0  0  0  0
   38.5905   31.2352   46.0866 H   0  0  0  0  0  0  0  0  0  0  0  0
   34.5416   27.2100   46.6480 H   0  0  0  0  0  0  0  0  0  0  0  0
   34.7229   24.8215   46.9533 H   0  0  0  0  0  0  0  0  0  0  0  0
   33.4265   24.8877   48.2434 H   0  0  0  0  0  0  0  0  0  0  0  0
   31.7006   25.7207   46.6350 H   0  0  0  0  0  0  0  0  0  0  0  0
   33.0035   25.4374   44.8876 C   0  0  0  0  0  0  0  0  0  0  0  0
   31.9928   25.9501   43.9983 N   0  0  0  0  0  4  0  0  0  0  0  0
   32.0666   25.1654   42.7691 C   0  0  0  0  0  0  0  0  0  0  0  0
   32.2526   25.7832   41.8695 H   0  0  0  0  0  0  0  0  0  0  0  0
   32.3046   27.3329   43.6066 C   0  0  0  0  0  0  0  0  0  0  0  0
   33.3796   27.5224   43.8217 H   0  0  0  0  0  0  0  0  0  0  0  0
   32.9875   24.3265   44.7761 H   0  0  0  0  0  0  0  0  0  0  0  0
   33.9875   25.7847   44.5259 H   0  0  0  0  0  0  0  0  0  0  0  0
   31.0252   25.8588   44.3823 H   0  0  0  0  0  0  0  0  0  0  0  0
   32.8985   24.4267   42.7886 H   0  0  0  0  0  0  0  0  0  0  0  0
   31.0962   24.6434   42.5674 H   0  0  0  0  0  0  0  0  0  0  0  0
   31.6409   28.0701   44.0887 H   0  0  0  0  0  0  0  0  0  0  0  0
   32.2049   27.4805   42.5107 H   0  0  0  0  0  0  0  0  0  0  0  0
  1  6  1  0
  1  2  2  0
  3  2  1  0
  4  3  2  0
  5  4  1  0
  5  1  1  0
  6  7  2  0
  8  9  2  0
  8  6  1  0
 10  9  1  0
 11 10  2  0
 12 11  1  0
 12 13  2  0
 13  8  1  0
 14 15  2  0
 14  4  1  0
 16 17  1  0
 16 14  1  0
 18 16  1  0
 18 17  1  0
  2 19  1  0
  3 20  1  0
  9 21  1  0
 10 22  1  0
 12 23  1  0
 16 24  1  6
 17 25  1  0
 17 26  1  0
 18 27  1  1
 28 29  1  0
 29 30  1  0
 30 31  1  0
 29 32  1  0
 32 33  1  0
 28 34  1  0
 28 35  1  0
 29 36  1  0
 30 37  1  0
 30 38  1  0
 32 39  1  0
 32 40  1  0
 18 28  1  0
M  ISO  8  19  14  20  14  21  14  22  14  23  14  24  13  25  13  26  13
M  CHG  1  29   1
M  ISO  3  27  13  31   8  33   8
M  END
>  <DihAtoms>  (1) 
15,17,27,28

>  <DihDeg>  (1) 
-59.99992322073141

$$$$
