
     RDKit          3D

 35 38  0  0  0  0  0  0  0  0999 V2000
   35.9390   29.2700   49.6000 C   0  0  0  0  0  0  0  0  0  0  0  0
   34.9590   29.3050   50.5260 C   0  0  0  0  0  0  0  0  0  0  0  0
   33.7630   28.8940   49.9390 C   0  0  0  0  0  0  0  0  0  0  0  0
   34.1140   28.6150   48.6010 C   0  0  0  0  0  0  0  0  0  0  0  0
   35.3680   28.8640   48.5280 O   0  0  0  0  0  0  0  0  0  0  0  0
   37.3060   29.6370   49.8710 C   0  0  0  0  0  0  0  0  0  0  0  0
   37.9140   29.0590   50.7820 O   0  0  0  0  0  0  0  0  0  0  0  0
   37.8860   30.6840   49.0350 C   0  0  0  0  0  0  0  0  0  0  0  0
   38.1530   31.8960   49.6900 C   0  0  0  0  0  0  0  0  0  0  0  0
   38.7110   32.9160   48.9130 C   0  0  0  0  0  0  0  0  0  0  0  0
   38.9630   32.6940   47.5960 N   0  0  0  0  0  0  0  0  0  0  0  0
   38.6830   31.5010   47.0170 C   0  0  0  0  0  0  0  0  0  0  0  0
   38.1530   30.5120   47.7310 N   0  0  0  0  0  0  0  0  0  0  0  0
   33.1670   28.1400   47.5850 C   0  0  0  0  0  0  0  0  0  0  0  0
   33.1900   26.9320   47.2430 O   0  0  0  0  0  0  0  0  0  0  0  0
   32.1260   28.7540   46.7980 C   0  0  0  0  0  0  0  0  0  0  0  0
   30.8580   28.4850   47.1900 N   0  0  0  0  0  0  0  0  0  0  0  0
   29.7590   28.9840   46.5550 C   0  0  0  0  0  0  0  0  0  0  0  0
   29.9130   29.7810   45.4940 N   0  0  0  0  0  0  0  0  0  0  0  0
   31.1270   30.1120   45.0260 C   0  0  0  0  0  0  0  0  0  0  0  0
   31.3040   30.9580   43.9530 C   0  0  0  0  0  0  0  0  0  0  0  0
   32.5510   31.3100   43.5160 C   0  0  0  0  0  0  0  0  0  0  0  0
   33.6300   30.7730   44.2110 C   0  0  0  0  0  0  0  0  0  0  0  0
   33.4200   29.9310   45.2770 C   0  0  0  0  0  0  0  0  0  0  0  0
   32.1780   29.5690   45.7210 C   0  0  0  0  0  0  0  0  0  0  0  0
   35.0834   29.6090   51.5758 H   0  0  0  0  0  0  0  0  0  0  0  0
   32.7730   28.8072   50.4106 H   0  0  0  0  0  0  0  0  0  0  0  0
   37.9347   32.0364   50.7589 H   0  0  0  0  0  0  0  0  0  0  0  0
   38.9444   33.8915   49.3647 H   0  0  0  0  0  0  0  0  0  0  0  0
   38.8957   31.3496   45.9484 H   0  0  0  0  0  0  0  0  0  0  0  0
   28.7506   28.7314   46.9147 H   0  0  0  0  0  0  0  0  0  0  0  0
   30.4207   31.3601   43.4353 H   0  0  0  0  0  0  0  0  0  0  0  0
   32.6938   31.9837   42.6583 H   0  0  0  0  0  0  0  0  0  0  0  0
   34.6567   31.0236   43.9058 H   0  0  0  0  0  0  0  0  0  0  0  0
   34.2983   29.5264   45.8013 H   0  0  0  0  0  0  0  0  0  0  0  0
  1  6  1  0
  1  2  2  0
  3  2  1  0
  4  3  2  0
  5  4  1  0
  5  1  1  0
  6  7  2  0
  8  9  2  0
  8  6  1  0
 10  9  1  0
 11 10  2  0
 12 11  1  0
 12 13  2  0
 13  8  1  0
 14  4  1  0
 15 14  2  0
 16 17  2  0
 16 14  1  0
 18 17  1  0
 19 18  2  0
 20 19  1  0
 20 25  2  0
 21 20  1  0
 22 21  2  0
 22 23  1  0
 23 24  2  0
 24 25  1  0
 25 16  1  0
  2 26  1  0
  3 27  1  0
  9 28  1  0
 10 29  1  0
 12 30  1  0
 18 31  1  0
 21 32  1  0
 22 33  1  0
 23 34  1  0
 24 35  1  0
M  ISO  8  26  14  27  14  28  14  29  14  30  14  31  14  32  14  33  14
M  ISO  2  34  14  35  14
M  END
>  <minimizedAffinity>  (1) 
-5.57029676

>  <minimizedRMSD>  (1) 
4.67374897

$$$$
