
     RDKit          3D

 32 34  0  0  0  0  0  0  0  0999 V2000
   33.8000   27.6010   45.7720 O   0  0  0  0  0  0  0  0  0  0  0  0
   33.1710   28.0830   47.0650 P   0  0  1  0  0  0  0  0  0  0  0  0
   33.7410   27.2050   48.3840 O   0  0  0  0  0  0  0  0  0  0  0  0
   33.5500   29.7390   47.3620 O   0  0  0  0  0  0  0  0  0  0  0  0
   34.6850   30.1240   48.0470 C   0  0  0  0  0  0  0  0  0  0  0  0
   34.8340   30.2420   49.4290 C   0  0  0  0  0  0  0  0  0  0  0  0
   36.0550   30.6450   49.9270 C   0  0  0  0  0  0  0  0  0  0  0  0
   37.0830   30.9180   49.0660 N   0  0  0  0  0  0  0  0  0  0  0  0
   36.9040   30.7930   47.7300 C   0  0  0  0  0  0  0  0  0  0  0  0
   35.7050   30.3970   47.2250 N   0  0  0  0  0  0  0  0  0  0  0  0
   33.6770   29.9230   50.1710 N   0  0  0  0  0  0  0  0  0  0  0  0
   31.5060   27.9150   46.8450 O   0  0  0  0  0  0  0  0  0  0  0  0
   30.6030   28.0480   47.8880 C   0  0  0  0  0  0  0  0  0  0  0  0
   30.7000   27.5530   49.1280 N   0  0  0  0  0  0  0  0  0  0  0  0
   29.7400   27.7620   50.0470 C   0  0  0  0  0  0  0  0  0  0  0  0
   28.6220   28.4880   49.7540 N   0  0  0  0  0  0  0  0  0  0  0  0
   28.4700   29.0140   48.5100 C   0  0  0  0  0  0  0  0  0  0  0  0
   27.3340   29.7570   48.2020 C   0  0  0  0  0  0  0  0  0  0  0  0
   27.1830   30.2920   46.9290 C   0  0  0  0  0  0  0  0  0  0  0  0
   28.1660   30.0840   45.9740 C   0  0  0  0  0  0  0  0  0  0  0  0
   29.2640   29.3410   46.3450 C   0  0  0  0  0  0  0  0  0  0  0  0
   29.4750   28.7830   47.5860 C   0  0  0  0  0  0  0  0  0  0  0  0
   33.4546   27.6462   49.2227 H   0  0  0  0  0  0  0  0  0  0  0  0
   36.2022   30.7467   51.0124 H   0  0  0  0  0  0  0  0  0  0  0  0
   37.7367   31.0139   47.0460 H   0  0  0  0  0  0  0  0  0  0  0  0
   33.6923   29.9813   51.1992 H   0  0  0  0  0  0  0  0  0  0  0  0
   32.8171   29.6319   49.6844 H   0  0  0  0  0  0  0  0  0  0  0  0
   29.8585   27.3390   51.0555 H   0  0  0  0  0  0  0  0  0  0  0  0
   26.5581   29.9200   48.9645 H   0  0  0  0  0  0  0  0  0  0  0  0
   26.2865   30.8787   46.6796 H   0  0  0  0  0  0  0  0  0  0  0  0
   28.0723   30.4968   44.9587 H   0  0  0  0  0  0  0  0  0  0  0  0
   30.0408   29.1789   45.5833 H   0  0  0  0  0  0  0  0  0  0  0  0
  2  1  2  0
  2  4  1  0
  2  3  1  0
  4  5  1  0
  5  6  2  0
  6  7  1  0
  6 11  1  0
  8  7  2  0
  9  8  1  0
 10  9  2  0
 10  5  1  0
 12  2  1  0
 12 13  1  0
 13 14  2  0
 14 15  1  0
 16 15  2  0
 17 16  1  0
 18 17  2  0
 19 18  1  0
 20 21  1  0
 20 19  2  0
 21 22  2  0
 22 13  1  0
 22 17  1  0
  3 23  1  0
  7 24  1  0
  9 25  1  0
 11 26  1  0
 11 27  1  0
 15 28  1  0
 18 29  1  0
 19 30  1  0
 20 31  1  0
 21 32  1  0
M  ISO  8  23   3  24  14  25  14  28  14  29  14  30  14  31  14  32  14
M  END
>  <minimizedAffinity>  (1) 
-5.21671867

>  <minimizedRMSD>  (1) 
2.76253676

$$$$
