
     RDKit          3D

 35 38  0  0  0  0  0  0  0  0999 V2000
   37.1223   30.2673   50.3310 C   0  0  0  0  0  0  0  0  0  0  0  0
   37.5159   30.1402   51.4977 O   0  0  0  0  0  0  0  0  0  0  0  0
   37.7970   31.0790   49.3232 C   0  0  0  0  0  0  0  0  0  0  0  0
   38.0971   32.3937   49.7133 C   0  0  0  0  0  0  0  0  0  0  0  0
   38.7458   33.1934   48.7665 C   0  0  0  0  0  0  0  0  0  0  0  0
   39.0479   32.6769   47.5465 N   0  0  0  0  0  0  0  0  0  0  0  0
   38.7322   31.3976   47.2263 C   0  0  0  0  0  0  0  0  0  0  0  0
   38.1161   30.6139   48.1045 N   0  0  0  0  0  0  0  0  0  0  0  0
   35.9238   29.5799   49.9177 C   0  0  0  0  0  0  0  0  0  0  0  0
   34.6940   29.8803   50.3829 C   0  0  0  0  0  0  0  0  0  0  0  0
   33.7616   29.0340   49.7831 C   0  0  0  0  0  0  0  0  0  0  0  0
   34.5362   28.2161   48.9332 C   0  0  0  0  0  0  0  0  0  0  0  0
   35.7412   28.6169   49.0944 O   0  0  0  0  0  0  0  0  0  0  0  0
   33.9812   27.1543   48.0847 C   0  0  0  0  0  0  0  0  0  0  0  0
   32.7429   26.9486   48.0910 O   0  0  0  0  0  0  0  0  0  0  0  0
   37.8583   32.8067   50.6815 H   0  0  0  0  0  0  0  0  0  0  0  0
   39.0171   34.2279   48.9841 H   0  0  0  0  0  0  0  0  0  0  0  0
   38.9581   30.9623   46.2705 H   0  0  0  0  0  0  0  0  0  0  0  0
   34.2831   30.5935   51.0816 H   0  0  0  0  0  0  0  0  0  0  0  0
   32.6874   28.9510   49.8828 H   0  0  0  0  0  0  0  0  0  0  0  0
   34.5372   26.1910   47.1666 C   0  0  0  0  0  0  0  0  0  0  0  0
   34.4373   26.5062   45.8535 N   0  0  0  0  0  0  0  0  0  0  0  0
   34.9088   25.7056   44.8552 C   0  0  0  0  0  0  0  0  0  0  0  0
   35.5040   24.5489   45.1616 N   0  0  0  0  0  0  0  0  0  0  0  0
   35.6572   24.1437   46.4322 C   0  0  0  0  0  0  0  0  0  0  0  0
   36.2957   22.9705   46.7655 C   0  0  0  0  0  0  0  0  0  0  0  0
   36.4720   22.5947   48.0694 C   0  0  0  0  0  0  0  0  0  0  0  0
   36.9718   21.6745   48.3306 H   0  0  0  0  0  0  0  0  0  0  0  0
   35.9732   23.4602   49.0395 C   0  0  0  0  0  0  0  0  0  0  0  0
   36.1258   23.1423   50.0663 H   0  0  0  0  0  0  0  0  0  0  0  0
   35.3399   24.6237   48.6737 C   0  0  0  0  0  0  0  0  0  0  0  0
   35.1558   25.0066   47.3743 C   0  0  0  0  0  0  0  0  0  0  0  0
   34.7982   26.0121   43.8203 H   0  0  0  0  0  0  0  0  0  0  0  0
   36.6663   22.3316   45.9758 H   0  0  0  0  0  0  0  0  0  0  0  0
   35.0424   25.2068   49.4930 H   0  0  0  0  0  0  0  0  0  0  0  0
  1  2  2  0
  3  4  2  0
  3  1  1  0
  5  4  1  0
  6  5  2  0
  7  6  1  0
  7  8  2  0
  8  3  1  0
  9  1  1  0
  9 10  2  0
 11 10  1  0
 12 13  1  0
 12 11  2  0
 13  9  1  0
 14 15  2  0
 14 12  1  0
  4 16  1  0
  5 17  1  0
  7 18  1  0
 10 19  1  0
 11 20  1  0
 21 22  2  0
 22 23  1  0
 23 24  2  0
 24 25  1  0
 25 26  2  0
 26 27  1  0
 27 28  1  0
 27 29  2  0
 29 30  1  0
 29 31  1  0
 31 32  2  0
 32 21  1  0
 32 25  1  0
 23 33  1  0
 26 34  1  0
 31 35  1  0
 14 21  1  0
M  ISO  7  16  14  17  14  18  14  19  14  20  14  28  16  30  16
M  END
>  <DihAtoms>  (1) 
14,13,20,21

>  <DihDeg>  (1) 
-39.870716688939844

$$$$
