
     RDKit          3D

 32 35  0  0  0  0  0  0  0  0999 V2000
   37.5253   31.4053   49.3291 C   0  0  0  0  0  0  0  0  0  0  0  0
   38.1535   32.6500   49.4025 C   0  0  0  0  0  0  0  0  0  0  0  0
   38.9423   32.9764   48.2937 C   0  0  0  0  0  0  0  0  0  0  0  0
   39.0598   32.1178   47.2466 N   0  0  0  0  0  0  0  0  0  0  0  0
   38.4308   30.9231   47.2232 C   0  0  0  0  0  0  0  0  0  0  0  0
   37.6505   30.5582   48.2802 N   0  0  0  0  0  0  0  0  0  0  0  0
   36.6431   31.0336   50.4957 C   0  0  1  0  0  0  0  0  0  0  0  0
   36.1397   29.6880   50.6600 C   0  0  2  0  0  0  0  0  0  0  0  0
   37.3396   30.0981   51.4901 C   0  0  0  0  0  0  0  0  0  0  0  0
   36.3916   28.7375   49.6579 O   0  0  0  0  0  0  0  0  0  0  0  0
   38.0230   33.2923   50.2624 H   0  0  0  0  0  0  0  0  0  0  0  0
   39.4444   33.9327   48.3154 H   0  0  0  0  0  0  0  0  0  0  0  0
   38.5023   30.2170   46.4072 H   0  0  0  0  0  0  0  0  0  0  0  0
   36.1999   31.9637   50.9505 H   0  0  0  0  0  0  0  0  0  0  0  0
   35.1516   29.5518   51.1515 H   0  0  0  0  0  0  0  0  0  0  0  0
   37.0744   30.3023   52.5366 H   0  0  0  0  0  0  0  0  0  0  0  0
   38.3162   29.6702   51.2240 H   0  0  0  0  0  0  0  0  0  0  0  0
   35.4013   27.7830   49.4225 C   0  0  0  0  0  0  0  0  0  0  0  0
   34.2531   27.7893   50.1402 N   0  0  0  0  0  0  0  0  0  0  0  0
   33.2824   26.8771   49.9303 C   0  0  0  0  0  0  0  0  0  0  0  0
   33.4170   25.9200   48.9949 N   0  0  0  0  0  0  0  0  0  0  0  0
   34.5303   25.8744   48.2639 C   0  0  0  0  0  0  0  0  0  0  0  0
   34.6305   24.8707   47.3087 C   0  0  0  0  0  0  0  0  0  0  0  0
   35.7826   24.8204   46.5495 C   0  0  0  0  0  0  0  0  0  0  0  0
   36.0001   24.1006   45.7739 H   0  0  0  0  0  0  0  0  0  0  0  0
   36.7818   25.7409   46.7491 C   0  0  0  0  0  0  0  0  0  0  0  0
   37.7077   25.7399   46.1740 H   0  0  0  0  0  0  0  0  0  0  0  0
   36.7104   26.7497   47.6912 C   0  0  0  0  0  0  0  0  0  0  0  0
   35.5515   26.7972   48.4520 C   0  0  0  0  0  0  0  0  0  0  0  0
   32.4394   27.0593   50.6150 H   0  0  0  0  0  0  0  0  0  0  0  0
   33.8812   24.1215   47.1065 H   0  0  0  0  0  0  0  0  0  0  0  0
   37.4735   27.4891   47.8761 H   0  0  0  0  0  0  0  0  0  0  0  0
  1  2  2  0
  1  7  1  0
  3  2  1  0
  4  3  2  0
  5  4  1  0
  5  6  2  0
  6  1  1  0
  7  8  1  0
  7  9  1  0
  8  9  1  0
 10  8  1  0
  2 11  1  0
  3 12  1  0
  5 13  1  0
  7 14  1  1
  8 15  1  1
  9 16  1  0
  9 17  1  0
 18 19  2  0
 19 20  1  0
 20 21  2  0
 21 22  1  0
 22 23  2  0
 23 24  1  0
 24 25  1  0
 24 26  2  0
 26 27  1  0
 26 28  1  0
 28 29  2  0
 29 18  1  0
 29 22  1  0
 20 30  1  0
 23 31  1  0
 28 32  1  0
 10 18  1  0
M  ISO  8  11  14  12  14  13  14  14  13  15  13  16  13  17  13  25  16
M  ISO  1  27  16
M  END
>  <DihAtoms>  (1) 
7,9,17,18

>  <DihDeg>  (1) 
-0.0018061536341075538

$$$$
