
     RDKit          3D

 45 49  0  0  0  0  0  0  0  0999 V2000
   36.0821   30.2690   48.6951 C   0  0  0  0  0  0  0  0  0  0  0  0
   36.0029   29.4112   49.7134 C   0  0  0  0  0  0  0  0  0  0  0  0
   34.9900   28.5576   49.8483 C   0  0  0  0  0  0  0  0  0  0  0  0
   34.0238   28.5746   48.9089 N   0  0  0  0  0  0  0  0  0  0  0  0
   34.0800   29.4165   47.8742 C   0  0  0  0  0  0  0  0  0  0  0  0
   35.1082   30.2661   47.7655 N   0  0  0  0  0  0  0  0  0  0  0  0
   38.1332   33.2364   49.4285 C   0  0  0  0  0  0  0  0  0  0  0  0
   39.0496   33.2271   48.3566 C   0  0  0  0  0  0  0  0  0  0  0  0
   38.9430   32.1872   47.4043 C   0  0  0  0  0  0  0  0  0  0  0  0
   37.9639   31.2437   47.5625 N   0  0  0  0  0  0  0  0  0  0  0  0
   37.1203   31.2873   48.5851 C   0  0  0  0  0  0  0  0  0  0  0  0
   37.2032   32.2917   49.5293 N   0  0  0  0  0  0  0  0  0  0  0  0
   31.9978   28.4176   47.1052 C   0  0  0  0  0  0  0  0  0  0  0  0
   33.0136   29.3522   46.8940 C   0  0  0  0  0  0  0  0  0  0  0  0
   33.0454   30.2374   45.8423 C   0  0  0  0  0  0  0  0  0  0  0  0
   32.0274   30.2503   44.8995 C   0  0  0  0  0  0  0  0  0  0  0  0
   30.9797   29.3633   45.0298 C   0  0  0  0  0  0  0  0  0  0  0  0
   31.0350   28.5265   46.0998 C   0  0  0  0  0  0  0  0  0  0  0  0
   31.9336   27.3176   48.3945 S   0  0  0  0  0  0  0  0  0  0  0  0
   31.3702   26.1501   47.6879 O   0  0  0  0  0  0  0  0  0  0  0  0
   30.7810   27.5828   49.2964 O   0  0  0  0  0  0  0  0  0  0  0  0
   36.8162   29.4531   50.4184 H   0  0  0  0  0  0  0  0  0  0  0  0
   35.0804   27.9384   50.7364 H   0  0  0  0  0  0  0  0  0  0  0  0
   38.2086   34.0279   50.1600 H   0  0  0  0  0  0  0  0  0  0  0  0
   39.8136   33.9486   48.2175 H   0  0  0  0  0  0  0  0  0  0  0  0
   39.5930   32.0911   46.5518 H   0  0  0  0  0  0  0  0  0  0  0  0
   33.8913   30.9388   45.7565 H   0  0  0  0  0  0  0  0  0  0  0  0
   32.1183   30.9692   44.1021 H   0  0  0  0  0  0  0  0  0  0  0  0
   30.1896   29.3535   44.3250 H   0  0  0  0  0  0  0  0  0  0  0  0
   30.1819   27.8291   46.1767 H   0  0  0  0  0  0  0  0  0  0  0  0
   33.0940   26.1497   48.8486 C   0  0  0  0  0  0  0  0  0  0  0  0
   34.3828   26.0213   48.5767 N   0  0  0  0  0  0  0  0  0  0  0  0
   35.2403   25.0482   48.8695 C   0  0  0  0  0  0  0  0  0  0  0  0
   34.7801   23.9984   49.5500 N   0  0  0  0  0  0  0  0  0  0  0  0
   33.4850   24.0071   49.8865 C   0  0  0  0  0  0  0  0  0  0  0  0
   33.0908   22.8854   50.5958 C   0  0  0  0  0  0  0  0  0  0  0  0
   31.7897   22.7484   51.0211 C   0  0  0  0  0  0  0  0  0  0  0  0
   31.4865   21.8768   51.5709 H   0  0  0  0  0  0  0  0  0  0  0  0
   30.8962   23.7522   50.7241 C   0  0  0  0  0  0  0  0  0  0  0  0
   29.8881   23.6458   51.0541 H   0  0  0  0  0  0  0  0  0  0  0  0
   31.3598   24.8357   50.0166 C   0  0  0  0  0  0  0  0  0  0  0  0
   32.6462   25.0362   49.5597 C   0  0  0  0  0  0  0  0  0  0  0  0
   36.2357   25.2902   48.4786 H   0  0  0  0  0  0  0  0  0  0  0  0
   33.7589   22.0992   50.8386 H   0  0  0  0  0  0  0  0  0  0  0  0
   30.5955   25.5736   49.8508 H   0  0  0  0  0  0  0  0  0  0  0  0
  1  2  2  0
  2  3  1  0
  4  3  2  0
  5  4  1  0
  6  5  2  0
  6  1  1  0
  7 12  2  0
  8  7  1  0
  9 10  1  0
  9  8  2  0
 10 11  2  0
 11  1  1  0
 11 12  1  0
 13 19  1  0
 14 13  1  0
 14  5  1  0
 15 14  2  0
 16 17  2  0
 16 15  1  0
 17 18  1  0
 18 13  2  0
 19 21  2  0
 20 19  2  0
  2 22  1  0
  3 23  1  0
  7 24  1  0
  8 25  1  0
  9 26  1  0
 15 27  1  0
 16 28  1  0
 17 29  1  0
 18 30  1  0
 31 32  2  0
 32 33  1  0
 33 34  2  0
 34 35  1  0
 35 36  2  0
 36 37  1  0
 37 38  1  0
 37 39  2  0
 39 40  1  0
 39 41  1  0
 41 42  2  0
 42 31  1  0
 42 35  1  0
 33 43  1  0
 36 44  1  0
 41 45  1  0
 19 31  1  0
M  ISO  8  22  14  23  14  24  14  25  14  26  14  27  14  28  14  29  14
M  ISO  3  30  14  38  16  40  16
M  END
>  <DihAtoms>  (1) 
12,18,30,31

>  <DihDeg>  (1) 
-40.73452289931857

$$$$
