
     RDKit          3D

 32 35  0  0  0  0  0  0  0  0999 V2000
   37.5253   31.4053   49.3291 C   0  0  0  0  0  0  0  0  0  0  0  0
   38.1535   32.6500   49.4025 C   0  0  0  0  0  0  0  0  0  0  0  0
   38.9423   32.9764   48.2937 C   0  0  0  0  0  0  0  0  0  0  0  0
   39.0598   32.1178   47.2466 N   0  0  0  0  0  0  0  0  0  0  0  0
   38.4308   30.9231   47.2232 C   0  0  0  0  0  0  0  0  0  0  0  0
   37.6505   30.5582   48.2802 N   0  0  0  0  0  0  0  0  0  0  0  0
   36.6431   31.0336   50.4957 C   0  0  1  0  0  0  0  0  0  0  0  0
   36.1397   29.6880   50.6600 C   0  0  2  0  0  0  0  0  0  0  0  0
   37.3396   30.0981   51.4901 C   0  0  0  0  0  0  0  0  0  0  0  0
   36.3916   28.7375   49.6579 O   0  0  0  0  0  0  0  0  0  0  0  0
   38.0230   33.2923   50.2624 H   0  0  0  0  0  0  0  0  0  0  0  0
   39.4444   33.9327   48.3154 H   0  0  0  0  0  0  0  0  0  0  0  0
   38.5023   30.2170   46.4072 H   0  0  0  0  0  0  0  0  0  0  0  0
   36.1999   31.9637   50.9505 H   0  0  0  0  0  0  0  0  0  0  0  0
   35.1516   29.5518   51.1515 H   0  0  0  0  0  0  0  0  0  0  0  0
   37.0744   30.3023   52.5366 H   0  0  0  0  0  0  0  0  0  0  0  0
   38.3162   29.6702   51.2240 H   0  0  0  0  0  0  0  0  0  0  0  0
   35.4013   27.7830   49.4225 C   0  0  0  0  0  0  0  0  0  0  0  0
   34.7924   27.1522   50.4544 N   0  0  0  0  0  0  0  0  0  0  0  0
   33.8331   26.2266   50.2512 C   0  0  0  0  0  0  0  0  0  0  0  0
   33.4410   25.8916   49.0089 N   0  0  0  0  0  0  0  0  0  0  0  0
   34.0122   26.4863   47.9620 C   0  0  0  0  0  0  0  0  0  0  0  0
   33.5794   26.1124   46.6961 C   0  0  0  0  0  0  0  0  0  0  0  0
   34.1689   26.7265   45.6092 C   0  0  0  0  0  0  0  0  0  0  0  0
   33.9360   26.5387   44.5712 H   0  0  0  0  0  0  0  0  0  0  0  0
   35.1475   27.6713   45.7968 C   0  0  0  0  0  0  0  0  0  0  0  0
   35.6405   28.1817   44.9694 H   0  0  0  0  0  0  0  0  0  0  0  0
   35.5983   28.0634   47.0431 C   0  0  0  0  0  0  0  0  0  0  0  0
   35.0037   27.4443   48.1328 C   0  0  0  0  0  0  0  0  0  0  0  0
   33.4720   25.8395   51.2168 H   0  0  0  0  0  0  0  0  0  0  0  0
   32.8170   25.3787   46.4863 H   0  0  0  0  0  0  0  0  0  0  0  0
   36.3633   28.8005   47.2291 H   0  0  0  0  0  0  0  0  0  0  0  0
  1  2  2  0
  1  7  1  0
  3  2  1  0
  4  3  2  0
  5  4  1  0
  5  6  2  0
  6  1  1  0
  7  8  1  0
  7  9  1  0
  8  9  1  0
 10  8  1  0
  2 11  1  0
  3 12  1  0
  5 13  1  0
  7 14  1  1
  8 15  1  1
  9 16  1  0
  9 17  1  0
 18 19  2  0
 19 20  1  0
 20 21  2  0
 21 22  1  0
 22 23  2  0
 23 24  1  0
 24 25  1  0
 24 26  2  0
 26 27  1  0
 26 28  1  0
 28 29  2  0
 29 18  1  0
 29 22  1  0
 20 30  1  0
 23 31  1  0
 28 32  1  0
 10 18  1  0
M  ISO  8  11  14  12  14  13  14  14  13  15  13  16  13  17  13  25  16
M  ISO  1  27  16
M  END
>  <DihAtoms>  (1) 
7,9,17,18

>  <DihDeg>  (1) 
-0.0018061536341075538

$$$$
