
     RDKit          3D

 32 35  0  0  0  0  0  0  0  0999 V2000
   37.5253   31.4053   49.3291 C   0  0  0  0  0  0  0  0  0  0  0  0
   38.1535   32.6500   49.4025 C   0  0  0  0  0  0  0  0  0  0  0  0
   38.9423   32.9764   48.2937 C   0  0  0  0  0  0  0  0  0  0  0  0
   39.0598   32.1178   47.2466 N   0  0  0  0  0  0  0  0  0  0  0  0
   38.4308   30.9231   47.2232 C   0  0  0  0  0  0  0  0  0  0  0  0
   37.6505   30.5582   48.2802 N   0  0  0  0  0  0  0  0  0  0  0  0
   36.6431   31.0336   50.4957 C   0  0  1  0  0  0  0  0  0  0  0  0
   36.1397   29.6880   50.6600 C   0  0  2  0  0  0  0  0  0  0  0  0
   37.3396   30.0981   51.4901 C   0  0  0  0  0  0  0  0  0  0  0  0
   36.3916   28.7375   49.6579 O   0  0  0  0  0  0  0  0  0  0  0  0
   38.0230   33.2923   50.2624 H   0  0  0  0  0  0  0  0  0  0  0  0
   39.4444   33.9327   48.3154 H   0  0  0  0  0  0  0  0  0  0  0  0
   38.5023   30.2170   46.4072 H   0  0  0  0  0  0  0  0  0  0  0  0
   36.1999   31.9637   50.9505 H   0  0  0  0  0  0  0  0  0  0  0  0
   35.1516   29.5518   51.1515 H   0  0  0  0  0  0  0  0  0  0  0  0
   37.0744   30.3023   52.5366 H   0  0  0  0  0  0  0  0  0  0  0  0
   38.3162   29.6702   51.2240 H   0  0  0  0  0  0  0  0  0  0  0  0
   35.4013   27.7830   49.4225 C   0  0  0  0  0  0  0  0  0  0  0  0
   34.4023   27.5911   50.3162 N   0  0  0  0  0  0  0  0  0  0  0  0
   33.4348   26.6747   50.1100 C   0  0  0  0  0  0  0  0  0  0  0  0
   33.4236   25.9112   49.0027 N   0  0  0  0  0  0  0  0  0  0  0  0
   34.3870   26.0648   48.0948 C   0  0  0  0  0  0  0  0  0  0  0  0
   34.3397   25.2571   46.9656 C   0  0  0  0  0  0  0  0  0  0  0  0
   35.3361   25.4135   46.0228 C   0  0  0  0  0  0  0  0  0  0  0  0
   35.4290   24.8592   45.1003 H   0  0  0  0  0  0  0  0  0  0  0  0
   36.3296   26.3416   46.2157 C   0  0  0  0  0  0  0  0  0  0  0  0
   37.1357   26.4997   45.4993 H   0  0  0  0  0  0  0  0  0  0  0  0
   36.4027   27.1585   47.3282 C   0  0  0  0  0  0  0  0  0  0  0  0
   35.3999   26.9985   48.2732 C   0  0  0  0  0  0  0  0  0  0  0  0
   32.7251   26.6797   50.9521 H   0  0  0  0  0  0  0  0  0  0  0  0
   33.5868   24.5127   46.7591 H   0  0  0  0  0  0  0  0  0  0  0  0
   37.1664   27.8972   47.5137 H   0  0  0  0  0  0  0  0  0  0  0  0
  1  2  2  0
  1  7  1  0
  3  2  1  0
  4  3  2  0
  5  4  1  0
  5  6  2  0
  6  1  1  0
  7  8  1  0
  7  9  1  0
  8  9  1  0
 10  8  1  0
  2 11  1  0
  3 12  1  0
  5 13  1  0
  7 14  1  1
  8 15  1  1
  9 16  1  0
  9 17  1  0
 18 19  2  0
 19 20  1  0
 20 21  2  0
 21 22  1  0
 22 23  2  0
 23 24  1  0
 24 25  1  0
 24 26  2  0
 26 27  1  0
 26 28  1  0
 28 29  2  0
 29 18  1  0
 29 22  1  0
 20 30  1  0
 23 31  1  0
 28 32  1  0
 10 18  1  0
M  ISO  8  11  14  12  14  13  14  14  13  15  13  16  13  17  13  25  16
M  ISO  1  27  16
M  END
>  <DihAtoms>  (1) 
7,9,17,18

>  <DihDeg>  (1) 
-0.0018061536341075538

$$$$
