
     RDKit          3D

 41 45  0  0  0  0  0  0  0  0999 V2000
   33.8388   28.7817   48.2775 C   0  0  0  0  0  0  0  0  0  0  0  0
   34.4367   28.4104   49.4307 C   0  0  0  0  0  0  0  0  0  0  0  0
   35.7140   28.7851   49.8044 C   0  0  0  0  0  0  0  0  0  0  0  0
   36.4577   29.5832   48.9846 C   0  0  0  0  0  0  0  0  0  0  0  0
   35.8433   29.9703   47.7897 C   0  0  0  0  0  0  0  0  0  0  0  0
   34.5935   29.5805   47.4654 N   0  0  0  0  0  0  0  0  0  0  0  0
   31.6401   27.6711   48.7007 C   0  0  0  0  0  0  0  0  0  0  0  0
   32.5136   28.3994   47.8781 C   0  0  0  0  0  0  0  0  0  0  0  0
   32.0348   28.7434   46.6344 C   0  0  0  0  0  0  0  0  0  0  0  0
   30.7790   28.3799   46.2587 N   0  0  0  0  0  0  0  0  0  0  0  0
   29.9748   27.6706   47.1045 C   0  0  0  0  0  0  0  0  0  0  0  0
   30.4066   27.3122   48.3359 N   0  0  0  0  0  0  0  0  0  0  0  0
   37.7514   30.0492   49.2083 O   0  0  0  0  0  0  0  0  0  0  0  0
   38.1570   31.3137   48.7911 C   0  0  0  0  0  0  0  0  0  0  0  0
   37.8691   32.3238   49.6918 C   0  0  0  0  0  0  0  0  0  0  0  0
   38.3420   33.5084   49.1135 C   0  0  0  0  0  0  0  0  0  0  0  0
   38.8853   33.1788   47.9134 N   0  0  0  0  0  0  0  0  0  0  0  0
   38.7692   31.8872   47.7382 N   0  0  0  0  0  0  0  0  0  0  0  0
   33.9175   27.7796   50.1347 H   0  0  0  0  0  0  0  0  0  0  0  0
   36.1865   28.4853   50.7270 H   0  0  0  0  0  0  0  0  0  0  0  0
   36.3777   30.6021   47.0962 H   0  0  0  0  0  0  0  0  0  0  0  0
   31.9687   27.3780   49.6844 H   0  0  0  0  0  0  0  0  0  0  0  0
   32.6983   29.3066   45.9868 H   0  0  0  0  0  0  0  0  0  0  0  0
   29.0270   27.4911   46.6047 H   0  0  0  0  0  0  0  0  0  0  0  0
   37.4004   32.4159   50.6662 H   0  0  0  0  0  0  0  0  0  0  0  0
   38.3437   34.5326   49.4345 H   0  0  0  0  0  0  0  0  0  0  0  0
   39.4964   34.0309   46.9509 C   0  0  0  0  0  0  0  0  0  0  0  0
   40.5491   33.6892   46.1836 N   0  0  0  0  0  0  0  0  0  0  0  0
   41.0702   34.5737   45.2851 C   0  0  0  0  0  0  0  0  0  0  0  0
   40.5149   35.8151   45.1676 N   0  0  0  0  0  0  0  0  0  0  0  0
   39.4636   36.1879   45.9182 C   0  0  0  0  0  0  0  0  0  0  0  0
   38.9381   37.4403   45.7688 C   0  0  0  0  0  0  0  0  0  0  0  0
   37.8556   37.8367   46.5356 C   0  0  0  0  0  0  0  0  0  0  0  0
   37.3518   38.7950   46.5116 H   0  0  0  0  0  0  0  0  0  0  0  0
   37.3012   36.9502   47.4647 C   0  0  0  0  0  0  0  0  0  0  0  0
   36.4463   37.1964   48.1032 H   0  0  0  0  0  0  0  0  0  0  0  0
   37.8427   35.6916   47.6029 C   0  0  0  0  0  0  0  0  0  0  0  0
   38.9211   35.3013   46.8369 C   0  0  0  0  0  0  0  0  0  0  0  0
   41.9166   34.2249   44.7047 H   0  0  0  0  0  0  0  0  0  0  0  0
   39.2997   38.1743   45.0861 H   0  0  0  0  0  0  0  0  0  0  0  0
   37.4325   35.0047   48.3057 H   0  0  0  0  0  0  0  0  0  0  0  0
  1  2  2  0
  2  3  1  0
  4 13  1  0
  4  3  2  0
  5  4  1  0
  6  5  2  0
  6  1  1  0
  8  1  1  0
  8  7  2  0
  9  8  1  0
 10  9  2  0
 10 11  1  0
 11 12  2  0
 12  7  1  0
 14 13  1  0
 14 15  1  0
 16 15  2  0
 17 16  1  0
 18 17  1  0
 18 14  2  0
  2 19  1  0
  3 20  1  0
  5 21  1  0
  7 22  1  0
  9 23  1  0
 11 24  1  0
 15 25  1  0
 16 26  1  0
 27 28  2  0
 28 29  1  0
 29 30  2  0
 30 31  1  0
 31 32  2  0
 32 33  1  0
 33 34  1  0
 33 35  2  0
 35 36  1  0
 35 37  1  0
 37 38  2  0
 38 27  1  0
 38 31  1  0
 29 39  1  0
 32 40  1  0
 37 41  1  0
 17 27  1  0
M  ISO  8  19  14  20  14  21  14  22  14  23  14  24  14  25  14  26  14
M  ISO  2  34  16  36  16
M  END
>  <DihAtoms>  (1) 
15,16,26,27

>  <DihDeg>  (1) 
99.44444408631084

$$$$
