
     RDKit          3D

 32 34  0  0  0  0  0  0  0  0999 V2000
   35.9432   30.7969   49.6205 C   0  0  0  0  0  0  0  0  0  0  0  0
   36.2264   29.8978   50.6480 C   0  0  0  0  0  0  0  0  0  0  0  0
   37.4943   29.8946   51.1901 C   0  0  0  0  0  0  0  0  0  0  0  0
   38.4371   30.7636   50.7140 N   0  0  0  0  0  0  0  0  0  0  0  0
   38.1291   31.6244   49.7146 C   0  0  0  0  0  0  0  0  0  0  0  0
   36.8828   31.6376   49.1717 N   0  0  0  0  0  0  0  0  0  0  0  0
   35.1421   29.0742   51.0182 N   0  0  0  0  0  0  0  0  0  0  0  0
   34.7434   30.9516   48.9546 O   0  0  0  0  0  0  0  0  0  0  0  0
   35.5251   30.0888   46.5463 O   0  0  0  0  0  0  0  0  0  0  0  0
   34.3639   30.0702   47.5216 P   0  0  1  0  0  0  0  0  0  0  0  0
   33.9932   28.4983   47.9961 O   0  0  0  0  0  0  0  0  0  0  0  0
   33.0865   30.8230   46.7163 O   0  0  0  0  0  0  0  0  0  0  0  0
   37.6543   29.1765   51.9826 H   0  0  0  0  0  0  0  0  0  0  0  0
   38.9035   32.3098   49.3522 H   0  0  0  0  0  0  0  0  0  0  0  0
   34.3787   29.6261   51.4904 H   0  0  0  0  0  0  0  0  0  0  0  0
   35.4975   28.1534   50.6741 H   0  0  0  0  0  0  0  0  0  0  0  0
   33.2439   28.5567   48.6351 H   0  0  0  0  0  0  0  0  0  0  0  0
   31.7601   30.5540   47.0141 C   0  0  0  0  0  0  0  0  0  0  0  0
   30.6788   31.2604   46.6606 N   0  0  0  0  0  0  0  0  0  0  0  0
   29.4405   30.8799   47.0219 C   0  0  0  0  0  0  0  0  0  0  0  0
   29.2313   29.7546   47.7665 N   0  0  0  0  0  0  0  0  0  0  0  0
   30.2927   28.9985   48.1539 C   0  0  0  0  0  0  0  0  0  0  0  0
   30.0900   27.8503   48.9126 C   0  0  0  0  0  0  0  0  0  0  0  0
   31.1776   27.0815   49.3057 C   0  0  0  0  0  0  0  0  0  0  0  0
   30.9235   26.2159   49.8872 H   0  0  0  0  0  0  0  0  0  0  0  0
   32.4594   27.4631   48.9396 C   0  0  0  0  0  0  0  0  0  0  0  0
   33.2731   26.8537   49.2557 H   0  0  0  0  0  0  0  0  0  0  0  0
   32.5891   28.6103   48.1884 C   0  0  0  0  0  0  0  0  0  0  0  0
   31.5547   29.4156   47.7668 C   0  0  0  0  0  0  0  0  0  0  0  0
   28.6111   31.5004   46.7001 H   0  0  0  0  0  0  0  0  0  0  0  0
   29.0702   27.5985   49.1706 H   0  0  0  0  0  0  0  0  0  0  0  0
   33.5977   28.8881   47.9147 H   0  0  0  0  0  0  0  0  0  0  0  0
  1  2  2  0
  2  7  1  0
  2  3  1  0
  4  3  2  0
  5  4  1  0
  6  1  1  0
  6  5  2  0
  8  1  1  0
  9 10  2  0
 10 11  1  1
 10  8  1  0
 12 10  1  0
  3 13  1  0
  5 14  1  0
  7 15  1  0
  7 16  1  0
 11 17  1  0
 18 19  2  0
 19 20  1  0
 20 21  2  0
 21 22  1  0
 22 23  2  0
 23 24  1  0
 24 25  1  0
 24 26  2  0
 26 27  1  0
 26 28  1  0
 28 29  2  0
 29 18  1  0
 29 22  1  0
 20 30  1  0
 23 31  1  0
 28 32  1  0
 12 18  1  0
M  ISO  5  13  14  14  14  17   3  25  16  27  16
M  END
>  <DihAtoms>  (1) 
9,11,17,18

>  <DihDeg>  (1) 
-0.00514664627424832

$$$$
