
     RDKit          3D

 32 35  0  0  0  0  0  0  0  0999 V2000
   37.5253   31.4053   49.3291 C   0  0  0  0  0  0  0  0  0  0  0  0
   38.1535   32.6500   49.4025 C   0  0  0  0  0  0  0  0  0  0  0  0
   38.9423   32.9764   48.2937 C   0  0  0  0  0  0  0  0  0  0  0  0
   39.0598   32.1178   47.2466 N   0  0  0  0  0  0  0  0  0  0  0  0
   38.4308   30.9231   47.2232 C   0  0  0  0  0  0  0  0  0  0  0  0
   37.6505   30.5582   48.2802 N   0  0  0  0  0  0  0  0  0  0  0  0
   36.6431   31.0336   50.4957 C   0  0  1  0  0  0  0  0  0  0  0  0
   36.1397   29.6880   50.6600 C   0  0  2  0  0  0  0  0  0  0  0  0
   37.3396   30.0981   51.4901 C   0  0  0  0  0  0  0  0  0  0  0  0
   36.3916   28.7375   49.6579 O   0  0  0  0  0  0  0  0  0  0  0  0
   38.0230   33.2923   50.2624 H   0  0  0  0  0  0  0  0  0  0  0  0
   39.4444   33.9327   48.3154 H   0  0  0  0  0  0  0  0  0  0  0  0
   38.5023   30.2170   46.4072 H   0  0  0  0  0  0  0  0  0  0  0  0
   36.1999   31.9637   50.9505 H   0  0  0  0  0  0  0  0  0  0  0  0
   35.1516   29.5518   51.1515 H   0  0  0  0  0  0  0  0  0  0  0  0
   37.0744   30.3023   52.5366 H   0  0  0  0  0  0  0  0  0  0  0  0
   38.3162   29.6702   51.2240 H   0  0  0  0  0  0  0  0  0  0  0  0
   35.4013   27.7830   49.4225 C   0  0  0  0  0  0  0  0  0  0  0  0
   35.5557   26.5086   49.8533 N   0  0  0  0  0  0  0  0  0  0  0  0
   34.6124   25.5695   49.6374 C   0  0  0  0  0  0  0  0  0  0  0  0
   33.4750   25.8630   48.9822 N   0  0  0  0  0  0  0  0  0  0  0  0
   33.2791   27.1046   48.5395 C   0  0  0  0  0  0  0  0  0  0  0  0
   32.0918   27.3668   47.8676 C   0  0  0  0  0  0  0  0  0  0  0  0
   31.8855   28.6521   47.4075 C   0  0  0  0  0  0  0  0  0  0  0  0
   31.0152   29.0018   46.8715 H   0  0  0  0  0  0  0  0  0  0  0  0
   32.8348   29.6216   47.6181 C   0  0  0  0  0  0  0  0  0  0  0  0
   32.7151   30.6486   47.2733 H   0  0  0  0  0  0  0  0  0  0  0  0
   34.0246   29.3905   48.2825 C   0  0  0  0  0  0  0  0  0  0  0  0
   34.2284   28.0981   48.7433 C   0  0  0  0  0  0  0  0  0  0  0  0
   34.9333   24.6071   50.0659 H   0  0  0  0  0  0  0  0  0  0  0  0
   31.3109   26.6487   47.6724 H   0  0  0  0  0  0  0  0  0  0  0  0
   34.7923   30.1254   48.4664 H   0  0  0  0  0  0  0  0  0  0  0  0
  1  2  2  0
  1  7  1  0
  3  2  1  0
  4  3  2  0
  5  4  1  0
  5  6  2  0
  6  1  1  0
  7  8  1  0
  7  9  1  0
  8  9  1  0
 10  8  1  0
  2 11  1  0
  3 12  1  0
  5 13  1  0
  7 14  1  1
  8 15  1  1
  9 16  1  0
  9 17  1  0
 18 19  2  0
 19 20  1  0
 20 21  2  0
 21 22  1  0
 22 23  2  0
 23 24  1  0
 24 25  1  0
 24 26  2  0
 26 27  1  0
 26 28  1  0
 28 29  2  0
 29 18  1  0
 29 22  1  0
 20 30  1  0
 23 31  1  0
 28 32  1  0
 10 18  1  0
M  ISO  8  11  14  12  14  13  14  14  13  15  13  16  13  17  13  25  16
M  ISO  1  27  16
M  END
>  <DihAtoms>  (1) 
7,9,17,18

>  <DihDeg>  (1) 
-0.0018061536341075538

$$$$
