
     RDKit          3D

 53 58  0  0  0  0  0  0  0  0999 V2000
   34.3211   29.7936   46.0796 N   0  0  0  0  0  0  0  0  0  0  0  0
   33.0316   29.9674   45.5189 C   0  0  0  0  0  0  0  0  0  0  0  0
   32.9873   29.8148   44.0313 C   0  0  0  0  0  0  0  0  0  0  0  0
   34.0773   28.9551   43.6151 N   0  0  0  0  0  0  0  0  0  0  0  0
   35.3147   29.7138   43.8256 C   0  0  0  0  0  0  0  0  0  0  0  0
   35.5864   29.6480   45.2779 C   0  0  1  0  0  0  0  0  0  0  0  0
   37.2321   31.5362   44.8941 C   0  0  0  0  0  0  0  0  0  0  0  0
   36.6330   30.5652   45.7334 C   0  0  0  0  0  0  0  0  0  0  0  0
   36.9607   30.4896   47.0652 C   0  0  0  0  0  0  0  0  0  0  0  0
   37.8773   31.3954   47.5418 C   0  0  0  0  0  0  0  0  0  0  0  0
   38.4794   32.3743   46.6888 C   0  0  0  0  0  0  0  0  0  0  0  0
   38.1611   32.4626   45.3192 C   0  0  0  0  0  0  0  0  0  0  0  0
   39.3858   33.1742   47.4221 O   0  0  0  0  0  0  0  0  0  0  0  0
   39.0891   32.9489   48.7645 C   0  0  0  0  0  0  0  0  0  0  0  0
   38.4486   31.6584   48.7864 O   0  0  0  0  0  0  0  0  0  0  0  0
   34.7009   28.3857   48.0770 C   0  0  0  0  0  0  0  0  0  0  0  0
   34.4476   29.6887   47.5020 C   0  0  0  0  0  0  0  0  0  0  0  0
   34.3741   30.7553   48.3425 C   0  0  0  0  0  0  0  0  0  0  0  0
   34.5543   30.4663   49.6826 N   0  0  0  0  0  0  0  0  0  0  0  0
   34.7838   29.2923   50.1866 C   0  0  0  0  0  0  0  0  0  0  0  0
   34.8629   28.2296   49.4066 N   0  0  0  0  0  0  0  0  0  0  0  0
   34.9329   29.1937   51.5978 N   0  0  0  0  0  0  0  0  0  0  0  0
   32.3807   29.1323   45.9850 H   0  0  0  0  0  0  0  0  0  0  0  0
   32.5836   30.9250   45.7192 H   0  0  0  0  0  0  0  0  0  0  0  0
   32.0466   29.2951   43.7600 H   0  0  0  0  0  0  0  0  0  0  0  0
   33.0443   30.7474   43.4632 H   0  0  0  0  0  0  0  0  0  0  0  0
   33.9775   28.6497   42.6379 H   0  0  0  0  0  0  0  0  0  0  0  0
   35.1079   30.7647   43.4805 H   0  0  0  0  0  0  0  0  0  0  0  0
   36.1103   29.2412   43.2518 H   0  0  0  0  0  0  0  0  0  0  0  0
   35.9079   28.6074   45.5488 H   0  0  0  0  0  0  0  0  0  0  0  0
   36.9375   31.5433   43.8566 H   0  0  0  0  0  0  0  0  0  0  0  0
   36.7554   29.8470   47.8796 H   0  0  0  0  0  0  0  0  0  0  0  0
   38.6116   33.1869   44.6957 H   0  0  0  0  0  0  0  0  0  0  0  0
   40.0556   32.7972   49.2886 H   0  0  0  0  0  0  0  0  0  0  0  0
   38.4563   33.7208   49.2297 H   0  0  0  0  0  0  0  0  0  0  0  0
   34.7547   27.5482   47.4031 H   0  0  0  0  0  0  0  0  0  0  0  0
   35.8014   28.8220   51.9990 H   0  0  0  0  0  0  0  0  0  0  0  0
   34.1671   29.4954   52.2475 H   0  0  0  0  0  0  0  0  0  0  0  0
   34.1768   32.1241   47.8700 C   0  0  0  0  0  0  0  0  0  0  0  0
   33.7155   33.1439   48.5884 N   0  0  0  0  0  0  0  0  0  0  0  0
   33.5236   34.3991   48.2324 C   0  0  0  0  0  0  0  0  0  0  0  0
   33.8089   34.7884   46.9843 N   0  0  0  0  0  0  0  0  0  0  0  0
   34.2857   33.8516   46.1521 C   0  0  0  0  0  0  0  0  0  0  0  0
   34.5826   34.2705   44.8758 C   0  0  0  0  0  0  0  0  0  0  0  0
   35.0792   33.3822   43.9773 C   0  0  0  0  0  0  0  0  0  0  0  0
   35.3062   33.7271   42.9822 H   0  0  0  0  0  0  0  0  0  0  0  0
   35.2852   32.0521   44.3527 C   0  0  0  0  0  0  0  0  0  0  0  0
   35.6810   31.3693   43.6179 H   0  0  0  0  0  0  0  0  0  0  0  0
   34.9619   31.7182   45.6464 C   0  0  0  0  0  0  0  0  0  0  0  0
   34.4576   32.5610   46.6026 C   0  0  0  0  0  0  0  0  0  0  0  0
   33.1289   35.0698   49.0055 H   0  0  0  0  0  0  0  0  0  0  0  0
   34.4281   35.2998   44.5701 H   0  0  0  0  0  0  0  0  0  0  0  0
   35.1505   30.7113   45.8607 H   0  0  0  0  0  0  0  0  0  0  0  0
  1 17  1  0
  2  1  1  0
  3  2  1  0
  4  5  1  0
  4  3  1  0
  5  6  1  0
  6  8  1  0
  6  1  1  0
  7 12  2  0
  7  8  1  0
  8  9  2  0
  9 10  1  0
 10 15  1  0
 11 13  1  0
 11 10  2  0
 12 11  1  0
 13 14  1  0
 14 15  1  0
 16 21  2  0
 17 16  1  0
 17 18  2  0
 18 19  1  0
 19 20  2  0
 20 22  1  0
 21 20  1  0
  2 23  1  0
  2 24  1  0
  3 25  1  0
  3 26  1  0
  4 27  1  0
  5 28  1  0
  5 29  1  0
  6 30  1  6
  7 31  1  0
  9 32  1  0
 12 33  1  0
 14 34  1  0
 14 35  1  0
 16 36  1  0
 22 37  1  0
 22 38  1  0
 39 40  2  0
 40 41  1  0
 41 42  2  0
 42 43  1  0
 43 44  2  0
 44 45  1  0
 45 46  1  0
 45 47  2  0
 47 48  1  0
 47 49  1  0
 49 50  2  0
 50 39  1  0
 50 43  1  0
 41 51  1  0
 44 52  1  0
 49 53  1  0
 18 39  1  0
M  ISO  8  23  13  24  13  25  13  26  13  27   5  28  13  29  13  30  13
M  ISO  8  31  14  32  14  33  14  34  13  35  13  36  14  46  16  48  16
M  END
>  <DihAtoms>  (1) 
16,17,38,39

>  <DihDeg>  (1) 
-5.830567620106247

$$$$
