
     RDKit          3D

 33 36  0  0  0  0  0  0  0  0999 V2000
   37.1596   31.3046   49.2597 C   0  0  0  0  0  0  0  0  0  0  0  0
   37.2858   32.6026   49.7825 C   0  0  0  0  0  0  0  0  0  0  0  0
   38.2472   33.3842   49.1895 C   0  0  0  0  0  0  0  0  0  0  0  0
   39.0004   32.9018   48.1740 N   0  0  0  0  0  0  0  0  0  0  0  0
   38.8522   31.6432   47.6930 C   0  0  0  0  0  0  0  0  0  0  0  0
   37.9158   30.8234   48.2425 N   0  0  0  0  0  0  0  0  0  0  0  0
   39.6223   31.1322   46.6261 N   0  0  0  0  0  0  0  0  0  0  0  0
   36.0933   30.4212   49.8683 C   0  0  0  0  0  0  0  0  0  0  0  0
   36.0987   28.9940   49.6575 C   0  0  0  0  0  0  0  0  0  0  0  0
   36.6477   29.5077   50.9629 C   0  0  0  0  0  0  0  0  0  0  0  0
   36.6508   32.9193   50.5927 H   0  0  0  0  0  0  0  0  0  0  0  0
   38.4004   34.3959   49.5414 H   0  0  0  0  0  0  0  0  0  0  0  0
   40.4526   30.5094   46.6356 H   0  0  0  0  0  0  0  0  0  0  0  0
   39.2417   31.4751   45.6943 H   0  0  0  0  0  0  0  0  0  0  0  0
   35.2412   31.0407   50.2515 H   0  0  0  0  0  0  0  0  0  0  0  0
   35.1384   28.4295   49.6523 H   0  0  0  0  0  0  0  0  0  0  0  0
   36.8679   28.5885   48.9707 H   0  0  0  0  0  0  0  0  0  0  0  0
   35.9856   29.2904   51.8217 H   0  0  0  0  0  0  0  0  0  0  0  0
   38.1036   29.5028   51.2264 C   0  0  0  0  0  0  0  0  0  0  0  0
   38.9681   28.6599   50.5876 N   0  0  0  0  0  0  0  0  0  0  0  0
   40.2912   28.6936   50.8632 C   0  0  0  0  0  0  0  0  0  0  0  0
   40.8217   29.5447   51.7668 N   0  0  0  0  0  0  0  0  0  0  0  0
   39.9936   30.3968   52.4211 C   0  0  0  0  0  0  0  0  0  0  0  0
   40.4988   31.2937   53.3634 C   0  0  0  0  0  0  0  0  0  0  0  0
   39.6771   32.1712   54.0430 C   0  0  0  0  0  0  0  0  0  0  0  0
   40.0242   32.8838   54.7817 H   0  0  0  0  0  0  0  0  0  0  0  0
   38.3214   32.1713   53.7933 C   0  0  0  0  0  0  0  0  0  0  0  0
   37.5747   32.8140   54.2643 H   0  0  0  0  0  0  0  0  0  0  0  0
   37.8487   31.2828   52.8649 C   0  0  0  0  0  0  0  0  0  0  0  0
   38.6265   30.3854   52.1584 C   0  0  0  0  0  0  0  0  0  0  0  0
   41.0049   28.0591   50.3939 H   0  0  0  0  0  0  0  0  0  0  0  0
   41.5409   31.3155   53.5761 H   0  0  0  0  0  0  0  0  0  0  0  0
   36.7880   31.2154   52.6057 H   0  0  0  0  0  0  0  0  0  0  0  0
  1  2  2  0
  1  8  1  0
  3  2  1  0
  4  3  2  0
  5  4  1  0
  5  6  2  0
  6  1  1  0
  7  5  1  0
  8 10  1  0
  9  8  1  0
  9 10  1  0
  2 11  1  0
  3 12  1  0
  7 13  1  0
  7 14  1  0
  8 15  1  0
  9 16  1  0
  9 17  1  0
 10 18  1  0
 19 20  2  0
 20 21  1  0
 21 22  2  0
 22 23  1  0
 23 24  2  0
 24 25  1  0
 25 26  1  0
 25 27  2  0
 27 28  1  0
 27 29  1  0
 29 30  2  0
 30 19  1  0
 30 23  1  0
 21 31  1  0
 24 32  1  0
 29 33  1  0
 10 19  1  0
M  ISO  8  11  14  12  14  15  13  16  13  17  13  18  13  26  16  28  16
M  END
>  <DihAtoms>  (1) 
7,9,18,19

>  <DihDeg>  (1) 
-89.99593462395974

$$$$
