
     RDKit          3D

 50 55  0  0  0  0  0  0  0  0999 V2000
   35.8471   28.9091   49.3691 C   0  0  0  0  0  0  0  0  0  0  0  0
   35.8534   30.0952   48.5880 C   0  0  0  0  0  0  0  0  0  0  0  0
   34.7657   30.3258   47.7137 C   0  0  0  0  0  0  0  0  0  0  0  0
   33.7618   29.4136   47.6419 N   0  0  0  0  0  0  0  0  0  0  0  0
   33.8166   28.2849   48.4205 C   0  0  0  0  0  0  0  0  0  0  0  0
   34.8400   28.0338   49.2729 N   0  0  0  0  0  0  0  0  0  0  0  0
   32.7460   27.3283   48.2795 N   0  0  0  0  0  0  0  0  0  0  0  0
   31.3725   27.6227   48.5610 C   0  0  0  0  0  0  0  0  0  0  0  0
   30.6111   26.4548   48.0156 C   0  0  0  0  0  0  0  0  0  0  0  0
   31.5856   25.6293   47.2118 C   0  0  0  0  0  0  0  0  0  0  0  0
   32.9021   25.9395   47.8368 C   0  0  0  0  0  0  0  0  0  0  0  0
   36.8335   31.1248   48.5369 C   0  0  0  0  0  0  0  0  0  0  0  0
   36.7986   32.0086   49.5676 N   0  0  0  0  0  0  0  0  0  0  0  0
   37.6763   33.0185   49.6106 C   0  0  0  0  0  0  0  0  0  0  0  0
   38.6457   33.2392   48.6608 N   0  0  0  0  0  0  0  0  0  0  0  0
   38.7055   32.3831   47.6338 C   0  0  0  0  0  0  0  0  0  0  0  0
   39.6706   32.4685   46.6318 C   0  0  0  0  0  0  0  0  0  0  0  0
   39.7361   31.5363   45.6065 C   0  0  0  0  0  0  0  0  0  0  0  0
   38.8089   30.4821   45.5747 C   0  0  0  0  0  0  0  0  0  0  0  0
   37.8594   30.4355   46.5925 C   0  0  0  0  0  0  0  0  0  0  0  0
   37.8044   31.3523   47.5938 C   0  0  0  0  0  0  0  0  0  0  0  0
   36.7046   28.8218   50.0024 H   0  0  0  0  0  0  0  0  0  0  0  0
   34.6623   31.1745   47.0926 H   0  0  0  0  0  0  0  0  0  0  0  0
   31.2033   27.7531   49.6574 H   0  0  0  0  0  0  0  0  0  0  0  0
   31.0909   28.5209   47.9770 H   0  0  0  0  0  0  0  0  0  0  0  0
   29.7959   26.7711   47.3340 H   0  0  0  0  0  0  0  0  0  0  0  0
   30.1557   25.8608   48.8488 H   0  0  0  0  0  0  0  0  0  0  0  0
   31.5590   25.8738   46.1280 H   0  0  0  0  0  0  0  0  0  0  0  0
   31.3313   24.5645   47.3676 H   0  0  0  0  0  0  0  0  0  0  0  0
   33.7625   25.7814   47.1861 H   0  0  0  0  0  0  0  0  0  0  0  0
   33.0474   25.2892   48.7243 H   0  0  0  0  0  0  0  0  0  0  0  0
   37.6496   33.7234   50.4381 H   0  0  0  0  0  0  0  0  0  0  0  0
   40.3571   33.3158   46.7221 H   0  0  0  0  0  0  0  0  0  0  0  0
   40.5311   31.7479   44.9260 H   0  0  0  0  0  0  0  0  0  0  0  0
   39.0546   29.8959   44.7060 H   0  0  0  0  0  0  0  0  0  0  0  0
   37.0314   29.3355   46.1045 C   0  0  0  0  0  0  0  0  0  0  0  0
   35.7182   29.0405   46.0096 N   0  0  0  0  0  0  0  0  0  0  0  0
   35.2909   27.8614   45.5807 C   0  0  0  0  0  0  0  0  0  0  0  0
   36.1252   26.8916   45.2189 N   0  0  0  0  0  0  0  0  0  0  0  0
   37.4655   27.0674   45.2733 C   0  0  0  0  0  0  0  0  0  0  0  0
   38.2274   25.9910   44.9073 C   0  0  0  0  0  0  0  0  0  0  0  0
   39.5838   26.1282   44.9824 C   0  0  0  0  0  0  0  0  0  0  0  0
   40.2350   25.3318   44.7213 H   0  0  0  0  0  0  0  0  0  0  0  0
   40.1339   27.3058   45.4099 C   0  0  0  0  0  0  0  0  0  0  0  0
   41.2126   27.4840   45.5015 H   0  0  0  0  0  0  0  0  0  0  0  0
   39.3101   28.3453   45.7612 C   0  0  0  0  0  0  0  0  0  0  0  0
   37.9101   28.3153   45.7231 C   0  0  0  0  0  0  0  0  0  0  0  0
   34.1954   27.8349   45.5800 H   0  0  0  0  0  0  0  0  0  0  0  0
   37.7675   25.0695   44.5764 H   0  0  0  0  0  0  0  0  0  0  0  0
   39.7549   29.2715   46.1002 H   0  0  0  0  0  0  0  0  0  0  0  0
  2  1  2  0
  3  2  1  0
  4  3  2  0
  4  5  1  0
  5  6  2  0
  6  1  1  0
  7  5  1  0
  7  8  1  0
  9  8  1  0
 10 11  1  0
 10  9  1  0
 11  7  1  0
 12  2  1  0
 12 13  2  0
 13 14  1  0
 15 14  2  0
 16 15  1  0
 17 16  2  0
 18 17  1  0
 19 18  2  0
 19 20  1  0
 20 21  2  0
 21 16  1  0
 21 12  1  0
  1 22  1  0
  3 23  1  0
  8 24  1  0
  8 25  1  0
  9 26  1  0
  9 27  1  0
 10 28  1  0
 10 29  1  0
 11 30  1  0
 11 31  1  0
 14 32  1  0
 17 33  1  0
 18 34  1  0
 19 35  1  0
 36 37  2  0
 37 38  1  0
 38 39  2  0
 39 40  1  0
 40 41  2  0
 41 42  1  0
 42 43  1  0
 42 44  2  0
 44 45  1  0
 44 46  1  0
 46 47  2  0
 47 36  1  0
 47 40  1  0
 38 48  1  0
 41 49  1  0
 46 50  1  0
 20 36  1  0
M  ISO  8  22  14  23  14  24  13  25  13  26  13  27  13  28  13  29  13
M  ISO  8  30  13  31  13  32  14  33  14  34  14  35  14  43  16  45  16
M  END
>  <DihAtoms>  (1) 
18,19,35,36

>  <DihDeg>  (1) 
-93.33881421557133

$$$$
