
     RDKit          3D

 33 36  0  0  0  0  0  0  0  0999 V2000
   37.1596   31.3046   49.2597 C   0  0  0  0  0  0  0  0  0  0  0  0
   37.2858   32.6026   49.7825 C   0  0  0  0  0  0  0  0  0  0  0  0
   38.2472   33.3842   49.1895 C   0  0  0  0  0  0  0  0  0  0  0  0
   39.0004   32.9018   48.1740 N   0  0  0  0  0  0  0  0  0  0  0  0
   38.8522   31.6432   47.6930 C   0  0  0  0  0  0  0  0  0  0  0  0
   37.9158   30.8234   48.2425 N   0  0  0  0  0  0  0  0  0  0  0  0
   39.6223   31.1322   46.6261 N   0  0  0  0  0  0  0  0  0  0  0  0
   36.0933   30.4212   49.8683 C   0  0  1  0  0  0  0  0  0  0  0  0
   36.0987   28.9940   49.6575 C   0  0  0  0  0  0  0  0  0  0  0  0
   36.6477   29.5077   50.9629 C   0  0  1  0  0  0  0  0  0  0  0  0
   36.6508   32.9193   50.5927 H   0  0  0  0  0  0  0  0  0  0  0  0
   38.4004   34.3959   49.5414 H   0  0  0  0  0  0  0  0  0  0  0  0
   40.4526   30.5094   46.6356 H   0  0  0  0  0  0  0  0  0  0  0  0
   39.2417   31.4751   45.6943 H   0  0  0  0  0  0  0  0  0  0  0  0
   35.2412   31.0407   50.2515 H   0  0  0  0  0  0  0  0  0  0  0  0
   35.1384   28.4295   49.6523 H   0  0  0  0  0  0  0  0  0  0  0  0
   36.8679   28.5885   48.9707 H   0  0  0  0  0  0  0  0  0  0  0  0
   35.9856   29.2904   51.8217 H   0  0  0  0  0  0  0  0  0  0  0  0
   38.1036   29.5028   51.2264 C   0  0  0  0  0  0  0  0  0  0  0  0
   39.0029   28.8912   50.3999 N   0  0  0  0  0  0  0  0  0  0  0  0
   40.3244   28.9144   50.6840 C   0  0  0  0  0  0  0  0  0  0  0  0
   40.8196   29.5306   51.7782 N   0  0  0  0  0  0  0  0  0  0  0  0
   39.9563   30.1488   52.6223 C   0  0  0  0  0  0  0  0  0  0  0  0
   40.4244   30.7983   53.7655 C   0  0  0  0  0  0  0  0  0  0  0  0
   39.5665   31.4349   54.6406 C   0  0  0  0  0  0  0  0  0  0  0  0
   39.8840   31.9509   55.5388 H   0  0  0  0  0  0  0  0  0  0  0  0
   38.2110   31.4362   54.3899 C   0  0  0  0  0  0  0  0  0  0  0  0
   37.4378   31.9027   55.0040 H   0  0  0  0  0  0  0  0  0  0  0  0
   37.7751   30.7929   53.2625 C   0  0  0  0  0  0  0  0  0  0  0  0
   38.5899   30.1419   52.3561 C   0  0  0  0  0  0  0  0  0  0  0  0
   41.0642   28.4539   50.0734 H   0  0  0  0  0  0  0  0  0  0  0  0
   41.4654   30.8131   53.9838 H   0  0  0  0  0  0  0  0  0  0  0  0
   36.7173   30.7450   52.9875 H   0  0  0  0  0  0  0  0  0  0  0  0
  1  2  2  0
  1  8  1  0
  3  2  1  0
  4  3  2  0
  5  4  1  0
  5  6  2  0
  6  1  1  0
  7  5  1  0
  8 10  1  0
  9  8  1  0
  9 10  1  0
  2 11  1  0
  3 12  1  0
  7 13  1  0
  7 14  1  0
  8 15  1  1
  9 16  1  0
  9 17  1  0
 10 18  1  1
 19 20  2  0
 20 21  1  0
 21 22  2  0
 22 23  1  0
 23 24  2  0
 24 25  1  0
 25 26  1  0
 25 27  2  0
 27 28  1  0
 27 29  1  0
 29 30  2  0
 30 19  1  0
 30 23  1  0
 21 31  1  0
 24 32  1  0
 29 33  1  0
 10 19  1  0
M  ISO  8  11  14  12  14  15  13  16  13  17  13  18  13  26  16  28  16
M  END
>  <DihAtoms>  (1) 
7,9,18,19

>  <DihDeg>  (1) 
-89.99593462395974

$$$$
