
     RDKit          3D

 48 52  0  0  0  0  0  0  0  0999 V2000
   35.0048   28.3826   49.4552 C   0  0  0  0  0  0  0  0  0  0  0  0
   34.2787   28.7677   48.4417 C   0  0  0  0  0  0  0  0  0  0  0  0
   37.3838   30.1689   51.5731 C   0  0  0  0  0  0  0  0  0  0  0  0
   38.0890   30.9304   50.6287 C   0  0  0  0  0  0  0  0  0  0  0  0
   37.7270   30.8156   49.2740 C   0  0  0  0  0  0  0  0  0  0  0  0
   36.6963   29.9578   48.9512 N   0  0  0  0  0  0  0  0  0  0  0  0
   36.0650   29.2572   49.9244 C   0  0  0  0  0  0  0  0  0  0  0  0
   36.3985   29.3595   51.1993 N   0  0  0  0  0  0  0  0  0  0  0  0
   38.3803   31.5625   48.2063 C   0  0  0  0  0  0  0  0  0  0  0  0
   38.5872   31.0311   46.9426 C   0  0  0  0  0  0  0  0  0  0  0  0
   39.2317   32.0262   46.1843 C   0  0  0  0  0  0  0  0  0  0  0  0
   39.3874   33.0981   47.0001 N   0  0  0  0  0  0  0  0  0  0  0  0
   38.8809   32.8151   48.1941 N   0  0  0  0  0  0  0  0  0  0  0  0
   33.1654   28.0577   47.7856 C   0  0  0  0  0  0  0  0  0  0  0  0
   33.6078   26.9171   46.9185 C   0  0  0  0  0  0  0  0  0  0  0  0
   33.7922   25.6213   47.3301 C   0  0  0  0  0  0  0  0  0  0  0  0
   34.1939   24.6507   46.4410 C   0  0  0  0  0  0  0  0  0  0  0  0
   34.4248   24.9534   45.1025 C   0  0  0  0  0  0  0  0  0  0  0  0
   34.2412   26.2421   44.6943 C   0  0  0  0  0  0  0  0  0  0  0  0
   33.8388   27.2268   45.5729 C   0  0  0  0  0  0  0  0  0  0  0  0
   34.7424   27.4069   49.8760 H   0  0  0  0  0  0  0  0  0  0  0  0
   34.5743   29.7463   48.0591 H   0  0  0  0  0  0  0  0  0  0  0  0
   37.7206   30.3108   52.6096 H   0  0  0  0  0  0  0  0  0  0  0  0
   38.9111   31.6197   50.8498 H   0  0  0  0  0  0  0  0  0  0  0  0
   38.3511   30.0814   46.5105 H   0  0  0  0  0  0  0  0  0  0  0  0
   39.5645   32.0138   45.1588 H   0  0  0  0  0  0  0  0  0  0  0  0
   39.8156   34.0517   46.8484 H   0  0  0  0  0  0  0  0  0  0  0  0
   32.5321   27.6137   48.5802 H   0  0  0  0  0  0  0  0  0  0  0  0
   32.5247   28.7278   47.1940 H   0  0  0  0  0  0  0  0  0  0  0  0
   33.5942   25.4638   48.3873 H   0  0  0  0  0  0  0  0  0  0  0  0
   34.2994   23.6817   46.8952 H   0  0  0  0  0  0  0  0  0  0  0  0
   34.7352   24.0919   44.5308 H   0  0  0  0  0  0  0  0  0  0  0  0
   34.4456   26.3839   43.6390 H   0  0  0  0  0  0  0  0  0  0  0  0
   33.7466   28.5387   44.9252 C   0  0  0  0  0  0  0  0  0  0  0  0
   34.2770   28.7234   43.7113 N   0  0  0  0  0  0  0  0  0  0  0  0
   34.2671   29.8639   43.0299 C   0  0  0  0  0  0  0  0  0  0  0  0
   33.6685   30.9149   43.6269 N   0  0  0  0  0  0  0  0  0  0  0  0
   33.1088   30.8262   44.8446 C   0  0  0  0  0  0  0  0  0  0  0  0
   32.5179   31.9705   45.3935 C   0  0  0  0  0  0  0  0  0  0  0  0
   31.9892   31.7573   46.6478 C   0  0  0  0  0  0  0  0  0  0  0  0
   31.5240   32.6476   47.0896 H   0  0  0  0  0  0  0  0  0  0  0  0
   31.9750   30.6082   47.3862 C   0  0  0  0  0  0  0  0  0  0  0  0
   31.5208   30.5741   48.3679 H   0  0  0  0  0  0  0  0  0  0  0  0
   32.5791   29.5016   46.7849 C   0  0  0  0  0  0  0  0  0  0  0  0
   33.1323   29.6187   45.5377 C   0  0  0  0  0  0  0  0  0  0  0  0
   34.6736   30.0623   42.0645 H   0  0  0  0  0  0  0  0  0  0  0  0
   32.4788   32.9241   44.8897 H   0  0  0  0  0  0  0  0  0  0  0  0
   32.6017   28.5708   47.3183 H   0  0  0  0  0  0  0  0  0  0  0  0
  1  7  1  0
  2  1  2  0
  4  3  2  0
  5  4  1  0
  6  5  2  0
  6  7  1  0
  7  8  2  0
  8  3  1  0
  9  5  1  0
 10  9  1  0
 11 10  2  0
 11 12  1  0
 12 13  1  0
 13  9  2  0
 14  2  1  0
 15 16  2  0
 15 14  1  0
 17 16  1  0
 18 17  2  0
 19 18  1  0
 19 20  2  0
 20 15  1  0
  1 21  1  0
  2 22  1  0
  3 23  1  0
  4 24  1  0
 10 25  1  0
 11 26  1  0
 12 27  1  0
 14 28  1  0
 14 29  1  0
 16 30  1  0
 17 31  1  0
 18 32  1  0
 19 33  1  0
 34 35  2  0
 35 36  1  0
 36 37  2  0
 37 38  1  0
 38 39  2  0
 39 40  1  0
 40 41  1  0
 40 42  2  0
 42 43  1  0
 42 44  1  0
 44 45  2  0
 45 34  1  0
 45 38  1  0
 36 46  1  0
 39 47  1  0
 44 48  1  0
 20 34  1  0
M  ISO  8  23  14  24  14  25  14  26  14  27   9  28   8  29   8  30  14
M  ISO  5  31  14  32  14  33  14  41  16  43  16
M  END
>  <DihAtoms>  (1) 
18,19,33,34

>  <DihDeg>  (1) 
-117.82386329033892

$$$$
