
     RDKit          3D

 26 28  0  0  0  0  0  0  0  0999 V2000
   36.6315   29.7617   51.2625 C   0  0  0  0  0  0  0  0  0  0  0  0
   37.3757   30.1144   50.1419 C   0  0  0  0  0  0  0  0  0  0  0  0
   36.7989   29.7922   48.9083 C   0  0  0  0  0  0  0  0  0  0  0  0
   35.6002   29.1815   48.8761 N   0  0  0  0  0  0  0  0  0  0  0  0
   34.9163   28.8587   49.9597 C   0  0  0  0  0  0  0  0  0  0  0  0
   35.4369   29.1515   51.1597 N   0  0  0  0  0  0  0  0  0  0  0  0
   38.6284   30.7540   50.2368 N   0  0  0  0  0  0  0  0  0  0  0  0
   37.1061   30.0249   52.1980 H   0  0  0  0  0  0  0  0  0  0  0  0
   37.2845   30.0179   47.9868 H   0  0  0  0  0  0  0  0  0  0  0  0
   38.8517   31.5049   50.9131 H   0  0  0  0  0  0  0  0  0  0  0  0
   39.4765   30.5596   49.6516 H   0  0  0  0  0  0  0  0  0  0  0  0
   33.6098   28.1979   50.1326 C   0  0  0  0  0  0  0  0  0  0  0  0
   33.3857   26.8792   49.9604 N   0  0  0  0  0  0  0  0  0  0  0  0
   32.2021   26.2864   50.1180 C   0  0  0  0  0  0  0  0  0  0  0  0
   31.1023   26.9696   50.4712 N   0  0  0  0  0  0  0  0  0  0  0  0
   31.2268   28.2909   50.6655 C   0  0  0  0  0  0  0  0  0  0  0  0
   30.0850   28.9693   51.0270 C   0  0  0  0  0  0  0  0  0  0  0  0
   30.1347   30.3203   51.2426 C   0  0  0  0  0  0  0  0  0  0  0  0
   29.2263   30.8215   51.5237 H   0  0  0  0  0  0  0  0  0  0  0  0
   31.3703   30.9554   51.0807 C   0  0  0  0  0  0  0  0  0  0  0  0
   31.3602   32.0295   51.2628 H   0  0  0  0  0  0  0  0  0  0  0  0
   32.4711   30.2165   50.7180 C   0  0  0  0  0  0  0  0  0  0  0  0
   32.4635   28.8747   50.4948 C   0  0  0  0  0  0  0  0  0  0  0  0
   32.2067   25.2189   49.9382 H   0  0  0  0  0  0  0  0  0  0  0  0
   29.1426   28.4517   51.1448 H   0  0  0  0  0  0  0  0  0  0  0  0
   33.3317   30.8143   50.6312 H   0  0  0  0  0  0  0  0  0  0  0  0
  2  7  1  0
  2  1  2  0
  3  2  1  0
  4  3  2  0
  4  5  1  0
  5  6  2  0
  6  1  1  0
  1  8  1  0
  3  9  1  0
  7 10  1  0
  7 11  1  0
 12 13  2  0
 13 14  1  0
 14 15  2  0
 15 16  1  0
 16 17  2  0
 17 18  1  0
 18 19  1  0
 18 20  2  0
 20 21  1  0
 20 22  1  0
 22 23  2  0
 23 12  1  0
 23 16  1  0
 14 24  1  0
 17 25  1  0
 22 26  1  0
  5 12  1  0
M  ISO  4   8  14   9  14  19  16  21  16
M  END
>  <DihAtoms>  (1) 
3,4,11,12

>  <DihDeg>  (1) 
-179.9986612128587

$$$$
