
     RDKit          3D

 26 28  0  0  0  0  0  0  0  0999 V2000
   36.6315   29.7617   51.2625 C   0  0  0  0  0  0  0  0  0  0  0  0
   37.3757   30.1144   50.1419 C   0  0  0  0  0  0  0  0  0  0  0  0
   36.7989   29.7922   48.9083 C   0  0  0  0  0  0  0  0  0  0  0  0
   35.6002   29.1815   48.8761 N   0  0  0  0  0  0  0  0  0  0  0  0
   34.9163   28.8587   49.9597 C   0  0  0  0  0  0  0  0  0  0  0  0
   35.4369   29.1515   51.1597 N   0  0  0  0  0  0  0  0  0  0  0  0
   38.6284   30.7540   50.2368 N   0  0  0  0  0  0  0  0  0  0  0  0
   37.1061   30.0249   52.1980 H   0  0  0  0  0  0  0  0  0  0  0  0
   37.2845   30.0179   47.9868 H   0  0  0  0  0  0  0  0  0  0  0  0
   38.8517   31.5049   50.9131 H   0  0  0  0  0  0  0  0  0  0  0  0
   39.4765   30.5596   49.6516 H   0  0  0  0  0  0  0  0  0  0  0  0
   33.6098   28.1979   50.1326 C   0  0  0  0  0  0  0  0  0  0  0  0
   32.4403   28.6680   49.6531 N   0  0  0  0  0  0  0  0  0  0  0  0
   31.2612   28.0666   49.8122 C   0  0  0  0  0  0  0  0  0  0  0  0
   31.1336   26.9103   50.4812 N   0  0  0  0  0  0  0  0  0  0  0  0
   32.2452   26.3641   50.9963 C   0  0  0  0  0  0  0  0  0  0  0  0
   32.0885   25.1785   51.6779 C   0  0  0  0  0  0  0  0  0  0  0  0
   33.1781   24.5616   52.2313 C   0  0  0  0  0  0  0  0  0  0  0  0
   33.0232   23.6371   52.7573 H   0  0  0  0  0  0  0  0  0  0  0  0
   34.4217   25.1818   52.0721 C   0  0  0  0  0  0  0  0  0  0  0  0
   35.2581   24.6541   52.5293 H   0  0  0  0  0  0  0  0  0  0  0  0
   34.5063   26.3658   51.3791 C   0  0  0  0  0  0  0  0  0  0  0  0
   33.4491   27.0098   50.8150 C   0  0  0  0  0  0  0  0  0  0  0  0
   30.4266   28.5869   49.3597 H   0  0  0  0  0  0  0  0  0  0  0  0
   31.1139   24.7217   51.7853 H   0  0  0  0  0  0  0  0  0  0  0  0
   35.4943   26.7224   51.3339 H   0  0  0  0  0  0  0  0  0  0  0  0
  2  7  1  0
  2  1  2  0
  3  2  1  0
  4  3  2  0
  4  5  1  0
  5  6  2  0
  6  1  1  0
  1  8  1  0
  3  9  1  0
  7 10  1  0
  7 11  1  0
 12 13  2  0
 13 14  1  0
 14 15  2  0
 15 16  1  0
 16 17  2  0
 17 18  1  0
 18 19  1  0
 18 20  2  0
 20 21  1  0
 20 22  1  0
 22 23  2  0
 23 12  1  0
 23 16  1  0
 14 24  1  0
 17 25  1  0
 22 26  1  0
  5 12  1  0
M  ISO  4   8  14   9  14  19  16  21  16
M  END
>  <DihAtoms>  (1) 
3,4,11,12

>  <DihDeg>  (1) 
-179.9986612128587

$$$$
