
     RDKit          3D

 33 36  0  0  0  0  0  0  0  0999 V2000
   37.1596   31.3046   49.2597 C   0  0  0  0  0  0  0  0  0  0  0  0
   37.2858   32.6026   49.7825 C   0  0  0  0  0  0  0  0  0  0  0  0
   38.2472   33.3842   49.1895 C   0  0  0  0  0  0  0  0  0  0  0  0
   39.0004   32.9018   48.1740 N   0  0  0  0  0  0  0  0  0  0  0  0
   38.8522   31.6432   47.6930 C   0  0  0  0  0  0  0  0  0  0  0  0
   37.9158   30.8234   48.2425 N   0  0  0  0  0  0  0  0  0  0  0  0
   39.6223   31.1322   46.6261 N   0  0  0  0  0  0  0  0  0  0  0  0
   36.0933   30.4212   49.8683 C   0  0  1  0  0  0  0  0  0  0  0  0
   36.0987   28.9940   49.6575 C   0  0  0  0  0  0  0  0  0  0  0  0
   36.6477   29.5077   50.9629 C   0  0  1  0  0  0  0  0  0  0  0  0
   36.6508   32.9193   50.5927 H   0  0  0  0  0  0  0  0  0  0  0  0
   38.4004   34.3959   49.5414 H   0  0  0  0  0  0  0  0  0  0  0  0
   40.4526   30.5094   46.6356 H   0  0  0  0  0  0  0  0  0  0  0  0
   39.2417   31.4751   45.6943 H   0  0  0  0  0  0  0  0  0  0  0  0
   35.2412   31.0407   50.2515 H   0  0  0  0  0  0  0  0  0  0  0  0
   35.1384   28.4295   49.6523 H   0  0  0  0  0  0  0  0  0  0  0  0
   36.8679   28.5885   48.9707 H   0  0  0  0  0  0  0  0  0  0  0  0
   35.9856   29.2904   51.8217 H   0  0  0  0  0  0  0  0  0  0  0  0
   38.1036   29.5028   51.2264 C   0  0  0  0  0  0  0  0  0  0  0  0
   38.6601   30.1095   52.3164 N   0  0  0  0  0  0  0  0  0  0  0  0
   39.9972   30.0774   52.5135 C   0  0  0  0  0  0  0  0  0  0  0  0
   40.8405   29.4566   51.6615 N   0  0  0  0  0  0  0  0  0  0  0  0
   40.3238   28.8431   50.5676 C   0  0  0  0  0  0  0  0  0  0  0  0
   41.1586   28.1892   49.6603 C   0  0  0  0  0  0  0  0  0  0  0  0
   40.6577   27.5572   48.5392 C   0  0  0  0  0  0  0  0  0  0  0  0
   41.2666   27.0380   47.8087 H   0  0  0  0  0  0  0  0  0  0  0  0
   39.3003   27.5650   48.2989 C   0  0  0  0  0  0  0  0  0  0  0  0
   38.7884   27.1029   47.4523 H   0  0  0  0  0  0  0  0  0  0  0  0
   38.5012   28.2125   49.2028 C   0  0  0  0  0  0  0  0  0  0  0  0
   38.9508   28.8592   50.3381 C   0  0  0  0  0  0  0  0  0  0  0  0
   40.4791   30.5337   53.3452 H   0  0  0  0  0  0  0  0  0  0  0  0
   42.2100   28.1674   49.8206 H   0  0  0  0  0  0  0  0  0  0  0  0
   37.4144   28.2676   49.0897 H   0  0  0  0  0  0  0  0  0  0  0  0
  1  2  2  0
  1  8  1  0
  3  2  1  0
  4  3  2  0
  5  4  1  0
  5  6  2  0
  6  1  1  0
  7  5  1  0
  8 10  1  0
  9  8  1  0
  9 10  1  0
  2 11  1  0
  3 12  1  0
  7 13  1  0
  7 14  1  0
  8 15  1  1
  9 16  1  0
  9 17  1  0
 10 18  1  1
 19 20  2  0
 20 21  1  0
 21 22  2  0
 22 23  1  0
 23 24  2  0
 24 25  1  0
 25 26  1  0
 25 27  2  0
 27 28  1  0
 27 29  1  0
 29 30  2  0
 30 19  1  0
 30 23  1  0
 21 31  1  0
 24 32  1  0
 29 33  1  0
 10 19  1  0
M  ISO  8  11  14  12  14  15  13  16  13  17  13  18  13  26  16  28  16
M  END
>  <DihAtoms>  (1) 
7,9,18,19

>  <DihDeg>  (1) 
-89.99593462395974

$$$$
