
     RDKit          3D

 39 42  0  0  1  0  0  0  0  0999 V2000
   36.3820   29.7000   48.7210 N   0  0  0  0  0  0  0  0  0  0  0  0
   36.8700   29.2570   50.0210 C   0  0  0  0  0  0  0  0  0  0  0  0
   37.5200   30.2310   50.8880 C   0  0  0  0  0  0  0  0  0  0  0  0
   38.1300   31.4270   50.2660 C   0  0  0  0  0  0  0  0  0  0  0  0
   37.5390   31.7990   48.9250 C   0  0  0  0  0  0  0  0  0  0  0  0
   37.3900   30.4860   48.1190 C   0  0  2  0  0  0  0  0  0  0  0  0
   37.3160   30.7990   46.7000 C   0  0  0  0  0  0  0  0  0  0  0  0
   36.3650   30.2890   45.8560 N   0  0  0  0  0  0  0  0  0  0  0  0
   36.3620   30.6500   44.5650 C   0  0  0  0  0  0  0  0  0  0  0  0
   37.2430   31.5060   43.9840 N   0  0  0  0  0  0  0  0  0  0  0  0
   38.1910   32.0300   44.7790 C   0  0  0  0  0  0  0  0  0  0  0  0
   39.0900   32.9010   44.2110 C   0  0  0  0  0  0  0  0  0  0  0  0
   40.0800   33.4670   44.9850 C   0  0  0  0  0  0  0  0  0  0  0  0
   40.1500   33.1450   46.3270 C   0  0  0  0  0  0  0  0  0  0  0  0
   39.2330   32.2770   46.8330 C   0  0  0  0  0  0  0  0  0  0  0  0
   38.2110   31.6710   46.1110 C   0  0  0  0  0  0  0  0  0  0  0  0
   35.0980   29.3470   48.2270 C   0  0  0  0  0  0  0  0  0  0  0  0
   34.2220   30.2550   47.6400 C   0  0  0  0  0  0  0  0  0  0  0  0
   32.9910   29.8290   47.1810 C   0  0  0  0  0  0  0  0  0  0  0  0
   32.6950   28.4960   47.3360 N   0  0  0  0  0  0  0  0  0  0  0  0
   33.5700   27.6420   47.9120 C   0  0  0  0  0  0  0  0  0  0  0  0
   34.7540   28.0730   48.3490 N   0  0  0  0  0  0  0  0  0  0  0  0
   36.0068   28.8562   50.5726 H   0  0  0  0  0  0  0  0  0  0  0  0
   37.6664   28.5379   49.7790 H   0  0  0  0  0  0  0  0  0  0  0  0
   36.7637   30.5860   51.6035 H   0  0  0  0  0  0  0  0  0  0  0  0
   38.3720   29.6848   51.3190 H   0  0  0  0  0  0  0  0  0  0  0  0
   37.9955   32.2779   50.9500 H   0  0  0  0  0  0  0  0  0  0  0  0
   39.1883   31.1854   50.0884 H   0  0  0  0  0  0  0  0  0  0  0  0
   36.5554   32.2716   49.0632 H   0  0  0  0  0  0  0  0  0  0  0  0
   38.1847   32.5148   48.3953 H   0  0  0  0  0  0  0  0  0  0  0  0
   38.2657   29.8213   48.1563 H   0  0  0  0  0  0  0  0  0  0  0  0
   35.5812   30.2172   43.9223 H   0  0  0  0  0  0  0  0  0  0  0  0
   39.0194   33.1458   43.1409 H   0  0  0  0  0  0  0  0  0  0  0  0
   40.8044   34.1654   44.5406 H   0  0  0  0  0  0  0  0  0  0  0  0
   40.9286   33.5802   46.9707 H   0  0  0  0  0  0  0  0  0  0  0  0
   39.3062   32.0341   47.9034 H   0  0  0  0  0  0  0  0  0  0  0  0
   34.5100   31.3121   47.5416 H   0  0  0  0  0  0  0  0  0  0  0  0
   32.2797   30.5252   46.7126 H   0  0  0  0  0  0  0  0  0  0  0  0
   33.3028   26.5806   48.0215 H   0  0  0  0  0  0  0  0  0  0  0  0
  1  2  1  0
  2  3  1  0
  4  3  1  0
  5  4  1  0
  6  1  1  0
  6  5  1  0
  7  6  1  0
  8  7  2  0
  9  8  1  0
 10  9  2  0
 10 11  1  0
 11 16  2  0
 12 11  1  0
 12 13  2  0
 13 14  1  0
 14 15  2  0
 16  7  1  0
 16 15  1  0
 17 22  1  0
 17  1  1  0
 18 17  2  0
 19 20  2  0
 19 18  1  0
 20 21  1  0
 21 22  2  0
  2 23  1  0
  2 24  1  0
  3 25  1  0
  3 26  1  0
  4 27  1  0
  4 28  1  0
  5 29  1  0
  5 30  1  0
  6 31  1  6
  9 32  1  0
 12 33  1  0
 13 34  1  0
 14 35  1  0
 15 36  1  0
 18 37  1  0
 19 38  1  0
 21 39  1  0
M  ISO  8  23  13  24  13  25  13  26  13  27  13  28  13  29  13  30  13
M  ISO  8  31  13  32  14  33  14  34  14  35  14  36  14  37  14  38  14
M  ISO  1  39  14
M  END
>  <minimizedAffinity>  (1) 
-6.63270378

>  <minimizedRMSD>  (1) 
0.865001678

$$$$
