
     RDKit          3D

 38 41  0  0  0  0  0  0  0  0999 V2000
   37.4712   31.4264   49.3888 C   0  0  0  0  0  0  0  0  0  0  0  0
   37.8829   32.7065   49.7043 C   0  0  0  0  0  0  0  0  0  0  0  0
   38.6849   33.3227   48.7555 C   0  0  0  0  0  0  0  0  0  0  0  0
   39.0194   32.6769   47.6067 N   0  0  0  0  0  0  0  0  0  0  0  0
   38.5981   31.4252   47.3318 C   0  0  0  0  0  0  0  0  0  0  0  0
   37.8094   30.8053   48.2554 N   0  0  0  0  0  0  0  0  0  0  0  0
   36.5704   30.7218   50.3615 C   0  0  0  0  0  0  0  0  0  0  0  0
   36.5011   29.3027   50.4765 C   0  0  0  0  0  0  0  0  0  0  0  0
   37.3449   30.0415   51.5065 C   0  0  0  0  0  0  0  0  0  0  0  0
   38.9187   30.7091   46.1065 C   0  0  0  0  0  0  0  0  0  0  0  0
   41.1394   31.6055   45.0785 C   0  0  0  0  0  0  0  0  0  0  0  0
   40.4820   32.1985   44.1868 O   0  0  0  0  0  0  0  0  0  0  0  0
   40.3568   30.7971   45.9402 N   0  0  0  0  0  0  0  0  0  0  0  0
   37.6212   33.2254   50.6136 H   0  0  0  0  0  0  0  0  0  0  0  0
   39.0748   34.3259   48.8808 H   0  0  0  0  0  0  0  0  0  0  0  0
   35.7346   31.3776   50.6783 H   0  0  0  0  0  0  0  0  0  0  0  0
   35.5577   28.8150   50.7867 H   0  0  0  0  0  0  0  0  0  0  0  0
   37.0813   28.6364   49.7763 H   0  0  0  0  0  0  0  0  0  0  0  0
   38.4458   29.9894   51.4242 H   0  0  0  0  0  0  0  0  0  0  0  0
   36.8831   30.2088   52.4981 H   0  0  0  0  0  0  0  0  0  0  0  0
   38.3941   31.1420   45.2106 H   0  0  0  0  0  0  0  0  0  0  0  0
   38.6347   29.6621   46.1480 H   0  0  0  0  0  0  0  0  0  0  0  0
   40.8220   30.1128   46.6126 H   0  0  0  0  0  0  0  0  0  0  0  0
   42.5848   31.5857   45.4094 C   0  0  0  0  0  0  0  0  0  0  0  0
   43.5326   31.1837   44.5451 N   0  0  0  0  0  0  0  0  0  0  0  0
   44.8305   31.1588   44.8291 C   0  0  0  0  0  0  0  0  0  0  0  0
   45.2995   31.5475   46.0428 N   0  0  0  0  0  0  0  0  0  0  0  0
   44.3997   31.9699   46.9775 C   0  0  0  0  0  0  0  0  0  0  0  0
   44.8693   32.3643   48.2096 C   0  0  0  0  0  0  0  0  0  0  0  0
   44.0031   32.7975   49.1860 C   0  0  0  0  0  0  0  0  0  0  0  0
   44.4630   33.0821   50.1077 H   0  0  0  0  0  0  0  0  0  0  0  0
   42.6432   32.8108   48.8523 C   0  0  0  0  0  0  0  0  0  0  0  0
   42.0020   33.1600   49.6551 H   0  0  0  0  0  0  0  0  0  0  0  0
   42.2361   32.4035   47.6012 C   0  0  0  0  0  0  0  0  0  0  0  0
   43.0685   31.9714   46.6188 C   0  0  0  0  0  0  0  0  0  0  0  0
   45.4242   30.8030   43.9976 H   0  0  0  0  0  0  0  0  0  0  0  0
   45.9416   32.3200   48.3778 H   0  0  0  0  0  0  0  0  0  0  0  0
   41.1856   32.4717   47.5061 H   0  0  0  0  0  0  0  0  0  0  0  0
  1  2  2  0
  1  7  1  0
  3  2  1  0
  4  3  2  0
  5  4  1  0
  5  6  2  0
  6  1  1  0
  7  8  1  0
  7  9  1  0
  8  9  1  0
 10  5  1  0
 11 13  1  0
 12 11  2  0
 13 10  1  0
  2 14  1  0
  3 15  1  0
  7 16  1  0
  8 17  1  0
  8 18  1  0
  9 19  1  0
  9 20  1  0
 10 21  1  0
 10 22  1  0
 13 23  1  0
 24 25  2  0
 25 26  1  0
 26 27  2  0
 27 28  1  0
 28 29  2  0
 29 30  1  0
 30 31  1  0
 30 32  2  0
 32 33  1  0
 32 34  1  0
 34 35  2  0
 35 24  1  0
 35 28  1  0
 26 36  1  0
 29 37  1  0
 34 38  1  0
 11 24  1  0
M  ISO  8  14  14  15  14  16  13  17  13  18  13  19  13  20  13  21   8
M  ISO  3  22   8  31  16  33  16
M  END
>  <DihAtoms>  (1) 
12,10,23,24

>  <DihDeg>  (1) 
0.7846094000512589

$$$$
