
     RDKit          3D

 38 41  0  0  0  0  0  0  0  0999 V2000
   36.5372   29.7703   49.1882 N   0  0  0  0  0  0  0  0  0  0  0  0
   37.2998   30.8883   48.7583 C   0  0  1  0  0  0  0  0  0  0  0  0
   37.9767   31.3979   50.0119 C   0  0  0  0  0  0  0  0  0  0  0  0
   37.5358   30.4069   51.1127 C   0  0  0  0  0  0  0  0  0  0  0  0
   37.2463   29.1963   50.2986 C   0  0  0  0  0  0  0  0  0  0  0  0
   35.3086   29.3234   48.6262 C   0  0  0  0  0  0  0  0  0  0  0  0
   34.7423   30.0752   47.5910 C   0  0  0  0  0  0  0  0  0  0  0  0
   33.5412   29.6518   47.0147 C   0  0  0  0  0  0  0  0  0  0  0  0
   32.9933   28.5010   47.5207 N   0  0  0  0  0  0  0  0  0  0  0  0
   33.5651   27.7951   48.5237 C   0  0  0  0  0  0  0  0  0  0  0  0
   34.7395   28.2029   49.0920 N   0  0  0  0  0  0  0  0  0  0  0  0
   38.1797   30.6805   47.6071 C   0  0  0  0  0  0  0  0  0  0  0  0
   38.9416   31.6374   47.4118 O   0  0  0  0  0  0  0  0  0  0  0  0
   36.5781   31.7220   48.4157 H   0  0  0  0  0  0  0  0  0  0  0  0
   37.6284   32.4008   50.2782 H   0  0  0  0  0  0  0  0  0  0  0  0
   39.0720   31.3098   49.8682 H   0  0  0  0  0  0  0  0  0  0  0  0
   36.6923   30.7907   51.6856 H   0  0  0  0  0  0  0  0  0  0  0  0
   38.4320   30.1935   51.7362 H   0  0  0  0  0  0  0  0  0  0  0  0
   36.5809   28.5128   50.8790 H   0  0  0  0  0  0  0  0  0  0  0  0
   38.1605   28.6488   50.0406 H   0  0  0  0  0  0  0  0  0  0  0  0
   35.1494   30.9686   47.1840 H   0  0  0  0  0  0  0  0  0  0  0  0
   33.0794   30.2091   46.2152 H   0  0  0  0  0  0  0  0  0  0  0  0
   33.0360   26.9078   48.8328 H   0  0  0  0  0  0  0  0  0  0  0  0
   38.0817   29.4426   46.8298 C   0  0  0  0  0  0  0  0  0  0  0  0
   38.0200   28.2184   47.3805 N   0  0  0  0  0  0  0  0  0  0  0  0
   37.9275   27.0583   46.7393 C   0  0  0  0  0  0  0  0  0  0  0  0
   37.8861   27.0195   45.4152 N   0  0  0  0  0  0  0  0  0  0  0  0
   37.9398   28.1902   44.7235 C   0  0  0  0  0  0  0  0  0  0  0  0
   37.8938   28.1805   43.3476 C   0  0  0  0  0  0  0  0  0  0  0  0
   37.9398   29.3359   42.6209 C   0  0  0  0  0  0  0  0  0  0  0  0
   37.8983   29.2269   41.5586 H   0  0  0  0  0  0  0  0  0  0  0  0
   38.0360   30.5384   43.3296 C   0  0  0  0  0  0  0  0  0  0  0  0
   38.0712   31.4442   42.7404 H   0  0  0  0  0  0  0  0  0  0  0  0
   38.0788   30.4923   44.7038 C   0  0  0  0  0  0  0  0  0  0  0  0
   38.0349   29.3484   45.4591 C   0  0  0  0  0  0  0  0  0  0  0  0
   37.8888   26.1638   47.3558 H   0  0  0  0  0  0  0  0  0  0  0  0
   37.8197   27.2140   42.8797 H   0  0  0  0  0  0  0  0  0  0  0  0
   38.1456   31.4668   45.1383 H   0  0  0  0  0  0  0  0  0  0  0  0
  1  5  1  0
  2  1  1  0
  2  3  1  0
  3  4  1  0
  5  4  1  0
  6 11  1  0
  6  1  1  0
  7  6  2  0
  8  9  2  0
  8  7  1  0
  9 10  1  0
 10 11  2  0
 12  2  1  0
 13 12  2  0
  2 14  1  6
  3 15  1  0
  3 16  1  0
  4 17  1  0
  4 18  1  0
  5 19  1  0
  5 20  1  0
  7 21  1  0
  8 22  1  0
 10 23  1  0
 24 25  2  0
 25 26  1  0
 26 27  2  0
 27 28  1  0
 28 29  2  0
 29 30  1  0
 30 31  1  0
 30 32  2  0
 32 33  1  0
 32 34  1  0
 34 35  2  0
 35 24  1  0
 35 28  1  0
 26 36  1  0
 29 37  1  0
 34 38  1  0
 12 24  1  0
M  ISO  8  14  13  15  13  16  13  17  13  18  13  19  13  20  13  21  14
M  ISO  4  22  14  23  14  31  16  33  16
M  END
>  <DihAtoms>  (1) 
1,11,23,24

>  <DihDeg>  (1) 
-16.50535774392671

$$$$
