
     RDKit          3D

 38 41  0  0  0  0  0  0  0  0999 V2000
   38.1160   32.6715   49.3846 C   0  0  0  0  0  0  0  0  0  0  0  0
   38.8404   32.7990   48.1946 C   0  0  0  0  0  0  0  0  0  0  0  0
   38.4438   31.9821   47.1170 C   0  0  0  0  0  0  0  0  0  0  0  0
   37.4060   31.1375   47.2897 N   0  0  0  0  0  0  0  0  0  0  0  0
   36.7363   31.0473   48.4537 C   0  0  0  0  0  0  0  0  0  0  0  0
   37.0848   31.8068   49.4974 N   0  0  0  0  0  0  0  0  0  0  0  0
   35.6497   29.1313   49.5437 C   0  0  0  0  0  0  0  0  0  0  0  0
   35.6222   30.0993   48.5435 C   0  0  0  0  0  0  0  0  0  0  0  0
   34.5717   30.1550   47.6682 C   0  0  0  0  0  0  0  0  0  0  0  0
   33.5333   29.2619   47.7616 C   0  0  0  0  0  0  0  0  0  0  0  0
   32.4022   29.1072   47.0361 N   0  0  0  0  0  0  0  0  0  0  0  0
   31.7801   28.0492   47.6207 C   0  0  0  0  0  0  0  0  0  0  0  0
   32.4935   27.5683   48.6632 N   0  0  0  0  0  0  0  0  0  0  0  0
   33.6065   28.3167   48.7743 C   0  0  0  0  0  0  0  0  0  0  0  0
   34.6220   28.2207   49.6631 C   0  0  0  0  0  0  0  0  0  0  0  0
   39.0856   31.9893   45.8182 C   0  0  0  0  0  0  0  0  0  0  0  0
   38.7032   32.7933   44.7729 C   0  0  0  0  0  0  0  0  0  0  0  0
   39.2995   32.8151   43.5325 C   0  0  0  0  0  0  0  0  0  0  0  0
   40.3349   31.9818   43.3385 N   0  0  0  0  0  0  0  0  0  0  0  0
   40.7360   31.1814   44.3380 C   0  0  0  0  0  0  0  0  0  0  0  0
   40.1384   31.1902   45.5125 N   0  0  0  0  0  0  0  0  0  0  0  0
   38.4382   33.3024   50.1844 H   0  0  0  0  0  0  0  0  0  0  0  0
   39.6541   33.4523   48.0387 H   0  0  0  0  0  0  0  0  0  0  0  0
   36.5068   29.1240   50.2193 H   0  0  0  0  0  0  0  0  0  0  0  0
   34.5478   30.9103   46.8858 H   0  0  0  0  0  0  0  0  0  0  0  0
   32.0688   29.6491   46.2282 H   0  0  0  0  0  0  0  0  0  0  0  0
   30.8248   27.6486   47.2809 H   0  0  0  0  0  0  0  0  0  0  0  0
   34.6877   27.4931   50.4500 H   0  0  0  0  0  0  0  0  0  0  0  0
   37.8651   33.4766   44.9101 H   0  0  0  0  0  0  0  0  0  0  0  0
   38.9998   33.4436   42.7171 H   0  0  0  0  0  0  0  0  0  0  0  0
   43.4370   32.0391   44.4904 N   0  0  0  0  0  0  0  0  0  0  0  0
   43.1776   30.7826   44.3580 C   0  0  0  0  0  0  0  0  0  0  0  0
   41.8424   30.3117   44.0840 N   0  0  0  0  0  0  0  0  0  0  0  0
   44.3046   29.9261   44.5040 N   0  0  0  0  0  0  0  0  0  0  0  0
   44.7995   29.0704   44.8395 H   0  0  0  0  0  0  0  0  0  0  0  0
   44.3478   32.4634   44.6842 H   0  0  0  0  0  0  0  0  0  0  0  0
   41.7549   29.3613   43.7149 H   0  0  0  0  0  0  0  0  0  0  0  0
   45.2375   30.1850   44.0770 H   0  0  0  0  0  0  0  0  0  0  0  0
  1  6  2  0
  2  1  1  0
  3  4  1  0
  3  2  2  0
  4  5  2  0
  5  8  1  0
  5  6  1  0
  7 15  2  0
  8  7  1  0
  9 10  1  0
  9  8  2  0
 10 14  2  0
 11 12  1  0
 11 10  1  0
 12 13  2  0
 13 14  1  0
 14 15  1  0
 16  3  1  0
 17 16  2  0
 18 17  1  0
 19 18  2  0
 19 20  1  0
 20 21  2  0
 21 16  1  0
  1 22  1  0
  2 23  1  0
  7 24  1  0
  9 25  1  0
 11 26  1  0
 12 27  1  0
 15 28  1  0
 17 29  1  0
 18 30  1  0
 31 32  2  3
 32 33  1  0
 32 34  1  0
 34 35  1  0
 31 36  1  0
 33 37  1  0
 34 38  1  0
 20 33  1  0
M  ISO  8  22  14  23  14  24  14  25  14  26   9  27  14  28  14  29  14
M  ISO  2  30  14  35   5
M  END
>  <DihAtoms>  (1) 
18,19,32,31

>  <DihDeg>  (1) 
-179.99977875133266

$$$$
