
     RDKit          3D

 49 49  0  0  1  0  0  0  0  0999 V2000
   35.0000   30.0940   49.3860 C   0  0  2  0  0  0  0  0  0  0  0  0
   35.9800   30.7700   48.4930 C   0  0  0  0  0  0  0  0  0  0  0  0
   37.3700   30.1680   48.5870 C   0  0  2  0  0  0  0  0  0  0  0  0
   37.9060   30.1700   49.9710 C   0  0  0  0  0  0  0  0  0  0  0  0
   36.8750   29.8050   51.0160 C   0  0  0  0  0  0  0  0  0  0  0  0
   35.6520   29.1820   50.3960 C   0  0  0  0  0  0  0  0  0  0  0  0
   38.2860   30.8130   47.7150 N   0  0  0  0  0  0  0  0  0  0  0  0
   38.4880   30.0930   46.4670 C   0  0  0  0  0  0  0  0  0  0  0  0
   39.5660   30.9680   45.8290 C   0  0  0  0  0  0  0  0  0  0  0  0
   39.0030   32.3560   46.1450 C   0  0  0  0  0  0  0  0  0  0  0  0
   38.0840   32.1450   47.3660 C   0  0  0  0  0  0  0  0  0  0  0  0
   40.0390   34.0760   46.4920 N   0  0  0  0  0  0  0  0  0  0  0  0
   39.5710   33.9380   47.7030 C   0  0  0  0  0  0  0  0  0  0  0  0
   38.5070   33.1660   48.2970 N   0  0  0  0  0  0  0  0  0  0  0  0
   40.5110   34.8590   48.2450 N   0  0  0  0  0  0  0  0  0  0  0  0
   39.6830   33.5980   45.6580 H   0  0  0  0  0  0  0  0  0  0  0  0
   34.0080   29.2840   48.6420 C   0  0  0  0  0  0  0  0  0  0  0  0
   33.8400   29.6700   47.3100 C   0  0  0  0  0  0  0  0  0  0  0  0
   32.9140   28.9200   46.5530 C   0  0  0  0  0  0  0  0  0  0  0  0
   32.2410   27.8730   47.1490 N   0  0  0  0  0  0  0  0  0  0  0  0
   32.4460   27.5430   48.4530 C   0  0  0  0  0  0  0  0  0  0  0  0
   33.3130   28.2450   49.1610 N   0  0  0  0  0  0  0  0  0  0  0  0
   34.4981   30.9254   49.9025 H   0  0  0  0  0  0  0  0  0  0  0  0
   36.0368   31.8323   48.7730 H   0  0  0  0  0  0  0  0  0  0  0  0
   35.6310   30.6403   47.4579 H   0  0  0  0  0  0  0  0  0  0  0  0
   37.2587   29.1200   48.2718 H   0  0  0  0  0  0  0  0  0  0  0  0
   38.7305   29.4440   50.0264 H   0  0  0  0  0  0  0  0  0  0  0  0
   38.2391   31.1956   50.1883 H   0  0  0  0  0  0  0  0  0  0  0  0
   37.3209   29.0892   51.7223 H   0  0  0  0  0  0  0  0  0  0  0  0
   36.5672   30.7267   51.5315 H   0  0  0  0  0  0  0  0  0  0  0  0
   34.9263   28.9575   51.1916 H   0  0  0  0  0  0  0  0  0  0  0  0
   35.9665   28.2670   49.8726 H   0  0  0  0  0  0  0  0  0  0  0  0
   38.8446   29.0670   46.6405 H   0  0  0  0  0  0  0  0  0  0  0  0
   37.5818   29.9559   45.8587 H   0  0  0  0  0  0  0  0  0  0  0  0
   40.1609   31.4509   46.6183 H   0  0  0  0  0  0  0  0  0  0  0  0
   40.2226   30.3442   45.2047 H   0  0  0  0  0  0  0  0  0  0  0  0
   39.0906   31.7389   45.2047 H   0  0  0  0  0  0  0  0  0  0  0  0
   39.0030   32.3560   47.2450 H   0  0  0  0  0  0  0  0  0  0  0  0
   39.0030   33.3931   45.7783 H   0  0  0  0  0  0  0  0  0  0  0  0
   39.9011   31.8375   45.7783 H   0  0  0  0  0  0  0  0  0  0  0  0
   38.1049   31.8375   45.7783 H   0  0  0  0  0  0  0  0  0  0  0  0
   38.6222   32.3204   46.4228 H   0  0  0  0  0  0  0  0  0  0  0  0
   36.9902   32.2525   47.3217 H   0  0  0  0  0  0  0  0  0  0  0  0
   38.1115   33.3184   49.2358 H   0  0  0  0  0  0  0  0  0  0  0  0
   40.5027   35.0701   49.2531 H   0  0  0  0  0  0  0  0  0  0  0  0
   41.1996   35.3144   47.6291 H   0  0  0  0  0  0  0  0  0  0  0  0
   34.3985   30.5119   46.8749 H   0  0  0  0  0  0  0  0  0  0  0  0
   32.7305   29.1681   45.4972 H   0  0  0  0  0  0  0  0  0  0  0  0
   31.8989   26.7054   48.9103 H   0  0  0  0  0  0  0  0  0  0  0  0
  1  6  1  0
  2  3  1  0
  2  1  1  0
  3  4  1  0
  4  5  1  0
  6  5  1  0
  7  3  1  0
  8  7  1  0
  9  8  1  0
 11  7  1  0
 11 14  1  0
 12 13  2  0
 13 15  1  0
 13 14  1  0
 16 12  1  0
 17 22  1  0
 17  1  1  0
 18 17  2  0
 19 20  2  0
 19 18  1  0
 20 21  1  0
 21 22  2  0
  1 23  1  1
  2 24  1  0
  2 25  1  0
  3 26  1  6
  4 27  1  0
  4 28  1  0
  5 29  1  0
  5 30  1  0
  6 31  1  0
  6 32  1  0
  8 33  1  0
  8 34  1  0
  9 35  1  0
  9 36  1  0
  9 37  1  0
 10 38  1  0
 10 39  1  0
 10 40  1  0
 10 41  1  0
 11 42  1  0
 11 43  1  0
 14 44  1  0
 15 45  1  0
 15 46  1  0
 18 47  1  0
 19 48  1  0
 21 49  1  0
M  ISO  8  23  13  24  13  25  13  26  13  27  13  28  13  29  13  30  13
M  ISO  8  31  13  32  13  33   8  34   8  35   8  36   8  37   8  38   8
M  ISO  8  39   8  40   8  41   8  42   8  43   8  47  14  48  14  49  14
M  END
>  <minimizedAffinity>  (1) 
-5.8605752

>  <minimizedRMSD>  (1) 
0.944417477

$$$$
