
     RDKit          3D

 45 47  0  0  0  0  0  0  0  0999 V2000
   35.2367   30.3218   49.5760 C   0  0  2  0  0  0  0  0  0  0  0  0
   36.2491   30.9867   48.7105 C   0  0  0  0  0  0  0  0  0  0  0  0
   37.6387   30.4006   48.8784 C   0  0  2  0  0  0  0  0  0  0  0  0
   38.1141   30.4380   50.2842 C   0  0  0  0  0  0  0  0  0  0  0  0
   37.0423   30.0860   51.2913 C   0  0  0  0  0  0  0  0  0  0  0  0
   35.8519   29.4379   50.6335 C   0  0  0  0  0  0  0  0  0  0  0  0
   34.2853   29.4857   48.8080 C   0  0  0  0  0  0  0  0  0  0  0  0
   34.1417   29.8669   47.4713 C   0  0  0  0  0  0  0  0  0  0  0  0
   33.2548   29.0928   46.6918 C   0  0  0  0  0  0  0  0  0  0  0  0
   32.5927   28.0299   47.2723 N   0  0  0  0  0  0  0  0  0  0  0  0
   32.7728   27.7070   48.5814 C   0  0  0  0  0  0  0  0  0  0  0  0
   33.6026   28.4308   49.3103 N   0  0  0  0  0  0  0  0  0  0  0  0
   38.5861   31.0346   48.0319 N   0  0  0  0  0  0  0  0  0  0  0  0
   38.4643   30.6347   46.6386 C   0  0  0  0  0  0  0  0  0  0  0  0
   39.6511   31.3907   46.0416 C   0  0  0  0  0  0  0  0  0  0  0  0
   39.4908   32.7379   46.7516 C   0  0  0  0  0  0  0  0  0  0  0  0
   38.6880   32.4230   48.0302 C   0  0  2  0  0  0  0  0  0  0  0  0
   34.5880   31.0401   50.1603 H   0  0  0  0  0  0  0  0  0  0  0  0
   36.0901   30.9697   47.6268 H   0  0  0  0  0  0  0  0  0  0  0  0
   36.2721   32.0679   49.0633 H   0  0  0  0  0  0  0  0  0  0  0  0
   37.5569   29.3287   48.5663 H   0  0  0  0  0  0  0  0  0  0  0  0
   38.8926   29.6255   50.3809 H   0  0  0  0  0  0  0  0  0  0  0  0
   38.5866   31.3388   50.6457 H   0  0  0  0  0  0  0  0  0  0  0  0
   37.4087   29.4521   52.0973 H   0  0  0  0  0  0  0  0  0  0  0  0
   36.6620   31.0169   51.7750 H   0  0  0  0  0  0  0  0  0  0  0  0
   35.0984   29.2198   51.3948 H   0  0  0  0  0  0  0  0  0  0  0  0
   36.1917   28.4805   50.1804 H   0  0  0  0  0  0  0  0  0  0  0  0
   34.4945   30.6110   46.7881 H   0  0  0  0  0  0  0  0  0  0  0  0
   32.9760   29.1794   45.6537 H   0  0  0  0  0  0  0  0  0  0  0  0
   32.2380   26.8687   49.0033 H   0  0  0  0  0  0  0  0  0  0  0  0
   38.6060   29.5317   46.5282 H   0  0  0  0  0  0  0  0  0  0  0  0
   37.5341   31.0067   46.1831 H   0  0  0  0  0  0  0  0  0  0  0  0
   40.5667   30.8719   46.3887 H   0  0  0  0  0  0  0  0  0  0  0  0
   39.5729   31.4812   44.9546 H   0  0  0  0  0  0  0  0  0  0  0  0
   38.9444   33.4212   46.0764 H   0  0  0  0  0  0  0  0  0  0  0  0
   40.5076   33.0760   46.9603 H   0  0  0  0  0  0  0  0  0  0  0  0
   37.7212   32.9191   47.9110 H   0  0  0  0  0  0  0  0  0  0  0  0
   41.5234   31.9163   48.1603 N   0  0  0  0  0  0  0  0  0  0  0  0
   40.8099   32.5674   49.0387 C   0  0  0  0  0  0  0  0  0  0  0  0
   39.4517   33.0527   49.0821 N   0  0  0  0  0  0  0  0  0  0  0  0
   41.8876   32.6364   49.9649 N   0  0  0  0  0  0  0  0  0  0  0  0
   42.4359   33.5481   49.9642 H   0  0  0  0  0  0  0  0  0  0  0  0
   41.1960   31.6026   47.2402 H   0  0  0  0  0  0  0  0  0  0  0  0
   39.5351   33.7016   49.8949 H   0  0  0  0  0  0  0  0  0  0  0  0
   42.2275   31.9087   50.6609 H   0  0  0  0  0  0  0  0  0  0  0  0
  1  6  1  0
  2  3  1  0
  2  1  1  0
  3  4  1  0
  4  5  1  0
  6  5  1  0
  7 12  1  0
  7  1  1  0
  8  7  2  0
  9 10  2  0
  9  8  1  0
 10 11  1  0
 11 12  2  0
 13 14  1  0
 13 17  1  0
 13  3  1  0
 15 14  1  0
 15 16  1  0
 16 17  1  0
  1 18  1  1
  2 19  1  0
  2 20  1  0
  3 21  1  6
  4 22  1  0
  4 23  1  0
  5 24  1  0
  5 25  1  0
  6 26  1  0
  6 27  1  0
  8 28  1  0
  9 29  1  0
 11 30  1  0
 14 31  1  0
 14 32  1  0
 15 33  1  0
 15 34  1  0
 16 35  1  0
 16 36  1  0
 17 37  1  6
 38 39  2  3
 39 40  1  0
 39 41  1  0
 41 42  1  0
 38 43  1  0
 40 44  1  0
 41 45  1  0
 17 40  1  0
M  ISO  8  18  13  19  13  20  13  21  13  22  13  23  13  24  13  25  13
M  ISO  8  26  13  27  13  28  14  29  14  30  14  31  13  32  13  33  13
M  ISO  5  34  13  35  13  36  13  37  13  42   5
M  END
>  <DihAtoms>  (1) 
12,16,39,38

>  <DihDeg>  (1) 
179.52439987245242

$$$$
