
     RDKit          3D

 36 37  0  0  0  0  0  0  0  0999 V2000
   39.5654   32.8834   46.2930 N   0  0  0  0  0  0  0  0  0  0  0  0
   38.2611   32.3425   46.0647 C   0  0  1  0  0  0  0  0  0  0  0  0
   37.9348   32.3731   44.5948 C   0  0  0  0  0  0  0  0  0  0  0  0
   38.9482   31.5825   43.9114 N   0  0  0  0  0  0  0  0  0  0  0  0
   40.1774   32.3795   44.0285 C   0  0  0  0  0  0  0  0  0  0  0  0
   40.5862   32.2826   45.4926 C   0  0  2  0  0  0  0  0  0  0  0  0
   40.8496   30.8926   45.8131 N   0  0  0  0  0  0  0  0  0  0  0  0
   38.1343   30.5855   46.5691 S   0  0  0  0  0  0  0  0  0  0  0  0
   37.9075   30.9092   50.5990 C   0  0  0  0  0  0  0  0  0  0  0  0
   38.3736   31.0576   49.3117 C   0  0  0  0  0  0  0  0  0  0  0  0
   37.6714   30.4883   48.2788 C   0  0  0  0  0  0  0  0  0  0  0  0
   36.5117   29.7829   48.5914 N   0  0  0  0  0  0  0  0  0  0  0  0
   36.1175   29.6781   49.8583 C   0  0  0  0  0  0  0  0  0  0  0  0
   36.7969   30.2302   50.8688 N   0  0  0  0  0  0  0  0  0  0  0  0
   34.8924   28.9283   50.1496 C   0  0  0  0  0  0  0  0  0  0  0  0
   34.4809   27.9789   49.4542 O   0  0  0  0  0  0  0  0  0  0  0  0
   39.7953   33.0909   47.2623 H   0  0  0  0  0  0  0  0  0  0  0  0
   37.5100   32.9305   46.6147 H   0  0  0  0  0  0  0  0  0  0  0  0
   36.9692   31.8386   44.4193 H   0  0  0  0  0  0  0  0  0  0  0  0
   37.9299   33.3894   44.1535 H   0  0  0  0  0  0  0  0  0  0  0  0
   38.6947   31.3767   42.9357 H   0  0  0  0  0  0  0  0  0  0  0  0
   39.8730   33.4223   43.7930 H   0  0  0  0  0  0  0  0  0  0  0  0
   40.9788   32.0010   43.3943 H   0  0  0  0  0  0  0  0  0  0  0  0
   41.5095   32.8780   45.6473 H   0  0  0  0  0  0  0  0  0  0  0  0
   40.8889   30.7180   46.8322 H   0  0  0  0  0  0  0  0  0  0  0  0
   40.3087   30.2147   45.2664 H   0  0  0  0  0  0  0  0  0  0  0  0
   38.4623   31.3613   51.4349 H   0  0  0  0  0  0  0  0  0  0  0  0
   39.2680   31.6021   49.0749 H   0  0  0  0  0  0  0  0  0  0  0  0
   33.3278   27.2117   51.7001 N   0  0  0  0  0  0  0  0  0  0  0  0
   33.3501   28.4432   52.0834 C   0  0  0  0  0  0  0  0  0  0  0  0
   34.1374   29.3294   51.3105 N   0  0  0  0  0  0  0  0  0  0  0  0
   32.6429   28.9363   53.2101 N   0  0  0  0  0  0  0  0  0  0  0  0
   32.4605   29.9416   53.3043 H   0  0  0  0  0  0  0  0  0  0  0  0
   32.7378   26.5633   52.2843 H   0  0  0  0  0  0  0  0  0  0  0  0
   34.1679   30.3329   51.6061 H   0  0  0  0  0  0  0  0  0  0  0  0
   32.3356   28.2460   53.9026 H   0  0  0  0  0  0  0  0  0  0  0  0
  2  1  1  0
  2  8  1  0
  3  2  1  0
  4  5  1  0
  4  3  1  0
  5  6  1  0
  6  7  1  0
  6  1  1  0
  8 11  1  0
  9 14  2  0
 10  9  1  0
 11 12  1  0
 11 10  2  0
 12 13  2  0
 13 15  1  0
 13 14  1  0
 16 15  2  0
  1 17  1  0
  2 18  1  1
  3 19  1  0
  3 20  1  0
  4 21  1  0
  5 22  1  0
  5 23  1  0
  6 24  1  6
  7 25  1  0
  7 26  1  0
  9 27  1  0
 10 28  1  0
 29 30  2  3
 30 31  1  0
 30 32  1  0
 32 33  1  0
 29 34  1  0
 31 35  1  0
 32 36  1  0
 15 31  1  0
M  ISO  8  17   5  18  13  19  13  20  13  21   5  22  13  23  13  24  13
M  ISO  5  25   5  26   5  27  14  28  14  33   5
M  END
>  <DihAtoms>  (1) 
12,14,30,29

>  <DihDeg>  (1) 
179.999424748081

$$$$
