
     RDKit          3D

 36 38  0  0  0  0  0  0  0  0999 V2000
   37.6763   31.2825   48.1984 C   0  0  0  0  0  0  0  0  0  0  0  0
   38.5433   32.2951   48.0835 C   0  0  0  0  0  0  0  0  0  0  0  0
   38.9359   32.7001   46.8679 C   0  0  0  0  0  0  0  0  0  0  0  0
   38.4143   32.0375   45.7838 C   0  0  0  0  0  0  0  0  0  0  0  0
   37.3140   30.7814   46.5588 S   0  0  0  0  0  0  0  0  0  0  0  0
   41.1510   31.2285   44.7158 Cl  0  0  0  0  0  0  0  0  0  0  0  0
   39.7708   31.8312   43.8017 C   0  0  0  0  0  0  0  0  0  0  0  0
   38.5848   32.1695   44.3609 C   0  0  0  0  0  0  0  0  0  0  0  0
   37.5055   32.6349   43.6922 C   0  0  0  0  0  0  0  0  0  0  0  0
   37.5997   32.7877   42.3029 C   0  0  0  0  0  0  0  0  0  0  0  0
   38.7848   32.4575   41.6841 C   0  0  0  0  0  0  0  0  0  0  0  0
   38.9513   32.6317   39.9453 Cl  0  0  0  0  0  0  0  0  0  0  0  0
   39.8675   31.9807   42.4303 C   0  0  0  0  0  0  0  0  0  0  0  0
   37.1561   29.9430   51.6821 C   0  0  0  0  0  0  0  0  0  0  0  0
   37.7747   30.5588   50.5928 C   0  0  0  0  0  0  0  0  0  0  0  0
   37.0813   30.6436   49.3829 C   0  0  0  0  0  0  0  0  0  0  0  0
   35.8597   30.1309   49.3272 N   0  0  0  0  0  0  0  0  0  0  0  0
   35.2677   29.5438   50.3626 C   0  0  0  0  0  0  0  0  0  0  0  0
   35.9064   29.4478   51.5335 N   0  0  0  0  0  0  0  0  0  0  0  0
   33.9144   29.0122   50.1943 C   0  0  0  0  0  0  0  0  0  0  0  0
   33.6837   28.2844   49.2060 O   0  0  0  0  0  0  0  0  0  0  0  0
   38.9091   32.7668   49.0052 H   0  0  0  0  0  0  0  0  0  0  0  0
   39.6261   33.4998   46.6287 H   0  0  0  0  0  0  0  0  0  0  0  0
   36.5541   32.9115   44.1037 H   0  0  0  0  0  0  0  0  0  0  0  0
   36.7833   33.1512   41.7101 H   0  0  0  0  0  0  0  0  0  0  0  0
   40.7651   31.7420   41.8762 H   0  0  0  0  0  0  0  0  0  0  0  0
   37.7223   29.8977   52.5952 H   0  0  0  0  0  0  0  0  0  0  0  0
   38.7620   30.9927   50.5764 H   0  0  0  0  0  0  0  0  0  0  0  0
   34.1103   31.5357   51.5872 N   0  0  0  0  0  0  0  0  0  0  0  0
   33.2473   30.6367   51.7266 C   0  0  0  0  0  0  0  0  0  0  0  0
   32.9572   29.3718   51.1832 N   0  0  0  0  0  0  0  0  0  0  0  0
   32.4322   31.2389   52.7491 N   0  0  0  0  0  0  0  0  0  0  0  0
   31.6971   31.9749   52.5284 H   0  0  0  0  0  0  0  0  0  0  0  0
   34.9224   31.6363   50.9990 H   0  0  0  0  0  0  0  0  0  0  0  0
   32.1418   28.8231   51.5009 H   0  0  0  0  0  0  0  0  0  0  0  0
   31.6947   31.9748   52.5426 H   0  0  0  0  0  0  0  0  0  0  0  0
  1 16  1  0
  2  1  2  0
  3  2  1  0
  4  5  1  0
  4  3  2  0
  5  1  1  0
  7  8  2  0
  7  6  1  0
  8  4  1  0
  9  8  1  0
 10  9  2  0
 11 10  1  0
 11 13  2  0
 12 11  1  0
 13  7  1  0
 15 14  2  0
 16 15  1  0
 17 16  2  0
 17 18  1  0
 18 19  2  0
 19 14  1  0
 20 18  1  0
 21 20  2  0
  2 22  1  0
  3 23  1  0
  9 24  1  0
 10 25  1  0
 13 26  1  0
 14 27  1  0
 15 28  1  0
 29 30  2  3
 30 31  1  0
 30 32  1  0
 32 33  1  0
 29 34  1  0
 31 35  1  0
 32 36  1  0
 20 31  1  0
M  ISO  8  22  14  23  14  24  14  25  14  26  14  27  14  28  14  33   5
M  END
>  <DihAtoms>  (1) 
17,19,30,29

>  <DihDeg>  (1) 
179.978515132071

$$$$
