
     RDKit          3D

 48 51  0  0  0  0  0  0  0  0999 V2000
   37.5122   32.0989   49.0586 C   0  0  0  0  0  0  0  0  0  0  0  0
   38.0740   33.2245   49.6038 C   0  0  0  0  0  0  0  0  0  0  0  0
   39.0971   33.8122   48.8516 C   0  0  0  0  0  0  0  0  0  0  0  0
   39.4861   33.2699   47.6510 N   0  0  0  0  0  0  0  0  0  0  0  0
   38.9050   32.1564   47.1474 C   0  0  0  0  0  0  0  0  0  0  0  0
   37.9073   31.5735   47.8696 N   0  0  0  0  0  0  0  0  0  0  0  0
   40.0556   32.3873   45.0104 C   0  0  0  0  0  0  0  0  0  0  0  0
   39.3228   31.5798   45.8566 C   0  0  0  0  0  0  0  0  0  0  0  0
   39.0108   30.2905   45.4788 C   0  0  0  0  0  0  0  0  0  0  0  0
   39.3997   29.7441   44.2678 C   0  0  0  0  0  0  0  0  0  0  0  0
   39.2288   28.5522   43.6773 N   0  0  0  0  0  0  0  0  0  0  0  0
   39.8621   28.6529   42.4811 C   0  0  0  0  0  0  0  0  0  0  0  0
   40.4036   29.8631   42.3378 N   0  0  0  0  0  0  0  0  0  0  0  0
   40.1392   30.5932   43.4416 C   0  0  0  0  0  0  0  0  0  0  0  0
   40.4662   31.8901   43.7954 C   0  0  0  0  0  0  0  0  0  0  0  0
   36.4187   31.4146   49.8421 C   0  0  1  0  0  0  0  0  0  0  0  0
   35.3997   30.6285   49.1813 C   0  0  2  0  0  0  0  0  0  0  0  0
   36.6056   29.8909   49.8254 C   0  0  2  0  0  0  0  0  0  0  0  0
   35.3769   30.5864   47.8452 O   0  0  0  0  0  0  0  0  0  0  0  0
   34.5497   30.2695   46.8459 C   0  0  0  0  0  0  0  0  0  0  0  0
   35.0472   29.4488   46.0092 O   0  0  0  0  0  0  0  0  0  0  0  0
   33.3176   30.8318   46.8189 N   0  0  0  0  0  0  0  0  0  0  0  0
   36.4576   29.2968   51.1827 C   0  0  0  0  0  0  0  0  0  0  0  0
   37.4266   29.7472   52.2003 C   0  0  0  0  0  0  0  0  0  0  0  0
   37.8178   33.6895   50.5203 H   0  0  0  0  0  0  0  0  0  0  0  0
   39.6447   34.7042   49.1376 H   0  0  0  0  0  0  0  0  0  0  0  0
   40.3457   33.3973   45.1957 H   0  0  0  0  0  0  0  0  0  0  0  0
   38.4370   29.6994   46.1839 H   0  0  0  0  0  0  0  0  0  0  0  0
   38.7025   27.7603   44.1291 H   0  0  0  0  0  0  0  0  0  0  0  0
   39.8444   27.7760   41.8241 H   0  0  0  0  0  0  0  0  0  0  0  0
   41.0457   32.4719   43.0931 H   0  0  0  0  0  0  0  0  0  0  0  0
   36.1920   31.9139   50.8073 H   0  0  0  0  0  0  0  0  0  0  0  0
   34.5757   30.3287   49.9114 H   0  0  0  0  0  0  0  0  0  0  0  0
   37.3411   29.4383   49.1689 H   0  0  0  0  0  0  0  0  0  0  0  0
   32.3128   31.1198   46.8834 H   0  0  0  0  0  0  0  0  0  0  0  0
   32.5559   31.5215   46.6082 H   0  0  0  0  0  0  0  0  0  0  0  0
   35.4317   29.6129   51.5397 H   0  0  0  0  0  0  0  0  0  0  0  0
   36.3815   28.1957   51.1049 H   0  0  0  0  0  0  0  0  0  0  0  0
   37.4889   30.8674   52.1762 H   0  0  0  0  0  0  0  0  0  0  0  0
   37.1874   29.3228   53.1785 H   0  0  0  0  0  0  0  0  0  0  0  0
   39.0785   31.5491   50.9263 N   0  0  0  0  0  0  0  0  0  0  0  0
   39.4805   30.3433   51.1220 C   0  0  0  0  0  0  0  0  0  0  0  0
   38.7532   29.3003   51.7128 N   0  0  0  0  0  0  0  0  0  0  0  0
   40.8145   30.0703   50.7121 N   0  0  0  0  0  0  0  0  0  0  0  0
   41.5816   30.7303   50.4583 H   0  0  0  0  0  0  0  0  0  0  0  0
   38.1401   31.8959   51.1941 H   0  0  0  0  0  0  0  0  0  0  0  0
   39.0929   28.3009   51.8059 H   0  0  0  0  0  0  0  0  0  0  0  0
   41.1935   29.0787   50.6148 H   0  0  0  0  0  0  0  0  0  0  0  0
  1  2  2  0
  1 16  1  0
  3  2  1  0
  4  3  2  0
  5  4  1  0
  5  6  2  0
  6  1  1  0
  7  8  2  0
  8  5  1  0
  9  8  1  0
 10  9  2  0
 11 10  1  0
 12 11  1  0
 13 12  2  0
 13 14  1  0
 14 15  2  0
 14 10  1  0
 15  7  1  0
 16 18  1  0
 17 16  1  0
 17 18  1  0
 18 23  1  0
 19 17  1  0
 20 22  1  0
 20 19  1  0
 21 20  2  0
 23 24  1  0
  2 25  1  0
  3 26  1  0
  7 27  1  0
  9 28  1  0
 11 29  1  0
 12 30  1  0
 15 31  1  0
 16 32  1  1
 17 33  1  1
 18 34  1  6
 22 35  1  0
 22 36  1  0
 23 37  1  0
 23 38  1  0
 24 39  1  0
 24 40  1  0
 41 42  2  3
 42 43  1  0
 42 44  1  0
 44 45  1  0
 41 46  1  0
 43 47  1  0
 44 48  1  0
 24 43  1  0
M  ISO  8  25  14  26  14  27  14  28  14  29   9  30  14  31  14  32  13
M  ISO  7  33  13  34  13  37   8  38   8  39   8  40   8  45   5
M  END
>  <DihAtoms>  (1) 
22,23,42,41

>  <DihDeg>  (1) 
-168.65588791599274

$$$$
