
     RDKit          3D

 32 33  0  0  1  0  0  0  0  0999 V2000
   36.0140   29.4380   49.6890 S   0  0  0  0  0  0  0  0  0  0  0  0
   37.1380   30.6650   49.0810 C   0  0  0  0  0  0  0  0  0  0  0  0
   37.0740   31.8800   49.7830 C   0  0  0  0  0  0  0  0  0  0  0  0
   37.9040   32.9230   49.4050 C   0  0  0  0  0  0  0  0  0  0  0  0
   38.7540   32.7080   48.3520 N   0  0  0  0  0  0  0  0  0  0  0  0
   38.7970   31.5310   47.6930 C   0  0  0  0  0  0  0  0  0  0  0  0
   37.9990   30.5300   48.0570 N   0  0  0  0  0  0  0  0  0  0  0  0
   40.0750   33.6770   46.3420 N   0  0  0  0  0  0  0  0  0  0  0  0
   40.0680   32.5040   45.8180 C   0  0  0  0  0  0  0  0  0  0  0  0
   39.7050   31.3790   46.6080 N   0  0  0  0  0  0  0  0  0  0  0  0
   40.4190   32.3120   44.4520 N   0  0  0  0  0  0  0  0  0  0  0  0
   40.3390   34.5100   45.7750 H   0  0  0  0  0  0  0  0  0  0  0  0
   33.5250   28.5740   49.1230 N   0  0  0  0  0  0  0  0  0  0  0  0
   34.3010   29.7870   49.1570 C   0  0  2  0  0  0  0  0  0  0  0  0
   34.3450   30.3580   47.7520 C   0  0  0  0  0  0  0  0  0  0  0  0
   33.3360   29.7960   46.9400 O   0  0  0  0  0  0  0  0  0  0  0  0
   33.7350   28.4610   46.7490 C   0  0  0  0  0  0  0  0  0  0  0  0
   34.0170   27.7560   48.0390 C   0  0  2  0  0  0  0  0  0  0  0  0
   33.3170   26.5300   48.0910 O   0  0  0  0  0  0  0  0  0  0  0  0
   36.3736   32.0019   50.6224 H   0  0  0  0  0  0  0  0  0  0  0  0
   37.8814   33.8887   49.9312 H   0  0  0  0  0  0  0  0  0  0  0  0
   40.1001   30.4521   46.3945 H   0  0  0  0  0  0  0  0  0  0  0  0
   40.4088   31.3655   44.0458 H   0  0  0  0  0  0  0  0  0  0  0  0
   40.6832   33.1195   43.8698 H   0  0  0  0  0  0  0  0  0  0  0  0
   33.6269   28.0694   50.0151 H   0  0  0  0  0  0  0  0  0  0  0  0
   33.8414   30.4928   49.8646 H   0  0  0  0  0  0  0  0  0  0  0  0
   34.1994   31.4471   47.8027 H   0  0  0  0  0  0  0  0  0  0  0  0
   35.3226   30.1173   47.3089 H   0  0  0  0  0  0  0  0  0  0  0  0
   32.9318   27.9248   46.2224 H   0  0  0  0  0  0  0  0  0  0  0  0
   34.6663   28.4714   46.1637 H   0  0  0  0  0  0  0  0  0  0  0  0
   35.0995   27.5769   48.1177 H   0  0  0  0  0  0  0  0  0  0  0  0
   33.1705   26.2735   49.0359 H   0  0  0  0  0  0  0  0  0  0  0  0
  2  1  1  0
  2  3  2  0
  4  3  1  0
  5  4  2  0
  6  7  2  0
  6  5  1  0
  7  2  1  0
  9  8  2  0
  9 10  1  0
 10  6  1  0
 11  9  1  0
 12  8  1  0
 13 14  1  0
 14  1  1  0
 15 14  1  0
 16 15  1  0
 17 16  1  0
 17 18  1  0
 18 19  1  0
 18 13  1  0
  3 20  1  0
  4 21  1  0
 10 22  1  0
 11 23  1  0
 11 24  1  0
 13 25  1  0
 14 26  1  1
 15 27  1  0
 15 28  1  0
 17 29  1  0
 17 30  1  0
 18 31  1  1
 19 32  1  0
M  ISO  8  20  14  21  14  25   5  26  13  27  13  28  13  29  13  30  13
M  ISO  2  31  13  32   3
M  END
>  <minimizedAffinity>  (1) 
-5.90284824

>  <minimizedRMSD>  (1) 
0.319022715

$$$$
