
     RDKit          3D

 32 33  0  0  0  0  0  0  0  0999 V2000
   33.5983   28.7098   49.0372 N   0  0  0  0  0  0  0  0  0  0  0  0
   34.4413   29.8743   48.9383 C   0  0  2  0  0  0  0  0  0  0  0  0
   34.3713   30.3874   47.5123 C   0  0  0  0  0  0  0  0  0  0  0  0
   33.2519   29.8573   46.8324 O   0  0  0  0  0  0  0  0  0  0  0  0
   33.5531   28.4940   46.6613 C   0  0  0  0  0  0  0  0  0  0  0  0
   33.9276   27.8226   47.9463 C   0  0  2  0  0  0  0  0  0  0  0  0
   33.1693   26.6450   48.1218 O   0  0  0  0  0  0  0  0  0  0  0  0
   36.1767   29.4415   49.3077 S   0  0  0  0  0  0  0  0  0  0  0  0
   37.2805   30.7381   48.8148 C   0  0  0  0  0  0  0  0  0  0  0  0
   37.2260   31.8666   49.6486 C   0  0  0  0  0  0  0  0  0  0  0  0
   38.0421   32.9523   49.3704 C   0  0  0  0  0  0  0  0  0  0  0  0
   38.8680   32.8612   48.2814 N   0  0  0  0  0  0  0  0  0  0  0  0
   38.9016   31.7651   47.4955 C   0  0  0  0  0  0  0  0  0  0  0  0
   38.1183   30.7238   47.7631 N   0  0  0  0  0  0  0  0  0  0  0  0
   32.6173   29.0200   48.8828 H   0  0  0  0  0  0  0  0  0  0  0  0
   34.1787   30.6677   49.6729 H   0  0  0  0  0  0  0  0  0  0  0  0
   35.2535   30.0797   46.9199 H   0  0  0  0  0  0  0  0  0  0  0  0
   34.2726   31.4881   47.4976 H   0  0  0  0  0  0  0  0  0  0  0  0
   32.6028   28.0314   46.2911 H   0  0  0  0  0  0  0  0  0  0  0  0
   34.3728   28.3494   45.9399 H   0  0  0  0  0  0  0  0  0  0  0  0
   34.9867   27.5068   47.9908 H   0  0  0  0  0  0  0  0  0  0  0  0
   32.9528   26.5481   49.0831 H   0  0  0  0  0  0  0  0  0  0  0  0
   36.5773   31.9569   50.5168 H   0  0  0  0  0  0  0  0  0  0  0  0
   38.0307   33.8402   49.9873 H   0  0  0  0  0  0  0  0  0  0  0  0
   41.7216   31.4717   47.6729 N   0  0  0  0  0  0  0  0  0  0  0  0
   41.1887   31.8775   46.5770 C   0  0  0  0  0  0  0  0  0  0  0  0
   39.7863   31.7405   46.3786 N   0  0  0  0  0  0  0  0  0  0  0  0
   41.9816   32.4650   45.5521 N   0  0  0  0  0  0  0  0  0  0  0  0
   42.5947   32.9392   44.8671 H   0  0  0  0  0  0  0  0  0  0  0  0
   42.7463   31.5663   47.8303 H   0  0  0  0  0  0  0  0  0  0  0  0
   39.4183   31.6224   45.4090 H   0  0  0  0  0  0  0  0  0  0  0  0
   41.8661   32.1665   44.5556 H   0  0  0  0  0  0  0  0  0  0  0  0
  2  1  1  0
  2  8  1  0
  3  2  1  0
  4  3  1  0
  5  4  1  0
  5  6  1  0
  6  7  1  0
  6  1  1  0
  9  8  1  0
  9 10  2  0
 11 10  1  0
 12 11  2  0
 13 14  2  0
 13 12  1  0
 14  9  1  0
  1 15  1  0
  2 16  1  1
  3 17  1  0
  3 18  1  0
  5 19  1  0
  5 20  1  0
  6 21  1  6
  7 22  1  0
 10 23  1  0
 11 24  1  0
 25 26  2  3
 26 27  1  0
 26 28  1  0
 28 29  1  0
 25 30  1  0
 27 31  1  0
 28 32  1  0
 13 27  1  0
M  ISO  8  15   5  16  13  17  13  18  13  19  13  20  13  21  13  22   3
M  ISO  3  23  14  24  14  29   5
M  END
>  <DihAtoms>  (1) 
13,12,26,25

>  <DihDeg>  (1) 
9.65210411991533e-05

$$$$
