
     RDKit          3D

 41 43  0  0  1  0  0  0  0  0999 V2000
   31.3790   26.8720   48.4740 N   0  0  0  0  0  0  0  0  0  0  0  0
   32.4220   27.8200   48.8570 C   0  0  0  0  0  0  0  0  0  0  0  0
   33.3500   28.1690   47.7820 C   0  0  2  0  0  0  0  0  0  0  0  0
   33.7770   26.9790   46.9920 N   0  0  0  0  0  0  0  0  0  0  0  0
   32.5530   26.3020   46.5280 C   0  0  0  0  0  0  0  0  0  0  0  0
   31.9520   25.7570   47.8040 C   0  0  0  0  0  0  0  0  0  0  0  0
   34.4560   30.3870   46.1400 Cl  0  0  0  0  0  0  0  0  0  0  0  0
   35.1280   29.8760   47.6930 C   0  0  0  0  0  0  0  0  0  0  0  0
   34.5300   28.8200   48.3240 C   0  0  0  0  0  0  0  0  0  0  0  0
   34.9500   28.2990   49.5600 C   0  0  0  0  0  0  0  0  0  0  0  0
   36.0580   28.9390   50.1310 C   0  0  0  0  0  0  0  0  0  0  0  0
   36.6760   30.0210   49.4870 C   0  0  0  0  0  0  0  0  0  0  0  0
   36.2040   30.4680   48.2890 C   0  0  0  0  0  0  0  0  0  0  0  0
   38.7050   30.5430   46.8370 N   0  0  0  0  0  0  0  0  0  0  0  0
   37.7390   31.3420   46.5030 C   0  0  0  0  0  0  0  0  0  0  0  0
   36.7590   31.5580   47.5390 N   0  0  0  0  0  0  0  0  0  0  0  0
   37.5810   32.0000   45.2410 N   0  0  0  0  0  0  0  0  0  0  0  0
   39.4340   30.3500   46.1410 H   0  0  0  0  0  0  0  0  0  0  0  0
   30.0110   27.0800   48.7710 C   0  0  0  0  0  0  0  0  0  0  0  0
   29.0100   26.9300   47.8090 C   0  0  0  0  0  0  0  0  0  0  0  0
   27.6900   27.1490   48.1850 C   0  0  0  0  0  0  0  0  0  0  0  0
   27.4350   27.5050   49.5010 N   0  0  0  0  0  0  0  0  0  0  0  0
   28.4420   27.6350   50.3920 C   0  0  0  0  0  0  0  0  0  0  0  0
   29.7040   27.4310   50.0500 N   0  0  0  0  0  0  0  0  0  0  0  0
   31.9359   28.7436   49.2043 H   0  0  0  0  0  0  0  0  0  0  0  0
   33.0198   27.3280   49.6383 H   0  0  0  0  0  0  0  0  0  0  0  0
   32.8107   28.8529   47.1101 H   0  0  0  0  0  0  0  0  0  0  0  0
   34.3436   27.2761   46.1848 H   0  0  0  0  0  0  0  0  0  0  0  0
   31.8689   27.0137   46.0428 H   0  0  0  0  0  0  0  0  0  0  0  0
   32.7504   25.5221   45.7778 H   0  0  0  0  0  0  0  0  0  0  0  0
   31.1778   25.0103   47.5735 H   0  0  0  0  0  0  0  0  0  0  0  0
   32.7102   25.2589   48.4261 H   0  0  0  0  0  0  0  0  0  0  0  0
   34.4452   27.4500   50.0442 H   0  0  0  0  0  0  0  0  0  0  0  0
   36.4485   28.5881   51.0976 H   0  0  0  0  0  0  0  0  0  0  0  0
   37.5450   30.5107   49.9506 H   0  0  0  0  0  0  0  0  0  0  0  0
   36.4499   32.5186   47.7455 H   0  0  0  0  0  0  0  0  0  0  0  0
   36.7723   32.6172   45.0797 H   0  0  0  0  0  0  0  0  0  0  0  0
   38.2760   31.8561   44.4946 H   0  0  0  0  0  0  0  0  0  0  0  0
   29.2606   26.6449   46.7766 H   0  0  0  0  0  0  0  0  0  0  0  0
   26.8704   27.0429   47.4591 H   0  0  0  0  0  0  0  0  0  0  0  0
   28.2069   27.9178   51.4287 H   0  0  0  0  0  0  0  0  0  0  0  0
  1 19  1  0
  1  2  1  0
  3  9  1  0
  3  2  1  0
  4  3  1  0
  5  4  1  0
  5  6  1  0
  6  1  1  0
  7  8  1  0
  8 13  2  0
  8  9  1  0
  9 10  2  0
 10 11  1  0
 12 11  2  0
 13 12  1  0
 15 14  2  0
 15 16  1  0
 16 13  1  0
 17 15  1  0
 18 14  1  0
 19 24  2  0
 20 21  2  0
 20 19  1  0
 21 22  1  0
 22 23  2  0
 24 23  1  0
  2 25  1  0
  2 26  1  0
  3 27  1  6
  4 28  1  0
  5 29  1  0
  5 30  1  0
  6 31  1  0
  6 32  1  0
 10 33  1  0
 11 34  1  0
 12 35  1  0
 16 36  1  0
 17 37  1  0
 17 38  1  0
 20 39  1  0
 21 40  1  0
 23 41  1  0
M  ISO  8  25  13  26  13  27  13  28   5  29  13  30  13  31  13  32  13
M  ISO  6  33  14  34  14  35  14  39  14  40  14  41  14
M  END
>  <minimizedAffinity>  (1) 
-6.12585115

>  <minimizedRMSD>  (1) 
4.92996359

$$$$
