
     RDKit          3D

 24 24  0  0  0  0  0  0  0  0999 V2000
   34.9330   28.5240   49.2800 C   0  0  0  0  0  0  0  0  0  0  0  0
   34.5610   28.7960   48.0730 C   0  0  0  0  0  0  0  0  0  0  0  0
   37.2510   30.0380   51.6640 C   0  0  0  0  0  0  0  0  0  0  0  0
   38.1990   30.6490   50.7990 C   0  0  0  0  0  0  0  0  0  0  0  0
   38.0180   30.5120   49.4240 C   0  0  0  0  0  0  0  0  0  0  0  0
   36.9230   29.7880   48.9890 N   0  0  0  0  0  0  0  0  0  0  0  0
   36.0610   29.2340   49.8480 C   0  0  0  0  0  0  0  0  0  0  0  0
   36.2180   29.3540   51.1590 N   0  0  0  0  0  0  0  0  0  0  0  0
   33.4340   28.3010   47.2650 C   0  0  0  0  0  0  0  0  0  0  0  0
   33.7580   30.3560   45.4330 N   0  0  0  0  0  0  0  0  0  0  0  0
   32.8090   30.3040   46.2870 C   0  0  0  0  0  0  0  0  0  0  0  0
   32.3640   29.2400   47.1280 N   0  0  0  0  0  0  0  0  0  0  0  0
   32.3750   31.6450   46.0950 N   0  0  0  0  0  0  0  0  0  0  0  0
   34.4140   29.5880   45.1830 H   0  0  0  0  0  0  0  0  0  0  0  0
   34.4001   27.7630   49.8689 H   0  0  0  0  0  0  0  0  0  0  0  0
   35.2001   29.5277   47.5571 H   0  0  0  0  0  0  0  0  0  0  0  0
   37.3672   30.1280   52.7541 H   0  0  0  0  0  0  0  0  0  0  0  0
   39.0516   31.2141   51.2035 H   0  0  0  0  0  0  0  0  0  0  0  0
   38.7217   30.9641   48.7095 H   0  0  0  0  0  0  0  0  0  0  0  0
   33.8094   28.0545   46.2609 H   0  0  0  0  0  0  0  0  0  0  0  0
   33.0252   27.4247   47.7893 H   0  0  0  0  0  0  0  0  0  0  0  0
   31.4329   29.1619   47.5614 H   0  0  0  0  0  0  0  0  0  0  0  0
   31.5790   32.0112   46.6364 H   0  0  0  0  0  0  0  0  0  0  0  0
   32.8568   32.2498   45.4146 H   0  0  0  0  0  0  0  0  0  0  0  0
  1  7  1  0
  2  1  2  0
  4  3  2  0
  5  4  1  0
  6  5  2  0
  6  7  1  0
  7  8  2  0
  8  3  1  0
  9  2  1  0
 10 11  2  0
 11 12  1  0
 12  9  1  0
 13 11  1  0
 14 10  1  0
  1 15  1  0
  2 16  1  0
  3 17  1  0
  4 18  1  0
  5 19  1  0
  9 20  1  0
  9 21  1  0
 12 22  1  0
 13 23  1  0
 13 24  1  0
M  ISO  5  17  14  18  14  19  14  20   8  21   8
M  END
>  <minimizedAffinity>  (1) 
-4.50532389

>  <minimizedRMSD>  (1) 
3.18513274

$$$$
