
     RDKit          3D

 41 43  0  0  0  0  0  0  0  0999 V2000
   34.6257   30.0491   45.6622 N   0  0  0  0  0  0  0  0  0  0  0  0
   35.0290   30.0717   47.0655 C   0  0  0  0  0  0  0  0  0  0  0  0
   36.2650   30.8065   47.3305 C   0  0  2  0  0  0  0  0  0  0  0  0
   37.3275   30.5091   46.3287 N   0  0  0  0  0  0  0  0  0  0  0  0
   36.7551   30.7669   44.9963 C   0  0  0  0  0  0  0  0  0  0  0  0
   35.7238   29.6714   44.8426 C   0  0  0  0  0  0  0  0  0  0  0  0
   33.3088   30.3535   45.2399 C   0  0  0  0  0  0  0  0  0  0  0  0
   33.0503   31.0621   44.0654 C   0  0  0  0  0  0  0  0  0  0  0  0
   31.7280   31.3153   43.7199 C   0  0  0  0  0  0  0  0  0  0  0  0
   30.7310   30.8487   44.5641 N   0  0  0  0  0  0  0  0  0  0  0  0
   31.0377   30.1674   45.6900 C   0  0  0  0  0  0  0  0  0  0  0  0
   32.2920   29.9183   46.0324 N   0  0  0  0  0  0  0  0  0  0  0  0
   38.2481   32.7224   48.4423 Cl  0  0  0  0  0  0  0  0  0  0  0  0
   37.6608   31.2954   49.3054 C   0  0  0  0  0  0  0  0  0  0  0  0
   36.7679   30.4868   48.6559 C   0  0  0  0  0  0  0  0  0  0  0  0
   36.2140   29.3205   49.2089 C   0  0  0  0  0  0  0  0  0  0  0  0
   36.6436   29.0133   50.5074 C   0  0  0  0  0  0  0  0  0  0  0  0
   37.5607   29.8365   51.1762 C   0  0  0  0  0  0  0  0  0  0  0  0
   38.0490   30.9554   50.5695 C   0  0  0  0  0  0  0  0  0  0  0  0
   35.2760   28.9628   47.2035 H   0  0  0  0  0  0  0  0  0  0  0  0
   34.1937   30.4025   47.6778 H   0  0  0  0  0  0  0  0  0  0  0  0
   36.2079   31.9021   47.2084 H   0  0  0  0  0  0  0  0  0  0  0  0
   37.6668   29.5309   46.4286 H   0  0  0  0  0  0  0  0  0  0  0  0
   37.5756   30.5785   44.2765 H   0  0  0  0  0  0  0  0  0  0  0  0
   36.3513   31.7776   44.9982 H   0  0  0  0  0  0  0  0  0  0  0  0
   36.1961   28.7230   45.1938 H   0  0  0  0  0  0  0  0  0  0  0  0
   35.4098   29.5208   43.8059 H   0  0  0  0  0  0  0  0  0  0  0  0
   33.9140   31.3659   43.5029 H   0  0  0  0  0  0  0  0  0  0  0  0
   31.5390   31.8590   42.8179 H   0  0  0  0  0  0  0  0  0  0  0  0
   30.1825   29.8615   46.2555 H   0  0  0  0  0  0  0  0  0  0  0  0
   35.5276   28.5547   48.9397 H   0  0  0  0  0  0  0  0  0  0  0  0
   36.3437   28.1657   51.1110 H   0  0  0  0  0  0  0  0  0  0  0  0
   37.9016   29.5938   52.1848 H   0  0  0  0  0  0  0  0  0  0  0  0
   39.0295   33.4497   49.4790 N   0  0  0  0  0  0  0  0  0  0  0  0
   39.0485   33.2528   50.7614 C   0  0  0  0  0  0  0  0  0  0  0  0
   38.9931   31.8653   51.1520 N   0  0  0  0  0  0  0  0  0  0  0  0
   39.1198   34.2635   51.7727 N   0  0  0  0  0  0  0  0  0  0  0  0
   38.6875   35.0903   52.2077 H   0  0  0  0  0  0  0  0  0  0  0  0
   39.0666   34.4170   49.1383 H   0  0  0  0  0  0  0  0  0  0  0  0
   39.6808   31.5753   51.8890 H   0  0  0  0  0  0  0  0  0  0  0  0
   40.0121   34.0763   52.3093 H   0  0  0  0  0  0  0  0  0  0  0  0
  1  2  1  0
  2  3  1  0
  3 15  1  0
  4  3  1  0
  5  4  1  0
  6  5  1  0
  6  1  1  0
  7  1  1  0
  7 12  1  0
  8  7  2  0
  9  8  1  0
  9 10  2  0
 10 11  1  0
 11 12  2  0
 13 14  1  0
 14 19  2  0
 15 16  2  0
 15 14  1  0
 16 17  1  0
 17 18  2  0
 19 18  1  0
  2 20  1  0
  2 21  1  0
  3 22  1  1
  4 23  1  0
  5 24  1  0
  5 25  1  0
  6 26  1  0
  6 27  1  0
  8 28  1  0
  9 29  1  0
 11 30  1  0
 16 31  1  0
 17 32  1  0
 18 33  1  0
 34 35  2  3
 35 36  1  0
 35 37  1  0
 37 38  1  0
 34 39  1  0
 36 40  1  0
 37 41  1  0
 19 36  1  0
M  ISO  8  20  13  21  13  22  13  23   5  24  13  25  13  26  13  27  13
M  ISO  7  28  14  29  14  30  14  31  14  32  14  33  14  38   5
M  END
>  <DihAtoms>  (1) 
13,18,35,34

>  <DihDeg>  (1) 
177.17686169533712

$$$$
