
     RDKit          3D

 31 33  0  0  0  0  0  0  0  0999 V2000
   37.9313   30.0674   49.8844 C   0  0  0  0  0  0  0  0  0  0  0  0
   37.4396   30.6816   48.7189 C   0  0  0  0  0  0  0  0  0  0  0  0
   36.0482   30.7343   48.5503 C   0  0  0  0  0  0  0  0  0  0  0  0
   35.2557   30.1853   49.5296 N   0  0  0  0  0  0  0  0  0  0  0  0
   35.7757   29.6121   50.6204 C   0  0  0  0  0  0  0  0  0  0  0  0
   37.1181   29.5482   50.8072 N   0  0  0  0  0  0  0  0  0  0  0  0
   38.7025   33.5092   49.2562 Br  0  0  0  0  0  0  0  0  0  0  0  0
   38.9388   32.4687   47.6970 C   0  0  0  0  0  0  0  0  0  0  0  0
   38.2898   31.2629   47.6824 C   0  0  0  0  0  0  0  0  0  0  0  0
   38.4219   30.4379   46.5535 C   0  0  0  0  0  0  0  0  0  0  0  0
   39.2017   30.8563   45.4814 C   0  0  0  0  0  0  0  0  0  0  0  0
   39.8118   32.0596   45.5690 C   0  0  0  0  0  0  0  0  0  0  0  0
   39.7068   32.8974   46.6588 C   0  0  0  0  0  0  0  0  0  0  0  0
   39.0292   30.0909   49.8965 H   0  0  0  0  0  0  0  0  0  0  0  0
   35.5659   31.1877   47.6839 H   0  0  0  0  0  0  0  0  0  0  0  0
   35.1763   29.1749   51.4018 H   0  0  0  0  0  0  0  0  0  0  0  0
   37.9460   29.4764   46.4611 H   0  0  0  0  0  0  0  0  0  0  0  0
   39.3093   30.2308   44.6110 H   0  0  0  0  0  0  0  0  0  0  0  0
   40.4284   32.4104   44.7424 H   0  0  0  0  0  0  0  0  0  0  0  0
   40.3280   34.1696   46.7977 N   0  0  0  0  0  0  0  0  0  0  0  0
   39.8861   35.0213   45.8278 C   0  0  0  0  0  0  0  0  0  0  0  0
   40.3539   36.3328   45.7571 C   0  0  0  0  0  0  0  0  0  0  0  0
   41.2737   36.7342   46.6976 C   0  0  0  0  0  0  0  0  0  0  0  0
   41.7871   38.0654   46.6735 N   0  0  0  0  0  0  0  0  0  0  0  0
   41.6710   35.8695   47.6186 N   0  0  0  0  0  0  0  0  0  0  0  0
   41.2275   34.6075   47.6950 C   0  0  0  0  0  0  0  0  0  0  0  0
   41.5452   33.7224   48.5275 O   0  0  0  0  0  0  0  0  0  0  0  0
   39.1618   34.7976   45.0413 H   0  0  0  0  0  0  0  0  0  0  0  0
   40.0365   37.0371   45.0145 H   0  0  0  0  0  0  0  0  0  0  0  0
   41.6518   38.9585   47.2050 H   0  0  0  0  0  0  0  0  0  0  0  0
   42.4811   38.0954   45.8941 H   0  0  0  0  0  0  0  0  0  0  0  0
  1  6  2  0
  2  1  1  0
  3  2  2  0
  3  4  1  0
  4  5  2  0
  5  6  1  0
  8  7  1  0
  9  8  2  0
  9  2  1  0
 10  9  1  0
 11 12  1  0
 11 10  2  0
 12 13  2  0
 13  8  1  0
  1 14  1  0
  3 15  1  0
  5 16  1  0
 10 17  1  0
 11 18  1  0
 12 19  1  0
 20 21  1  0
 21 22  2  0
 22 23  1  0
 23 24  1  0
 23 25  2  0
 25 26  1  0
 26 27  2  0
 26 20  1  0
 21 28  1  0
 22 29  1  0
 24 30  1  0
 24 31  1  0
 13 20  1  0
M  ISO  6  14  14  15  14  16  14  17  14  18  14  19  14
M  END
>  <DihAtoms>  (1) 
11,12,19,20

>  <DihDeg>  (1) 
-103.49157712856906

$$$$
