
     RDKit          3D

 46 49  0  0  0  0  0  0  0  0999 V2000
   35.0326   29.6054   47.5513 C   0  0  0  0  0  0  0  0  0  0  0  0
   35.2093   30.0095   46.2407 C   0  0  0  0  0  0  0  0  0  0  0  0
   34.1740   29.8624   45.3215 C   0  0  0  0  0  0  0  0  0  0  0  0
   33.0077   29.3134   45.7707 N   0  0  0  0  0  0  0  0  0  0  0  0
   32.8607   28.9229   47.0718 C   0  0  0  0  0  0  0  0  0  0  0  0
   33.8637   29.0682   47.9513 N   0  0  0  0  0  0  0  0  0  0  0  0
   36.0609   29.7345   48.5301 N   0  0  0  0  0  0  0  0  0  0  0  0
   36.1220   28.8755   49.7052 C   0  0  0  0  0  0  0  0  0  0  0  0
   36.4144   29.5797   50.9781 C   0  0  0  0  0  0  0  0  0  0  0  0
   37.1886   30.7524   50.9098 N   0  0  0  0  0  0  0  0  0  0  0  0
   36.8892   31.5709   49.7438 C   0  0  0  0  0  0  0  0  0  0  0  0
   37.1320   30.6458   48.5484 C   0  0  0  0  0  0  0  0  0  0  0  0
   31.5958   28.3414   47.5050 C   0  0  0  0  0  0  0  0  0  0  0  0
   31.5790   27.3357   48.4367 C   0  0  0  0  0  0  0  0  0  0  0  0
   30.4090   26.7565   48.8758 C   0  0  0  0  0  0  0  0  0  0  0  0
   29.2591   27.2365   48.3338 N   0  0  0  0  0  0  0  0  0  0  0  0
   29.2858   28.2245   47.4194 C   0  0  0  0  0  0  0  0  0  0  0  0
   30.4437   28.8036   46.9795 N   0  0  0  0  0  0  0  0  0  0  0  0
   28.0154   28.7234   46.8498 C   0  0  0  0  0  0  0  0  0  0  0  0
   27.6313   29.9053   47.4364 F   0  0  0  0  0  0  0  0  0  0  0  0
   27.0247   27.7543   47.0832 F   0  0  0  0  0  0  0  0  0  0  0  0
   28.1241   28.8271   45.4817 F   0  0  0  0  0  0  0  0  0  0  0  0
   36.1521   30.4418   45.9221 H   0  0  0  0  0  0  0  0  0  0  0  0
   34.2742   30.1688   44.2792 H   0  0  0  0  0  0  0  0  0  0  0  0
   36.8661   28.0909   49.4704 H   0  0  0  0  0  0  0  0  0  0  0  0
   35.1256   28.3778   49.7712 H   0  0  0  0  0  0  0  0  0  0  0  0
   36.9062   28.8574   51.6684 H   0  0  0  0  0  0  0  0  0  0  0  0
   35.4382   29.8444   51.4758 H   0  0  0  0  0  0  0  0  0  0  0  0
   38.2166   30.6127   50.9585 H   0  0  0  0  0  0  0  0  0  0  0  0
   37.6123   32.4040   49.6894 H   0  0  0  0  0  0  0  0  0  0  0  0
   35.8440   31.9110   49.7366 H   0  0  0  0  0  0  0  0  0  0  0  0
   38.1453   30.1838   48.6573 H   0  0  0  0  0  0  0  0  0  0  0  0
   37.1480   31.3123   47.6529 H   0  0  0  0  0  0  0  0  0  0  0  0
   32.5231   26.9919   48.8351 H   0  0  0  0  0  0  0  0  0  0  0  0
   30.3587   25.7126   49.8401 N   0  0  0  0  0  0  0  0  0  0  0  0
   31.2512   25.6309   50.8323 C   0  0  0  0  0  0  0  0  0  0  0  0
   31.1814   24.6072   51.7571 C   0  0  0  0  0  0  0  0  0  0  0  0
   30.1785   23.6558   51.6570 C   0  0  0  0  0  0  0  0  0  0  0  0
   30.1206   22.6078   52.6175 N   0  0  0  0  0  0  0  0  0  0  0  0
   29.3002   23.7768   50.6409 N   0  0  0  0  0  0  0  0  0  0  0  0
   29.3861   24.7896   49.7434 C   0  0  0  0  0  0  0  0  0  0  0  0
   28.5211   24.8318   48.8175 O   0  0  0  0  0  0  0  0  0  0  0  0
   32.0398   26.3365   50.9525 H   0  0  0  0  0  0  0  0  0  0  0  0
   31.9098   24.5399   52.5675 H   0  0  0  0  0  0  0  0  0  0  0  0
   29.8713   21.5906   52.4789 H   0  0  0  0  0  0  0  0  0  0  0  0
   30.3488   22.8288   53.6123 H   0  0  0  0  0  0  0  0  0  0  0  0
  1  6  1  0
  1  7  1  0
  2  1  2  0
  3  4  2  0
  3  2  1  0
  4  5  1  0
  5 13  1  0
  5  6  2  0
  7 12  1  0
  7  8  1  0
  8  9  1  0
 10  9  1  0
 11 10  1  0
 12 11  1  0
 13 14  2  0
 14 15  1  0
 16 15  2  0
 17 16  1  0
 18 17  2  0
 18 13  1  0
 19 21  1  0
 19 17  1  0
 19 20  1  0
 22 19  1  0
  2 23  1  0
  3 24  1  0
  8 25  1  0
  8 26  1  0
  9 27  1  0
  9 28  1  0
 10 29  1  0
 11 30  1  0
 11 31  1  0
 12 32  1  0
 12 33  1  0
 14 34  1  0
 35 36  1  0
 36 37  2  0
 37 38  1  0
 38 39  1  0
 38 40  2  0
 40 41  1  0
 41 42  2  0
 41 35  1  0
 36 43  1  0
 37 44  1  0
 39 45  1  0
 39 46  1  0
 15 35  1  0
M  ISO  8  23  14  24  14  25  13  26  13  27  13  28  13  29   5  30  13
M  ISO  4  31  13  32  13  33  13  34  14
M  END
>  <DihAtoms>  (1) 
13,14,34,35

>  <DihDeg>  (1) 
17.74189407910558

$$$$
