
     RDKit          3D

 45 48  0  0  0  0  0  0  0  0999 V2000
   34.1068   28.7539   45.8756 C   0  0  0  0  0  0  0  0  0  0  0  0
   34.3250   28.2965   44.5863 C   0  0  0  0  0  0  0  0  0  0  0  0
   35.3235   28.7728   43.7387 C   0  0  0  0  0  0  0  0  0  0  0  0
   36.1732   29.7918   44.2230 C   0  0  0  0  0  0  0  0  0  0  0  0
   35.9387   30.2331   45.5090 C   0  0  0  0  0  0  0  0  0  0  0  0
   34.9587   29.7581   46.3278 C   0  0  0  0  0  0  0  0  0  0  0  0
   33.3390   26.9810   47.3273 C   0  0  0  0  0  0  0  0  0  0  0  0
   33.0280   28.1468   46.6013 C   0  0  0  0  0  0  0  0  0  0  0  0
   31.7118   28.6198   46.6385 C   0  0  0  0  0  0  0  0  0  0  0  0
   30.7963   27.9321   47.3731 N   0  0  0  0  0  0  0  0  0  0  0  0
   31.1159   26.8066   48.0685 C   0  0  0  0  0  0  0  0  0  0  0  0
   32.3925   26.3339   48.0421 N   0  0  0  0  0  0  0  0  0  0  0  0
   31.2428   29.8315   45.9222 C   0  0  0  0  0  0  0  0  0  0  0  0
   29.8773   30.0412   46.2017 F   0  0  0  0  0  0  0  0  0  0  0  0
   31.9129   30.9696   46.1833 F   0  0  0  0  0  0  0  0  0  0  0  0
   31.2630   29.6037   44.5450 F   0  0  0  0  0  0  0  0  0  0  0  0
   34.6840   30.3307   47.9620 S   0  0  0  0  0  0  0  0  0  0  0  0
   34.9854   29.1688   50.8276 Cl  0  0  0  0  0  0  0  0  0  0  0  0
   36.2558   30.1372   50.1186 C   0  0  0  0  0  0  0  0  0  0  0  0
   36.1734   30.6956   48.8505 C   0  0  0  0  0  0  0  0  0  0  0  0
   37.1940   31.4526   48.3573 C   0  0  0  0  0  0  0  0  0  0  0  0
   38.3149   31.6572   49.1289 C   0  0  0  0  0  0  0  0  0  0  0  0
   38.4097   31.1017   50.4028 C   0  0  0  0  0  0  0  0  0  0  0  0
   37.3804   30.3309   50.9230 C   0  0  0  0  0  0  0  0  0  0  0  0
   33.6788   27.5020   44.1788 H   0  0  0  0  0  0  0  0  0  0  0  0
   35.3942   28.3323   42.7470 H   0  0  0  0  0  0  0  0  0  0  0  0
   36.8957   30.0767   43.4921 H   0  0  0  0  0  0  0  0  0  0  0  0
   36.6614   30.9879   45.6733 H   0  0  0  0  0  0  0  0  0  0  0  0
   34.3446   26.5927   47.3177 H   0  0  0  0  0  0  0  0  0  0  0  0
   30.3640   26.2843   48.6420 H   0  0  0  0  0  0  0  0  0  0  0  0
   37.2093   31.9483   47.4231 H   0  0  0  0  0  0  0  0  0  0  0  0
   39.1741   32.2401   48.8215 H   0  0  0  0  0  0  0  0  0  0  0  0
   39.2832   31.2588   51.0101 H   0  0  0  0  0  0  0  0  0  0  0  0
   37.4783   29.7635   52.2296 N   0  0  0  0  0  0  0  0  0  0  0  0
   37.4212   30.5545   53.3189 C   0  0  0  0  0  0  0  0  0  0  0  0
   37.5276   29.8843   54.5214 C   0  0  0  0  0  0  0  0  0  0  0  0
   37.6811   28.5145   54.6367 C   0  0  0  0  0  0  0  0  0  0  0  0
   37.7873   27.8600   55.8957 N   0  0  0  0  0  0  0  0  0  0  0  0
   37.7257   27.8205   53.4782 N   0  0  0  0  0  0  0  0  0  0  0  0
   37.6262   28.4251   52.2647 C   0  0  0  0  0  0  0  0  0  0  0  0
   37.6791   27.6928   51.2572 O   0  0  0  0  0  0  0  0  0  0  0  0
   37.3017   31.6277   53.2574 H   0  0  0  0  0  0  0  0  0  0  0  0
   37.4940   30.4230   55.4567 H   0  0  0  0  0  0  0  0  0  0  0  0
   36.7759   27.5800   55.9684 H   0  0  0  0  0  0  0  0  0  0  0  0
   38.5336   27.6735   56.5701 H   0  0  0  0  0  0  0  0  0  0  0  0
  1  6  1  0
  1  8  1  0
  2  1  2  0
  3  4  2  0
  3  2  1  0
  4  5  1  0
  5  6  2  0
  6 17  1  0
  7 12  2  0
  8  9  2  0
  8  7  1  0
  9 10  1  0
 10 11  2  0
 12 11  1  0
 13 15  1  0
 13 14  1  0
 13  9  1  0
 16 13  1  0
 17 20  1  0
 19 18  1  0
 19 24  2  0
 20 19  1  0
 21 20  2  0
 21 22  1  0
 22 23  2  0
 23 24  1  0
  2 25  1  0
  3 26  1  0
  4 27  1  0
  5 28  1  0
  7 29  1  0
 11 30  1  0
 21 31  1  0
 22 32  1  0
 23 33  1  0
 34 35  1  0
 35 36  2  0
 36 37  1  0
 37 38  1  0
 37 39  2  0
 39 40  1  0
 40 41  2  0
 40 34  1  0
 35 42  1  0
 36 43  1  0
 38 44  1  0
 38 45  1  0
 24 34  1  0
M  ISO  8  25  14  26  14  27  14  28  14  29  14  30  14  31  14  32  14
M  ISO  1  33  14
M  END
>  <DihAtoms>  (1) 
18,23,33,34

>  <DihDeg>  (1) 
-109.70329514936945

$$$$
