
     RDKit          3D

 43 46  0  0  0  0  0  0  0  0999 V2000
   35.1076   29.6269   47.5580 C   0  0  0  0  0  0  0  0  0  0  0  0
   35.2824   30.0505   46.2435 C   0  0  0  0  0  0  0  0  0  0  0  0
   34.2647   29.9037   45.3264 C   0  0  0  0  0  0  0  0  0  0  0  0
   33.1004   29.3342   45.7611 N   0  0  0  0  0  0  0  0  0  0  0  0
   32.9591   28.9326   47.0419 C   0  0  0  0  0  0  0  0  0  0  0  0
   33.9549   29.0741   47.9469 N   0  0  0  0  0  0  0  0  0  0  0  0
   36.1297   29.7543   48.5554 N   0  0  0  0  0  0  0  0  0  0  0  0
   36.1892   28.8975   49.7185 C   0  0  0  0  0  0  0  0  0  0  0  0
   36.4584   29.6078   51.0142 C   0  0  0  0  0  0  0  0  0  0  0  0
   37.2140   30.7941   50.9593 N   0  0  0  0  0  0  0  0  0  0  0  0
   36.9498   31.5969   49.7692 C   0  0  0  0  0  0  0  0  0  0  0  0
   37.1958   30.6811   48.5809 C   0  0  0  0  0  0  0  0  0  0  0  0
   31.6951   28.3288   47.4714 C   0  0  0  0  0  0  0  0  0  0  0  0
   31.6537   27.4263   48.4955 C   0  0  0  0  0  0  0  0  0  0  0  0
   30.4805   26.8324   48.9337 C   0  0  0  0  0  0  0  0  0  0  0  0
   29.3619   27.2074   48.2745 N   0  0  0  0  0  0  0  0  0  0  0  0
   29.3912   28.0903   47.2704 C   0  0  0  0  0  0  0  0  0  0  0  0
   30.5516   28.6563   46.8615 N   0  0  0  0  0  0  0  0  0  0  0  0
   36.2248   30.4942   45.9549 H   0  0  0  0  0  0  0  0  0  0  0  0
   34.3701   30.2243   44.2907 H   0  0  0  0  0  0  0  0  0  0  0  0
   35.2651   28.2889   49.8354 H   0  0  0  0  0  0  0  0  0  0  0  0
   37.0240   28.1592   49.5374 H   0  0  0  0  0  0  0  0  0  0  0  0
   36.9628   28.8696   51.6762 H   0  0  0  0  0  0  0  0  0  0  0  0
   35.4785   29.8059   51.5218 H   0  0  0  0  0  0  0  0  0  0  0  0
   36.9242   31.4134   51.7764 H   0  0  0  0  0  0  0  0  0  0  0  0
   35.8972   31.9319   49.8365 H   0  0  0  0  0  0  0  0  0  0  0  0
   37.6383   32.4604   49.7724 H   0  0  0  0  0  0  0  0  0  0  0  0
   37.2073   31.3100   47.6806 H   0  0  0  0  0  0  0  0  0  0  0  0
   38.1986   30.2267   48.7326 H   0  0  0  0  0  0  0  0  0  0  0  0
   32.5532   27.1302   49.0187 H   0  0  0  0  0  0  0  0  0  0  0  0
   30.4545   26.1186   49.7450 H   0  0  0  0  0  0  0  0  0  0  0  0
   28.2595   28.5367   46.5279 N   0  0  0  0  0  0  0  0  0  0  0  0
   28.4890   29.5290   45.6498 C   0  0  0  0  0  0  0  0  0  0  0  0
   27.3890   29.9573   44.9320 C   0  0  0  0  0  0  0  0  0  0  0  0
   26.1778   29.3414   45.1747 C   0  0  0  0  0  0  0  0  0  0  0  0
   25.0103   29.7358   44.4688 N   0  0  0  0  0  0  0  0  0  0  0  0
   26.0280   28.3368   46.0870 N   0  0  0  0  0  0  0  0  0  0  0  0
   27.0945   27.9162   46.7882 C   0  0  0  0  0  0  0  0  0  0  0  0
   27.0357   26.9938   47.6486 O   0  0  0  0  0  0  0  0  0  0  0  0
   29.4751   29.9526   45.5258 H   0  0  0  0  0  0  0  0  0  0  0  0
   27.4940   30.7527   44.2052 H   0  0  0  0  0  0  0  0  0  0  0  0
   24.1695   30.3241   44.2786 H   0  0  0  0  0  0  0  0  0  0  0  0
   24.6365   30.5818   44.9925 H   0  0  0  0  0  0  0  0  0  0  0  0
  1  6  1  0
  1  7  1  0
  2  1  2  0
  3  4  2  0
  3  2  1  0
  4  5  1  0
  5 13  1  0
  5  6  2  0
  7 12  1  0
  7  8  1  0
  8  9  1  0
 10  9  1  0
 11 10  1  0
 12 11  1  0
 13 14  2  0
 14 15  1  0
 16 15  2  0
 17 16  1  0
 18 17  2  0
 18 13  1  0
  2 19  1  0
  3 20  1  0
  8 21  1  0
  8 22  1  0
  9 23  1  0
  9 24  1  0
 10 25  1  0
 11 26  1  0
 11 27  1  0
 12 28  1  0
 12 29  1  0
 14 30  1  0
 15 31  1  0
 32 33  1  0
 33 34  2  0
 34 35  1  0
 35 36  1  0
 35 37  2  0
 37 38  1  0
 38 39  2  0
 38 32  1  0
 33 40  1  0
 34 41  1  0
 36 42  1  0
 36 43  1  0
 17 32  1  0
M  ISO  8  19  14  20  14  21  13  22  13  23  13  24  13  25   5  26  13
M  ISO  5  27  13  28  13  29  13  30  14  31  14
M  END
>  <DihAtoms>  (1) 
15,16,31,32

>  <DihDeg>  (1) 
53.4951097385837

$$$$
