
     RDKit          3D

 31 33  0  0  0  0  0  0  0  0999 V2000
   37.9313   30.0674   49.8844 C   0  0  0  0  0  0  0  0  0  0  0  0
   37.4396   30.6816   48.7189 C   0  0  0  0  0  0  0  0  0  0  0  0
   36.0482   30.7343   48.5503 C   0  0  0  0  0  0  0  0  0  0  0  0
   35.2557   30.1853   49.5296 N   0  0  0  0  0  0  0  0  0  0  0  0
   35.7757   29.6121   50.6204 C   0  0  0  0  0  0  0  0  0  0  0  0
   37.1181   29.5482   50.8072 N   0  0  0  0  0  0  0  0  0  0  0  0
   38.7025   33.5092   49.2562 Br  0  0  0  0  0  0  0  0  0  0  0  0
   38.9388   32.4687   47.6970 C   0  0  0  0  0  0  0  0  0  0  0  0
   38.2898   31.2629   47.6824 C   0  0  0  0  0  0  0  0  0  0  0  0
   38.4219   30.4379   46.5535 C   0  0  0  0  0  0  0  0  0  0  0  0
   39.2017   30.8563   45.4814 C   0  0  0  0  0  0  0  0  0  0  0  0
   39.8118   32.0596   45.5690 C   0  0  0  0  0  0  0  0  0  0  0  0
   39.7068   32.8974   46.6588 C   0  0  0  0  0  0  0  0  0  0  0  0
   39.0292   30.0909   49.8965 H   0  0  0  0  0  0  0  0  0  0  0  0
   35.5659   31.1877   47.6839 H   0  0  0  0  0  0  0  0  0  0  0  0
   35.1763   29.1749   51.4018 H   0  0  0  0  0  0  0  0  0  0  0  0
   37.9460   29.4764   46.4611 H   0  0  0  0  0  0  0  0  0  0  0  0
   39.3093   30.2308   44.6110 H   0  0  0  0  0  0  0  0  0  0  0  0
   40.4284   32.4104   44.7424 H   0  0  0  0  0  0  0  0  0  0  0  0
   40.3280   34.1696   46.7977 N   0  0  0  0  0  0  0  0  0  0  0  0
   40.4483   34.7738   45.5804 C   0  0  0  0  0  0  0  0  0  0  0  0
   41.0293   36.0354   45.4599 C   0  0  0  0  0  0  0  0  0  0  0  0
   41.4747   36.6457   46.6092 C   0  0  0  0  0  0  0  0  0  0  0  0
   42.0777   37.9374   46.5458 N   0  0  0  0  0  0  0  0  0  0  0  0
   41.3349   36.0175   47.7666 N   0  0  0  0  0  0  0  0  0  0  0  0
   40.7781   34.8053   47.8927 C   0  0  0  0  0  0  0  0  0  0  0  0
   40.6044   34.1366   48.9416 O   0  0  0  0  0  0  0  0  0  0  0  0
   40.1271   34.3726   44.6164 H   0  0  0  0  0  0  0  0  0  0  0  0
   41.1453   36.5489   44.5266 H   0  0  0  0  0  0  0  0  0  0  0  0
   41.8128   38.9284   46.7609 H   0  0  0  0  0  0  0  0  0  0  0  0
   43.0436   37.7898   46.1778 H   0  0  0  0  0  0  0  0  0  0  0  0
  1  6  2  0
  2  1  1  0
  3  2  2  0
  3  4  1  0
  4  5  2  0
  5  6  1  0
  8  7  1  0
  9  8  2  0
  9  2  1  0
 10  9  1  0
 11 12  1  0
 11 10  2  0
 12 13  2  0
 13  8  1  0
  1 14  1  0
  3 15  1  0
  5 16  1  0
 10 17  1  0
 11 18  1  0
 12 19  1  0
 20 21  1  0
 21 22  2  0
 22 23  1  0
 23 24  1  0
 23 25  2  0
 25 26  1  0
 26 27  2  0
 26 20  1  0
 21 28  1  0
 22 29  1  0
 24 30  1  0
 24 31  1  0
 13 20  1  0
M  ISO  6  14  14  15  14  16  14  17  14  18  14  19  14
M  END
>  <DihAtoms>  (1) 
11,12,19,20

>  <DihDeg>  (1) 
-103.49157712856906

$$$$
