
     RDKit          3D

 40 43  0  0  0  0  0  0  0  0999 V2000
   38.1510   31.3790   47.9140 C   0  0  0  0  0  0  0  0  0  0  0  0
   37.2270   31.5460   48.9210 C   0  0  0  0  0  0  0  0  0  0  0  0
   37.3470   32.7500   49.6280 C   0  0  0  0  0  0  0  0  0  0  0  0
   38.3390   33.6920   49.3120 C   0  0  0  0  0  0  0  0  0  0  0  0
   39.2430   33.4250   48.2580 C   0  0  0  0  0  0  0  0  0  0  0  0
   39.1260   32.2330   47.5560 C   0  0  0  0  0  0  0  0  0  0  0  0
   35.1440   30.3980   48.3830 C   0  0  0  0  0  0  0  0  0  0  0  0
   36.2160   30.5930   49.2480 C   0  0  0  0  0  0  0  0  0  0  0  0
   36.2580   29.8270   50.4290 C   0  0  0  0  0  0  0  0  0  0  0  0
   35.2570   28.9510   50.6530 N   0  0  0  0  0  0  0  0  0  0  0  0
   34.2180   28.7870   49.7750 C   0  0  0  0  0  0  0  0  0  0  0  0
   34.1710   29.5090   48.6550 N   0  0  0  0  0  0  0  0  0  0  0  0
   37.3820   29.9980   51.3840 C   0  0  0  0  0  0  0  0  0  0  0  0
   38.1080   30.2050   47.1550 O   0  0  0  0  0  0  0  0  0  0  0  0
   40.0430   32.0430   46.5410 O   0  0  0  0  0  0  0  0  0  0  0  0
   40.4280   31.1110   44.2610 C   0  0  0  0  0  0  0  0  0  0  0  0
   39.7680   31.8710   45.2110 C   0  0  0  0  0  0  0  0  0  0  0  0
   38.6390   32.6040   44.8290 C   0  0  0  0  0  0  0  0  0  0  0  0
   38.1830   32.5650   43.4960 C   0  0  0  0  0  0  0  0  0  0  0  0
   37.1730   33.1270   42.8280 N   0  0  0  0  0  0  0  0  0  0  0  0
   37.1840   32.7560   41.5450 C   0  0  0  0  0  0  0  0  0  0  0  0
   38.2540   31.9200   41.4040 N   0  0  0  0  0  0  0  0  0  0  0  0
   38.8810   31.7890   42.5880 C   0  0  0  0  0  0  0  0  0  0  0  0
   39.9880   31.0720   42.9630 C   0  0  0  0  0  0  0  0  0  0  0  0
   40.7030   30.2710   42.0100 C   0  0  0  0  0  0  0  0  0  0  0  0
   41.5730   29.4110   42.2910 O   0  0  0  0  0  0  0  0  0  0  0  0
   36.6474   32.9621   50.4500 H   0  0  0  0  0  0  0  0  0  0  0  0
   38.4124   34.6310   49.8803 H   0  0  0  0  0  0  0  0  0  0  0  0
   40.0274   34.1511   47.9981 H   0  0  0  0  0  0  0  0  0  0  0  0
   35.0904   30.9848   47.4541 H   0  0  0  0  0  0  0  0  0  0  0  0
   33.4225   28.0596   49.9941 H   0  0  0  0  0  0  0  0  0  0  0  0
   37.0001   29.9399   52.4139 H   0  0  0  0  0  0  0  0  0  0  0  0
   38.1244   29.2025   51.2228 H   0  0  0  0  0  0  0  0  0  0  0  0
   37.8542   30.9783   51.2228 H   0  0  0  0  0  0  0  0  0  0  0  0
   38.7622   30.0628   46.4257 H   0  0  0  0  0  0  0  0  0  0  0  0
   41.3166   30.5311   44.5510 H   0  0  0  0  0  0  0  0  0  0  0  0
   38.1048   33.2136   45.5726 H   0  0  0  0  0  0  0  0  0  0  0  0
   36.4781   33.7619   43.2462 H   0  0  0  0  0  0  0  0  0  0  0  0
   36.4752   33.0618   40.7614 H   0  0  0  0  0  0  0  0  0  0  0  0
   40.4692   30.4235   40.9460 H   0  0  0  0  0  0  0  0  0  0  0  0
  1  2  2  0
  2  8  1  0
  2  3  1  0
  4  3  2  0
  5  4  1  0
  6  1  1  0
  6  5  2  0
  7 12  2  0
  7  8  1  0
  8  9  2  0
  9 10  1  0
  9 13  1  0
 11 10  2  0
 12 11  1  0
 14  1  1  0
 15  6  1  0
 16 17  2  0
 17 15  1  0
 18 17  1  0
 19 18  2  0
 20 19  1  0
 21 20  1  0
 22 21  2  0
 22 23  1  0
 23 24  2  0
 23 19  1  0
 24 16  1  0
 25 26  2  0
 25 24  1  0
  3 27  1  0
  4 28  1  0
  5 29  1  0
  7 30  1  0
 11 31  1  0
 13 32  1  0
 13 33  1  0
 13 34  1  0
 14 35  1  0
 16 36  1  0
 18 37  1  0
 20 38  1  0
 21 39  1  0
 25 40  1  0
M  ISO  8  27  14  28  14  29  14  30  14  31  14  32   8  33   8  34   8
M  ISO  6  35   3  36  14  37  14  38   9  39  14  40   6
M  END
>  <minimizedAffinity>  (1) 
-7.19487238

>  <minimizedRMSD>  (1) 
0.513877749

$$$$
