
     RDKit          3D

 22 23  0  0  0  0  0  0  0  0999 V2000
   38.0120   33.1006   49.4905 C   0  0  0  0  0  0  0  0  0  0  0  0
   38.9770   33.2048   48.4682 C   0  0  0  0  0  0  0  0  0  0  0  0
   38.9451   32.2218   47.4597 C   0  0  0  0  0  0  0  0  0  0  0  0
   38.0069   31.2447   47.5217 N   0  0  0  0  0  0  0  0  0  0  0  0
   37.0955   31.1836   48.5268 C   0  0  0  0  0  0  0  0  0  0  0  0
   37.1209   32.1174   49.4907 N   0  0  0  0  0  0  0  0  0  0  0  0
   36.0904   30.1408   48.5984 C   0  0  0  0  0  0  0  0  0  0  0  0
   35.2874   29.9509   47.5133 C   0  0  0  0  0  0  0  0  0  0  0  0
   34.3070   28.9750   47.5067 C   0  0  0  0  0  0  0  0  0  0  0  0
   34.1535   28.1913   48.6230 C   0  0  0  0  0  0  0  0  0  0  0  0
   34.9593   28.3586   49.7533 C   0  0  0  0  0  0  0  0  0  0  0  0
   35.9299   29.3465   49.7216 C   0  0  0  0  0  0  0  0  0  0  0  0
   37.9554   33.8080   50.3097 H   0  0  0  0  0  0  0  0  0  0  0  0
   39.6854   34.0179   48.5016 H   0  0  0  0  0  0  0  0  0  0  0  0
   39.6794   32.2891   46.6690 H   0  0  0  0  0  0  0  0  0  0  0  0
   35.4024   30.5694   46.6212 H   0  0  0  0  0  0  0  0  0  0  0  0
   33.6544   28.7921   46.6754 H   0  0  0  0  0  0  0  0  0  0  0  0
   33.4243   27.3960   48.7410 H   0  0  0  0  0  0  0  0  0  0  0  0
   34.8702   27.7583   50.6592 H   0  0  0  0  0  0  0  0  0  0  0  0
   36.7772   29.5309   50.8933 C   0  0  0  0  0  0  0  0  0  0  0  0
   36.6513   30.3563   51.5754 H   0  0  0  0  0  0  0  0  0  0  0  0
   37.7133   28.7459   51.1953 O   0  0  0  0  0  0  0  0  0  0  0  0
  1  6  2  0
  2  1  1  0
  3  4  1  0
  3  2  2  0
  4  5  2  0
  5  7  1  0
  5  6  1  0
  7 12  1  0
  8  7  2  0
  9  8  1  0
  9 10  2  0
 10 11  1  0
 12 11  2  0
  1 13  1  0
  2 14  1  0
  3 15  1  0
  8 16  1  0
  9 17  1  0
 10 18  1  0
 11 19  1  0
 20 21  1  0
 20 22  2  0
 12 20  1  0
M  ISO  8  13  14  14  14  15  14  16  14  17  14  18  14  19  14  21   6
M  END
>  <DihAtoms>  (1) 
6,11,19,20

>  <DihDeg>  (1) 
-0.017241205610263977

$$$$
