
     RDKit          3D

 33 35  0  0  0  0  0  0  0  0999 V2000
   36.3990   30.9040   45.7010 Cl  0  0  0  0  0  0  0  0  0  0  0  0
   36.6880   30.7650   47.4100 C   0  0  0  0  0  0  0  0  0  0  0  0
   37.9420   31.0860   47.8820 C   0  0  0  0  0  0  0  0  0  0  0  0
   38.1770   30.9790   49.2350 C   0  0  0  0  0  0  0  0  0  0  0  0
   37.1800   30.5630   50.0740 C   0  0  0  0  0  0  0  0  0  0  0  0
   35.9350   30.2530   49.5360 C   0  0  0  0  0  0  0  0  0  0  0  0
   35.6260   30.3350   48.2070 C   0  0  0  0  0  0  0  0  0  0  0  0
   40.2040   33.3110   46.0830 C   0  0  0  0  0  0  0  0  0  0  0  0
   40.9170   32.4680   45.2120 C   0  0  0  0  0  0  0  0  0  0  0  0
   40.5970   31.1030   45.2600 C   0  0  0  0  0  0  0  0  0  0  0  0
   39.6380   30.6770   46.1250 N   0  0  0  0  0  0  0  0  0  0  0  0
   38.9890   31.5330   46.9360 C   0  0  0  0  0  0  0  0  0  0  0  0
   39.2740   32.8300   46.9080 N   0  0  0  0  0  0  0  0  0  0  0  0
   34.0420   29.9410   47.5140 S   0  0  0  0  0  0  0  0  0  0  0  0
   33.7590   29.1900   44.4780 Cl  0  0  0  0  0  0  0  0  0  0  0  0
   33.7900   27.9640   45.7340 C   0  0  0  0  0  0  0  0  0  0  0  0
   33.9120   28.2060   47.0960 C   0  0  0  0  0  0  0  0  0  0  0  0
   33.9240   27.1590   47.9840 C   0  0  0  0  0  0  0  0  0  0  0  0
   33.8160   25.8680   47.5400 C   0  0  0  0  0  0  0  0  0  0  0  0
   33.6930   25.5660   46.1980 C   0  0  0  0  0  0  0  0  0  0  0  0
   33.6830   26.6350   45.3170 C   0  0  0  0  0  0  0  0  0  0  0  0
   33.5530   26.3270   43.8960 C   0  0  0  0  0  0  0  0  0  0  0  0
   34.5210   26.0500   43.1730 O   0  0  0  0  0  0  0  0  0  0  0  0
   39.1682   31.2285   49.6415 H   0  0  0  0  0  0  0  0  0  0  0  0
   37.3595   30.4751   51.1557 H   0  0  0  0  0  0  0  0  0  0  0  0
   35.1463   29.9195   50.2265 H   0  0  0  0  0  0  0  0  0  0  0  0
   40.4182   34.3899   46.0835 H   0  0  0  0  0  0  0  0  0  0  0  0
   41.6855   32.8586   44.5287 H   0  0  0  0  0  0  0  0  0  0  0  0
   41.1153   30.3862   44.6061 H   0  0  0  0  0  0  0  0  0  0  0  0
   34.0212   27.3588   49.0613 H   0  0  0  0  0  0  0  0  0  0  0  0
   33.8276   25.0481   48.2733 H   0  0  0  0  0  0  0  0  0  0  0  0
   33.6072   24.5274   45.8459 H   0  0  0  0  0  0  0  0  0  0  0  0
   32.5494   26.3414   43.4459 H   0  0  0  0  0  0  0  0  0  0  0  0
  1  2  1  0
  2  3  2  0
  2  7  1  0
  3  4  1  0
  4  5  2  0
  6  5  1  0
  7  6  2  0
  8 13  2  0
  9 10  2  0
  9  8  1  0
 10 11  1  0
 11 12  2  0
 12  3  1  0
 13 12  1  0
 14  7  1  0
 15 16  1  0
 16 17  2  0
 17 14  1  0
 17 18  1  0
 19 18  2  0
 20 19  1  0
 21 16  1  0
 21 20  2  0
 22 21  1  0
 23 22  2  0
  4 24  1  0
  5 25  1  0
  6 26  1  0
  8 27  1  0
  9 28  1  0
 10 29  1  0
 18 30  1  0
 19 31  1  0
 20 32  1  0
 22 33  1  0
M  ISO  8  24  14  25  14  26  14  27  14  28  14  29  14  30  14  31  14
M  ISO  2  32  14  33   6
M  END
>  <minimizedAffinity>  (1) 
-5.56541681

>  <minimizedRMSD>  (1) 
0.231996536

$$$$
