
     RDKit          3D

 36 38  0  0  1  0  0  0  0  0999 V2000
   32.1320   30.7440   45.6440 N   0  0  0  0  0  0  0  0  0  0  0  0
   33.1900   30.7590   46.6470 C   0  0  0  0  0  0  0  0  0  0  0  0
   33.9330   29.5030   46.7660 C   0  0  2  0  0  0  0  0  0  0  0  0
   33.0310   28.3160   46.7650 N   0  0  0  0  0  0  0  0  0  0  0  0
   32.2180   28.4050   45.5380 C   0  0  0  0  0  0  0  0  0  0  0  0
   31.3170   29.5920   45.8160 C   0  0  0  0  0  0  0  0  0  0  0  0
   36.6680   30.6480   46.5320 Cl  0  0  0  0  0  0  0  0  0  0  0  0
   35.9860   30.0230   48.0310 C   0  0  0  0  0  0  0  0  0  0  0  0
   34.7240   29.4930   47.9830 C   0  0  0  0  0  0  0  0  0  0  0  0
   34.0520   28.9550   49.0910 C   0  0  0  0  0  0  0  0  0  0  0  0
   34.7680   28.9850   50.2970 C   0  0  0  0  0  0  0  0  0  0  0  0
   36.0600   29.5230   50.3530 C   0  0  0  0  0  0  0  0  0  0  0  0
   36.6410   30.0290   49.2300 C   0  0  0  0  0  0  0  0  0  0  0  0
   37.9820   30.5960   49.2640 C   0  0  0  0  0  0  0  0  0  0  0  0
   38.4930   31.1120   50.2760 O   0  0  0  0  0  0  0  0  0  0  0  0
   31.9790   31.7660   44.6720 C   0  0  0  0  0  0  0  0  0  0  0  0
   32.1950   31.5380   43.3180 C   0  0  0  0  0  0  0  0  0  0  0  0
   32.0210   32.5900   42.4280 C   0  0  0  0  0  0  0  0  0  0  0  0
   31.6390   33.8230   42.9300 N   0  0  0  0  0  0  0  0  0  0  0  0
   31.4420   33.9880   44.2670 C   0  0  0  0  0  0  0  0  0  0  0  0
   31.6050   32.9950   45.1170 N   0  0  0  0  0  0  0  0  0  0  0  0
   33.9017   31.5553   46.3835 H   0  0  0  0  0  0  0  0  0  0  0  0
   32.6985   30.9243   47.6171 H   0  0  0  0  0  0  0  0  0  0  0  0
   34.5920   29.4394   45.8876 H   0  0  0  0  0  0  0  0  0  0  0  0
   33.5858   27.4482   46.7614 H   0  0  0  0  0  0  0  0  0  0  0  0
   31.6295   27.4883   45.3855 H   0  0  0  0  0  0  0  0  0  0  0  0
   32.8201   28.5204   44.6246 H   0  0  0  0  0  0  0  0  0  0  0  0
   30.9297   29.5466   46.8446 H   0  0  0  0  0  0  0  0  0  0  0  0
   30.4469   29.6069   45.1432 H   0  0  0  0  0  0  0  0  0  0  0  0
   33.0361   28.5393   49.0191 H   0  0  0  0  0  0  0  0  0  0  0  0
   34.3086   28.5806   51.2110 H   0  0  0  0  0  0  0  0  0  0  0  0
   36.6072   29.5369   51.3072 H   0  0  0  0  0  0  0  0  0  0  0  0
   38.5793   30.5668   48.3408 H   0  0  0  0  0  0  0  0  0  0  0  0
   32.4979   30.5436   42.9583 H   0  0  0  0  0  0  0  0  0  0  0  0
   32.1828   32.4472   41.3494 H   0  0  0  0  0  0  0  0  0  0  0  0
   31.1392   34.9750   44.6468 H   0  0  0  0  0  0  0  0  0  0  0  0
  1  6  1  0
  1  2  1  0
  2  3  1  0
  3  9  1  0
  4  3  1  0
  5  6  1  0
  5  4  1  0
  7  8  1  0
  8 13  2  0
  9  8  1  0
  9 10  2  0
 10 11  1  0
 11 12  2  0
 13 14  1  0
 13 12  1  0
 14 15  2  0
 16 21  1  0
 16  1  1  0
 17 16  2  0
 18 19  2  0
 18 17  1  0
 19 20  1  0
 20 21  2  0
  2 22  1  0
  2 23  1  0
  3 24  1  6
  4 25  1  0
  5 26  1  0
  5 27  1  0
  6 28  1  0
  6 29  1  0
 10 30  1  0
 11 31  1  0
 12 32  1  0
 14 33  1  0
 17 34  1  0
 18 35  1  0
 20 36  1  0
M  ISO  8  22  13  23  13  24  13  25   5  26  13  27  13  28  13  29  13
M  ISO  7  30  14  31  14  32  14  33   6  34  14  35  14  36  14
M  END
>  <minimizedAffinity>  (1) 
-5.16894436

>  <minimizedRMSD>  (1) 
2.97581291

$$$$
