
     RDKit          3D

 33 36  0  0  1  0  0  0  0  0999 V2000
   34.7930   29.6550   49.4570 C   0  0  1  0  0  0  0  0  0  0  0  0
   35.6610   29.2110   50.6860 C   0  0  0  0  0  0  0  0  0  0  0  0
   36.2270   29.3410   49.3190 C   0  0  2  0  0  0  0  0  0  0  0  0
   31.8400   27.7050   48.7390 C   0  0  0  0  0  0  0  0  0  0  0  0
   32.7890   26.9800   48.0530 C   0  0  0  0  0  0  0  0  0  0  0  0
   34.0330   27.6100   48.2260 C   0  0  0  0  0  0  0  0  0  0  0  0
   33.8080   28.6860   49.0010 N   0  0  0  0  0  0  0  0  0  0  0  0
   32.5290   28.7080   49.2780 N   0  0  0  0  0  0  0  0  0  0  0  0
   29.6900   27.3740   49.9800 C   0  0  0  0  0  0  0  0  0  0  0  0
   30.4490   27.3660   48.7930 C   0  0  0  0  0  0  0  0  0  0  0  0
   29.7750   27.0030   47.6360 C   0  0  0  0  0  0  0  0  0  0  0  0
   28.4560   26.6860   47.7140 N   0  0  0  0  0  0  0  0  0  0  0  0
   27.7810   26.7100   48.8650 C   0  0  0  0  0  0  0  0  0  0  0  0
   28.3940   27.0570   50.0250 N   0  0  0  0  0  0  0  0  0  0  0  0
   37.1930   30.4440   49.0180 C   0  0  0  0  0  0  0  0  0  0  0  0
   38.0240   30.4610   47.8850 C   0  0  0  0  0  0  0  0  0  0  0  0
   38.7610   31.6010   47.9420 N   0  0  0  0  0  0  0  0  0  0  0  0
   38.4050   32.2750   49.0700 C   0  0  0  0  0  0  0  0  0  0  0  0
   37.4470   31.5700   49.7280 N   0  0  0  0  0  0  0  0  0  0  0  0
   38.9380   33.5650   49.5510 C   0  0  0  0  0  0  0  0  0  0  0  0
   39.6790   34.2810   48.8260 O   0  0  0  0  0  0  0  0  0  0  0  0
   34.1652   30.5143   49.1786 H   0  0  0  0  0  0  0  0  0  0  0  0
   35.9274   29.9354   51.4697 H   0  0  0  0  0  0  0  0  0  0  0  0
   35.6072   28.4197   51.4482 H   0  0  0  0  0  0  0  0  0  0  0  0
   36.7913   28.6539   48.6713 H   0  0  0  0  0  0  0  0  0  0  0  0
   32.6048   26.0655   47.4702 H   0  0  0  0  0  0  0  0  0  0  0  0
   34.9989   27.2873   47.8102 H   0  0  0  0  0  0  0  0  0  0  0  0
   30.1910   27.6559   50.9178 H   0  0  0  0  0  0  0  0  0  0  0  0
   30.3004   26.9723   46.6701 H   0  0  0  0  0  0  0  0  0  0  0  0
   26.7134   26.4450   48.8736 H   0  0  0  0  0  0  0  0  0  0  0  0
   38.0694   29.6938   47.0980 H   0  0  0  0  0  0  0  0  0  0  0  0
   39.4650   31.9022   47.2531 H   0  0  0  0  0  0  0  0  0  0  0  0
   38.6826   33.9085   50.5643 H   0  0  0  0  0  0  0  0  0  0  0  0
  1  2  1  0
  3  1  1  0
  3  2  1  0
  4 10  1  0
  4  8  2  0
  5  6  2  0
  5  4  1  0
  6  7  1  0
  7  8  1  0
  7  1  1  0
  9 14  2  0
 10  9  1  0
 11 12  1  0
 11 10  2  0
 12 13  2  0
 13 14  1  0
 15  3  1  0
 15 19  1  0
 16 17  1  0
 16 15  2  0
 17 18  1  0
 18 20  1  0
 18 19  2  0
 21 20  2  0
  1 22  1  1
  2 23  1  0
  2 24  1  0
  3 25  1  6
  5 26  1  0
  6 27  1  0
  9 28  1  0
 11 29  1  0
 13 30  1  0
 16 31  1  0
 17 32  1  0
 20 33  1  0
M  ISO  8  22  13  23  13  24  13  25  13  26  14  27  14  28  14  29  14
M  ISO  4  30  14  31  14  32   9  33   6
M  END
>  <minimizedAffinity>  (1) 
-5.7403245

>  <minimizedRMSD>  (1) 
2.47589588

$$$$
