
     RDKit          3D

 38 40  0  0  1  0  0  0  0  0999 V2000
   36.6670   30.3810   46.4310 Cl  0  0  0  0  0  0  0  0  0  0  0  0
   37.2160   31.3290   47.7900 C   0  0  0  0  0  0  0  0  0  0  0  0
   38.3560   32.0450   47.5460 C   0  0  0  0  0  0  0  0  0  0  0  0
   38.8260   32.8730   48.5580 C   0  0  0  0  0  0  0  0  0  0  0  0
   38.1130   32.9220   49.7450 C   0  0  0  0  0  0  0  0  0  0  0  0
   36.9680   32.1610   49.9000 C   0  0  0  0  0  0  0  0  0  0  0  0
   36.4750   31.3370   48.9340 C   0  0  0  0  0  0  0  0  0  0  0  0
   35.2850   30.4680   49.1150 C   0  0  1  0  0  0  0  0  0  0  0  0
   34.5980   30.2550   47.8550 C   0  0  0  0  0  0  0  0  0  0  0  0
   33.4580   29.3090   48.2630 C   0  0  0  0  0  0  0  0  0  0  0  0
   34.1720   27.9580   48.3790 C   0  0  0  0  0  0  0  0  0  0  0  0
   35.2680   27.9600   49.3510 C   0  0  0  0  0  0  0  0  0  0  0  0
   35.6180   29.2550   49.9570 C   0  0  1  0  0  0  0  0  0  0  0  0
   37.0740   29.3200   50.2880 C   0  0  0  0  0  0  0  0  0  0  0  0
   37.5270   29.0430   51.3910 O   0  0  0  0  0  0  0  0  0  0  0  0
   39.1600   32.6960   44.0380 C   0  0  0  0  0  0  0  0  0  0  0  0
   40.2610   31.8900   43.7700 C   0  0  0  0  0  0  0  0  0  0  0  0
   40.7300   31.1190   44.8270 C   0  0  0  0  0  0  0  0  0  0  0  0
   40.1050   31.1870   46.0450 N   0  0  0  0  0  0  0  0  0  0  0  0
   39.0460   31.9840   46.2420 C   0  0  0  0  0  0  0  0  0  0  0  0
   38.5630   32.7490   45.2350 N   0  0  0  0  0  0  0  0  0  0  0  0
   39.7380   33.4724   48.4207 H   0  0  0  0  0  0  0  0  0  0  0  0
   38.4581   33.5675   50.5661 H   0  0  0  0  0  0  0  0  0  0  0  0
   36.4264   32.2249   50.8553 H   0  0  0  0  0  0  0  0  0  0  0  0
   34.5197   30.9747   49.7212 H   0  0  0  0  0  0  0  0  0  0  0  0
   35.2608   29.7845   47.1139 H   0  0  0  0  0  0  0  0  0  0  0  0
   34.2518   31.1839   47.3782 H   0  0  0  0  0  0  0  0  0  0  0  0
   33.0175   29.6095   49.2251 H   0  0  0  0  0  0  0  0  0  0  0  0
   32.6191   29.3015   47.5515 H   0  0  0  0  0  0  0  0  0  0  0  0
   33.4360   27.2000   48.6851 H   0  0  0  0  0  0  0  0  0  0  0  0
   34.6115   27.7378   47.3950 H   0  0  0  0  0  0  0  0  0  0  0  0
   34.9904   27.2757   50.1663 H   0  0  0  0  0  0  0  0  0  0  0  0
   36.1589   27.6606   48.7794 H   0  0  0  0  0  0  0  0  0  0  0  0
   34.9926   29.2973   50.8609 H   0  0  0  0  0  0  0  0  0  0  0  0
   37.7747   29.6329   49.4999 H   0  0  0  0  0  0  0  0  0  0  0  0
   38.7598   33.3210   43.2261 H   0  0  0  0  0  0  0  0  0  0  0  0
   40.7341   31.8641   42.7773 H   0  0  0  0  0  0  0  0  0  0  0  0
   41.5979   30.4579   44.6869 H   0  0  0  0  0  0  0  0  0  0  0  0
  1  2  1  0
  2  7  2  0
  3  2  1  0
  3  4  2  0
  4  5  1  0
  5  6  2  0
  7  8  1  0
  7  6  1  0
  8 13  1  0
  9 10  1  0
  9  8  1  0
 10 11  1  0
 11 12  1  0
 12 13  1  0
 13 14  1  0
 14 15  2  0
 16 21  2  0
 17 16  1  0
 17 18  2  0
 18 19  1  0
 19 20  2  0
 20  3  1  0
 21 20  1  0
  4 22  1  0
  5 23  1  0
  6 24  1  0
  8 25  1  1
  9 26  1  0
  9 27  1  0
 10 28  1  0
 10 29  1  0
 11 30  1  0
 11 31  1  0
 12 32  1  0
 12 33  1  0
 13 34  1  1
 14 35  1  0
 16 36  1  0
 17 37  1  0
 18 38  1  0
M  ISO  8  22  14  23  14  24  14  25  13  26  13  27  13  28  13  29  13
M  ISO  8  30  13  31  13  32  13  33  13  34  13  35   6  36  14  37  14
M  ISO  1  38  14
M  END
>  <minimizedAffinity>  (1) 
-6.7361269

>  <minimizedRMSD>  (1) 
1.66698384

$$$$
