
     RDKit          3D

 25 26  0  0  0  0  0  0  0  0999 V2000
   39.3540   32.3500   45.7170 C   0  0  0  0  0  0  0  0  0  0  0  0
   40.4220   31.5540   45.4500 C   0  0  0  0  0  0  0  0  0  0  0  0
   40.6800   31.1640   44.1650 C   0  0  0  0  0  0  0  0  0  0  0  0
   39.8290   31.6040   43.1700 C   0  0  0  0  0  0  0  0  0  0  0  0
   38.7380   32.4200   43.4570 C   0  0  0  0  0  0  0  0  0  0  0  0
   38.5450   32.7640   44.7480 N   0  0  0  0  0  0  0  0  0  0  0  0
   37.8430   32.8730   42.3550 C   0  0  0  0  0  0  0  0  0  0  0  0
   38.9360   32.8460   46.9660 O   0  0  0  0  0  0  0  0  0  0  0  0
   38.7630   32.2560   49.2040 C   0  0  0  0  0  0  0  0  0  0  0  0
   38.4790   31.9410   47.8700 C   0  0  0  0  0  0  0  0  0  0  0  0
   37.7800   30.7690   47.6470 C   0  0  0  0  0  0  0  0  0  0  0  0
   37.4170   30.0060   48.6980 N   0  0  0  0  0  0  0  0  0  0  0  0
   37.7050   30.3410   49.9450 C   0  0  0  0  0  0  0  0  0  0  0  0
   38.3890   31.4770   50.2390 N   0  0  0  0  0  0  0  0  0  0  0  0
   37.2690   29.4490   51.0140 C   0  0  0  0  0  0  0  0  0  0  0  0
   37.3740   29.8480   52.2020 O   0  0  0  0  0  0  0  0  0  0  0  0
   41.0793   31.2231   46.2676 H   0  0  0  0  0  0  0  0  0  0  0  0
   41.5397   30.5190   43.9307 H   0  0  0  0  0  0  0  0  0  0  0  0
   40.0172   31.3033   42.1288 H   0  0  0  0  0  0  0  0  0  0  0  0
   36.9385   33.3308   42.7820 H   0  0  0  0  0  0  0  0  0  0  0  0
   38.3705   33.6126   41.7348 H   0  0  0  0  0  0  0  0  0  0  0  0
   37.5593   32.0099   41.7348 H   0  0  0  0  0  0  0  0  0  0  0  0
   39.3170   33.1820   49.4178 H   0  0  0  0  0  0  0  0  0  0  0  0
   37.5226   30.4621   46.6225 H   0  0  0  0  0  0  0  0  0  0  0  0
   36.8593   28.4538   50.7869 H   0  0  0  0  0  0  0  0  0  0  0  0
  1  8  1  0
  2  1  2  0
  3  2  1  0
  4  5  1  0
  4  3  2  0
  5  6  2  0
  6  1  1  0
  7  5  1  0
  8 10  1  0
  9 14  2  0
 10  9  1  0
 11 10  2  0
 11 12  1  0
 12 13  2  0
 13 14  1  0
 13 15  1  0
 15 16  2  0
  2 17  1  0
  3 18  1  0
  4 19  1  0
  7 20  1  0
  7 21  1  0
  7 22  1  0
  9 23  1  0
 11 24  1  0
 15 25  1  0
M  ISO  8  17  14  18  14  19  14  20   8  21   8  22   8  23  14  24  14
M  ISO  1  25   6
M  END
>  <minimizedAffinity>  (1) 
-4.97304392

>  <minimizedRMSD>  (1) 
2.97030926

$$$$
