
     RDKit          3D

 34 36  0  0  1  0  0  0  0  0999 V2000
   34.5020   29.0680   48.7260 C   0  0  2  0  0  0  0  0  0  0  0  0
   35.1660   28.3270   49.8340 C   0  0  0  0  0  0  0  0  0  0  0  0
   36.2980   29.1110   50.3240 N   0  0  0  0  0  0  0  0  0  0  0  0
   37.2510   29.8470   51.1160 C   0  0  0  0  0  0  0  0  0  0  0  0
   37.4780   30.0110   52.3250 O   0  0  0  0  0  0  0  0  0  0  0  0
   37.9440   30.4020   49.9910 C   0  0  1  0  0  0  0  0  0  0  0  0
   37.1240   29.3930   49.1900 C   0  0  2  0  0  0  0  0  0  0  0  0
   35.8890   30.1040   48.0780 S   0  0  0  0  0  0  0  0  0  0  0  0
   33.2890   29.8520   49.0820 C   0  0  0  0  0  0  0  0  0  0  0  0
   34.2230   28.0710   47.5810 C   0  0  0  0  0  0  0  0  0  0  0  0
   34.2620   28.7620   46.3730 O   0  0  0  0  0  0  0  0  0  0  0  0
   37.7050   31.8180   49.6780 C   0  0  0  0  0  0  0  0  0  0  0  0
   36.6480   32.2770   50.2250 O   0  0  0  0  0  0  0  0  0  0  0  0
   38.5540   32.6230   48.8550 C   0  0  0  0  0  0  0  0  0  0  0  0
   39.0830   33.7770   49.3820 C   0  0  0  0  0  0  0  0  0  0  0  0
   39.9200   34.5630   48.5510 C   0  0  0  0  0  0  0  0  0  0  0  0
   40.1550   34.1340   47.2820 N   0  0  0  0  0  0  0  0  0  0  0  0
   39.6290   33.0130   46.8030 C   0  0  0  0  0  0  0  0  0  0  0  0
   38.8260   32.2490   47.5820 N   0  0  0  0  0  0  0  0  0  0  0  0
   39.9020   32.5780   45.4260 C   0  0  0  0  0  0  0  0  0  0  0  0
   41.1090   32.4000   45.0430 O   0  0  0  0  0  0  0  0  0  0  0  0
   34.4480   28.1664   50.6517 H   0  0  0  0  0  0  0  0  0  0  0  0
   35.5216   27.3529   49.4670 H   0  0  0  0  0  0  0  0  0  0  0  0
   39.0403   30.4803   49.9470 H   0  0  0  0  0  0  0  0  0  0  0  0
   37.7255   28.6805   48.6065 H   0  0  0  0  0  0  0  0  0  0  0  0
   33.1985   29.9105   50.1767 H   0  0  0  0  0  0  0  0  0  0  0  0
   33.3733   30.8669   48.6663 H   0  0  0  0  0  0  0  0  0  0  0  0
   32.3982   29.3583   48.6663 H   0  0  0  0  0  0  0  0  0  0  0  0
   34.9891   27.2817   47.5816 H   0  0  0  0  0  0  0  0  0  0  0  0
   33.2349   27.6075   47.7178 H   0  0  0  0  0  0  0  0  0  0  0  0
   34.3169   29.7344   46.5507 H   0  0  0  0  0  0  0  0  0  0  0  0
   38.8637   34.0810   50.4162 H   0  0  0  0  0  0  0  0  0  0  0  0
   40.3681   35.4962   48.9230 H   0  0  0  0  0  0  0  0  0  0  0  0
   39.0704   32.4060   44.7268 H   0  0  0  0  0  0  0  0  0  0  0  0
  1 10  1  6
  1  9  1  0
  1  2  1  0
  2  3  1  0
  3  4  1  0
  4  5  2  0
  6  4  1  0
  7  6  1  0
  7  3  1  0
  8  1  1  0
  8  7  1  0
 11 10  1  0
 12  6  1  0
 12 13  2  0
 14 15  2  0
 14 12  1  0
 16 15  1  0
 17 16  2  0
 18 17  1  0
 18 19  2  0
 19 14  1  0
 20 18  1  0
 21 20  2  0
  2 22  1  0
  2 23  1  0
  6 24  1  1
  7 25  1  6
  9 26  1  0
  9 27  1  0
  9 28  1  0
 10 29  1  0
 10 30  1  0
 11 31  1  0
 15 32  1  0
 16 33  1  0
 20 34  1  0
M  ISO  8  22  13  23  13  24  13  25  13  26   8  27   8  28   8  29   8
M  ISO  5  30   8  31   3  32  14  33  14  34   6
M  END
>  <minimizedAffinity>  (1) 
-4.95067978

>  <minimizedRMSD>  (1) 
0.218867034

$$$$
