
     RDKit          3D

 22 23  0  0  0  0  0  0  0  0999 V2000
   38.3440   31.8720   49.0440 Br  0  0  0  0  0  0  0  0  0  0  0  0
   37.0590   31.0610   47.8850 C   0  0  0  0  0  0  0  0  0  0  0  0
   37.2640   30.9680   46.5170 C   0  0  0  0  0  0  0  0  0  0  0  0
   36.2950   30.3730   45.7560 C   0  0  0  0  0  0  0  0  0  0  0  0
   35.1190   29.8600   46.2800 C   0  0  0  0  0  0  0  0  0  0  0  0
   34.9400   29.9650   47.6350 C   0  0  0  0  0  0  0  0  0  0  0  0
   35.9010   30.5590   48.4240 C   0  0  0  0  0  0  0  0  0  0  0  0
   39.5600   33.2040   44.7650 C   0  0  0  0  0  0  0  0  0  0  0  0
   40.7950   32.5260   44.8140 C   0  0  0  0  0  0  0  0  0  0  0  0
   40.8250   31.2970   45.4530 C   0  0  0  0  0  0  0  0  0  0  0  0
   39.6710   30.8030   46.0020 N   0  0  0  0  0  0  0  0  0  0  0  0
   38.4930   31.4990   45.9300 C   0  0  0  0  0  0  0  0  0  0  0  0
   38.4520   32.6900   45.3130 N   0  0  0  0  0  0  0  0  0  0  0  0
   35.6890   30.6600   49.8660 C   0  0  0  0  0  0  0  0  0  0  0  0
   35.8270   29.6410   50.5950 O   0  0  0  0  0  0  0  0  0  0  0  0
   36.4580   30.2978   44.6707 H   0  0  0  0  0  0  0  0  0  0  0  0
   34.3617   29.3888   45.6362 H   0  0  0  0  0  0  0  0  0  0  0  0
   34.0219   29.5720   48.0962 H   0  0  0  0  0  0  0  0  0  0  0  0
   39.5053   34.1813   44.2632 H   0  0  0  0  0  0  0  0  0  0  0  0
   41.7007   32.9565   44.3619 H   0  0  0  0  0  0  0  0  0  0  0  0
   41.7627   30.7256   45.5187 H   0  0  0  0  0  0  0  0  0  0  0  0
   35.4092   31.6244   50.3151 H   0  0  0  0  0  0  0  0  0  0  0  0
  2  7  2  0
  2  1  1  0
  3  2  1  0
  4  5  1  0
  4  3  2  0
  5  6  2  0
  6  7  1  0
  7 14  1  0
  8  9  2  0
  8 13  1  0
  9 10  1  0
 10 11  2  0
 12 11  1  0
 12  3  1  0
 13 12  2  0
 14 15  2  0
  4 16  1  0
  5 17  1  0
  6 18  1  0
  8 19  1  0
  9 20  1  0
 10 21  1  0
 14 22  1  0
M  ISO  7  16  14  17  14  18  14  19  14  20  14  21  14  22   6
M  END
>  <minimizedAffinity>  (1) 
-5.05421829

>  <minimizedRMSD>  (1) 
3.14486647

$$$$
