
     RDKit          3D

 22 23  0  0  0  0  0  0  0  0999 V2000
   37.6820   31.2620   48.6230 C   0  0  0  0  0  0  0  0  0  0  0  0
   38.1780   32.5040   48.9600 C   0  0  0  0  0  0  0  0  0  0  0  0
   39.0660   33.2110   48.1770 C   0  0  0  0  0  0  0  0  0  0  0  0
   39.4980   32.6650   46.9820 C   0  0  0  0  0  0  0  0  0  0  0  0
   38.9890   31.4240   46.6670 C   0  0  0  0  0  0  0  0  0  0  0  0
   38.1250   30.7670   47.4580 N   0  0  0  0  0  0  0  0  0  0  0  0
   37.0250   30.0460   50.7390 C   0  0  0  0  0  0  0  0  0  0  0  0
   36.7460   30.5430   49.4680 C   0  0  0  0  0  0  0  0  0  0  0  0
   35.4640   30.3370   48.9570 C   0  0  0  0  0  0  0  0  0  0  0  0
   34.5700   29.6560   49.7550 N   0  0  0  0  0  0  0  0  0  0  0  0
   34.8860   29.1990   50.9690 C   0  0  0  0  0  0  0  0  0  0  0  0
   36.1140   29.3900   51.4700 N   0  0  0  0  0  0  0  0  0  0  0  0
   40.3880   33.2490   46.0830 O   0  0  0  0  0  0  0  0  0  0  0  0
   40.3610   32.8130   44.7530 C   0  0  0  0  0  0  0  0  0  0  0  0
   39.7570   33.4490   43.8320 O   0  0  0  0  0  0  0  0  0  0  0  0
   37.8466   32.9560   49.9065 H   0  0  0  0  0  0  0  0  0  0  0  0
   39.4270   34.1988   48.4994 H   0  0  0  0  0  0  0  0  0  0  0  0
   39.3043   30.9502   45.7257 H   0  0  0  0  0  0  0  0  0  0  0  0
   38.0307   30.1978   51.1580 H   0  0  0  0  0  0  0  0  0  0  0  0
   35.1789   30.7026   47.9595 H   0  0  0  0  0  0  0  0  0  0  0  0
   34.1321   28.6613   51.5628 H   0  0  0  0  0  0  0  0  0  0  0  0
   40.8843   31.8809   44.4935 H   0  0  0  0  0  0  0  0  0  0  0  0
  1  2  2  0
  1  8  1  0
  3  2  1  0
  4  3  2  0
  5  4  1  0
  5  6  2  0
  6  1  1  0
  7 12  2  0
  8  7  1  0
  9  8  2  0
  9 10  1  0
 10 11  2  0
 11 12  1  0
 13  4  1  0
 14 13  1  0
 15 14  2  0
  2 16  1  0
  3 17  1  0
  5 18  1  0
  7 19  1  0
  9 20  1  0
 11 21  1  0
 14 22  1  0
M  ISO  7  16  14  17  14  18  14  19  14  20  14  21  14  22   6
M  END
>  <minimizedAffinity>  (1) 
-4.77356815

>  <minimizedRMSD>  (1) 
1.39228582

$$$$
