
     RDKit          3D

 27 28  0  0  1  0  0  0  0  0999 V2000
   37.0240   31.5340   48.6550 C   0  0  1  0  0  0  0  0  0  0  0  0
   36.2820   30.8600   47.6140 C   0  0  0  0  0  0  0  0  0  0  0  0
   37.2330   30.1000   48.4720 C   0  0  2  0  0  0  0  0  0  0  0  0
   38.1720   32.4410   48.3160 C   0  0  0  0  0  0  0  0  0  0  0  0
   38.5220   33.3860   49.3110 C   0  0  0  0  0  0  0  0  0  0  0  0
   39.5750   34.2050   48.9670 C   0  0  0  0  0  0  0  0  0  0  0  0
   40.1890   34.0770   47.7690 N   0  0  0  0  0  0  0  0  0  0  0  0
   39.8200   33.1520   46.8400 C   0  0  0  0  0  0  0  0  0  0  0  0
   38.7740   32.3160   47.1430 N   0  0  0  0  0  0  0  0  0  0  0  0
   40.4520   33.0070   45.5990 N   0  0  0  0  0  0  0  0  0  0  0  0
   36.6420   29.2820   49.4460 O   0  0  0  0  0  0  0  0  0  0  0  0
   34.6130   27.7270   49.7500 O   0  0  0  0  0  0  0  0  0  0  0  0
   35.0440   29.0020   49.0910 P   0  0  1  0  0  0  0  0  0  0  0  0
   34.0690   30.2510   49.7890 O   0  0  0  0  0  0  0  0  0  0  0  0
   34.8310   28.9930   47.4140 O   0  0  0  0  0  0  0  0  0  0  0  0
   33.6970   28.3200   46.9160 C   0  0  0  0  0  0  0  0  0  0  0  0
   32.4710   28.5000   47.1820 O   0  0  0  0  0  0  0  0  0  0  0  0
   36.7187   32.1881   49.4851 H   0  0  0  0  0  0  0  0  0  0  0  0
   36.5223   31.0469   46.5570 H   0  0  0  0  0  0  0  0  0  0  0  0
   35.2178   30.7622   47.3535 H   0  0  0  0  0  0  0  0  0  0  0  0
   38.0995   29.4454   48.2965 H   0  0  0  0  0  0  0  0  0  0  0  0
   37.9982   33.4597   50.2755 H   0  0  0  0  0  0  0  0  0  0  0  0
   39.9205   34.9723   49.6754 H   0  0  0  0  0  0  0  0  0  0  0  0
   41.2393   33.6215   45.3471 H   0  0  0  0  0  0  0  0  0  0  0  0
   40.1296   32.2858   44.9380 H   0  0  0  0  0  0  0  0  0  0  0  0
   34.1147   30.1924   50.7762 H   0  0  0  0  0  0  0  0  0  0  0  0
   33.9070   27.5211   46.1897 H   0  0  0  0  0  0  0  0  0  0  0  0
  2  3  1  0
  2  1  1  0
  3  1  1  0
  3 11  1  0
  4  1  1  0
  4  5  2  0
  6  5  1  0
  7  6  2  0
  8  9  2  0
  8  7  1  0
  9  4  1  0
 10  8  1  0
 13 11  1  0
 13 12  2  0
 13 14  1  0
 15 13  1  0
 16 17  2  0
 16 15  1  0
  1 18  1  1
  2 19  1  0
  2 20  1  0
  3 21  1  6
  5 22  1  0
  6 23  1  0
 10 24  1  0
 10 25  1  0
 14 26  1  0
 16 27  1  0
M  ISO  8  18  13  19  13  20  13  21  13  22  14  23  14  26   3  27   6
M  END
>  <minimizedAffinity>  (1) 
-4.33102417

>  <minimizedRMSD>  (1) 
0.474753767

$$$$
