
     RDKit          3D

 26 28  0  0  0  0  0  0  0  0999 V2000
   36.8556   30.5400   46.9119 C   0  0  0  0  0  0  0  0  0  0  0  0
   37.5228   31.0389   48.0354 C   0  0  0  0  0  0  0  0  0  0  0  0
   38.5051   31.9942   47.9014 C   0  0  0  0  0  0  0  0  0  0  0  0
   38.7957   32.4321   46.6052 C   0  0  0  0  0  0  0  0  0  0  0  0
   39.7189   33.3612   46.2273 N   0  0  0  0  0  0  0  0  0  0  0  0
   39.6340   33.4458   44.8859 C   0  0  0  0  0  0  0  0  0  0  0  0
   38.7037   32.6156   44.4091 N   0  0  0  0  0  0  0  0  0  0  0  0
   38.1615   31.9673   45.4624 C   0  0  0  0  0  0  0  0  0  0  0  0
   37.1736   31.0021   45.6316 C   0  0  0  0  0  0  0  0  0  0  0  0
   37.3973   30.0722   51.6622 C   0  0  0  0  0  0  0  0  0  0  0  0
   37.8826   30.6323   50.4829 C   0  0  0  0  0  0  0  0  0  0  0  0
   37.1267   30.5009   49.3251 C   0  0  0  0  0  0  0  0  0  0  0  0
   35.9337   29.8251   49.3910 N   0  0  0  0  0  0  0  0  0  0  0  0
   35.4906   29.2910   50.5600 C   0  0  0  0  0  0  0  0  0  0  0  0
   36.2182   29.4171   51.6761 N   0  0  0  0  0  0  0  0  0  0  0  0
   40.4759   34.3363   44.1906 O   0  0  0  0  0  0  0  0  0  0  0  0
   36.0758   29.7904   46.9471 H   0  0  0  0  0  0  0  0  0  0  0  0
   39.0203   32.3811   48.7547 H   0  0  0  0  0  0  0  0  0  0  0  0
   40.3570   33.8903   46.8800 H   0  0  0  0  0  0  0  0  0  0  0  0
   36.6731   30.6332   44.7462 H   0  0  0  0  0  0  0  0  0  0  0  0
   38.0693   30.2398   52.4864 H   0  0  0  0  0  0  0  0  0  0  0  0
   38.8133   31.1711   50.3842 H   0  0  0  0  0  0  0  0  0  0  0  0
   34.5582   28.7597   50.6244 H   0  0  0  0  0  0  0  0  0  0  0  0
   41.7335   33.8964   43.7380 C   0  0  0  0  0  0  0  0  0  0  0  0
   42.0113   34.4370   42.8354 H   0  0  0  0  0  0  0  0  0  0  0  0
   42.3870   32.9927   44.3523 O   0  0  0  0  0  0  0  0  0  0  0  0
  1  2  2  0
  2 12  1  0
  3  2  1  0
  4  3  2  0
  5  4  1  0
  6  5  1  0
  7  6  2  0
  7  8  1  0
  8  9  2  0
  8  4  1  0
  9  1  1  0
 10 15  2  0
 11 10  1  0
 12 13  1  0
 12 11  2  0
 13 14  2  0
 14 15  1  0
 16  6  1  0
  1 17  1  0
  3 18  1  0
  5 19  1  0
  9 20  1  0
 10 21  1  0
 11 22  1  0
 14 23  1  0
 24 25  1  0
 24 26  2  0
 16 24  1  0
M  ISO  8  17  14  18  14  19   9  20  14  21  14  22  14  23  14  25   6
M  END
>  <DihAtoms>  (1) 
5,15,23,24

>  <DihDeg>  (1) 
-179.9999651832658

$$$$
