
     RDKit          3D

 30 32  0  0  1  0  0  0  0  0999 V2000
   35.8500   29.1490   49.8130 C   0  0  0  0  0  0  0  0  0  0  0  0
   34.8170   29.6390   50.5710 C   0  0  0  0  0  0  0  0  0  0  0  0
   33.6290   29.0790   50.0730 C   0  0  0  0  0  0  0  0  0  0  0  0
   34.0340   28.2710   49.0270 C   0  0  0  0  0  0  0  0  0  0  0  0
   35.3380   28.3430   48.9110 O   0  0  0  0  0  0  0  0  0  0  0  0
   37.2360   29.5210   50.0540 C   0  0  0  0  0  0  0  0  0  0  0  0
   37.8770   28.9350   50.9460 O   0  0  0  0  0  0  0  0  0  0  0  0
   37.7820   30.5610   49.2270 C   0  0  0  0  0  0  0  0  0  0  0  0
   38.1190   31.7530   49.8520 C   0  0  0  0  0  0  0  0  0  0  0  0
   38.6520   32.7820   49.0750 C   0  0  0  0  0  0  0  0  0  0  0  0
   38.8160   32.5590   47.7250 N   0  0  0  0  0  0  0  0  0  0  0  0
   38.4800   31.4000   47.1600 C   0  0  0  0  0  0  0  0  0  0  0  0
   37.9640   30.3970   47.8990 N   0  0  0  0  0  0  0  0  0  0  0  0
   33.1430   27.4660   48.1910 C   0  0  0  0  0  0  0  0  0  0  0  0
   31.9100   27.3920   48.5030 O   0  0  0  0  0  0  0  0  0  0  0  0
   33.6840   26.7400   46.9930 C   0  0  1  0  0  0  0  0  0  0  0  0
   33.8150   25.2010   47.3140 C   0  0  0  0  0  0  0  0  0  0  0  0
   32.8820   25.7400   46.2910 C   0  0  2  0  0  0  0  0  0  0  0  0
   33.2020   25.4170   44.8730 C   0  0  0  0  0  0  0  0  0  0  0  0
   34.2850   25.7380   44.3610 O   0  0  0  0  0  0  0  0  0  0  0  0
   34.9031   30.3410   51.4135 H   0  0  0  0  0  0  0  0  0  0  0  0
   32.6038   29.2463   50.4350 H   0  0  0  0  0  0  0  0  0  0  0  0
   37.9696   31.8836   50.9339 H   0  0  0  0  0  0  0  0  0  0  0  0
   38.9334   33.7444   49.5274 H   0  0  0  0  0  0  0  0  0  0  0  0
   38.6252   31.2598   46.0787 H   0  0  0  0  0  0  0  0  0  0  0  0
   34.2783   27.5864   46.6182 H   0  0  0  0  0  0  0  0  0  0  0  0
   34.7128   24.6420   47.0116 H   0  0  0  0  0  0  0  0  0  0  0  0
   33.7344   24.5651   48.2079 H   0  0  0  0  0  0  0  0  0  0  0  0
   31.7981   25.6586   46.1223 H   0  0  0  0  0  0  0  0  0  0  0  0
   32.4593   24.8803   44.2645 H   0  0  0  0  0  0  0  0  0  0  0  0
  1  6  1  0
  1  2  2  0
  3  2  1  0
  4  3  2  0
  5  4  1  0
  5  1  1  0
  6  7  2  0
  8  9  2  0
  8  6  1  0
 10  9  1  0
 11 10  2  0
 12 11  1  0
 12 13  2  0
 13  8  1  0
 14 15  2  0
 14  4  1  0
 16 17  1  0
 16 14  1  0
 18 16  1  0
 18 17  1  0
 19 18  1  0
 20 19  2  0
  2 21  1  0
  3 22  1  0
  9 23  1  0
 10 24  1  0
 12 25  1  0
 16 26  1  6
 17 27  1  0
 17 28  1  0
 18 29  1  1
 19 30  1  0
M  ISO  8  21  14  22  14  23  14  24  14  25  14  26  13  27  13  28  13
M  ISO  2  29  13  30   6
M  END
>  <minimizedAffinity>  (1) 
-4.78159094

>  <minimizedRMSD>  (1) 
0.105252996

$$$$
