
     RDKit          3D

 30 32  0  0  0  0  0  0  0  0999 V2000
   35.8224   29.1396   49.8053 C   0  0  0  0  0  0  0  0  0  0  0  0
   34.8078   29.6549   50.5716 C   0  0  0  0  0  0  0  0  0  0  0  0
   33.6030   29.1167   50.0911 C   0  0  0  0  0  0  0  0  0  0  0  0
   33.9791   28.2954   49.0454 C   0  0  0  0  0  0  0  0  0  0  0  0
   35.2827   28.3396   48.9140 O   0  0  0  0  0  0  0  0  0  0  0  0
   37.2180   29.4854   50.0276 C   0  0  0  0  0  0  0  0  0  0  0  0
   37.8647   28.8713   50.8965 O   0  0  0  0  0  0  0  0  0  0  0  0
   37.7660   30.5334   49.2127 C   0  0  0  0  0  0  0  0  0  0  0  0
   38.1033   31.7181   49.8504 C   0  0  0  0  0  0  0  0  0  0  0  0
   38.6380   32.7547   49.0845 C   0  0  0  0  0  0  0  0  0  0  0  0
   38.8026   32.5450   47.7323 N   0  0  0  0  0  0  0  0  0  0  0  0
   38.4666   31.3920   47.1549 C   0  0  0  0  0  0  0  0  0  0  0  0
   37.9488   30.3819   47.8831 N   0  0  0  0  0  0  0  0  0  0  0  0
   33.0626   27.5039   48.2236 C   0  0  0  0  0  0  0  0  0  0  0  0
   31.8406   27.4205   48.5755 O   0  0  0  0  0  0  0  0  0  0  0  0
   33.5646   26.8023   46.9962 C   0  0  1  0  0  0  0  0  0  0  0  0
   33.7827   25.2715   47.3056 C   0  0  0  0  0  0  0  0  0  0  0  0
   32.7694   25.7659   46.3397 C   0  0  2  0  0  0  0  0  0  0  0  0
   34.8621   30.3512   51.4058 H   0  0  0  0  0  0  0  0  0  0  0  0
   32.6022   29.3006   50.4544 H   0  0  0  0  0  0  0  0  0  0  0  0
   37.9708   31.8741   50.9120 H   0  0  0  0  0  0  0  0  0  0  0  0
   38.9109   33.6915   49.5542 H   0  0  0  0  0  0  0  0  0  0  0  0
   38.6007   31.2374   46.0882 H   0  0  0  0  0  0  0  0  0  0  0  0
   34.5535   27.1949   46.6300 H   0  0  0  0  0  0  0  0  0  0  0  0
   34.6737   24.7980   46.8952 H   0  0  0  0  0  0  0  0  0  0  0  0
   33.3482   24.8925   48.2492 H   0  0  0  0  0  0  0  0  0  0  0  0
   31.6738   25.7867   46.5881 H   0  0  0  0  0  0  0  0  0  0  0  0
   33.0203   25.4573   44.9050 C   0  0  0  0  0  0  0  0  0  0  0  0
   32.7017   24.5287   44.3985 H   0  0  0  0  0  0  0  0  0  0  0  0
   33.6218   26.2480   44.1641 O   0  0  0  0  0  0  0  0  0  0  0  0
  1  6  1  0
  1  2  2  0
  3  2  1  0
  4  3  2  0
  5  4  1  0
  5  1  1  0
  6  7  2  0
  8  9  2  0
  8  6  1  0
 10  9  1  0
 11 10  2  0
 12 11  1  0
 12 13  2  0
 13  8  1  0
 14 15  2  0
 14  4  1  0
 16 17  1  0
 16 14  1  0
 18 16  1  0
 18 17  1  0
  2 19  1  0
  3 20  1  0
  9 21  1  0
 10 22  1  0
 12 23  1  0
 16 24  1  6
 17 25  1  0
 17 26  1  0
 18 27  1  1
 28 29  1  0
 28 30  2  0
 18 28  1  0
M  ISO  8  19  14  20  14  21  14  22  14  23  14  24  13  25  13  26  13
M  ISO  2  27  13  29   6
M  END
>  <DihAtoms>  (1) 
15,17,27,28

>  <DihDeg>  (1) 
-138.46215746930997

$$$$
