
     RDKit          3D

 38 40  0  0  0  0  0  0  0  0999 V2000
   32.8950   28.0310   48.0190 C   0  0  0  0  0  0  0  0  0  0  0  0
   32.7610   28.6260   46.7240 C   0  0  0  0  0  0  0  0  0  0  0  0
   31.0150   28.6010   46.5000 S   0  0  0  0  0  0  0  0  0  0  0  0
   30.6610   27.8010   48.1560 C   0  0  0  0  0  0  0  0  0  0  0  0
   31.7700   27.6920   48.5670 N   0  0  0  0  0  0  0  0  0  0  0  0
   29.4070   27.4140   48.7870 N   0  0  0  0  0  0  0  0  0  0  0  0
   28.3410   27.0650   47.9080 C   0  0  0  0  0  0  0  0  0  0  0  0
   27.0040   26.9850   48.5590 C   0  0  0  0  0  0  0  0  0  0  0  0
   26.9920   27.5600   49.8980 N   0  0  0  0  0  0  0  0  0  0  0  0
   28.0070   26.8100   50.6260 C   0  0  0  0  0  0  0  0  0  0  0  0
   29.3260   27.4080   50.2190 C   0  0  0  0  0  0  0  0  0  0  0  0
   34.2620   27.8490   48.6240 C   0  0  0  0  0  0  0  0  0  0  0  0
   34.3750   28.5210   49.9280 C   0  0  0  0  0  0  0  0  0  0  0  0
   37.3920   30.1850   51.2970 C   0  0  0  0  0  0  0  0  0  0  0  0
   38.0540   30.6190   50.1390 C   0  0  0  0  0  0  0  0  0  0  0  0
   37.4550   30.3330   48.9110 C   0  0  0  0  0  0  0  0  0  0  0  0
   36.2750   29.6580   48.8980 N   0  0  0  0  0  0  0  0  0  0  0  0
   35.6820   29.2650   50.0480 C   0  0  0  0  0  0  0  0  0  0  0  0
   36.2320   29.5240   51.2300 N   0  0  0  0  0  0  0  0  0  0  0  0
   38.1120   30.7660   47.6830 C   0  0  0  0  0  0  0  0  0  0  0  0
   37.9060   31.8980   47.2160 O   0  0  0  0  0  0  0  0  0  0  0  0
   33.5431   29.0003   46.0470 H   0  0  0  0  0  0  0  0  0  0  0  0
   28.5673   26.0832   47.4665 H   0  0  0  0  0  0  0  0  0  0  0  0
   28.2768   27.8689   47.1599 H   0  0  0  0  0  0  0  0  0  0  0  0
   26.2773   27.5280   47.9369 H   0  0  0  0  0  0  0  0  0  0  0  0
   26.7452   25.9201   48.6538 H   0  0  0  0  0  0  0  0  0  0  0  0
   27.2318   28.5612   49.8665 H   0  0  0  0  0  0  0  0  0  0  0  0
   27.8569   26.9148   51.7107 H   0  0  0  0  0  0  0  0  0  0  0  0
   27.9604   25.7354   50.3958 H   0  0  0  0  0  0  0  0  0  0  0  0
   30.1485   26.8066   50.6336 H   0  0  0  0  0  0  0  0  0  0  0  0
   29.4054   28.4358   50.6028 H   0  0  0  0  0  0  0  0  0  0  0  0
   34.4513   26.7739   48.7596 H   0  0  0  0  0  0  0  0  0  0  0  0
   35.0004   28.2970   47.9428 H   0  0  0  0  0  0  0  0  0  0  0  0
   33.5449   29.2345   50.0369 H   0  0  0  0  0  0  0  0  0  0  0  0
   34.3361   27.7565   50.7179 H   0  0  0  0  0  0  0  0  0  0  0  0
   37.8369   30.3930   52.2813 H   0  0  0  0  0  0  0  0  0  0  0  0
   39.0080   31.1635   50.1963 H   0  0  0  0  0  0  0  0  0  0  0  0
   38.7987   30.0811   47.1639 H   0  0  0  0  0  0  0  0  0  0  0  0
  1  5  1  0
  1 12  1  0
  2  1  2  0
  3  2  1  0
  3  4  1  0
  4  5  2  0
  4  6  1  0
  6 11  1  0
  7  8  1  0
  7  6  1  0
  8  9  1  0
  9 10  1  0
 11 10  1  0
 12 13  1  0
 13 18  1  0
 15 14  2  0
 16 15  1  0
 17 16  2  0
 17 18  1  0
 18 19  2  0
 19 14  1  0
 20 16  1  0
 21 20  2  0
  2 22  1  0
  7 23  1  0
  7 24  1  0
  8 25  1  0
  8 26  1  0
  9 27  1  0
 10 28  1  0
 10 29  1  0
 11 30  1  0
 11 31  1  0
 12 32  1  0
 12 33  1  0
 13 34  1  0
 13 35  1  0
 14 36  1  0
 15 37  1  0
 20 38  1  0
M  ISO  8  22  14  23  13  24  13  25  13  26  13  27   5  28  13  29  13
M  ISO  8  30  13  31  13  32   8  33   8  34   8  35   8  36  14  37  14
M  ISO  1  38   6
M  END
>  <minimizedAffinity>  (1) 
-6.17401505

>  <minimizedRMSD>  (1) 
1.41772568

$$$$
