
     RDKit          3D

 35 37  0  0  1  0  0  0  0  0999 V2000
   39.3860   32.9330   44.9740 C   0  0  0  0  0  0  0  0  0  0  0  0
   40.4010   32.1010   44.5140 C   0  0  0  0  0  0  0  0  0  0  0  0
   40.1320   30.7460   44.3720 C   0  0  0  0  0  0  0  0  0  0  0  0
   38.8950   30.2870   44.6890 N   0  0  0  0  0  0  0  0  0  0  0  0
   37.9380   31.0640   45.1220 C   0  0  0  0  0  0  0  0  0  0  0  0
   38.2490   32.3270   45.2330 N   0  0  0  0  0  0  0  0  0  0  0  0
   36.6650   30.5470   45.4330 N   0  0  0  0  0  0  0  0  0  0  0  0
   35.8430   29.8320   44.4480 C   0  0  0  0  0  0  0  0  0  0  0  0
   34.6710   29.3610   45.1950 C   0  0  0  0  0  0  0  0  0  0  0  0
   35.0750   29.4850   46.6650 C   0  0  0  0  0  0  0  0  0  0  0  0
   35.9280   30.6590   46.7010 C   0  0  1  0  0  0  0  0  0  0  0  0
   36.6880   30.0930   49.0470 C   0  0  0  0  0  0  0  0  0  0  0  0
   36.6960   30.8940   47.8910 C   0  0  0  0  0  0  0  0  0  0  0  0
   37.6330   31.9130   47.9800 C   0  0  0  0  0  0  0  0  0  0  0  0
   38.4750   32.1330   49.0580 C   0  0  0  0  0  0  0  0  0  0  0  0
   38.3970   31.2750   50.1720 C   0  0  0  0  0  0  0  0  0  0  0  0
   37.4860   30.2370   50.1650 C   0  0  0  0  0  0  0  0  0  0  0  0
   37.3920   29.3430   51.3080 C   0  0  0  0  0  0  0  0  0  0  0  0
   37.4950   29.7870   52.4790 O   0  0  0  0  0  0  0  0  0  0  0  0
   34.8940   28.2600   49.2280 N   0  0  0  0  0  0  0  0  0  0  0  0
   35.6800   29.0640   49.1380 C   0  0  0  0  0  0  0  0  0  0  0  0
   39.5243   34.0157   45.1106 H   0  0  0  0  0  0  0  0  0  0  0  0
   41.3935   32.5067   44.2684 H   0  0  0  0  0  0  0  0  0  0  0  0
   40.9084   30.0566   44.0088 H   0  0  0  0  0  0  0  0  0  0  0  0
   36.3989   28.9817   44.0260 H   0  0  0  0  0  0  0  0  0  0  0  0
   35.5602   30.4766   43.6027 H   0  0  0  0  0  0  0  0  0  0  0  0
   33.7944   29.9894   44.9788 H   0  0  0  0  0  0  0  0  0  0  0  0
   34.3900   28.3324   44.9250 H   0  0  0  0  0  0  0  0  0  0  0  0
   34.1897   29.6261   47.3025 H   0  0  0  0  0  0  0  0  0  0  0  0
   35.5817   28.5838   47.0406 H   0  0  0  0  0  0  0  0  0  0  0  0
   35.3486   31.5910   46.7759 H   0  0  0  0  0  0  0  0  0  0  0  0
   37.7140   32.6017   47.1261 H   0  0  0  0  0  0  0  0  0  0  0  0
   39.1938   32.9655   49.0440 H   0  0  0  0  0  0  0  0  0  0  0  0
   39.0554   31.4301   51.0395 H   0  0  0  0  0  0  0  0  0  0  0  0
   37.2291   28.2673   51.1459 H   0  0  0  0  0  0  0  0  0  0  0  0
  1  6  2  0
  2  1  1  0
  3  2  2  0
  3  4  1  0
  4  5  2  0
  5  6  1  0
  5  7  1  0
  7 11  1  0
  8  9  1  0
  8  7  1  0
  9 10  1  0
 10 11  1  0
 11 13  1  0
 12 21  1  0
 12 17  2  0
 13 14  2  0
 13 12  1  0
 14 15  1  0
 15 16  2  0
 17 16  1  0
 17 18  1  0
 18 19  2  0
 21 20  3  0
  1 22  1  0
  2 23  1  0
  3 24  1  0
  8 25  1  0
  8 26  1  0
  9 27  1  0
  9 28  1  0
 10 29  1  0
 10 30  1  0
 11 31  1  6
 14 32  1  0
 15 33  1  0
 16 34  1  0
 18 35  1  0
M  ISO  8  22  14  23  14  24  14  25  13  26  13  27  13  28  13  29  13
M  ISO  6  30  13  31  13  32  14  33  14  34  14  35   6
M  END
>  <minimizedAffinity>  (1) 
-6.30133247

>  <minimizedRMSD>  (1) 
1.00659132

$$$$
