
     RDKit          3D

 24 25  0  0  1  0  0  0  0  0999 V2000
   37.0790   30.7140   50.6080 C   0  0  1  0  0  0  0  0  0  0  0  0
   36.0940   29.6550   50.3990 C   0  0  2  0  0  0  0  0  0  0  0  0
   37.4810   29.2350   50.7780 C   0  0  0  0  0  0  0  0  0  0  0  0
   37.7970   31.3620   49.4600 C   0  0  0  0  0  0  0  0  0  0  0  0
   38.2420   32.6580   49.6830 C   0  0  0  0  0  0  0  0  0  0  0  0
   38.8950   33.2390   48.5800 C   0  0  0  0  0  0  0  0  0  0  0  0
   39.0550   32.5480   47.4040 N   0  0  0  0  0  0  0  0  0  0  0  0
   38.5980   31.2820   47.2460 C   0  0  0  0  0  0  0  0  0  0  0  0
   37.9580   30.6840   48.2950 N   0  0  0  0  0  0  0  0  0  0  0  0
   38.7590   30.5430   46.0140 C   0  0  0  0  0  0  0  0  0  0  0  0
   39.8550   30.5920   45.3570 O   0  0  0  0  0  0  0  0  0  0  0  0
   35.6540   29.4420   49.0990 O   0  0  0  0  0  0  0  0  0  0  0  0
   34.4470   29.0200   48.6540 C   0  0  0  0  0  0  0  0  0  0  0  0
   34.2680   28.5960   47.4940 O   0  0  0  0  0  0  0  0  0  0  0  0
   33.5250   29.1560   49.6960 N   0  0  0  0  0  0  0  0  0  0  0  0
   37.0309   31.6409   51.1984 H   0  0  0  0  0  0  0  0  0  0  0  0
   35.1016   29.4300   50.8166 H   0  0  0  0  0  0  0  0  0  0  0  0
   38.1363   28.7477   50.0410 H   0  0  0  0  0  0  0  0  0  0  0  0
   37.9348   28.6232   51.5716 H   0  0  0  0  0  0  0  0  0  0  0  0
   38.0969   33.1845   50.6379 H   0  0  0  0  0  0  0  0  0  0  0  0
   39.2841   34.2647   48.6612 H   0  0  0  0  0  0  0  0  0  0  0  0
   37.9272   29.9301   45.6365 H   0  0  0  0  0  0  0  0  0  0  0  0
   32.5418   28.8848   49.5523 H   0  0  0  0  0  0  0  0  0  0  0  0
   33.8289   29.5274   50.6074 H   0  0  0  0  0  0  0  0  0  0  0  0
  1  3  1  0
  2  1  1  0
  2  3  1  0
  4  5  2  0
  4  1  1  0
  6  5  1  0
  7  6  2  0
  8  7  1  0
  8  9  2  0
  9  4  1  0
 10  8  1  0
 11 10  2  0
 12  2  1  0
 13 12  1  0
 13 15  1  0
 14 13  2  0
  1 16  1  1
  2 17  1  1
  3 18  1  0
  3 19  1  0
  5 20  1  0
  6 21  1  0
 10 22  1  0
 15 23  1  0
 15 24  1  0
M  ISO  7  16  13  17  13  18  13  19  13  20  14  21  14  22   6
M  END
>  <minimizedAffinity>  (1) 
-4.85262966

>  <minimizedRMSD>  (1) 
1.22514987

$$$$
