
     RDKit          3D

 31 33  0  0  0  0  0  0  0  0999 V2000
   37.7748   30.6942   50.6124 C   0  0  0  0  0  0  0  0  0  0  0  0
   38.4532   31.6167   49.7754 C   0  0  0  0  0  0  0  0  0  0  0  0
   37.9243   31.8555   48.4880 C   0  0  0  0  0  0  0  0  0  0  0  0
   36.8014   31.1840   48.1413 N   0  0  0  0  0  0  0  0  0  0  0  0
   36.1912   30.3170   48.9694 C   0  0  0  0  0  0  0  0  0  0  0  0
   36.6623   30.0627   50.2004 N   0  0  0  0  0  0  0  0  0  0  0  0
   35.0090   29.6126   48.5992 N   0  0  0  0  0  0  0  0  0  0  0  0
   34.7441   29.4256   47.2901 C   0  0  0  0  0  0  0  0  0  0  0  0
   33.5855   28.7377   47.0171 C   0  0  0  0  0  0  0  0  0  0  0  0
   32.7232   28.2535   47.9867 C   0  0  0  0  0  0  0  0  0  0  0  0
   31.6781   27.6322   47.7052 O   0  0  0  0  0  0  0  0  0  0  0  0
   33.0366   28.4692   49.3066 N   0  0  0  0  0  0  0  0  0  0  0  0
   34.1740   29.1439   49.5458 C   0  0  0  0  0  0  0  0  0  0  0  0
   34.5014   29.3652   50.7534 O   0  0  0  0  0  0  0  0  0  0  0  0
   38.1506   30.4891   51.5989 H   0  0  0  0  0  0  0  0  0  0  0  0
   39.3564   32.1205   50.1282 H   0  0  0  0  0  0  0  0  0  0  0  0
   38.4271   32.5538   47.8384 H   0  0  0  0  0  0  0  0  0  0  0  0
   35.3968   29.7910   46.5072 H   0  0  0  0  0  0  0  0  0  0  0  0
   33.2972   28.5437   45.9894 H   0  0  0  0  0  0  0  0  0  0  0  0
   32.2052   28.0057   50.3868 C   0  0  1  0  0  0  0  0  0  0  0  0
   31.2179   26.9305   49.9797 C   0  0  2  0  0  0  0  0  0  0  0  0
   31.6789   26.1537   49.3466 H   0  0  0  0  0  0  0  0  0  0  0  0
   30.9350   26.3329   51.3495 C   0  0  2  0  0  0  0  0  0  0  0  0
   30.4553   25.3356   51.2646 H   0  0  0  0  0  0  0  0  0  0  0  0
   32.1344   26.3186   52.0135 O   0  0  0  0  0  0  0  0  0  0  0  0
   32.9600   27.2792   51.4553 C   0  0  2  0  0  0  0  0  0  0  0  0
   33.2775   27.9302   52.2920 H   0  0  0  0  0  0  0  0  0  0  0  0
   31.6426   28.8502   50.8206 H   0  0  0  0  0  0  0  0  0  0  0  0
   30.2648   27.3210   49.5854 H   0  0  0  0  0  0  0  0  0  0  0  0
   30.2438   27.0561   51.8630 H   0  0  0  0  0  0  0  0  0  0  0  0
   33.8048   26.7124   50.9891 H   0  0  0  0  0  0  0  0  0  0  0  0
  2  1  2  0
  3  2  1  0
  4  3  2  0
  4  5  1  0
  5  6  2  0
  6  1  1  0
  7  5  1  0
  7 13  1  0
  8  7  1  0
  9  8  2  0
  9 10  1  0
 10 12  1  0
 11 10  2  0
 12 13  1  0
 13 14  2  0
  1 15  1  0
  2 16  1  0
  3 17  1  0
  8 18  1  0
  9 19  1  0
 20 21  1  0
 21 22  1  6
 21 23  1  0
 23 24  1  6
 23 25  1  0
 25 26  1  0
 26 27  1  1
 26 20  1  0
 20 28  1  1
 21 29  1  0
 23 30  1  0
 26 31  1  0
 12 20  1  0
M  ISO  8  15  14  16  14  17  14  18  14  19  14  22  15  24  15  27  15
M  END
>  <DihAtoms>  (1) 
9,11,19,20

>  <DihDeg>  (1) 
32.52636928725143

$$$$
