
     RDKit          3D

 35 37  0  0  1  0  0  0  0  0999 V2000
   36.3650   29.8520   49.3090 N   0  0  0  0  0  0  0  0  0  0  0  0
   36.8960   31.1680   49.1870 C   0  0  1  0  0  0  0  0  0  0  0  0
   37.5440   31.4290   50.5360 C   0  0  0  0  0  0  0  0  0  0  0  0
   37.2650   30.1490   51.3530 C   0  0  0  0  0  0  0  0  0  0  0  0
   37.1970   29.1460   50.2480 C   0  0  0  0  0  0  0  0  0  0  0  0
   35.2210   29.3440   48.6310 C   0  0  0  0  0  0  0  0  0  0  0  0
   34.5830   30.1800   47.7020 C   0  0  0  0  0  0  0  0  0  0  0  0
   33.4580   29.7080   47.0180 C   0  0  0  0  0  0  0  0  0  0  0  0
   33.0520   28.4320   47.3140 N   0  0  0  0  0  0  0  0  0  0  0  0
   33.6910   27.6510   48.2160 C   0  0  0  0  0  0  0  0  0  0  0  0
   34.8000   28.0990   48.8980 N   0  0  0  0  0  0  0  0  0  0  0  0
   37.7470   31.4280   48.0290 C   0  0  0  0  0  0  0  0  0  0  0  0
   38.1330   32.6080   47.9770 O   0  0  0  0  0  0  0  0  0  0  0  0
   38.2820   30.6520   46.8670 C   0  0  1  0  0  0  0  0  0  0  0  0
   37.5020   30.7160   45.6170 C   0  0  0  0  0  0  0  0  0  0  0  0
   38.5810   30.4510   44.5680 C   0  0  0  0  0  0  0  0  0  0  0  0
   39.7860   30.7350   45.1520 O   0  0  0  0  0  0  0  0  0  0  0  0
   39.5840   31.2600   46.3950 C   0  0  0  0  0  0  0  0  0  0  0  0
   36.0968   31.8889   48.9601 H   0  0  0  0  0  0  0  0  0  0  0  0
   38.6263   31.5899   50.4229 H   0  0  0  0  0  0  0  0  0  0  0  0
   37.1463   32.3314   51.0235 H   0  0  0  0  0  0  0  0  0  0  0  0
   38.0815   29.9273   52.0560 H   0  0  0  0  0  0  0  0  0  0  0  0
   36.3721   30.1937   51.9939 H   0  0  0  0  0  0  0  0  0  0  0  0
   36.7299   28.2068   50.5793 H   0  0  0  0  0  0  0  0  0  0  0  0
   38.1737   28.8317   49.8514 H   0  0  0  0  0  0  0  0  0  0  0  0
   34.9633   31.1949   47.5138 H   0  0  0  0  0  0  0  0  0  0  0  0
   32.9266   30.3280   46.2810 H   0  0  0  0  0  0  0  0  0  0  0  0
   33.3157   26.6351   48.4086 H   0  0  0  0  0  0  0  0  0  0  0  0
   38.3092   29.6300   47.2730 H   0  0  0  0  0  0  0  0  0  0  0  0
   36.7195   29.9433   45.5921 H   0  0  0  0  0  0  0  0  0  0  0  0
   36.9621   31.6637   45.4743 H   0  0  0  0  0  0  0  0  0  0  0  0
   38.4237   31.0982   43.6926 H   0  0  0  0  0  0  0  0  0  0  0  0
   38.5474   29.4061   44.2259 H   0  0  0  0  0  0  0  0  0  0  0  0
   40.4073   30.9840   47.0702 H   0  0  0  0  0  0  0  0  0  0  0  0
   39.5462   32.3592   46.3792 H   0  0  0  0  0  0  0  0  0  0  0  0
  1  5  1  0
  2  1  1  0
  2  3  1  0
  3  4  1  0
  5  4  1  0
  6 11  1  0
  6  1  1  0
  7  6  2  0
  8  9  2  0
  8  7  1  0
  9 10  1  0
 10 11  2  0
 12  2  1  0
 13 12  2  0
 14 12  1  0
 15 14  1  0
 16 17  1  0
 16 15  1  0
 17 18  1  0
 18 14  1  0
  2 19  1  6
  3 20  1  0
  3 21  1  0
  4 22  1  0
  4 23  1  0
  5 24  1  0
  5 25  1  0
  7 26  1  0
  8 27  1  0
 10 28  1  0
 14 29  1  1
 15 30  1  0
 15 31  1  0
 16 32  1  0
 16 33  1  0
 18 34  1  0
 18 35  1  0
M  ISO  8  19  13  20  13  21  13  22  13  23  13  24  13  25  13  26  14
M  ISO  8  27  14  28  14  29  13  30  13  31  13  32  13  33  13  34  13
M  ISO  1  35  13
M  END
>  <minimizedAffinity>  (1) 
-5.29998636

>  <minimizedRMSD>  (1) 
1.53715003

$$$$
