
     RDKit          3D

 35 37  0  0  0  0  0  0  0  0999 V2000
   36.5361   29.7752   49.1901 N   0  0  0  0  0  0  0  0  0  0  0  0
   37.2988   30.8934   48.7455 C   0  0  1  0  0  0  0  0  0  0  0  0
   37.9990   31.3840   50.0007 C   0  0  0  0  0  0  0  0  0  0  0  0
   37.4970   30.4408   51.1158 C   0  0  0  0  0  0  0  0  0  0  0  0
   37.2341   29.2094   50.3149 C   0  0  0  0  0  0  0  0  0  0  0  0
   35.3113   29.3189   48.6268 C   0  0  0  0  0  0  0  0  0  0  0  0
   34.7197   30.0994   47.6206 C   0  0  0  0  0  0  0  0  0  0  0  0
   33.5171   29.6756   47.0468 C   0  0  0  0  0  0  0  0  0  0  0  0
   32.9922   28.5007   47.5213 N   0  0  0  0  0  0  0  0  0  0  0  0
   33.5884   27.7717   48.4935 C   0  0  0  0  0  0  0  0  0  0  0  0
   34.7719   28.1737   49.0692 N   0  0  0  0  0  0  0  0  0  0  0  0
   38.1708   30.6749   47.5927 C   0  0  0  0  0  0  0  0  0  0  0  0
   38.9707   31.6093   47.4191 O   0  0  0  0  0  0  0  0  0  0  0  0
   36.6187   31.7651   48.4720 H   0  0  0  0  0  0  0  0  0  0  0  0
   39.0767   31.1667   49.8508 H   0  0  0  0  0  0  0  0  0  0  0  0
   37.8238   32.4351   50.2355 H   0  0  0  0  0  0  0  0  0  0  0  0
   38.3480   30.2902   51.7962 H   0  0  0  0  0  0  0  0  0  0  0  0
   36.5909   30.8497   51.6009 H   0  0  0  0  0  0  0  0  0  0  0  0
   38.1730   28.7128   50.0551 H   0  0  0  0  0  0  0  0  0  0  0  0
   36.5828   28.4951   50.8728 H   0  0  0  0  0  0  0  0  0  0  0  0
   35.1309   31.0197   47.2491 H   0  0  0  0  0  0  0  0  0  0  0  0
   33.0593   30.2588   46.2833 H   0  0  0  0  0  0  0  0  0  0  0  0
   33.0943   26.8604   48.7979 H   0  0  0  0  0  0  0  0  0  0  0  0
   38.3606   29.6217   46.5470 C   0  0  1  0  0  0  0  0  0  0  0  0
   37.9459   28.2526   46.9093 C   0  0  1  0  0  0  0  0  0  0  0  0
   38.7491   27.6118   47.3199 H   0  0  0  0  0  0  0  0  0  0  0  0
   37.6299   27.6558   45.5385 C   0  0  1  0  0  0  0  0  0  0  0  0
   38.5150   27.0997   45.1368 H   0  0  0  0  0  0  0  0  0  0  0  0
   37.4107   28.7036   44.6866 O   0  0  0  0  0  0  0  0  0  0  0  0
   37.4314   29.8776   45.3818 C   0  0  2  0  0  0  0  0  0  0  0  0
   37.8234   30.7385   44.7992 H   0  0  0  0  0  0  0  0  0  0  0  0
   39.3865   29.6824   46.1088 H   0  0  0  0  0  0  0  0  0  0  0  0
   37.0497   28.2875   47.5338 H   0  0  0  0  0  0  0  0  0  0  0  0
   36.7867   26.9475   45.5795 H   0  0  0  0  0  0  0  0  0  0  0  0
   36.4318   30.0687   45.8002 H   0  0  0  0  0  0  0  0  0  0  0  0
  1  5  1  0
  2  1  1  0
  2  3  1  0
  3  4  1  0
  5  4  1  0
  6 11  1  0
  6  1  1  0
  7  6  2  0
  8  9  2  0
  8  7  1  0
  9 10  1  0
 10 11  2  0
 12  2  1  0
 13 12  2  0
  2 14  1  6
  3 15  1  0
  3 16  1  0
  4 17  1  0
  4 18  1  0
  5 19  1  0
  5 20  1  0
  7 21  1  0
  8 22  1  0
 10 23  1  0
 24 25  1  0
 25 26  1  1
 25 27  1  0
 27 28  1  6
 27 29  1  0
 29 30  1  0
 30 31  1  6
 30 24  1  0
 24 32  1  6
 25 33  1  0
 27 34  1  0
 30 35  1  0
 12 24  1  0
M  ISO  8  14  13  15  13  16  13  17  13  18  13  19  13  20  13  21  14
M  ISO  5  22  14  23  14  26  15  28  15  31  15
M  END
>  <DihAtoms>  (1) 
1,11,23,24

>  <DihDeg>  (1) 
64.16666834272593

$$$$
