
     RDKit          3D

 32 34  0  0  1  0  0  0  0  0999 V2000
   35.9630   29.0950   49.1920 C   0  0  0  0  0  0  0  0  0  0  0  0
   35.7690   30.3090   48.4930 C   0  0  0  0  0  0  0  0  0  0  0  0
   34.6430   30.4200   47.7060 C   0  0  0  0  0  0  0  0  0  0  0  0
   33.7750   29.3660   47.6360 N   0  0  0  0  0  0  0  0  0  0  0  0
   33.9790   28.2340   48.3040 C   0  0  0  0  0  0  0  0  0  0  0  0
   35.0770   28.0820   49.0910 N   0  0  0  0  0  0  0  0  0  0  0  0
   36.7510   31.3230   48.6550 N   0  0  0  0  0  0  0  0  0  0  0  0
   36.9100   32.0010   49.7910 C   0  0  0  0  0  0  0  0  0  0  0  0
   37.9070   32.9870   49.8630 C   0  0  0  0  0  0  0  0  0  0  0  0
   38.6420   33.1680   48.7280 C   0  0  0  0  0  0  0  0  0  0  0  0
   39.5370   34.0680   48.8210 O   0  0  0  0  0  0  0  0  0  0  0  0
   38.5010   32.5060   47.5870 N   0  0  0  0  0  0  0  0  0  0  0  0
   37.5300   31.5640   47.5570 C   0  0  0  0  0  0  0  0  0  0  0  0
   37.3970   30.9270   46.4550 O   0  0  0  0  0  0  0  0  0  0  0  0
   33.0910   27.1720   48.2270 O   0  0  0  0  0  0  0  0  0  0  0  0
   33.3970   25.9360   47.6170 C   0  0  2  0  0  0  0  0  0  0  0  0
   33.7500   26.1710   46.1840 C   0  0  0  0  0  0  0  0  0  0  0  0
   32.6720   25.3560   45.4610 C   0  0  0  0  0  0  0  0  0  0  0  0
   32.3100   24.3680   46.4020 O   0  0  0  0  0  0  0  0  0  0  0  0
   32.1280   25.1380   47.5410 C   0  0  0  0  0  0  0  0  0  0  0  0
   36.8515   28.9743   49.8291 H   0  0  0  0  0  0  0  0  0  0  0  0
   34.4455   31.3436   47.1421 H   0  0  0  0  0  0  0  0  0  0  0  0
   36.2692   31.7912   50.6601 H   0  0  0  0  0  0  0  0  0  0  0  0
   38.0840   33.5754   50.7754 H   0  0  0  0  0  0  0  0  0  0  0  0
   39.0974   32.6983   46.7695 H   0  0  0  0  0  0  0  0  0  0  0  0
   34.2043   25.4463   48.1814 H   0  0  0  0  0  0  0  0  0  0  0  0
   33.6868   27.2383   45.9252 H   0  0  0  0  0  0  0  0  0  0  0  0
   34.7787   25.8808   45.9241 H   0  0  0  0  0  0  0  0  0  0  0  0
   31.8090   25.9880   45.2045 H   0  0  0  0  0  0  0  0  0  0  0  0
   33.0264   24.9295   44.5110 H   0  0  0  0  0  0  0  0  0  0  0  0
   31.2529   25.7963   47.4372 H   0  0  0  0  0  0  0  0  0  0  0  0
   31.9390   24.5382   48.4435 H   0  0  0  0  0  0  0  0  0  0  0  0
  2  7  1  0
  2  1  2  0
  3  2  1  0
  4  3  2  0
  4  5  1  0
  5  6  2  0
  6  1  1  0
  7  8  1  0
  8  9  2  0
 10 11  2  0
 10  9  1  0
 12 10  1  0
 13 12  1  0
 13  7  1  0
 14 13  2  0
 15  5  1  0
 16 15  1  0
 17 16  1  0
 18 17  1  0
 18 19  1  0
 19 20  1  0
 20 16  1  0
  1 21  1  0
  3 22  1  0
  8 23  1  0
  9 24  1  0
 12 25  1  0
 16 26  1  1
 17 27  1  0
 17 28  1  0
 18 29  1  0
 18 30  1  0
 20 31  1  0
 20 32  1  0
M  ISO  8  21  14  22  14  23  14  24  14  25   9  26  13  27  13  28  13
M  ISO  4  29  13  30  13  31  13  32  13
M  END
>  <minimizedAffinity>  (1) 
-4.96239042

>  <minimizedRMSD>  (1) 
1.32952678

$$$$
