
     RDKit          3D

 44 47  0  0  1  0  0  0  0  0999 V2000
   36.7240   32.2970   49.2930 O   0  0  0  0  0  0  0  0  0  0  0  0
   38.2480   32.2650   47.3320 C   0  0  0  0  0  0  0  0  0  0  0  0
   37.8500   32.7070   48.5780 C   0  0  0  0  0  0  0  0  0  0  0  0
   38.5980   33.6600   49.2600 C   0  0  0  0  0  0  0  0  0  0  0  0
   39.7510   34.1650   48.6760 C   0  0  0  0  0  0  0  0  0  0  0  0
   40.1440   33.7190   47.4270 C   0  0  0  0  0  0  0  0  0  0  0  0
   39.3760   32.7750   46.7860 C   0  0  0  0  0  0  0  0  0  0  0  0
   39.8100   32.3070   45.4490 C   0  0  0  0  0  0  0  0  0  0  0  0
   40.6550   31.2770   45.1140 C   0  0  0  0  0  0  0  0  0  0  0  0
   40.7300   31.2560   43.7240 C   0  0  0  0  0  0  0  0  0  0  0  0
   39.9180   32.2810   43.2970 C   0  0  0  0  0  0  0  0  0  0  0  0
   39.3840   32.8910   44.3400 O   0  0  0  0  0  0  0  0  0  0  0  0
   36.7670   30.5000   46.1880 N   0  0  0  0  0  0  0  0  0  0  0  0
   37.4230   31.2890   46.7080 C   0  0  0  0  0  0  0  0  0  0  0  0
   36.6760   31.2010   50.0840 C   0  0  0  0  0  0  0  0  0  0  0  0
   35.5620   30.4130   49.8180 C   0  0  0  0  0  0  0  0  0  0  0  0
   35.3340   29.2400   50.5270 C   0  0  0  0  0  0  0  0  0  0  0  0
   36.2460   28.9020   51.4880 N   0  0  0  0  0  0  0  0  0  0  0  0
   37.3270   29.6900   51.7300 C   0  0  0  0  0  0  0  0  0  0  0  0
   37.5250   30.8090   51.0370 N   0  0  0  0  0  0  0  0  0  0  0  0
   34.1780   29.6380   47.9580 C   0  0  0  0  0  0  0  0  0  0  0  0
   34.5960   28.4340   47.7530 O   0  0  0  0  0  0  0  0  0  0  0  0
   34.5730   30.6570   48.8660 N   0  0  0  0  0  0  0  0  0  0  0  0
   33.0520   29.8970   46.9840 C   0  0  1  0  0  0  0  0  0  0  0  0
   33.5350   30.0740   45.5850 C   0  0  0  0  0  0  0  0  0  0  0  0
   32.2940   29.6960   44.8100 C   0  0  0  0  0  0  0  0  0  0  0  0
   31.6110   28.7560   45.5660 O   0  0  0  0  0  0  0  0  0  0  0  0
   32.1630   28.6920   46.8270 C   0  0  0  0  0  0  0  0  0  0  0  0
   38.2790   34.0102   50.2527 H   0  0  0  0  0  0  0  0  0  0  0  0
   40.3517   34.9191   49.2056 H   0  0  0  0  0  0  0  0  0  0  0  0
   41.0558   34.1128   46.9542 H   0  0  0  0  0  0  0  0  0  0  0  0
   41.1723   30.5998   45.8095 H   0  0  0  0  0  0  0  0  0  0  0  0
   41.3152   30.5654   43.0990 H   0  0  0  0  0  0  0  0  0  0  0  0
   39.7402   32.5518   42.2458 H   0  0  0  0  0  0  0  0  0  0  0  0
   34.4560   28.6093   50.3236 H   0  0  0  0  0  0  0  0  0  0  0  0
   38.0474   29.3991   52.5087 H   0  0  0  0  0  0  0  0  0  0  0  0
   34.1251   31.5834   48.8206 H   0  0  0  0  0  0  0  0  0  0  0  0
   32.5534   30.7854   47.3989 H   0  0  0  0  0  0  0  0  0  0  0  0
   33.8346   31.1139   45.3882 H   0  0  0  0  0  0  0  0  0  0  0  0
   34.4283   29.4840   45.3324 H   0  0  0  0  0  0  0  0  0  0  0  0
   32.5734   29.2664   43.8367 H   0  0  0  0  0  0  0  0  0  0  0  0
   31.6655   30.5791   44.6229 H   0  0  0  0  0  0  0  0  0  0  0  0
   31.3686   28.7078   47.5877 H   0  0  0  0  0  0  0  0  0  0  0  0
   32.7375   27.7628   46.9557 H   0  0  0  0  0  0  0  0  0  0  0  0
  1 15  1  0
  2  3  2  0
  3  4  1  0
  3  1  1  0
  5  4  2  0
  6  5  1  0
  7  2  1  0
  7  6  2  0
  8  7  1  0
  9  8  2  0
 10  9  1  0
 11 10  2  0
 11 12  1  0
 12  8  1  0
 13 14  3  0
 14  2  1  0
 15 20  2  0
 16 15  1  0
 16 17  2  0
 17 18  1  0
 18 19  2  0
 20 19  1  0
 21 23  1  0
 22 21  2  0
 23 16  1  0
 24 21  1  0
 25 24  1  0
 26 27  1  0
 26 25  1  0
 27 28  1  0
 28 24  1  0
  4 29  1  0
  5 30  1  0
  6 31  1  0
  9 32  1  0
 10 33  1  0
 11 34  1  0
 17 35  1  0
 19 36  1  0
 23 37  1  0
 24 38  1  1
 25 39  1  0
 25 40  1  0
 26 41  1  0
 26 42  1  0
 28 43  1  0
 28 44  1  0
M  ISO  8  29  14  30  14  31  14  32  14  33  14  34  14  35  14  36  14
M  ISO  7  38  13  39  13  40  13  41  13  42  13  43  13  44  13
M  END
>  <minimizedAffinity>  (1) 
-5.87735701

>  <minimizedRMSD>  (1) 
0.174237907

$$$$
