
     RDKit          3D

 36 39  0  0  0  0  0  0  0  0999 V2000
   37.1260   30.8401   46.5923 C   0  0  0  0  0  0  0  0  0  0  0  0
   37.7772   31.2231   47.7586 C   0  0  0  0  0  0  0  0  0  0  0  0
   38.8212   32.1222   47.7034 C   0  0  0  0  0  0  0  0  0  0  0  0
   39.1921   32.6210   46.4732 C   0  0  0  0  0  0  0  0  0  0  0  0
   40.1757   33.5058   46.1692 N   0  0  0  0  0  0  0  0  0  0  0  0
   40.1529   33.6833   44.8407 C   0  0  0  0  0  0  0  0  0  0  0  0
   39.1879   32.9413   44.2897 N   0  0  0  0  0  0  0  0  0  0  0  0
   38.5688   32.2654   45.2842 C   0  0  0  0  0  0  0  0  0  0  0  0
   37.5140   31.3554   45.3493 C   0  0  0  0  0  0  0  0  0  0  0  0
   37.3729   30.2038   51.3583 C   0  0  0  0  0  0  0  0  0  0  0  0
   37.9239   30.8193   50.2349 C   0  0  0  0  0  0  0  0  0  0  0  0
   37.2984   30.6330   48.9943 C   0  0  0  0  0  0  0  0  0  0  0  0
   36.1685   29.8517   48.9366 N   0  0  0  0  0  0  0  0  0  0  0  0
   35.6754   29.2789   50.0501 C   0  0  0  0  0  0  0  0  0  0  0  0
   36.2679   29.4521   51.2410 N   0  0  0  0  0  0  0  0  0  0  0  0
   34.4740   28.4651   49.9142 C   0  0  0  0  0  0  0  0  0  0  0  0
   34.3284   27.6564   48.9719 O   0  0  0  0  0  0  0  0  0  0  0  0
   36.2953   30.1367   46.5550 H   0  0  0  0  0  0  0  0  0  0  0  0
   39.3242   32.4202   48.5892 H   0  0  0  0  0  0  0  0  0  0  0  0
   40.8272   33.9589   46.8630 H   0  0  0  0  0  0  0  0  0  0  0  0
   40.8270   34.3384   44.3038 H   0  0  0  0  0  0  0  0  0  0  0  0
   37.0156   31.0654   44.4368 H   0  0  0  0  0  0  0  0  0  0  0  0
   37.8260   30.3239   52.3301 H   0  0  0  0  0  0  0  0  0  0  0  0
   38.7969   31.4217   50.2850 H   0  0  0  0  0  0  0  0  0  0  0  0
   33.4683   28.6962   50.9897 C   0  0  1  0  0  0  0  0  0  0  0  0
   33.1861   27.4175   51.7714 C   0  0  2  0  0  0  0  0  0  0  0  0
   34.1086   26.9389   52.1456 H   0  0  0  0  0  0  0  0  0  0  0  0
   32.5689   28.0734   53.0150 C   0  0  1  0  0  0  0  0  0  0  0  0
   31.5447   28.4075   52.7657 H   0  0  0  0  0  0  0  0  0  0  0  0
   33.3444   29.1942   53.2625 O   0  0  0  0  0  0  0  0  0  0  0  0
   34.0054   29.5431   52.1079 C   0  0  2  0  0  0  0  0  0  0  0  0
   33.9010   30.6024   51.8468 H   0  0  0  0  0  0  0  0  0  0  0  0
   32.5149   29.0897   50.6393 H   0  0  0  0  0  0  0  0  0  0  0  0
   32.4781   26.7567   51.2664 H   0  0  0  0  0  0  0  0  0  0  0  0
   32.5165   27.3733   53.8469 H   0  0  0  0  0  0  0  0  0  0  0  0
   35.0840   29.3109   52.2902 H   0  0  0  0  0  0  0  0  0  0  0  0
  1  2  2  0
  2 12  1  0
  3  2  1  0
  4  3  2  0
  5  4  1  0
  6  5  1  0
  7  6  2  0
  7  8  1  0
  8  9  2  0
  8  4  1  0
  9  1  1  0
 11 10  2  0
 12 11  1  0
 13 12  2  0
 13 14  1  0
 14 15  2  0
 15 10  1  0
 16 14  1  0
 17 16  2  0
  1 18  1  0
  3 19  1  0
  5 20  1  0
  6 21  1  0
  9 22  1  0
 10 23  1  0
 11 24  1  0
 25 26  1  0
 26 27  1  1
 26 28  1  0
 28 29  1  6
 28 30  1  0
 30 31  1  0
 31 32  1  6
 31 25  1  0
 25 33  1  6
 26 34  1  0
 28 35  1  0
 31 36  1  0
 16 25  1  0
M  ISO  8  18  14  19  14  20   9  21  14  22  14  23  14  24  14  27  15
M  ISO  2  29  15  32  15
M  END
>  <DihAtoms>  (1) 
13,15,24,25

>  <DihDeg>  (1) 
-179.9996123018923

$$$$
