
     RDKit          3D

 35 37  0  0  0  0  0  0  0  0999 V2000
   37.4710   31.4329   49.3840 C   0  0  0  0  0  0  0  0  0  0  0  0
   37.8683   32.7181   49.7033 C   0  0  0  0  0  0  0  0  0  0  0  0
   38.6866   33.3338   48.7610 C   0  0  0  0  0  0  0  0  0  0  0  0
   39.0398   32.6655   47.6177 N   0  0  0  0  0  0  0  0  0  0  0  0
   38.6254   31.4058   47.3481 C   0  0  0  0  0  0  0  0  0  0  0  0
   37.8237   30.7831   48.2574 N   0  0  0  0  0  0  0  0  0  0  0  0
   36.5590   30.7378   50.3571 C   0  0  0  0  0  0  0  0  0  0  0  0
   36.4653   29.3199   50.4629 C   0  0  0  0  0  0  0  0  0  0  0  0
   37.3372   30.0340   51.4893 C   0  0  0  0  0  0  0  0  0  0  0  0
   38.9909   30.6969   46.1293 C   0  0  0  0  0  0  0  0  0  0  0  0
   41.0534   31.5620   45.0126 C   0  0  0  0  0  0  0  0  0  0  0  0
   40.4207   32.2848   44.1676 O   0  0  0  0  0  0  0  0  0  0  0  0
   40.4376   30.7643   46.0088 N   0  0  0  0  0  0  0  0  0  0  0  0
   37.5990   33.2446   50.5878 H   0  0  0  0  0  0  0  0  0  0  0  0
   39.0802   34.3412   48.8684 H   0  0  0  0  0  0  0  0  0  0  0  0
   35.7429   31.4063   50.6891 H   0  0  0  0  0  0  0  0  0  0  0  0
   37.0336   28.6081   49.8308 H   0  0  0  0  0  0  0  0  0  0  0  0
   35.5054   28.8898   50.8379 H   0  0  0  0  0  0  0  0  0  0  0  0
   36.8916   30.2091   52.4875 H   0  0  0  0  0  0  0  0  0  0  0  0
   38.4303   29.9677   51.4040 H   0  0  0  0  0  0  0  0  0  0  0  0
   38.5120   31.2493   45.2758 H   0  0  0  0  0  0  0  0  0  0  0  0
   38.7048   29.6506   46.1725 H   0  0  0  0  0  0  0  0  0  0  0  0
   40.9894   30.2042   46.6827 H   0  0  0  0  0  0  0  0  0  0  0  0
   42.5518   31.5373   44.9699 C   0  0  2  0  0  0  0  0  0  0  0  0
   43.1396   30.6351   46.0345 C   0  0  2  0  0  0  0  0  0  0  0  0
   43.1758   29.5835   45.7509 H   0  0  0  0  0  0  0  0  0  0  0  0
   44.5365   31.2631   46.1038 C   0  0  2  0  0  0  0  0  0  0  0  0
   45.0671   30.9135   45.1715 H   0  0  0  0  0  0  0  0  0  0  0  0
   44.3557   32.6233   45.9639 O   0  0  0  0  0  0  0  0  0  0  0  0
   43.0846   32.8771   45.4939 C   0  0  2  0  0  0  0  0  0  0  0  0
   42.4587   33.1001   46.4059 H   0  0  0  0  0  0  0  0  0  0  0  0
   42.9633   31.3796   43.9741 H   0  0  0  0  0  0  0  0  0  0  0  0
   42.6559   30.8702   46.9854 H   0  0  0  0  0  0  0  0  0  0  0  0
   45.0751   30.9451   46.9979 H   0  0  0  0  0  0  0  0  0  0  0  0
   43.0009   33.6476   44.7285 H   0  0  0  0  0  0  0  0  0  0  0  0
  1  2  2  0
  1  7  1  0
  3  2  1  0
  4  3  2  0
  5  4  1  0
  5  6  2  0
  6  1  1  0
  7  8  1  0
  7  9  1  0
  8  9  1  0
 10  5  1  0
 11 13  1  0
 12 11  2  0
 13 10  1  0
  2 14  1  0
  3 15  1  0
  7 16  1  0
  8 17  1  0
  8 18  1  0
  9 19  1  0
  9 20  1  0
 10 21  1  0
 10 22  1  0
 13 23  1  0
 24 25  1  0
 25 26  1  6
 25 27  1  0
 27 28  1  6
 27 29  1  0
 29 30  1  0
 30 31  1  1
 30 24  1  0
 24 32  1  6
 25 33  1  0
 27 34  1  0
 30 35  1  0
 11 24  1  0
M  ISO  8  14  14  15  14  16  13  17  13  18  13  19  13  20  13  21   8
M  ISO  4  22   8  26  15  28  15  31  15
M  END
>  <DihAtoms>  (1) 
12,10,23,24

>  <DihDeg>  (1) 
-60.002406804349015

$$$$
