
     RDKit          3D

 51 54  0  0  1  0  0  0  0  0999 V2000
   37.2580   31.8320   48.3170 C   0  0  0  0  0  0  0  0  0  0  0  0
   37.5370   32.6090   49.4280 C   0  0  0  0  0  0  0  0  0  0  0  0
   38.6630   33.3980   49.3600 C   0  0  0  0  0  0  0  0  0  0  0  0
   39.4330   33.3760   48.2280 N   0  0  0  0  0  0  0  0  0  0  0  0
   39.1480   32.6130   47.1510 C   0  0  0  0  0  0  0  0  0  0  0  0
   38.0380   31.8290   47.2050 N   0  0  0  0  0  0  0  0  0  0  0  0
   39.9720   32.6250   45.9910 N   0  0  0  0  0  0  0  0  0  0  0  0
   36.0100   30.9670   48.3630 C   0  0  1  0  0  0  0  0  0  0  0  0
   35.6720   30.0960   47.2950 C   0  0  0  0  0  0  0  0  0  0  0  0
   36.3260   29.5140   48.5090 C   0  0  2  0  0  0  0  0  0  0  0  0
   35.8730   28.7330   50.8020 C   0  0  2  0  0  0  0  0  0  0  0  0
   35.4860   28.6430   49.3990 C   0  0  1  0  0  0  0  0  0  0  0  0
   34.0900   29.0500   49.3670 C   0  0  0  0  0  0  0  0  0  0  0  0
   33.8310   29.8610   50.4880 O   0  0  0  0  0  0  0  0  0  0  0  0
   34.4370   29.1410   51.4520 C   0  0  0  0  0  0  0  0  0  0  0  0
   36.5720   29.8960   51.0890 O   0  0  0  0  0  0  0  0  0  0  0  0
   37.4720   29.8930   52.0030 C   0  0  0  0  0  0  0  0  0  0  0  0
   40.4060   31.1830   45.1780 S   0  0  0  0  0  0  0  0  0  0  0  0
   39.5590   30.0160   45.5780 O   0  0  0  0  0  0  0  0  0  0  0  0
   41.8260   30.8470   45.5340 O   0  0  0  0  0  0  0  0  0  0  0  0
   40.3600   31.3740   43.5130 O   0  0  0  0  0  0  0  0  0  0  0  0
   39.3660   32.2340   43.1020 C   0  0  2  0  0  0  0  0  0  0  0  0
   38.0470   31.4740   43.2930 C   0  0  0  0  0  0  0  0  0  0  0  0
   37.8430   30.9190   41.8850 C   0  0  0  0  0  0  0  0  0  0  0  0
   38.1490   32.0470   41.1220 O   0  0  0  0  0  0  0  0  0  0  0  0
   39.4350   32.3680   41.6030 C   0  0  0  0  0  0  0  0  0  0  0  0
   36.8923   32.5967   50.3192 H   0  0  0  0  0  0  0  0  0  0  0  0
   38.9418   34.0408   50.2080 H   0  0  0  0  0  0  0  0  0  0  0  0
   40.3167   33.5263   45.6308 H   0  0  0  0  0  0  0  0  0  0  0  0
   35.4117   31.7325   48.8788 H   0  0  0  0  0  0  0  0  0  0  0  0
   34.6152   29.8743   47.0854 H   0  0  0  0  0  0  0  0  0  0  0  0
   35.8960   30.0776   46.2182 H   0  0  0  0  0  0  0  0  0  0  0  0
   37.2280   28.9303   48.7452 H   0  0  0  0  0  0  0  0  0  0  0  0
   36.4331   27.8385   51.1120 H   0  0  0  0  0  0  0  0  0  0  0  0
   35.6356   27.6234   49.0143 H   0  0  0  0  0  0  0  0  0  0  0  0
   33.8907   29.6171   48.4458 H   0  0  0  0  0  0  0  0  0  0  0  0
   33.4401   28.1627   49.3879 H   0  0  0  0  0  0  0  0  0  0  0  0
   33.8499   28.2433   51.6959 H   0  0  0  0  0  0  0  0  0  0  0  0
   34.5440   29.7015   52.3924 H   0  0  0  0  0  0  0  0  0  0  0  0
   36.9903   29.8946   52.9919 H   0  0  0  0  0  0  0  0  0  0  0  0
   38.0958   28.9928   51.9004 H   0  0  0  0  0  0  0  0  0  0  0  0
   38.1017   30.7891   51.9004 H   0  0  0  0  0  0  0  0  0  0  0  0
   39.5188   29.9606   46.5656 H   0  0  0  0  0  0  0  0  0  0  0  0
   41.9227   30.8241   46.5190 H   0  0  0  0  0  0  0  0  0  0  0  0
   39.4517   33.1929   43.6341 H   0  0  0  0  0  0  0  0  0  0  0  0
   38.1452   30.6696   44.0369 H   0  0  0  0  0  0  0  0  0  0  0  0
   37.2146   32.0858   43.6710 H   0  0  0  0  0  0  0  0  0  0  0  0
   38.5298   30.0863   41.6729 H   0  0  0  0  0  0  0  0  0  0  0  0
   36.8450   30.4956   41.6986 H   0  0  0  0  0  0  0  0  0  0  0  0
   40.1811   31.6723   41.1915 H   0  0  0  0  0  0  0  0  0  0  0  0
   39.7341   33.3834   41.3037 H   0  0  0  0  0  0  0  0  0  0  0  0
  1  8  1  0
  1  2  2  0
  3  2  1  0
  4  3  2  0
  5  6  2  0
  5  4  1  0
  6  1  1  0
  7  5  1  0
  8 10  1  0
  9  8  1  0
  9 10  1  0
 10 12  1  0
 11 16  1  0
 11 15  1  0
 12 11  1  0
 13 12  1  0
 13 14  1  0
 14 15  1  0
 16 17  1  0
 18 20  1  0
 18 19  1  0
 18  7  1  0
 21 18  1  0
 22 23  1  0
 22 21  1  0
 24 23  1  0
 25 26  1  0
 25 24  1  0
 26 22  1  0
  2 27  1  0
  3 28  1  0
  7 29  1  0
  8 30  1  1
  9 31  1  0
  9 32  1  0
 10 33  1  6
 11 34  1  1
 12 35  1  6
 13 36  1  0
 13 37  1  0
 15 38  1  0
 15 39  1  0
 17 40  1  0
 17 41  1  0
 17 42  1  0
 19 43  1  0
 20 44  1  0
 22 45  1  1
 23 46  1  0
 23 47  1  0
 24 48  1  0
 24 49  1  0
 26 50  1  0
 26 51  1  0
M  ISO  8  27  14  28  14  30  13  31  13  32  13  33  13  34  13  35  13
M  ISO  8  36  13  37  13  38  13  39  13  40   8  41   8  42   8  43   3
M  ISO  8  44   3  45  13  46  13  47  13  48  13  49  13  50  13  51  13
M  END
>  <minimizedAffinity>  (1) 
-5.66875029

>  <minimizedRMSD>  (1) 
3.33023882

$$$$
