
     RDKit          3D

 31 33  0  0  1  0  0  0  0  0999 V2000
   39.2380   31.1340   46.2010 C   0  0  0  0  0  0  0  0  0  0  0  0
   40.4380   31.5700   45.6810 C   0  0  0  0  0  0  0  0  0  0  0  0
   40.6720   30.9730   44.4470 C   0  0  0  0  0  0  0  0  0  0  0  0
   39.5710   30.1730   44.2610 N   0  0  0  0  0  0  0  0  0  0  0  0
   38.7500   30.2770   45.2860 N   0  0  0  0  0  0  0  0  0  0  0  0
   38.6360   31.5200   47.4650 C   0  0  0  0  0  0  0  0  0  0  0  0
   37.7680   30.6070   48.0980 C   0  0  0  0  0  0  0  0  0  0  0  0
   37.1860   30.9840   49.3220 C   0  0  0  0  0  0  0  0  0  0  0  0
   37.5000   32.2120   49.8190 N   0  0  0  0  0  0  0  0  0  0  0  0
   38.3300   33.0650   49.1980 C   0  0  0  0  0  0  0  0  0  0  0  0
   38.8920   32.7040   48.0180 N   0  0  0  0  0  0  0  0  0  0  0  0
   36.2740   30.0430   50.0030 C   0  0  0  0  0  0  0  0  0  0  0  0
   36.6290   30.0720   51.3440 F   0  0  0  0  0  0  0  0  0  0  0  0
   34.9440   30.4120   49.8930 F   0  0  0  0  0  0  0  0  0  0  0  0
   36.4390   28.7350   49.5490 F   0  0  0  0  0  0  0  0  0  0  0  0
   39.3890   29.3590   43.1030 C   0  0  1  0  0  0  0  0  0  0  0  0
   38.5520   30.0000   42.0160 C   0  0  0  0  0  0  0  0  0  0  0  0
   39.1420   29.2740   40.7980 C   0  0  0  0  0  0  0  0  0  0  0  0
   40.5040   29.4390   41.0590 O   0  0  0  0  0  0  0  0  0  0  0  0
   40.6760   29.0640   42.3730 C   0  0  0  0  0  0  0  0  0  0  0  0
   41.1131   32.2868   46.1714 H   0  0  0  0  0  0  0  0  0  0  0  0
   41.5346   31.1092   43.7782 H   0  0  0  0  0  0  0  0  0  0  0  0
   37.5519   29.6271   47.6473 H   0  0  0  0  0  0  0  0  0  0  0  0
   38.5519   34.0467   49.6419 H   0  0  0  0  0  0  0  0  0  0  0  0
   38.9118   28.4686   43.5383 H   0  0  0  0  0  0  0  0  0  0  0  0
   37.4799   29.7888   42.1425 H   0  0  0  0  0  0  0  0  0  0  0  0
   38.5901   31.0986   41.9758 H   0  0  0  0  0  0  0  0  0  0  0  0
   38.8457   29.7531   39.8532 H   0  0  0  0  0  0  0  0  0  0  0  0
   38.8151   28.2309   40.6750 H   0  0  0  0  0  0  0  0  0  0  0  0
   40.9017   27.9889   42.4299 H   0  0  0  0  0  0  0  0  0  0  0  0
   41.5128   29.6158   42.8262 H   0  0  0  0  0  0  0  0  0  0  0  0
  1  6  1  0
  2  1  1  0
  3  2  2  0
  4  3  1  0
  4  5  1  0
  5  1  2  0
  6 11  1  0
  6  7  2  0
  7  8  1  0
  8  9  2  0
  8 12  1  0
 10  9  1  0
 11 10  2  0
 12 13  1  0
 14 12  1  0
 15 12  1  0
 16  4  1  0
 17 16  1  0
 18 19  1  0
 18 17  1  0
 19 20  1  0
 20 16  1  0
  2 21  1  0
  3 22  1  0
  7 23  1  0
 10 24  1  0
 16 25  1  1
 17 26  1  0
 17 27  1  0
 18 28  1  0
 18 29  1  0
 20 30  1  0
 20 31  1  0
M  ISO  8  21  14  22  14  23  14  24  14  25  13  26  13  27  13  28  13
M  ISO  3  29  13  30  13  31  13
M  END
>  <minimizedAffinity>  (1) 
-5.86794996

>  <minimizedRMSD>  (1) 
2.45420027

$$$$
