
     RDKit          3D

 33 35  0  0  0  0  0  0  0  0999 V2000
   38.8820   31.8879   47.7713 C   0  0  0  0  0  0  0  0  0  0  0  0
   38.3519   32.1207   49.0333 C   0  0  0  0  0  0  0  0  0  0  0  0
   38.6828   33.3619   49.5510 C   0  0  0  0  0  0  0  0  0  0  0  0
   39.4736   34.2881   48.8671 C   0  0  0  0  0  0  0  0  0  0  0  0
   39.9560   33.9482   47.5979 C   0  0  0  0  0  0  0  0  0  0  0  0
   39.6531   32.7245   47.0417 C   0  0  0  0  0  0  0  0  0  0  0  0
   36.1991   31.0030   49.3633 C   0  0  0  0  0  0  0  0  0  0  0  0
   37.5459   31.1904   49.7422 C   0  0  0  0  0  0  0  0  0  0  0  0
   38.0167   30.4376   50.8100 C   0  0  0  0  0  0  0  0  0  0  0  0
   37.1875   29.5678   51.4389 N   0  0  0  0  0  0  0  0  0  0  0  0
   35.8908   29.4137   51.0438 C   0  0  0  0  0  0  0  0  0  0  0  0
   35.4021   30.1312   50.0086 N   0  0  0  0  0  0  0  0  0  0  0  0
   38.6079   30.6524   47.1475 O   0  0  0  0  0  0  0  0  0  0  0  0
   40.1495   32.4276   45.7855 O   0  0  0  0  0  0  0  0  0  0  0  0
   38.3450   33.6844   50.5179 H   0  0  0  0  0  0  0  0  0  0  0  0
   39.7174   35.2499   49.2930 H   0  0  0  0  0  0  0  0  0  0  0  0
   40.5696   34.6641   47.0648 H   0  0  0  0  0  0  0  0  0  0  0  0
   35.7641   31.5511   48.5452 H   0  0  0  0  0  0  0  0  0  0  0  0
   35.3161   28.6896   51.6182 H   0  0  0  0  0  0  0  0  0  0  0  0
   39.2718   30.2031   46.5181 H   0  0  0  0  0  0  0  0  0  0  0  0
   39.5623   32.3386   44.9616 H   0  0  0  0  0  0  0  0  0  0  0  0
   39.4140   30.5770   51.2668 C   0  0  1  0  0  0  0  0  0  0  0  0
   40.3841   30.6164   50.1250 C   0  0  2  0  0  0  0  0  0  0  0  0
   39.9540   30.2817   49.1604 H   0  0  0  0  0  0  0  0  0  0  0  0
   40.8120   32.0521   50.0377 C   0  0  2  0  0  0  0  0  0  0  0  0
   40.7394   32.4148   48.9881 H   0  0  0  0  0  0  0  0  0  0  0  0
   39.9560   32.7781   50.8616 O   0  0  0  0  0  0  0  0  0  0  0  0
   39.5633   31.9506   51.8817 C   0  0  1  0  0  0  0  0  0  0  0  0
   38.5780   32.3194   52.2665 H   0  0  0  0  0  0  0  0  0  0  0  0
   39.6833   29.7881   51.9972 H   0  0  0  0  0  0  0  0  0  0  0  0
   41.2850   29.9975   50.3041 H   0  0  0  0  0  0  0  0  0  0  0  0
   41.8410   32.2156   50.4171 H   0  0  0  0  0  0  0  0  0  0  0  0
   40.2538   31.9008   52.7402 H   0  0  0  0  0  0  0  0  0  0  0  0
  1  2  2  0
  2  3  1  0
  2  8  1  0
  4  3  2  0
  5  4  1  0
  6  5  2  0
  6  1  1  0
  7  8  2  0
  7 12  1  0
  8  9  1  0
  9 10  2  0
 11 10  1  0
 12 11  2  0
 13  1  1  0
 14  6  1  0
  3 15  1  0
  4 16  1  0
  5 17  1  0
  7 18  1  0
 11 19  1  0
 13 20  1  0
 14 21  1  0
 22 23  1  0
 23 24  1  6
 23 25  1  0
 25 26  1  6
 25 27  1  0
 27 28  1  0
 28 29  1  1
 28 22  1  0
 22 30  1  1
 23 31  1  0
 25 32  1  0
 28 33  1  0
  9 22  1  0
M  ISO  8  15  14  16  14  17  14  18  14  19  14  20   3  21   3  24  15
M  ISO  2  26  15  29  15
M  END
>  <DihAtoms>  (1) 
7,8,21,22

>  <DihDeg>  (1) 
90.95569836485367

$$$$
