
     RDKit          3D

 27 28  0  0  0  0  0  0  0  0999 V2000
   37.3403   30.1659   51.3543 C   0  0  0  0  0  0  0  0  0  0  0  0
   37.9918   30.5094   50.1719 C   0  0  0  0  0  0  0  0  0  0  0  0
   37.4258   30.1448   48.9543 C   0  0  0  0  0  0  0  0  0  0  0  0
   36.2374   29.4557   48.9872 N   0  0  0  0  0  0  0  0  0  0  0  0
   35.6401   29.1434   50.1606 C   0  0  0  0  0  0  0  0  0  0  0  0
   36.1790   29.4906   51.3265 N   0  0  0  0  0  0  0  0  0  0  0  0
   37.8687   30.3648   47.6912 O   0  0  0  0  0  0  0  0  0  0  0  0
   39.0587   32.7302   48.1434 O   0  0  0  0  0  0  0  0  0  0  0  0
   38.6990   31.7173   47.1030 P   0  0  2  0  0  0  0  0  0  0  0  0
   37.8238   32.4734   45.8595 O   0  0  0  0  0  0  0  0  0  0  0  0
   40.1552   31.1765   46.4012 O   0  0  0  0  0  0  0  0  0  0  0  0
   37.9111   30.5224   52.2060 H   0  0  0  0  0  0  0  0  0  0  0  0
   38.9235   31.0473   50.0670 H   0  0  0  0  0  0  0  0  0  0  0  0
   34.7039   28.6010   50.2063 H   0  0  0  0  0  0  0  0  0  0  0  0
   37.3734   33.2732   46.2762 H   0  0  0  0  0  0  0  0  0  0  0  0
   39.8716   30.7679   45.1113 C   0  0  1  0  0  0  0  0  0  0  0  0
   40.8853   31.1540   44.0879 C   0  0  2  0  0  0  0  0  0  0  0  0
   41.8483   31.5322   44.5362 H   0  0  0  0  0  0  0  0  0  0  0  0
   41.1297   29.8475   43.3436 C   0  0  2  0  0  0  0  0  0  0  0  0
   41.9967   29.2883   43.7380 H   0  0  0  0  0  0  0  0  0  0  0  0
   39.9735   29.0935   43.5913 O   0  0  0  0  0  0  0  0  0  0  0  0
   39.8079   29.2628   44.9831 C   0  0  2  0  0  0  0  0  0  0  0  0
   38.7993   28.8536   45.2472 H   0  0  0  0  0  0  0  0  0  0  0  0
   38.8633   31.1515   44.8030 H   0  0  0  0  0  0  0  0  0  0  0  0
   40.4711   31.8684   43.3471 H   0  0  0  0  0  0  0  0  0  0  0  0
   41.2740   30.0300   42.2701 H   0  0  0  0  0  0  0  0  0  0  0  0
   40.6048   28.7369   45.5506 H   0  0  0  0  0  0  0  0  0  0  0  0
  2  1  2  0
  3  4  2  0
  3  2  1  0
  4  5  1  0
  5  6  2  0
  6  1  1  0
  7  3  1  0
  9  7  1  1
  9  8  2  0
 10  9  1  0
 11  9  1  0
  1 12  1  0
  2 13  1  0
  5 14  1  0
 10 15  1  0
 16 17  1  0
 17 18  1  1
 17 19  1  0
 19 20  1  1
 19 21  1  0
 21 22  1  0
 22 23  1  1
 22 16  1  0
 16 24  1  6
 17 25  1  0
 19 26  1  0
 22 27  1  0
 11 16  1  0
M  ISO  7  12  14  13  14  14  14  15   3  18  15  20  15  23  15
M  END
>  <DihAtoms>  (1) 
8,10,15,16

>  <DihDeg>  (1) 
124.13550478921418

$$$$
