
     RDKit          3D

 37 39  0  0  0  0  0  0  0  0999 V2000
   39.4500   32.4771   47.0952 O   0  0  0  0  0  0  0  0  0  0  0  0
   38.3136   31.8148   46.4026 P   0  0  2  0  0  0  0  0  0  0  0  0
   37.7225   32.8401   45.1724 O   0  0  0  0  0  0  0  0  0  0  0  0
   37.0273   31.3906   47.4253 O   0  0  0  0  0  0  0  0  0  0  0  0
   37.6111   30.5414   50.9765 C   0  0  0  0  0  0  0  0  0  0  0  0
   37.7070   31.3042   49.8093 C   0  0  0  0  0  0  0  0  0  0  0  0
   37.0699   30.8291   48.6536 C   0  0  0  0  0  0  0  0  0  0  0  0
   36.3910   29.6486   48.7303 N   0  0  0  0  0  0  0  0  0  0  0  0
   36.3247   28.9460   49.8770 C   0  0  0  0  0  0  0  0  0  0  0  0
   36.9310   29.3922   50.9885 N   0  0  0  0  0  0  0  0  0  0  0  0
   38.8592   30.4313   45.6160 O   0  0  0  0  0  0  0  0  0  0  0  0
   36.6305   29.4369   44.0420 Cl  0  0  0  0  0  0  0  0  0  0  0  0
   38.2598   29.8275   43.4833 C   0  0  0  0  0  0  0  0  0  0  0  0
   39.2723   30.3029   44.3194 C   0  0  0  0  0  0  0  0  0  0  0  0
   40.5139   30.5716   43.7470 C   0  0  0  0  0  0  0  0  0  0  0  0
   40.7096   30.3671   42.4017 C   0  0  0  0  0  0  0  0  0  0  0  0
   39.7361   29.9039   41.5667 C   0  0  0  0  0  0  0  0  0  0  0  0
   38.5105   29.6355   42.1162 C   0  0  0  0  0  0  0  0  0  0  0  0
   38.5055   33.1870   44.6592 H   0  0  0  0  0  0  0  0  0  0  0  0
   38.1257   30.9612   51.8404 H   0  0  0  0  0  0  0  0  0  0  0  0
   38.2245   32.2435   49.6748 H   0  0  0  0  0  0  0  0  0  0  0  0
   35.7918   28.0071   49.9607 H   0  0  0  0  0  0  0  0  0  0  0  0
   41.2206   30.9331   44.4815 H   0  0  0  0  0  0  0  0  0  0  0  0
   41.7170   30.6071   42.0482 H   0  0  0  0  0  0  0  0  0  0  0  0
   39.9806   29.7738   40.5235 H   0  0  0  0  0  0  0  0  0  0  0  0
   37.4371   29.1299   41.2221 C   0  0  2  0  0  0  0  0  0  0  0  0
   37.8115   27.8165   40.5518 C   0  0  1  0  0  0  0  0  0  0  0  0
   38.7581   27.3925   40.9117 H   0  0  0  0  0  0  0  0  0  0  0  0
   37.8690   28.2246   39.0958 C   0  0  1  0  0  0  0  0  0  0  0  0
   38.6935   27.6941   38.5546 H   0  0  0  0  0  0  0  0  0  0  0  0
   38.0796   29.6012   39.1003 O   0  0  0  0  0  0  0  0  0  0  0  0
   37.1797   30.0320   40.0709 C   0  0  1  0  0  0  0  0  0  0  0  0
   36.1674   29.7502   39.6630 H   0  0  0  0  0  0  0  0  0  0  0  0
   36.5126   29.0162   41.8308 H   0  0  0  0  0  0  0  0  0  0  0  0
   36.9386   27.1210   40.6564 H   0  0  0  0  0  0  0  0  0  0  0  0
   36.9122   28.0348   38.5813 H   0  0  0  0  0  0  0  0  0  0  0  0
   37.2423   31.1096   40.2985 H   0  0  0  0  0  0  0  0  0  0  0  0
  2  1  2  0
  2  4  1  1
  3  2  1  0
  4  7  1  0
  5 10  2  0
  6  5  1  0
  7  8  1  0
  7  6  2  0
  8  9  2  0
  9 10  1  0
 11  2  1  0
 13 12  1  0
 13 14  2  0
 14 11  1  0
 15 14  1  0
 16 15  2  0
 17 18  2  0
 17 16  1  0
 18 13  1  0
  3 19  1  0
  5 20  1  0
  6 21  1  0
  9 22  1  0
 15 23  1  0
 16 24  1  0
 17 25  1  0
 26 27  1  0
 27 28  1  1
 27 29  1  0
 29 30  1  6
 29 31  1  0
 31 32  1  0
 32 33  1  6
 32 26  1  0
 26 34  1  1
 27 35  1  0
 29 36  1  0
 32 37  1  0
 18 26  1  0
M  ISO  8  19   3  20  14  21  14  22  14  23  14  24  14  25  14  28  15
M  ISO  2  30  15  33  15
M  END
>  <DihAtoms>  (1) 
16,17,25,26

>  <DihDeg>  (1) 
90.00048992224217

$$$$
