
     RDKit          3D

 47 50  0  0  0  0  0  0  0  0999 V2000
   34.8238   28.3637   49.4228 C   0  0  0  0  0  0  0  0  0  0  0  0
   33.5930   28.3065   48.5593 C   0  0  0  0  0  0  0  0  0  0  0  0
   33.6892   28.6857   47.1684 C   0  0  0  0  0  0  0  0  0  0  0  0
   32.0139   28.4411   46.6417 S   0  0  0  0  0  0  0  0  0  0  0  0
   31.3970   27.8701   48.3200 C   0  0  0  0  0  0  0  0  0  0  0  0
   32.4159   27.9376   48.9564 N   0  0  0  0  0  0  0  0  0  0  0  0
   30.0789   27.4574   48.7633 N   0  0  0  0  0  0  0  0  0  0  0  0
   29.2290   26.8825   47.7831 C   0  0  0  0  0  0  0  0  0  0  0  0
   27.7907   26.8086   48.1713 C   0  0  0  0  0  0  0  0  0  0  0  0
   27.4863   27.5541   49.3783 N   0  0  0  0  0  0  0  0  0  0  0  0
   28.3835   27.0171   50.3974 C   0  0  0  0  0  0  0  0  0  0  0  0
   29.7211   27.6556   50.1562 C   0  0  0  0  0  0  0  0  0  0  0  0
   34.9610   29.6511   50.1223 C   0  0  0  0  0  0  0  0  0  0  0  0
   37.5010   32.3122   49.5390 C   0  0  0  0  0  0  0  0  0  0  0  0
   38.2867   31.7620   48.5156 C   0  0  0  0  0  0  0  0  0  0  0  0
   37.9282   30.4911   48.0485 C   0  0  0  0  0  0  0  0  0  0  0  0
   36.8542   29.8639   48.6008 N   0  0  0  0  0  0  0  0  0  0  0  0
   36.1295   30.4388   49.5861 C   0  0  0  0  0  0  0  0  0  0  0  0
   36.4581   31.6368   50.0346 N   0  0  0  0  0  0  0  0  0  0  0  0
   35.7259   28.1551   48.8081 H   0  0  0  0  0  0  0  0  0  0  0  0
   34.7805   27.5186   50.1524 H   0  0  0  0  0  0  0  0  0  0  0  0
   34.5462   29.0095   46.6641 H   0  0  0  0  0  0  0  0  0  0  0  0
   29.2716   27.5669   46.8851 H   0  0  0  0  0  0  0  0  0  0  0  0
   29.5795   25.9061   47.3775 H   0  0  0  0  0  0  0  0  0  0  0  0
   27.1030   27.1034   47.3312 H   0  0  0  0  0  0  0  0  0  0  0  0
   27.5395   25.7519   48.4055 H   0  0  0  0  0  0  0  0  0  0  0  0
   27.7599   28.5461   49.1975 H   0  0  0  0  0  0  0  0  0  0  0  0
   28.4340   25.9119   50.3563 H   0  0  0  0  0  0  0  0  0  0  0  0
   27.9823   27.3735   51.3736 H   0  0  0  0  0  0  0  0  0  0  0  0
   29.6574   28.7276   50.4218 H   0  0  0  0  0  0  0  0  0  0  0  0
   30.4756   27.1529   50.7952 H   0  0  0  0  0  0  0  0  0  0  0  0
   34.0437   30.2735   49.9342 H   0  0  0  0  0  0  0  0  0  0  0  0
   35.0485   29.4916   51.2162 H   0  0  0  0  0  0  0  0  0  0  0  0
   37.7828   33.2966   49.8972 H   0  0  0  0  0  0  0  0  0  0  0  0
   39.1251   32.2563   48.0874 H   0  0  0  0  0  0  0  0  0  0  0  0
   38.6758   29.7906   46.9662 C   0  0  0  0  0  0  0  0  0  0  0  0
   40.1534   29.7834   47.1895 C   0  0  0  0  0  0  0  0  0  0  0  0
   40.5684   28.7744   46.9485 H   0  0  0  0  0  0  0  0  0  0  0  0
   40.7107   30.8390   46.2412 C   0  0  0  0  0  0  0  0  0  0  0  0
   41.2433   30.3664   45.3958 H   0  0  0  0  0  0  0  0  0  0  0  0
   39.6070   31.5042   45.7366 O   0  0  0  0  0  0  0  0  0  0  0  0
   38.5574   30.6184   45.6821 C   0  0  0  0  0  0  0  0  0  0  0  0
   37.5900   31.1969   45.7410 H   0  0  0  0  0  0  0  0  0  0  0  0
   38.2383   28.7961   46.7375 H   0  0  0  0  0  0  0  0  0  0  0  0
   40.4482   29.9801   48.2453 H   0  0  0  0  0  0  0  0  0  0  0  0
   41.3278   31.5792   46.7842 H   0  0  0  0  0  0  0  0  0  0  0  0
   38.5637   29.9679   44.7776 H   0  0  0  0  0  0  0  0  0  0  0  0
  1 13  1  0
  2  6  1  0
  2  1  1  0
  3  2  2  0
  4  3  1  0
  4  5  1  0
  5  7  1  0
  5  6  2  0
  7 12  1  0
  8  9  1  0
  8  7  1  0
  9 10  1  0
 10 11  1  0
 12 11  1  0
 14 19  2  0
 15 14  1  0
 16 15  2  0
 16 17  1  0
 17 18  2  0
 18 19  1  0
 18 13  1  0
  1 20  1  0
  1 21  1  0
  3 22  1  0
  8 23  1  0
  8 24  1  0
  9 25  1  0
  9 26  1  0
 10 27  1  0
 11 28  1  0
 11 29  1  0
 12 30  1  0
 12 31  1  0
 13 32  1  0
 13 33  1  0
 14 34  1  0
 15 35  1  0
 36 37  1  0
 37 38  1  0
 37 39  1  0
 39 40  1  0
 39 41  1  0
 41 42  1  0
 42 43  1  0
 42 36  1  0
 36 44  1  0
 37 45  1  0
 39 46  1  0
 42 47  1  0
 16 36  1  0
M  ISO  8  20   8  21   8  22  14  23  13  24  13  25  13  26  13  27   5
M  ISO  8  28  13  29  13  30  13  31  13  32   8  33   8  34  14  35  14
M  ISO  3  38  15  40  15  43  15
M  END
>  <DihAtoms>  (1) 
14,15,35,36

>  <DihDeg>  (1) 
48.93081620695061

$$$$
