
     RDKit          3D

 48 52  0  0  1  0  0  0  0  0999 V2000
   37.5580   30.6860   50.7180 C   0  0  0  0  0  0  0  0  0  0  0  0
   38.3030   31.3630   49.7740 C   0  0  0  0  0  0  0  0  0  0  0  0
   37.9450   31.3960   48.4200 C   0  0  0  0  0  0  0  0  0  0  0  0
   36.8600   30.7570   48.0730 N   0  0  0  0  0  0  0  0  0  0  0  0
   36.1300   30.0870   49.0220 C   0  0  0  0  0  0  0  0  0  0  0  0
   36.4690   30.0530   50.3060 N   0  0  0  0  0  0  0  0  0  0  0  0
   34.9100   29.3720   48.6560 C   0  0  0  0  0  0  0  0  0  0  0  0
   34.1220   28.4980   49.3550 C   0  0  0  0  0  0  0  0  0  0  0  0
   33.0230   27.9570   48.8020 C   0  0  0  0  0  0  0  0  0  0  0  0
   32.7580   28.3560   47.4780 C   0  0  0  0  0  0  0  0  0  0  0  0
   34.1170   29.5060   47.0780 S   0  0  0  0  0  0  0  0  0  0  0  0
   31.6900   28.0150   46.5220 C   0  0  2  0  0  0  0  0  0  0  0  0
   30.8130   29.2000   46.1820 C   0  0  0  0  0  0  0  0  0  0  0  0
   29.6420   29.0730   47.1000 C   0  0  0  0  0  0  0  0  0  0  0  0
   29.7880   27.9160   47.8460 O   0  0  0  0  0  0  0  0  0  0  0  0
   30.7200   27.1070   47.2200 C   0  0  0  0  0  0  0  0  0  0  0  0
   38.8810   32.0630   47.5580 C   0  0  1  0  0  0  0  0  0  0  0  0
   38.9970   31.5300   46.1460 C   0  0  2  0  0  0  0  0  0  0  0  0
   40.4610   31.1420   45.9440 C   0  0  0  0  0  0  0  0  0  0  0  0
   39.7950   32.2250   45.1670 C   0  0  1  0  0  0  0  0  0  0  0  0
   39.7740   31.9770   43.7190 C   0  0  0  0  0  0  0  0  0  0  0  0
   39.0920   32.8680   42.9330 C   0  0  0  0  0  0  0  0  0  0  0  0
   39.1100   32.6280   41.5790 C   0  0  0  0  0  0  0  0  0  0  0  0
   39.7600   31.5680   41.0000 C   0  0  0  0  0  0  0  0  0  0  0  0
   40.4320   30.6970   41.8220 C   0  0  0  0  0  0  0  0  0  0  0  0
   40.4310   30.9080   43.1530 N   0  0  0  0  0  0  0  0  0  0  0  0
   39.1180   33.3460   47.6560 O   0  0  0  0  0  0  0  0  0  0  0  0
   37.8578   30.6722   51.7763 H   0  0  0  0  0  0  0  0  0  0  0  0
   39.2100   31.8955   50.0961 H   0  0  0  0  0  0  0  0  0  0  0  0
   34.3930   28.2337   50.3878 H   0  0  0  0  0  0  0  0  0  0  0  0
   32.3763   27.2523   49.3453 H   0  0  0  0  0  0  0  0  0  0  0  0
   32.1912   27.6052   45.6327 H   0  0  0  0  0  0  0  0  0  0  0  0
   31.3479   30.1442   46.3622 H   0  0  0  0  0  0  0  0  0  0  0  0
   30.5156   29.2105   45.1230 H   0  0  0  0  0  0  0  0  0  0  0  0
   29.6012   29.9437   47.7710 H   0  0  0  0  0  0  0  0  0  0  0  0
   28.7106   29.0284   46.5164 H   0  0  0  0  0  0  0  0  0  0  0  0
   30.2222   26.4525   46.4893 H   0  0  0  0  0  0  0  0  0  0  0  0
   31.2370   26.4662   47.9495 H   0  0  0  0  0  0  0  0  0  0  0  0
   39.7498   31.7006   48.1271 H   0  0  0  0  0  0  0  0  0  0  0  0
   37.9803   31.1189   46.0599 H   0  0  0  0  0  0  0  0  0  0  0  0
   41.2134   31.3855   46.7086 H   0  0  0  0  0  0  0  0  0  0  0  0
   41.0138   30.2204   45.7096 H   0  0  0  0  0  0  0  0  0  0  0  0
   39.8900   33.3078   44.9980 H   0  0  0  0  0  0  0  0  0  0  0  0
   38.5586   33.7292   43.3619 H   0  0  0  0  0  0  0  0  0  0  0  0
   38.5717   33.3269   40.9220 H   0  0  0  0  0  0  0  0  0  0  0  0
   39.7435   31.4200   39.9101 H   0  0  0  0  0  0  0  0  0  0  0  0
   40.9666   29.8344   41.3976 H   0  0  0  0  0  0  0  0  0  0  0  0
   39.1651   33.6008   48.6115 H   0  0  0  0  0  0  0  0  0  0  0  0
  2  1  2  0
  3  2  1  0
  4  3  2  0
  4  5  1  0
  5  6  2  0
  6  1  1  0
  7  5  1  0
  7  8  2  0
  9  8  1  0
 10  9  2  0
 11 10  1  0
 11  7  1  0
 12 16  1  0
 12 10  1  0
 13 12  1  0
 13 14  1  0
 14 15  1  0
 16 15  1  0
 17 27  1  0
 17  3  1  0
 18 17  1  0
 19 18  1  0
 20 19  1  0
 20 18  1  0
 21 20  1  0
 22 21  2  0
 23 22  1  0
 24 23  2  0
 24 25  1  0
 25 26  2  0
 26 21  1  0
  1 28  1  0
  2 29  1  0
  8 30  1  0
  9 31  1  0
 12 32  1  6
 13 33  1  0
 13 34  1  0
 14 35  1  0
 14 36  1  0
 16 37  1  0
 16 38  1  0
 17 39  1  1
 18 40  1  6
 19 41  1  0
 19 42  1  0
 20 43  1  6
 22 44  1  0
 23 45  1  0
 24 46  1  0
 25 47  1  0
 27 48  1  0
M  ISO  8  28  14  29  14  30  14  31  14  32  13  33  13  34  13  35  13
M  ISO  8  36  13  37  13  38  13  39   8  40  13  41  13  42  13  43  13
M  ISO  5  44  14  45  14  46  14  47  14  48   3
M  END
>  <minimizedAffinity>  (1) 
-6.71969557

>  <minimizedRMSD>  (1) 
0.677388668

$$$$
