
     RDKit          3D

 40 42  0  0  0  0  0  0  0  0999 V2000
   38.1723   31.2407   44.9328 C   0  0  0  0  0  0  0  0  0  0  0  0
   37.3458   30.9470   45.9715 C   0  0  0  0  0  0  0  0  0  0  0  0
   36.1089   30.3583   45.7255 C   0  0  0  0  0  0  0  0  0  0  0  0
   35.6655   30.0522   44.4602 C   0  0  0  0  0  0  0  0  0  0  0  0
   36.4697   30.3367   43.3840 C   0  0  0  0  0  0  0  0  0  0  0  0
   37.6842   30.9163   43.6567 C   0  0  0  0  0  0  0  0  0  0  0  0
   38.6880   32.7780   48.8600 C   0  0  0  0  0  0  0  0  0  0  0  0
   38.3140   32.4453   47.5676 C   0  0  0  0  0  0  0  0  0  0  0  0
   37.7026   31.2586   47.3140 C   0  0  0  0  0  0  0  0  0  0  0  0
   37.4780   30.4359   48.3753 N   0  0  0  0  0  0  0  0  0  0  0  0
   37.8325   30.7523   49.6250 C   0  0  0  0  0  0  0  0  0  0  0  0
   38.4368   31.9195   49.8586 N   0  0  0  0  0  0  0  0  0  0  0  0
   37.4636   29.7863   50.6952 C   0  0  0  0  0  0  0  0  0  0  0  0
   37.7126   30.2941   51.9564 F   0  0  0  0  0  0  0  0  0  0  0  0
   36.0252   29.6356   50.7040 F   0  0  0  0  0  0  0  0  0  0  0  0
   37.9040   28.5539   50.5696 F   0  0  0  0  0  0  0  0  0  0  0  0
   39.7246   31.9249   45.0913 S   0  0  0  0  0  0  0  0  0  0  0  0
   39.6783   33.4119   44.8777 O   0  0  0  0  0  0  0  0  0  0  0  0
   40.2762   31.5862   43.7334 O   0  0  0  0  0  0  0  0  0  0  0  0
   41.1132   31.2243   45.7502 C   0  0  0  0  0  0  0  0  0  0  0  0
   35.4665   30.1332   46.5953 H   0  0  0  0  0  0  0  0  0  0  0  0
   34.6984   29.5995   44.3895 H   0  0  0  0  0  0  0  0  0  0  0  0
   36.0796   30.0824   42.4321 H   0  0  0  0  0  0  0  0  0  0  0  0
   38.2233   31.0942   42.7163 H   0  0  0  0  0  0  0  0  0  0  0  0
   39.1760   33.6594   49.2333 H   0  0  0  0  0  0  0  0  0  0  0  0
   38.5892   33.2960   46.9930 H   0  0  0  0  0  0  0  0  0  0  0  0
   41.9275   31.9093   46.0378 H   0  0  0  0  0  0  0  0  0  0  0  0
   40.7898   30.8857   46.7992 H   0  0  0  0  0  0  0  0  0  0  0  0
   41.5757   29.9561   45.1320 C   0  0  1  0  0  0  0  0  0  0  0  0
   40.5694   29.0619   44.5159 C   0  0  2  0  0  0  0  0  0  0  0  0
   39.7431   29.5962   44.0205 H   0  0  0  0  0  0  0  0  0  0  0  0
   41.4112   28.3534   43.4384 C   0  0  2  0  0  0  0  0  0  0  0  0
   40.8105   28.1393   42.5320 H   0  0  0  0  0  0  0  0  0  0  0  0
   42.4650   29.1577   43.1244 O   0  0  0  0  0  0  0  0  0  0  0  0
   42.4364   30.2836   43.8918 C   0  0  1  0  0  0  0  0  0  0  0  0
   41.8614   31.1017   43.3898 H   0  0  0  0  0  0  0  0  0  0  0  0
   42.1949   29.3892   45.8689 H   0  0  0  0  0  0  0  0  0  0  0  0
   40.2066   28.2252   45.1837 H   0  0  0  0  0  0  0  0  0  0  0  0
   41.8238   27.4188   43.8680 H   0  0  0  0  0  0  0  0  0  0  0  0
   43.4068   30.6810   44.2073 H   0  0  0  0  0  0  0  0  0  0  0  0
  1 17  1  0
  1  2  1  0
  2  9  1  0
  3  2  2  0
  4  3  1  0
  5  6  1  0
  5  4  2  0
  6  1  2  0
  7 12  2  0
  8  7  1  0
  9  8  2  0
  9 10  1  0
 10 11  2  0
 11 12  1  0
 11 13  1  0
 13 15  1  0
 13 14  1  0
 16 13  1  0
 17 20  1  0
 18 17  2  0
 19 17  2  0
  3 21  1  0
  4 22  1  0
  5 23  1  0
  6 24  1  0
  7 25  1  0
  8 26  1  0
 20 27  1  0
 20 28  1  0
 29 30  1  0
 30 31  1  6
 30 32  1  0
 32 33  1  6
 32 34  1  0
 34 35  1  0
 35 36  1  6
 35 29  1  0
 29 37  1  1
 30 38  1  0
 32 39  1  0
 35 40  1  0
 20 29  1  0
M  ISO  8  21  14  22  14  23  14  24  14  25  14  26  14  27   8  28   8
M  ISO  3  31  15  33  15  36  15
M  END
>  <DihAtoms>  (1) 
16,19,28,29

>  <DihDeg>  (1) 
60.61059910993147

$$$$
