
     RDKit          3D

 39 41  0  0  0  0  0  0  0  0999 V2000
   37.1339   30.9654   49.0138 C   0  0  0  0  0  0  0  0  0  0  0  0
   36.9222   31.9283   50.0042 C   0  0  0  0  0  0  0  0  0  0  0  0
   37.5573   33.1522   49.9898 C   0  0  0  0  0  0  0  0  0  0  0  0
   38.4469   33.4572   48.9566 C   0  0  0  0  0  0  0  0  0  0  0  0
   38.6438   32.5057   47.9954 C   0  0  0  0  0  0  0  0  0  0  0  0
   37.9965   31.2872   48.0311 C   0  0  0  0  0  0  0  0  0  0  0  0
   36.4150   29.7055   49.1179 C   0  0  0  0  0  0  0  0  0  0  0  0
   36.9371   28.8665   49.9502 O   0  0  0  0  0  0  0  0  0  0  0  0
   33.6292   30.1835   46.8489 C   0  0  0  0  0  0  0  0  0  0  0  0
   32.9637   28.9577   46.8733 C   0  0  0  0  0  0  0  0  0  0  0  0
   33.4716   27.9492   47.6804 C   0  0  0  0  0  0  0  0  0  0  0  0
   34.6013   28.1902   48.4204 N   0  0  0  0  0  0  0  0  0  0  0  0
   35.2013   29.3662   48.3684 C   0  0  0  0  0  0  0  0  0  0  0  0
   34.7133   30.3539   47.5853 N   0  0  0  0  0  0  0  0  0  0  0  0
   38.3162   30.3874   46.9465 C   0  0  0  0  0  0  0  0  0  0  0  0
   38.8132   30.6981   45.7653 C   0  0  0  0  0  0  0  0  0  0  0  0
   39.1965   29.9027   44.5987 C   0  0  0  0  0  0  0  0  0  0  0  0
   36.2392   31.7673   50.8486 H   0  0  0  0  0  0  0  0  0  0  0  0
   37.3746   33.8831   50.7715 H   0  0  0  0  0  0  0  0  0  0  0  0
   38.9236   34.4153   48.9732 H   0  0  0  0  0  0  0  0  0  0  0  0
   39.3452   32.8192   47.2324 H   0  0  0  0  0  0  0  0  0  0  0  0
   33.1766   30.9154   46.2007 H   0  0  0  0  0  0  0  0  0  0  0  0
   32.0871   28.6478   46.3520 H   0  0  0  0  0  0  0  0  0  0  0  0
   33.0993   26.9429   47.8311 H   0  0  0  0  0  0  0  0  0  0  0  0
   38.1733   29.2936   46.9900 H   0  0  0  0  0  0  0  0  0  0  0  0
   39.0251   31.7534   45.5306 H   0  0  0  0  0  0  0  0  0  0  0  0
   40.2853   30.0252   44.4307 H   0  0  0  0  0  0  0  0  0  0  0  0
   38.7025   30.2651   43.6744 H   0  0  0  0  0  0  0  0  0  0  0  0
   37.4025   29.5753   46.9080 Cl  0  0  0  0  0  0  0  0  0  0  0  0
   38.1003   28.2897   45.9135 C   0  0  0  0  0  0  0  0  0  0  0  0
   38.9463   28.4545   44.8272 C   0  0  0  0  0  0  0  0  0  0  0  0
   39.4072   27.3499   44.1529 C   0  0  0  0  0  0  0  0  0  0  0  0
   40.0567   27.6224   43.3284 H   0  0  0  0  0  0  0  0  0  0  0  0
   39.0233   26.0937   44.5646 C   0  0  0  0  0  0  0  0  0  0  0  0
   39.4265   25.2842   43.9849 H   0  0  0  0  0  0  0  0  0  0  0  0
   38.1836   25.9069   45.6414 C   0  0  0  0  0  0  0  0  0  0  0  0
   37.9163   24.8958   45.9191 H   0  0  0  0  0  0  0  0  0  0  0  0
   37.7086   27.0200   46.3341 C   0  0  0  0  0  0  0  0  0  0  0  0
   36.6487   26.7047   47.6873 Cl  0  0  0  0  0  0  0  0  0  0  0  0
  1  7  1  0
  1  2  2  0
  3  2  1  0
  4  3  2  0
  5  6  2  0
  5  4  1  0
  6  1  1  0
  7  8  2  0
  9 10  2  0
  9 14  1  0
 10 11  1  0
 11 12  2  0
 13 12  1  0
 13  7  1  0
 14 13  2  0
 15  6  1  0
 16 15  2  0
 17 16  1  0
  2 18  1  0
  3 19  1  0
  4 20  1  0
  5 21  1  0
  9 22  1  0
 10 23  1  0
 11 24  1  0
 15 25  1  0
 16 26  1  0
 17 27  1  0
 17 28  1  0
 29 30  1  0
 30 31  2  0
 31 32  1  0
 32 33  1  0
 32 34  2  0
 34 35  1  0
 34 36  1  0
 36 37  1  0
 36 38  2  0
 38 39  1  0
 38 30  1  0
 17 31  1  0
M  ISO  8  18  14  19  14  20  14  21  14  22  14  23  14  24  14  27   8
M  ISO  4  28   8  33  15  35  15  37  15
M  END
>  <DihAtoms>  (1) 
15,16,30,29

>  <DihDeg>  (1) 
76.02345953334404

$$$$
