
     RDKit          3D

 44 46  0  0  0  0  0  0  0  0999 V2000
   36.8781   30.2901   49.3037 C   0  0  0  0  0  0  0  0  0  0  0  0
   37.8699   30.8741   48.5059 C   0  0  0  0  0  0  0  0  0  0  0  0
   37.5785   31.0315   47.1445 C   0  0  0  0  0  0  0  0  0  0  0  0
   36.3833   30.6202   46.6876 N   0  0  0  0  0  0  0  0  0  0  0  0
   35.4585   30.0634   47.4914 C   0  0  0  0  0  0  0  0  0  0  0  0
   35.6971   29.8993   48.7767 N   0  0  0  0  0  0  0  0  0  0  0  0
   38.5101   31.6070   46.2812 N   0  0  0  0  0  0  0  0  0  0  0  0
   39.5288   32.6304   46.6498 C   0  0  0  0  0  0  0  0  0  0  0  0
   40.1589   33.1289   45.4217 C   0  0  0  0  0  0  0  0  0  0  0  0
   39.1865   32.7353   44.3746 C   0  0  0  0  0  0  0  0  0  0  0  0
   38.7360   31.4094   44.8923 C   0  0  2  0  0  0  0  0  0  0  0  0
   37.5718   30.8642   44.1020 C   0  0  0  0  0  0  0  0  0  0  0  0
   36.4757   31.6550   44.4008 F   0  0  0  0  0  0  0  0  0  0  0  0
   37.2144   29.5770   44.3826 F   0  0  0  0  0  0  0  0  0  0  0  0
   37.8587   31.0859   42.7738 F   0  0  0  0  0  0  0  0  0  0  0  0
   39.7985   30.4287   44.7857 C   0  0  2  0  0  0  0  0  0  0  0  0
   40.8085   30.7011   45.8457 O   0  0  0  0  0  0  0  0  0  0  0  0
   40.4665   30.6471   43.7543 O   0  0  0  0  0  0  0  0  0  0  0  0
   41.0236   30.0376   42.6972 C   0  0  0  0  0  0  0  0  0  0  0  0
   40.7247   30.5331   41.6214 O   0  0  0  0  0  0  0  0  0  0  0  0
   41.8751   28.9867   42.2514 N   0  0  0  0  0  0  0  0  0  0  0  0
   37.1160   30.1716   50.3667 H   0  0  0  0  0  0  0  0  0  0  0  0
   38.8204   31.1921   48.9132 H   0  0  0  0  0  0  0  0  0  0  0  0
   34.5398   29.7723   47.0187 H   0  0  0  0  0  0  0  0  0  0  0  0
   40.1162   32.3744   47.5112 H   0  0  0  0  0  0  0  0  0  0  0  0
   38.8350   33.4479   47.0524 H   0  0  0  0  0  0  0  0  0  0  0  0
   41.2113   32.9055   45.2394 H   0  0  0  0  0  0  0  0  0  0  0  0
   40.1360   34.2621   45.4299 H   0  0  0  0  0  0  0  0  0  0  0  0
   38.3435   33.4419   44.2836 H   0  0  0  0  0  0  0  0  0  0  0  0
   39.6246   32.6587   43.3576 H   0  0  0  0  0  0  0  0  0  0  0  0
   39.4208   29.4384   45.1070 H   0  0  0  0  0  0  0  0  0  0  0  0
   42.8708   29.1386   41.9640 H   0  0  0  0  0  0  0  0  0  0  0  0
   41.6090   27.9810   42.1648 H   0  0  0  0  0  0  0  0  0  0  0  0
   43.6769   30.9423   46.5270 Cl  0  0  0  0  0  0  0  0  0  0  0  0
   42.4324   29.8867   47.1735 C   0  0  0  0  0  0  0  0  0  0  0  0
   41.0741   29.7800   46.8307 C   0  0  0  0  0  0  0  0  0  0  0  0
   40.3591   28.8297   47.5175 C   0  0  0  0  0  0  0  0  0  0  0  0
   39.3295   28.7831   47.2247 H   0  0  0  0  0  0  0  0  0  0  0  0
   40.8656   28.0017   48.4879 C   0  0  0  0  0  0  0  0  0  0  0  0
   40.1562   27.3133   48.9223 H   0  0  0  0  0  0  0  0  0  0  0  0
   42.1990   28.1091   48.8227 C   0  0  0  0  0  0  0  0  0  0  0  0
   42.5344   27.4376   49.5852 H   0  0  0  0  0  0  0  0  0  0  0  0
   42.9694   29.0530   48.1599 C   0  0  0  0  0  0  0  0  0  0  0  0
   44.6325   29.0550   48.7056 Cl  0  0  0  0  0  0  0  0  0  0  0  0
  2  1  2  0
  3  2  1  0
  4  3  2  0
  4  5  1  0
  5  6  2  0
  6  1  1  0
  7  8  1  0
  7  3  1  0
  9  8  1  0
 10 11  1  0
 10  9  1  0
 11 12  1  6
 11  7  1  0
 12 14  1  0
 12 13  1  0
 15 12  1  0
 16 11  1  0
 16 17  1  0
 18 16  1  0
 19 18  1  0
 20 19  2  0
 21 19  1  0
  1 22  1  0
  2 23  1  0
  5 24  1  0
  8 25  1  0
  8 26  1  0
  9 27  1  0
  9 28  1  0
 10 29  1  0
 10 30  1  0
 16 31  1  6
 21 32  1  0
 21 33  1  0
 34 35  1  0
 35 36  2  0
 36 37  1  0
 37 38  1  0
 37 39  2  0
 39 40  1  0
 39 41  1  0
 41 42  1  0
 41 43  2  0
 43 44  1  0
 43 35  1  0
 17 36  1  0
M  ISO  8  22  14  23  14  24  14  25  13  26  13  27  13  28  13  29  13
M  ISO  5  30  13  31   8  38  15  40  15  42  15
M  END
>  <DihAtoms>  (1) 
15,16,35,34

>  <DihDeg>  (1) 
177.06342133446307

$$$$
