
     RDKit          3D

 34 36  0  0  0  0  0  0  0  0999 V2000
   37.4653   31.4392   49.3842 C   0  0  0  0  0  0  0  0  0  0  0  0
   37.8677   32.7239   49.7025 C   0  0  0  0  0  0  0  0  0  0  0  0
   38.6818   33.3232   48.7561 C   0  0  0  0  0  0  0  0  0  0  0  0
   39.0354   32.6695   47.6170 N   0  0  0  0  0  0  0  0  0  0  0  0
   38.6180   31.4133   47.3466 C   0  0  0  0  0  0  0  0  0  0  0  0
   37.8178   30.7955   48.2553 N   0  0  0  0  0  0  0  0  0  0  0  0
   36.5554   30.7302   50.3565 C   0  0  0  0  0  0  0  0  0  0  0  0
   36.4873   29.3116   50.4640 C   0  0  0  0  0  0  0  0  0  0  0  0
   37.3448   30.0374   51.4909 C   0  0  0  0  0  0  0  0  0  0  0  0
   38.9787   30.6980   46.1287 C   0  0  0  0  0  0  0  0  0  0  0  0
   41.0593   31.5416   45.0103 C   0  0  0  0  0  0  0  0  0  0  0  0
   40.4426   32.2974   44.1841 O   0  0  0  0  0  0  0  0  0  0  0  0
   40.4249   30.7580   46.0028 N   0  0  0  0  0  0  0  0  0  0  0  0
   37.5426   33.1740   50.6287 H   0  0  0  0  0  0  0  0  0  0  0  0
   39.0179   34.3340   48.9734 H   0  0  0  0  0  0  0  0  0  0  0  0
   35.7298   31.3850   50.7077 H   0  0  0  0  0  0  0  0  0  0  0  0
   37.1072   28.7057   49.7433 H   0  0  0  0  0  0  0  0  0  0  0  0
   35.5905   28.8181   50.8321 H   0  0  0  0  0  0  0  0  0  0  0  0
   38.4297   29.9919   51.4161 H   0  0  0  0  0  0  0  0  0  0  0  0
   36.9413   30.1532   52.5020 H   0  0  0  0  0  0  0  0  0  0  0  0
   38.4794   31.0920   45.2132 H   0  0  0  0  0  0  0  0  0  0  0  0
   38.7232   29.6397   46.1955 H   0  0  0  0  0  0  0  0  0  0  0  0
   41.0138   30.2097   46.6602 H   0  0  0  0  0  0  0  0  0  0  0  0
   42.4132   29.5586   43.1223 Cl  0  0  0  0  0  0  0  0  0  0  0  0
   43.2888   30.7897   43.9929 C   0  0  0  0  0  0  0  0  0  0  0  0
   42.5052   31.5913   44.7974 C   0  0  0  0  0  0  0  0  0  0  0  0
   43.1449   32.6022   45.5262 C   0  0  0  0  0  0  0  0  0  0  0  0
   42.5981   33.2863   46.1914 H   0  0  0  0  0  0  0  0  0  0  0  0
   44.4854   32.8356   45.4851 C   0  0  0  0  0  0  0  0  0  0  0  0
   44.9731   33.6151   46.0480 H   0  0  0  0  0  0  0  0  0  0  0  0
   45.2548   32.0141   44.6664 C   0  0  0  0  0  0  0  0  0  0  0  0
   46.3235   32.1646   44.6040 H   0  0  0  0  0  0  0  0  0  0  0  0
   44.6492   31.0116   43.9386 C   0  0  0  0  0  0  0  0  0  0  0  0
   45.5703   29.9420   42.8869 Cl  0  0  0  0  0  0  0  0  0  0  0  0
  1  2  2  0
  1  7  1  0
  3  2  1  0
  4  3  2  0
  5  4  1  0
  5  6  2  0
  6  1  1  0
  7  8  1  0
  7  9  1  0
  8  9  1  0
 10  5  1  0
 11 13  1  0
 12 11  2  0
 13 10  1  0
  2 14  1  0
  3 15  1  0
  7 16  1  0
  8 17  1  0
  8 18  1  0
  9 19  1  0
  9 20  1  0
 10 21  1  0
 10 22  1  0
 13 23  1  0
 24 25  1  0
 25 26  2  0
 26 27  1  0
 27 28  1  0
 27 29  2  0
 29 30  1  0
 29 31  1  0
 31 32  1  0
 31 33  2  0
 33 34  1  0
 33 25  1  0
 11 26  1  0
M  ISO  8  14  14  15  14  16  13  17  13  18  13  19  13  20  13  21   8
M  ISO  4  22   8  28  15  30  15  32  15
M  END
>  <DihAtoms>  (1) 
12,10,25,24

>  <DihDeg>  (1) 
-61.046699036985416

$$$$
