
     RDKit          3D

 43 47  0  0  0  0  0  0  0  0999 V2000
   37.5566   32.0615   48.5019 C   0  0  1  0  0  0  0  0  0  0  0  0
   38.7870   32.8001   48.8342 C   0  0  0  0  0  0  0  0  0  0  0  0
   38.9356   31.6388   47.9190 C   0  0  2  0  0  0  0  0  0  0  0  0
   39.2988   32.0978   46.5526 C   0  0  0  0  0  0  0  0  0  0  0  0
   39.7543   33.4219   46.5881 C   0  0  0  0  0  0  0  0  0  0  0  0
   40.2246   34.0380   45.4474 C   0  0  0  0  0  0  0  0  0  0  0  0
   40.2616   33.3610   44.2238 C   0  0  0  0  0  0  0  0  0  0  0  0
   39.8098   32.0627   44.2177 C   0  0  0  0  0  0  0  0  0  0  0  0
   39.7655   31.2685   43.0972 C   0  0  0  0  0  0  0  0  0  0  0  0
   39.3037   29.9705   43.0657 C   0  0  0  0  0  0  0  0  0  0  0  0
   38.8475   29.4129   44.2451 C   0  0  0  0  0  0  0  0  0  0  0  0
   38.8799   30.1830   45.3786 C   0  0  0  0  0  0  0  0  0  0  0  0
   39.3497   31.4731   45.3562 C   0  0  0  0  0  0  0  0  0  0  0  0
   35.2923   29.5707   50.1935 C   0  0  0  0  0  0  0  0  0  0  0  0
   35.8109   30.4800   49.2448 C   0  0  0  0  0  0  0  0  0  0  0  0
   37.0186   31.0978   49.4827 C   0  0  0  0  0  0  0  0  0  0  0  0
   37.6410   30.7781   50.6444 N   0  0  0  0  0  0  0  0  0  0  0  0
   37.1558   29.9144   51.5530 C   0  0  0  0  0  0  0  0  0  0  0  0
   35.9559   29.3002   51.3189 N   0  0  0  0  0  0  0  0  0  0  0  0
   36.9080   32.3945   47.7082 H   0  0  0  0  0  0  0  0  0  0  0  0
   38.6997   33.8512   48.6044 H   0  0  0  0  0  0  0  0  0  0  0  0
   39.2147   32.6795   49.8888 H   0  0  0  0  0  0  0  0  0  0  0  0
   39.0816   30.5826   48.0964 H   0  0  0  0  0  0  0  0  0  0  0  0
   39.8810   34.1921   47.3186 H   0  0  0  0  0  0  0  0  0  0  0  0
   40.6057   35.0327   45.2959 H   0  0  0  0  0  0  0  0  0  0  0  0
   40.5941   33.6908   43.2505 H   0  0  0  0  0  0  0  0  0  0  0  0
   40.1226   31.6852   42.1419 H   0  0  0  0  0  0  0  0  0  0  0  0
   39.3012   29.4076   42.1368 H   0  0  0  0  0  0  0  0  0  0  0  0
   38.4743   28.4091   44.2970 H   0  0  0  0  0  0  0  0  0  0  0  0
   38.5107   29.7168   46.3104 H   0  0  0  0  0  0  0  0  0  0  0  0
   34.3246   29.1196   49.9317 H   0  0  0  0  0  0  0  0  0  0  0  0
   35.2512   30.6861   48.3311 H   0  0  0  0  0  0  0  0  0  0  0  0
   39.9049   28.5304   51.4993 Cl  0  0  0  0  0  0  0  0  0  0  0  0
   39.0130   28.9194   52.9416 C   0  0  0  0  0  0  0  0  0  0  0  0
   37.7919   29.5403   52.8040 C   0  0  0  0  0  0  0  0  0  0  0  0
   37.1846   29.7898   54.0272 C   0  0  0  0  0  0  0  0  0  0  0  0
   36.2051   30.2812   54.0601 H   0  0  0  0  0  0  0  0  0  0  0  0
   37.7416   29.4540   55.2368 C   0  0  0  0  0  0  0  0  0  0  0  0
   37.2037   29.6824   56.1576 H   0  0  0  0  0  0  0  0  0  0  0  0
   38.9688   28.8336   55.2987 C   0  0  0  0  0  0  0  0  0  0  0  0
   39.3422   28.6006   56.2832 H   0  0  0  0  0  0  0  0  0  0  0  0
   39.6146   28.5631   54.1121 C   0  0  0  0  0  0  0  0  0  0  0  0
   41.1663   27.7785   54.1921 Cl  0  0  0  0  0  0  0  0  0  0  0  0
  1  2  1  0
  1 16  1  0
  3  1  1  0
  3  2  1  0
  4  5  2  0
  4  3  1  0
  6  5  1  0
  7  6  2  0
  8  7  1  0
  8 13  2  0
  9  8  1  0
 10  9  2  0
 10 11  1  0
 11 12  2  0
 13 12  1  0
 13  4  1  0
 14 19  2  0
 15 16  2  0
 15 14  1  0
 16 17  1  0
 17 18  2  0
 19 18  1  0
  1 20  1  6
  2 21  1  0
  2 22  1  0
  3 23  1  1
  5 24  1  0
  6 25  1  0
  7 26  1  0
  9 27  1  0
 10 28  1  0
 11 29  1  0
 12 30  1  0
 14 31  1  0
 15 32  1  0
 33 34  1  0
 34 35  2  0
 35 36  1  0
 36 37  1  0
 36 38  2  0
 38 39  1  0
 38 40  1  0
 40 41  1  0
 40 42  2  0
 42 43  1  0
 42 34  1  0
 18 35  1  0
M  ISO  8  20  13  21  13  22  13  23  13  24  14  25  14  26  14  27  14
M  ISO  8  28  14  29  14  30  14  31  14  32  14  37  15  39  15  41  15
M  END
>  <DihAtoms>  (1) 
16,17,34,33

>  <DihDeg>  (1) 
-1.4907324961769604

$$$$
