
     RDKit          3D

 37 40  0  0  0  0  0  0  0  0999 V2000
   38.8690   30.9260   45.8480 C   0  0  0  0  0  0  0  0  0  0  0  0
   40.0340   31.6010   46.0930 C   0  0  0  0  0  0  0  0  0  0  0  0
   40.8860   31.5430   44.9950 C   0  0  0  0  0  0  0  0  0  0  0  0
   40.1640   30.8060   44.1040 N   0  0  0  0  0  0  0  0  0  0  0  0
   38.9980   30.4460   44.5860 N   0  0  0  0  0  0  0  0  0  0  0  0
   37.7180   30.7460   46.7260 C   0  0  0  0  0  0  0  0  0  0  0  0
   37.9260   30.9480   48.1150 C   0  0  0  0  0  0  0  0  0  0  0  0
   36.8330   30.7760   48.9610 C   0  0  0  0  0  0  0  0  0  0  0  0
   35.6390   30.4280   48.4090 N   0  0  0  0  0  0  0  0  0  0  0  0
   35.4790   30.2440   47.0870 C   0  0  0  0  0  0  0  0  0  0  0  0
   36.5220   30.4050   46.2550 N   0  0  0  0  0  0  0  0  0  0  0  0
   37.0350   30.9850   50.4290 C   0  0  0  0  0  0  0  0  0  0  0  0
   36.5390   32.2240   50.7030 F   0  0  0  0  0  0  0  0  0  0  0  0
   36.3410   30.0310   51.1860 F   0  0  0  0  0  0  0  0  0  0  0  0
   38.3750   30.9260   50.7760 F   0  0  0  0  0  0  0  0  0  0  0  0
   40.5530   30.4250   42.7510 C   0  0  0  0  0  0  0  0  0  0  0  0
   40.1730   31.1850   41.6330 C   0  0  0  0  0  0  0  0  0  0  0  0
   40.5790   30.7920   40.3940 C   0  0  0  0  0  0  0  0  0  0  0  0
   41.3700   29.6310   40.2430 C   0  0  0  0  0  0  0  0  0  0  0  0
   41.5210   29.0980   42.0000 S   0  0  0  0  0  0  0  0  0  0  0  0
   43.7790   30.8390   38.7990 Cl  0  0  0  0  0  0  0  0  0  0  0  0
   43.0560   29.2830   38.4590 C   0  0  0  0  0  0  0  0  0  0  0  0
   41.9720   28.9060   39.2170 C   0  0  0  0  0  0  0  0  0  0  0  0
   41.4840   27.6670   38.8650 C   0  0  0  0  0  0  0  0  0  0  0  0
   42.0120   26.8820   37.8680 C   0  0  0  0  0  0  0  0  0  0  0  0
   43.0980   27.3460   37.1640 C   0  0  0  0  0  0  0  0  0  0  0  0
   43.6550   28.5730   37.4440 C   0  0  0  0  0  0  0  0  0  0  0  0
   45.0270   29.1770   36.5670 Cl  0  0  0  0  0  0  0  0  0  0  0  0
   40.2661   32.1209   47.0342 H   0  0  0  0  0  0  0  0  0  0  0  0
   41.8881   31.9808   44.8759 H   0  0  0  0  0  0  0  0  0  0  0  0
   38.9136   31.2299   48.5089 H   0  0  0  0  0  0  0  0  0  0  0  0
   34.4943   29.9616   46.6862 H   0  0  0  0  0  0  0  0  0  0  0  0
   39.5550   32.0866   41.7565 H   0  0  0  0  0  0  0  0  0  0  0  0
   40.2908   31.3792   39.5096 H   0  0  0  0  0  0  0  0  0  0  0  0
   40.6151   27.2806   39.4179 H   0  0  0  0  0  0  0  0  0  0  0  0
   41.5735   25.8999   37.6374 H   0  0  0  0  0  0  0  0  0  0  0  0
   43.5288   26.7263   36.3637 H   0  0  0  0  0  0  0  0  0  0  0  0
  1  2  1  0
  1  6  1  0
  3  2  2  0
  4  5  1  0
  4  3  1  0
  5  1  2  0
  6  7  2  0
  7  8  1  0
  8 12  1  0
  9  8  2  0
 10  9  1  0
 11  6  1  0
 11 10  2  0
 12 13  1  0
 12 15  1  0
 12 14  1  0
 16  4  1  0
 17 16  2  0
 18 17  1  0
 19 18  2  0
 19 20  1  0
 20 16  1  0
 22 21  1  0
 22 23  2  0
 23 19  1  0
 24 23  1  0
 25 24  2  0
 26 27  2  0
 26 25  1  0
 27 22  1  0
 28 27  1  0
  2 29  1  0
  3 30  1  0
  7 31  1  0
 10 32  1  0
 17 33  1  0
 18 34  1  0
 24 35  1  0
 25 36  1  0
 26 37  1  0
M  ISO  8  29  14  30  14  31  14  32  14  33  14  34  14  35  14  36  14
M  ISO  1  37  14
M  END
>  <minimizedAffinity>  (1) 
-6.62020922

>  <minimizedRMSD>  (1) 
0.89370054

$$$$
