
     RDKit          3D

 35 37  0  0  0  0  0  0  0  0999 V2000
   37.3070   30.6270   50.1570 C   0  0  0  0  0  0  0  0  0  0  0  0
   36.9760   30.5910   48.8140 C   0  0  0  0  0  0  0  0  0  0  0  0
   35.7470   30.0120   48.4070 C   0  0  0  0  0  0  0  0  0  0  0  0
   34.9410   29.5110   49.3690 N   0  0  0  0  0  0  0  0  0  0  0  0
   35.3130   29.5670   50.7010 C   0  0  0  0  0  0  0  0  0  0  0  0
   36.4960   30.1280   51.0840 N   0  0  0  0  0  0  0  0  0  0  0  0
   34.4060   29.0160   51.6640 N   0  0  0  0  0  0  0  0  0  0  0  0
   38.0450   33.4180   49.1630 Cl  0  0  0  0  0  0  0  0  0  0  0  0
   38.5110   32.4050   47.8300 C   0  0  0  0  0  0  0  0  0  0  0  0
   37.9360   31.1730   47.8530 C   0  0  0  0  0  0  0  0  0  0  0  0
   38.2670   30.2810   46.8150 C   0  0  0  0  0  0  0  0  0  0  0  0
   39.1200   30.6150   45.8210 C   0  0  0  0  0  0  0  0  0  0  0  0
   39.6950   31.8810   45.8230 C   0  0  0  0  0  0  0  0  0  0  0  0
   40.8020   32.3600   44.5680 Cl  0  0  0  0  0  0  0  0  0  0  0  0
   39.3840   32.7560   46.8220 C   0  0  0  0  0  0  0  0  0  0  0  0
   35.4190   29.9920   46.9940 C   0  0  0  0  0  0  0  0  0  0  0  0
   34.2570   27.1750   47.3210 Cl  0  0  0  0  0  0  0  0  0  0  0  0
   33.3040   28.5720   46.7920 C   0  0  0  0  0  0  0  0  0  0  0  0
   33.9760   29.7680   46.6920 C   0  0  0  0  0  0  0  0  0  0  0  0
   33.1910   30.8470   46.2720 C   0  0  0  0  0  0  0  0  0  0  0  0
   31.8370   30.8150   45.9570 C   0  0  0  0  0  0  0  0  0  0  0  0
   31.2660   29.5480   46.0960 C   0  0  0  0  0  0  0  0  0  0  0  0
   31.9630   28.4310   46.5040 C   0  0  0  0  0  0  0  0  0  0  0  0
   31.1810   26.8740   46.6520 Cl  0  0  0  0  0  0  0  0  0  0  0  0
   38.2620   31.0784   50.4640 H   0  0  0  0  0  0  0  0  0  0  0  0
   34.6435   29.0368   52.6660 H   0  0  0  0  0  0  0  0  0  0  0  0
   33.5166   28.5991   51.3541 H   0  0  0  0  0  0  0  0  0  0  0  0
   37.8159   29.2778   46.8129 H   0  0  0  0  0  0  0  0  0  0  0  0
   39.3557   29.8961   45.0225 H   0  0  0  0  0  0  0  0  0  0  0  0
   39.8371   33.7583   46.8236 H   0  0  0  0  0  0  0  0  0  0  0  0
   35.7137   30.9589   46.5602 H   0  0  0  0  0  0  0  0  0  0  0  0
   35.9628   29.1395   46.5610 H   0  0  0  0  0  0  0  0  0  0  0  0
   33.6963   31.8199   46.1817 H   0  0  0  0  0  0  0  0  0  0  0  0
   31.2714   31.7002   45.6306 H   0  0  0  0  0  0  0  0  0  0  0  0
   30.1963   29.4348   45.8662 H   0  0  0  0  0  0  0  0  0  0  0  0
  1  6  2  0
  2  1  1  0
  3  2  2  0
  3  4  1  0
  4  5  2  0
  5  6  1  0
  5  7  1  0
  9 10  2  0
  9  8  1  0
 10  2  1  0
 11 10  1  0
 12 13  1  0
 12 11  2  0
 13 15  2  0
 14 13  1  0
 15  9  1  0
 16  3  1  0
 18 17  1  0
 19 18  2  0
 19 16  1  0
 20 19  1  0
 21 22  1  0
 21 20  2  0
 22 23  2  0
 23 24  1  0
 23 18  1  0
  1 25  1  0
  7 26  1  0
  7 27  1  0
 11 28  1  0
 12 29  1  0
 15 30  1  0
 16 31  1  0
 16 32  1  0
 20 33  1  0
 21 34  1  0
 22 35  1  0
M  ISO  8  25  14  28  14  29  14  30  14  31   8  32   8  33  14  34  14
M  ISO  1  35  14
M  END
>  <minimizedAffinity>  (1) 
-5.89701319

>  <minimizedRMSD>  (1) 
0.658768117

$$$$
