
     RDKit          3D

 34 37  0  0  0  0  0  0  0  0999 V2000
   36.8445   30.5581   46.9151 C   0  0  0  0  0  0  0  0  0  0  0  0
   37.5094   31.0345   48.0298 C   0  0  0  0  0  0  0  0  0  0  0  0
   38.4984   31.9802   47.8839 C   0  0  0  0  0  0  0  0  0  0  0  0
   38.7891   32.4212   46.5981 C   0  0  0  0  0  0  0  0  0  0  0  0
   39.7360   33.3551   46.2301 N   0  0  0  0  0  0  0  0  0  0  0  0
   39.6544   33.4518   44.9082 C   0  0  0  0  0  0  0  0  0  0  0  0
   38.7096   32.6321   44.4159 N   0  0  0  0  0  0  0  0  0  0  0  0
   38.1519   31.9730   45.4655 C   0  0  0  0  0  0  0  0  0  0  0  0
   37.1566   31.0185   45.6348 C   0  0  0  0  0  0  0  0  0  0  0  0
   37.3899   30.1013   51.6601 C   0  0  0  0  0  0  0  0  0  0  0  0
   37.8696   30.6630   50.4830 C   0  0  0  0  0  0  0  0  0  0  0  0
   37.1240   30.5022   49.3197 C   0  0  0  0  0  0  0  0  0  0  0  0
   35.9629   29.8001   49.4061 N   0  0  0  0  0  0  0  0  0  0  0  0
   35.5113   29.2609   50.5579 C   0  0  0  0  0  0  0  0  0  0  0  0
   36.2179   29.4126   51.6634 N   0  0  0  0  0  0  0  0  0  0  0  0
   40.4706   34.3075   44.1864 O   0  0  0  0  0  0  0  0  0  0  0  0
   36.0616   29.8124   47.0092 H   0  0  0  0  0  0  0  0  0  0  0  0
   39.0100   32.3441   48.7648 H   0  0  0  0  0  0  0  0  0  0  0  0
   40.3599   33.8413   46.9146 H   0  0  0  0  0  0  0  0  0  0  0  0
   36.6477   30.6587   44.7450 H   0  0  0  0  0  0  0  0  0  0  0  0
   38.0335   30.2716   52.5322 H   0  0  0  0  0  0  0  0  0  0  0  0
   38.7843   31.2098   50.4405 H   0  0  0  0  0  0  0  0  0  0  0  0
   34.5859   28.7086   50.5960 H   0  0  0  0  0  0  0  0  0  0  0  0
   39.1458   36.7781   45.3732 Cl  0  0  0  0  0  0  0  0  0  0  0  0
   40.8308   36.2967   45.3095 C   0  0  0  0  0  0  0  0  0  0  0  0
   41.4062   35.1567   44.7491 C   0  0  0  0  0  0  0  0  0  0  0  0
   42.7698   35.0120   44.8131 C   0  0  0  0  0  0  0  0  0  0  0  0
   43.1416   34.1082   44.3594 H   0  0  0  0  0  0  0  0  0  0  0  0
   43.5936   35.9278   45.3987 C   0  0  0  0  0  0  0  0  0  0  0  0
   44.6595   35.7402   45.4080 H   0  0  0  0  0  0  0  0  0  0  0  0
   43.0457   37.0681   45.9628 C   0  0  0  0  0  0  0  0  0  0  0  0
   43.7341   37.7480   46.4057 H   0  0  0  0  0  0  0  0  0  0  0  0
   41.6600   37.2420   45.9119 C   0  0  0  0  0  0  0  0  0  0  0  0
   41.1296   38.7291   46.6671 Cl  0  0  0  0  0  0  0  0  0  0  0  0
  1  2  2  0
  2 12  1  0
  3  2  1  0
  4  3  2  0
  5  4  1  0
  6  5  1  0
  7  6  2  0
  7  8  1  0
  8  9  2  0
  8  4  1  0
  9  1  1  0
 10 15  2  0
 11 10  1  0
 12 13  1  0
 12 11  2  0
 13 14  2  0
 14 15  1  0
 16  6  1  0
  1 17  1  0
  3 18  1  0
  5 19  1  0
  9 20  1  0
 10 21  1  0
 11 22  1  0
 14 23  1  0
 24 25  1  0
 25 26  2  0
 26 27  1  0
 27 28  1  0
 27 29  2  0
 29 30  1  0
 29 31  1  0
 31 32  1  0
 31 33  2  0
 33 34  1  0
 33 25  1  0
 16 26  1  0
M  ISO  8  17  14  18  14  19   9  20  14  21  14  22  14  23  14  28  15
M  ISO  2  30  15  32  15
M  END
>  <DihAtoms>  (1) 
5,15,25,24

>  <DihDeg>  (1) 
-62.386287900223664

$$$$
