
     RDKit          3D

 28 30  0  0  0  0  0  0  0  0999 V2000
   37.5240   31.4061   49.3292 C   0  0  0  0  0  0  0  0  0  0  0  0
   38.1598   32.6552   49.3966 C   0  0  0  0  0  0  0  0  0  0  0  0
   38.9393   32.9748   48.3010 C   0  0  0  0  0  0  0  0  0  0  0  0
   39.0600   32.1189   47.2499 N   0  0  0  0  0  0  0  0  0  0  0  0
   38.4315   30.9236   47.2212 C   0  0  0  0  0  0  0  0  0  0  0  0
   37.6480   30.5542   48.2770 N   0  0  0  0  0  0  0  0  0  0  0  0
   36.6416   31.0331   50.4961 C   0  0  1  0  0  0  0  0  0  0  0  0
   36.1399   29.6895   50.6601 C   0  0  2  0  0  0  0  0  0  0  0  0
   37.3400   30.0974   51.4841 C   0  0  0  0  0  0  0  0  0  0  0  0
   36.3919   28.7353   49.6637 O   0  0  0  0  0  0  0  0  0  0  0  0
   38.0091   33.2718   50.2682 H   0  0  0  0  0  0  0  0  0  0  0  0
   39.4472   33.9398   48.3238 H   0  0  0  0  0  0  0  0  0  0  0  0
   38.5712   30.2924   46.3539 H   0  0  0  0  0  0  0  0  0  0  0  0
   36.1689   31.9356   50.9388 H   0  0  0  0  0  0  0  0  0  0  0  0
   35.1879   29.5547   51.2084 H   0  0  0  0  0  0  0  0  0  0  0  0
   38.3360   29.7002   51.2553 H   0  0  0  0  0  0  0  0  0  0  0  0
   37.1361   30.3406   52.5425 H   0  0  0  0  0  0  0  0  0  0  0  0
   37.8452   26.2505   50.0549 Cl  0  0  0  0  0  0  0  0  0  0  0  0
   36.2038   26.4320   49.4721 C   0  0  0  0  0  0  0  0  0  0  0  0
   35.5883   27.6798   49.3169 C   0  0  0  0  0  0  0  0  0  0  0  0
   34.2938   27.7332   48.8524 C   0  0  0  0  0  0  0  0  0  0  0  0
   33.8643   28.7207   48.7503 H   0  0  0  0  0  0  0  0  0  0  0  0
   33.5560   26.6176   48.5260 C   0  0  0  0  0  0  0  0  0  0  0  0
   32.5532   26.6731   48.1670 H   0  0  0  0  0  0  0  0  0  0  0  0
   34.1977   25.3889   48.6917 C   0  0  0  0  0  0  0  0  0  0  0  0
   33.7078   24.4525   48.4645 H   0  0  0  0  0  0  0  0  0  0  0  0
   35.4864   25.2904   49.1517 C   0  0  0  0  0  0  0  0  0  0  0  0
   36.2568   23.7169   49.3452 Cl  0  0  0  0  0  0  0  0  0  0  0  0
  1  2  2  0
  1  7  1  0
  3  2  1  0
  4  3  2  0
  5  4  1  0
  5  6  2  0
  6  1  1  0
  7  8  1  0
  7  9  1  0
  8  9  1  0
 10  8  1  0
  2 11  1  0
  3 12  1  0
  5 13  1  0
  7 14  1  1
  8 15  1  1
  9 16  1  0
  9 17  1  0
 18 19  1  0
 19 20  2  0
 20 21  1  0
 21 22  1  0
 21 23  2  0
 23 24  1  0
 23 25  1  0
 25 26  1  0
 25 27  2  0
 27 28  1  0
 27 19  1  0
 10 20  1  0
M  ISO  8  11  14  12  14  13  14  14  13  15  13  16  13  17  13  22  15
M  ISO  2  24  15  26  15
M  END
>  <DihAtoms>  (1) 
7,9,19,18

>  <DihDeg>  (1) 
179.9990641867563

$$$$
