
     RDKit          3D

 29 31  0  0  0  0  0  0  0  0999 V2000
   35.8080   30.1420   49.9160 C   0  0  0  0  0  0  0  0  0  0  0  0
   36.7130   29.8230   50.9200 C   0  0  0  0  0  0  0  0  0  0  0  0
   37.8010   30.6390   50.6020 C   0  0  0  0  0  0  0  0  0  0  0  0
   37.5330   31.3830   49.4800 C   0  0  0  0  0  0  0  0  0  0  0  0
   36.3290   31.0590   49.0950 O   0  0  0  0  0  0  0  0  0  0  0  0
   38.5090   30.6920   46.6710 Cl  0  0  0  0  0  0  0  0  0  0  0  0
   38.9230   32.1170   47.5820 C   0  0  0  0  0  0  0  0  0  0  0  0
   38.4320   32.3450   48.8510 C   0  0  0  0  0  0  0  0  0  0  0  0
   38.7940   33.4910   49.5240 C   0  0  0  0  0  0  0  0  0  0  0  0
   39.6400   34.4570   49.0050 C   0  0  0  0  0  0  0  0  0  0  0  0
   40.1350   34.2250   47.7270 C   0  0  0  0  0  0  0  0  0  0  0  0
   39.7790   33.0730   47.0310 C   0  0  0  0  0  0  0  0  0  0  0  0
   40.4630   32.8840   45.4250 Cl  0  0  0  0  0  0  0  0  0  0  0  0
   34.4760   29.5530   49.7830 C   0  0  0  0  0  0  0  0  0  0  0  0
   33.6790   29.6920   50.7520 O   0  0  0  0  0  0  0  0  0  0  0  0
   33.7910   26.7940   47.5300 C   0  0  0  0  0  0  0  0  0  0  0  0
   33.4330   27.4300   46.3360 C   0  0  0  0  0  0  0  0  0  0  0  0
   33.4270   28.8120   46.3010 C   0  0  0  0  0  0  0  0  0  0  0  0
   33.7700   29.4750   47.4390 N   0  0  0  0  0  0  0  0  0  0  0  0
   34.1100   28.8440   48.5740 C   0  0  0  0  0  0  0  0  0  0  0  0
   34.1200   27.4950   48.6190 N   0  0  0  0  0  0  0  0  0  0  0  0
   36.6016   29.1112   51.7513 H   0  0  0  0  0  0  0  0  0  0  0  0
   38.7414   30.6798   51.1712 H   0  0  0  0  0  0  0  0  0  0  0  0
   38.3870   33.6483   50.5337 H   0  0  0  0  0  0  0  0  0  0  0  0
   39.9061   35.3600   49.5740 H   0  0  0  0  0  0  0  0  0  0  0  0
   40.8125   34.9565   47.2624 H   0  0  0  0  0  0  0  0  0  0  0  0
   33.8018   25.6949   47.5730 H   0  0  0  0  0  0  0  0  0  0  0  0
   33.1625   26.8436   45.4455 H   0  0  0  0  0  0  0  0  0  0  0  0
   33.1544   29.3569   45.3851 H   0  0  0  0  0  0  0  0  0  0  0  0
  1  2  2  0
  3  2  1  0
  4  3  2  0
  5  4  1  0
  5  1  1  0
  6  7  1  0
  7  8  2  0
  8  4  1  0
  8  9  1  0
 10  9  2  0
 11 10  1  0
 12  7  1  0
 12 11  2  0
 13 12  1  0
 14  1  1  0
 14 15  2  0
 16 21  2  0
 17 16  1  0
 18 17  2  0
 18 19  1  0
 19 20  2  0
 20 21  1  0
 20 14  1  0
  2 22  1  0
  3 23  1  0
  9 24  1  0
 10 25  1  0
 11 26  1  0
 16 27  1  0
 17 28  1  0
 18 29  1  0
M  ISO  8  22  14  23  14  24  14  25  14  26  14  27  14  28  14  29  14
M  END
>  <minimizedAffinity>  (1) 
-6.66690207

>  <minimizedRMSD>  (1) 
2.37919545

$$$$
