
     RDKit          3D

 47 51  0  0  0  0  0  0  0  0999 V2000
   34.6246   29.7440   46.0979 N   0  0  0  0  0  0  0  0  0  0  0  0
   33.3829   29.9252   45.3732 C   0  0  0  0  0  0  0  0  0  0  0  0
   33.5470   29.7987   43.9025 C   0  0  0  0  0  0  0  0  0  0  0  0
   34.7054   28.9874   43.6032 N   0  0  0  0  0  0  0  0  0  0  0  0
   35.8776   29.7694   43.9918 C   0  0  0  0  0  0  0  0  0  0  0  0
   35.9634   29.6599   45.4817 C   0  0  1  0  0  0  0  0  0  0  0  0
   37.5491   31.6364   45.3323 C   0  0  0  0  0  0  0  0  0  0  0  0
   36.9107   30.6331   46.0696 C   0  0  0  0  0  0  0  0  0  0  0  0
   37.1118   30.5320   47.4330 C   0  0  0  0  0  0  0  0  0  0  0  0
   37.9466   31.4487   48.0272 C   0  0  0  0  0  0  0  0  0  0  0  0
   38.5872   32.4589   47.2706 C   0  0  0  0  0  0  0  0  0  0  0  0
   38.3970   32.5722   45.8837 C   0  0  0  0  0  0  0  0  0  0  0  0
   39.3857   33.2578   48.1117 O   0  0  0  0  0  0  0  0  0  0  0  0
   38.9471   32.9972   49.4206 C   0  0  0  0  0  0  0  0  0  0  0  0
   38.3866   31.6874   49.3302 O   0  0  0  0  0  0  0  0  0  0  0  0
   34.7128   28.3699   48.1420 C   0  0  0  0  0  0  0  0  0  0  0  0
   34.5636   29.6288   47.5195 C   0  0  0  0  0  0  0  0  0  0  0  0
   34.3775   30.7182   48.3421 C   0  0  0  0  0  0  0  0  0  0  0  0
   34.3487   30.5293   49.7035 N   0  0  0  0  0  0  0  0  0  0  0  0
   34.4969   29.3139   50.2439 C   0  0  0  0  0  0  0  0  0  0  0  0
   34.6789   28.2267   49.4830 N   0  0  0  0  0  0  0  0  0  0  0  0
   32.9261   30.8871   45.6871 H   0  0  0  0  0  0  0  0  0  0  0  0
   32.6837   29.1230   45.7294 H   0  0  0  0  0  0  0  0  0  0  0  0
   33.7328   30.8065   43.4750 H   0  0  0  0  0  0  0  0  0  0  0  0
   32.6210   29.4027   43.4407 H   0  0  0  0  0  0  0  0  0  0  0  0
   34.6558   28.0700   44.0868 H   0  0  0  0  0  0  0  0  0  0  0  0
   35.6897   30.8099   43.6486 H   0  0  0  0  0  0  0  0  0  0  0  0
   36.7520   29.3036   43.5074 H   0  0  0  0  0  0  0  0  0  0  0  0
   36.3233   28.6544   45.7706 H   0  0  0  0  0  0  0  0  0  0  0  0
   37.3820   31.6956   44.2691 H   0  0  0  0  0  0  0  0  0  0  0  0
   36.8261   29.8405   48.1852 H   0  0  0  0  0  0  0  0  0  0  0  0
   38.8850   33.3382   45.3124 H   0  0  0  0  0  0  0  0  0  0  0  0
   38.1646   33.7327   49.7303 H   0  0  0  0  0  0  0  0  0  0  0  0
   39.7661   33.0529   50.1414 H   0  0  0  0  0  0  0  0  0  0  0  0
   34.8565   27.5179   47.4957 H   0  0  0  0  0  0  0  0  0  0  0  0
   34.2564   31.7040   47.9202 H   0  0  0  0  0  0  0  0  0  0  0  0
   34.8440   26.5461   51.2305 Cl  0  0  0  0  0  0  0  0  0  0  0  0
   34.6096   27.9252   52.2863 C   0  0  0  0  0  0  0  0  0  0  0  0
   34.4592   29.1716   51.6936 C   0  0  0  0  0  0  0  0  0  0  0  0
   34.2745   30.2603   52.5197 C   0  0  0  0  0  0  0  0  0  0  0  0
   34.1560   31.2361   52.0737 H   0  0  0  0  0  0  0  0  0  0  0  0
   34.2294   30.1905   53.9014 C   0  0  0  0  0  0  0  0  0  0  0  0
   34.0843   31.0561   54.5132 H   0  0  0  0  0  0  0  0  0  0  0  0
   34.3849   28.9218   54.4434 C   0  0  0  0  0  0  0  0  0  0  0  0
   34.3557   28.8244   55.5203 H   0  0  0  0  0  0  0  0  0  0  0  0
   34.5724   27.8011   53.6610 C   0  0  0  0  0  0  0  0  0  0  0  0
   34.7659   26.2110   54.3766 Cl  0  0  0  0  0  0  0  0  0  0  0  0
  1 17  1  0
  2  1  1  0
  3  2  1  0
  4  3  1  0
  4  5  1  0
  5  6  1  0
  6  8  1  0
  6  1  1  0
  7 12  2  0
  7  8  1  0
  8  9  2  0
  9 10  1  0
 10 15  1  0
 11 10  2  0
 11 13  1  0
 12 11  1  0
 13 14  1  0
 15 14  1  0
 16 21  2  0
 17 16  1  0
 17 18  2  0
 18 19  1  0
 19 20  2  0
 21 20  1  0
  2 22  1  0
  2 23  1  0
  3 24  1  0
  3 25  1  0
  4 26  1  0
  5 27  1  0
  5 28  1  0
  6 29  1  6
  7 30  1  0
  9 31  1  0
 12 32  1  0
 14 33  1  0
 14 34  1  0
 16 35  1  0
 18 36  1  0
 37 38  1  0
 38 39  2  0
 39 40  1  0
 40 41  1  0
 40 42  2  0
 42 43  1  0
 42 44  1  0
 44 45  1  0
 44 46  2  0
 46 47  1  0
 46 38  1  0
 20 39  1  0
M  ISO  8  22  13  23  13  24  13  25  13  26   5  27  13  28  13  29  13
M  ISO  8  30  14  31  14  32  14  33  13  34  13  35  14  36  14  41  15
M  ISO  2  43  15  45  15
M  END
>  <DihAtoms>  (1) 
18,19,38,37

>  <DihDeg>  (1) 
179.99927884746236

$$$$
