
     RDKit          3D

 41 45  0  0  0  0  0  0  0  0999 V2000
   35.8214   29.1401   49.8045 C   0  0  0  0  0  0  0  0  0  0  0  0
   34.8041   29.6618   50.5705 C   0  0  0  0  0  0  0  0  0  0  0  0
   33.5989   29.1241   50.0919 C   0  0  0  0  0  0  0  0  0  0  0  0
   33.9700   28.2977   49.0501 C   0  0  0  0  0  0  0  0  0  0  0  0
   35.2788   28.3397   48.9190 O   0  0  0  0  0  0  0  0  0  0  0  0
   37.2163   29.4859   50.0283 C   0  0  0  0  0  0  0  0  0  0  0  0
   37.8587   28.8770   50.8942 O   0  0  0  0  0  0  0  0  0  0  0  0
   37.7677   30.5323   49.2132 C   0  0  0  0  0  0  0  0  0  0  0  0
   38.1149   31.7103   49.8489 C   0  0  0  0  0  0  0  0  0  0  0  0
   38.6531   32.7511   49.0834 C   0  0  0  0  0  0  0  0  0  0  0  0
   38.8073   32.5429   47.7342 N   0  0  0  0  0  0  0  0  0  0  0  0
   38.4615   31.3934   47.1542 C   0  0  0  0  0  0  0  0  0  0  0  0
   37.9450   30.3912   47.8820 N   0  0  0  0  0  0  0  0  0  0  0  0
   33.0611   27.5026   48.2277 C   0  0  0  0  0  0  0  0  0  0  0  0
   31.8437   27.4060   48.5800 O   0  0  0  0  0  0  0  0  0  0  0  0
   33.5435   26.8109   47.0053 C   0  0  1  0  0  0  0  0  0  0  0  0
   33.7908   25.2748   47.2851 C   0  0  0  0  0  0  0  0  0  0  0  0
   32.7861   25.7502   46.3375 C   0  0  1  0  0  0  0  0  0  0  0  0
   34.8168   30.3615   51.4079 H   0  0  0  0  0  0  0  0  0  0  0  0
   32.5890   29.2890   50.4288 H   0  0  0  0  0  0  0  0  0  0  0  0
   38.0002   31.8862   50.8996 H   0  0  0  0  0  0  0  0  0  0  0  0
   38.9275   33.6775   49.5762 H   0  0  0  0  0  0  0  0  0  0  0  0
   38.5790   31.2195   46.0926 H   0  0  0  0  0  0  0  0  0  0  0  0
   34.4954   27.2462   46.6166 H   0  0  0  0  0  0  0  0  0  0  0  0
   34.7435   24.8575   46.9010 H   0  0  0  0  0  0  0  0  0  0  0  0
   33.5646   24.9165   48.2940 H   0  0  0  0  0  0  0  0  0  0  0  0
   33.0670   25.6812   45.2343 H   0  0  0  0  0  0  0  0  0  0  0  0
   30.5426   25.4872   45.4049 C   0  0  0  0  0  0  0  0  0  0  0  0
   31.3427   25.5064   46.5480 C   0  0  0  0  0  0  0  0  0  0  0  0
   30.6802   25.2780   47.7341 C   0  0  0  0  0  0  0  0  0  0  0  0
   31.2833   25.2784   48.6211 H   0  0  0  0  0  0  0  0  0  0  0  0
   29.3212   25.0495   47.7670 C   0  0  0  0  0  0  0  0  0  0  0  0
   28.5419   25.0320   46.6448 C   0  0  0  0  0  0  0  0  0  0  0  0
   29.1629   25.2555   45.4337 C   0  0  0  0  0  0  0  0  0  0  0  0
   27.2286   24.7785   47.0044 O   0  0  0  0  0  0  0  0  0  0  0  0
   27.2584   24.3342   48.3481 C   0  0  1  0  0  0  0  0  0  0  0  0
   26.4389   24.8119   48.8893 H   0  0  0  0  0  0  0  0  0  0  0  0
   28.5001   24.8031   48.8746 O   0  0  0  0  0  0  0  0  0  0  0  0
   30.9823   25.6588   44.4141 H   0  0  0  0  0  0  0  0  0  0  0  0
   28.6165   25.2583   44.4937 H   0  0  0  0  0  0  0  0  0  0  0  0
   27.2568   23.2357   48.4030 H   0  0  0  0  0  0  0  0  0  0  0  0
  1  6  1  0
  1  2  2  0
  3  2  1  0
  4  3  2  0
  5  4  1  0
  5  1  1  0
  6  7  2  0
  8  9  2  0
  8  6  1  0
 10  9  1  0
 11 10  2  0
 12 11  1  0
 12 13  2  0
 13  8  1  0
 14 15  2  0
 14  4  1  0
 16 17  1  0
 16 14  1  0
 18 16  1  0
 18 17  1  0
  2 19  1  0
  3 20  1  0
  9 21  1  0
 10 22  1  0
 12 23  1  0
 16 24  1  6
 17 25  1  0
 17 26  1  0
 18 27  1  6
 28 29  2  0
 29 30  1  0
 30 31  1  0
 30 32  2  0
 32 33  1  0
 33 34  2  0
 33 35  1  0
 35 36  1  0
 36 37  1  1
 36 38  1  0
 34 28  1  0
 38 32  1  0
 28 39  1  0
 34 40  1  0
 36 41  1  0
 18 29  1  0
M  ISO  8  19  14  20  14  21  14  22  14  23  14  24  13  25  13  26  13
M  ISO  3  27  13  31  16  37   8
M  END
>  <DihAtoms>  (1) 
15,17,28,27

>  <DihDeg>  (1) 
110.49557879143447

$$$$
