
     RDKit          3D

 49 53  0  0  1  0  0  0  0  0999 V2000
   37.2520   29.2720   50.5150 C   0  0  0  0  0  0  0  0  0  0  0  0
   37.4140   30.6550   50.7600 C   0  0  0  0  0  0  0  0  0  0  0  0
   36.6520   31.5260   49.9870 C   0  0  0  0  0  0  0  0  0  0  0  0
   35.8110   30.9980   49.0570 N   0  0  0  0  0  0  0  0  0  0  0  0
   35.6930   29.6890   48.8620 C   0  0  0  0  0  0  0  0  0  0  0  0
   36.4100   28.8210   49.5870 N   0  0  0  0  0  0  0  0  0  0  0  0
   34.8000   29.2010   47.8750 N   0  0  0  0  0  0  0  0  0  0  0  0
   34.1660   27.9010   47.9900 C   0  0  0  0  0  0  0  0  0  0  0  0
   32.6830   28.0370   47.8530 C   0  0  0  0  0  0  0  0  0  0  0  0
   32.2170   29.2360   47.3510 N   0  0  0  0  0  0  0  0  0  0  0  0
   33.0370   30.0700   46.5120 C   0  0  0  0  0  0  0  0  0  0  0  0
   34.4730   29.9840   46.6920 C   0  0  2  0  0  0  0  0  0  0  0  0
   35.1870   29.3850   45.5780 N   0  0  0  0  0  0  0  0  0  0  0  0
   36.2750   30.2470   45.1200 C   0  0  0  0  0  0  0  0  0  0  0  0
   36.3570   30.0950   43.6140 C   0  0  0  0  0  0  0  0  0  0  0  0
   35.4160   28.9750   43.3400 C   0  0  0  0  0  0  0  0  0  0  0  0
   34.3630   29.1190   44.4550 C   0  0  1  0  0  0  0  0  0  0  0  0
   34.2990   26.5590   44.7170 C   0  0  0  0  0  0  0  0  0  0  0  0
   33.7270   27.7770   44.4100 C   0  0  0  0  0  0  0  0  0  0  0  0
   32.4000   27.7080   44.0270 C   0  0  0  0  0  0  0  0  0  0  0  0
   31.6890   26.5280   43.9530 C   0  0  0  0  0  0  0  0  0  0  0  0
   32.3070   25.3370   44.2700 C   0  0  0  0  0  0  0  0  0  0  0  0
   33.6290   25.3570   44.6570 C   0  0  0  0  0  0  0  0  0  0  0  0
   31.3730   24.3000   44.1130 O   0  0  0  0  0  0  0  0  0  0  0  0
   30.0780   24.8740   43.9850 C   0  0  0  0  0  0  0  0  0  0  0  0
   30.3700   26.1900   43.6030 O   0  0  0  0  0  0  0  0  0  0  0  0
   37.8359   28.5507   51.1055 H   0  0  0  0  0  0  0  0  0  0  0  0
   38.1105   31.0256   51.5265 H   0  0  0  0  0  0  0  0  0  0  0  0
   36.7278   32.6147   50.1246 H   0  0  0  0  0  0  0  0  0  0  0  0
   34.5453   27.2401   47.1967 H   0  0  0  0  0  0  0  0  0  0  0  0
   34.3981   27.4739   48.9768 H   0  0  0  0  0  0  0  0  0  0  0  0
   32.3347   27.2367   47.1835 H   0  0  0  0  0  0  0  0  0  0  0  0
   32.2899   27.9790   48.8787 H   0  0  0  0  0  0  0  0  0  0  0  0
   31.3733   29.0135   46.8036 H   0  0  0  0  0  0  0  0  0  0  0  0
   32.7427   31.1140   46.6947 H   0  0  0  0  0  0  0  0  0  0  0  0
   32.8575   29.7065   45.4894 H   0  0  0  0  0  0  0  0  0  0  0  0
   34.7955   31.0316   46.7844 H   0  0  0  0  0  0  0  0  0  0  0  0
   36.0637   31.2940   45.3831 H   0  0  0  0  0  0  0  0  0  0  0  0
   37.2260   29.9648   45.5954 H   0  0  0  0  0  0  0  0  0  0  0  0
   36.0349   31.0156   43.1054 H   0  0  0  0  0  0  0  0  0  0  0  0
   37.3778   29.9025   43.2522 H   0  0  0  0  0  0  0  0  0  0  0  0
   34.9556   29.0808   42.3466 H   0  0  0  0  0  0  0  0  0  0  0  0
   35.9069   27.9906   43.3349 H   0  0  0  0  0  0  0  0  0  0  0  0
   33.5727   29.8833   44.4193 H   0  0  0  0  0  0  0  0  0  0  0  0
   35.3539   26.5475   45.0285 H   0  0  0  0  0  0  0  0  0  0  0  0
   31.8837   28.6440   43.7675 H   0  0  0  0  0  0  0  0  0  0  0  0
   34.1453   24.4208   44.9159 H   0  0  0  0  0  0  0  0  0  0  0  0
   29.4878   24.3572   43.2139 H   0  0  0  0  0  0  0  0  0  0  0  0
   29.4738   24.8057   44.9017 H   0  0  0  0  0  0  0  0  0  0  0  0
  1  2  2  0
  3  2  1  0
  4  3  2  0
  5  4  1  0
  5  6  2  0
  6  1  1  0
  7  8  1  0
  7  5  1  0
  9  8  1  0
 10  9  1  0
 11 12  1  0
 11 10  1  0
 12  7  1  0
 13 14  1  0
 13 12  1  0
 15 14  1  0
 16 15  1  0
 16 17  1  0
 17 13  1  0
 19 17  1  0
 19 18  2  0
 20 19  1  0
 21 20  2  0
 21 22  1  0
 22 23  2  0
 23 18  1  0
 24 22  1  0
 25 24  1  0
 26 21  1  0
 26 25  1  0
  1 27  1  0
  2 28  1  0
  3 29  1  0
  8 30  1  0
  8 31  1  0
  9 32  1  0
  9 33  1  0
 10 34  1  0
 11 35  1  0
 11 36  1  0
 12 37  1  1
 14 38  1  0
 14 39  1  0
 15 40  1  0
 15 41  1  0
 16 42  1  0
 16 43  1  0
 17 44  1  6
 18 45  1  0
 20 46  1  0
 23 47  1  0
 25 48  1  0
 25 49  1  0
M  ISO  8  27  14  28  14  29  14  30  13  31  13  32  13  33  13  34   5
M  ISO  8  35  13  36  13  37  13  38  13  39  13  40  13  41  13  42  13
M  ISO  7  43  13  44  13  45  14  46  14  47  14  48  13  49  13
M  END
>  <minimizedAffinity>  (1) 
-4.83470774

>  <minimizedRMSD>  (1) 
0.519137502

$$$$
