
     RDKit          3D

 37 40  0  0  0  0  0  0  0  0999 V2000
   35.3850   29.2733   48.5110 C   0  0  0  0  0  0  0  0  0  0  0  0
   34.8330   29.9641   47.4297 C   0  0  0  0  0  0  0  0  0  0  0  0
   33.5635   29.6264   46.9635 C   0  0  0  0  0  0  0  0  0  0  0  0
   32.9117   28.6139   47.6042 N   0  0  0  0  0  0  0  0  0  0  0  0
   33.4630   27.9559   48.6504 C   0  0  0  0  0  0  0  0  0  0  0  0
   34.6861   28.2686   49.1130 N   0  0  0  0  0  0  0  0  0  0  0  0
   36.6680   29.5534   49.0462 N   0  0  0  0  0  0  0  0  0  0  0  0
   37.0913   29.1460   50.3648 C   0  0  0  0  0  0  0  0  0  0  0  0
   37.7863   30.2294   51.1332 C   0  0  2  0  0  0  0  0  0  0  0  0
   38.6114   31.1204   50.3837 N   0  0  0  0  0  0  0  0  0  0  0  0
   37.9299   31.5364   49.1673 C   0  0  0  0  0  0  0  0  0  0  0  0
   37.7158   30.2622   48.3870 C   0  0  0  0  0  0  0  0  0  0  0  0
   35.4318   30.7610   46.9810 H   0  0  0  0  0  0  0  0  0  0  0  0
   33.1544   30.1667   46.1325 H   0  0  0  0  0  0  0  0  0  0  0  0
   32.8726   27.1632   49.1002 H   0  0  0  0  0  0  0  0  0  0  0  0
   36.1928   28.8253   50.9315 H   0  0  0  0  0  0  0  0  0  0  0  0
   37.7145   28.2067   50.2975 H   0  0  0  0  0  0  0  0  0  0  0  0
   37.0184   30.8580   51.6305 H   0  0  0  0  0  0  0  0  0  0  0  0
   39.5334   30.7560   50.0897 H   0  0  0  0  0  0  0  0  0  0  0  0
   36.9473   31.9297   49.4793 H   0  0  0  0  0  0  0  0  0  0  0  0
   38.5318   32.2687   48.6003 H   0  0  0  0  0  0  0  0  0  0  0  0
   37.4985   30.5140   47.3331 H   0  0  0  0  0  0  0  0  0  0  0  0
   38.6636   29.6642   48.4100 H   0  0  0  0  0  0  0  0  0  0  0  0
   38.4891   28.1977   52.5047 C   0  0  0  0  0  0  0  0  0  0  0  0
   38.5551   29.5510   52.2089 C   0  0  0  0  0  0  0  0  0  0  0  0
   39.4291   30.2755   53.0204 C   0  0  0  0  0  0  0  0  0  0  0  0
   39.5561   31.3392   52.8746 H   0  0  0  0  0  0  0  0  0  0  0  0
   40.1579   29.6833   54.0260 C   0  0  0  0  0  0  0  0  0  0  0  0
   40.0474   28.3307   54.2703 C   0  0  0  0  0  0  0  0  0  0  0  0
   39.1988   27.5917   53.4922 C   0  0  0  0  0  0  0  0  0  0  0  0
   40.8759   27.9539   55.3321 O   0  0  0  0  0  0  0  0  0  0  0  0
   41.2299   29.1785   55.9843 C   0  0  1  0  0  0  0  0  0  0  0  0
   40.4909   29.3290   56.7971 H   0  0  0  0  0  0  0  0  0  0  0  0
   41.0858   30.1642   54.9669 O   0  0  0  0  0  0  0  0  0  0  0  0
   37.8233   27.5975   51.8999 H   0  0  0  0  0  0  0  0  0  0  0  0
   39.1163   26.5316   53.6884 H   0  0  0  0  0  0  0  0  0  0  0  0
   42.2623   29.1976   56.3359 H   0  0  0  0  0  0  0  0  0  0  0  0
  1  7  1  0
  1  6  1  0
  2  1  2  0
  3  2  1  0
  3  4  2  0
  4  5  1  0
  5  6  2  0
  7  8  1  0
  8  9  1  0
 10  9  1  0
 11 10  1  0
 12  7  1  0
 12 11  1  0
  2 13  1  0
  3 14  1  0
  5 15  1  0
  8 16  1  0
  8 17  1  0
  9 18  1  1
 10 19  1  0
 11 20  1  0
 11 21  1  0
 12 22  1  0
 12 23  1  0
 24 25  2  0
 25 26  1  0
 26 27  1  0
 26 28  2  0
 28 29  1  0
 29 30  2  0
 29 31  1  0
 31 32  1  0
 32 33  1  1
 32 34  1  0
 30 24  1  0
 34 28  1  0
 24 35  1  0
 30 36  1  0
 32 37  1  0
  9 25  1  0
M  ISO  8  13  14  14  14  15  14  16  13  17  13  18  13  19   5  20  13
M  ISO  5  21  13  22  13  23  13  27  16  33   8
M  END
>  <DihAtoms>  (1) 
7,8,24,23

>  <DihDeg>  (1) 
83.253790898198

$$$$
