
     RDKit          3D

 47 51  0  0  0  0  0  0  0  0999 V2000
   35.0201   28.3690   49.4593 C   0  0  0  0  0  0  0  0  0  0  0  0
   34.2899   28.7684   48.4446 C   0  0  0  0  0  0  0  0  0  0  0  0
   37.3751   30.1785   51.5753 C   0  0  0  0  0  0  0  0  0  0  0  0
   38.0856   30.9427   50.6299 C   0  0  0  0  0  0  0  0  0  0  0  0
   37.7237   30.8106   49.2674 C   0  0  0  0  0  0  0  0  0  0  0  0
   36.7099   29.9520   48.9498 N   0  0  0  0  0  0  0  0  0  0  0  0
   36.0713   29.2479   49.9230 C   0  0  0  0  0  0  0  0  0  0  0  0
   36.3955   29.3577   51.2080 N   0  0  0  0  0  0  0  0  0  0  0  0
   38.3824   31.5627   48.1986 C   0  0  0  0  0  0  0  0  0  0  0  0
   38.6032   31.0314   46.9481 C   0  0  0  0  0  0  0  0  0  0  0  0
   39.2369   32.0158   46.1838 C   0  0  0  0  0  0  0  0  0  0  0  0
   39.3702   33.0890   46.9990 N   0  0  0  0  0  0  0  0  0  0  0  0
   38.8637   32.8292   48.2035 N   0  0  0  0  0  0  0  0  0  0  0  0
   33.1718   28.0579   47.7826 C   0  0  0  0  0  0  0  0  0  0  0  0
   33.6078   26.9384   46.9029 C   0  0  0  0  0  0  0  0  0  0  0  0
   33.7944   25.6216   47.3193 C   0  0  0  0  0  0  0  0  0  0  0  0
   34.1899   24.6496   46.4399 C   0  0  0  0  0  0  0  0  0  0  0  0
   34.4166   24.9429   45.1127 C   0  0  0  0  0  0  0  0  0  0  0  0
   34.2340   26.2387   44.6974 C   0  0  0  0  0  0  0  0  0  0  0  0
   33.8330   27.2379   45.5749 C   0  0  0  0  0  0  0  0  0  0  0  0
   34.7496   27.3781   49.8642 H   0  0  0  0  0  0  0  0  0  0  0  0
   34.5825   29.7424   48.0779 H   0  0  0  0  0  0  0  0  0  0  0  0
   37.6885   30.3123   52.6169 H   0  0  0  0  0  0  0  0  0  0  0  0
   38.8943   31.6279   50.8777 H   0  0  0  0  0  0  0  0  0  0  0  0
   38.3461   30.0288   46.5787 H   0  0  0  0  0  0  0  0  0  0  0  0
   39.5352   31.8838   45.1538 H   0  0  0  0  0  0  0  0  0  0  0  0
   39.8285   33.9580   46.6230 H   0  0  0  0  0  0  0  0  0  0  0  0
   32.4803   28.7255   47.2782 H   0  0  0  0  0  0  0  0  0  0  0  0
   32.6032   27.5780   48.6077 H   0  0  0  0  0  0  0  0  0  0  0  0
   33.5926   25.4774   48.3885 H   0  0  0  0  0  0  0  0  0  0  0  0
   34.2831   23.6991   46.9309 H   0  0  0  0  0  0  0  0  0  0  0  0
   34.7244   24.1028   44.5104 H   0  0  0  0  0  0  0  0  0  0  0  0
   34.4448   26.3373   43.6306 H   0  0  0  0  0  0  0  0  0  0  0  0
   34.3924   29.7042   45.0369 C   0  0  0  0  0  0  0  0  0  0  0  0
   33.7485   28.5040   44.8557 C   0  0  0  0  0  0  0  0  0  0  0  0
   32.8190   28.5098   43.8045 C   0  0  0  0  0  0  0  0  0  0  0  0
   32.2363   27.6175   43.5514 H   0  0  0  0  0  0  0  0  0  0  0  0
   32.5433   29.5960   43.0013 C   0  0  0  0  0  0  0  0  0  0  0  0
   33.2183   30.7741   43.2291 C   0  0  0  0  0  0  0  0  0  0  0  0
   34.1293   30.7939   44.2472 C   0  0  0  0  0  0  0  0  0  0  0  0
   32.7724   31.7073   42.3042 O   0  0  0  0  0  0  0  0  0  0  0  0
   32.1888   30.9837   41.2360 C   0  0  0  0  0  0  0  0  0  0  0  0
   33.0139   30.7193   40.5446 H   0  0  0  0  0  0  0  0  0  0  0  0
   31.6914   29.8324   41.9331 O   0  0  0  0  0  0  0  0  0  0  0  0
   35.1148   29.6796   45.8349 H   0  0  0  0  0  0  0  0  0  0  0  0
   34.6939   31.6964   44.4751 H   0  0  0  0  0  0  0  0  0  0  0  0
   31.3683   31.5311   40.7400 H   0  0  0  0  0  0  0  0  0  0  0  0
  1  7  1  0
  2  1  2  0
  4  3  2  0
  5  4  1  0
  6  5  2  0
  6  7  1  0
  7  8  2  0
  8  3  1  0
  9  5  1  0
 10  9  1  0
 11 10  2  0
 11 12  1  0
 12 13  1  0
 13  9  2  0
 14  2  1  0
 15 16  2  0
 15 14  1  0
 17 16  1  0
 18 17  2  0
 19 18  1  0
 19 20  2  0
 20 15  1  0
  1 21  1  0
  2 22  1  0
  3 23  1  0
  4 24  1  0
 10 25  1  0
 11 26  1  0
 12 27  1  0
 14 28  1  0
 14 29  1  0
 16 30  1  0
 17 31  1  0
 18 32  1  0
 19 33  1  0
 34 35  2  0
 35 36  1  0
 36 37  1  0
 36 38  2  0
 38 39  1  0
 39 40  2  0
 39 41  1  0
 41 42  1  0
 42 43  1  0
 42 44  1  0
 40 34  1  0
 44 38  1  0
 34 45  1  0
 40 46  1  0
 42 47  1  0
 20 35  1  0
M  ISO  8  23  14  24  14  25  14  26  14  27   9  28   8  29   8  30  14
M  ISO  5  31  14  32  14  33  14  37  16  43   8
M  END
>  <DihAtoms>  (1) 
18,19,34,33

>  <DihDeg>  (1) 
-120.44886889323911

$$$$
