
     RDKit          3D

 46 50  0  0  0  0  0  0  0  0999 V2000
   37.5511   32.0603   48.1256 Cl  0  0  0  0  0  0  0  0  0  0  0  0
   36.6753   31.0887   47.0005 C   0  0  0  0  0  0  0  0  0  0  0  0
   37.2017   30.8826   45.7341 C   0  0  0  0  0  0  0  0  0  0  0  0
   36.5460   30.1259   44.7969 C   0  0  0  0  0  0  0  0  0  0  0  0
   35.3334   29.5459   45.0966 C   0  0  0  0  0  0  0  0  0  0  0  0
   34.7804   29.7303   46.3480 C   0  0  0  0  0  0  0  0  0  0  0  0
   33.2412   29.0508   46.8550 Cl  0  0  0  0  0  0  0  0  0  0  0  0
   35.4832   30.5052   47.2636 C   0  0  0  0  0  0  0  0  0  0  0  0
   39.7678   33.2157   44.5465 C   0  0  0  0  0  0  0  0  0  0  0  0
   40.9629   32.5561   44.8135 C   0  0  0  0  0  0  0  0  0  0  0  0
   40.8711   31.2711   45.4193 C   0  0  0  0  0  0  0  0  0  0  0  0
   39.6337   30.7914   45.6879 N   0  0  0  0  0  0  0  0  0  0  0  0
   38.4833   31.4850   45.4032 C   0  0  0  0  0  0  0  0  0  0  0  0
   38.5755   32.6785   44.8404 N   0  0  0  0  0  0  0  0  0  0  0  0
   34.9022   30.7116   48.6363 C   0  0  0  0  0  0  0  0  0  0  0  0
   35.2938   27.9598   49.1082 F   0  0  0  0  0  0  0  0  0  0  0  0
   35.9987   28.8807   49.8558 C   0  0  0  0  0  0  0  0  0  0  0  0
   35.8395   30.2535   49.6799 C   0  0  0  0  0  0  0  0  0  0  0  0
   36.5671   31.0998   50.4785 C   0  0  0  0  0  0  0  0  0  0  0  0
   37.4450   30.6177   51.4357 C   0  0  0  0  0  0  0  0  0  0  0  0
   37.5854   29.2255   51.5895 C   0  0  0  0  0  0  0  0  0  0  0  0
   36.8548   28.3309   50.7929 C   0  0  0  0  0  0  0  0  0  0  0  0
   36.9130   29.9352   43.7971 H   0  0  0  0  0  0  0  0  0  0  0  0
   34.7648   28.9399   44.4079 H   0  0  0  0  0  0  0  0  0  0  0  0
   39.8383   34.1969   44.0840 H   0  0  0  0  0  0  0  0  0  0  0  0
   41.9473   32.9451   44.5963 H   0  0  0  0  0  0  0  0  0  0  0  0
   41.7379   30.6905   45.6610 H   0  0  0  0  0  0  0  0  0  0  0  0
   34.6250   31.7776   48.7779 H   0  0  0  0  0  0  0  0  0  0  0  0
   33.9721   30.1277   48.7649 H   0  0  0  0  0  0  0  0  0  0  0  0
   36.4683   32.1726   50.4839 H   0  0  0  0  0  0  0  0  0  0  0  0
   38.0265   31.2618   52.0693 H   0  0  0  0  0  0  0  0  0  0  0  0
   38.2637   28.8042   52.3296 H   0  0  0  0  0  0  0  0  0  0  0  0
   37.1469   26.0069   49.9021 C   0  0  0  0  0  0  0  0  0  0  0  0
   37.0083   26.8914   50.9641 C   0  0  0  0  0  0  0  0  0  0  0  0
   37.0106   26.4227   52.2725 C   0  0  0  0  0  0  0  0  0  0  0  0
   36.9096   27.0298   53.1536 H   0  0  0  0  0  0  0  0  0  0  0  0
   37.1520   25.0689   52.5118 C   0  0  0  0  0  0  0  0  0  0  0  0
   37.2889   24.2082   51.4273 C   0  0  0  0  0  0  0  0  0  0  0  0
   37.2903   24.6483   50.1036 C   0  0  0  0  0  0  0  0  0  0  0  0
   37.4121   22.9154   51.9652 O   0  0  0  0  0  0  0  0  0  0  0  0
   37.7582   22.9987   53.3365 C   0  0  0  0  0  0  0  0  0  0  0  0
   37.3703   22.1832   53.9540 H   0  0  0  0  0  0  0  0  0  0  0  0
   37.1962   24.2781   53.6602 O   0  0  0  0  0  0  0  0  0  0  0  0
   37.1394   26.4182   48.8993 H   0  0  0  0  0  0  0  0  0  0  0  0
   37.3983   23.9568   49.2837 H   0  0  0  0  0  0  0  0  0  0  0  0
   38.8696   23.0743   53.4805 H   0  0  0  0  0  0  0  0  0  0  0  0
  2  8  2  0
  2  1  1  0
  3  2  1  0
  4  5  1  0
  4  3  2  0
  5  6  2  0
  6  7  1  0
  6  8  1  0
  8 15  1  0
  9 10  2  0
  9 14  1  0
 10 11  1  0
 11 12  2  0
 13 12  1  0
 13  3  1  0
 14 13  2  0
 15 18  1  0
 16 17  1  0
 17 22  2  0
 18 17  1  0
 18 19  2  0
 19 20  1  0
 20 21  2  0
 22 21  1  0
  4 23  1  0
  5 24  1  0
  9 25  1  0
 10 26  1  0
 11 27  1  0
 15 28  1  0
 15 29  1  0
 19 30  1  0
 20 31  1  0
 21 32  1  0
 33 34  2  0
 34 35  1  0
 35 36  1  0
 35 37  2  0
 37 38  1  0
 38 39  2  0
 38 40  1  0
 40 41  1  0
 41 42  1  0
 41 43  1  0
 39 33  1  0
 43 37  1  0
 33 44  1  0
 39 45  1  0
 41 46  1  0
 22 34  1  0
M  ISO  8  23  14  24  14  25  14  26  14  27  14  28   8  29   8  30  14
M  ISO  4  31  14  32  14  36  16  42   8
M  END
>  <DihAtoms>  (1) 
16,21,33,32

>  <DihDeg>  (1) 
44.997182688157885

$$$$
