
     RDKit          3D

 44 48  0  0  1  0  0  0  0  0999 V2000
   34.3580   29.1450   49.0180 C   0  0  2  0  0  0  0  0  0  0  0  0
   35.0890   28.3970   50.0810 C   0  0  0  0  0  0  0  0  0  0  0  0
   36.2960   29.1340   50.4280 N   0  0  0  0  0  0  0  0  0  0  0  0
   37.3380   29.8350   51.1240 C   0  0  0  0  0  0  0  0  0  0  0  0
   37.6860   30.0200   52.3080 O   0  0  0  0  0  0  0  0  0  0  0  0
   37.9560   30.3370   49.9000 C   0  0  1  0  0  0  0  0  0  0  0  0
   37.0400   29.3580   49.2130 C   0  0  2  0  0  0  0  0  0  0  0  0
   35.7060   30.1100   48.2270 S   0  0  0  0  0  0  0  0  0  0  0  0
   33.2200   29.9930   49.4810 C   0  0  0  0  0  0  0  0  0  0  0  0
   33.9150   28.1560   47.9280 C   0  0  0  0  0  0  0  0  0  0  0  0
   31.9070   28.7820   46.6720 C   0  0  0  0  0  0  0  0  0  0  0  0
   32.4410   28.1210   47.7790 C   0  0  0  0  0  0  0  0  0  0  0  0
   31.5750   27.4900   48.6480 C   0  0  0  0  0  0  0  0  0  0  0  0
   30.2230   27.5440   48.3790 C   0  0  0  0  0  0  0  0  0  0  0  0
   29.6590   28.1850   47.2950 C   0  0  0  0  0  0  0  0  0  0  0  0
   30.5350   28.8100   46.4390 C   0  0  0  0  0  0  0  0  0  0  0  0
   28.2810   27.9910   47.4100 O   0  0  0  0  0  0  0  0  0  0  0  0
   28.0170   26.8880   48.2850 C   0  0  0  0  0  0  0  0  0  0  0  0
   29.1790   26.9760   49.1210 O   0  0  0  0  0  0  0  0  0  0  0  0
   37.7420   31.7650   49.6060 C   0  0  0  0  0  0  0  0  0  0  0  0
   36.7630   32.2770   50.2210 O   0  0  0  0  0  0  0  0  0  0  0  0
   38.5770   32.5150   48.7030 C   0  0  0  0  0  0  0  0  0  0  0  0
   39.1040   33.7130   49.1580 C   0  0  0  0  0  0  0  0  0  0  0  0
   39.9200   34.4540   48.2750 C   0  0  0  0  0  0  0  0  0  0  0  0
   40.1400   33.9430   47.0280 N   0  0  0  0  0  0  0  0  0  0  0  0
   39.6170   32.7880   46.6260 C   0  0  0  0  0  0  0  0  0  0  0  0
   38.8350   32.0710   47.4600 N   0  0  0  0  0  0  0  0  0  0  0  0
   34.4485   28.2970   50.9697 H   0  0  0  0  0  0  0  0  0  0  0  0
   35.3554   27.3940   49.7163 H   0  0  0  0  0  0  0  0  0  0  0  0
   39.0427   30.3597   49.7312 H   0  0  0  0  0  0  0  0  0  0  0  0
   37.5640   28.6154   48.5934 H   0  0  0  0  0  0  0  0  0  0  0  0
   33.1984   30.0091   50.5807 H   0  0  0  0  0  0  0  0  0  0  0  0
   33.3482   31.0176   49.1017 H   0  0  0  0  0  0  0  0  0  0  0  0
   32.2749   29.5772   49.1017 H   0  0  0  0  0  0  0  0  0  0  0  0
   34.3621   28.4592   46.9698 H   0  0  0  0  0  0  0  0  0  0  0  0
   34.2516   27.1511   48.2226 H   0  0  0  0  0  0  0  0  0  0  0  0
   32.5837   29.2909   45.9697 H   0  0  0  0  0  0  0  0  0  0  0  0
   31.9530   26.9573   49.5330 H   0  0  0  0  0  0  0  0  0  0  0  0
   30.1458   29.3399   45.5571 H   0  0  0  0  0  0  0  0  0  0  0  0
   27.0874   27.0288   48.8560 H   0  0  0  0  0  0  0  0  0  0  0  0
   27.8659   25.9181   47.7885 H   0  0  0  0  0  0  0  0  0  0  0  0
   38.8934   34.0755   50.1750 H   0  0  0  0  0  0  0  0  0  0  0  0
   40.3642   35.4123   48.5821 H   0  0  0  0  0  0  0  0  0  0  0  0
   39.8224   32.4163   45.6113 H   0  0  0  0  0  0  0  0  0  0  0  0
  1 10  1  6
  1  9  1  0
  1  2  1  0
  2  3  1  0
  3  4  1  0
  4  5  2  0
  6  4  1  0
  7  6  1  0
  7  3  1  0
  8  1  1  0
  8  7  1  0
 11 12  2  0
 12 10  1  0
 12 13  1  0
 14 13  2  0
 14 19  1  0
 15 17  1  0
 15 14  1  0
 16 11  1  0
 16 15  2  0
 17 18  1  0
 18 19  1  0
 20  6  1  0
 20 21  2  0
 22 23  2  0
 22 20  1  0
 24 23  1  0
 25 24  2  0
 26 25  1  0
 26 27  2  0
 27 22  1  0
  2 28  1  0
  2 29  1  0
  6 30  1  1
  7 31  1  6
  9 32  1  0
  9 33  1  0
  9 34  1  0
 10 35  1  0
 10 36  1  0
 11 37  1  0
 13 38  1  0
 16 39  1  0
 18 40  1  0
 18 41  1  0
 23 42  1  0
 24 43  1  0
 26 44  1  0
M  ISO  8  28  13  29  13  30  13  31  13  32   8  33   8  34   8  35   8
M  ISO  8  36   8  37  14  38  14  39  14  40  13  41  13  42  14  43  14
M  ISO  1  44  14
M  END
>  <minimizedAffinity>  (1) 
-5.87688684

>  <minimizedRMSD>  (1) 
2.60026145

$$$$
