
     RDKit          3D

 39 42  0  0  0  0  0  0  0  0999 V2000
   38.2518   31.8276   49.0281 Br  0  0  0  0  0  0  0  0  0  0  0  0
   36.9852   31.0276   47.8485 C   0  0  0  0  0  0  0  0  0  0  0  0
   37.2434   30.9506   46.4978 C   0  0  0  0  0  0  0  0  0  0  0  0
   36.2886   30.3639   45.7011 C   0  0  0  0  0  0  0  0  0  0  0  0
   35.0888   29.8507   46.1881 C   0  0  0  0  0  0  0  0  0  0  0  0
   34.8689   29.9492   47.5573 C   0  0  0  0  0  0  0  0  0  0  0  0
   35.8263   30.5392   48.3696 C   0  0  0  0  0  0  0  0  0  0  0  0
   39.5579   33.1938   44.7976 C   0  0  0  0  0  0  0  0  0  0  0  0
   40.8018   32.5179   44.8459 C   0  0  0  0  0  0  0  0  0  0  0  0
   40.8051   31.2871   45.4744 C   0  0  0  0  0  0  0  0  0  0  0  0
   39.6464   30.7840   46.0087 N   0  0  0  0  0  0  0  0  0  0  0  0
   38.4865   31.4735   45.9334 C   0  0  0  0  0  0  0  0  0  0  0  0
   38.4409   32.6835   45.3255 N   0  0  0  0  0  0  0  0  0  0  0  0
   35.4785   30.5794   49.8165 C   0  0  0  0  0  0  0  0  0  0  0  0
   34.6808   29.3600   50.2607 C   0  0  0  0  0  0  0  0  0  0  0  0
   36.5372   30.3253   44.6377 H   0  0  0  0  0  0  0  0  0  0  0  0
   34.4413   29.4246   45.4599 H   0  0  0  0  0  0  0  0  0  0  0  0
   33.9260   29.5274   47.8010 H   0  0  0  0  0  0  0  0  0  0  0  0
   39.5598   34.1646   44.3007 H   0  0  0  0  0  0  0  0  0  0  0  0
   41.6922   32.9547   44.4097 H   0  0  0  0  0  0  0  0  0  0  0  0
   41.7210   30.7145   45.5483 H   0  0  0  0  0  0  0  0  0  0  0  0
   34.7547   31.4379   49.9160 H   0  0  0  0  0  0  0  0  0  0  0  0
   36.3092   30.7987   50.4815 H   0  0  0  0  0  0  0  0  0  0  0  0
   35.2807   28.4285   50.1822 H   0  0  0  0  0  0  0  0  0  0  0  0
   33.7204   29.2480   49.7565 H   0  0  0  0  0  0  0  0  0  0  0  0
   34.6219   28.5079   52.6073 C   0  0  0  0  0  0  0  0  0  0  0  0
   34.4347   29.5595   51.7298 C   0  0  0  0  0  0  0  0  0  0  0  0
   34.0164   30.7762   52.2806 C   0  0  0  0  0  0  0  0  0  0  0  0
   33.8663   31.6101   51.5974 H   0  0  0  0  0  0  0  0  0  0  0  0
   33.8117   30.8785   53.6442 C   0  0  0  0  0  0  0  0  0  0  0  0
   34.0145   29.7926   54.4762 C   0  0  0  0  0  0  0  0  0  0  0  0
   34.4272   28.5743   53.9721 C   0  0  0  0  0  0  0  0  0  0  0  0
   33.7160   30.2638   55.7503 O   0  0  0  0  0  0  0  0  0  0  0  0
   33.7273   31.6802   55.7486 C   0  0  1  0  0  0  0  0  0  0  0  0
   32.9790   32.0944   56.4540 H   0  0  0  0  0  0  0  0  0  0  0  0
   33.4029   31.9695   54.4005 O   0  0  0  0  0  0  0  0  0  0  0  0
   34.9474   27.5625   52.1755 H   0  0  0  0  0  0  0  0  0  0  0  0
   34.5853   27.7265   54.6240 H   0  0  0  0  0  0  0  0  0  0  0  0
   34.7565   32.0662   55.9178 H   0  0  0  0  0  0  0  0  0  0  0  0
  2  7  2  0
  2  1  1  0
  3  2  1  0
  4  5  1  0
  4  3  2  0
  5  6  2  0
  6  7  1  0
  7 14  1  0
  8  9  2  0
  8 13  1  0
  9 10  1  0
 10 11  2  0
 12 11  1  0
 12  3  1  0
 13 12  2  0
 14 15  1  0
  4 16  1  0
  5 17  1  0
  6 18  1  0
  8 19  1  0
  9 20  1  0
 10 21  1  0
 14 22  1  0
 14 23  1  0
 15 24  1  0
 15 25  1  0
 26 27  2  0
 27 28  1  0
 28 29  1  0
 28 30  2  0
 30 31  1  0
 31 32  2  0
 31 33  1  0
 33 34  1  0
 34 35  1  1
 34 36  1  0
 32 26  1  0
 36 30  1  0
 26 37  1  0
 32 38  1  0
 34 39  1  0
 15 27  1  0
M  ISO  8  16  14  17  14  18  14  19  14  20  14  21  14  22   8  23   8
M  ISO  4  24   8  25   8  29  16  35   8
M  END
>  <DihAtoms>  (1) 
13,14,26,25

>  <DihDeg>  (1) 
-89.99997295552895

$$$$
