
     RDKit          3D

 33 36  0  0  0  0  0  0  0  0999 V2000
   37.9154   30.8747   46.7392 C   0  0  0  0  0  0  0  0  0  0  0  0
   38.0557   31.0421   48.1360 C   0  0  0  0  0  0  0  0  0  0  0  0
   36.9263   30.8176   48.9358 C   0  0  0  0  0  0  0  0  0  0  0  0
   35.7780   30.4552   48.3109 N   0  0  0  0  0  0  0  0  0  0  0  0
   35.6777   30.3046   46.9804 C   0  0  0  0  0  0  0  0  0  0  0  0
   36.7574   30.5187   46.2108 N   0  0  0  0  0  0  0  0  0  0  0  0
   39.0997   31.1108   45.9075 C   0  0  0  0  0  0  0  0  0  0  0  0
   39.9253   32.2014   45.9098 C   0  0  0  0  0  0  0  0  0  0  0  0
   40.9424   32.0267   44.9583 C   0  0  0  0  0  0  0  0  0  0  0  0
   40.6721   30.7983   44.4098 N   0  0  0  0  0  0  0  0  0  0  0  0
   39.6029   30.2843   44.9717 N   0  0  0  0  0  0  0  0  0  0  0  0
   37.0503   30.9871   50.4019 C   0  0  0  0  0  0  0  0  0  0  0  0
   36.5468   32.2357   50.6872 F   0  0  0  0  0  0  0  0  0  0  0  0
   36.3104   30.0425   51.1061 F   0  0  0  0  0  0  0  0  0  0  0  0
   38.3636   30.9544   50.8235 F   0  0  0  0  0  0  0  0  0  0  0  0
   38.9918   31.3329   48.5962 H   0  0  0  0  0  0  0  0  0  0  0  0
   34.7079   30.0110   46.5863 H   0  0  0  0  0  0  0  0  0  0  0  0
   39.7813   33.0639   46.5712 H   0  0  0  0  0  0  0  0  0  0  0  0
   41.6924   32.7611   44.7993 H   0  0  0  0  0  0  0  0  0  0  0  0
   42.9306   30.3583   43.4315 C   0  0  0  0  0  0  0  0  0  0  0  0
   41.5432   30.3219   43.3895 C   0  0  0  0  0  0  0  0  0  0  0  0
   40.8830   29.7849   42.2804 C   0  0  0  0  0  0  0  0  0  0  0  0
   39.8058   29.7319   42.1961 H   0  0  0  0  0  0  0  0  0  0  0  0
   41.6389   29.2907   41.2256 C   0  0  0  0  0  0  0  0  0  0  0  0
   43.0351   29.3335   41.2807 C   0  0  0  0  0  0  0  0  0  0  0  0
   43.6791   29.8654   42.3796 C   0  0  0  0  0  0  0  0  0  0  0  0
   43.4537   28.7618   40.0719 O   0  0  0  0  0  0  0  0  0  0  0  0
   42.3897   28.8925   39.1178 C   0  0  2  0  0  0  0  0  0  0  0  0
   42.4481   28.1505   38.3235 H   0  0  0  0  0  0  0  0  0  0  0  0
   41.2773   28.7033   40.0033 O   0  0  0  0  0  0  0  0  0  0  0  0
   43.3711   30.7876   44.3205 H   0  0  0  0  0  0  0  0  0  0  0  0
   44.7469   29.8959   42.4170 H   0  0  0  0  0  0  0  0  0  0  0  0
   42.3407   29.9491   38.7884 H   0  0  0  0  0  0  0  0  0  0  0  0
  1  2  2  0
  2  3  1  0
  3 12  1  0
  4  3  2  0
  5  4  1  0
  6  1  1  0
  6  5  2  0
  7  1  1  0
  8  7  1  0
  9  8  2  0
 10  9  1  0
 10 11  1  0
 11  7  2  0
 12 13  1  0
 12 15  1  0
 12 14  1  0
  2 16  1  0
  5 17  1  0
  8 18  1  0
  9 19  1  0
 20 21  2  0
 21 22  1  0
 22 23  1  0
 22 24  2  0
 24 25  1  0
 25 26  2  0
 25 27  1  0
 27 28  1  0
 28 29  1  6
 28 30  1  0
 26 20  1  0
 30 24  1  0
 20 31  1  0
 26 32  1  0
 28 33  1  0
 10 21  1  0
M  ISO  6  16  14  17  14  18  14  19  14  23  16  29   8
M  END
>  <DihAtoms>  (1) 
8,9,20,19

>  <DihDeg>  (1) 
60.73127169334371

$$$$
