
     RDKit          3D

 44 48  0  0  0  0  0  0  0  0999 V2000
   36.9967   31.3308   48.6798 C   0  0  0  0  0  0  0  0  0  0  0  0
   37.0434   32.3129   49.6584 C   0  0  0  0  0  0  0  0  0  0  0  0
   37.9891   33.3386   49.5314 C   0  0  0  0  0  0  0  0  0  0  0  0
   38.8557   33.3666   48.4487 C   0  0  0  0  0  0  0  0  0  0  0  0
   38.7744   32.3723   47.4994 C   0  0  0  0  0  0  0  0  0  0  0  0
   37.8625   31.4058   47.6474 N   0  0  0  0  0  0  0  0  0  0  0  0
   35.1230   28.4787   50.2383 C   0  0  0  0  0  0  0  0  0  0  0  0
   36.1461   29.4411   50.0042 C   0  0  0  0  0  0  0  0  0  0  0  0
   35.9817   30.3454   48.9466 C   0  0  0  0  0  0  0  0  0  0  0  0
   34.8408   30.2440   48.2024 N   0  0  0  0  0  0  0  0  0  0  0  0
   33.8871   29.3052   48.4638 C   0  0  0  0  0  0  0  0  0  0  0  0
   34.0341   28.4318   49.4765 N   0  0  0  0  0  0  0  0  0  0  0  0
   32.8062   29.4060   47.5571 N   0  0  0  0  0  0  0  0  0  0  0  0
   37.3358   29.4451   50.8840 C   0  0  0  0  0  0  0  0  0  0  0  0
   38.4986   29.7658   50.1735 F   0  0  0  0  0  0  0  0  0  0  0  0
   37.1799   30.3625   51.8612 F   0  0  0  0  0  0  0  0  0  0  0  0
   37.5739   28.2098   51.4818 F   0  0  0  0  0  0  0  0  0  0  0  0
   39.6406   32.3326   46.3265 C   0  0  0  0  0  0  0  0  0  0  0  0
   40.2483   31.2190   45.7937 C   0  0  0  0  0  0  0  0  0  0  0  0
   40.9914   31.5739   44.6793 C   0  0  0  0  0  0  0  0  0  0  0  0
   40.8036   32.9193   44.5740 N   0  0  0  0  0  0  0  0  0  0  0  0
   40.0133   33.3518   45.5409 N   0  0  0  0  0  0  0  0  0  0  0  0
   36.4823   32.5084   50.5564 H   0  0  0  0  0  0  0  0  0  0  0  0
   38.1516   34.1691   50.2030 H   0  0  0  0  0  0  0  0  0  0  0  0
   39.6108   34.1143   48.2717 H   0  0  0  0  0  0  0  0  0  0  0  0
   35.2139   27.7721   51.0368 H   0  0  0  0  0  0  0  0  0  0  0  0
   32.8413   29.1857   46.5430 H   0  0  0  0  0  0  0  0  0  0  0  0
   31.9986   29.7413   48.1295 H   0  0  0  0  0  0  0  0  0  0  0  0
   40.1793   30.1862   46.1668 H   0  0  0  0  0  0  0  0  0  0  0  0
   41.5762   30.9077   44.0572 H   0  0  0  0  0  0  0  0  0  0  0  0
   42.7100   34.1503   43.5372 C   0  0  0  0  0  0  0  0  0  0  0  0
   41.4265   33.6469   43.5239 C   0  0  0  0  0  0  0  0  0  0  0  0
   40.6385   33.8492   42.3982 C   0  0  0  0  0  0  0  0  0  0  0  0
   39.6294   33.4914   42.3049 H   0  0  0  0  0  0  0  0  0  0  0  0
   41.1400   34.5424   41.3182 C   0  0  0  0  0  0  0  0  0  0  0  0
   42.4390   35.0551   41.3244 C   0  0  0  0  0  0  0  0  0  0  0  0
   43.2093   34.8405   42.4615 C   0  0  0  0  0  0  0  0  0  0  0  0
   42.6288   35.6963   40.0875 O   0  0  0  0  0  0  0  0  0  0  0  0
   41.3576   35.9820   39.5410 C   0  0  2  0  0  0  0  0  0  0  0  0
   41.3524   36.0043   38.4475 H   0  0  0  0  0  0  0  0  0  0  0  0
   40.5888   34.8930   40.0735 O   0  0  0  0  0  0  0  0  0  0  0  0
   43.2823   33.9672   44.4339 H   0  0  0  0  0  0  0  0  0  0  0  0
   44.2173   35.2361   42.4715 H   0  0  0  0  0  0  0  0  0  0  0  0
   40.8910   36.8988   39.9756 H   0  0  0  0  0  0  0  0  0  0  0  0
  1  9  1  0
  1  2  2  0
  3  2  1  0
  4  3  2  0
  5  6  2  0
  5  4  1  0
  6  1  1  0
  8  7  2  0
  8 14  1  0
  9  8  1  0
 10 11  1  0
 10  9  2  0
 11 12  2  0
 12  7  1  0
 13 11  1  0
 14 17  1  0
 14 16  1  0
 15 14  1  0
 18  5  1  0
 19 18  1  0
 20 19  2  0
 21 20  1  0
 21 22  1  0
 22 18  2  0
  2 23  1  0
  3 24  1  0
  4 25  1  0
  7 26  1  0
 13 27  1  0
 13 28  1  0
 19 29  1  0
 20 30  1  0
 31 32  2  0
 32 33  1  0
 33 34  1  0
 33 35  2  0
 35 36  1  0
 36 37  2  0
 36 38  1  0
 38 39  1  0
 39 40  1  6
 39 41  1  0
 37 31  1  0
 41 35  1  0
 31 42  1  0
 37 43  1  0
 39 44  1  0
 21 32  1  0
M  ISO  8  23  14  24  14  25  14  26  14  29  14  30  14  34  16  40   8
M  END
>  <DihAtoms>  (1) 
19,20,31,30

>  <DihDeg>  (1) 
110.22330335047667

$$$$
