
     RDKit          3D

 44 48  0  0  0  0  0  0  0  0999 V2000
   36.9967   31.3308   48.6798 C   0  0  0  0  0  0  0  0  0  0  0  0
   37.0434   32.3129   49.6584 C   0  0  0  0  0  0  0  0  0  0  0  0
   37.9891   33.3386   49.5314 C   0  0  0  0  0  0  0  0  0  0  0  0
   38.8557   33.3666   48.4487 C   0  0  0  0  0  0  0  0  0  0  0  0
   38.7744   32.3723   47.4994 C   0  0  0  0  0  0  0  0  0  0  0  0
   37.8625   31.4058   47.6474 N   0  0  0  0  0  0  0  0  0  0  0  0
   35.1230   28.4787   50.2383 C   0  0  0  0  0  0  0  0  0  0  0  0
   36.1461   29.4411   50.0042 C   0  0  0  0  0  0  0  0  0  0  0  0
   35.9817   30.3454   48.9466 C   0  0  0  0  0  0  0  0  0  0  0  0
   34.8408   30.2440   48.2024 N   0  0  0  0  0  0  0  0  0  0  0  0
   33.8871   29.3052   48.4638 C   0  0  0  0  0  0  0  0  0  0  0  0
   34.0341   28.4318   49.4765 N   0  0  0  0  0  0  0  0  0  0  0  0
   32.8062   29.4060   47.5571 N   0  0  0  0  0  0  0  0  0  0  0  0
   37.3358   29.4451   50.8840 C   0  0  0  0  0  0  0  0  0  0  0  0
   38.4986   29.7658   50.1735 F   0  0  0  0  0  0  0  0  0  0  0  0
   37.1799   30.3625   51.8612 F   0  0  0  0  0  0  0  0  0  0  0  0
   37.5739   28.2098   51.4818 F   0  0  0  0  0  0  0  0  0  0  0  0
   39.6406   32.3326   46.3265 C   0  0  0  0  0  0  0  0  0  0  0  0
   40.2483   31.2190   45.7937 C   0  0  0  0  0  0  0  0  0  0  0  0
   40.9914   31.5739   44.6793 C   0  0  0  0  0  0  0  0  0  0  0  0
   40.8036   32.9193   44.5740 N   0  0  0  0  0  0  0  0  0  0  0  0
   40.0133   33.3518   45.5409 N   0  0  0  0  0  0  0  0  0  0  0  0
   36.4823   32.5084   50.5564 H   0  0  0  0  0  0  0  0  0  0  0  0
   38.1516   34.1691   50.2030 H   0  0  0  0  0  0  0  0  0  0  0  0
   39.6108   34.1143   48.2717 H   0  0  0  0  0  0  0  0  0  0  0  0
   35.2139   27.7721   51.0368 H   0  0  0  0  0  0  0  0  0  0  0  0
   32.8413   29.1857   46.5430 H   0  0  0  0  0  0  0  0  0  0  0  0
   31.9986   29.7413   48.1295 H   0  0  0  0  0  0  0  0  0  0  0  0
   40.1793   30.1862   46.1668 H   0  0  0  0  0  0  0  0  0  0  0  0
   41.5762   30.9077   44.0572 H   0  0  0  0  0  0  0  0  0  0  0  0
   40.7869   34.2231   42.4469 C   0  0  0  0  0  0  0  0  0  0  0  0
   41.4265   33.6469   43.5239 C   0  0  0  0  0  0  0  0  0  0  0  0
   42.8063   33.7669   43.6271 C   0  0  0  0  0  0  0  0  0  0  0  0
   43.3824   33.3490   44.4324 H   0  0  0  0  0  0  0  0  0  0  0  0
   43.5151   34.4521   42.6645 C   0  0  0  0  0  0  0  0  0  0  0  0
   42.8742   35.0384   41.5709 C   0  0  0  0  0  0  0  0  0  0  0  0
   41.4929   34.9055   41.4884 C   0  0  0  0  0  0  0  0  0  0  0  0
   43.8740   35.6488   40.7932 O   0  0  0  0  0  0  0  0  0  0  0  0
   45.1135   35.0607   41.1306 C   0  0  0  0  0  0  0  0  0  0  0  0
   45.9631   35.7364   40.9969 H   0  0  0  0  0  0  0  0  0  0  0  0
   44.8842   34.7299   42.5084 O   0  0  0  0  0  0  0  0  0  0  0  0
   39.7149   34.1024   42.4115 H   0  0  0  0  0  0  0  0  0  0  0  0
   40.9910   35.3582   40.6424 H   0  0  0  0  0  0  0  0  0  0  0  0
   45.2829   34.0786   40.6267 H   0  0  0  0  0  0  0  0  0  0  0  0
  1  9  1  0
  1  2  2  0
  3  2  1  0
  4  3  2  0
  5  6  2  0
  5  4  1  0
  6  1  1  0
  8  7  2  0
  8 14  1  0
  9  8  1  0
 10 11  1  0
 10  9  2  0
 11 12  2  0
 12  7  1  0
 13 11  1  0
 14 17  1  0
 14 16  1  0
 15 14  1  0
 18  5  1  0
 19 18  1  0
 20 19  2  0
 21 20  1  0
 21 22  1  0
 22 18  2  0
  2 23  1  0
  3 24  1  0
  4 25  1  0
  7 26  1  0
 13 27  1  0
 13 28  1  0
 19 29  1  0
 20 30  1  0
 31 32  2  0
 32 33  1  0
 33 34  1  0
 33 35  2  0
 35 36  1  0
 36 37  2  0
 36 38  1  0
 38 39  1  0
 39 40  1  0
 39 41  1  0
 37 31  1  0
 41 35  1  0
 31 42  1  0
 37 43  1  0
 39 44  1  0
 21 32  1  0
M  ISO  8  23  14  24  14  25  14  26  14  29  14  30  14  34  16  40   8
M  END
>  <DihAtoms>  (1) 
19,20,31,30

>  <DihDeg>  (1) 
110.22330335047667

$$$$
