
     RDKit          3D

 43 47  0  0  0  0  0  0  0  0999 V2000
   35.8184   30.5381   49.0741 C   0  0  1  0  0  0  0  0  0  0  0  0
   35.9062   29.1160   48.8364 C   0  0  1  0  0  0  0  0  0  0  0  0
   36.0733   29.5783   50.2467 C   0  0  0  0  0  0  0  0  0  0  0  0
   37.0065   31.4539   48.8276 C   0  0  0  0  0  0  0  0  0  0  0  0
   37.1865   32.5219   49.7064 C   0  0  0  0  0  0  0  0  0  0  0  0
   38.2726   33.3393   49.4152 C   0  0  0  0  0  0  0  0  0  0  0  0
   39.0829   33.0910   48.3444 N   0  0  0  0  0  0  0  0  0  0  0  0
   38.8665   32.0344   47.5138 C   0  0  0  0  0  0  0  0  0  0  0  0
   37.8117   31.2051   47.7623 N   0  0  0  0  0  0  0  0  0  0  0  0
   33.9677   29.0773   47.3764 C   0  0  2  0  0  0  0  0  0  0  0  0
   34.7379   28.2817   48.4194 C   0  0  2  0  0  0  0  0  0  0  0  0
   33.8711   28.0716   49.4451 O   0  0  0  0  0  0  0  0  0  0  0  0
   32.5781   28.1456   49.0059 C   0  0  0  0  0  0  0  0  0  0  0  0
   32.6027   28.3931   47.5112 C   0  0  1  0  0  0  0  0  0  0  0  0
   34.4755   28.9486   46.0979 O   0  0  0  0  0  0  0  0  0  0  0  0
   31.5884   29.1772   47.0391 O   0  0  0  0  0  0  0  0  0  0  0  0
   34.8956   31.1345   49.2830 H   0  0  0  0  0  0  0  0  0  0  0  0
   36.8419   28.7952   48.2877 H   0  0  0  0  0  0  0  0  0  0  0  0
   35.2566   29.3660   50.9530 H   0  0  0  0  0  0  0  0  0  0  0  0
   37.1103   29.5144   50.6587 H   0  0  0  0  0  0  0  0  0  0  0  0
   36.5493   32.7055   50.5362 H   0  0  0  0  0  0  0  0  0  0  0  0
   38.5171   34.1898   50.0127 H   0  0  0  0  0  0  0  0  0  0  0  0
   39.5335   31.8768   46.6786 H   0  0  0  0  0  0  0  0  0  0  0  0
   33.8793   30.1329   47.6411 H   0  0  0  0  0  0  0  0  0  0  0  0
   35.0178   27.3165   47.9532 H   0  0  0  0  0  0  0  0  0  0  0  0
   31.9889   27.2215   49.2381 H   0  0  0  0  0  0  0  0  0  0  0  0
   32.0455   28.9872   49.4819 H   0  0  0  0  0  0  0  0  0  0  0  0
   32.7214   27.3996   47.0100 H   0  0  0  0  0  0  0  0  0  0  0  0
   34.3712   29.7551   45.5532 H   0  0  0  0  0  0  0  0  0  0  0  0
   30.8382   29.1061   44.6622 C   0  0  0  0  0  0  0  0  0  0  0  0
   30.7074   28.8600   46.0131 C   0  0  0  0  0  0  0  0  0  0  0  0
   29.5682   28.2113   46.4899 C   0  0  0  0  0  0  0  0  0  0  0  0
   29.3765   27.9733   47.5429 H   0  0  0  0  0  0  0  0  0  0  0  0
   28.5693   27.8107   45.6359 C   0  0  0  0  0  0  0  0  0  0  0  0
   28.7212   28.0679   44.2832 C   0  0  0  0  0  0  0  0  0  0  0  0
   29.8507   28.7143   43.7858 C   0  0  0  0  0  0  0  0  0  0  0  0
   27.5930   27.5734   43.6361 O   0  0  0  0  0  0  0  0  0  0  0  0
   26.8692   26.7308   44.5203 C   0  0  1  0  0  0  0  0  0  0  0  0
   25.7572   26.9190   44.4643 H   0  0  0  0  0  0  0  0  0  0  0  0
   27.3513   27.1635   45.7949 O   0  0  0  0  0  0  0  0  0  0  0  0
   31.7549   29.6129   44.3928 H   0  0  0  0  0  0  0  0  0  0  0  0
   29.9786   28.9175   42.7470 H   0  0  0  0  0  0  0  0  0  0  0  0
   27.0952   25.6479   44.3617 H   0  0  0  0  0  0  0  0  0  0  0  0
  1  3  1  0
  2  1  1  0
  2  3  1  0
  4  1  1  0
  4  5  2  0
  6  5  1  0
  7  6  2  0
  8  9  2  0
  8  7  1  0
  9  4  1  0
 10 15  1  0
 10 14  1  0
 10 11  1  0
 11  2  1  0
 11 12  1  0
 13 12  1  0
 14 16  1  0
 14 13  1  0
  1 17  1  1
  2 18  1  6
  3 19  1  0
  3 20  1  0
  5 21  1  0
  6 22  1  0
  8 23  1  0
 10 24  1  1
 11 25  1  6
 13 26  1  0
 13 27  1  0
 14 28  1  6
 15 29  1  0
 30 31  2  0
 31 32  1  0
 32 33  1  0
 32 34  2  0
 34 35  1  0
 35 36  2  0
 35 37  1  0
 37 38  1  0
 38 39  1  1
 38 40  1  0
 36 30  1  0
 40 34  1  0
 30 41  1  0
 36 42  1  0
 38 43  1  0
 16 31  1  0
M  ISO  8  17  13  18  13  19  13  20  13  21  14  22  14  23  14  24  13
M  ISO  7  25  13  26  13  27  13  28  13  29   3  33  16  39   8
M  END
>  <DihAtoms>  (1) 
13,15,30,29

>  <DihDeg>  (1) 
0.0017505679688648672

$$$$
