
     RDKit          3D

 31 33  0  0  0  0  0  0  0  0999 V2000
   37.3486   30.2057   51.3998 C   0  0  0  0  0  0  0  0  0  0  0  0
   37.9996   30.7145   50.2644 C   0  0  0  0  0  0  0  0  0  0  0  0
   37.5184   30.3696   49.0030 C   0  0  0  0  0  0  0  0  0  0  0  0
   36.4358   29.5528   48.9087 N   0  0  0  0  0  0  0  0  0  0  0  0
   35.8504   29.0938   50.0278 C   0  0  0  0  0  0  0  0  0  0  0  0
   36.2831   29.4026   51.2620 N   0  0  0  0  0  0  0  0  0  0  0  0
   38.1596   30.8647   47.8205 C   0  0  0  0  0  0  0  0  0  0  0  0
   38.7692   32.0190   47.8041 C   0  0  0  0  0  0  0  0  0  0  0  0
   39.4387   32.4908   46.5384 C   0  0  0  0  0  0  0  0  0  0  0  0
   38.2956   32.2966   45.1433 S   0  0  0  0  0  0  0  0  0  0  0  0
   37.7110   30.4645   52.3833 H   0  0  0  0  0  0  0  0  0  0  0  0
   38.8765   31.3758   50.3701 H   0  0  0  0  0  0  0  0  0  0  0  0
   34.9818   28.4375   50.0537 H   0  0  0  0  0  0  0  0  0  0  0  0
   38.1425   30.2735   46.9133 H   0  0  0  0  0  0  0  0  0  0  0  0
   38.7965   32.6260   48.6990 H   0  0  0  0  0  0  0  0  0  0  0  0
   40.2720   31.8097   46.3687 H   0  0  0  0  0  0  0  0  0  0  0  0
   39.7062   33.5575   46.6530 H   0  0  0  0  0  0  0  0  0  0  0  0
   35.7242   33.0644   45.9113 C   0  0  0  0  0  0  0  0  0  0  0  0
   36.8949   33.3865   45.2759 C   0  0  0  0  0  0  0  0  0  0  0  0
   36.9746   34.6237   44.7094 C   0  0  0  0  0  0  0  0  0  0  0  0
   37.8543   34.9426   44.2000 H   0  0  0  0  0  0  0  0  0  0  0  0
   35.9304   35.5086   44.7712 C   0  0  0  0  0  0  0  0  0  0  0  0
   34.7523   35.1418   45.4293 C   0  0  0  0  0  0  0  0  0  0  0  0
   34.6327   33.8995   46.0150 C   0  0  0  0  0  0  0  0  0  0  0  0
   33.8527   36.2157   45.3484 O   0  0  0  0  0  0  0  0  0  0  0  0
   34.3207   37.0545   44.2920 C   0  0  1  0  0  0  0  0  0  0  0  0
   33.9664   36.6931   43.2891 H   0  0  0  0  0  0  0  0  0  0  0  0
   35.7295   36.8177   44.2923 O   0  0  0  0  0  0  0  0  0  0  0  0
   35.6321   32.0890   46.3695 H   0  0  0  0  0  0  0  0  0  0  0  0
   33.7212   33.6548   46.5080 H   0  0  0  0  0  0  0  0  0  0  0  0
   34.0522   38.0938   44.5008 H   0  0  0  0  0  0  0  0  0  0  0  0
  2  1  2  0
  3  2  1  0
  4  3  2  0
  4  5  1  0
  5  6  2  0
  6  1  1  0
  7  3  1  0
  8  7  2  0
  9  8  1  0
 10  9  1  0
  1 11  1  0
  2 12  1  0
  5 13  1  0
  7 14  1  0
  8 15  1  0
  9 16  1  0
  9 17  1  0
 18 19  2  0
 19 20  1  0
 20 21  1  0
 20 22  2  0
 22 23  1  0
 23 24  2  0
 23 25  1  0
 25 26  1  0
 26 27  1  6
 26 28  1  0
 24 18  1  0
 28 22  1  0
 18 29  1  0
 24 30  1  0
 26 31  1  0
 10 19  1  0
M  ISO  7  11  14  12  14  13  14  16   8  17   8  21  16  27   8
M  END
>  <DihAtoms>  (1) 
8,9,18,17

>  <DihDeg>  (1) 
-179.76519736593053

$$$$
