
     RDKit          3D

 31 33  0  0  0  0  0  0  0  0999 V2000
   37.3486   30.2057   51.3998 C   0  0  0  0  0  0  0  0  0  0  0  0
   37.9996   30.7145   50.2644 C   0  0  0  0  0  0  0  0  0  0  0  0
   37.5184   30.3696   49.0030 C   0  0  0  0  0  0  0  0  0  0  0  0
   36.4358   29.5528   48.9087 N   0  0  0  0  0  0  0  0  0  0  0  0
   35.8504   29.0938   50.0278 C   0  0  0  0  0  0  0  0  0  0  0  0
   36.2831   29.4026   51.2620 N   0  0  0  0  0  0  0  0  0  0  0  0
   38.1596   30.8647   47.8205 C   0  0  0  0  0  0  0  0  0  0  0  0
   38.7692   32.0190   47.8041 C   0  0  0  0  0  0  0  0  0  0  0  0
   39.4387   32.4908   46.5384 C   0  0  0  0  0  0  0  0  0  0  0  0
   38.2956   32.2966   45.1433 S   0  0  0  0  0  0  0  0  0  0  0  0
   37.7110   30.4645   52.3833 H   0  0  0  0  0  0  0  0  0  0  0  0
   38.8765   31.3758   50.3701 H   0  0  0  0  0  0  0  0  0  0  0  0
   34.9818   28.4375   50.0537 H   0  0  0  0  0  0  0  0  0  0  0  0
   38.1425   30.2735   46.9133 H   0  0  0  0  0  0  0  0  0  0  0  0
   38.7965   32.6260   48.6990 H   0  0  0  0  0  0  0  0  0  0  0  0
   40.2720   31.8097   46.3687 H   0  0  0  0  0  0  0  0  0  0  0  0
   39.7062   33.5575   46.6530 H   0  0  0  0  0  0  0  0  0  0  0  0
   36.3941   34.1288   44.2385 C   0  0  0  0  0  0  0  0  0  0  0  0
   36.8949   33.3865   45.2759 C   0  0  0  0  0  0  0  0  0  0  0  0
   36.2721   33.5051   46.4826 C   0  0  0  0  0  0  0  0  0  0  0  0
   36.6062   32.9575   47.3330 H   0  0  0  0  0  0  0  0  0  0  0  0
   35.1918   34.3305   46.6531 C   0  0  0  0  0  0  0  0  0  0  0  0
   34.7108   35.0715   45.5691 C   0  0  0  0  0  0  0  0  0  0  0  0
   35.3134   34.9789   44.3326 C   0  0  0  0  0  0  0  0  0  0  0  0
   33.6118   35.8259   46.0074 O   0  0  0  0  0  0  0  0  0  0  0  0
   33.6930   35.8657   47.4323 C   0  0  1  0  0  0  0  0  0  0  0  0
   34.3819   36.6801   47.7847 H   0  0  0  0  0  0  0  0  0  0  0  0
   34.3686   34.6480   47.7509 O   0  0  0  0  0  0  0  0  0  0  0  0
   36.8687   34.0554   43.2694 H   0  0  0  0  0  0  0  0  0  0  0  0
   34.9197   35.5573   43.5299 H   0  0  0  0  0  0  0  0  0  0  0  0
   32.6873   35.9313   47.8565 H   0  0  0  0  0  0  0  0  0  0  0  0
  2  1  2  0
  3  2  1  0
  4  3  2  0
  4  5  1  0
  5  6  2  0
  6  1  1  0
  7  3  1  0
  8  7  2  0
  9  8  1  0
 10  9  1  0
  1 11  1  0
  2 12  1  0
  5 13  1  0
  7 14  1  0
  8 15  1  0
  9 16  1  0
  9 17  1  0
 18 19  2  0
 19 20  1  0
 20 21  1  0
 20 22  2  0
 22 23  1  0
 23 24  2  0
 23 25  1  0
 25 26  1  0
 26 27  1  6
 26 28  1  0
 24 18  1  0
 28 22  1  0
 18 29  1  0
 24 30  1  0
 26 31  1  0
 10 19  1  0
M  ISO  7  11  14  12  14  13  14  16   8  17   8  21  16  27   8
M  END
>  <DihAtoms>  (1) 
8,9,18,17

>  <DihDeg>  (1) 
-179.76519736593053

$$$$
