
     RDKit          3D

 47 51  0  0  0  0  0  0  0  0999 V2000
   35.8213   29.1398   49.8053 C   0  0  0  0  0  0  0  0  0  0  0  0
   34.8024   29.6602   50.5699 C   0  0  0  0  0  0  0  0  0  0  0  0
   33.6011   29.1208   50.0887 C   0  0  0  0  0  0  0  0  0  0  0  0
   33.9714   28.2960   49.0494 C   0  0  0  0  0  0  0  0  0  0  0  0
   35.2790   28.3392   48.9199 O   0  0  0  0  0  0  0  0  0  0  0  0
   37.2162   29.4859   50.0290 C   0  0  0  0  0  0  0  0  0  0  0  0
   37.8598   28.8781   50.8950 O   0  0  0  0  0  0  0  0  0  0  0  0
   37.7666   30.5321   49.2134 C   0  0  0  0  0  0  0  0  0  0  0  0
   38.1114   31.7124   49.8493 C   0  0  0  0  0  0  0  0  0  0  0  0
   38.6484   32.7514   49.0853 C   0  0  0  0  0  0  0  0  0  0  0  0
   38.8069   32.5448   47.7321 N   0  0  0  0  0  0  0  0  0  0  0  0
   38.4621   31.3904   47.1531 C   0  0  0  0  0  0  0  0  0  0  0  0
   37.9460   30.3882   47.8803 N   0  0  0  0  0  0  0  0  0  0  0  0
   33.0635   27.4997   48.2264 C   0  0  0  0  0  0  0  0  0  0  0  0
   31.8423   27.4080   48.5855 O   0  0  0  0  0  0  0  0  0  0  0  0
   33.5606   26.8041   46.9955 C   0  0  1  0  0  0  0  0  0  0  0  0
   33.7884   25.2716   47.2979 C   0  0  0  0  0  0  0  0  0  0  0  0
   32.7754   25.7692   46.3340 C   0  0  1  0  0  0  0  0  0  0  0  0
   34.8251   30.3586   51.4044 H   0  0  0  0  0  0  0  0  0  0  0  0
   32.5861   29.2645   50.4003 H   0  0  0  0  0  0  0  0  0  0  0  0
   37.9655   31.8224   50.9190 H   0  0  0  0  0  0  0  0  0  0  0  0
   38.9071   33.6574   49.6076 H   0  0  0  0  0  0  0  0  0  0  0  0
   38.6294   31.3383   46.0894 H   0  0  0  0  0  0  0  0  0  0  0  0
   34.5290   27.2014   46.6301 H   0  0  0  0  0  0  0  0  0  0  0  0
   34.6973   24.8111   46.9255 H   0  0  0  0  0  0  0  0  0  0  0  0
   33.4191   24.8878   48.2459 H   0  0  0  0  0  0  0  0  0  0  0  0
   33.0393   25.6012   45.2492 H   0  0  0  0  0  0  0  0  0  0  0  0
   31.3427   25.5140   46.6361 C   0  0  0  0  0  0  0  0  0  0  0  0
   30.5540   26.8081   46.7171 C   0  0  2  0  0  0  0  0  0  0  0  0
   31.0301   27.7472   47.7638 C   0  0  0  0  0  0  0  0  0  0  0  0
   31.8792   28.3612   47.4173 H   0  0  0  0  0  0  0  0  0  0  0  0
   29.0989   26.4435   46.7954 C   0  0  0  0  0  0  0  0  0  0  0  0
   28.3459   27.2946   45.9252 N   0  0  0  0  0  0  0  0  0  0  0  0
   27.4091   28.2160   45.3735 C   0  0  0  0  0  0  0  0  0  0  0  0
   26.3457   28.7784   45.7478 O   0  0  0  0  0  0  0  0  0  0  0  0
   28.1283   28.3385   44.0803 C   0  0  2  0  0  0  0  0  0  0  0  0
   28.7391   29.2398   43.9372 H   0  0  0  0  0  0  0  0  0  0  0  0
   28.9120   27.1741   44.5721 C   0  0  1  0  0  0  0  0  0  0  0  0
   30.6544   27.5357   45.0340 S   0  0  0  0  0  0  0  0  0  0  0  0
   30.8745   24.9653   45.7827 H   0  0  0  0  0  0  0  0  0  0  0  0
   31.2788   24.9347   47.5991 H   0  0  0  0  0  0  0  0  0  0  0  0
   31.2701   27.1667   48.6777 H   0  0  0  0  0  0  0  0  0  0  0  0
   30.1891   28.4319   48.0105 H   0  0  0  0  0  0  0  0  0  0  0  0
   28.6870   26.5218   47.8202 H   0  0  0  0  0  0  0  0  0  0  0  0
   28.9323   25.4017   46.4507 H   0  0  0  0  0  0  0  0  0  0  0  0
   27.4610   28.0605   43.2290 H   0  0  0  0  0  0  0  0  0  0  0  0
   28.7722   26.1963   44.1136 H   0  0  0  0  0  0  0  0  0  0  0  0
  1  6  1  0
  1  2  2  0
  3  2  1  0
  4  3  2  0
  5  4  1  0
  5  1  1  0
  6  7  2  0
  8  9  2  0
  8  6  1  0
 10  9  1  0
 11 10  2  0
 12 11  1  0
 12 13  2  0
 13  8  1  0
 14 15  2  0
 14  4  1  0
 16 17  1  0
 16 14  1  0
 18 16  1  0
 18 17  1  0
  2 19  1  0
  3 20  1  0
  9 21  1  0
 10 22  1  0
 12 23  1  0
 16 24  1  6
 17 25  1  0
 17 26  1  0
 18 27  1  6
 29 28  1  6
 29 30  1  0
 30 31  1  0
 29 32  1  0
 32 33  1  0
 33 34  1  0
 34 35  2  0
 34 36  1  0
 36 37  1  6
 36 38  1  0
 38 39  1  0
 39 29  1  0
 38 33  1  0
 28 40  1  0
 28 41  1  0
 30 42  1  0
 30 43  1  0
 32 44  1  0
 32 45  1  0
 36 46  1  0
 38 47  1  6
 18 28  1  0
M  ISO  8  19  14  20  14  21  14  22  14  23  14  24  13  25  13  26  13
M  ISO  3  27  13  31   8  37  15
M  END
>  <DihAtoms>  (1) 
15,17,27,28

>  <DihDeg>  (1) 
-179.99992915267362

$$$$
