
     RDKit          3D

 47 51  0  0  1  0  0  0  0  0999 V2000
   33.0180   27.4740   48.1060 C   0  0  0  0  0  0  0  0  0  0  0  0
   31.7760   27.4460   48.3980 O   0  0  0  0  0  0  0  0  0  0  0  0
   35.7510   29.0910   49.7520 C   0  0  0  0  0  0  0  0  0  0  0  0
   34.7210   29.5890   50.5170 C   0  0  0  0  0  0  0  0  0  0  0  0
   33.5280   29.0560   50.0100 C   0  0  0  0  0  0  0  0  0  0  0  0
   33.9130   28.2560   48.9560 C   0  0  0  0  0  0  0  0  0  0  0  0
   35.2220   28.3070   48.8430 O   0  0  0  0  0  0  0  0  0  0  0  0
   37.1410   29.4380   49.9990 C   0  0  0  0  0  0  0  0  0  0  0  0
   37.7720   28.8270   50.8740 O   0  0  0  0  0  0  0  0  0  0  0  0
   37.7040   30.4870   49.1960 C   0  0  0  0  0  0  0  0  0  0  0  0
   38.0450   31.6620   49.8430 C   0  0  0  0  0  0  0  0  0  0  0  0
   38.5940   32.7040   49.0910 C   0  0  0  0  0  0  0  0  0  0  0  0
   38.7660   32.5060   47.7380 N   0  0  0  0  0  0  0  0  0  0  0  0
   38.4230   31.3560   47.1480 C   0  0  0  0  0  0  0  0  0  0  0  0
   37.8960   30.3510   47.8640 N   0  0  0  0  0  0  0  0  0  0  0  0
   33.5530   26.7200   46.9260 C   0  0  1  0  0  0  0  0  0  0  0  0
   33.8050   25.2130   47.3200 C   0  0  0  0  0  0  0  0  0  0  0  0
   32.8000   25.6320   46.3120 C   0  0  1  0  0  0  0  0  0  0  0  0
   31.3680   25.3640   46.6030 C   0  0  0  0  0  0  0  0  0  0  0  0
   30.6670   24.7390   45.4110 C   0  0  2  0  0  0  0  0  0  0  0  0
   29.2590   24.4280   45.8310 C   0  0  0  0  0  0  0  0  0  0  0  0
   28.8980   23.1240   45.3640 N   0  0  0  0  0  0  0  0  0  0  0  0
   28.2590   22.0130   44.7400 C   0  0  0  0  0  0  0  0  0  0  0  0
   27.1620   21.7920   44.1620 O   0  0  0  0  0  0  0  0  0  0  0  0
   29.3870   21.0830   44.9960 C   0  0  0  0  0  0  0  0  0  0  0  0
   29.8910   22.1680   45.8790 C   0  0  1  0  0  0  0  0  0  0  0  0
   31.3820   23.0530   45.2670 S   0  0  0  0  0  0  0  0  0  0  0  0
   30.7990   25.5140   44.1530 C   0  0  0  0  0  0  0  0  0  0  0  0
   34.8165   30.2781   51.3690 H   0  0  0  0  0  0  0  0  0  0  0  0
   32.5060   29.2370   50.3744 H   0  0  0  0  0  0  0  0  0  0  0  0
   37.8872   31.7732   50.9259 H   0  0  0  0  0  0  0  0  0  0  0  0
   38.8805   33.6544   49.5650 H   0  0  0  0  0  0  0  0  0  0  0  0
   38.5743   31.2328   46.0655 H   0  0  0  0  0  0  0  0  0  0  0  0
   34.0678   27.5845   46.4815 H   0  0  0  0  0  0  0  0  0  0  0  0
   34.7279   24.7012   47.0095 H   0  0  0  0  0  0  0  0  0  0  0  0
   33.8035   24.6217   48.2476 H   0  0  0  0  0  0  0  0  0  0  0  0
   32.6124   25.4007   45.2531 H   0  0  0  0  0  0  0  0  0  0  0  0
   31.2995   24.6766   47.4590 H   0  0  0  0  0  0  0  0  0  0  0  0
   30.8764   26.3215   46.8301 H   0  0  0  0  0  0  0  0  0  0  0  0
   29.1891   24.4567   46.9284 H   0  0  0  0  0  0  0  0  0  0  0  0
   28.5749   25.1738   45.4000 H   0  0  0  0  0  0  0  0  0  0  0  0
   29.1181   20.1470   45.5075 H   0  0  0  0  0  0  0  0  0  0  0  0
   29.9879   20.6266   44.1956 H   0  0  0  0  0  0  0  0  0  0  0  0
   30.0559   21.8419   46.9165 H   0  0  0  0  0  0  0  0  0  0  0  0
   30.9793   26.5726   44.3917 H   0  0  0  0  0  0  0  0  0  0  0  0
   31.6432   25.1213   43.5672 H   0  0  0  0  0  0  0  0  0  0  0  0
   29.8724   25.4229   43.5672 H   0  0  0  0  0  0  0  0  0  0  0  0
  1  2  2  0
  1  6  1  0
  3  8  1  0
  3  4  2  0
  5  4  1  0
  6  5  2  0
  7  6  1  0
  7  3  1  0
  8  9  2  0
 10 11  2  0
 10  8  1  0
 12 11  1  0
 13 12  2  0
 14 13  1  0
 14 15  2  0
 15 10  1  0
 16 17  1  0
 16  1  1  0
 18 19  1  0
 18 16  1  0
 18 17  1  0
 20 28  1  6
 20 21  1  0
 20 19  1  0
 22 21  1  0
 22 26  1  0
 23 25  1  0
 23 22  1  0
 24 23  2  0
 26 25  1  0
 27 20  1  0
 27 26  1  0
  4 29  1  0
  5 30  1  0
 11 31  1  0
 12 32  1  0
 14 33  1  0
 16 34  1  6
 17 35  1  0
 17 36  1  0
 18 37  1  6
 19 38  1  0
 19 39  1  0
 21 40  1  0
 21 41  1  0
 25 42  1  0
 25 43  1  0
 26 44  1  1
 28 45  1  0
 28 46  1  0
 28 47  1  0
M  ISO  8  29  14  30  14  31  14  32  14  33  14  34  13  35  13  36  13
M  ISO  8  37  13  38   8  39   8  40  13  41  13  42  13  43  13  44  13
M  ISO  3  45   8  46   8  47   8
M  END
>  <minimizedAffinity>  (1) 
-5.45121527

>  <minimizedRMSD>  (1) 
0.809831738

$$$$
