
     RDKit          3D

 31 33  0  0  0  0  0  0  0  0999 V2000
   37.2680   30.1833   51.4288 C   0  0  0  0  0  0  0  0  0  0  0  0
   38.0936   30.7584   50.4565 C   0  0  0  0  0  0  0  0  0  0  0  0
   37.8058   30.4981   49.1090 C   0  0  0  0  0  0  0  0  0  0  0  0
   36.7348   29.6972   48.8248 N   0  0  0  0  0  0  0  0  0  0  0  0
   35.9667   29.1639   49.7774 C   0  0  0  0  0  0  0  0  0  0  0  0
   36.2291   29.4033   51.0634 N   0  0  0  0  0  0  0  0  0  0  0  0
   34.8241   28.3107   49.5073 C   0  0  0  0  0  0  0  0  0  0  0  0
   33.6278   28.7182   49.5518 O   0  0  0  0  0  0  0  0  0  0  0  0
   37.4326   30.3425   52.4903 H   0  0  0  0  0  0  0  0  0  0  0  0
   38.9171   31.3775   50.7706 H   0  0  0  0  0  0  0  0  0  0  0  0
   38.4283   30.9304   48.3396 H   0  0  0  0  0  0  0  0  0  0  0  0
   32.6252   23.3536   46.5505 C   0  0  0  0  0  0  0  0  0  0  0  0
   32.9209   23.1413   45.5223 H   0  0  0  0  0  0  0  0  0  0  0  0
   33.8287   23.8269   47.3429 C   0  0  0  0  0  0  0  0  0  0  0  0
   35.0180   22.9567   47.1309 C   0  0  0  0  0  0  0  0  0  0  0  0
   35.6876   22.9059   48.0075 H   0  0  0  0  0  0  0  0  0  0  0  0
   33.3871   23.9741   48.7678 C   0  0  0  0  0  0  0  0  0  0  0  0
   34.0618   25.0902   49.3528 N   0  0  0  0  0  0  0  0  0  0  0  0
   34.8376   25.9104   50.2280 C   0  0  0  0  0  0  0  0  0  0  0  0
   35.2094   25.9083   51.4304 O   0  0  0  0  0  0  0  0  0  0  0  0
   35.1113   26.8927   49.1645 C   0  0  1  0  0  0  0  0  0  0  0  0
   33.8803   26.2804   48.5420 C   0  0  1  0  0  0  0  0  0  0  0  0
   34.1409   25.5597   46.8849 S   0  0  0  0  0  0  0  0  0  0  0  0
   32.1346   22.4934   47.0674 H   0  0  0  0  0  0  0  0  0  0  0  0
   31.8936   24.2019   46.5675 H   0  0  0  0  0  0  0  0  0  0  0  0
   35.5617   23.2620   46.2013 H   0  0  0  0  0  0  0  0  0  0  0  0
   34.6378   21.9303   46.9029 H   0  0  0  0  0  0  0  0  0  0  0  0
   32.2662   24.0489   48.8656 H   0  0  0  0  0  0  0  0  0  0  0  0
   33.6593   23.0541   49.2854 H   0  0  0  0  0  0  0  0  0  0  0  0
   36.0453   26.6882   48.6342 H   0  0  0  0  0  0  0  0  0  0  0  0
   32.9509   26.8309   48.6654 H   0  0  0  0  0  0  0  0  0  0  0  0
  2  1  2  0
  3  2  1  0
  4  3  2  0
  4  5  1  0
  5  6  2  0
  6  1  1  0
  7  8  2  0
  7  5  1  0
  1  9  1  0
  2 10  1  0
  3 11  1  0
 12 13  1  0
 12 14  1  0
 14 15  1  0
 15 16  1  0
 14 17  1  0
 17 18  1  0
 18 19  1  0
 19 20  2  0
 19 21  1  0
 21 22  1  0
 22 23  1  0
 23 14  1  0
 22 18  1  0
 12 24  1  0
 12 25  1  0
 15 26  1  0
 15 27  1  0
 17 28  1  0
 17 29  1  0
 21 30  1  6
 22 31  1  6
  7 21  1  0
M  ISO  5   9  14  10  14  11  14  13   8  16   8
M  END
>  <DihAtoms>  (1) 
7,6,20,18

>  <DihDeg>  (1) 
-119.99777583658208

$$$$
