
     RDKit          3D

 31 33  0  0  0  0  0  0  0  0999 V2000
   37.2680   30.1833   51.4288 C   0  0  0  0  0  0  0  0  0  0  0  0
   38.0936   30.7584   50.4565 C   0  0  0  0  0  0  0  0  0  0  0  0
   37.8058   30.4981   49.1090 C   0  0  0  0  0  0  0  0  0  0  0  0
   36.7348   29.6972   48.8248 N   0  0  0  0  0  0  0  0  0  0  0  0
   35.9667   29.1639   49.7774 C   0  0  0  0  0  0  0  0  0  0  0  0
   36.2291   29.4033   51.0634 N   0  0  0  0  0  0  0  0  0  0  0  0
   34.8241   28.3107   49.5073 C   0  0  0  0  0  0  0  0  0  0  0  0
   33.6278   28.7182   49.5518 O   0  0  0  0  0  0  0  0  0  0  0  0
   37.4326   30.3425   52.4903 H   0  0  0  0  0  0  0  0  0  0  0  0
   38.9171   31.3775   50.7706 H   0  0  0  0  0  0  0  0  0  0  0  0
   38.4283   30.9304   48.3396 H   0  0  0  0  0  0  0  0  0  0  0  0
   34.7371   24.1755   44.9200 C   0  0  0  0  0  0  0  0  0  0  0  0
   35.6330   23.9789   44.3298 H   0  0  0  0  0  0  0  0  0  0  0  0
   35.1081   24.3180   46.3837 C   0  0  0  0  0  0  0  0  0  0  0  0
   36.0130   23.2280   46.8421 C   0  0  0  0  0  0  0  0  0  0  0  0
   35.8856   22.9700   47.9082 H   0  0  0  0  0  0  0  0  0  0  0  0
   33.8276   24.4542   47.1510 C   0  0  0  0  0  0  0  0  0  0  0  0
   34.0317   25.3521   48.2442 N   0  0  0  0  0  0  0  0  0  0  0  0
   34.0766   25.9191   49.5546 C   0  0  0  0  0  0  0  0  0  0  0  0
   33.5168   25.7495   50.6690 O   0  0  0  0  0  0  0  0  0  0  0  0
   35.1113   26.8927   49.1645 C   0  0  1  0  0  0  0  0  0  0  0  0
   34.5885   26.6087   47.7775 C   0  0  1  0  0  0  0  0  0  0  0  0
   35.8362   25.9702   46.6074 S   0  0  0  0  0  0  0  0  0  0  0  0
   33.9356   23.4073   44.7962 H   0  0  0  0  0  0  0  0  0  0  0  0
   34.2926   25.1589   44.6190 H   0  0  0  0  0  0  0  0  0  0  0  0
   37.0756   23.4743   46.5912 H   0  0  0  0  0  0  0  0  0  0  0  0
   35.7847   22.3277   46.2196 H   0  0  0  0  0  0  0  0  0  0  0  0
   32.9637   24.7632   46.4954 H   0  0  0  0  0  0  0  0  0  0  0  0
   33.5669   23.4621   47.5201 H   0  0  0  0  0  0  0  0  0  0  0  0
   36.1242   26.5292   49.3578 H   0  0  0  0  0  0  0  0  0  0  0  0
   33.8964   27.3373   47.3627 H   0  0  0  0  0  0  0  0  0  0  0  0
  2  1  2  0
  3  2  1  0
  4  3  2  0
  4  5  1  0
  5  6  2  0
  6  1  1  0
  7  8  2  0
  7  5  1  0
  1  9  1  0
  2 10  1  0
  3 11  1  0
 12 13  1  0
 12 14  1  0
 14 15  1  0
 15 16  1  0
 14 17  1  0
 17 18  1  0
 18 19  1  0
 19 20  2  0
 19 21  1  0
 21 22  1  0
 22 23  1  0
 23 14  1  0
 22 18  1  0
 12 24  1  0
 12 25  1  0
 15 26  1  0
 15 27  1  0
 17 28  1  0
 17 29  1  0
 21 30  1  6
 22 31  1  6
  7 21  1  0
M  ISO  5   9  14  10  14  11  14  13   8  16   8
M  END
>  <DihAtoms>  (1) 
7,6,20,18

>  <DihDeg>  (1) 
-119.99777583658208

$$$$
