
     RDKit          3D

 41 44  0  0  0  0  0  0  0  0999 V2000
   38.8818   31.8845   47.7691 C   0  0  0  0  0  0  0  0  0  0  0  0
   38.3574   32.1195   49.0239 C   0  0  0  0  0  0  0  0  0  0  0  0
   38.6799   33.3647   49.5601 C   0  0  0  0  0  0  0  0  0  0  0  0
   39.4730   34.2837   48.8616 C   0  0  0  0  0  0  0  0  0  0  0  0
   39.9549   33.9583   47.6056 C   0  0  0  0  0  0  0  0  0  0  0  0
   39.6527   32.7265   47.0419 C   0  0  0  0  0  0  0  0  0  0  0  0
   36.2082   30.9961   49.3714 C   0  0  0  0  0  0  0  0  0  0  0  0
   37.5516   31.1907   49.7379 C   0  0  0  0  0  0  0  0  0  0  0  0
   38.0183   30.4381   50.8084 C   0  0  0  0  0  0  0  0  0  0  0  0
   37.1694   29.5700   51.4337 N   0  0  0  0  0  0  0  0  0  0  0  0
   35.8914   29.4123   51.0535 C   0  0  0  0  0  0  0  0  0  0  0  0
   35.4022   30.1339   50.0088 N   0  0  0  0  0  0  0  0  0  0  0  0
   38.6085   30.6495   47.1455 O   0  0  0  0  0  0  0  0  0  0  0  0
   40.1498   32.4271   45.7805 O   0  0  0  0  0  0  0  0  0  0  0  0
   38.3297   33.6676   50.5352 H   0  0  0  0  0  0  0  0  0  0  0  0
   39.7242   35.2513   49.2772 H   0  0  0  0  0  0  0  0  0  0  0  0
   40.5697   34.6541   47.0487 H   0  0  0  0  0  0  0  0  0  0  0  0
   35.7911   31.5607   48.5390 H   0  0  0  0  0  0  0  0  0  0  0  0
   35.3839   28.6842   51.6679 H   0  0  0  0  0  0  0  0  0  0  0  0
   37.6936   30.5996   46.6851 H   0  0  0  0  0  0  0  0  0  0  0  0
   40.9256   31.8254   45.5824 H   0  0  0  0  0  0  0  0  0  0  0  0
   39.4361   30.6342   51.2058 C   0  0  0  0  0  0  0  0  0  0  0  0
   39.4237   31.4448   52.4637 C   0  0  2  0  0  0  0  0  0  0  0  0
   38.6962   30.7974   53.5904 C   0  0  0  0  0  0  0  0  0  0  0  0
   38.2189   29.8845   53.2372 H   0  0  0  0  0  0  0  0  0  0  0  0
   39.0169   32.8841   52.2061 C   0  0  0  0  0  0  0  0  0  0  0  0
   39.4090   33.6212   53.3815 N   0  0  0  0  0  0  0  0  0  0  0  0
   39.3781   34.4367   54.5718 C   0  0  0  0  0  0  0  0  0  0  0  0
   38.6459   35.3793   54.9694 O   0  0  0  0  0  0  0  0  0  0  0  0
   40.5447   33.6673   55.0465 C   0  0  2  0  0  0  0  0  0  0  0  0
   40.3374   32.6988   55.5440 H   0  0  0  0  0  0  0  0  0  0  0  0
   40.8211   33.5197   53.5679 C   0  0  1  0  0  0  0  0  0  0  0  0
   41.1280   31.7833   53.0557 S   0  0  0  0  0  0  0  0  0  0  0  0
   39.9312   29.6773   51.4247 H   0  0  0  0  0  0  0  0  0  0  0  0
   40.0168   31.1622   50.4381 H   0  0  0  0  0  0  0  0  0  0  0  0
   39.3771   30.4755   54.4260 H   0  0  0  0  0  0  0  0  0  0  0  0
   37.9993   31.5320   54.0678 H   0  0  0  0  0  0  0  0  0  0  0  0
   37.9597   33.0340   52.0179 H   0  0  0  0  0  0  0  0  0  0  0  0
   39.6259   33.2351   51.3491 H   0  0  0  0  0  0  0  0  0  0  0  0
   41.2152   34.2987   55.6262 H   0  0  0  0  0  0  0  0  0  0  0  0
   41.4739   34.2663   53.1032 H   0  0  0  0  0  0  0  0  0  0  0  0
  1  2  2  0
  2  3  1  0
  2  8  1  0
  4  3  2  0
  5  4  1  0
  6  5  2  0
  6  1  1  0
  7  8  2  0
  7 12  1  0
  8  9  1  0
  9 10  2  0
 11 10  1  0
 12 11  2  0
 13  1  1  0
 14  6  1  0
  3 15  1  0
  4 16  1  0
  5 17  1  0
  7 18  1  0
 11 19  1  0
 13 20  1  0
 14 21  1  0
 23 22  1  6
 23 24  1  0
 24 25  1  0
 23 26  1  0
 26 27  1  0
 27 28  1  0
 28 29  2  0
 28 30  1  0
 30 31  1  1
 30 32  1  0
 32 33  1  0
 33 23  1  0
 32 27  1  0
 22 34  1  0
 22 35  1  0
 24 36  1  0
 24 37  1  0
 26 38  1  0
 26 39  1  0
 30 40  1  0
 32 41  1  6
  9 22  1  0
M  ISO  8  15  14  16  14  17  14  18  14  19  14  20   3  21   3  25   8
M  ISO  1  31  15
M  END
>  <DihAtoms>  (1) 
7,8,21,22

>  <DihDeg>  (1) 
179.96470319777978

$$$$
