
     RDKit          3D

 31 33  0  0  0  0  0  0  0  0999 V2000
   37.2680   30.1833   51.4288 C   0  0  0  0  0  0  0  0  0  0  0  0
   38.0936   30.7584   50.4565 C   0  0  0  0  0  0  0  0  0  0  0  0
   37.8058   30.4981   49.1090 C   0  0  0  0  0  0  0  0  0  0  0  0
   36.7348   29.6972   48.8248 N   0  0  0  0  0  0  0  0  0  0  0  0
   35.9667   29.1639   49.7774 C   0  0  0  0  0  0  0  0  0  0  0  0
   36.2291   29.4033   51.0634 N   0  0  0  0  0  0  0  0  0  0  0  0
   34.8241   28.3107   49.5073 C   0  0  0  0  0  0  0  0  0  0  0  0
   33.6278   28.7182   49.5518 O   0  0  0  0  0  0  0  0  0  0  0  0
   37.4326   30.3425   52.4903 H   0  0  0  0  0  0  0  0  0  0  0  0
   38.9171   31.3775   50.7706 H   0  0  0  0  0  0  0  0  0  0  0  0
   38.4283   30.9304   48.3396 H   0  0  0  0  0  0  0  0  0  0  0  0
   38.8201   24.5923   46.6166 C   0  0  0  0  0  0  0  0  0  0  0  0
   39.6230   24.1010   47.1676 H   0  0  0  0  0  0  0  0  0  0  0  0
   37.5420   24.5574   47.4324 C   0  0  0  0  0  0  0  0  0  0  0  0
   37.2699   23.2046   47.9918 C   0  0  0  0  0  0  0  0  0  0  0  0
   36.1939   22.9846   48.1065 H   0  0  0  0  0  0  0  0  0  0  0  0
   36.4548   25.1264   46.5714 C   0  0  0  0  0  0  0  0  0  0  0  0
   35.5474   25.8649   47.3927 N   0  0  0  0  0  0  0  0  0  0  0  0
   34.3587   26.3469   48.0215 C   0  0  0  0  0  0  0  0  0  0  0  0
   33.1204   26.3635   47.7974 O   0  0  0  0  0  0  0  0  0  0  0  0
   35.1113   26.8927   49.1645 C   0  0  1  0  0  0  0  0  0  0  0  0
   36.2606   26.8483   48.1873 C   0  0  1  0  0  0  0  0  0  0  0  0
   37.6795   25.8320   48.7233 S   0  0  0  0  0  0  0  0  0  0  0  0
   38.6424   24.1665   45.5992 H   0  0  0  0  0  0  0  0  0  0  0  0
   39.0648   25.6766   46.4758 H   0  0  0  0  0  0  0  0  0  0  0  0
   37.8350   23.0587   48.9469 H   0  0  0  0  0  0  0  0  0  0  0  0
   37.7209   22.4615   47.2887 H   0  0  0  0  0  0  0  0  0  0  0  0
   36.8594   25.7405   45.7167 H   0  0  0  0  0  0  0  0  0  0  0  0
   35.9424   24.2858   46.1032 H   0  0  0  0  0  0  0  0  0  0  0  0
   35.1857   26.1852   49.9947 H   0  0  0  0  0  0  0  0  0  0  0  0
   36.5209   27.7865   47.7036 H   0  0  0  0  0  0  0  0  0  0  0  0
  2  1  2  0
  3  2  1  0
  4  3  2  0
  4  5  1  0
  5  6  2  0
  6  1  1  0
  7  8  2  0
  7  5  1  0
  1  9  1  0
  2 10  1  0
  3 11  1  0
 12 13  1  0
 12 14  1  0
 14 15  1  0
 15 16  1  0
 14 17  1  0
 17 18  1  0
 18 19  1  0
 19 20  2  0
 19 21  1  0
 21 22  1  0
 22 23  1  0
 23 14  1  0
 22 18  1  0
 12 24  1  0
 12 25  1  0
 15 26  1  0
 15 27  1  0
 17 28  1  0
 17 29  1  0
 21 30  1  1
 22 31  1  6
  7 21  1  0
M  ISO  5   9  14  10  14  11  14  13   8  16   8
M  END
>  <DihAtoms>  (1) 
7,6,20,18

>  <DihDeg>  (1) 
-119.99777583658208

$$$$
