
     RDKit          3D

 31 33  0  0  0  0  0  0  0  0999 V2000
   37.2680   30.1833   51.4288 C   0  0  0  0  0  0  0  0  0  0  0  0
   38.0936   30.7584   50.4565 C   0  0  0  0  0  0  0  0  0  0  0  0
   37.8058   30.4981   49.1090 C   0  0  0  0  0  0  0  0  0  0  0  0
   36.7348   29.6972   48.8248 N   0  0  0  0  0  0  0  0  0  0  0  0
   35.9667   29.1639   49.7774 C   0  0  0  0  0  0  0  0  0  0  0  0
   36.2291   29.4033   51.0634 N   0  0  0  0  0  0  0  0  0  0  0  0
   34.8241   28.3107   49.5073 C   0  0  0  0  0  0  0  0  0  0  0  0
   33.6278   28.7182   49.5518 O   0  0  0  0  0  0  0  0  0  0  0  0
   37.4326   30.3425   52.4903 H   0  0  0  0  0  0  0  0  0  0  0  0
   38.9171   31.3775   50.7706 H   0  0  0  0  0  0  0  0  0  0  0  0
   38.4283   30.9304   48.3396 H   0  0  0  0  0  0  0  0  0  0  0  0
   32.2989   23.0815   47.4026 C   0  0  0  0  0  0  0  0  0  0  0  0
   32.3466   22.8266   46.3432 H   0  0  0  0  0  0  0  0  0  0  0  0
   33.6261   23.6632   47.8505 C   0  0  0  0  0  0  0  0  0  0  0  0
   34.7818   22.8469   47.3869 C   0  0  0  0  0  0  0  0  0  0  0  0
   35.6478   22.8825   48.0711 H   0  0  0  0  0  0  0  0  0  0  0  0
   33.5388   23.8682   49.3329 C   0  0  0  0  0  0  0  0  0  0  0  0
   34.2613   25.0505   49.6839 N   0  0  0  0  0  0  0  0  0  0  0  0
   35.1723   25.9600   50.3034 C   0  0  0  0  0  0  0  0  0  0  0  0
   35.8270   26.0468   51.3747 O   0  0  0  0  0  0  0  0  0  0  0  0
   35.1113   26.8927   49.1645 C   0  0  1  0  0  0  0  0  0  0  0  0
   33.8083   26.1808   48.8938 C   0  0  1  0  0  0  0  0  0  0  0  0
   33.7014   25.3810   47.2561 S   0  0  0  0  0  0  0  0  0  0  0  0
   32.0079   22.2275   48.0614 H   0  0  0  0  0  0  0  0  0  0  0  0
   31.5395   23.8891   47.5647 H   0  0  0  0  0  0  0  0  0  0  0  0
   35.0594   23.1269   46.3394 H   0  0  0  0  0  0  0  0  0  0  0  0
   34.4258   21.7903   47.3044 H   0  0  0  0  0  0  0  0  0  0  0  0
   32.4737   23.8886   49.7027 H   0  0  0  0  0  0  0  0  0  0  0  0
   33.9897   22.9953   49.8053 H   0  0  0  0  0  0  0  0  0  0  0  0
   35.8980   26.7082   48.4280 H   0  0  0  0  0  0  0  0  0  0  0  0
   32.9034   26.6870   49.2207 H   0  0  0  0  0  0  0  0  0  0  0  0
  2  1  2  0
  3  2  1  0
  4  3  2  0
  4  5  1  0
  5  6  2  0
  6  1  1  0
  7  8  2  0
  7  5  1  0
  1  9  1  0
  2 10  1  0
  3 11  1  0
 12 13  1  0
 12 14  1  0
 14 15  1  0
 15 16  1  0
 14 17  1  0
 17 18  1  0
 18 19  1  0
 19 20  2  0
 19 21  1  0
 21 22  1  0
 22 23  1  0
 23 14  1  0
 22 18  1  0
 12 24  1  0
 12 25  1  0
 15 26  1  0
 15 27  1  0
 17 28  1  0
 17 29  1  0
 21 30  1  6
 22 31  1  1
  7 21  1  0
M  ISO  5   9  14  10  14  11  14  13   8  16   8
M  END
>  <DihAtoms>  (1) 
7,6,20,18

>  <DihDeg>  (1) 
-119.99777583658208

$$$$
