
     RDKit          3D

 31 33  0  0  0  0  0  0  0  0999 V2000
   37.2680   30.1833   51.4288 C   0  0  0  0  0  0  0  0  0  0  0  0
   38.0936   30.7584   50.4565 C   0  0  0  0  0  0  0  0  0  0  0  0
   37.8058   30.4981   49.1090 C   0  0  0  0  0  0  0  0  0  0  0  0
   36.7348   29.6972   48.8248 N   0  0  0  0  0  0  0  0  0  0  0  0
   35.9667   29.1639   49.7774 C   0  0  0  0  0  0  0  0  0  0  0  0
   36.2291   29.4033   51.0634 N   0  0  0  0  0  0  0  0  0  0  0  0
   34.8241   28.3107   49.5073 C   0  0  0  0  0  0  0  0  0  0  0  0
   33.6278   28.7182   49.5518 O   0  0  0  0  0  0  0  0  0  0  0  0
   37.4326   30.3425   52.4903 H   0  0  0  0  0  0  0  0  0  0  0  0
   38.9171   31.3775   50.7706 H   0  0  0  0  0  0  0  0  0  0  0  0
   38.4283   30.9304   48.3396 H   0  0  0  0  0  0  0  0  0  0  0  0
   38.2251   24.6510   45.8755 C   0  0  0  0  0  0  0  0  0  0  0  0
   39.1692   24.2357   46.2302 H   0  0  0  0  0  0  0  0  0  0  0  0
   37.1914   24.5948   46.9839 C   0  0  0  0  0  0  0  0  0  0  0  0
   37.1547   23.2639   47.6503 C   0  0  0  0  0  0  0  0  0  0  0  0
   36.1566   22.9936   48.0378 H   0  0  0  0  0  0  0  0  0  0  0  0
   35.8911   25.0545   46.3965 C   0  0  0  0  0  0  0  0  0  0  0  0
   35.1662   25.7895   47.3852 N   0  0  0  0  0  0  0  0  0  0  0  0
   34.1390   26.2426   48.2685 C   0  0  0  0  0  0  0  0  0  0  0  0
   32.8852   26.1802   48.3584 O   0  0  0  0  0  0  0  0  0  0  0  0
   35.1113   26.8927   49.1645 C   0  0  1  0  0  0  0  0  0  0  0  0
   35.9861   26.8536   47.9353 C   0  0  1  0  0  0  0  0  0  0  0  0
   37.5569   25.9470   48.1448 S   0  0  0  0  0  0  0  0  0  0  0  0
   37.8317   24.1585   44.9532 H   0  0  0  0  0  0  0  0  0  0  0  0
   38.3557   25.7368   45.6323 H   0  0  0  0  0  0  0  0  0  0  0  0
   37.9451   23.2034   48.4404 H   0  0  0  0  0  0  0  0  0  0  0  0
   37.4674   22.5066   46.8894 H   0  0  0  0  0  0  0  0  0  0  0  0
   36.0323   25.6392   45.4427 H   0  0  0  0  0  0  0  0  0  0  0  0
   35.3361   24.1622   46.1064 H   0  0  0  0  0  0  0  0  0  0  0  0
   35.4336   26.2390   49.9795 H   0  0  0  0  0  0  0  0  0  0  0  0
   36.0573   27.7750   47.3626 H   0  0  0  0  0  0  0  0  0  0  0  0
  2  1  2  0
  3  2  1  0
  4  3  2  0
  4  5  1  0
  5  6  2  0
  6  1  1  0
  7  8  2  0
  7  5  1  0
  1  9  1  0
  2 10  1  0
  3 11  1  0
 12 13  1  0
 12 14  1  0
 14 15  1  0
 15 16  1  0
 14 17  1  0
 17 18  1  0
 18 19  1  0
 19 20  2  0
 19 21  1  0
 21 22  1  0
 22 23  1  0
 23 14  1  0
 22 18  1  0
 12 24  1  0
 12 25  1  0
 15 26  1  0
 15 27  1  0
 17 28  1  0
 17 29  1  0
 21 30  1  1
 22 31  1  6
  7 21  1  0
M  ISO  5   9  14  10  14  11  14  13   8  16   8
M  END
>  <DihAtoms>  (1) 
7,6,20,18

>  <DihDeg>  (1) 
-119.99777583658208

$$$$
