
     RDKit          3D

 41 44  0  0  0  0  0  0  0  0999 V2000
   38.8818   31.8845   47.7691 C   0  0  0  0  0  0  0  0  0  0  0  0
   38.3574   32.1195   49.0239 C   0  0  0  0  0  0  0  0  0  0  0  0
   38.6799   33.3647   49.5601 C   0  0  0  0  0  0  0  0  0  0  0  0
   39.4730   34.2837   48.8616 C   0  0  0  0  0  0  0  0  0  0  0  0
   39.9549   33.9583   47.6056 C   0  0  0  0  0  0  0  0  0  0  0  0
   39.6527   32.7265   47.0419 C   0  0  0  0  0  0  0  0  0  0  0  0
   36.2082   30.9961   49.3714 C   0  0  0  0  0  0  0  0  0  0  0  0
   37.5516   31.1907   49.7379 C   0  0  0  0  0  0  0  0  0  0  0  0
   38.0183   30.4381   50.8084 C   0  0  0  0  0  0  0  0  0  0  0  0
   37.1694   29.5700   51.4337 N   0  0  0  0  0  0  0  0  0  0  0  0
   35.8914   29.4123   51.0535 C   0  0  0  0  0  0  0  0  0  0  0  0
   35.4022   30.1339   50.0088 N   0  0  0  0  0  0  0  0  0  0  0  0
   38.6085   30.6495   47.1455 O   0  0  0  0  0  0  0  0  0  0  0  0
   40.1498   32.4271   45.7805 O   0  0  0  0  0  0  0  0  0  0  0  0
   38.3297   33.6676   50.5352 H   0  0  0  0  0  0  0  0  0  0  0  0
   39.7242   35.2513   49.2772 H   0  0  0  0  0  0  0  0  0  0  0  0
   40.5697   34.6541   47.0487 H   0  0  0  0  0  0  0  0  0  0  0  0
   35.7911   31.5607   48.5390 H   0  0  0  0  0  0  0  0  0  0  0  0
   35.3839   28.6842   51.6679 H   0  0  0  0  0  0  0  0  0  0  0  0
   37.6936   30.5996   46.6851 H   0  0  0  0  0  0  0  0  0  0  0  0
   40.9256   31.8254   45.5824 H   0  0  0  0  0  0  0  0  0  0  0  0
   39.4361   30.6342   51.2058 C   0  0  0  0  0  0  0  0  0  0  0  0
   39.6799   32.1107   51.2210 C   0  0  2  0  0  0  0  0  0  0  0  0
   38.8091   32.8552   52.1724 C   0  0  0  0  0  0  0  0  0  0  0  0
   38.0792   32.1732   52.6061 H   0  0  0  0  0  0  0  0  0  0  0  0
   39.7119   32.6939   49.8203 C   0  0  0  0  0  0  0  0  0  0  0  0
   40.3195   33.9952   49.9487 N   0  0  0  0  0  0  0  0  0  0  0  0
   40.5462   35.4201   49.9193 C   0  0  0  0  0  0  0  0  0  0  0  0
   40.1297   36.3588   49.1926 O   0  0  0  0  0  0  0  0  0  0  0  0
   41.4405   35.2327   51.0783 C   0  0  2  0  0  0  0  0  0  0  0  0
   40.9636   35.1950   52.0782 H   0  0  0  0  0  0  0  0  0  0  0  0
   41.6413   33.8627   50.4723 C   0  0  1  0  0  0  0  0  0  0  0  0
   41.4161   32.4952   51.6769 S   0  0  0  0  0  0  0  0  0  0  0  0
   39.6301   30.2487   52.2169 H   0  0  0  0  0  0  0  0  0  0  0  0
   40.1363   30.1567   50.5079 H   0  0  0  0  0  0  0  0  0  0  0  0
   39.3759   33.2821   53.0452 H   0  0  0  0  0  0  0  0  0  0  0  0
   38.3660   33.7496   51.6652 H   0  0  0  0  0  0  0  0  0  0  0  0
   38.7434   32.7896   49.3423 H   0  0  0  0  0  0  0  0  0  0  0  0
   40.3859   32.0463   49.2245 H   0  0  0  0  0  0  0  0  0  0  0  0
   42.2749   35.9302   51.0405 H   0  0  0  0  0  0  0  0  0  0  0  0
   42.4789   33.7400   49.7774 H   0  0  0  0  0  0  0  0  0  0  0  0
  1  2  2  0
  2  3  1  0
  2  8  1  0
  4  3  2  0
  5  4  1  0
  6  5  2  0
  6  1  1  0
  7  8  2  0
  7 12  1  0
  8  9  1  0
  9 10  2  0
 11 10  1  0
 12 11  2  0
 13  1  1  0
 14  6  1  0
  3 15  1  0
  4 16  1  0
  5 17  1  0
  7 18  1  0
 11 19  1  0
 13 20  1  0
 14 21  1  0
 23 22  1  6
 23 24  1  0
 24 25  1  0
 23 26  1  0
 26 27  1  0
 27 28  1  0
 28 29  2  0
 28 30  1  0
 30 31  1  1
 30 32  1  0
 32 33  1  0
 33 23  1  0
 32 27  1  0
 22 34  1  0
 22 35  1  0
 24 36  1  0
 24 37  1  0
 26 38  1  0
 26 39  1  0
 30 40  1  0
 32 41  1  6
  9 22  1  0
M  ISO  8  15  14  16  14  17  14  18  14  19  14  20   3  21   3  25   8
M  ISO  1  31  15
M  END
>  <DihAtoms>  (1) 
7,8,21,22

>  <DihDeg>  (1) 
179.96470319777978

$$$$
