
     RDKit          3D

 31 33  0  0  0  0  0  0  0  0999 V2000
   37.2680   30.1833   51.4288 C   0  0  0  0  0  0  0  0  0  0  0  0
   38.0936   30.7584   50.4565 C   0  0  0  0  0  0  0  0  0  0  0  0
   37.8058   30.4981   49.1090 C   0  0  0  0  0  0  0  0  0  0  0  0
   36.7348   29.6972   48.8248 N   0  0  0  0  0  0  0  0  0  0  0  0
   35.9667   29.1639   49.7774 C   0  0  0  0  0  0  0  0  0  0  0  0
   36.2291   29.4033   51.0634 N   0  0  0  0  0  0  0  0  0  0  0  0
   34.8241   28.3107   49.5073 C   0  0  0  0  0  0  0  0  0  0  0  0
   33.6278   28.7182   49.5518 O   0  0  0  0  0  0  0  0  0  0  0  0
   37.4326   30.3425   52.4903 H   0  0  0  0  0  0  0  0  0  0  0  0
   38.9171   31.3775   50.7706 H   0  0  0  0  0  0  0  0  0  0  0  0
   38.4283   30.9304   48.3396 H   0  0  0  0  0  0  0  0  0  0  0  0
   34.1099   22.4789   51.4127 C   0  0  0  0  0  0  0  0  0  0  0  0
   33.2742   21.8748   51.0572 H   0  0  0  0  0  0  0  0  0  0  0  0
   34.6789   23.2925   50.2661 C   0  0  0  0  0  0  0  0  0  0  0  0
   34.8915   22.4685   49.0443 C   0  0  0  0  0  0  0  0  0  0  0  0
   35.7345   22.8154   48.4212 H   0  0  0  0  0  0  0  0  0  0  0  0
   35.8969   23.9944   50.7866 C   0  0  0  0  0  0  0  0  0  0  0  0
   35.9909   25.2824   50.1739 N   0  0  0  0  0  0  0  0  0  0  0  0
   36.4754   26.4259   49.4680 C   0  0  0  0  0  0  0  0  0  0  0  0
   37.5833   26.9378   49.1607 O   0  0  0  0  0  0  0  0  0  0  0  0
   35.1113   26.8927   49.1645 C   0  0  1  0  0  0  0  0  0  0  0  0
   34.7534   26.0217   50.3439 C   0  0  1  0  0  0  0  0  0  0  0  0
   33.5554   24.6938   49.9764 S   0  0  0  0  0  0  0  0  0  0  0  0
   34.9184   21.8873   51.9070 H   0  0  0  0  0  0  0  0  0  0  0  0
   33.7462   23.2236   52.1665 H   0  0  0  0  0  0  0  0  0  0  0  0
   33.9400   22.3874   48.4604 H   0  0  0  0  0  0  0  0  0  0  0  0
   35.0958   21.4231   49.3844 H   0  0  0  0  0  0  0  0  0  0  0  0
   35.9129   24.0509   51.9127 H   0  0  0  0  0  0  0  0  0  0  0  0
   36.7592   23.3840   50.5178 H   0  0  0  0  0  0  0  0  0  0  0  0
   34.7488   26.5309   48.1985 H   0  0  0  0  0  0  0  0  0  0  0  0
   34.6026   26.5302   51.2928 H   0  0  0  0  0  0  0  0  0  0  0  0
  2  1  2  0
  3  2  1  0
  4  3  2  0
  4  5  1  0
  5  6  2  0
  6  1  1  0
  7  8  2  0
  7  5  1  0
  1  9  1  0
  2 10  1  0
  3 11  1  0
 12 13  1  0
 12 14  1  0
 14 15  1  0
 15 16  1  0
 14 17  1  0
 17 18  1  0
 18 19  1  0
 19 20  2  0
 19 21  1  0
 21 22  1  0
 22 23  1  0
 23 14  1  0
 22 18  1  0
 12 24  1  0
 12 25  1  0
 15 26  1  0
 15 27  1  0
 17 28  1  0
 17 29  1  0
 21 30  1  6
 22 31  1  1
  7 21  1  0
M  ISO  5   9  14  10  14  11  14  13   8  16   8
M  END
>  <DihAtoms>  (1) 
7,6,20,18

>  <DihDeg>  (1) 
-119.99777583658208

$$$$
