
     RDKit          3D

 31 33  0  0  0  0  0  0  0  0999 V2000
   37.2680   30.1833   51.4288 C   0  0  0  0  0  0  0  0  0  0  0  0
   38.0936   30.7584   50.4565 C   0  0  0  0  0  0  0  0  0  0  0  0
   37.8058   30.4981   49.1090 C   0  0  0  0  0  0  0  0  0  0  0  0
   36.7348   29.6972   48.8248 N   0  0  0  0  0  0  0  0  0  0  0  0
   35.9667   29.1639   49.7774 C   0  0  0  0  0  0  0  0  0  0  0  0
   36.2291   29.4033   51.0634 N   0  0  0  0  0  0  0  0  0  0  0  0
   34.8241   28.3107   49.5073 C   0  0  0  0  0  0  0  0  0  0  0  0
   33.6278   28.7182   49.5518 O   0  0  0  0  0  0  0  0  0  0  0  0
   37.4326   30.3425   52.4903 H   0  0  0  0  0  0  0  0  0  0  0  0
   38.9171   31.3775   50.7706 H   0  0  0  0  0  0  0  0  0  0  0  0
   38.4283   30.9304   48.3396 H   0  0  0  0  0  0  0  0  0  0  0  0
   39.2749   24.0324   49.3135 C   0  0  0  0  0  0  0  0  0  0  0  0
   39.4190   23.3402   50.1440 H   0  0  0  0  0  0  0  0  0  0  0  0
   37.7926   24.2169   49.0509 C   0  0  0  0  0  0  0  0  0  0  0  0
   37.0651   22.9186   49.0033 C   0  0  0  0  0  0  0  0  0  0  0  0
   36.1897   22.9296   48.3304 H   0  0  0  0  0  0  0  0  0  0  0  0
   37.6658   25.0688   47.8240 C   0  0  0  0  0  0  0  0  0  0  0  0
   36.5303   25.9254   47.9659 N   0  0  0  0  0  0  0  0  0  0  0  0
   35.2971   26.6071   47.7310 C   0  0  0  0  0  0  0  0  0  0  0  0
   34.5638   26.9082   46.7535 O   0  0  0  0  0  0  0  0  0  0  0  0
   35.1113   26.8927   49.1645 C   0  0  1  0  0  0  0  0  0  0  0  0
   36.6034   26.6706   49.2094 C   0  0  1  0  0  0  0  0  0  0  0  0
   37.1430   25.3347   50.3308 S   0  0  0  0  0  0  0  0  0  0  0  0
   39.8002   23.7299   48.3752 H   0  0  0  0  0  0  0  0  0  0  0  0
   39.6656   25.0450   49.5915 H   0  0  0  0  0  0  0  0  0  0  0  0
   36.7984   22.5850   50.0378 H   0  0  0  0  0  0  0  0  0  0  0  0
   37.7912   22.1480   48.6441 H   0  0  0  0  0  0  0  0  0  0  0  0
   38.6109   25.6406   47.5973 H   0  0  0  0  0  0  0  0  0  0  0  0
   37.5280   24.3955   46.9779 H   0  0  0  0  0  0  0  0  0  0  0  0
   34.5168   26.1278   49.6715 H   0  0  0  0  0  0  0  0  0  0  0  0
   37.2252   27.5624   49.2205 H   0  0  0  0  0  0  0  0  0  0  0  0
  2  1  2  0
  3  2  1  0
  4  3  2  0
  4  5  1  0
  5  6  2  0
  6  1  1  0
  7  8  2  0
  7  5  1  0
  1  9  1  0
  2 10  1  0
  3 11  1  0
 12 13  1  0
 12 14  1  0
 14 15  1  0
 15 16  1  0
 14 17  1  0
 17 18  1  0
 18 19  1  0
 19 20  2  0
 19 21  1  0
 21 22  1  0
 22 23  1  0
 23 14  1  0
 22 18  1  0
 12 24  1  0
 12 25  1  0
 15 26  1  0
 15 27  1  0
 17 28  1  0
 17 29  1  0
 21 30  1  1
 22 31  1  6
  7 21  1  0
M  ISO  5   9  14  10  14  11  14  13   8  16   8
M  END
>  <DihAtoms>  (1) 
7,6,20,18

>  <DihDeg>  (1) 
-119.99777583658208

$$$$
