
     RDKit          3D

 31 33  0  0  0  0  0  0  0  0999 V2000
   37.2680   30.1833   51.4288 C   0  0  0  0  0  0  0  0  0  0  0  0
   38.0936   30.7584   50.4565 C   0  0  0  0  0  0  0  0  0  0  0  0
   37.8058   30.4981   49.1090 C   0  0  0  0  0  0  0  0  0  0  0  0
   36.7348   29.6972   48.8248 N   0  0  0  0  0  0  0  0  0  0  0  0
   35.9667   29.1639   49.7774 C   0  0  0  0  0  0  0  0  0  0  0  0
   36.2291   29.4033   51.0634 N   0  0  0  0  0  0  0  0  0  0  0  0
   34.8241   28.3107   49.5073 C   0  0  0  0  0  0  0  0  0  0  0  0
   33.6278   28.7182   49.5518 O   0  0  0  0  0  0  0  0  0  0  0  0
   37.4326   30.3425   52.4903 H   0  0  0  0  0  0  0  0  0  0  0  0
   38.9171   31.3775   50.7706 H   0  0  0  0  0  0  0  0  0  0  0  0
   38.4283   30.9304   48.3396 H   0  0  0  0  0  0  0  0  0  0  0  0
   37.6865   23.1940   51.4508 C   0  0  0  0  0  0  0  0  0  0  0  0
   37.1436   22.4289   52.0071 H   0  0  0  0  0  0  0  0  0  0  0  0
   36.8228   23.7142   50.3178 C   0  0  0  0  0  0  0  0  0  0  0  0
   36.1916   22.6116   49.5414 C   0  0  0  0  0  0  0  0  0  0  0  0
   36.0268   22.8608   48.4783 H   0  0  0  0  0  0  0  0  0  0  0  0
   37.6680   24.6596   49.5185 C   0  0  0  0  0  0  0  0  0  0  0  0
   36.8486   25.7297   49.0423 N   0  0  0  0  0  0  0  0  0  0  0  0
   36.1989   26.6779   48.1941 C   0  0  0  0  0  0  0  0  0  0  0  0
   36.3772   27.2006   47.0632 O   0  0  0  0  0  0  0  0  0  0  0  0
   35.1113   26.8927   49.1645 C   0  0  1  0  0  0  0  0  0  0  0  0
   36.1276   26.3495   50.1391 C   0  0  1  0  0  0  0  0  0  0  0  0
   35.5984   24.8510   51.0378 S   0  0  0  0  0  0  0  0  0  0  0  0
   38.6757   22.8532   51.0593 H   0  0  0  0  0  0  0  0  0  0  0  0
   37.8864   24.0749   52.1136 H   0  0  0  0  0  0  0  0  0  0  0  0
   35.2525   22.2700   50.0456 H   0  0  0  0  0  0  0  0  0  0  0  0
   36.8758   21.7298   49.6071 H   0  0  0  0  0  0  0  0  0  0  0  0
   38.5649   25.0275   50.0947 H   0  0  0  0  0  0  0  0  0  0  0  0
   38.0773   24.0951   48.6806 H   0  0  0  0  0  0  0  0  0  0  0  0
   34.2525   26.2405   48.9840 H   0  0  0  0  0  0  0  0  0  0  0  0
   36.6637   27.0819   50.7375 H   0  0  0  0  0  0  0  0  0  0  0  0
  2  1  2  0
  3  2  1  0
  4  3  2  0
  4  5  1  0
  5  6  2  0
  6  1  1  0
  7  8  2  0
  7  5  1  0
  1  9  1  0
  2 10  1  0
  3 11  1  0
 12 13  1  0
 12 14  1  0
 14 15  1  0
 15 16  1  0
 14 17  1  0
 17 18  1  0
 18 19  1  0
 19 20  2  0
 19 21  1  0
 21 22  1  0
 22 23  1  0
 23 14  1  0
 22 18  1  0
 12 24  1  0
 12 25  1  0
 15 26  1  0
 15 27  1  0
 17 28  1  0
 17 29  1  0
 21 30  1  6
 22 31  1  1
  7 21  1  0
M  ISO  5   9  14  10  14  11  14  13   8  16   8
M  END
>  <DihAtoms>  (1) 
7,6,20,18

>  <DihDeg>  (1) 
-119.99777583658208

$$$$
