
     RDKit          3D

 47 51  0  0  0  0  0  0  0  0999 V2000
   35.8213   29.1398   49.8053 C   0  0  0  0  0  0  0  0  0  0  0  0
   34.8024   29.6602   50.5699 C   0  0  0  0  0  0  0  0  0  0  0  0
   33.6011   29.1208   50.0887 C   0  0  0  0  0  0  0  0  0  0  0  0
   33.9714   28.2960   49.0494 C   0  0  0  0  0  0  0  0  0  0  0  0
   35.2790   28.3392   48.9199 O   0  0  0  0  0  0  0  0  0  0  0  0
   37.2162   29.4859   50.0290 C   0  0  0  0  0  0  0  0  0  0  0  0
   37.8598   28.8781   50.8950 O   0  0  0  0  0  0  0  0  0  0  0  0
   37.7666   30.5321   49.2134 C   0  0  0  0  0  0  0  0  0  0  0  0
   38.1114   31.7124   49.8493 C   0  0  0  0  0  0  0  0  0  0  0  0
   38.6484   32.7514   49.0853 C   0  0  0  0  0  0  0  0  0  0  0  0
   38.8069   32.5448   47.7321 N   0  0  0  0  0  0  0  0  0  0  0  0
   38.4621   31.3904   47.1531 C   0  0  0  0  0  0  0  0  0  0  0  0
   37.9460   30.3882   47.8803 N   0  0  0  0  0  0  0  0  0  0  0  0
   33.0635   27.4997   48.2264 C   0  0  0  0  0  0  0  0  0  0  0  0
   31.8423   27.4080   48.5855 O   0  0  0  0  0  0  0  0  0  0  0  0
   33.5606   26.8041   46.9955 C   0  0  1  0  0  0  0  0  0  0  0  0
   33.7884   25.2716   47.2979 C   0  0  0  0  0  0  0  0  0  0  0  0
   32.7754   25.7692   46.3340 C   0  0  1  0  0  0  0  0  0  0  0  0
   34.8251   30.3586   51.4044 H   0  0  0  0  0  0  0  0  0  0  0  0
   32.5861   29.2645   50.4003 H   0  0  0  0  0  0  0  0  0  0  0  0
   37.9655   31.8224   50.9190 H   0  0  0  0  0  0  0  0  0  0  0  0
   38.9071   33.6574   49.6076 H   0  0  0  0  0  0  0  0  0  0  0  0
   38.6294   31.3383   46.0894 H   0  0  0  0  0  0  0  0  0  0  0  0
   34.5290   27.2014   46.6301 H   0  0  0  0  0  0  0  0  0  0  0  0
   34.6973   24.8111   46.9255 H   0  0  0  0  0  0  0  0  0  0  0  0
   33.4191   24.8878   48.2459 H   0  0  0  0  0  0  0  0  0  0  0  0
   33.0393   25.6012   45.2492 H   0  0  0  0  0  0  0  0  0  0  0  0
   31.3427   25.5140   46.6361 C   0  0  0  0  0  0  0  0  0  0  0  0
   30.9209   26.1846   47.9306 C   0  0  2  0  0  0  0  0  0  0  0  0
   31.6763   25.7316   49.1257 C   0  0  0  0  0  0  0  0  0  0  0  0
   32.6367   26.2637   49.2376 H   0  0  0  0  0  0  0  0  0  0  0  0
   29.4270   26.0660   48.0323 C   0  0  0  0  0  0  0  0  0  0  0  0
   28.8767   27.3159   48.4605 N   0  0  0  0  0  0  0  0  0  0  0  0
   28.1835   28.3478   49.1575 C   0  0  0  0  0  0  0  0  0  0  0  0
   27.3223   28.4174   50.0743 O   0  0  0  0  0  0  0  0  0  0  0  0
   28.8434   29.4459   48.4069 C   0  0  2  0  0  0  0  0  0  0  0  0
   29.6585   29.9748   48.9184 H   0  0  0  0  0  0  0  0  0  0  0  0
   29.3229   28.3543   47.5180 C   0  0  1  0  0  0  0  0  0  0  0  0
   31.1207   27.9843   47.6242 S   0  0  0  0  0  0  0  0  0  0  0  0
   30.7058   26.0026   45.8588 H   0  0  0  0  0  0  0  0  0  0  0  0
   31.1800   24.4010   46.6797 H   0  0  0  0  0  0  0  0  0  0  0  0
   31.8040   24.6315   49.0678 H   0  0  0  0  0  0  0  0  0  0  0  0
   31.0548   25.9522   50.0212 H   0  0  0  0  0  0  0  0  0  0  0  0
   29.1019   25.2713   48.7314 H   0  0  0  0  0  0  0  0  0  0  0  0
   28.9792   25.8391   47.0424 H   0  0  0  0  0  0  0  0  0  0  0  0
   28.0846   30.0905   47.9011 H   0  0  0  0  0  0  0  0  0  0  0  0
   28.9118   28.2548   46.5145 H   0  0  0  0  0  0  0  0  0  0  0  0
  1  6  1  0
  1  2  2  0
  3  2  1  0
  4  3  2  0
  5  4  1  0
  5  1  1  0
  6  7  2  0
  8  9  2  0
  8  6  1  0
 10  9  1  0
 11 10  2  0
 12 11  1  0
 12 13  2  0
 13  8  1  0
 14 15  2  0
 14  4  1  0
 16 17  1  0
 16 14  1  0
 18 16  1  0
 18 17  1  0
  2 19  1  0
  3 20  1  0
  9 21  1  0
 10 22  1  0
 12 23  1  0
 16 24  1  6
 17 25  1  0
 17 26  1  0
 18 27  1  6
 29 28  1  6
 29 30  1  0
 30 31  1  0
 29 32  1  0
 32 33  1  0
 33 34  1  0
 34 35  2  0
 34 36  1  0
 36 37  1  1
 36 38  1  0
 38 39  1  0
 39 29  1  0
 38 33  1  0
 28 40  1  0
 28 41  1  0
 30 42  1  0
 30 43  1  0
 32 44  1  0
 32 45  1  0
 36 46  1  0
 38 47  1  6
 18 28  1  0
M  ISO  8  19  14  20  14  21  14  22  14  23  14  24  13  25  13  26  13
M  ISO  3  27  13  31   8  37  15
M  END
>  <DihAtoms>  (1) 
15,17,27,28

>  <DihDeg>  (1) 
-179.99992915267362

$$$$
