
     RDKit          3D

 47 51  0  0  0  0  0  0  0  0999 V2000
   35.8213   29.1398   49.8053 C   0  0  0  0  0  0  0  0  0  0  0  0
   34.8024   29.6602   50.5699 C   0  0  0  0  0  0  0  0  0  0  0  0
   33.6011   29.1208   50.0887 C   0  0  0  0  0  0  0  0  0  0  0  0
   33.9714   28.2960   49.0494 C   0  0  0  0  0  0  0  0  0  0  0  0
   35.2790   28.3392   48.9199 O   0  0  0  0  0  0  0  0  0  0  0  0
   37.2162   29.4859   50.0290 C   0  0  0  0  0  0  0  0  0  0  0  0
   37.8598   28.8781   50.8950 O   0  0  0  0  0  0  0  0  0  0  0  0
   37.7666   30.5321   49.2134 C   0  0  0  0  0  0  0  0  0  0  0  0
   38.1114   31.7124   49.8493 C   0  0  0  0  0  0  0  0  0  0  0  0
   38.6484   32.7514   49.0853 C   0  0  0  0  0  0  0  0  0  0  0  0
   38.8069   32.5448   47.7321 N   0  0  0  0  0  0  0  0  0  0  0  0
   38.4621   31.3904   47.1531 C   0  0  0  0  0  0  0  0  0  0  0  0
   37.9460   30.3882   47.8803 N   0  0  0  0  0  0  0  0  0  0  0  0
   33.0635   27.4997   48.2264 C   0  0  0  0  0  0  0  0  0  0  0  0
   31.8423   27.4080   48.5855 O   0  0  0  0  0  0  0  0  0  0  0  0
   33.5606   26.8041   46.9955 C   0  0  1  0  0  0  0  0  0  0  0  0
   33.7884   25.2716   47.2979 C   0  0  0  0  0  0  0  0  0  0  0  0
   32.7754   25.7692   46.3340 C   0  0  1  0  0  0  0  0  0  0  0  0
   34.8251   30.3586   51.4044 H   0  0  0  0  0  0  0  0  0  0  0  0
   32.5861   29.2645   50.4003 H   0  0  0  0  0  0  0  0  0  0  0  0
   37.9655   31.8224   50.9190 H   0  0  0  0  0  0  0  0  0  0  0  0
   38.9071   33.6574   49.6076 H   0  0  0  0  0  0  0  0  0  0  0  0
   38.6294   31.3383   46.0894 H   0  0  0  0  0  0  0  0  0  0  0  0
   34.5290   27.2014   46.6301 H   0  0  0  0  0  0  0  0  0  0  0  0
   34.6973   24.8111   46.9255 H   0  0  0  0  0  0  0  0  0  0  0  0
   33.4191   24.8878   48.2459 H   0  0  0  0  0  0  0  0  0  0  0  0
   33.0393   25.6012   45.2492 H   0  0  0  0  0  0  0  0  0  0  0  0
   31.3427   25.5140   46.6361 C   0  0  0  0  0  0  0  0  0  0  0  0
   31.1414   25.1386   48.0927 C   0  0  2  0  0  0  0  0  0  0  0  0
   31.8706   23.9156   48.5131 C   0  0  0  0  0  0  0  0  0  0  0  0
   32.9205   24.1275   48.7791 H   0  0  0  0  0  0  0  0  0  0  0  0
   29.6622   25.1256   48.3534 C   0  0  0  0  0  0  0  0  0  0  0  0
   29.3910   25.7764   49.5989 N   0  0  0  0  0  0  0  0  0  0  0  0
   28.9551   26.0987   50.9170 C   0  0  0  0  0  0  0  0  0  0  0  0
   28.1839   25.5963   51.7771 O   0  0  0  0  0  0  0  0  0  0  0  0
   29.7643   27.3412   50.9964 C   0  0  2  0  0  0  0  0  0  0  0  0
   30.6970   27.2882   51.5737 H   0  0  0  0  0  0  0  0  0  0  0  0
   29.9672   27.1292   49.5385 C   0  0  1  0  0  0  0  0  0  0  0  0
   31.6633   26.6196   49.0450 S   0  0  0  0  0  0  0  0  0  0  0  0
   30.7631   26.4621   46.5190 H   0  0  0  0  0  0  0  0  0  0  0  0
   30.9723   24.7027   45.9493 H   0  0  0  0  0  0  0  0  0  0  0  0
   31.7805   23.1561   47.7100 H   0  0  0  0  0  0  0  0  0  0  0  0
   31.3617   23.5131   49.4164 H   0  0  0  0  0  0  0  0  0  0  0  0
   29.2359   24.1041   48.3808 H   0  0  0  0  0  0  0  0  0  0  0  0
   29.1167   25.6907   47.5691 H   0  0  0  0  0  0  0  0  0  0  0  0
   29.1127   28.2248   51.2011 H   0  0  0  0  0  0  0  0  0  0  0  0
   29.4812   27.7914   48.8235 H   0  0  0  0  0  0  0  0  0  0  0  0
  1  6  1  0
  1  2  2  0
  3  2  1  0
  4  3  2  0
  5  4  1  0
  5  1  1  0
  6  7  2  0
  8  9  2  0
  8  6  1  0
 10  9  1  0
 11 10  2  0
 12 11  1  0
 12 13  2  0
 13  8  1  0
 14 15  2  0
 14  4  1  0
 16 17  1  0
 16 14  1  0
 18 16  1  0
 18 17  1  0
  2 19  1  0
  3 20  1  0
  9 21  1  0
 10 22  1  0
 12 23  1  0
 16 24  1  6
 17 25  1  0
 17 26  1  0
 18 27  1  6
 29 28  1  6
 29 30  1  0
 30 31  1  0
 29 32  1  0
 32 33  1  0
 33 34  1  0
 34 35  2  0
 34 36  1  0
 36 37  1  1
 36 38  1  0
 38 39  1  0
 39 29  1  0
 38 33  1  0
 28 40  1  0
 28 41  1  0
 30 42  1  0
 30 43  1  0
 32 44  1  0
 32 45  1  0
 36 46  1  0
 38 47  1  6
 18 28  1  0
M  ISO  8  19  14  20  14  21  14  22  14  23  14  24  13  25  13  26  13
M  ISO  3  27  13  31   8  37  15
M  END
>  <DihAtoms>  (1) 
15,17,27,28

>  <DihDeg>  (1) 
-179.99992915267362

$$$$
