
     RDKit          3D

 31 33  0  0  0  0  0  0  0  0999 V2000
   37.2680   30.1833   51.4288 C   0  0  0  0  0  0  0  0  0  0  0  0
   38.0936   30.7584   50.4565 C   0  0  0  0  0  0  0  0  0  0  0  0
   37.8058   30.4981   49.1090 C   0  0  0  0  0  0  0  0  0  0  0  0
   36.7348   29.6972   48.8248 N   0  0  0  0  0  0  0  0  0  0  0  0
   35.9667   29.1639   49.7774 C   0  0  0  0  0  0  0  0  0  0  0  0
   36.2291   29.4033   51.0634 N   0  0  0  0  0  0  0  0  0  0  0  0
   34.8241   28.3107   49.5073 C   0  0  0  0  0  0  0  0  0  0  0  0
   33.6278   28.7182   49.5518 O   0  0  0  0  0  0  0  0  0  0  0  0
   37.4326   30.3425   52.4903 H   0  0  0  0  0  0  0  0  0  0  0  0
   38.9171   31.3775   50.7706 H   0  0  0  0  0  0  0  0  0  0  0  0
   38.4283   30.9304   48.3396 H   0  0  0  0  0  0  0  0  0  0  0  0
   36.5885   24.5457   44.9398 C   0  0  0  0  0  0  0  0  0  0  0  0
   37.6360   24.2657   44.8216 H   0  0  0  0  0  0  0  0  0  0  0  0
   36.2179   24.5363   46.4104 C   0  0  0  0  0  0  0  0  0  0  0  0
   36.6860   23.3021   47.0994 C   0  0  0  0  0  0  0  0  0  0  0  0
   36.0370   22.9935   47.9378 H   0  0  0  0  0  0  0  0  0  0  0  0
   34.7444   24.7985   46.4946 C   0  0  0  0  0  0  0  0  0  0  0  0
   34.4757   25.5836   47.6585 N   0  0  0  0  0  0  0  0  0  0  0  0
   33.9334   26.0495   48.8952 C   0  0  0  0  0  0  0  0  0  0  0  0
   32.8925   25.8856   49.5833 O   0  0  0  0  0  0  0  0  0  0  0  0
   35.1113   26.8927   49.1645 C   0  0  1  0  0  0  0  0  0  0  0  0
   35.2999   26.7784   47.6715 C   0  0  1  0  0  0  0  0  0  0  0  0
   36.8937   26.0515   47.1568 S   0  0  0  0  0  0  0  0  0  0  0  0
   35.8805   23.9073   44.3575 H   0  0  0  0  0  0  0  0  0  0  0  0
   36.4358   25.5996   44.5916 H   0  0  0  0  0  0  0  0  0  0  0  0
   37.7550   23.4136   47.4117 H   0  0  0  0  0  0  0  0  0  0  0  0
   36.7061   22.4865   46.3349 H   0  0  0  0  0  0  0  0  0  0  0  0
   34.3364   25.2687   45.5543 H   0  0  0  0  0  0  0  0  0  0  0  0
   34.2492   23.8302   46.5691 H   0  0  0  0  0  0  0  0  0  0  0  0
   35.8673   26.3789   49.7644 H   0  0  0  0  0  0  0  0  0  0  0  0
   34.9633   27.6229   47.0752 H   0  0  0  0  0  0  0  0  0  0  0  0
  2  1  2  0
  3  2  1  0
  4  3  2  0
  4  5  1  0
  5  6  2  0
  6  1  1  0
  7  8  2  0
  7  5  1  0
  1  9  1  0
  2 10  1  0
  3 11  1  0
 12 13  1  0
 12 14  1  0
 14 15  1  0
 15 16  1  0
 14 17  1  0
 17 18  1  0
 18 19  1  0
 19 20  2  0
 19 21  1  0
 21 22  1  0
 22 23  1  0
 23 14  1  0
 22 18  1  0
 12 24  1  0
 12 25  1  0
 15 26  1  0
 15 27  1  0
 17 28  1  0
 17 29  1  0
 21 30  1  1
 22 31  1  6
  7 21  1  0
M  ISO  5   9  14  10  14  11  14  13   8  16   8
M  END
>  <DihAtoms>  (1) 
7,6,20,18

>  <DihDeg>  (1) 
-119.99777583658208

$$$$
