
     RDKit          3D

 31 33  0  0  0  0  0  0  0  0999 V2000
   37.2680   30.1833   51.4288 C   0  0  0  0  0  0  0  0  0  0  0  0
   38.0936   30.7584   50.4565 C   0  0  0  0  0  0  0  0  0  0  0  0
   37.8058   30.4981   49.1090 C   0  0  0  0  0  0  0  0  0  0  0  0
   36.7348   29.6972   48.8248 N   0  0  0  0  0  0  0  0  0  0  0  0
   35.9667   29.1639   49.7774 C   0  0  0  0  0  0  0  0  0  0  0  0
   36.2291   29.4033   51.0634 N   0  0  0  0  0  0  0  0  0  0  0  0
   34.8241   28.3107   49.5073 C   0  0  0  0  0  0  0  0  0  0  0  0
   33.6278   28.7182   49.5518 O   0  0  0  0  0  0  0  0  0  0  0  0
   37.4326   30.3425   52.4903 H   0  0  0  0  0  0  0  0  0  0  0  0
   38.9171   31.3775   50.7706 H   0  0  0  0  0  0  0  0  0  0  0  0
   38.4283   30.9304   48.3396 H   0  0  0  0  0  0  0  0  0  0  0  0
   38.4068   23.4744   50.8947 C   0  0  0  0  0  0  0  0  0  0  0  0
   38.0687   22.7146   51.6004 H   0  0  0  0  0  0  0  0  0  0  0  0
   37.2592   23.8817   49.9906 C   0  0  0  0  0  0  0  0  0  0  0  0
   36.5309   22.7042   49.4429 C   0  0  0  0  0  0  0  0  0  0  0  0
   36.0943   22.8827   48.4445 H   0  0  0  0  0  0  0  0  0  0  0  0
   37.8183   24.8234   48.9670 C   0  0  0  0  0  0  0  0  0  0  0  0
   36.8384   25.8190   48.6642 N   0  0  0  0  0  0  0  0  0  0  0  0
   35.9394   26.6808   47.9644 C   0  0  0  0  0  0  0  0  0  0  0  0
   35.7999   27.1464   46.8035 O   0  0  0  0  0  0  0  0  0  0  0  0
   35.1113   26.8927   49.1645 C   0  0  1  0  0  0  0  0  0  0  0  0
   36.3692   26.4615   49.8783 C   0  0  1  0  0  0  0  0  0  0  0  0
   36.1767   24.9910   50.9432 S   0  0  0  0  0  0  0  0  0  0  0  0
   39.2900   23.1649   50.2846 H   0  0  0  0  0  0  0  0  0  0  0  0
   38.7047   24.4013   51.4490 H   0  0  0  0  0  0  0  0  0  0  0  0
   35.7689   22.3424   50.1785 H   0  0  0  0  0  0  0  0  0  0  0  0
   37.2670   21.8654   49.3740 H   0  0  0  0  0  0  0  0  0  0  0  0
   38.8028   25.2712   49.2862 H   0  0  0  0  0  0  0  0  0  0  0  0
   38.0458   24.2343   48.0785 H   0  0  0  0  0  0  0  0  0  0  0  0
   34.2794   26.1863   49.2309 H   0  0  0  0  0  0  0  0  0  0  0  0
   36.9862   27.2547   50.2932 H   0  0  0  0  0  0  0  0  0  0  0  0
  2  1  2  0
  3  2  1  0
  4  3  2  0
  4  5  1  0
  5  6  2  0
  6  1  1  0
  7  8  2  0
  7  5  1  0
  1  9  1  0
  2 10  1  0
  3 11  1  0
 12 13  1  0
 12 14  1  0
 14 15  1  0
 15 16  1  0
 14 17  1  0
 17 18  1  0
 18 19  1  0
 19 20  2  0
 19 21  1  0
 21 22  1  0
 22 23  1  0
 23 14  1  0
 22 18  1  0
 12 24  1  0
 12 25  1  0
 15 26  1  0
 15 27  1  0
 17 28  1  0
 17 29  1  0
 21 30  1  6
 22 31  1  1
  7 21  1  0
M  ISO  5   9  14  10  14  11  14  13   8  16   8
M  END
>  <DihAtoms>  (1) 
7,6,20,18

>  <DihDeg>  (1) 
-119.99777583658208

$$$$
