
     RDKit          3D

 31 33  0  0  0  0  0  0  0  0999 V2000
   37.2680   30.1833   51.4288 C   0  0  0  0  0  0  0  0  0  0  0  0
   38.0936   30.7584   50.4565 C   0  0  0  0  0  0  0  0  0  0  0  0
   37.8058   30.4981   49.1090 C   0  0  0  0  0  0  0  0  0  0  0  0
   36.7348   29.6972   48.8248 N   0  0  0  0  0  0  0  0  0  0  0  0
   35.9667   29.1639   49.7774 C   0  0  0  0  0  0  0  0  0  0  0  0
   36.2291   29.4033   51.0634 N   0  0  0  0  0  0  0  0  0  0  0  0
   34.8241   28.3107   49.5073 C   0  0  0  0  0  0  0  0  0  0  0  0
   33.6278   28.7182   49.5518 O   0  0  0  0  0  0  0  0  0  0  0  0
   37.4326   30.3425   52.4903 H   0  0  0  0  0  0  0  0  0  0  0  0
   38.9171   31.3775   50.7706 H   0  0  0  0  0  0  0  0  0  0  0  0
   38.4283   30.9304   48.3396 H   0  0  0  0  0  0  0  0  0  0  0  0
   32.3654   22.6508   49.2398 C   0  0  0  0  0  0  0  0  0  0  0  0
   31.9438   22.2698   48.3089 H   0  0  0  0  0  0  0  0  0  0  0  0
   33.6509   23.4022   48.9510 C   0  0  0  0  0  0  0  0  0  0  0  0
   34.5535   22.6421   48.0431 C   0  0  0  0  0  0  0  0  0  0  0  0
   35.6250   22.8419   48.2199 H   0  0  0  0  0  0  0  0  0  0  0  0
   34.2442   23.7836   50.2738 C   0  0  0  0  0  0  0  0  0  0  0  0
   34.8734   25.0613   50.1521 N   0  0  0  0  0  0  0  0  0  0  0  0
   35.8312   26.1203   50.1921 C   0  0  0  0  0  0  0  0  0  0  0  0
   36.8938   26.4005   50.8056 O   0  0  0  0  0  0  0  0  0  0  0  0
   35.1113   26.8927   49.1645 C   0  0  1  0  0  0  0  0  0  0  0  0
   33.9486   26.0373   49.6051 C   0  0  1  0  0  0  0  0  0  0  0  0
   33.1962   25.0310   48.2804 S   0  0  0  0  0  0  0  0  0  0  0  0
   32.5416   21.8638   50.0128 H   0  0  0  0  0  0  0  0  0  0  0  0
   31.6673   23.4003   49.6938 H   0  0  0  0  0  0  0  0  0  0  0  0
   34.2629   22.8117   46.9756 H   0  0  0  0  0  0  0  0  0  0  0  0
   34.3524   21.5556   48.2138 H   0  0  0  0  0  0  0  0  0  0  0  0
   33.4878   23.7539   51.1096 H   0  0  0  0  0  0  0  0  0  0  0  0
   34.9816   23.0217   50.5271 H   0  0  0  0  0  0  0  0  0  0  0  0
   35.4756   26.6889   48.1540 H   0  0  0  0  0  0  0  0  0  0  0  0
   33.2434   26.4966   50.2933 H   0  0  0  0  0  0  0  0  0  0  0  0
  2  1  2  0
  3  2  1  0
  4  3  2  0
  4  5  1  0
  5  6  2  0
  6  1  1  0
  7  8  2  0
  7  5  1  0
  1  9  1  0
  2 10  1  0
  3 11  1  0
 12 13  1  0
 12 14  1  0
 14 15  1  0
 15 16  1  0
 14 17  1  0
 17 18  1  0
 18 19  1  0
 19 20  2  0
 19 21  1  0
 21 22  1  0
 22 23  1  0
 23 14  1  0
 22 18  1  0
 12 24  1  0
 12 25  1  0
 15 26  1  0
 15 27  1  0
 17 28  1  0
 17 29  1  0
 21 30  1  6
 22 31  1  1
  7 21  1  0
M  ISO  5   9  14  10  14  11  14  13   8  16   8
M  END
>  <DihAtoms>  (1) 
7,6,20,18

>  <DihDeg>  (1) 
-119.99777583658208

$$$$
