
     RDKit          3D

 31 33  0  0  0  0  0  0  0  0999 V2000
   37.2680   30.1833   51.4288 C   0  0  0  0  0  0  0  0  0  0  0  0
   38.0936   30.7584   50.4565 C   0  0  0  0  0  0  0  0  0  0  0  0
   37.8058   30.4981   49.1090 C   0  0  0  0  0  0  0  0  0  0  0  0
   36.7348   29.6972   48.8248 N   0  0  0  0  0  0  0  0  0  0  0  0
   35.9667   29.1639   49.7774 C   0  0  0  0  0  0  0  0  0  0  0  0
   36.2291   29.4033   51.0634 N   0  0  0  0  0  0  0  0  0  0  0  0
   34.8241   28.3107   49.5073 C   0  0  0  0  0  0  0  0  0  0  0  0
   33.6278   28.7182   49.5518 O   0  0  0  0  0  0  0  0  0  0  0  0
   37.4326   30.3425   52.4903 H   0  0  0  0  0  0  0  0  0  0  0  0
   38.9171   31.3775   50.7706 H   0  0  0  0  0  0  0  0  0  0  0  0
   38.4283   30.9304   48.3396 H   0  0  0  0  0  0  0  0  0  0  0  0
   33.3487   22.4630   50.8407 C   0  0  0  0  0  0  0  0  0  0  0  0
   32.5965   21.9310   50.2570 H   0  0  0  0  0  0  0  0  0  0  0  0
   34.2272   23.2852   49.9175 C   0  0  0  0  0  0  0  0  0  0  0  0
   34.6923   22.5017   48.7399 C   0  0  0  0  0  0  0  0  0  0  0  0
   35.6809   22.8185   48.3636 H   0  0  0  0  0  0  0  0  0  0  0  0
   35.3135   23.8825   50.7604 C   0  0  0  0  0  0  0  0  0  0  0  0
   35.6254   25.1864   50.2646 N   0  0  0  0  0  0  0  0  0  0  0  0
   36.3304   26.3244   49.7660 C   0  0  0  0  0  0  0  0  0  0  0  0
   37.5056   26.7748   49.7699 O   0  0  0  0  0  0  0  0  0  0  0  0
   35.1113   26.8927   49.1645 C   0  0  1  0  0  0  0  0  0  0  0  0
   34.4257   25.9978   50.1680 C   0  0  1  0  0  0  0  0  0  0  0  0
   33.2874   24.7686   49.4421 S   0  0  0  0  0  0  0  0  0  0  0  0
   33.9763   21.7989   51.4834 H   0  0  0  0  0  0  0  0  0  0  0  0
   32.8495   23.1973   51.5239 H   0  0  0  0  0  0  0  0  0  0  0  0
   33.9127   22.5084   47.9368 H   0  0  0  0  0  0  0  0  0  0  0  0
   34.7496   21.4317   49.0590 H   0  0  0  0  0  0  0  0  0  0  0  0
   35.0524   23.8900   51.8573 H   0  0  0  0  0  0  0  0  0  0  0  0
   36.1817   23.2286   50.6767 H   0  0  0  0  0  0  0  0  0  0  0  0
   34.9813   26.5970   48.1199 H   0  0  0  0  0  0  0  0  0  0  0  0
   34.0713   26.4744   51.0785 H   0  0  0  0  0  0  0  0  0  0  0  0
  2  1  2  0
  3  2  1  0
  4  3  2  0
  4  5  1  0
  5  6  2  0
  6  1  1  0
  7  8  2  0
  7  5  1  0
  1  9  1  0
  2 10  1  0
  3 11  1  0
 12 13  1  0
 12 14  1  0
 14 15  1  0
 15 16  1  0
 14 17  1  0
 17 18  1  0
 18 19  1  0
 19 20  2  0
 19 21  1  0
 21 22  1  0
 22 23  1  0
 23 14  1  0
 22 18  1  0
 12 24  1  0
 12 25  1  0
 15 26  1  0
 15 27  1  0
 17 28  1  0
 17 29  1  0
 21 30  1  6
 22 31  1  1
  7 21  1  0
M  ISO  5   9  14  10  14  11  14  13   8  16   8
M  END
>  <DihAtoms>  (1) 
7,6,20,18

>  <DihDeg>  (1) 
-119.99777583658208

$$$$
