
     RDKit          3D

 31 33  0  0  0  0  0  0  0  0999 V2000
   37.2680   30.1833   51.4288 C   0  0  0  0  0  0  0  0  0  0  0  0
   38.0936   30.7584   50.4565 C   0  0  0  0  0  0  0  0  0  0  0  0
   37.8058   30.4981   49.1090 C   0  0  0  0  0  0  0  0  0  0  0  0
   36.7348   29.6972   48.8248 N   0  0  0  0  0  0  0  0  0  0  0  0
   35.9667   29.1639   49.7774 C   0  0  0  0  0  0  0  0  0  0  0  0
   36.2291   29.4033   51.0634 N   0  0  0  0  0  0  0  0  0  0  0  0
   34.8241   28.3107   49.5073 C   0  0  0  0  0  0  0  0  0  0  0  0
   33.6278   28.7182   49.5518 O   0  0  0  0  0  0  0  0  0  0  0  0
   37.4326   30.3425   52.4903 H   0  0  0  0  0  0  0  0  0  0  0  0
   38.9171   31.3775   50.7706 H   0  0  0  0  0  0  0  0  0  0  0  0
   38.4283   30.9304   48.3396 H   0  0  0  0  0  0  0  0  0  0  0  0
   32.7537   22.5216   50.0996 C   0  0  0  0  0  0  0  0  0  0  0  0
   32.1427   22.0657   49.3196 H   0  0  0  0  0  0  0  0  0  0  0  0
   33.8766   23.3227   49.4690 C   0  0  0  0  0  0  0  0  0  0  0  0
   34.5770   22.5609   48.3984 C   0  0  0  0  0  0  0  0  0  0  0  0
   35.6436   22.8275   48.2950 H   0  0  0  0  0  0  0  0  0  0  0  0
   34.7498   23.8107   50.5855 C   0  0  0  0  0  0  0  0  0  0  0  0
   35.2442   25.1110   50.2571 N   0  0  0  0  0  0  0  0  0  0  0  0
   36.1107   26.2202   50.0130 C   0  0  0  0  0  0  0  0  0  0  0  0
   37.2704   26.5915   50.3309 O   0  0  0  0  0  0  0  0  0  0  0  0
   35.1113   26.8927   49.1645 C   0  0  1  0  0  0  0  0  0  0  0  0
   34.1512   26.0032   49.9160 C   0  0  1  0  0  0  0  0  0  0  0  0
   33.1649   24.8837   48.8636 S   0  0  0  0  0  0  0  0  0  0  0  0
   33.1657   21.7909   50.8373 H   0  0  0  0  0  0  0  0  0  0  0  0
   32.1404   23.2576   50.6805 H   0  0  0  0  0  0  0  0  0  0  0  0
   34.0229   22.6532   47.4304 H   0  0  0  0  0  0  0  0  0  0  0  0
   34.4961   21.4768   48.6598 H   0  0  0  0  0  0  0  0  0  0  0  0
   34.2252   23.7887   51.5834 H   0  0  0  0  0  0  0  0  0  0  0  0
   35.5754   23.1051   50.6799 H   0  0  0  0  0  0  0  0  0  0  0  0
   35.2292   26.6509   48.1048 H   0  0  0  0  0  0  0  0  0  0  0  0
   33.6078   26.4630   50.7376 H   0  0  0  0  0  0  0  0  0  0  0  0
  2  1  2  0
  3  2  1  0
  4  3  2  0
  4  5  1  0
  5  6  2  0
  6  1  1  0
  7  8  2  0
  7  5  1  0
  1  9  1  0
  2 10  1  0
  3 11  1  0
 12 13  1  0
 12 14  1  0
 14 15  1  0
 15 16  1  0
 14 17  1  0
 17 18  1  0
 18 19  1  0
 19 20  2  0
 19 21  1  0
 21 22  1  0
 22 23  1  0
 23 14  1  0
 22 18  1  0
 12 24  1  0
 12 25  1  0
 15 26  1  0
 15 27  1  0
 17 28  1  0
 17 29  1  0
 21 30  1  6
 22 31  1  1
  7 21  1  0
M  ISO  5   9  14  10  14  11  14  13   8  16   8
M  END
>  <DihAtoms>  (1) 
7,6,20,18

>  <DihDeg>  (1) 
-119.99777583658208

$$$$
