
     RDKit          3D

 31 33  0  0  0  0  0  0  0  0999 V2000
   37.2680   30.1833   51.4288 C   0  0  0  0  0  0  0  0  0  0  0  0
   38.0936   30.7584   50.4565 C   0  0  0  0  0  0  0  0  0  0  0  0
   37.8058   30.4981   49.1090 C   0  0  0  0  0  0  0  0  0  0  0  0
   36.7348   29.6972   48.8248 N   0  0  0  0  0  0  0  0  0  0  0  0
   35.9667   29.1639   49.7774 C   0  0  0  0  0  0  0  0  0  0  0  0
   36.2291   29.4033   51.0634 N   0  0  0  0  0  0  0  0  0  0  0  0
   34.8241   28.3107   49.5073 C   0  0  0  0  0  0  0  0  0  0  0  0
   33.6278   28.7182   49.5518 O   0  0  0  0  0  0  0  0  0  0  0  0
   37.4326   30.3425   52.4903 H   0  0  0  0  0  0  0  0  0  0  0  0
   38.9171   31.3775   50.7706 H   0  0  0  0  0  0  0  0  0  0  0  0
   38.4283   30.9304   48.3396 H   0  0  0  0  0  0  0  0  0  0  0  0
   35.9154   22.7250   51.9072 C   0  0  0  0  0  0  0  0  0  0  0  0
   35.1046   22.0078   52.0409 H   0  0  0  0  0  0  0  0  0  0  0  0
   35.7573   23.4358   50.5768 C   0  0  0  0  0  0  0  0  0  0  0  0
   35.4824   22.4870   49.4627 C   0  0  0  0  0  0  0  0  0  0  0  0
   35.8747   22.8276   48.4883 H   0  0  0  0  0  0  0  0  0  0  0  0
   36.9650   24.3051   50.3961 C   0  0  0  0  0  0  0  0  0  0  0  0
   36.5782   25.5088   49.7293 N   0  0  0  0  0  0  0  0  0  0  0  0
   36.5077   26.5934   48.8022 C   0  0  0  0  0  0  0  0  0  0  0  0
   37.2564   27.1607   47.9647 O   0  0  0  0  0  0  0  0  0  0  0  0
   35.1113   26.8927   49.1645 C   0  0  1  0  0  0  0  0  0  0  0  0
   35.4768   26.1484   50.4256 C   0  0  1  0  0  0  0  0  0  0  0  0
   34.4462   24.6818   50.7722 S   0  0  0  0  0  0  0  0  0  0  0  0
   36.9352   22.2762   51.9882 H   0  0  0  0  0  0  0  0  0  0  0  0
   35.8494   23.5227   52.6911 H   0  0  0  0  0  0  0  0  0  0  0  0
   34.3901   22.2471   49.4177 H   0  0  0  0  0  0  0  0  0  0  0  0
   35.9668   21.5157   49.7311 H   0  0  0  0  0  0  0  0  0  0  0  0
   37.5014   24.5044   51.3678 H   0  0  0  0  0  0  0  0  0  0  0  0
   37.6750   23.7464   49.7860 H   0  0  0  0  0  0  0  0  0  0  0  0
   34.3913   26.3807   48.5203 H   0  0  0  0  0  0  0  0  0  0  0  0
   35.7211   26.7568   51.2928 H   0  0  0  0  0  0  0  0  0  0  0  0
  2  1  2  0
  3  2  1  0
  4  3  2  0
  4  5  1  0
  5  6  2  0
  6  1  1  0
  7  8  2  0
  7  5  1  0
  1  9  1  0
  2 10  1  0
  3 11  1  0
 12 13  1  0
 12 14  1  0
 14 15  1  0
 15 16  1  0
 14 17  1  0
 17 18  1  0
 18 19  1  0
 19 20  2  0
 19 21  1  0
 21 22  1  0
 22 23  1  0
 23 14  1  0
 22 18  1  0
 12 24  1  0
 12 25  1  0
 15 26  1  0
 15 27  1  0
 17 28  1  0
 17 29  1  0
 21 30  1  6
 22 31  1  1
  7 21  1  0
M  ISO  5   9  14  10  14  11  14  13   8  16   8
M  END
>  <DihAtoms>  (1) 
7,6,20,18

>  <DihDeg>  (1) 
-119.99777583658208

$$$$
