
     RDKit          3D

 31 33  0  0  0  0  0  0  0  0999 V2000
   37.2680   30.1833   51.4288 C   0  0  0  0  0  0  0  0  0  0  0  0
   38.0936   30.7584   50.4565 C   0  0  0  0  0  0  0  0  0  0  0  0
   37.8058   30.4981   49.1090 C   0  0  0  0  0  0  0  0  0  0  0  0
   36.7348   29.6972   48.8248 N   0  0  0  0  0  0  0  0  0  0  0  0
   35.9667   29.1639   49.7774 C   0  0  0  0  0  0  0  0  0  0  0  0
   36.2291   29.4033   51.0634 N   0  0  0  0  0  0  0  0  0  0  0  0
   34.8241   28.3107   49.5073 C   0  0  0  0  0  0  0  0  0  0  0  0
   33.6278   28.7182   49.5518 O   0  0  0  0  0  0  0  0  0  0  0  0
   37.4326   30.3425   52.4903 H   0  0  0  0  0  0  0  0  0  0  0  0
   38.9171   31.3775   50.7706 H   0  0  0  0  0  0  0  0  0  0  0  0
   38.4283   30.9304   48.3396 H   0  0  0  0  0  0  0  0  0  0  0  0
   33.8873   23.9199   45.2654 C   0  0  0  0  0  0  0  0  0  0  0  0
   34.6220   23.7378   44.4801 H   0  0  0  0  0  0  0  0  0  0  0  0
   34.5959   24.1659   46.5836 C   0  0  0  0  0  0  0  0  0  0  0  0
   35.6553   23.1539   46.8488 C   0  0  0  0  0  0  0  0  0  0  0  0
   35.8107   22.9513   47.9231 H   0  0  0  0  0  0  0  0  0  0  0  0
   33.5365   24.2774   47.6384 C   0  0  0  0  0  0  0  0  0  0  0  0
   33.9430   25.2463   48.6075 N   0  0  0  0  0  0  0  0  0  0  0  0
   34.2704   25.8892   49.8404 C   0  0  0  0  0  0  0  0  0  0  0  0
   34.0136   25.7544   51.0651 O   0  0  0  0  0  0  0  0  0  0  0  0
   35.1113   26.8927   49.1645 C   0  0  1  0  0  0  0  0  0  0  0  0
   34.2841   26.5019   47.9641 C   0  0  1  0  0  0  0  0  0  0  0  0
   35.2459   25.8647   46.5491 S   0  0  0  0  0  0  0  0  0  0  0  0
   33.1324   23.1041   45.3773 H   0  0  0  0  0  0  0  0  0  0  0  0
   33.3187   24.8592   45.0426 H   0  0  0  0  0  0  0  0  0  0  0  0
   36.6053   23.4418   46.3317 H   0  0  0  0  0  0  0  0  0  0  0  0
   35.3412   22.2085   46.3414 H   0  0  0  0  0  0  0  0  0  0  0  0
   32.5198   24.5017   47.2054 H   0  0  0  0  0  0  0  0  0  0  0  0
   33.4404   23.2957   48.1025 H   0  0  0  0  0  0  0  0  0  0  0  0
   36.1624   26.5955   49.1155 H   0  0  0  0  0  0  0  0  0  0  0  0
   33.4650   27.1675   47.7036 H   0  0  0  0  0  0  0  0  0  0  0  0
  2  1  2  0
  3  2  1  0
  4  3  2  0
  4  5  1  0
  5  6  2  0
  6  1  1  0
  7  8  2  0
  7  5  1  0
  1  9  1  0
  2 10  1  0
  3 11  1  0
 12 13  1  0
 12 14  1  0
 14 15  1  0
 15 16  1  0
 14 17  1  0
 17 18  1  0
 18 19  1  0
 19 20  2  0
 19 21  1  0
 21 22  1  0
 22 23  1  0
 23 14  1  0
 22 18  1  0
 12 24  1  0
 12 25  1  0
 15 26  1  0
 15 27  1  0
 17 28  1  0
 17 29  1  0
 21 30  1  6
 22 31  1  6
  7 21  1  0
M  ISO  5   9  14  10  14  11  14  13   8  16   8
M  END
>  <DihAtoms>  (1) 
7,6,20,18

>  <DihDeg>  (1) 
-119.99777583658208

$$$$
