
     RDKit          3D

 41 44  0  0  0  0  0  0  0  0999 V2000
   38.8818   31.8845   47.7691 C   0  0  0  0  0  0  0  0  0  0  0  0
   38.3574   32.1195   49.0239 C   0  0  0  0  0  0  0  0  0  0  0  0
   38.6799   33.3647   49.5601 C   0  0  0  0  0  0  0  0  0  0  0  0
   39.4730   34.2837   48.8616 C   0  0  0  0  0  0  0  0  0  0  0  0
   39.9549   33.9583   47.6056 C   0  0  0  0  0  0  0  0  0  0  0  0
   39.6527   32.7265   47.0419 C   0  0  0  0  0  0  0  0  0  0  0  0
   36.2082   30.9961   49.3714 C   0  0  0  0  0  0  0  0  0  0  0  0
   37.5516   31.1907   49.7379 C   0  0  0  0  0  0  0  0  0  0  0  0
   38.0183   30.4381   50.8084 C   0  0  0  0  0  0  0  0  0  0  0  0
   37.1694   29.5700   51.4337 N   0  0  0  0  0  0  0  0  0  0  0  0
   35.8914   29.4123   51.0535 C   0  0  0  0  0  0  0  0  0  0  0  0
   35.4022   30.1339   50.0088 N   0  0  0  0  0  0  0  0  0  0  0  0
   38.6085   30.6495   47.1455 O   0  0  0  0  0  0  0  0  0  0  0  0
   40.1498   32.4271   45.7805 O   0  0  0  0  0  0  0  0  0  0  0  0
   38.3297   33.6676   50.5352 H   0  0  0  0  0  0  0  0  0  0  0  0
   39.7242   35.2513   49.2772 H   0  0  0  0  0  0  0  0  0  0  0  0
   40.5697   34.6541   47.0487 H   0  0  0  0  0  0  0  0  0  0  0  0
   35.7911   31.5607   48.5390 H   0  0  0  0  0  0  0  0  0  0  0  0
   35.3839   28.6842   51.6679 H   0  0  0  0  0  0  0  0  0  0  0  0
   37.6936   30.5996   46.6851 H   0  0  0  0  0  0  0  0  0  0  0  0
   40.9256   31.8254   45.5824 H   0  0  0  0  0  0  0  0  0  0  0  0
   39.4361   30.6342   51.2058 C   0  0  0  0  0  0  0  0  0  0  0  0
   39.5121   30.3727   52.6774 C   0  0  2  0  0  0  0  0  0  0  0  0
   39.0916   28.9984   53.0675 C   0  0  0  0  0  0  0  0  0  0  0  0
   38.7063   28.4751   52.1937 H   0  0  0  0  0  0  0  0  0  0  0  0
   38.8534   31.4771   53.4836 C   0  0  0  0  0  0  0  0  0  0  0  0
   39.3207   31.3095   54.8372 N   0  0  0  0  0  0  0  0  0  0  0  0
   39.3666   31.0923   56.2633 C   0  0  0  0  0  0  0  0  0  0  0  0
   38.5768   31.3340   57.2122 O   0  0  0  0  0  0  0  0  0  0  0  0
   40.6998   30.4927   56.0600 C   0  0  2  0  0  0  0  0  0  0  0  0
   40.7290   29.4254   55.7624 H   0  0  0  0  0  0  0  0  0  0  0  0
   40.7428   31.4327   54.8772 C   0  0  1  0  0  0  0  0  0  0  0  0
   41.2200   30.6057   53.3087 S   0  0  0  0  0  0  0  0  0  0  0  0
   40.1008   29.9192   50.7003 H   0  0  0  0  0  0  0  0  0  0  0  0
   39.7922   31.6517   50.9978 H   0  0  0  0  0  0  0  0  0  0  0  0
   39.9442   28.3678   53.4427 H   0  0  0  0  0  0  0  0  0  0  0  0
   38.3812   29.0468   53.9314 H   0  0  0  0  0  0  0  0  0  0  0  0
   37.7693   31.4699   53.4689 H   0  0  0  0  0  0  0  0  0  0  0  0
   39.2491   32.4343   53.0889 H   0  0  0  0  0  0  0  0  0  0  0  0
   41.3541   30.7086   56.9023 H   0  0  0  0  0  0  0  0  0  0  0  0
   41.1867   32.4208   55.0383 H   0  0  0  0  0  0  0  0  0  0  0  0
  1  2  2  0
  2  3  1  0
  2  8  1  0
  4  3  2  0
  5  4  1  0
  6  5  2  0
  6  1  1  0
  7  8  2  0
  7 12  1  0
  8  9  1  0
  9 10  2  0
 11 10  1  0
 12 11  2  0
 13  1  1  0
 14  6  1  0
  3 15  1  0
  4 16  1  0
  5 17  1  0
  7 18  1  0
 11 19  1  0
 13 20  1  0
 14 21  1  0
 23 22  1  6
 23 24  1  0
 24 25  1  0
 23 26  1  0
 26 27  1  0
 27 28  1  0
 28 29  2  0
 28 30  1  0
 30 31  1  6
 30 32  1  0
 32 33  1  0
 33 23  1  0
 32 27  1  0
 22 34  1  0
 22 35  1  0
 24 36  1  0
 24 37  1  0
 26 38  1  0
 26 39  1  0
 30 40  1  0
 32 41  1  1
  9 22  1  0
M  ISO  8  15  14  16  14  17  14  18  14  19  14  20   3  21   3  25   8
M  ISO  1  31  15
M  END
>  <DihAtoms>  (1) 
7,8,21,22

>  <DihDeg>  (1) 
179.96470319777978

$$$$
