
     RDKit          3D

 62 66  0  0  0  0  0  0  0  0999 V2000
   33.9172   28.3941   47.9493 C   0  0  0  0  0  0  0  0  0  0  0  0
   35.2085   30.6127   46.8885 F   0  0  0  0  0  0  0  0  0  0  0  0
   35.5838   30.0917   48.1038 C   0  0  0  0  0  0  0  0  0  0  0  0
   34.9601   28.9772   48.6955 C   0  0  0  0  0  0  0  0  0  0  0  0
   35.4743   28.6418   49.8705 C   0  0  0  0  0  0  0  0  0  0  0  0
   36.5071   29.2771   50.4937 C   0  0  0  0  0  0  0  0  0  0  0  0
   37.1237   30.3798   49.9058 C   0  0  0  0  0  0  0  0  0  0  0  0
   36.6066   30.7241   48.7156 C   0  0  0  0  0  0  0  0  0  0  0  0
   38.2354   31.0580   50.5748 C   0  0  0  0  0  0  0  0  0  0  0  0
   37.2552   31.8681   48.1124 O   0  0  0  0  0  0  0  0  0  0  0  0
   38.3768   31.5533   47.3770 C   0  0  0  0  0  0  0  0  0  0  0  0
   39.2413   32.4813   47.3620 O   0  0  0  0  0  0  0  0  0  0  0  0
   38.8083   30.4420   46.6272 N   0  0  0  0  0  0  0  0  0  0  0  0
   32.7410   27.8860   48.7257 C   0  0  0  0  0  0  0  0  0  0  0  0
   30.4259   27.2161   48.3781 C   0  0  0  0  0  0  0  0  0  0  0  0
   31.7294   27.2113   47.9499 C   0  0  0  0  0  0  0  0  0  0  0  0
   31.9543   26.5778   46.7965 C   0  0  0  0  0  0  0  0  0  0  0  0
   30.9734   25.9850   46.0991 N   0  0  0  0  0  0  0  0  0  0  0  0
   29.6825   25.9722   46.4909 C   0  0  0  0  0  0  0  0  0  0  0  0
   29.3993   26.5890   47.6350 N   0  0  0  0  0  0  0  0  0  0  0  0
   29.9870   27.7843   49.6882 C   0  0  1  0  0  0  0  0  0  0  0  0
   28.9148   28.7565   49.7076 C   0  0  0  0  0  0  0  0  0  0  0  0
   28.6371   27.2878   50.1203 C   0  0  2  0  0  0  0  0  0  0  0  0
   28.3424   27.1423   51.5516 C   0  0  0  0  0  0  0  0  0  0  0  0
   27.2336   26.7025   51.8181 O   0  0  0  0  0  0  0  0  0  0  0  0
   34.3476   27.4951   47.4114 H   0  0  0  0  0  0  0  0  0  0  0  0
   33.4868   29.0199   47.1393 H   0  0  0  0  0  0  0  0  0  0  0  0
   35.0194   27.7666   50.3858 H   0  0  0  0  0  0  0  0  0  0  0  0
   36.8461   28.9046   51.4694 H   0  0  0  0  0  0  0  0  0  0  0  0
   39.2180   30.7394   50.1660 H   0  0  0  0  0  0  0  0  0  0  0  0
   38.1305   32.1461   50.3866 H   0  0  0  0  0  0  0  0  0  0  0  0
   38.1525   30.9386   51.6743 H   0  0  0  0  0  0  0  0  0  0  0  0
   39.1331   30.5649   45.6361 H   0  0  0  0  0  0  0  0  0  0  0  0
   39.1341   30.5611   45.6348 H   0  0  0  0  0  0  0  0  0  0  0  0
   33.1360   27.1864   49.4999 H   0  0  0  0  0  0  0  0  0  0  0  0
   32.2991   28.7423   49.2796 H   0  0  0  0  0  0  0  0  0  0  0  0
   32.9351   26.4997   46.3486 H   0  0  0  0  0  0  0  0  0  0  0  0
   28.9221   25.4977   45.9243 H   0  0  0  0  0  0  0  0  0  0  0  0
   30.7716   27.9943   50.4201 H   0  0  0  0  0  0  0  0  0  0  0  0
   28.5382   29.1213   48.7452 H   0  0  0  0  0  0  0  0  0  0  0  0
   28.8581   29.5170   50.5043 H   0  0  0  0  0  0  0  0  0  0  0  0
   27.9111   26.8540   49.3744 H   0  0  0  0  0  0  0  0  0  0  0  0
   29.0324   27.4072   57.2381 C   0  0  0  0  0  0  0  0  0  0  0  0
   29.4426   26.4151   57.5162 H   0  0  0  0  0  0  0  0  0  0  0  0
   30.0169   28.0819   56.2791 C   0  0  0  0  0  0  0  0  0  0  0  0
   30.8743   29.0752   57.0246 C   0  0  0  0  0  0  0  0  0  0  0  0
   31.8716   28.6077   57.1267 H   0  0  0  0  0  0  0  0  0  0  0  0
   30.7560   27.0560   55.5480 C   0  0  0  0  0  0  0  0  0  0  0  0
   30.2743   26.8450   54.2579 N   0  0  0  0  0  0  0  0  0  0  0  0
   30.2860   26.4054   52.9355 C   0  0  0  0  0  0  0  0  0  0  0  0
   30.8048   25.4816   52.2288 O   0  0  0  0  0  0  0  0  0  0  0  0
   29.3671   27.5221   52.5652 C   0  0  2  0  0  0  0  0  0  0  0  0
   28.9512   27.3467   53.9991 C   0  0  2  0  0  0  0  0  0  0  0  0
   28.9984   28.8770   55.0073 S   0  0  0  0  0  0  0  0  0  0  0  0
   28.0662   27.1977   56.7316 H   0  0  0  0  0  0  0  0  0  0  0  0
   28.8297   28.0758   58.0861 H   0  0  0  0  0  0  0  0  0  0  0  0
   30.9120   30.0110   56.4467 H   0  0  0  0  0  0  0  0  0  0  0  0
   30.4545   29.2002   58.0323 H   0  0  0  0  0  0  0  0  0  0  0  0
   31.8498   27.3347   55.6118 H   0  0  0  0  0  0  0  0  0  0  0  0
   30.7240   26.0844   56.1226 H   0  0  0  0  0  0  0  0  0  0  0  0
   29.8751   28.4741   52.4229 H   0  0  0  0  0  0  0  0  0  0  0  0
   28.1206   26.6745   54.2032 H   0  0  0  0  0  0  0  0  0  0  0  0
  1  4  1  0
  1 14  1  0
  2  3  1  0
  3  4  2  0
  3  8  1  0
  4  5  1  0
  5  6  2  0
  7  6  1  0
  7  9  1  0
  8  7  2  0
 10  8  1  0
 11 10  1  0
 12 11  2  0
 13 11  1  0
 15 21  1  0
 16 15  1  0
 16 14  1  0
 17 16  2  0
 18 19  2  0
 18 17  1  0
 19 20  1  0
 20 15  2  0
 21 22  1  0
 21 23  1  0
 22 23  1  0
 23 24  1  0
 24 25  2  0
  1 26  1  0
  1 27  1  0
  5 28  1  0
  6 29  1  0
  9 30  1  0
  9 31  1  0
  9 32  1  0
 13 33  1  0
 13 34  1  0
 14 35  1  0
 14 36  1  0
 17 37  1  0
 19 38  1  0
 21 39  1  1
 22 40  1  0
 22 41  1  0
 23 42  1  6
 43 44  1  0
 43 45  1  0
 45 46  1  0
 46 47  1  0
 45 48  1  0
 48 49  1  0
 49 50  1  0
 50 51  2  0
 50 52  1  0
 52 53  1  0
 53 54  1  0
 54 45  1  0
 53 49  1  0
 43 55  1  0
 43 56  1  0
 46 57  1  0
 46 58  1  0
 48 59  1  0
 48 60  1  0
 52 61  1  1
 53 62  1  6
 24 52  1  0
M  ISO  8  26   8  27   8  28  14  29  14  30   8  31   8  32   8  35   8
M  ISO  8  36   8  37  14  38  14  39  13  40  13  41  13  42  13  44   8
M  ISO  1  47   8
M  END
>  <DihAtoms>  (1) 
22,23,51,49

>  <DihDeg>  (1) 
-179.41385592124195

$$$$
