
     RDKit          3D

 54 59  0  0  0  0  0  0  0  0999 V2000
   36.9325   31.3494   49.3470 C   0  0  0  0  0  0  0  0  0  0  0  0
   37.1694   32.5201   50.0278 C   0  0  0  0  0  0  0  0  0  0  0  0
   38.0995   33.3809   49.4331 C   0  0  0  0  0  0  0  0  0  0  0  0
   38.7052   33.0423   48.2595 N   0  0  0  0  0  0  0  0  0  0  0  0
   38.4487   31.8801   47.6147 C   0  0  0  0  0  0  0  0  0  0  0  0
   37.5473   31.0297   48.1766 N   0  0  0  0  0  0  0  0  0  0  0  0
   40.0279   32.4204   45.8463 C   0  0  0  0  0  0  0  0  0  0  0  0
   39.1076   31.5290   46.3554 C   0  0  0  0  0  0  0  0  0  0  0  0
   38.8359   30.3549   45.6705 C   0  0  0  0  0  0  0  0  0  0  0  0
   39.4516   30.0237   44.4782 C   0  0  0  0  0  0  0  0  0  0  0  0
   39.3687   28.9795   43.6294 N   0  0  0  0  0  0  0  0  0  0  0  0
   40.2255   29.2434   42.6293 C   0  0  0  0  0  0  0  0  0  0  0  0
   40.8421   30.4343   42.8389 N   0  0  0  0  0  0  0  0  0  0  0  0
   40.3762   30.9500   43.9944 C   0  0  0  0  0  0  0  0  0  0  0  0
   40.6630   32.1227   44.6570 C   0  0  0  0  0  0  0  0  0  0  0  0
   35.9433   30.3824   49.9606 C   0  0  1  0  0  0  0  0  0  0  0  0
   34.7864   29.9327   49.2232 C   0  0  2  0  0  0  0  0  0  0  0  0
   36.0200   29.0019   49.3165 C   0  0  2  0  0  0  0  0  0  0  0  0
   34.5616   30.3989   47.9758 O   0  0  0  0  0  0  0  0  0  0  0  0
   33.8036   30.1087   46.9235 C   0  0  0  0  0  0  0  0  0  0  0  0
   34.0175   28.9627   46.4144 O   0  0  0  0  0  0  0  0  0  0  0  0
   32.9086   31.0743   46.5377 N   0  0  0  0  0  0  0  0  0  0  0  0
   36.7206   32.8225   50.9424 H   0  0  0  0  0  0  0  0  0  0  0  0
   38.3309   34.3120   49.9121 H   0  0  0  0  0  0  0  0  0  0  0  0
   40.2771   33.3529   46.3428 H   0  0  0  0  0  0  0  0  0  0  0  0
   38.1077   29.6793   46.1012 H   0  0  0  0  0  0  0  0  0  0  0  0
   38.7407   28.1793   43.7993 H   0  0  0  0  0  0  0  0  0  0  0  0
   40.3819   28.5782   41.7845 H   0  0  0  0  0  0  0  0  0  0  0  0
   41.3845   32.8394   44.2741 H   0  0  0  0  0  0  0  0  0  0  0  0
   35.8891   30.4882   51.0689 H   0  0  0  0  0  0  0  0  0  0  0  0
   34.0099   29.2672   49.7431 H   0  0  0  0  0  0  0  0  0  0  0  0
   36.5777   28.8877   48.3848 H   0  0  0  0  0  0  0  0  0  0  0  0
   31.9544   31.4588   46.3741 H   0  0  0  0  0  0  0  0  0  0  0  0
   33.2182   32.0200   46.1797 H   0  0  0  0  0  0  0  0  0  0  0  0
   36.0450   27.8808   50.2991 C   0  0  0  0  0  0  0  0  0  0  0  0
   35.0448   27.9972   51.4192 C   0  0  1  0  0  0  0  0  0  0  0  0
   33.6331   28.0467   50.9517 C   0  0  0  0  0  0  0  0  0  0  0  0
   33.5537   27.4459   50.0202 H   0  0  0  0  0  0  0  0  0  0  0  0
   35.3356   26.8229   52.3485 C   0  0  0  0  0  0  0  0  0  0  0  0
   34.9882   27.2480   53.6760 N   0  0  0  0  0  0  0  0  0  0  0  0
   34.4199   27.4295   54.9890 C   0  0  0  0  0  0  0  0  0  0  0  0
   33.6292   26.6311   55.5878 O   0  0  0  0  0  0  0  0  0  0  0  0
   35.0943   28.7359   55.2093 C   0  0  2  0  0  0  0  0  0  0  0  0
   35.7184   28.6903   56.1481 H   0  0  0  0  0  0  0  0  0  0  0  0
   35.8726   28.3793   53.9957 C   0  0  2  0  0  0  0  0  0  0  0  0
   35.5082   29.3845   52.5000 S   0  0  0  0  0  0  0  0  0  0  0  0
   37.0623   27.8796   50.7535 H   0  0  0  0  0  0  0  0  0  0  0  0
   35.9532   26.9150   49.7666 H   0  0  0  0  0  0  0  0  0  0  0  0
   33.3246   29.0987   50.8148 H   0  0  0  0  0  0  0  0  0  0  0  0
   33.0104   27.5154   51.7136 H   0  0  0  0  0  0  0  0  0  0  0  0
   34.7786   25.9374   52.0516 H   0  0  0  0  0  0  0  0  0  0  0  0
   36.4154   26.5649   52.3258 H   0  0  0  0  0  0  0  0  0  0  0  0
   34.4514   29.6151   55.1953 H   0  0  0  0  0  0  0  0  0  0  0  0
   36.9265   28.1028   54.1027 H   0  0  0  0  0  0  0  0  0  0  0  0
  1 16  1  0
  1  2  2  0
  3  2  1  0
  4  3  2  0
  5  6  2  0
  5  4  1  0
  6  1  1  0
  7  8  2  0
  8  5  1  0
  9  8  1  0
 10  9  2  0
 11 10  1  0
 12 13  2  0
 12 11  1  0
 13 14  1  0
 14 10  1  0
 14 15  2  0
 15  7  1  0
 17 18  1  0
 17 16  1  0
 18 16  1  0
 19 17  1  0
 20 19  1  0
 21 20  2  0
 22 20  1  0
  2 23  1  0
  3 24  1  0
  7 25  1  0
  9 26  1  0
 11 27  1  0
 12 28  1  0
 15 29  1  0
 16 30  1  1
 17 31  1  1
 18 32  1  6
 22 33  1  0
 22 34  1  0
 36 35  1  6
 36 37  1  0
 37 38  1  0
 36 39  1  0
 39 40  1  0
 40 41  1  0
 41 42  2  0
 41 43  1  0
 43 44  1  1
 43 45  1  0
 45 46  1  0
 46 36  1  0
 45 40  1  0
 35 47  1  0
 35 48  1  0
 37 49  1  0
 37 50  1  0
 39 51  1  0
 39 52  1  0
 43 53  1  0
 45 54  1  1
 18 35  1  0
M  ISO  8  23  14  24  14  25  14  26  14  27   9  28  14  29  14  30  13
M  ISO  4  31  13  32  13  38   8  44  15
M  END
>  <DihAtoms>  (1) 
16,17,34,35

>  <DihDeg>  (1) 
116.7206328313903

$$$$
