
     RDKit          3D

 47 51  0  0  0  0  0  0  0  0999 V2000
   35.8213   29.1398   49.8053 C   0  0  0  0  0  0  0  0  0  0  0  0
   34.8024   29.6602   50.5699 C   0  0  0  0  0  0  0  0  0  0  0  0
   33.6011   29.1208   50.0887 C   0  0  0  0  0  0  0  0  0  0  0  0
   33.9714   28.2960   49.0494 C   0  0  0  0  0  0  0  0  0  0  0  0
   35.2790   28.3392   48.9199 O   0  0  0  0  0  0  0  0  0  0  0  0
   37.2162   29.4859   50.0290 C   0  0  0  0  0  0  0  0  0  0  0  0
   37.8598   28.8781   50.8950 O   0  0  0  0  0  0  0  0  0  0  0  0
   37.7666   30.5321   49.2134 C   0  0  0  0  0  0  0  0  0  0  0  0
   38.1114   31.7124   49.8493 C   0  0  0  0  0  0  0  0  0  0  0  0
   38.6484   32.7514   49.0853 C   0  0  0  0  0  0  0  0  0  0  0  0
   38.8069   32.5448   47.7321 N   0  0  0  0  0  0  0  0  0  0  0  0
   38.4621   31.3904   47.1531 C   0  0  0  0  0  0  0  0  0  0  0  0
   37.9460   30.3882   47.8803 N   0  0  0  0  0  0  0  0  0  0  0  0
   33.0635   27.4997   48.2264 C   0  0  0  0  0  0  0  0  0  0  0  0
   31.8423   27.4080   48.5855 O   0  0  0  0  0  0  0  0  0  0  0  0
   33.5606   26.8041   46.9955 C   0  0  1  0  0  0  0  0  0  0  0  0
   33.7884   25.2716   47.2979 C   0  0  0  0  0  0  0  0  0  0  0  0
   32.7754   25.7692   46.3340 C   0  0  1  0  0  0  0  0  0  0  0  0
   34.8251   30.3586   51.4044 H   0  0  0  0  0  0  0  0  0  0  0  0
   32.5861   29.2645   50.4003 H   0  0  0  0  0  0  0  0  0  0  0  0
   37.9655   31.8224   50.9190 H   0  0  0  0  0  0  0  0  0  0  0  0
   38.9071   33.6574   49.6076 H   0  0  0  0  0  0  0  0  0  0  0  0
   38.6294   31.3383   46.0894 H   0  0  0  0  0  0  0  0  0  0  0  0
   34.5290   27.2014   46.6301 H   0  0  0  0  0  0  0  0  0  0  0  0
   34.6973   24.8111   46.9255 H   0  0  0  0  0  0  0  0  0  0  0  0
   33.4191   24.8878   48.2459 H   0  0  0  0  0  0  0  0  0  0  0  0
   33.0393   25.6012   45.2492 H   0  0  0  0  0  0  0  0  0  0  0  0
   31.3427   25.5140   46.6361 C   0  0  0  0  0  0  0  0  0  0  0  0
   30.7265   26.6630   47.4128 C   0  0  2  0  0  0  0  0  0  0  0  0
   31.3768   26.9329   48.7199 C   0  0  0  0  0  0  0  0  0  0  0  0
   32.2732   27.5682   48.6157 H   0  0  0  0  0  0  0  0  0  0  0  0
   29.2448   26.4234   47.4701 C   0  0  0  0  0  0  0  0  0  0  0  0
   28.5524   27.6471   47.2023 N   0  0  0  0  0  0  0  0  0  0  0  0
   27.7057   28.7917   47.2663 C   0  0  0  0  0  0  0  0  0  0  0  0
   26.7443   29.1832   47.9801 O   0  0  0  0  0  0  0  0  0  0  0  0
   28.3562   29.4704   46.1170 C   0  0  2  0  0  0  0  0  0  0  0  0
   29.0642   30.2757   46.3541 H   0  0  0  0  0  0  0  0  0  0  0  0
   29.0176   28.1559   45.9021 C   0  0  1  0  0  0  0  0  0  0  0  0
   30.8157   28.1072   46.2819 S   0  0  0  0  0  0  0  0  0  0  0  0
   30.7602   25.4892   45.6829 H   0  0  0  0  0  0  0  0  0  0  0  0
   31.2651   24.5464   47.2060 H   0  0  0  0  0  0  0  0  0  0  0  0
   31.5971   25.9640   49.2124 H   0  0  0  0  0  0  0  0  0  0  0  0
   30.6432   27.4753   49.3560 H   0  0  0  0  0  0  0  0  0  0  0  0
   28.9076   26.0255   48.4468 H   0  0  0  0  0  0  0  0  0  0  0  0
   28.9303   25.6981   46.6911 H   0  0  0  0  0  0  0  0  0  0  0  0
   27.6100   29.6959   45.3173 H   0  0  0  0  0  0  0  0  0  0  0  0
   28.7307   27.5394   45.0514 H   0  0  0  0  0  0  0  0  0  0  0  0
  1  6  1  0
  1  2  2  0
  3  2  1  0
  4  3  2  0
  5  4  1  0
  5  1  1  0
  6  7  2  0
  8  9  2  0
  8  6  1  0
 10  9  1  0
 11 10  2  0
 12 11  1  0
 12 13  2  0
 13  8  1  0
 14 15  2  0
 14  4  1  0
 16 17  1  0
 16 14  1  0
 18 16  1  0
 18 17  1  0
  2 19  1  0
  3 20  1  0
  9 21  1  0
 10 22  1  0
 12 23  1  0
 16 24  1  6
 17 25  1  0
 17 26  1  0
 18 27  1  6
 29 28  1  6
 29 30  1  0
 30 31  1  0
 29 32  1  0
 32 33  1  0
 33 34  1  0
 34 35  2  0
 34 36  1  0
 36 37  1  1
 36 38  1  0
 38 39  1  0
 39 29  1  0
 38 33  1  0
 28 40  1  0
 28 41  1  0
 30 42  1  0
 30 43  1  0
 32 44  1  0
 32 45  1  0
 36 46  1  0
 38 47  1  6
 18 28  1  0
M  ISO  8  19  14  20  14  21  14  22  14  23  14  24  13  25  13  26  13
M  ISO  3  27  13  31   8  37  15
M  END
>  <DihAtoms>  (1) 
15,17,27,28

>  <DihDeg>  (1) 
-179.99992915267362

$$$$
