
     RDKit          3D

 50 53  0  0  0  0  0  0  0  0999 V2000
   35.5196   29.8390   50.5132 C   0  0  0  0  0  0  0  0  0  0  0  0
   37.2678   30.1136   50.7498 S   0  0  0  0  0  0  0  0  0  0  0  0
   37.9153   30.9678   49.3149 C   0  0  0  0  0  0  0  0  0  0  0  0
   38.3423   32.2565   49.5625 C   0  0  0  0  0  0  0  0  0  0  0  0
   38.8651   32.9995   48.4919 C   0  0  0  0  0  0  0  0  0  0  0  0
   38.9171   32.3940   47.2675 N   0  0  0  0  0  0  0  0  0  0  0  0
   38.4810   31.1276   47.0962 C   0  0  0  0  0  0  0  0  0  0  0  0
   37.9910   30.4259   48.0910 N   0  0  0  0  0  0  0  0  0  0  0  0
   35.1319   28.3958   49.4977 S   0  0  0  0  0  0  0  0  0  0  0  0
   32.9597   27.3528   48.1531 C   0  0  1  0  0  0  0  0  0  0  0  0
   33.5805   28.6607   48.5974 C   0  0  2  0  0  0  0  0  0  0  0  0
   33.7944   29.4963   47.3812 C   0  0  0  0  0  0  0  0  0  0  0  0
   33.3950   28.8790   46.2143 O   0  0  0  0  0  0  0  0  0  0  0  0
   32.0405   28.5356   46.2389 C   0  0  0  0  0  0  0  0  0  0  0  0
   31.6777   27.7134   47.4272 C   0  0  2  0  0  0  0  0  0  0  0  0
   33.7709   26.6868   47.2421 O   0  0  0  0  0  0  0  0  0  0  0  0
   30.9323   28.4848   48.3432 O   0  0  0  0  0  0  0  0  0  0  0  0
   35.1219   30.7311   49.9529 H   0  0  0  0  0  0  0  0  0  0  0  0
   34.9379   29.7917   51.4381 H   0  0  0  0  0  0  0  0  0  0  0  0
   38.2998   32.7367   50.5394 H   0  0  0  0  0  0  0  0  0  0  0  0
   39.2066   34.0130   48.6615 H   0  0  0  0  0  0  0  0  0  0  0  0
   38.5263   30.6537   46.1177 H   0  0  0  0  0  0  0  0  0  0  0  0
   32.6829   26.7283   49.0153 H   0  0  0  0  0  0  0  0  0  0  0  0
   32.8023   29.1734   49.2223 H   0  0  0  0  0  0  0  0  0  0  0  0
   34.8538   29.8069   47.2422 H   0  0  0  0  0  0  0  0  0  0  0  0
   33.2274   30.4712   47.4170 H   0  0  0  0  0  0  0  0  0  0  0  0
   31.8918   27.8917   45.3277 H   0  0  0  0  0  0  0  0  0  0  0  0
   31.4134   29.4217   46.0647 H   0  0  0  0  0  0  0  0  0  0  0  0
   31.0960   26.8195   47.1662 H   0  0  0  0  0  0  0  0  0  0  0  0
   33.7456   25.7355   47.4493 H   0  0  0  0  0  0  0  0  0  0  0  0
   29.7226   27.9079   48.6365 C   0  0  0  0  0  0  0  0  0  0  0  0
   29.9989   26.5291   49.2492 C   0  0  1  0  0  0  0  0  0  0  0  0
   30.7476   25.6630   48.2983 C   0  0  0  0  0  0  0  0  0  0  0  0
   30.4840   26.0046   47.2690 H   0  0  0  0  0  0  0  0  0  0  0  0
   30.6846   26.7714   50.5650 C   0  0  0  0  0  0  0  0  0  0  0  0
   30.3115   25.7277   51.4647 N   0  0  0  0  0  0  0  0  0  0  0  0
   30.3652   24.6400   52.4086 C   0  0  0  0  0  0  0  0  0  0  0  0
   31.2442   24.2681   53.2369 O   0  0  0  0  0  0  0  0  0  0  0  0
   29.0034   24.1656   52.0066 C   0  0  1  0  0  0  0  0  0  0  0  0
   29.0288   23.4387   51.1708 H   0  0  0  0  0  0  0  0  0  0  0  0
   28.8665   25.5984   51.5559 C   0  0  2  0  0  0  0  0  0  0  0  0
   28.4310   25.7867   49.7982 S   0  0  0  0  0  0  0  0  0  0  0  0
   29.2110   27.6969   47.6560 H   0  0  0  0  0  0  0  0  0  0  0  0
   29.0374   28.4915   49.2489 H   0  0  0  0  0  0  0  0  0  0  0  0
   31.8484   25.8348   48.3830 H   0  0  0  0  0  0  0  0  0  0  0  0
   30.4857   24.5957   48.3403 H   0  0  0  0  0  0  0  0  0  0  0  0
   30.4596   27.7932   50.9653 H   0  0  0  0  0  0  0  0  0  0  0  0
   31.7571   26.7368   50.3835 H   0  0  0  0  0  0  0  0  0  0  0  0
   28.3085   23.9422   52.8216 H   0  0  0  0  0  0  0  0  0  0  0  0
   28.3479   26.2719   52.2415 H   0  0  0  0  0  0  0  0  0  0  0  0
  1  2  1  0
  3  4  2  0
  3  2  1  0
  5  4  1  0
  6  5  2  0
  7  6  1  0
  7  8  2  0
  8  3  1  0
  9  1  1  0
 10 16  1  0
 10 11  1  0
 11  9  1  0
 12 11  1  0
 13 14  1  0
 13 12  1  0
 14 15  1  0
 15 10  1  0
 15 17  1  0
  1 18  1  0
  1 19  1  0
  4 20  1  0
  5 21  1  0
  7 22  1  0
 10 23  1  1
 11 24  1  1
 12 25  1  0
 12 26  1  0
 14 27  1  0
 14 28  1  0
 15 29  1  6
 16 30  1  0
 32 31  1  6
 32 33  1  0
 33 34  1  0
 32 35  1  0
 35 36  1  0
 36 37  1  0
 37 38  2  0
 37 39  1  0
 39 40  1  6
 39 41  1  0
 41 42  1  0
 42 32  1  0
 41 36  1  0
 31 43  1  0
 31 44  1  0
 33 45  1  0
 33 46  1  0
 35 47  1  0
 35 48  1  0
 39 49  1  0
 41 50  1  1
 17 31  1  0
M  ISO  8  18   8  19   8  20  14  21  14  22  14  23  13  24  13  25  13
M  ISO  7  26  13  27  13  28  13  29  13  30   3  34   8  40  15
M  END
>  <DihAtoms>  (1) 
14,16,30,31

>  <DihDeg>  (1) 
-179.9998919688588

$$$$
