
     RDKit          3D

 36 38  0  0  0  0  0  0  0  0999 V2000
   37.0533   29.4007   51.1698 C   0  0  0  0  0  0  0  0  0  0  0  0
   37.6700   30.0211   50.0826 C   0  0  0  0  0  0  0  0  0  0  0  0
   36.9002   30.4976   49.0511 C   0  0  0  0  0  0  0  0  0  0  0  0
   35.5519   30.3343   49.1493 N   0  0  0  0  0  0  0  0  0  0  0  0
   34.9784   29.7334   50.2026 C   0  0  0  0  0  0  0  0  0  0  0  0
   35.7356   29.2651   51.2206 N   0  0  0  0  0  0  0  0  0  0  0  0
   37.4455   31.1554   47.8512 C   0  0  0  0  0  0  0  0  0  0  0  0
   38.7626   31.8269   48.1705 C   0  0  0  0  0  0  0  0  0  0  0  0
   38.4554   33.3685   49.0793 S   0  0  0  0  0  0  0  0  0  0  0  0
   37.7170   29.0399   51.9589 H   0  0  0  0  0  0  0  0  0  0  0  0
   38.7414   30.1195   50.0613 H   0  0  0  0  0  0  0  0  0  0  0  0
   33.9058   29.6079   50.2809 H   0  0  0  0  0  0  0  0  0  0  0  0
   36.7686   31.9797   47.5049 H   0  0  0  0  0  0  0  0  0  0  0  0
   37.6210   30.4734   47.0004 H   0  0  0  0  0  0  0  0  0  0  0  0
   39.1593   32.1408   47.1520 H   0  0  0  0  0  0  0  0  0  0  0  0
   39.5379   31.1940   48.5818 H   0  0  0  0  0  0  0  0  0  0  0  0
   39.5999   34.5986   48.4261 C   0  0  0  0  0  0  0  0  0  0  0  0
   39.1122   35.3187   47.1949 C   0  0  1  0  0  0  0  0  0  0  0  0
   38.8569   34.3367   46.0742 C   0  0  0  0  0  0  0  0  0  0  0  0
   39.6460   33.5411   46.1849 H   0  0  0  0  0  0  0  0  0  0  0  0
   38.0071   36.2231   47.5294 C   0  0  0  0  0  0  0  0  0  0  0  0
   38.2551   37.5242   46.9701 N   0  0  0  0  0  0  0  0  0  0  0  0
   37.9844   38.7627   46.3232 C   0  0  0  0  0  0  0  0  0  0  0  0
   37.0904   39.6396   46.1244 O   0  0  0  0  0  0  0  0  0  0  0  0
   39.3576   38.7738   45.8075 C   0  0  1  0  0  0  0  0  0  0  0  0
   39.4717   38.1166   44.9135 H   0  0  0  0  0  0  0  0  0  0  0  0
   39.6143   37.9594   47.0584 C   0  0  2  0  0  0  0  0  0  0  0  0
   40.5160   36.4225   46.7302 S   0  0  0  0  0  0  0  0  0  0  0  0
   39.7851   35.3827   49.2310 H   0  0  0  0  0  0  0  0  0  0  0  0
   40.6134   34.1725   48.2388 H   0  0  0  0  0  0  0  0  0  0  0  0
   39.0375   34.8266   45.0885 H   0  0  0  0  0  0  0  0  0  0  0  0
   37.8432   33.9396   46.1587 H   0  0  0  0  0  0  0  0  0  0  0  0
   37.7495   36.3202   48.6047 H   0  0  0  0  0  0  0  0  0  0  0  0
   37.0734   35.7868   47.0608 H   0  0  0  0  0  0  0  0  0  0  0  0
   39.8666   39.7372   45.7352 H   0  0  0  0  0  0  0  0  0  0  0  0
   39.9314   38.5147   47.9542 H   0  0  0  0  0  0  0  0  0  0  0  0
  1  6  2  0
  2  1  1  0
  3  4  1  0
  3  2  2  0
  4  5  2  0
  5  6  1  0
  7  8  1  0
  7  3  1  0
  8  9  1  0
  1 10  1  0
  2 11  1  0
  5 12  1  0
  7 13  1  0
  7 14  1  0
  8 15  1  0
  8 16  1  0
 18 17  1  1
 18 19  1  0
 19 20  1  0
 18 21  1  0
 21 22  1  0
 22 23  1  0
 23 24  2  0
 23 25  1  0
 25 26  1  6
 25 27  1  0
 27 28  1  0
 28 18  1  0
 27 22  1  0
 17 29  1  0
 17 30  1  0
 19 31  1  0
 19 32  1  0
 21 33  1  0
 21 34  1  0
 25 35  1  0
 27 36  1  1
  9 17  1  0
M  ISO  8  10  14  11  14  12  14  13   8  14   8  15   8  16   8  20   8
M  ISO  1  26  15
M  END
>  <DihAtoms>  (1) 
7,8,16,17

>  <DihDeg>  (1) 
175.41778342207772

$$$$
