
     RDKit          3D

 36 38  0  0  0  0  0  0  0  0999 V2000
   37.0533   29.4007   51.1698 C   0  0  0  0  0  0  0  0  0  0  0  0
   37.6700   30.0211   50.0826 C   0  0  0  0  0  0  0  0  0  0  0  0
   36.9002   30.4976   49.0511 C   0  0  0  0  0  0  0  0  0  0  0  0
   35.5519   30.3343   49.1493 N   0  0  0  0  0  0  0  0  0  0  0  0
   34.9784   29.7334   50.2026 C   0  0  0  0  0  0  0  0  0  0  0  0
   35.7356   29.2651   51.2206 N   0  0  0  0  0  0  0  0  0  0  0  0
   37.4455   31.1554   47.8512 C   0  0  0  0  0  0  0  0  0  0  0  0
   38.7626   31.8269   48.1705 C   0  0  0  0  0  0  0  0  0  0  0  0
   38.4554   33.3685   49.0793 S   0  0  0  0  0  0  0  0  0  0  0  0
   37.7170   29.0399   51.9589 H   0  0  0  0  0  0  0  0  0  0  0  0
   38.7414   30.1195   50.0613 H   0  0  0  0  0  0  0  0  0  0  0  0
   33.9058   29.6079   50.2809 H   0  0  0  0  0  0  0  0  0  0  0  0
   36.7686   31.9797   47.5049 H   0  0  0  0  0  0  0  0  0  0  0  0
   37.6210   30.4734   47.0004 H   0  0  0  0  0  0  0  0  0  0  0  0
   39.1593   32.1408   47.1520 H   0  0  0  0  0  0  0  0  0  0  0  0
   39.5379   31.1940   48.5818 H   0  0  0  0  0  0  0  0  0  0  0  0
   39.5999   34.5986   48.4261 C   0  0  0  0  0  0  0  0  0  0  0  0
   40.5777   34.0687   47.4086 C   0  0  1  0  0  0  0  0  0  0  0  0
   41.4278   32.9739   48.0123 C   0  0  0  0  0  0  0  0  0  0  0  0
   41.5885   33.2741   49.0856 H   0  0  0  0  0  0  0  0  0  0  0  0
   39.8912   33.7403   46.1549 C   0  0  0  0  0  0  0  0  0  0  0  0
   40.5937   34.3266   45.0459 N   0  0  0  0  0  0  0  0  0  0  0  0
   41.1625   34.4371   43.7460 C   0  0  0  0  0  0  0  0  0  0  0  0
   41.0458   34.0571   42.5420 O   0  0  0  0  0  0  0  0  0  0  0  0
   42.1874   35.3349   44.2895 C   0  0  1  0  0  0  0  0  0  0  0  0
   43.0025   34.7730   44.8036 H   0  0  0  0  0  0  0  0  0  0  0  0
   41.0918   35.6447   45.2883 C   0  0  2  0  0  0  0  0  0  0  0  0
   41.6458   35.5193   47.0089 S   0  0  0  0  0  0  0  0  0  0  0  0
   38.9958   35.4230   47.9239 H   0  0  0  0  0  0  0  0  0  0  0  0
   40.1491   35.1339   49.2358 H   0  0  0  0  0  0  0  0  0  0  0  0
   42.4347   32.9636   47.5324 H   0  0  0  0  0  0  0  0  0  0  0  0
   40.9139   32.0153   47.9152 H   0  0  0  0  0  0  0  0  0  0  0  0
   38.8132   33.9974   46.0939 H   0  0  0  0  0  0  0  0  0  0  0  0
   39.9115   32.6126   46.0559 H   0  0  0  0  0  0  0  0  0  0  0  0
   42.5268   36.1604   43.6605 H   0  0  0  0  0  0  0  0  0  0  0  0
   40.4416   36.5029   45.0596 H   0  0  0  0  0  0  0  0  0  0  0  0
  1  6  2  0
  2  1  1  0
  3  4  1  0
  3  2  2  0
  4  5  2  0
  5  6  1  0
  7  8  1  0
  7  3  1  0
  8  9  1  0
  1 10  1  0
  2 11  1  0
  5 12  1  0
  7 13  1  0
  7 14  1  0
  8 15  1  0
  8 16  1  0
 18 17  1  1
 18 19  1  0
 19 20  1  0
 18 21  1  0
 21 22  1  0
 22 23  1  0
 23 24  2  0
 23 25  1  0
 25 26  1  1
 25 27  1  0
 27 28  1  0
 28 18  1  0
 27 22  1  0
 17 29  1  0
 17 30  1  0
 19 31  1  0
 19 32  1  0
 21 33  1  0
 21 34  1  0
 25 35  1  0
 27 36  1  6
  9 17  1  0
M  ISO  8  10  14  11  14  12  14  13   8  14   8  15   8  16   8  20   8
M  ISO  1  26  15
M  END
>  <DihAtoms>  (1) 
7,8,16,17

>  <DihDeg>  (1) 
175.41778342207772

$$$$
