
     RDKit          3D

 48 51  0  0  0  0  0  0  0  0999 V2000
   37.0678   30.0754   48.9466 C   0  0  0  0  0  0  0  0  0  0  0  0
   38.0301   30.7144   48.1451 C   0  0  0  0  0  0  0  0  0  0  0  0
   37.6915   31.0136   46.8259 C   0  0  0  0  0  0  0  0  0  0  0  0
   36.4547   30.6749   46.3819 N   0  0  0  0  0  0  0  0  0  0  0  0
   35.5528   30.0606   47.1803 C   0  0  0  0  0  0  0  0  0  0  0  0
   35.8575   29.7654   48.4467 N   0  0  0  0  0  0  0  0  0  0  0  0
   38.6106   31.6548   45.9660 N   0  0  0  0  0  0  0  0  0  0  0  0
   39.6568   32.5688   46.4115 C   0  0  0  0  0  0  0  0  0  0  0  0
   40.2075   33.2073   45.1734 C   0  0  0  0  0  0  0  0  0  0  0  0
   39.1533   32.9636   44.1714 C   0  0  0  0  0  0  0  0  0  0  0  0
   38.7148   31.5575   44.5544 C   0  0  2  0  0  0  0  0  0  0  0  0
   37.5338   31.1143   43.7756 C   0  0  0  0  0  0  0  0  0  0  0  0
   36.5531   32.0836   43.9524 F   0  0  0  0  0  0  0  0  0  0  0  0
   36.9832   29.9406   44.1696 F   0  0  0  0  0  0  0  0  0  0  0  0
   37.8727   31.1703   42.4463 F   0  0  0  0  0  0  0  0  0  0  0  0
   39.8179   30.5998   44.2719 C   0  0  0  0  0  0  0  0  0  0  0  0
   39.4840   29.4970   44.7140 O   0  0  0  0  0  0  0  0  0  0  0  0
   37.3467   29.8516   49.9637 H   0  0  0  0  0  0  0  0  0  0  0  0
   39.0004   30.9616   48.5496 H   0  0  0  0  0  0  0  0  0  0  0  0
   34.5754   29.7979   46.8145 H   0  0  0  0  0  0  0  0  0  0  0  0
   40.3930   32.0618   47.0419 H   0  0  0  0  0  0  0  0  0  0  0  0
   39.1232   33.2976   47.0788 H   0  0  0  0  0  0  0  0  0  0  0  0
   41.2369   32.9519   44.9134 H   0  0  0  0  0  0  0  0  0  0  0  0
   40.2195   34.3020   45.3778 H   0  0  0  0  0  0  0  0  0  0  0  0
   39.5276   32.8926   43.1323 H   0  0  0  0  0  0  0  0  0  0  0  0
   38.3281   33.6801   44.2368 H   0  0  0  0  0  0  0  0  0  0  0  0
   40.7762   30.9719   44.7436 H   0  0  0  0  0  0  0  0  0  0  0  0
   40.0414   30.6547   43.1833 H   0  0  0  0  0  0  0  0  0  0  0  0
   40.3980   28.4745   44.5386 C   0  0  0  0  0  0  0  0  0  0  0  0
   41.4172   28.9039   43.5225 C   0  0  1  0  0  0  0  0  0  0  0  0
   40.7373   29.2050   42.2107 C   0  0  0  0  0  0  0  0  0  0  0  0
   41.5228   29.7309   41.5930 H   0  0  0  0  0  0  0  0  0  0  0  0
   42.2834   30.0420   43.9212 C   0  0  0  0  0  0  0  0  0  0  0  0
   43.4897   29.5388   44.5214 N   0  0  0  0  0  0  0  0  0  0  0  0
   44.5725   29.2955   45.4137 C   0  0  0  0  0  0  0  0  0  0  0  0
   45.1192   29.9164   46.3873 O   0  0  0  0  0  0  0  0  0  0  0  0
   44.8870   27.9799   44.7970 C   0  0  1  0  0  0  0  0  0  0  0  0
   45.9421   27.7501   44.6197 H   0  0  0  0  0  0  0  0  0  0  0  0
   44.1216   28.5683   43.6384 C   0  0  1  0  0  0  0  0  0  0  0  0
   42.6323   27.5979   43.1878 S   0  0  0  0  0  0  0  0  0  0  0  0
   39.8462   27.6220   44.0925 H   0  0  0  0  0  0  0  0  0  0  0  0
   40.8495   28.0959   45.4633 H   0  0  0  0  0  0  0  0  0  0  0  0
   39.8551   29.8492   42.3472 H   0  0  0  0  0  0  0  0  0  0  0  0
   40.5086   28.2827   41.6417 H   0  0  0  0  0  0  0  0  0  0  0  0
   42.5965   30.6365   43.0150 H   0  0  0  0  0  0  0  0  0  0  0  0
   41.7953   30.7327   44.6034 H   0  0  0  0  0  0  0  0  0  0  0  0
   44.2708   27.2081   45.3046 H   0  0  0  0  0  0  0  0  0  0  0  0
   44.6914   28.9633   42.8006 H   0  0  0  0  0  0  0  0  0  0  0  0
  2  1  2  0
  3  2  1  0
  4  3  2  0
  4  5  1  0
  5  6  2  0
  6  1  1  0
  7  8  1  0
  7  3  1  0
  9  8  1  0
 10 11  1  0
 10  9  1  0
 11 16  1  1
 11  7  1  0
 12 13  1  0
 12 14  1  0
 12 11  1  0
 15 12  1  0
 16 17  1  0
  1 18  1  0
  2 19  1  0
  5 20  1  0
  8 21  1  0
  8 22  1  0
  9 23  1  0
  9 24  1  0
 10 25  1  0
 10 26  1  0
 16 27  1  0
 16 28  1  0
 30 29  1  1
 30 31  1  0
 31 32  1  0
 30 33  1  0
 33 34  1  0
 34 35  1  0
 35 36  2  0
 35 37  1  0
 37 38  1  6
 37 39  1  0
 39 40  1  0
 40 30  1  0
 39 34  1  0
 29 41  1  0
 29 42  1  0
 31 43  1  0
 31 44  1  0
 33 45  1  0
 33 46  1  0
 37 47  1  0
 39 48  1  6
 17 29  1  0
M  ISO  8  18  14  19  14  20  14  21  13  22  13  23  13  24  13  25  13
M  ISO  5  26  13  27   8  28   8  32   8  38  15
M  END
>  <DihAtoms>  (1) 
15,16,28,29

>  <DihDeg>  (1) 
179.99560136399646

$$$$
