
     RDKit          3D

 42 44  0  0  0  0  0  0  0  0999 V2000
   34.8183   28.3761   49.3577 C   0  0  0  0  0  0  0  0  0  0  0  0
   34.1231   28.8096   48.3410 C   0  0  0  0  0  0  0  0  0  0  0  0
   37.2494   30.1550   51.4523 C   0  0  0  0  0  0  0  0  0  0  0  0
   38.0950   30.7289   50.5024 C   0  0  0  0  0  0  0  0  0  0  0  0
   37.8221   30.4996   49.1581 C   0  0  0  0  0  0  0  0  0  0  0  0
   36.7282   29.7162   48.8550 N   0  0  0  0  0  0  0  0  0  0  0  0
   35.9509   29.1903   49.7926 C   0  0  0  0  0  0  0  0  0  0  0  0
   36.2189   29.4148   51.0847 N   0  0  0  0  0  0  0  0  0  0  0  0
   32.9460   28.1287   47.7564 C   0  0  0  0  0  0  0  0  0  0  0  0
   32.2670   27.3607   48.7115 O   0  0  0  0  0  0  0  0  0  0  0  0
   29.8549   26.5728   48.4998 O   0  0  0  0  0  0  0  0  0  0  0  0
   30.6359   27.8810   48.7343 P   0  0  2  0  0  0  0  0  0  0  0  0
   30.3987   28.9599   47.4726 O   0  0  0  0  0  0  0  0  0  0  0  0
   30.2346   28.5274   50.2314 O   0  0  0  0  0  0  0  0  0  0  0  0
   34.5081   27.4315   49.8182 H   0  0  0  0  0  0  0  0  0  0  0  0
   34.4418   29.7575   47.8861 H   0  0  0  0  0  0  0  0  0  0  0  0
   37.4947   30.3569   52.5058 H   0  0  0  0  0  0  0  0  0  0  0  0
   38.9486   31.3391   50.6995 H   0  0  0  0  0  0  0  0  0  0  0  0
   38.4328   30.9111   48.3561 H   0  0  0  0  0  0  0  0  0  0  0  0
   33.3644   27.4300   46.9840 H   0  0  0  0  0  0  0  0  0  0  0  0
   32.3094   28.8558   47.2343 H   0  0  0  0  0  0  0  0  0  0  0  0
   30.0112   28.5593   46.6705 H   0  0  0  0  0  0  0  0  0  0  0  0
   30.1901   29.9170   50.2447 C   0  0  0  0  0  0  0  0  0  0  0  0
   31.5912   30.3686   49.8541 C   0  0  1  0  0  0  0  0  0  0  0  0
   31.6196   31.8765   49.8471 C   0  0  0  0  0  0  0  0  0  0  0  0
   30.5903   32.2309   49.6070 H   0  0  0  0  0  0  0  0  0  0  0  0
   32.5763   29.7385   50.7320 C   0  0  0  0  0  0  0  0  0  0  0  0
   33.6823   29.2359   50.0208 N   0  0  0  0  0  0  0  0  0  0  0  0
   35.0000   28.9399   49.6597 C   0  0  0  0  0  0  0  0  0  0  0  0
   36.1310   28.8705   50.2183 O   0  0  0  0  0  0  0  0  0  0  0  0
   34.5841   28.7101   48.2519 C   0  0  1  0  0  0  0  0  0  0  0  0
   34.7279   29.6269   47.6681 H   0  0  0  0  0  0  0  0  0  0  0  0
   33.2381   28.5425   48.8696 C   0  0  2  0  0  0  0  0  0  0  0  0
   31.9617   29.6806   48.2152 S   0  0  0  0  0  0  0  0  0  0  0  0
   30.0207   30.2201   51.3002 H   0  0  0  0  0  0  0  0  0  0  0  0
   29.4220   30.3547   49.5893 H   0  0  0  0  0  0  0  0  0  0  0  0
   32.2856   32.2685   49.0548 H   0  0  0  0  0  0  0  0  0  0  0  0
   31.9348   32.2423   50.8604 H   0  0  0  0  0  0  0  0  0  0  0  0
   32.8440   30.4926   51.5271 H   0  0  0  0  0  0  0  0  0  0  0  0
   32.1146   28.9070   51.3041 H   0  0  0  0  0  0  0  0  0  0  0  0
   35.0741   27.7944   47.8651 H   0  0  0  0  0  0  0  0  0  0  0  0
   32.8819   27.5003   48.9796 H   0  0  0  0  0  0  0  0  0  0  0  0
  1  7  1  0
  2  1  2  0
  4  3  2  0
  5  4  1  0
  6  5  2  0
  6  7  1  0
  7  8  2  0
  8  3  1  0
  9  2  1  0
  9 10  1  0
 12 10  1  1
 11 12  2  0
 12 14  1  0
 13 12  1  0
  1 15  1  0
  2 16  1  0
  3 17  1  0
  4 18  1  0
  5 19  1  0
  9 20  1  0
  9 21  1  0
 13 22  1  0
 24 23  1  1
 24 25  1  0
 25 26  1  0
 24 27  1  0
 27 28  1  0
 28 29  1  0
 29 30  2  0
 29 31  1  0
 31 32  1  6
 31 33  1  0
 33 34  1  0
 34 24  1  0
 33 28  1  0
 23 35  1  0
 23 36  1  0
 25 37  1  0
 25 38  1  0
 27 39  1  0
 27 40  1  0
 31 41  1  0
 33 42  1  1
 14 23  1  0
M  ISO  8  17  14  18  14  19  14  20   8  21   8  22   3  26   8  32  15
M  END
>  <DihAtoms>  (1) 
11,13,22,23

>  <DihDeg>  (1) 
179.89368573194645

$$$$
