
     RDKit          3D

 42 44  0  0  0  0  0  0  0  0999 V2000
   34.8183   28.3761   49.3577 C   0  0  0  0  0  0  0  0  0  0  0  0
   34.1231   28.8096   48.3410 C   0  0  0  0  0  0  0  0  0  0  0  0
   37.2494   30.1550   51.4523 C   0  0  0  0  0  0  0  0  0  0  0  0
   38.0950   30.7289   50.5024 C   0  0  0  0  0  0  0  0  0  0  0  0
   37.8221   30.4996   49.1581 C   0  0  0  0  0  0  0  0  0  0  0  0
   36.7282   29.7162   48.8550 N   0  0  0  0  0  0  0  0  0  0  0  0
   35.9509   29.1903   49.7926 C   0  0  0  0  0  0  0  0  0  0  0  0
   36.2189   29.4148   51.0847 N   0  0  0  0  0  0  0  0  0  0  0  0
   32.9460   28.1287   47.7564 C   0  0  0  0  0  0  0  0  0  0  0  0
   32.2670   27.3607   48.7115 O   0  0  0  0  0  0  0  0  0  0  0  0
   29.8549   26.5728   48.4998 O   0  0  0  0  0  0  0  0  0  0  0  0
   30.6359   27.8810   48.7343 P   0  0  2  0  0  0  0  0  0  0  0  0
   30.3987   28.9599   47.4726 O   0  0  0  0  0  0  0  0  0  0  0  0
   30.2346   28.5274   50.2314 O   0  0  0  0  0  0  0  0  0  0  0  0
   34.5081   27.4315   49.8182 H   0  0  0  0  0  0  0  0  0  0  0  0
   34.4418   29.7575   47.8861 H   0  0  0  0  0  0  0  0  0  0  0  0
   37.4947   30.3569   52.5058 H   0  0  0  0  0  0  0  0  0  0  0  0
   38.9486   31.3391   50.6995 H   0  0  0  0  0  0  0  0  0  0  0  0
   38.4328   30.9111   48.3561 H   0  0  0  0  0  0  0  0  0  0  0  0
   33.3644   27.4300   46.9840 H   0  0  0  0  0  0  0  0  0  0  0  0
   32.3094   28.8558   47.2343 H   0  0  0  0  0  0  0  0  0  0  0  0
   30.0112   28.5593   46.6705 H   0  0  0  0  0  0  0  0  0  0  0  0
   30.1901   29.9170   50.2447 C   0  0  0  0  0  0  0  0  0  0  0  0
   31.6452   30.3667   50.2337 C   0  0  1  0  0  0  0  0  0  0  0  0
   31.6765   31.8745   50.2473 C   0  0  0  0  0  0  0  0  0  0  0  0
   30.7449   32.2344   49.7522 H   0  0  0  0  0  0  0  0  0  0  0  0
   32.3687   29.7261   51.3311 C   0  0  0  0  0  0  0  0  0  0  0  0
   33.6204   29.2252   50.9258 N   0  0  0  0  0  0  0  0  0  0  0  0
   34.9863   28.9274   50.9153 C   0  0  0  0  0  0  0  0  0  0  0  0
   35.9342   28.8495   51.7469 O   0  0  0  0  0  0  0  0  0  0  0  0
   34.9483   28.7103   49.4459 C   0  0  1  0  0  0  0  0  0  0  0  0
   35.2395   29.6312   48.9271 H   0  0  0  0  0  0  0  0  0  0  0  0
   33.4882   28.5426   49.6931 C   0  0  2  0  0  0  0  0  0  0  0  0
   32.4261   29.6905   48.7406 S   0  0  0  0  0  0  0  0  0  0  0  0
   29.7538   30.2123   51.2230 H   0  0  0  0  0  0  0  0  0  0  0  0
   29.6183   30.3627   49.4167 H   0  0  0  0  0  0  0  0  0  0  0  0
   32.5254   32.2704   49.6576 H   0  0  0  0  0  0  0  0  0  0  0  0
   31.7193   32.2311   51.3107 H   0  0  0  0  0  0  0  0  0  0  0  0
   32.4227   30.4730   52.1748 H   0  0  0  0  0  0  0  0  0  0  0  0
   31.7737   28.8917   51.7571 H   0  0  0  0  0  0  0  0  0  0  0  0
   35.5204   27.7960   49.1913 H   0  0  0  0  0  0  0  0  0  0  0  0
   33.1142   27.5009   49.6982 H   0  0  0  0  0  0  0  0  0  0  0  0
  1  7  1  0
  2  1  2  0
  4  3  2  0
  5  4  1  0
  6  5  2  0
  6  7  1  0
  7  8  2  0
  8  3  1  0
  9  2  1  0
  9 10  1  0
 12 10  1  1
 11 12  2  0
 12 14  1  0
 13 12  1  0
  1 15  1  0
  2 16  1  0
  3 17  1  0
  4 18  1  0
  5 19  1  0
  9 20  1  0
  9 21  1  0
 13 22  1  0
 24 23  1  6
 24 25  1  0
 25 26  1  0
 24 27  1  0
 27 28  1  0
 28 29  1  0
 29 30  2  0
 29 31  1  0
 31 32  1  6
 31 33  1  0
 33 34  1  0
 34 24  1  0
 33 28  1  0
 23 35  1  0
 23 36  1  0
 25 37  1  0
 25 38  1  0
 27 39  1  0
 27 40  1  0
 31 41  1  0
 33 42  1  1
 14 23  1  0
M  ISO  8  17  14  18  14  19  14  20   8  21   8  22   3  26   8  32  15
M  END
>  <DihAtoms>  (1) 
11,13,22,23

>  <DihDeg>  (1) 
179.89368573194645

$$$$
