
     RDKit          3D

 42 44  0  0  0  0  0  0  0  0999 V2000
   34.8183   28.3761   49.3577 C   0  0  0  0  0  0  0  0  0  0  0  0
   34.1231   28.8096   48.3410 C   0  0  0  0  0  0  0  0  0  0  0  0
   37.2494   30.1550   51.4523 C   0  0  0  0  0  0  0  0  0  0  0  0
   38.0950   30.7289   50.5024 C   0  0  0  0  0  0  0  0  0  0  0  0
   37.8221   30.4996   49.1581 C   0  0  0  0  0  0  0  0  0  0  0  0
   36.7282   29.7162   48.8550 N   0  0  0  0  0  0  0  0  0  0  0  0
   35.9509   29.1903   49.7926 C   0  0  0  0  0  0  0  0  0  0  0  0
   36.2189   29.4148   51.0847 N   0  0  0  0  0  0  0  0  0  0  0  0
   32.9460   28.1287   47.7564 C   0  0  0  0  0  0  0  0  0  0  0  0
   32.2670   27.3607   48.7115 O   0  0  0  0  0  0  0  0  0  0  0  0
   29.8549   26.5728   48.4998 O   0  0  0  0  0  0  0  0  0  0  0  0
   30.6359   27.8810   48.7343 P   0  0  2  0  0  0  0  0  0  0  0  0
   30.3987   28.9599   47.4726 O   0  0  0  0  0  0  0  0  0  0  0  0
   30.2346   28.5274   50.2314 O   0  0  0  0  0  0  0  0  0  0  0  0
   34.5081   27.4315   49.8182 H   0  0  0  0  0  0  0  0  0  0  0  0
   34.4418   29.7575   47.8861 H   0  0  0  0  0  0  0  0  0  0  0  0
   37.4947   30.3569   52.5058 H   0  0  0  0  0  0  0  0  0  0  0  0
   38.9486   31.3391   50.6995 H   0  0  0  0  0  0  0  0  0  0  0  0
   38.4328   30.9111   48.3561 H   0  0  0  0  0  0  0  0  0  0  0  0
   33.3644   27.4300   46.9840 H   0  0  0  0  0  0  0  0  0  0  0  0
   32.3094   28.8558   47.2343 H   0  0  0  0  0  0  0  0  0  0  0  0
   30.0112   28.5593   46.6705 H   0  0  0  0  0  0  0  0  0  0  0  0
   30.1901   29.9170   50.2447 C   0  0  0  0  0  0  0  0  0  0  0  0
   29.1284   30.2958   49.2205 C   0  0  1  0  0  0  0  0  0  0  0  0
   29.0234   31.7997   49.1792 C   0  0  0  0  0  0  0  0  0  0  0  0
   29.3088   32.1843   50.1859 H   0  0  0  0  0  0  0  0  0  0  0  0
   29.4323   29.6646   47.9371 C   0  0  0  0  0  0  0  0  0  0  0  0
   28.2940   29.0889   47.3415 N   0  0  0  0  0  0  0  0  0  0  0  0
   27.3414   28.7260   46.3848 C   0  0  0  0  0  0  0  0  0  0  0  0
   27.2648   28.6353   45.1271 O   0  0  0  0  0  0  0  0  0  0  0  0
   26.3438   28.4538   47.4518 C   0  0  1  0  0  0  0  0  0  0  0  0
   25.7155   29.3388   47.6068 H   0  0  0  0  0  0  0  0  0  0  0  0
   27.5586   28.3660   48.3109 C   0  0  2  0  0  0  0  0  0  0  0  0
   27.5647   29.5253   49.7281 S   0  0  0  0  0  0  0  0  0  0  0  0
   31.1705   30.2707   49.8598 H   0  0  0  0  0  0  0  0  0  0  0  0
   29.9813   30.3569   51.2316 H   0  0  0  0  0  0  0  0  0  0  0  0
   27.9839   32.1314   48.9933 H   0  0  0  0  0  0  0  0  0  0  0  0
   29.7222   32.1950   48.3949 H   0  0  0  0  0  0  0  0  0  0  0  0
   29.9442   30.4403   47.2977 H   0  0  0  0  0  0  0  0  0  0  0  0
   30.2041   28.8768   48.0620 H   0  0  0  0  0  0  0  0  0  0  0  0
   25.8165   27.5040   47.2330 H   0  0  0  0  0  0  0  0  0  0  0  0
   27.8899   27.3443   48.5783 H   0  0  0  0  0  0  0  0  0  0  0  0
  1  7  1  0
  2  1  2  0
  4  3  2  0
  5  4  1  0
  6  5  2  0
  6  7  1  0
  7  8  2  0
  8  3  1  0
  9  2  1  0
  9 10  1  0
 12 10  1  1
 11 12  2  0
 12 14  1  0
 13 12  1  0
  1 15  1  0
  2 16  1  0
  3 17  1  0
  4 18  1  0
  5 19  1  0
  9 20  1  0
  9 21  1  0
 13 22  1  0
 24 23  1  1
 24 25  1  0
 25 26  1  0
 24 27  1  0
 27 28  1  0
 28 29  1  0
 29 30  2  0
 29 31  1  0
 31 32  1  1
 31 33  1  0
 33 34  1  0
 34 24  1  0
 33 28  1  0
 23 35  1  0
 23 36  1  0
 25 37  1  0
 25 38  1  0
 27 39  1  0
 27 40  1  0
 31 41  1  0
 33 42  1  1
 14 23  1  0
M  ISO  8  17  14  18  14  19  14  20   8  21   8  22   3  26   8  32  15
M  END
>  <DihAtoms>  (1) 
11,13,22,23

>  <DihDeg>  (1) 
179.89368573194645

$$$$
