
     RDKit          3D

 45 49  0  0  1  0  0  0  0  0999 V2000
   37.7670   31.8670   49.5900 C   0  0  0  0  0  0  0  0  0  0  0  0
   36.7570   32.3610   50.1830 O   0  0  0  0  0  0  0  0  0  0  0  0
   34.5490   29.1420   48.6180 C   0  0  2  0  0  0  0  0  0  0  0  0
   35.1940   28.4000   49.7390 C   0  0  0  0  0  0  0  0  0  0  0  0
   36.3260   29.1770   50.2420 N   0  0  0  0  0  0  0  0  0  0  0  0
   37.2730   29.9070   51.0380 C   0  0  0  0  0  0  0  0  0  0  0  0
   37.4830   30.0830   52.2510 O   0  0  0  0  0  0  0  0  0  0  0  0
   37.9940   30.4380   49.9140 C   0  0  1  0  0  0  0  0  0  0  0  0
   37.1690   29.4390   49.1140 C   0  0  2  0  0  0  0  0  0  0  0  0
   35.9560   30.1530   47.9810 S   0  0  0  0  0  0  0  0  0  0  0  0
   33.3410   29.9480   48.9520 C   0  0  0  0  0  0  0  0  0  0  0  0
   34.2690   28.1410   47.4800 C   0  0  0  0  0  0  0  0  0  0  0  0
   34.3290   28.8240   46.2660 O   0  0  0  0  0  0  0  0  0  0  0  0
   38.5950   32.6250   48.7040 C   0  0  0  0  0  0  0  0  0  0  0  0
   39.2020   33.7590   49.1920 C   0  0  0  0  0  0  0  0  0  0  0  0
   40.0230   34.5060   48.3060 C   0  0  0  0  0  0  0  0  0  0  0  0
   40.1550   34.0460   47.0160 N   0  0  0  0  0  0  0  0  0  0  0  0
   39.5520   32.9500   46.5920 C   0  0  0  0  0  0  0  0  0  0  0  0
   38.7720   32.2310   47.4170 N   0  0  0  0  0  0  0  0  0  0  0  0
   39.2240   33.2130   44.1440 C   0  0  0  0  0  0  0  0  0  0  0  0
   39.7190   32.4960   45.2150 C   0  0  0  0  0  0  0  0  0  0  0  0
   40.3850   31.3200   44.9300 C   0  0  0  0  0  0  0  0  0  0  0  0
   40.5720   30.8420   43.6430 C   0  0  0  0  0  0  0  0  0  0  0  0
   41.1890   29.7260   43.1740 N   0  0  0  0  0  0  0  0  0  0  0  0
   41.0720   29.7610   41.8370 N   0  0  0  0  0  0  0  0  0  0  0  0
   40.4000   30.8690   41.4780 C   0  0  0  0  0  0  0  0  0  0  0  0
   40.0560   31.5970   42.5990 C   0  0  0  0  0  0  0  0  0  0  0  0
   39.3820   32.7800   42.8220 C   0  0  0  0  0  0  0  0  0  0  0  0
   34.4639   28.2479   50.5476 H   0  0  0  0  0  0  0  0  0  0  0  0
   35.5476   27.4223   49.3797 H   0  0  0  0  0  0  0  0  0  0  0  0
   39.0920   30.4947   49.8789 H   0  0  0  0  0  0  0  0  0  0  0  0
   37.7678   28.7149   48.5421 H   0  0  0  0  0  0  0  0  0  0  0  0
   33.2371   30.0173   50.0449 H   0  0  0  0  0  0  0  0  0  0  0  0
   33.4456   30.9580   48.5288 H   0  0  0  0  0  0  0  0  0  0  0  0
   32.4486   29.4637   48.5288 H   0  0  0  0  0  0  0  0  0  0  0  0
   35.0249   27.3420   47.4941 H   0  0  0  0  0  0  0  0  0  0  0  0
   33.2740   27.6904   47.6104 H   0  0  0  0  0  0  0  0  0  0  0  0
   34.4143   29.7953   46.4377 H   0  0  0  0  0  0  0  0  0  0  0  0
   39.0562   34.0769   50.2349 H   0  0  0  0  0  0  0  0  0  0  0  0
   40.5355   35.4204   48.6395 H   0  0  0  0  0  0  0  0  0  0  0  0
   38.6884   34.1545   44.3355 H   0  0  0  0  0  0  0  0  0  0  0  0
   40.7878   30.7325   45.7682 H   0  0  0  0  0  0  0  0  0  0  0  0
   41.6545   28.9972   43.7336 H   0  0  0  0  0  0  0  0  0  0  0  0
   40.1597   31.1534   40.4429 H   0  0  0  0  0  0  0  0  0  0  0  0
   38.9795   33.3673   41.9835 H   0  0  0  0  0  0  0  0  0  0  0  0
  1  8  1  0
  1  2  2  0
  3 12  1  6
  3 11  1  0
  3  4  1  0
  4  5  1  0
  5  6  1  0
  6  7  2  0
  8  6  1  0
  9  8  1  0
  9  5  1  0
 10  3  1  0
 10  9  1  0
 13 12  1  0
 14 15  2  0
 14  1  1  0
 16 15  1  0
 17 16  2  0
 18 17  1  0
 18 19  2  0
 19 14  1  0
 20 21  2  0
 21 18  1  0
 22 21  1  0
 23 22  2  0
 24 23  1  0
 25 24  1  0
 26 25  2  0
 26 27  1  0
 27 28  2  0
 27 23  1  0
 28 20  1  0
  4 29  1  0
  4 30  1  0
  8 31  1  1
  9 32  1  6
 11 33  1  0
 11 34  1  0
 11 35  1  0
 12 36  1  0
 12 37  1  0
 13 38  1  0
 15 39  1  0
 16 40  1  0
 20 41  1  0
 22 42  1  0
 24 43  1  0
 26 44  1  0
 28 45  1  0
M  ISO  8  29  13  30  13  31  13  32  13  33   8  34   8  35   8  36   8
M  ISO  8  37   8  38   3  39  14  40  14  41  14  42  14  43   9  44  14
M  ISO  1  45  14
M  END
>  <minimizedAffinity>  (1) 
-6.84851837

>  <minimizedRMSD>  (1) 
0.30934307

$$$$
