
     RDKit          3D

 30 32  0  0  0  0  0  0  0  0999 V2000
   37.0559   29.4066   51.1751 C   0  0  0  0  0  0  0  0  0  0  0  0
   37.6680   30.0179   50.0825 C   0  0  0  0  0  0  0  0  0  0  0  0
   36.9093   30.4927   49.0396 C   0  0  0  0  0  0  0  0  0  0  0  0
   35.5608   30.3230   49.1571 N   0  0  0  0  0  0  0  0  0  0  0  0
   34.9808   29.7369   50.2057 C   0  0  0  0  0  0  0  0  0  0  0  0
   35.7203   29.2744   51.2216 N   0  0  0  0  0  0  0  0  0  0  0  0
   37.4511   31.1524   47.8419 C   0  0  0  0  0  0  0  0  0  0  0  0
   38.7505   31.8402   48.1509 C   0  0  0  0  0  0  0  0  0  0  0  0
   38.4564   33.3590   49.1026 S   0  0  0  0  0  0  0  0  0  0  0  0
   37.7263   29.0576   51.9595 H   0  0  0  0  0  0  0  0  0  0  0  0
   38.7221   30.1217   50.0468 H   0  0  0  0  0  0  0  0  0  0  0  0
   33.9097   29.6088   50.2860 H   0  0  0  0  0  0  0  0  0  0  0  0
   36.7626   31.9630   47.4718 H   0  0  0  0  0  0  0  0  0  0  0  0
   37.6141   30.3874   47.0407 H   0  0  0  0  0  0  0  0  0  0  0  0
   39.1249   32.2060   47.1488 H   0  0  0  0  0  0  0  0  0  0  0  0
   39.5492   31.2135   48.5334 H   0  0  0  0  0  0  0  0  0  0  0  0
   41.0649   33.6356   50.1760 C   0  0  0  0  0  0  0  0  0  0  0  0
   40.0088   34.1645   49.4618 C   0  0  0  0  0  0  0  0  0  0  0  0
   40.0762   35.4437   48.9344 C   0  0  0  0  0  0  0  0  0  0  0  0
   39.2970   35.9445   48.3594 H   0  0  0  0  0  0  0  0  0  0  0  0
   41.2120   36.2283   49.1121 C   0  0  0  0  0  0  0  0  0  0  0  0
   41.5742   37.4875   48.7285 N   0  0  0  0  0  0  0  0  0  0  0  0
   40.9488   38.1216   48.1655 H   0  0  0  0  0  0  0  0  0  0  0  0
   42.7868   37.7299   49.1777 N   0  0  0  0  0  0  0  0  0  0  0  0
   43.2506   36.6585   49.8574 C   0  0  0  0  0  0  0  0  0  0  0  0
   44.2237   36.5978   50.3293 H   0  0  0  0  0  0  0  0  0  0  0  0
   42.2770   35.6880   49.8353 C   0  0  0  0  0  0  0  0  0  0  0  0
   42.1850   34.4268   50.3435 C   0  0  0  0  0  0  0  0  0  0  0  0
   40.9109   32.6303   50.5441 H   0  0  0  0  0  0  0  0  0  0  0  0
   42.9926   33.9935   50.9022 H   0  0  0  0  0  0  0  0  0  0  0  0
  1  6  2  0
  2  1  1  0
  3  4  1  0
  3  2  2  0
  4  5  2  0
  5  6  1  0
  7  8  1  0
  7  3  1  0
  8  9  1  0
  1 10  1  0
  2 11  1  0
  5 12  1  0
  7 13  1  0
  7 14  1  0
  8 15  1  0
  8 16  1  0
 17 18  2  0
 18 19  1  0
 19 20  1  0
 19 21  2  0
 21 22  1  0
 22 23  1  0
 22 24  1  0
 24 25  2  0
 25 26  1  0
 25 27  1  0
 27 28  2  0
 28 17  1  0
 27 21  1  0
 17 29  1  0
 28 30  1  0
  9 18  1  0
M  ISO  8  10  14  11  14  12  14  13   8  14   8  15   8  16   8  20  16
M  ISO  2  23   5  26  15
M  END
>  <DihAtoms>  (1) 
7,8,17,16

>  <DihDeg>  (1) 
90.00143795082741

$$$$
