
     RDKit          3D

 50 53  0  0  0  0  0  0  0  0999 V2000
   34.5740   29.2450   48.8420 C   0  0  0  0  0  0  0  0  0  0  0  0
   37.3340   30.3390   48.6780 Cl  0  0  0  0  0  0  0  0  0  0  0  0
   36.2460   30.2020   47.2970 C   0  0  0  0  0  0  0  0  0  0  0  0
   36.6700   30.6130   46.0830 C   0  0  0  0  0  0  0  0  0  0  0  0
   35.8300   30.5110   44.9930 C   0  0  0  0  0  0  0  0  0  0  0  0
   34.5540   29.9830   45.1710 C   0  0  0  0  0  0  0  0  0  0  0  0
   34.1900   29.5780   46.4700 C   0  0  0  0  0  0  0  0  0  0  0  0
   34.9980   29.6710   47.5410 C   0  0  0  0  0  0  0  0  0  0  0  0
   39.6490   32.7710   46.3510 C   0  0  0  0  0  0  0  0  0  0  0  0
   40.5400   32.0980   45.4400 C   0  0  0  0  0  0  0  0  0  0  0  0
   40.0770   30.9500   44.7900 C   0  0  0  0  0  0  0  0  0  0  0  0
   38.8160   30.5160   45.0360 N   0  0  0  0  0  0  0  0  0  0  0  0
   38.0000   31.1680   45.8970 C   0  0  0  0  0  0  0  0  0  0  0  0
   38.4200   32.2720   46.5350 N   0  0  0  0  0  0  0  0  0  0  0  0
   40.9780   30.3260   43.9120 N   0  0  0  0  0  0  0  0  0  0  0  0
   33.8680   27.9710   49.0020 C   0  0  0  0  0  0  0  0  0  0  0  0
   32.5430   28.1630   49.2940 O   0  0  0  0  0  0  0  0  0  0  0  0
   32.3590   26.3560   47.3960 O   0  0  0  0  0  0  0  0  0  0  0  0
   31.5750   27.3620   48.2030 P   0  0  2  0  0  0  0  0  0  0  0  0
   30.9390   28.5680   47.1330 O   0  0  0  0  0  0  0  0  0  0  0  0
   30.1040   27.1870   45.3240 C   0  0  0  0  0  0  0  0  0  0  0  0
   29.9060   28.1440   46.2980 C   0  0  0  0  0  0  0  0  0  0  0  0
   28.6210   28.6450   46.3850 C   0  0  0  0  0  0  0  0  0  0  0  0
   27.6000   28.2210   45.5540 C   0  0  0  0  0  0  0  0  0  0  0  0
   26.2950   28.5100   45.4020 N   0  0  0  0  0  0  0  0  0  0  0  0
   25.7560   27.7950   44.4250 N   0  0  0  0  0  0  0  0  0  0  0  0
   26.6970   26.9940   43.8890 C   0  0  0  0  0  0  0  0  0  0  0  0
   27.8530   27.2610   44.5960 C   0  0  0  0  0  0  0  0  0  0  0  0
   29.1320   26.7170   44.4620 C   0  0  0  0  0  0  0  0  0  0  0  0
   30.2620   26.6310   48.8900 O   0  0  0  0  0  0  0  0  0  0  0  0
   29.7150   27.4210   49.8760 C   0  0  0  0  0  0  0  0  0  0  0  0
   29.3400   26.6860   51.0000 F   0  0  0  0  0  0  0  0  0  0  0  0
   30.6210   28.3560   50.3310 F   0  0  0  0  0  0  0  0  0  0  0  0
   28.5920   28.0850   49.3950 F   0  0  0  0  0  0  0  0  0  0  0  0
   33.9072   30.0286   49.2310 H   0  0  0  0  0  0  0  0  0  0  0  0
   35.5218   29.0773   49.3744 H   0  0  0  0  0  0  0  0  0  0  0  0
   36.1635   30.8419   43.9984 H   0  0  0  0  0  0  0  0  0  0  0  0
   33.8551   29.8856   44.3272 H   0  0  0  0  0  0  0  0  0  0  0  0
   33.1832   29.1601   46.6175 H   0  0  0  0  0  0  0  0  0  0  0  0
   39.9721   33.6769   46.8848 H   0  0  0  0  0  0  0  0  0  0  0  0
   41.5569   32.4772   45.2609 H   0  0  0  0  0  0  0  0  0  0  0  0
   41.9213   30.7174   43.7781 H   0  0  0  0  0  0  0  0  0  0  0  0
   40.6956   29.4769   43.4019 H   0  0  0  0  0  0  0  0  0  0  0  0
   33.9482   27.3982   48.0663 H   0  0  0  0  0  0  0  0  0  0  0  0
   34.3292   27.4240   49.8375 H   0  0  0  0  0  0  0  0  0  0  0  0
   31.1152   26.7651   45.2261 H   0  0  0  0  0  0  0  0  0  0  0  0
   28.4019   29.4102   47.1442 H   0  0  0  0  0  0  0  0  0  0  0  0
   25.7813   29.1978   45.9712 H   0  0  0  0  0  0  0  0  0  0  0  0
   26.5713   26.2786   43.0629 H   0  0  0  0  0  0  0  0  0  0  0  0
   29.3552   25.9502   43.7056 H   0  0  0  0  0  0  0  0  0  0  0  0
  1 16  1  0
  3  8  2  0
  3  2  1  0
  4  3  1  0
  5  6  1  0
  5  4  2  0
  6  7  2  0
  7  8  1  0
  8  1  1  0
  9 14  2  0
 10  9  1  0
 11 12  1  0
 11 10  2  0
 12 13  2  0
 13  4  1  0
 13 14  1  0
 15 11  1  0
 16 17  1  0
 19 18  2  0
 19 30  1  0
 19 17  1  0
 20 19  1  0
 21 22  2  0
 22 23  1  0
 22 20  1  0
 24 23  2  0
 25 24  1  0
 26 25  1  0
 27 26  2  0
 27 28  1  0
 28 24  1  0
 29 28  2  0
 29 21  1  0
 30 31  1  0
 31 33  1  0
 31 32  1  0
 34 31  1  0
  1 35  1  0
  1 36  1  0
  5 37  1  0
  6 38  1  0
  7 39  1  0
  9 40  1  0
 10 41  1  0
 15 42  1  0
 15 43  1  0
 16 44  1  0
 16 45  1  0
 21 46  1  0
 23 47  1  0
 25 48  1  0
 27 49  1  0
 29 50  1  0
M  ISO  8  35   8  36   8  37  14  38  14  39  14  40  14  41  14  44   8
M  ISO  6  45   8  46  14  47  14  48   9  49  14  50  14
M  END
>  <minimizedAffinity>  (1) 
-6.27944374

>  <minimizedRMSD>  (1) 
1.2060734

$$$$
