
     RDKit          3D

 47 51  0  0  0  0  0  0  0  0999 V2000
   32.1690   28.5247   47.4222 C   0  0  2  0  0  0  0  0  0  0  0  0
   33.4070   28.3645   48.2508 C   0  0  1  0  0  0  0  0  0  0  0  0
   33.8029   27.0633   48.1703 O   0  0  0  0  0  0  0  0  0  0  0  0
   33.1124   26.4404   47.1354 C   0  0  0  0  0  0  0  0  0  0  0  0
   32.5090   27.5187   46.2756 C   0  0  1  0  0  0  0  0  0  0  0  0
   32.0952   29.8273   46.8847 O   0  0  0  0  0  0  0  0  0  0  0  0
   34.7183   29.4097   47.4951 S   0  0  0  0  0  0  0  0  0  0  0  0
   37.1341   29.2902   50.6356 C   0  0  0  0  0  0  0  0  0  0  0  0
   37.6304   30.5918   50.7531 C   0  0  0  0  0  0  0  0  0  0  0  0
   37.2066   31.5375   49.8340 C   0  0  0  0  0  0  0  0  0  0  0  0
   36.3276   31.1601   48.8586 N   0  0  0  0  0  0  0  0  0  0  0  0
   35.8702   29.8918   48.7777 C   0  0  0  0  0  0  0  0  0  0  0  0
   36.2649   28.9404   49.6617 N   0  0  0  0  0  0  0  0  0  0  0  0
   31.3641   27.0400   45.6872 O   0  0  0  0  0  0  0  0  0  0  0  0
   29.8816   29.1145   44.2136 Cl  0  0  0  0  0  0  0  0  0  0  0  0
   29.3369   28.1233   45.5456 C   0  0  0  0  0  0  0  0  0  0  0  0
   30.1240   27.1722   46.1502 C   0  0  0  0  0  0  0  0  0  0  0  0
   29.5676   26.4231   47.1908 C   0  0  0  0  0  0  0  0  0  0  0  0
   28.2671   26.6392   47.5927 C   0  0  0  0  0  0  0  0  0  0  0  0
   27.4663   27.5942   46.9913 C   0  0  0  0  0  0  0  0  0  0  0  0
   28.0169   28.3414   45.9549 C   0  0  0  0  0  0  0  0  0  0  0  0
   31.2294   28.2678   47.8988 H   0  0  0  0  0  0  0  0  0  0  0  0
   33.2499   28.7359   49.2819 H   0  0  0  0  0  0  0  0  0  0  0  0
   32.4312   25.7320   47.5773 H   0  0  0  0  0  0  0  0  0  0  0  0
   33.9132   25.9558   46.5126 H   0  0  0  0  0  0  0  0  0  0  0  0
   33.2214   28.0523   45.6540 H   0  0  0  0  0  0  0  0  0  0  0  0
   32.8615   29.9159   46.2613 H   0  0  0  0  0  0  0  0  0  0  0  0
   37.4069   28.4868   51.3046 H   0  0  0  0  0  0  0  0  0  0  0  0
   38.3237   30.8218   51.5495 H   0  0  0  0  0  0  0  0  0  0  0  0
   37.5562   32.5457   49.8804 H   0  0  0  0  0  0  0  0  0  0  0  0
   30.1098   25.6557   47.7158 H   0  0  0  0  0  0  0  0  0  0  0  0
   27.8427   26.0640   48.3906 H   0  0  0  0  0  0  0  0  0  0  0  0
   26.4485   27.7596   47.3097 H   0  0  0  0  0  0  0  0  0  0  0  0
   25.8540   28.8989   45.0813 C   0  0  0  0  0  0  0  0  0  0  0  0
   27.1615   29.3239   45.3473 C   0  0  0  0  0  0  0  0  0  0  0  0
   27.4581   30.6192   44.9930 C   0  0  0  0  0  0  0  0  0  0  0  0
   28.4516   30.9359   45.1956 H   0  0  0  0  0  0  0  0  0  0  0  0
   26.5337   31.4600   44.4104 C   0  0  0  0  0  0  0  0  0  0  0  0
   26.6513   32.7371   44.0059 N   0  0  0  0  0  0  0  0  0  0  0  0
   27.5311   33.2976   44.0900 H   0  0  0  0  0  0  0  0  0  0  0  0
   25.4689   33.0718   43.5169 N   0  0  0  0  0  0  0  0  0  0  0  0
   24.6010   32.0584   43.5931 C   0  0  0  0  0  0  0  0  0  0  0  0
   23.5685   32.0155   43.2819 H   0  0  0  0  0  0  0  0  0  0  0  0
   25.2591   30.9918   44.1697 C   0  0  0  0  0  0  0  0  0  0  0  0
   24.8928   29.7003   44.5005 C   0  0  0  0  0  0  0  0  0  0  0  0
   25.5242   27.8943   45.3246 H   0  0  0  0  0  0  0  0  0  0  0  0
   23.8929   29.3358   44.3108 H   0  0  0  0  0  0  0  0  0  0  0  0
  1  2  1  0
  3  2  1  0
  4  3  1  0
  5  4  1  0
  5  1  1  0
  6  1  1  0
  7  2  1  0
  7 12  1  0
  8  9  2  0
 10  9  1  0
 11 10  2  0
 12 11  1  0
 12 13  2  0
 13  8  1  0
 14 17  1  0
 14  5  1  0
 15 16  1  0
 16 21  2  0
 16 17  1  0
 17 18  2  0
 18 19  1  0
 20 19  2  0
 21 20  1  0
  1 22  1  1
  2 23  1  1
  4 24  1  0
  4 25  1  0
  5 26  1  6
  6 27  1  0
  8 28  1  0
  9 29  1  0
 10 30  1  0
 18 31  1  0
 19 32  1  0
 20 33  1  0
 34 35  2  0
 35 36  1  0
 36 37  1  0
 36 38  2  0
 38 39  1  0
 39 40  1  0
 39 41  1  0
 41 42  2  0
 42 43  1  0
 42 44  1  0
 44 45  2  0
 45 34  1  0
 44 38  1  0
 34 46  1  0
 45 47  1  0
 21 35  1  0
M  ISO  8  22  13  23  13  24  13  25  13  26  13  27   3  28  14  29  14
M  ISO  7  30  14  31  14  32  14  33  14  37  16  40   5  43  15
M  END
>  <DihAtoms>  (1) 
15,20,34,33

>  <DihDeg>  (1) 
-134.0460159129456

$$$$
