
     RDKit          3D

 42 45  0  0  0  0  0  0  0  0999 V2000
   38.1657   31.2395   44.9269 C   0  0  0  0  0  0  0  0  0  0  0  0
   37.3439   30.9429   45.9707 C   0  0  0  0  0  0  0  0  0  0  0  0
   36.1077   30.3551   45.7311 C   0  0  0  0  0  0  0  0  0  0  0  0
   35.6676   30.0560   44.4564 C   0  0  0  0  0  0  0  0  0  0  0  0
   36.4637   30.3419   43.3822 C   0  0  0  0  0  0  0  0  0  0  0  0
   37.6780   30.9205   43.6538 C   0  0  0  0  0  0  0  0  0  0  0  0
   38.6832   32.7788   48.8589 C   0  0  0  0  0  0  0  0  0  0  0  0
   38.3087   32.4438   47.5661 C   0  0  0  0  0  0  0  0  0  0  0  0
   37.7002   31.2541   47.3124 C   0  0  0  0  0  0  0  0  0  0  0  0
   37.4792   30.4310   48.3756 N   0  0  0  0  0  0  0  0  0  0  0  0
   37.8350   30.7513   49.6251 C   0  0  0  0  0  0  0  0  0  0  0  0
   38.4366   31.9221   49.8559 N   0  0  0  0  0  0  0  0  0  0  0  0
   37.4670   29.7867   50.6946 C   0  0  0  0  0  0  0  0  0  0  0  0
   37.7149   30.2952   51.9572 F   0  0  0  0  0  0  0  0  0  0  0  0
   36.0269   29.6372   50.7046 F   0  0  0  0  0  0  0  0  0  0  0  0
   37.9028   28.5541   50.5708 F   0  0  0  0  0  0  0  0  0  0  0  0
   39.7195   31.9341   45.0955 S   0  0  0  0  0  0  0  0  0  0  0  0
   39.6896   33.4024   44.8853 O   0  0  0  0  0  0  0  0  0  0  0  0
   40.2852   31.5700   43.7373 O   0  0  0  0  0  0  0  0  0  0  0  0
   41.1206   31.2414   45.7487 C   0  0  0  0  0  0  0  0  0  0  0  0
   35.4660   30.1246   46.5930 H   0  0  0  0  0  0  0  0  0  0  0  0
   34.6974   29.6015   44.3846 H   0  0  0  0  0  0  0  0  0  0  0  0
   36.0835   30.0942   42.4030 H   0  0  0  0  0  0  0  0  0  0  0  0
   38.2224   31.1049   42.7178 H   0  0  0  0  0  0  0  0  0  0  0  0
   39.1684   33.6610   49.2316 H   0  0  0  0  0  0  0  0  0  0  0  0
   38.5796   33.2953   46.9899 H   0  0  0  0  0  0  0  0  0  0  0  0
   40.8773   31.1892   46.8840 H   0  0  0  0  0  0  0  0  0  0  0  0
   41.2155   30.1545   45.5595 H   0  0  0  0  0  0  0  0  0  0  0  0
   42.1763   33.3933   45.5226 C   0  0  0  0  0  0  0  0  0  0  0  0
   42.3382   32.0212   45.7571 C   0  0  0  0  0  0  0  0  0  0  0  0
   43.6377   31.5543   45.9714 C   0  0  0  0  0  0  0  0  0  0  0  0
   43.7182   30.4966   46.1474 H   0  0  0  0  0  0  0  0  0  0  0  0
   44.6878   32.4488   45.9435 C   0  0  0  0  0  0  0  0  0  0  0  0
   45.9736   32.1728   46.1262 N   0  0  0  0  0  0  0  0  0  0  0  0
   46.4405   31.2687   46.3197 H   0  0  0  0  0  0  0  0  0  0  0  0
   46.6546   33.3026   46.0212 N   0  0  0  0  0  0  0  0  0  0  0  0
   45.8034   34.3381   45.7654 C   0  0  0  0  0  0  0  0  0  0  0  0
   46.0254   35.3880   45.6235 H   0  0  0  0  0  0  0  0  0  0  0  0
   44.5480   33.7957   45.7154 C   0  0  0  0  0  0  0  0  0  0  0  0
   43.2547   34.2464   45.5044 C   0  0  0  0  0  0  0  0  0  0  0  0
   41.2058   33.8641   45.3432 H   0  0  0  0  0  0  0  0  0  0  0  0
   43.1493   35.3158   45.3239 H   0  0  0  0  0  0  0  0  0  0  0  0
  1 17  1  0
  1  2  1  0
  2  9  1  0
  3  2  2  0
  4  3  1  0
  5  6  1  0
  5  4  2  0
  6  1  2  0
  7 12  2  0
  8  7  1  0
  9  8  2  0
  9 10  1  0
 10 11  2  0
 11 12  1  0
 11 13  1  0
 13 15  1  0
 13 14  1  0
 16 13  1  0
 17 20  1  0
 18 17  2  0
 19 17  2  0
  3 21  1  0
  4 22  1  0
  5 23  1  0
  6 24  1  0
  7 25  1  0
  8 26  1  0
 20 27  1  0
 20 28  1  0
 29 30  2  0
 30 31  1  0
 31 32  1  0
 31 33  2  0
 33 34  1  0
 34 35  1  0
 34 36  1  0
 36 37  2  0
 37 38  1  0
 37 39  1  0
 39 40  2  0
 40 29  1  0
 39 33  1  0
 29 41  1  0
 40 42  1  0
 20 30  1  0
M  ISO  8  21  14  22  14  23  14  24  14  25  14  26  14  27   8  28   8
M  ISO  3  32  16  35   5  38  15
M  END
>  <DihAtoms>  (1) 
16,19,29,28

>  <DihDeg>  (1) 
-89.99863252725204

$$$$
