
     RDKit          3D

 30 33  0  0  0  0  0  0  0  0999 V2000
   37.3515   30.0561   51.3064 C   0  0  0  0  0  0  0  0  0  0  0  0
   38.0744   30.9799   50.5406 C   0  0  0  0  0  0  0  0  0  0  0  0
   37.8773   30.9428   49.1415 C   0  0  0  0  0  0  0  0  0  0  0  0
   36.9977   30.0137   48.6141 N   0  0  0  0  0  0  0  0  0  0  0  0
   36.3363   29.1533   49.4279 C   0  0  0  0  0  0  0  0  0  0  0  0
   36.5095   29.1731   50.7528 N   0  0  0  0  0  0  0  0  0  0  0  0
   38.5602   31.8429   48.2147 C   0  0  0  0  0  0  0  0  0  0  0  0
   38.9410   31.4619   46.9430 C   0  0  0  0  0  0  0  0  0  0  0  0
   39.5584   32.5518   46.3406 C   0  0  0  0  0  0  0  0  0  0  0  0
   39.5303   33.5374   47.2531 N   0  0  0  0  0  0  0  0  0  0  0  0
   38.9303   33.1332   48.3982 N   0  0  0  0  0  0  0  0  0  0  0  0
   37.5790   30.1742   52.3577 H   0  0  0  0  0  0  0  0  0  0  0  0
   38.7567   31.7041   50.9240 H   0  0  0  0  0  0  0  0  0  0  0  0
   35.6508   28.4339   48.9814 H   0  0  0  0  0  0  0  0  0  0  0  0
   38.8114   30.5111   46.4523 H   0  0  0  0  0  0  0  0  0  0  0  0
   39.9799   32.6227   45.3541 H   0  0  0  0  0  0  0  0  0  0  0  0
   41.1941   35.2173   47.8048 C   0  0  0  0  0  0  0  0  0  0  0  0
   40.0499   34.8755   47.1061 C   0  0  0  0  0  0  0  0  0  0  0  0
   39.4201   35.7910   46.2881 C   0  0  0  0  0  0  0  0  0  0  0  0
   38.5281   35.4839   45.7592 H   0  0  0  0  0  0  0  0  0  0  0  0
   39.9644   37.0572   46.1874 C   0  0  0  0  0  0  0  0  0  0  0  0
   39.5330   38.1222   45.4551 N   0  0  0  0  0  0  0  0  0  0  0  0
   38.6948   38.2109   44.8100 H   0  0  0  0  0  0  0  0  0  0  0  0
   40.3554   39.1331   45.6569 N   0  0  0  0  0  0  0  0  0  0  0  0
   41.3375   38.7581   46.5192 C   0  0  0  0  0  0  0  0  0  0  0  0
   42.1744   39.3332   46.9027 H   0  0  0  0  0  0  0  0  0  0  0  0
   41.1119   37.4427   46.8714 C   0  0  0  0  0  0  0  0  0  0  0  0
   41.7180   36.5000   47.6828 C   0  0  0  0  0  0  0  0  0  0  0  0
   41.7136   34.5259   48.4546 H   0  0  0  0  0  0  0  0  0  0  0  0
   42.6121   36.8378   48.2011 H   0  0  0  0  0  0  0  0  0  0  0  0
  2  1  2  0
  3  2  1  0
  4  3  2  0
  4  5  1  0
  5  6  2  0
  6  1  1  0
  7 11  2  0
  7  3  1  0
  8  7  1  0
  9  8  2  0
  9 10  1  0
 10 11  1  0
  1 12  1  0
  2 13  1  0
  5 14  1  0
  8 15  1  0
  9 16  1  0
 17 18  2  0
 18 19  1  0
 19 20  1  0
 19 21  2  0
 21 22  1  0
 22 23  1  0
 22 24  1  0
 24 25  2  0
 25 26  1  0
 25 27  1  0
 27 28  2  0
 28 17  1  0
 27 21  1  0
 17 29  1  0
 28 30  1  0
 10 18  1  0
M  ISO  8  12  14  13  14  14  14  15  14  16  14  20  16  23   5  26  15
M  END
>  <DihAtoms>  (1) 
8,9,17,16

>  <DihDeg>  (1) 
26.719642501706794

$$$$
