
     RDKit          3D

 37 41  0  0  0  0  0  0  0  0999 V2000
   36.8591   30.5484   46.9086 C   0  0  0  0  0  0  0  0  0  0  0  0
   37.5171   31.0316   48.0273 C   0  0  0  0  0  0  0  0  0  0  0  0
   38.5098   31.9917   47.9039 C   0  0  0  0  0  0  0  0  0  0  0  0
   38.7993   32.4322   46.6083 C   0  0  0  0  0  0  0  0  0  0  0  0
   39.7182   33.3551   46.2253 N   0  0  0  0  0  0  0  0  0  0  0  0
   39.6402   33.4509   44.8909 C   0  0  0  0  0  0  0  0  0  0  0  0
   38.7082   32.6243   44.4209 N   0  0  0  0  0  0  0  0  0  0  0  0
   38.1668   31.9754   45.4717 C   0  0  0  0  0  0  0  0  0  0  0  0
   37.1724   31.0095   45.6286 C   0  0  0  0  0  0  0  0  0  0  0  0
   37.3843   30.0733   51.6615 C   0  0  0  0  0  0  0  0  0  0  0  0
   37.8737   30.6312   50.4917 C   0  0  0  0  0  0  0  0  0  0  0  0
   37.1335   30.5009   49.3287 C   0  0  0  0  0  0  0  0  0  0  0  0
   35.9436   29.8194   49.3991 N   0  0  0  0  0  0  0  0  0  0  0  0
   35.5027   29.2913   50.5580 C   0  0  0  0  0  0  0  0  0  0  0  0
   36.2096   29.4161   51.6671 N   0  0  0  0  0  0  0  0  0  0  0  0
   40.4575   34.3207   44.1663 O   0  0  0  0  0  0  0  0  0  0  0  0
   36.0953   29.8096   47.0045 H   0  0  0  0  0  0  0  0  0  0  0  0
   39.0135   32.3608   48.7672 H   0  0  0  0  0  0  0  0  0  0  0  0
   40.3674   33.8914   46.8629 H   0  0  0  0  0  0  0  0  0  0  0  0
   36.6558   30.6300   44.7504 H   0  0  0  0  0  0  0  0  0  0  0  0
   38.0250   30.2190   52.5331 H   0  0  0  0  0  0  0  0  0  0  0  0
   38.8173   31.1763   50.4165 H   0  0  0  0  0  0  0  0  0  0  0  0
   34.5546   28.7496   50.6088 H   0  0  0  0  0  0  0  0  0  0  0  0
   40.6278   35.6140   42.2411 C   0  0  0  0  0  0  0  0  0  0  0  0
   40.3230   34.3680   42.7911 C   0  0  0  0  0  0  0  0  0  0  0  0
   39.9325   33.3563   41.9128 C   0  0  0  0  0  0  0  0  0  0  0  0
   39.7160   32.4348   42.4028 H   0  0  0  0  0  0  0  0  0  0  0  0
   39.8643   33.6209   40.5638 C   0  0  0  0  0  0  0  0  0  0  0  0
   39.5158   32.7999   39.5586 N   0  0  0  0  0  0  0  0  0  0  0  0
   39.2297   31.7986   39.6209 H   0  0  0  0  0  0  0  0  0  0  0  0
   39.5838   33.4591   38.4028 N   0  0  0  0  0  0  0  0  0  0  0  0
   39.9772   34.7205   38.6317 C   0  0  0  0  0  0  0  0  0  0  0  0
   40.1596   35.5783   37.9985 H   0  0  0  0  0  0  0  0  0  0  0  0
   40.1620   34.8457   40.0053 C   0  0  0  0  0  0  0  0  0  0  0  0
   40.5535   35.8594   40.8865 C   0  0  0  0  0  0  0  0  0  0  0  0
   40.9428   36.4689   42.8432 H   0  0  0  0  0  0  0  0  0  0  0  0
   40.7894   36.8257   40.4553 H   0  0  0  0  0  0  0  0  0  0  0  0
  1  2  2  0
  2 12  1  0
  3  2  1  0
  4  3  2  0
  5  4  1  0
  6  5  1  0
  7  6  2  0
  7  8  1  0
  8  9  2  0
  8  4  1  0
  9  1  1  0
 10 15  2  0
 11 10  1  0
 12 13  1  0
 12 11  2  0
 13 14  2  0
 14 15  1  0
 16  6  1  0
  1 17  1  0
  3 18  1  0
  5 19  1  0
  9 20  1  0
 10 21  1  0
 11 22  1  0
 14 23  1  0
 24 25  2  0
 25 26  1  0
 26 27  1  0
 26 28  2  0
 28 29  1  0
 29 30  1  0
 29 31  1  0
 31 32  2  0
 32 33  1  0
 32 34  1  0
 34 35  2  0
 35 24  1  0
 34 28  1  0
 24 36  1  0
 35 37  1  0
 16 25  1  0
M  ISO  8  17  14  18  14  19   9  20  14  21  14  22  14  23  14  27  16
M  ISO  2  30   5  33  15
M  END
>  <DihAtoms>  (1) 
5,15,24,23

>  <DihDeg>  (1) 
-89.99957810086187

$$$$
