
     RDKit          3D

 30 33  0  0  0  0  0  0  0  0999 V2000
   37.3515   30.0561   51.3064 C   0  0  0  0  0  0  0  0  0  0  0  0
   38.0744   30.9799   50.5406 C   0  0  0  0  0  0  0  0  0  0  0  0
   37.8773   30.9428   49.1415 C   0  0  0  0  0  0  0  0  0  0  0  0
   36.9977   30.0137   48.6141 N   0  0  0  0  0  0  0  0  0  0  0  0
   36.3363   29.1533   49.4279 C   0  0  0  0  0  0  0  0  0  0  0  0
   36.5095   29.1731   50.7528 N   0  0  0  0  0  0  0  0  0  0  0  0
   38.5602   31.8429   48.2147 C   0  0  0  0  0  0  0  0  0  0  0  0
   38.9410   31.4619   46.9430 C   0  0  0  0  0  0  0  0  0  0  0  0
   39.5584   32.5518   46.3406 C   0  0  0  0  0  0  0  0  0  0  0  0
   39.5303   33.5374   47.2531 N   0  0  0  0  0  0  0  0  0  0  0  0
   38.9303   33.1332   48.3982 N   0  0  0  0  0  0  0  0  0  0  0  0
   37.5790   30.1742   52.3577 H   0  0  0  0  0  0  0  0  0  0  0  0
   38.7567   31.7041   50.9240 H   0  0  0  0  0  0  0  0  0  0  0  0
   35.6508   28.4339   48.9814 H   0  0  0  0  0  0  0  0  0  0  0  0
   38.8114   30.5111   46.4523 H   0  0  0  0  0  0  0  0  0  0  0  0
   39.9799   32.6227   45.3541 H   0  0  0  0  0  0  0  0  0  0  0  0
   39.3795   35.7537   46.2733 C   0  0  0  0  0  0  0  0  0  0  0  0
   40.0499   34.8755   47.1061 C   0  0  0  0  0  0  0  0  0  0  0  0
   41.1878   35.2685   47.7804 C   0  0  0  0  0  0  0  0  0  0  0  0
   41.6822   34.5516   48.4217 H   0  0  0  0  0  0  0  0  0  0  0  0
   41.6377   36.5626   47.5998 C   0  0  0  0  0  0  0  0  0  0  0  0
   42.7222   37.1795   48.1473 N   0  0  0  0  0  0  0  0  0  0  0  0
   43.4496   36.8054   48.8238 H   0  0  0  0  0  0  0  0  0  0  0  0
   42.7735   38.4184   47.6984 N   0  0  0  0  0  0  0  0  0  0  0  0
   41.7324   38.6414   46.8527 C   0  0  0  0  0  0  0  0  0  0  0  0
   41.4684   39.5419   46.3071 H   0  0  0  0  0  0  0  0  0  0  0  0
   40.9951   37.4773   46.7730 C   0  0  0  0  0  0  0  0  0  0  0  0
   39.8570   37.0501   46.1120 C   0  0  0  0  0  0  0  0  0  0  0  0
   38.4852   35.4801   45.7296 H   0  0  0  0  0  0  0  0  0  0  0  0
   39.3824   37.7925   45.4750 H   0  0  0  0  0  0  0  0  0  0  0  0
  2  1  2  0
  3  2  1  0
  4  3  2  0
  4  5  1  0
  5  6  2  0
  6  1  1  0
  7 11  2  0
  7  3  1  0
  8  7  1  0
  9  8  2  0
  9 10  1  0
 10 11  1  0
  1 12  1  0
  2 13  1  0
  5 14  1  0
  8 15  1  0
  9 16  1  0
 17 18  2  0
 18 19  1  0
 19 20  1  0
 19 21  2  0
 21 22  1  0
 22 23  1  0
 22 24  1  0
 24 25  2  0
 25 26  1  0
 25 27  1  0
 27 28  2  0
 28 17  1  0
 27 21  1  0
 17 29  1  0
 28 30  1  0
 10 18  1  0
M  ISO  8  12  14  13  14  14  14  15  14  16  14  20  16  23   5  26  15
M  END
>  <DihAtoms>  (1) 
8,9,17,16

>  <DihDeg>  (1) 
26.719642501706794

$$$$
