
     RDKit          3D

 37 40  0  0  0  0  0  0  0  0999 V2000
   35.8866   30.0391   47.6054 C   0  0  2  0  0  0  0  0  0  0  0  0
   34.4446   30.1645   47.7499 C   0  0  0  0  0  0  0  0  0  0  0  0
   35.1639   29.1774   48.6022 C   0  0  2  0  0  0  0  0  0  0  0  0
   37.3359   32.7741   49.6904 C   0  0  0  0  0  0  0  0  0  0  0  0
   38.5829   32.9473   49.1113 C   0  0  0  0  0  0  0  0  0  0  0  0
   38.9376   32.1222   48.0006 C   0  0  0  0  0  0  0  0  0  0  0  0
   38.0163   31.2125   47.5826 N   0  0  0  0  0  0  0  0  0  0  0  0
   36.8214   31.0791   48.1730 C   0  0  0  0  0  0  0  0  0  0  0  0
   36.4565   31.8424   49.2234 N   0  0  0  0  0  0  0  0  0  0  0  0
   35.4594   29.5279   50.3499 S   0  0  0  0  0  0  0  0  0  0  0  0
   37.1477   28.9778   50.7426 C   0  0  0  0  0  0  0  0  0  0  0  0
   37.7000   29.7648   51.9107 C   0  0  0  0  0  0  0  0  0  0  0  0
   36.2442   29.5814   46.6601 H   0  0  0  0  0  0  0  0  0  0  0  0
   34.0275   31.0570   48.3002 H   0  0  0  0  0  0  0  0  0  0  0  0
   33.7528   29.8020   46.9844 H   0  0  0  0  0  0  0  0  0  0  0  0
   35.0437   28.1075   48.2946 H   0  0  0  0  0  0  0  0  0  0  0  0
   37.0182   33.3734   50.5338 H   0  0  0  0  0  0  0  0  0  0  0  0
   39.2845   33.6865   49.4798 H   0  0  0  0  0  0  0  0  0  0  0  0
   39.8847   32.2263   47.5310 H   0  0  0  0  0  0  0  0  0  0  0  0
   37.8059   29.1194   49.8620 H   0  0  0  0  0  0  0  0  0  0  0  0
   37.1731   27.8951   50.9830 H   0  0  0  0  0  0  0  0  0  0  0  0
   38.7360   29.4796   52.1519 H   0  0  0  0  0  0  0  0  0  0  0  0
   37.6882   30.8421   51.7035 H   0  0  0  0  0  0  0  0  0  0  0  0
   36.1911   28.3113   53.1592 C   0  0  0  0  0  0  0  0  0  0  0  0
   36.8241   29.5500   53.1146 C   0  0  0  0  0  0  0  0  0  0  0  0
   36.5878   30.4221   54.1480 C   0  0  0  0  0  0  0  0  0  0  0  0
   37.1014   31.3622   54.0624 H   0  0  0  0  0  0  0  0  0  0  0  0
   35.7469   30.0370   55.1673 C   0  0  0  0  0  0  0  0  0  0  0  0
   35.3673   30.7000   56.2653 N   0  0  0  0  0  0  0  0  0  0  0  0
   35.6513   31.6569   56.5508 H   0  0  0  0  0  0  0  0  0  0  0  0
   34.5392   29.9415   56.9802 N   0  0  0  0  0  0  0  0  0  0  0  0
   34.3522   28.7593   56.3714 C   0  0  0  0  0  0  0  0  0  0  0  0
   33.7632   27.8855   56.6251 H   0  0  0  0  0  0  0  0  0  0  0  0
   35.1134   28.8252   55.2330 C   0  0  0  0  0  0  0  0  0  0  0  0
   35.3400   27.9307   54.1978 C   0  0  0  0  0  0  0  0  0  0  0  0
   36.3362   27.5673   52.3656 H   0  0  0  0  0  0  0  0  0  0  0  0
   34.8699   26.9534   54.1872 H   0  0  0  0  0  0  0  0  0  0  0  0
  1  2  1  0
  1  8  1  0
  1  3  1  0
  2  3  1  0
  3 10  1  0
  5  4  2  0
  6  5  1  0
  7  6  2  0
  7  8  1  0
  8  9  2  0
  9  4  1  0
 10 11  1  0
 11 12  1  0
  1 13  1  6
  2 14  1  0
  2 15  1  0
  3 16  1  6
  4 17  1  0
  5 18  1  0
  6 19  1  0
 11 20  1  0
 11 21  1  0
 12 22  1  0
 12 23  1  0
 24 25  2  0
 25 26  1  0
 26 27  1  0
 26 28  2  0
 28 29  1  0
 29 30  1  0
 29 31  1  0
 31 32  2  0
 32 33  1  0
 32 34  1  0
 34 35  2  0
 35 24  1  0
 34 28  1  0
 24 36  1  0
 35 37  1  0
 12 25  1  0
M  ISO  8  13  13  14  13  15  13  16  13  17  14  18  14  19  14  20   8
M  ISO  6  21   8  22   8  23   8  27  16  30   5  33  15
M  END
>  <DihAtoms>  (1) 
10,11,24,23

>  <DihDeg>  (1) 
89.99878410018334

$$$$
