
     RDKit          3D

 49 53  0  0  0  0  0  0  0  0999 V2000
   34.8272   28.3640   49.4172 C   0  0  0  0  0  0  0  0  0  0  0  0
   33.5903   28.3131   48.5549 C   0  0  0  0  0  0  0  0  0  0  0  0
   33.6790   28.7095   47.1676 C   0  0  0  0  0  0  0  0  0  0  0  0
   32.0116   28.4668   46.6478 S   0  0  0  0  0  0  0  0  0  0  0  0
   31.3980   27.8717   48.3229 C   0  0  0  0  0  0  0  0  0  0  0  0
   32.4080   27.9351   48.9461 N   0  0  0  0  0  0  0  0  0  0  0  0
   30.0873   27.4467   48.7785 N   0  0  0  0  0  0  0  0  0  0  0  0
   29.2468   26.8307   47.7936 C   0  0  0  0  0  0  0  0  0  0  0  0
   27.7961   26.8111   48.1590 C   0  0  0  0  0  0  0  0  0  0  0  0
   27.4852   27.5564   49.3729 N   0  0  0  0  0  0  0  0  0  0  0  0
   28.3807   27.0333   50.4089 C   0  0  0  0  0  0  0  0  0  0  0  0
   29.7197   27.6620   50.1499 C   0  0  0  0  0  0  0  0  0  0  0  0
   34.9487   29.6554   50.1146 C   0  0  0  0  0  0  0  0  0  0  0  0
   37.5046   32.2951   49.5388 C   0  0  0  0  0  0  0  0  0  0  0  0
   38.2947   31.7460   48.5154 C   0  0  0  0  0  0  0  0  0  0  0  0
   37.9238   30.4861   48.0559 C   0  0  0  0  0  0  0  0  0  0  0  0
   36.8578   29.8602   48.5902 N   0  0  0  0  0  0  0  0  0  0  0  0
   36.1282   30.4487   49.5857 C   0  0  0  0  0  0  0  0  0  0  0  0
   36.4531   31.6441   50.0451 N   0  0  0  0  0  0  0  0  0  0  0  0
   34.7759   27.5346   50.1680 H   0  0  0  0  0  0  0  0  0  0  0  0
   35.7202   28.1208   48.7998 H   0  0  0  0  0  0  0  0  0  0  0  0
   34.5359   29.0421   46.6678 H   0  0  0  0  0  0  0  0  0  0  0  0
   29.5757   25.7857   47.5485 H   0  0  0  0  0  0  0  0  0  0  0  0
   29.3569   27.4002   46.8470 H   0  0  0  0  0  0  0  0  0  0  0  0
   27.1598   27.2480   47.3548 H   0  0  0  0  0  0  0  0  0  0  0  0
   27.4384   25.7685   48.3066 H   0  0  0  0  0  0  0  0  0  0  0  0
   26.5244   27.3393   49.6532 H   0  0  0  0  0  0  0  0  0  0  0  0
   28.4305   25.9458   50.3532 H   0  0  0  0  0  0  0  0  0  0  0  0
   27.9642   27.3649   51.3950 H   0  0  0  0  0  0  0  0  0  0  0  0
   30.4693   27.1236   50.7862 H   0  0  0  0  0  0  0  0  0  0  0  0
   29.7261   28.7274   50.4457 H   0  0  0  0  0  0  0  0  0  0  0  0
   35.0862   29.5379   51.2028 H   0  0  0  0  0  0  0  0  0  0  0  0
   34.0344   30.2874   49.9748 H   0  0  0  0  0  0  0  0  0  0  0  0
   37.8064   33.2784   49.8868 H   0  0  0  0  0  0  0  0  0  0  0  0
   39.1337   32.2478   48.1005 H   0  0  0  0  0  0  0  0  0  0  0  0
   38.4092   28.4464   46.8347 C   0  0  0  0  0  0  0  0  0  0  0  0
   38.6507   29.7943   46.9986 C   0  0  0  0  0  0  0  0  0  0  0  0
   39.5561   30.3880   46.1569 C   0  0  0  0  0  0  0  0  0  0  0  0
   39.7597   31.4244   46.2626 H   0  0  0  0  0  0  0  0  0  0  0  0
   40.2126   29.6779   45.1743 C   0  0  0  0  0  0  0  0  0  0  0  0
   41.1258   29.9714   44.2258 N   0  0  0  0  0  0  0  0  0  0  0  0
   41.5439   30.9173   44.0565 H   0  0  0  0  0  0  0  0  0  0  0  0
   41.4354   28.8858   43.5173 N   0  0  0  0  0  0  0  0  0  0  0  0
   40.7515   27.8219   43.9521 C   0  0  0  0  0  0  0  0  0  0  0  0
   40.7589   26.8055   43.6117 H   0  0  0  0  0  0  0  0  0  0  0  0
   39.9930   28.3307   44.9855 C   0  0  0  0  0  0  0  0  0  0  0  0
   39.0732   27.7199   45.8382 C   0  0  0  0  0  0  0  0  0  0  0  0
   37.7271   27.8404   47.4168 H   0  0  0  0  0  0  0  0  0  0  0  0
   38.9014   26.6431   45.6831 H   0  0  0  0  0  0  0  0  0  0  0  0
  1 13  1  0
  2  6  1  0
  2  1  1  0
  3  2  2  0
  4  3  1  0
  4  5  1  0
  5  7  1  0
  5  6  2  0
  7 12  1  0
  8  9  1  0
  8  7  1  0
  9 10  1  0
 10 11  1  0
 12 11  1  0
 14 19  2  0
 15 14  1  0
 16 15  2  0
 16 17  1  0
 17 18  2  0
 18 19  1  0
 18 13  1  0
  1 20  1  0
  1 21  1  0
  3 22  1  0
  8 23  1  0
  8 24  1  0
  9 25  1  0
  9 26  1  0
 10 27  1  0
 11 28  1  0
 11 29  1  0
 12 30  1  0
 12 31  1  0
 13 32  1  0
 13 33  1  0
 14 34  1  0
 15 35  1  0
 36 37  2  0
 37 38  1  0
 38 39  1  0
 38 40  2  0
 40 41  1  0
 41 42  1  0
 41 43  1  0
 43 44  2  0
 44 45  1  0
 44 46  1  0
 46 47  2  0
 47 36  1  0
 46 40  1  0
 36 48  1  0
 47 49  1  0
 16 37  1  0
M  ISO  8  20   8  21   8  22  14  23  13  24  13  25  13  26  13  27   5
M  ISO  8  28  13  29  13  30  13  31  13  32   8  33   8  34  14  35  14
M  ISO  3  39  16  42   5  45  15
M  END
>  <DihAtoms>  (1) 
14,15,36,35

>  <DihDeg>  (1) 
179.99981153188727

$$$$
