
     RDKit          3D

 52 56  0  0  0  0  0  0  0  0999 V2000
   34.8171   30.0990   46.8665 C   0  0  0  0  0  0  0  0  0  0  0  0
   36.1410   30.5913   46.9395 C   0  0  0  0  0  0  0  0  0  0  0  0
   36.8432   30.7542   45.7357 C   0  0  0  0  0  0  0  0  0  0  0  0
   36.2144   30.4300   44.5763 N   0  0  0  0  0  0  0  0  0  0  0  0
   34.9621   29.9657   44.5402 C   0  0  0  0  0  0  0  0  0  0  0  0
   34.2615   29.7992   45.6793 N   0  0  0  0  0  0  0  0  0  0  0  0
   36.6390   30.8572   48.2709 N   0  0  0  0  0  0  0  0  0  0  0  0
   37.0655   31.9491   49.0822 C   0  0  0  0  0  0  0  0  0  0  0  0
   38.3945   31.4846   49.6062 C   0  0  0  0  0  0  0  0  0  0  0  0
   38.1976   29.9770   49.7770 C   0  0  0  0  0  0  0  0  0  0  0  0
   36.8399   29.7291   49.2312 C   0  0  1  0  0  0  0  0  0  0  0  0
   34.7959   28.9673   50.4248 C   0  0  0  0  0  0  0  0  0  0  0  0
   34.4888   28.0480   49.6018 O   0  0  0  0  0  0  0  0  0  0  0  0
   35.8795   29.8951   50.3046 N   0  0  0  0  0  0  0  0  0  0  0  0
   38.1832   31.2435   45.6968 C   0  0  0  0  0  0  0  0  0  0  0  0
   38.4433   32.4654   46.2487 C   0  0  0  0  0  0  0  0  0  0  0  0
   39.7089   33.0276   46.2818 C   0  0  0  0  0  0  0  0  0  0  0  0
   40.7445   32.2937   45.7175 C   0  0  0  0  0  0  0  0  0  0  0  0
   40.5560   31.0604   45.1429 C   0  0  0  0  0  0  0  0  0  0  0  0
   39.2445   30.5604   45.1510 C   0  0  0  0  0  0  0  0  0  0  0  0
   39.0014   29.2311   44.5277 C   0  0  0  0  0  0  0  0  0  0  0  0
   34.1897   29.9438   47.7051 H   0  0  0  0  0  0  0  0  0  0  0  0
   34.4840   29.7138   43.6021 H   0  0  0  0  0  0  0  0  0  0  0  0
   36.9712   32.9593   48.7469 H   0  0  0  0  0  0  0  0  0  0  0  0
   36.3904   31.9122   49.9951 H   0  0  0  0  0  0  0  0  0  0  0  0
   39.2432   31.6978   48.9280 H   0  0  0  0  0  0  0  0  0  0  0  0
   38.6112   31.9741   50.5607 H   0  0  0  0  0  0  0  0  0  0  0  0
   39.0091   29.4753   49.2278 H   0  0  0  0  0  0  0  0  0  0  0  0
   38.2699   29.7646   50.8731 H   0  0  0  0  0  0  0  0  0  0  0  0
   36.6913   28.7732   48.7235 H   0  0  0  0  0  0  0  0  0  0  0  0
   34.0370   28.8259   51.1724 H   0  0  0  0  0  0  0  0  0  0  0  0
   35.7029   30.5272   51.1085 H   0  0  0  0  0  0  0  0  0  0  0  0
   37.7601   33.1737   46.6744 H   0  0  0  0  0  0  0  0  0  0  0  0
   40.0197   33.9607   46.6841 H   0  0  0  0  0  0  0  0  0  0  0  0
   41.7847   32.6167   45.6761 H   0  0  0  0  0  0  0  0  0  0  0  0
   41.3188   30.4556   44.6941 H   0  0  0  0  0  0  0  0  0  0  0  0
   38.1202   29.2714   43.8260 H   0  0  0  0  0  0  0  0  0  0  0  0
   39.8662   29.0283   43.8404 H   0  0  0  0  0  0  0  0  0  0  0  0
   38.7605   26.7799   45.3107 C   0  0  0  0  0  0  0  0  0  0  0  0
   38.8606   28.1279   45.4795 C   0  0  0  0  0  0  0  0  0  0  0  0
   38.8075   28.5177   46.8230 C   0  0  0  0  0  0  0  0  0  0  0  0
   38.8767   29.5788   47.1158 H   0  0  0  0  0  0  0  0  0  0  0  0
   38.6696   27.6751   47.9037 C   0  0  0  0  0  0  0  0  0  0  0  0
   38.5978   27.8319   49.2343 N   0  0  0  0  0  0  0  0  0  0  0  0
   38.6428   28.7673   49.7387 H   0  0  0  0  0  0  0  0  0  0  0  0
   38.4653   26.6675   49.8056 N   0  0  0  0  0  0  0  0  0  0  0  0
   38.4458   25.6968   48.8532 C   0  0  0  0  0  0  0  0  0  0  0  0
   38.3485   24.6273   49.0036 H   0  0  0  0  0  0  0  0  0  0  0  0
   38.5763   26.3099   47.6006 C   0  0  0  0  0  0  0  0  0  0  0  0
   38.6204   25.8558   46.3178 C   0  0  0  0  0  0  0  0  0  0  0  0
   38.8066   26.4472   44.2848 H   0  0  0  0  0  0  0  0  0  0  0  0
   38.5483   24.8052   46.0834 H   0  0  0  0  0  0  0  0  0  0  0  0
  1  2  2  0
  2  7  1  0
  3  2  1  0
  4  3  2  0
  5  4  1  0
  5  6  2  0
  6  1  1  0
  7  8  1  0
  7 11  1  0
  8  9  1  0
  9 10  1  0
 11 10  1  0
 11 14  1  0
 13 12  2  0
 14 12  1  0
 15  3  1  0
 15 16  2  0
 16 17  1  0
 18 17  2  0
 19 20  2  0
 19 18  1  0
 20 15  1  0
 21 20  1  0
  1 22  1  0
  5 23  1  0
  8 24  1  0
  8 25  1  0
  9 26  1  0
  9 27  1  0
 10 28  1  0
 10 29  1  0
 11 30  1  6
 12 31  1  0
 14 32  1  0
 16 33  1  0
 17 34  1  0
 18 35  1  0
 19 36  1  0
 21 37  1  0
 21 38  1  0
 39 40  2  0
 40 41  1  0
 41 42  1  0
 41 43  2  0
 43 44  1  0
 44 45  1  0
 44 46  1  0
 46 47  2  0
 47 48  1  0
 47 49  1  0
 49 50  2  0
 50 39  1  0
 49 43  1  0
 39 51  1  0
 50 52  1  0
 21 40  1  0
M  ISO  8  22  14  23  14  24  13  25  13  26  13  27  13  28  13  29  13
M  ISO  8  30  13  31   6  33  14  34  14  35  14  36  14  37   8  38   8
M  ISO  3  42  16  45   5  48  15
M  END
>  <DihAtoms>  (1) 
19,20,39,38

>  <DihDeg>  (1) 
97.14587872317387

$$$$
