
     RDKit          3D

 43 47  0  0  0  0  0  0  0  0999 V2000
   36.8820   32.6240   43.4910 Cl  0  0  0  0  0  0  0  0  0  0  0  0
   37.8200   31.1600   43.1830 C   0  0  0  0  0  0  0  0  0  0  0  0
   38.5600   30.7050   44.2530 C   0  0  0  0  0  0  0  0  0  0  0  0
   39.3370   29.5530   44.1130 C   0  0  0  0  0  0  0  0  0  0  0  0
   39.3720   28.8630   42.9050 C   0  0  0  0  0  0  0  0  0  0  0  0
   38.6100   29.3600   41.8550 C   0  0  0  0  0  0  0  0  0  0  0  0
   37.8290   30.5100   41.9830 C   0  0  0  0  0  0  0  0  0  0  0  0
   36.2660   32.1750   41.1620 C   0  0  0  0  0  0  0  0  0  0  0  0
   37.0310   31.0350   40.8860 C   0  0  0  0  0  0  0  0  0  0  0  0
   36.9500   30.5230   39.6070 C   0  0  0  0  0  0  0  0  0  0  0  0
   36.1530   31.1110   38.6450 C   0  0  0  0  0  0  0  0  0  0  0  0
   35.9650   30.7340   37.3520 N   0  0  0  0  0  0  0  0  0  0  0  0
   35.1130   31.6080   36.8330 N   0  0  0  0  0  0  0  0  0  0  0  0
   34.7550   32.5260   37.7580 C   0  0  0  0  0  0  0  0  0  0  0  0
   35.4140   32.2340   38.9550 C   0  0  0  0  0  0  0  0  0  0  0  0
   35.4600   32.7790   40.2100 C   0  0  0  0  0  0  0  0  0  0  0  0
   38.6860   32.9330   49.7840 Cl  0  0  0  0  0  0  0  0  0  0  0  0
   38.6460   32.2780   48.1660 C   0  0  0  0  0  0  0  0  0  0  0  0
   37.9000   31.1600   47.8710 C   0  0  0  0  0  0  0  0  0  0  0  0
   37.9080   30.6910   46.5760 C   0  0  0  0  0  0  0  0  0  0  0  0
   38.6370   31.3050   45.5860 C   0  0  0  0  0  0  0  0  0  0  0  0
   39.3850   32.4370   45.9110 C   0  0  0  0  0  0  0  0  0  0  0  0
   40.2860   33.1710   44.6140 Cl  0  0  0  0  0  0  0  0  0  0  0  0
   39.3980   32.9300   47.1930 C   0  0  0  0  0  0  0  0  0  0  0  0
   37.0190   29.3620   51.0950 C   0  0  0  0  0  0  0  0  0  0  0  0
   37.7830   29.9240   50.0550 C   0  0  0  0  0  0  0  0  0  0  0  0
   37.1440   30.5550   48.9880 C   0  0  0  0  0  0  0  0  0  0  0  0
   35.7780   30.5920   49.0160 N   0  0  0  0  0  0  0  0  0  0  0  0
   35.0860   30.0410   50.0340 C   0  0  0  0  0  0  0  0  0  0  0  0
   35.6870   29.4420   51.0460 N   0  0  0  0  0  0  0  0  0  0  0  0
   39.9273   29.1874   44.9662 H   0  0  0  0  0  0  0  0  0  0  0  0
   39.9819   27.9554   42.7856 H   0  0  0  0  0  0  0  0  0  0  0  0
   38.6225   28.8300   40.8912 H   0  0  0  0  0  0  0  0  0  0  0  0
   36.3063   32.6074   42.1726 H   0  0  0  0  0  0  0  0  0  0  0  0
   37.5331   29.6269   39.3483 H   0  0  0  0  0  0  0  0  0  0  0  0
   36.3972   29.9315   36.8724 H   0  0  0  0  0  0  0  0  0  0  0  0
   34.0606   33.3635   37.5956 H   0  0  0  0  0  0  0  0  0  0  0  0
   34.8713   33.6748   40.4569 H   0  0  0  0  0  0  0  0  0  0  0  0
   37.3138   29.7994   46.3271 H   0  0  0  0  0  0  0  0  0  0  0  0
   39.9905   33.8217   47.4455 H   0  0  0  0  0  0  0  0  0  0  0  0
   37.5145   28.8617   51.9401 H   0  0  0  0  0  0  0  0  0  0  0  0
   38.8811   29.8657   50.0837 H   0  0  0  0  0  0  0  0  0  0  0  0
   33.9873   30.0921   50.0210 H   0  0  0  0  0  0  0  0  0  0  0  0
  2  1  1  0
  2  3  2  0
  3 21  1  0
  4  3  1  0
  5  4  2  0
  6  7  2  0
  6  5  1  0
  7  2  1  0
  9  8  2  0
  9  7  1  0
 10  9  1  0
 11 15  1  0
 11 10  2  0
 12 11  1  0
 13 12  1  0
 13 14  2  0
 14 15  1  0
 15 16  2  0
 16  8  1  0
 18 17  1  0
 19 18  2  0
 19 27  1  0
 20 19  1  0
 21 22  1  0
 21 20  2  0
 22 24  2  0
 23 22  1  0
 24 18  1  0
 26 25  2  0
 27 28  2  0
 27 26  1  0
 28 29  1  0
 29 30  2  0
 30 25  1  0
  4 31  1  0
  5 32  1  0
  6 33  1  0
  8 34  1  0
 10 35  1  0
 12 36  1  0
 14 37  1  0
 16 38  1  0
 20 39  1  0
 24 40  1  0
 25 41  1  0
 26 42  1  0
 29 43  1  0
M  ISO  8  31  14  32  14  33  14  34  14  35  14  36   9  37  14  38  14
M  ISO  5  39  14  40  14  41  14  42  14  43  14
M  END
>  <minimizedAffinity>  (1) 
-6.48026896

>  <minimizedRMSD>  (1) 
0.154064536

$$$$
