
     RDKit          3D

 44 48  0  0  0  0  0  0  0  0999 V2000
   34.0010   29.1810   44.5240 Cl  0  0  0  0  0  0  0  0  0  0  0  0
   33.9340   27.9680   45.7860 C   0  0  0  0  0  0  0  0  0  0  0  0
   33.9690   28.2410   47.1580 C   0  0  0  0  0  0  0  0  0  0  0  0
   33.9100   27.2100   48.0610 C   0  0  0  0  0  0  0  0  0  0  0  0
   33.8180   25.9160   47.6430 C   0  0  0  0  0  0  0  0  0  0  0  0
   33.7790   25.5860   46.2850 C   0  0  0  0  0  0  0  0  0  0  0  0
   33.8400   26.6440   45.3900 C   0  0  0  0  0  0  0  0  0  0  0  0
   35.0020   25.9540   43.3500 C   0  0  0  0  0  0  0  0  0  0  0  0
   33.7960   26.2280   43.9920 C   0  0  0  0  0  0  0  0  0  0  0  0
   32.6570   26.0740   43.2290 C   0  0  0  0  0  0  0  0  0  0  0  0
   32.7190   25.6750   41.9100 C   0  0  0  0  0  0  0  0  0  0  0  0
   31.7510   25.4660   40.9990 N   0  0  0  0  0  0  0  0  0  0  0  0
   32.3030   25.0880   39.8570 N   0  0  0  0  0  0  0  0  0  0  0  0
   33.6460   25.0350   39.9830 C   0  0  0  0  0  0  0  0  0  0  0  0
   33.9210   25.4080   41.2880 C   0  0  0  0  0  0  0  0  0  0  0  0
   35.0740   25.5540   42.0310 C   0  0  0  0  0  0  0  0  0  0  0  0
   34.0910   29.9790   47.5610 S   0  0  0  0  0  0  0  0  0  0  0  0
   36.4400   30.9170   45.7220 Cl  0  0  0  0  0  0  0  0  0  0  0  0
   36.7220   30.8090   47.4430 C   0  0  0  0  0  0  0  0  0  0  0  0
   37.9770   31.1470   47.8970 C   0  0  0  0  0  0  0  0  0  0  0  0
   38.2180   31.0680   49.2600 C   0  0  0  0  0  0  0  0  0  0  0  0
   37.2250   30.6640   50.1080 C   0  0  0  0  0  0  0  0  0  0  0  0
   35.9760   30.3350   49.5830 C   0  0  0  0  0  0  0  0  0  0  0  0
   35.6700   30.3910   48.2520 C   0  0  0  0  0  0  0  0  0  0  0  0
   40.2360   33.3450   46.0650 C   0  0  0  0  0  0  0  0  0  0  0  0
   40.9510   32.4810   45.2170 C   0  0  0  0  0  0  0  0  0  0  0  0
   40.6400   31.1230   45.2880 C   0  0  0  0  0  0  0  0  0  0  0  0
   39.6750   30.7070   46.1600 N   0  0  0  0  0  0  0  0  0  0  0  0
   39.0220   31.5790   46.9490 C   0  0  0  0  0  0  0  0  0  0  0  0
   39.3070   32.8800   46.8940 N   0  0  0  0  0  0  0  0  0  0  0  0
   33.9373   27.4309   49.1382 H   0  0  0  0  0  0  0  0  0  0  0  0
   33.7734   25.1118   48.3922 H   0  0  0  0  0  0  0  0  0  0  0  0
   33.7039   24.5428   45.9444 H   0  0  0  0  0  0  0  0  0  0  0  0
   35.9372   26.0611   43.9191 H   0  0  0  0  0  0  0  0  0  0  0  0
   31.6755   26.2743   43.6835 H   0  0  0  0  0  0  0  0  0  0  0  0
   30.7409   25.5818   41.1641 H   0  0  0  0  0  0  0  0  0  0  0  0
   34.3734   24.7531   39.2075 H   0  0  0  0  0  0  0  0  0  0  0  0
   36.0526   25.3513   41.5714 H   0  0  0  0  0  0  0  0  0  0  0  0
   39.2088   31.3306   49.6592 H   0  0  0  0  0  0  0  0  0  0  0  0
   37.4089   30.5993   51.1906 H   0  0  0  0  0  0  0  0  0  0  0  0
   35.1902   30.0112   50.2813 H   0  0  0  0  0  0  0  0  0  0  0  0
   40.4491   34.4239   46.0420 H   0  0  0  0  0  0  0  0  0  0  0  0
   41.7211   32.8589   44.5284 H   0  0  0  0  0  0  0  0  0  0  0  0
   41.1651   30.3969   44.6500 H   0  0  0  0  0  0  0  0  0  0  0  0
  1  2  1  0
  2  3  2  0
  3 17  1  0
  3  4  1  0
  5  4  2  0
  6  5  1  0
  7  2  1  0
  7  6  2  0
  8  9  2  0
  9  7  1  0
 10  9  1  0
 11 10  2  0
 12 11  1  0
 13 14  2  0
 13 12  1  0
 14 15  1  0
 15 11  1  0
 15 16  2  0
 16  8  1  0
 17 24  1  0
 18 19  1  0
 19 20  2  0
 19 24  1  0
 20 21  1  0
 21 22  2  0
 23 22  1  0
 24 23  2  0
 25 30  2  0
 26 27  2  0
 26 25  1  0
 27 28  1  0
 28 29  2  0
 29 20  1  0
 30 29  1  0
  4 31  1  0
  5 32  1  0
  6 33  1  0
  8 34  1  0
 10 35  1  0
 12 36  1  0
 14 37  1  0
 16 38  1  0
 21 39  1  0
 22 40  1  0
 23 41  1  0
 25 42  1  0
 26 43  1  0
 27 44  1  0
M  ISO  8  31  14  32  14  33  14  34  14  35  14  36   9  37  14  38  14
M  ISO  6  39  14  40  14  41  14  42  14  43  14  44  14
M  END
>  <minimizedAffinity>  (1) 
-5.7421093

>  <minimizedRMSD>  (1) 
0.739412904

$$$$
