
     RDKit          3D

 46 50  0  0  0  0  0  0  0  0999 V2000
   34.0073   28.8114   48.2786 C   0  0  0  0  0  0  0  0  0  0  0  0
   34.6342   28.3556   49.3955 C   0  0  0  0  0  0  0  0  0  0  0  0
   35.8647   28.7897   49.8438 C   0  0  0  0  0  0  0  0  0  0  0  0
   36.5379   29.7461   49.1458 C   0  0  0  0  0  0  0  0  0  0  0  0
   35.9003   30.2220   47.9932 C   0  0  0  0  0  0  0  0  0  0  0  0
   34.6970   29.7703   47.5905 N   0  0  0  0  0  0  0  0  0  0  0  0
   31.9061   27.5059   48.5631 C   0  0  0  0  0  0  0  0  0  0  0  0
   32.7298   28.3645   47.8165 C   0  0  0  0  0  0  0  0  0  0  0  0
   32.2583   28.7746   46.5999 C   0  0  0  0  0  0  0  0  0  0  0  0
   31.0341   28.3456   46.1649 N   0  0  0  0  0  0  0  0  0  0  0  0
   30.2736   27.5107   46.9310 C   0  0  0  0  0  0  0  0  0  0  0  0
   30.7007   27.0780   48.1447 N   0  0  0  0  0  0  0  0  0  0  0  0
   37.7676   30.3056   49.4296 O   0  0  0  0  0  0  0  0  0  0  0  0
   38.3564   31.2716   48.6441 C   0  0  0  0  0  0  0  0  0  0  0  0
   38.4399   32.5131   49.2354 C   0  0  0  0  0  0  0  0  0  0  0  0
   39.0583   33.3633   48.3108 C   0  0  0  0  0  0  0  0  0  0  0  0
   39.3208   32.6377   47.2285 N   0  0  0  0  0  0  0  0  0  0  0  0
   38.9076   31.4292   47.4368 N   0  0  0  0  0  0  0  0  0  0  0  0
   39.9676   33.0832   46.0163 C   0  0  0  0  0  0  0  0  0  0  0  0
   40.6669   31.9437   45.3700 C   0  0  0  0  0  0  0  0  0  0  0  0
   34.1674   27.5954   50.0068 H   0  0  0  0  0  0  0  0  0  0  0  0
   36.3558   28.4233   50.7311 H   0  0  0  0  0  0  0  0  0  0  0  0
   36.3232   30.9921   47.3324 H   0  0  0  0  0  0  0  0  0  0  0  0
   32.2349   27.1543   49.5311 H   0  0  0  0  0  0  0  0  0  0  0  0
   32.8646   29.4361   45.9965 H   0  0  0  0  0  0  0  0  0  0  0  0
   29.3441   27.2794   46.4286 H   0  0  0  0  0  0  0  0  0  0  0  0
   38.1559   32.9615   50.1930 H   0  0  0  0  0  0  0  0  0  0  0  0
   39.3106   34.4133   48.3803 H   0  0  0  0  0  0  0  0  0  0  0  0
   40.6619   33.9013   46.3148 H   0  0  0  0  0  0  0  0  0  0  0  0
   39.2450   33.5053   45.2949 H   0  0  0  0  0  0  0  0  0  0  0  0
   39.8993   31.1919   45.0336 H   0  0  0  0  0  0  0  0  0  0  0  0
   41.0707   32.3319   44.3879 H   0  0  0  0  0  0  0  0  0  0  0  0
   41.2605   30.3702   47.0662 C   0  0  0  0  0  0  0  0  0  0  0  0
   41.7369   31.2914   46.1159 C   0  0  0  0  0  0  0  0  0  0  0  0
   43.0966   31.3882   46.1088 C   0  0  0  0  0  0  0  0  0  0  0  0
   43.4988   32.0828   45.4158 H   0  0  0  0  0  0  0  0  0  0  0  0
   43.9317   30.6697   46.9343 C   0  0  0  0  0  0  0  0  0  0  0  0
   45.2776   30.6947   47.0019 N   0  0  0  0  0  0  0  0  0  0  0  0
   45.9365   31.2850   46.4181 H   0  0  0  0  0  0  0  0  0  0  0  0
   45.6766   29.8468   47.9348 N   0  0  0  0  0  0  0  0  0  0  0  0
   44.5702   29.2687   48.4743 C   0  0  0  0  0  0  0  0  0  0  0  0
   44.4912   28.5231   49.2645 H   0  0  0  0  0  0  0  0  0  0  0  0
   43.4431   29.7713   47.8588 C   0  0  0  0  0  0  0  0  0  0  0  0
   42.0717   29.6368   47.9062 C   0  0  0  0  0  0  0  0  0  0  0  0
   40.1906   30.1550   47.2209 H   0  0  0  0  0  0  0  0  0  0  0  0
   41.6889   28.9337   48.6303 H   0  0  0  0  0  0  0  0  0  0  0  0
  1  2  2  0
  2  3  1  0
  4 13  1  0
  4  3  2  0
  5  4  1  0
  6  5  2  0
  6  1  1  0
  8  1  1  0
  8  7  2  0
  9  8  1  0
 10  9  2  0
 10 11  1  0
 11 12  2  0
 12  7  1  0
 14 15  1  0
 14 13  1  0
 16 15  2  0
 17 18  1  0
 17 16  1  0
 18 14  2  0
 19 17  1  0
 20 19  1  0
  2 21  1  0
  3 22  1  0
  5 23  1  0
  7 24  1  0
  9 25  1  0
 11 26  1  0
 15 27  1  0
 16 28  1  0
 19 29  1  0
 19 30  1  0
 20 31  1  0
 20 32  1  0
 33 34  2  0
 34 35  1  0
 35 36  1  0
 35 37  2  0
 37 38  1  0
 38 39  1  0
 38 40  1  0
 40 41  2  0
 41 42  1  0
 41 43  1  0
 43 44  2  0
 44 33  1  0
 43 37  1  0
 33 45  1  0
 44 46  1  0
 20 34  1  0
M  ISO  8  21  14  22  14  23  14  24  14  25  14  26  14  27  14  28  14
M  ISO  7  29   8  30   8  31   8  32   8  36  16  39   5  42  15
M  END
>  <DihAtoms>  (1) 
18,19,33,32

>  <DihDeg>  (1) 
-84.38071218190049

$$$$
