
     RDKit          3D

 50 53  0  0  0  0  0  0  0  0999 V2000
   38.1376   30.5668   47.3281 C   0  0  1  0  0  0  0  0  0  0  0  0
   37.5086   30.7354   46.0254 C   0  0  0  0  0  0  0  0  0  0  0  0
   38.5501   30.5638   44.9645 C   0  0  0  0  0  0  0  0  0  0  0  0
   39.8107   31.2564   45.3337 C   0  0  0  0  0  0  0  0  0  0  0  0
   39.7038   32.2800   46.3873 C   0  0  0  0  0  0  0  0  0  0  0  0
   38.9354   31.8278   47.6285 C   0  0  1  0  0  0  0  0  0  0  0  0
   36.9370   29.6273   50.7152 C   0  0  0  0  0  0  0  0  0  0  0  0
   37.8222   29.8385   49.6178 C   0  0  0  0  0  0  0  0  0  0  0  0
   37.2352   30.3681   48.4749 C   0  0  0  0  0  0  0  0  0  0  0  0
   35.8788   30.6598   48.4389 N   0  0  0  0  0  0  0  0  0  0  0  0
   35.0923   30.4412   49.5003 C   0  0  0  0  0  0  0  0  0  0  0  0
   35.6039   29.9284   50.6387 N   0  0  0  0  0  0  0  0  0  0  0  0
   38.2619   33.8115   49.2513 C   0  0  0  0  0  0  0  0  0  0  0  0
   39.3563   33.6162   49.8562 O   0  0  0  0  0  0  0  0  0  0  0  0
   38.1493   32.9169   48.1433 N   0  0  0  0  0  0  0  0  0  0  0  0
   38.9149   29.7467   47.3386 H   0  0  0  0  0  0  0  0  0  0  0  0
   37.0225   31.7283   45.9352 H   0  0  0  0  0  0  0  0  0  0  0  0
   36.7116   29.9631   45.8174 H   0  0  0  0  0  0  0  0  0  0  0  0
   38.7294   29.4683   44.8074 H   0  0  0  0  0  0  0  0  0  0  0  0
   38.1304   30.9520   44.0130 H   0  0  0  0  0  0  0  0  0  0  0  0
   40.2026   31.7440   44.4235 H   0  0  0  0  0  0  0  0  0  0  0  0
   40.5610   30.4917   45.6452 H   0  0  0  0  0  0  0  0  0  0  0  0
   40.7140   32.5730   46.7348 H   0  0  0  0  0  0  0  0  0  0  0  0
   39.2503   33.1982   45.9519 H   0  0  0  0  0  0  0  0  0  0  0  0
   39.6591   31.5642   48.4353 H   0  0  0  0  0  0  0  0  0  0  0  0
   37.3023   29.2195   51.6444 H   0  0  0  0  0  0  0  0  0  0  0  0
   38.8576   29.5973   49.6980 H   0  0  0  0  0  0  0  0  0  0  0  0
   34.0608   30.7139   49.3307 H   0  0  0  0  0  0  0  0  0  0  0  0
   37.3079   33.0124   47.4905 H   0  0  0  0  0  0  0  0  0  0  0  0
   31.5617   34.4537   49.7584 C   0  0  0  0  0  0  0  0  0  0  0  0
   31.4207   33.3527   49.9494 H   0  0  0  0  0  0  0  0  0  0  0  0
   33.0091   34.6433   49.4904 C   0  0  0  0  0  0  0  0  0  0  0  0
   33.8154   34.2473   50.4294 C   0  0  0  0  0  0  0  0  0  0  0  0
   33.3535   33.6523   51.6755 C   0  0  0  0  0  0  0  0  0  0  0  0
   34.0924   33.2569   52.6084 O   0  0  0  0  0  0  0  0  0  0  0  0
   32.0998   33.3617   52.1816 O   0  0  0  0  0  0  0  0  0  0  0  0
   35.2187   34.3833   50.2663 N   0  0  0  0  0  0  0  0  0  0  0  0
   36.4991   34.6564   50.8317 C   0  0  0  0  0  0  0  0  0  0  0  0
   36.9713   34.7797   52.0020 O   0  0  0  0  0  0  0  0  0  0  0  0
   37.1722   34.7624   49.5137 C   0  0  2  0  0  0  0  0  0  0  0  0
   35.8948   34.2016   48.9940 C   0  0  2  0  0  0  0  0  0  0  0  0
   35.0991   35.3529   47.8396 S   0  0  0  0  0  0  0  0  0  0  0  0
   33.3419   35.2623   48.1883 C   0  0  2  0  0  0  0  0  0  0  0  0
   32.8100   36.2265   48.0333 H   0  0  0  0  0  0  0  0  0  0  0  0
   30.9052   34.8231   48.9696 H   0  0  0  0  0  0  0  0  0  0  0  0
   31.3134   34.9950   50.7129 H   0  0  0  0  0  0  0  0  0  0  0  0
   31.7249   33.8746   52.9947 H   0  0  0  0  0  0  0  0  0  0  0  0
   37.3854   35.8215   49.2766 H   0  0  0  0  0  0  0  0  0  0  0  0
   35.9103   33.1558   48.6347 H   0  0  0  0  0  0  0  0  0  0  0  0
   32.8979   34.5662   47.4175 H   0  0  0  0  0  0  0  0  0  0  0  0
  1  6  1  0
  1  9  1  0
  2  1  1  0
  3  4  1  0
  3  2  1  0
  4  5  1  0
  5  6  1  0
  6 15  1  0
  8  7  2  0
  9  8  1  0
 10  9  2  0
 10 11  1  0
 11 12  2  0
 12  7  1  0
 13 14  2  0
 15 13  1  0
  1 16  1  6
  2 17  1  0
  2 18  1  0
  3 19  1  0
  3 20  1  0
  4 21  1  0
  4 22  1  0
  5 23  1  0
  5 24  1  0
  6 25  1  1
  7 26  1  0
  8 27  1  0
 11 28  1  0
 15 29  1  0
 30 31  1  0
 30 32  1  0
 32 33  2  0
 33 34  1  0
 34 35  2  0
 34 36  1  0
 33 37  1  0
 37 38  1  0
 38 39  2  0
 38 40  1  0
 40 41  1  0
 41 42  1  0
 42 43  1  0
 43 44  1  1
 43 32  1  0
 41 37  1  0
 30 45  1  0
 30 46  1  0
 36 47  1  0
 40 48  1  6
 41 49  1  6
 43 50  1  0
 13 40  1  0
M  ISO  8  16  13  17  13  18  13  19  13  20  13  21  13  22  13  23  13
M  ISO  7  24  13  25  13  26  14  27  14  28  14  31   8  44  15
M  END
>  <DihAtoms>  (1) 
13,12,39,37

>  <DihDeg>  (1) 
120.00317442694397

$$$$
