
     RDKit          3D

 58 62  0  0  1  0  0  0  0  0999 V2000
   35.2140   30.0150   49.8390 C   0  0  0  0  0  0  0  0  0  0  0  0
   37.7200   32.7070   49.4030 C   0  0  0  0  0  0  0  0  0  0  0  0
   38.4140   32.3270   48.2660 C   0  0  0  0  0  0  0  0  0  0  0  0
   38.0020   31.1230   47.6500 C   0  0  0  0  0  0  0  0  0  0  0  0
   36.9770   30.4460   48.2080 N   0  0  0  0  0  0  0  0  0  0  0  0
   36.3380   30.8660   49.3180 C   0  0  0  0  0  0  0  0  0  0  0  0
   36.7020   31.9850   49.9130 N   0  0  0  0  0  0  0  0  0  0  0  0
   38.7160   30.6260   46.4930 C   0  0  0  0  0  0  0  0  0  0  0  0
   38.2030   30.8740   45.1450 C   0  0  0  0  0  0  0  0  0  0  0  0
   38.3620   31.8950   44.3240 C   0  0  0  0  0  0  0  0  0  0  0  0
   37.7700   31.9470   43.0130 N   0  0  0  0  0  0  0  0  0  0  0  0
   37.1440   32.6890   41.9770 C   0  0  0  0  0  0  0  0  0  0  0  0
   36.8830   33.9040   41.7860 O   0  0  0  0  0  0  0  0  0  0  0  0
   36.8850   31.4920   41.1490 C   0  0  0  0  0  0  0  0  0  0  0  0
   37.6670   30.7340   42.1740 C   0  0  2  0  0  0  0  0  0  0  0  0
   36.7000   29.5920   43.1980 S   0  0  0  0  0  0  0  0  0  0  0  0
   37.3850   29.6710   44.8500 C   0  0  0  0  0  0  0  0  0  0  0  0
   39.1710   33.0150   44.7440 C   0  0  0  0  0  0  0  0  0  0  0  0
   39.9700   33.5420   43.9100 O   0  0  0  0  0  0  0  0  0  0  0  0
   39.9410   34.0820   45.1430 O   0  0  0  0  0  0  0  0  0  0  0  0
   35.2240   28.6810   49.1830 C   0  0  0  0  0  0  0  0  0  0  0  0
   34.0050   28.4720   48.3360 C   0  0  0  0  0  0  0  0  0  0  0  0
   34.1220   28.6850   46.9250 C   0  0  0  0  0  0  0  0  0  0  0  0
   32.4690   28.3210   46.3910 S   0  0  0  0  0  0  0  0  0  0  0  0
   31.8380   27.9370   48.1090 C   0  0  0  0  0  0  0  0  0  0  0  0
   32.8290   28.1130   48.7430 N   0  0  0  0  0  0  0  0  0  0  0  0
   30.5210   27.5330   48.5800 N   0  0  0  0  0  0  0  0  0  0  0  0
   29.7230   26.7940   47.6690 C   0  0  0  0  0  0  0  0  0  0  0  0
   28.2700   26.7530   48.0160 C   0  0  0  0  0  0  0  0  0  0  0  0
   27.9040   27.6320   49.1130 N   0  0  0  0  0  0  0  0  0  0  0  0
   28.7920   27.2660   50.2200 C   0  0  0  0  0  0  0  0  0  0  0  0
   30.1150   27.9010   49.9180 C   0  0  0  0  0  0  0  0  0  0  0  0
   35.3315   29.8853   50.9250 H   0  0  0  0  0  0  0  0  0  0  0  0
   34.2585   30.5131   49.6179 H   0  0  0  0  0  0  0  0  0  0  0  0
   38.0120   33.6377   49.9116 H   0  0  0  0  0  0  0  0  0  0  0  0
   39.2415   32.9299   47.8638 H   0  0  0  0  0  0  0  0  0  0  0  0
   39.7247   31.0630   46.5325 H   0  0  0  0  0  0  0  0  0  0  0  0
   38.6282   29.5344   46.5960 H   0  0  0  0  0  0  0  0  0  0  0  0
   35.8263   31.2047   41.0680 H   0  0  0  0  0  0  0  0  0  0  0  0
   37.1270   31.4539   40.0766 H   0  0  0  0  0  0  0  0  0  0  0  0
   38.5094   30.1384   41.7924 H   0  0  0  0  0  0  0  0  0  0  0  0
   36.5495   29.6454   45.5650 H   0  0  0  0  0  0  0  0  0  0  0  0
   38.0677   28.8128   44.9355 H   0  0  0  0  0  0  0  0  0  0  0  0
   38.4811   33.8057   45.0740 H   0  0  0  0  0  0  0  0  0  0  0  0
   39.8331   32.5898   45.5126 H   0  0  0  0  0  0  0  0  0  0  0  0
   39.9797   33.3608   45.8201 H   0  0  0  0  0  0  0  0  0  0  0  0
   36.1180   28.6030   48.5469 H   0  0  0  0  0  0  0  0  0  0  0  0
   35.2320   27.9117   49.9692 H   0  0  0  0  0  0  0  0  0  0  0  0
   34.9975   28.9908   46.3334 H   0  0  0  0  0  0  0  0  0  0  0  0
   30.0996   25.7609   47.6409 H   0  0  0  0  0  0  0  0  0  0  0  0
   29.8002   27.3042   46.6975 H   0  0  0  0  0  0  0  0  0  0  0  0
   27.6928   27.0485   47.1275 H   0  0  0  0  0  0  0  0  0  0  0  0
   28.0471   25.7259   48.3405 H   0  0  0  0  0  0  0  0  0  0  0  0
   28.0462   28.6171   48.8479 H   0  0  0  0  0  0  0  0  0  0  0  0
   28.3935   27.6479   51.1715 H   0  0  0  0  0  0  0  0  0  0  0  0
   28.8831   26.1742   50.3183 H   0  0  0  0  0  0  0  0  0  0  0  0
   30.8660   27.5495   50.6408 H   0  0  0  0  0  0  0  0  0  0  0  0
   30.0267   28.9950   49.9912 H   0  0  0  0  0  0  0  0  0  0  0  0
  2  7  2  0
  3  2  1  0
  4  5  1  0
  4  3  2  0
  5  6  2  0
  6  1  1  0
  6  7  1  0
  8  4  1  0
  9  8  1  0
 10 18  1  0
 10  9  2  0
 11 10  1  0
 12 11  1  0
 13 12  2  0
 14 12  1  0
 15 14  1  0
 15 11  1  0
 15 16  1  0
 16 17  1  0
 17  9  1  0
 19 18  1  0
 19 20  1  0
 21  1  1  0
 22 26  1  0
 22 21  1  0
 23 22  2  0
 24 23  1  0
 24 25  1  0
 25 27  1  0
 25 26  2  0
 27 32  1  0
 28 29  1  0
 28 27  1  0
 29 30  1  0
 30 31  1  0
 32 31  1  0
  1 33  1  0
  1 34  1  0
  2 35  1  0
  3 36  1  0
  8 37  1  0
  8 38  1  0
 14 39  1  0
 14 40  1  0
 15 41  1  6
 17 42  1  0
 17 43  1  0
 18 44  1  0
 18 45  1  0
 20 46  1  0
 21 47  1  0
 21 48  1  0
 23 49  1  0
 28 50  1  0
 28 51  1  0
 29 52  1  0
 29 53  1  0
 30 54  1  0
 31 55  1  0
 31 56  1  0
 32 57  1  0
 32 58  1  0
M  ISO  8  33   8  34   8  35  14  36  14  37   8  38   8  39  13  40  13
M  ISO  8  41  13  42  13  43  13  44   8  45   8  46   3  47   8  48   8
M  ISO  8  49  14  50  13  51  13  52  13  53  13  54   5  55  13  56  13
M  ISO  2  57  13  58  13
M  END
>  <minimizedAffinity>  (1) 
-6.69025326

>  <minimizedRMSD>  (1) 
1.59815574

$$$$
