
     RDKit          3D

 44 47  0  0  0  0  0  0  0  0999 V2000
   37.4705   31.4367   49.3869 C   0  0  0  0  0  0  0  0  0  0  0  0
   37.8671   32.7222   49.7028 C   0  0  0  0  0  0  0  0  0  0  0  0
   38.6800   33.3327   48.7567 C   0  0  0  0  0  0  0  0  0  0  0  0
   39.0344   32.6693   47.6116 N   0  0  0  0  0  0  0  0  0  0  0  0
   38.6187   31.4119   47.3507 C   0  0  0  0  0  0  0  0  0  0  0  0
   37.8229   30.7894   48.2586 N   0  0  0  0  0  0  0  0  0  0  0  0
   36.5621   30.7348   50.3614 C   0  0  0  0  0  0  0  0  0  0  0  0
   36.4704   29.3167   50.4624 C   0  0  0  0  0  0  0  0  0  0  0  0
   37.3441   30.0260   51.4868 C   0  0  0  0  0  0  0  0  0  0  0  0
   38.9842   30.7038   46.1277 C   0  0  0  0  0  0  0  0  0  0  0  0
   41.0557   31.5514   45.0145 C   0  0  0  0  0  0  0  0  0  0  0  0
   40.4371   32.2862   44.1718 O   0  0  0  0  0  0  0  0  0  0  0  0
   40.4319   30.7579   46.0072 N   0  0  0  0  0  0  0  0  0  0  0  0
   37.5505   33.1848   50.6225 H   0  0  0  0  0  0  0  0  0  0  0  0
   39.0279   34.3411   48.9409 H   0  0  0  0  0  0  0  0  0  0  0  0
   35.7543   31.4206   50.7293 H   0  0  0  0  0  0  0  0  0  0  0  0
   37.0164   28.6811   49.7085 H   0  0  0  0  0  0  0  0  0  0  0  0
   35.5072   28.8665   50.7748 H   0  0  0  0  0  0  0  0  0  0  0  0
   36.8694   30.0841   52.4724 H   0  0  0  0  0  0  0  0  0  0  0  0
   38.4212   29.8849   51.3738 H   0  0  0  0  0  0  0  0  0  0  0  0
   38.6431   29.6723   46.1412 H   0  0  0  0  0  0  0  0  0  0  0  0
   38.5442   31.2914   45.2727 H   0  0  0  0  0  0  0  0  0  0  0  0
   41.0118   30.1975   46.6700 H   0  0  0  0  0  0  0  0  0  0  0  0
   47.4241   32.8660   43.2893 C   0  0  0  0  0  0  0  0  0  0  0  0
   48.0825   32.1370   43.8281 H   0  0  0  0  0  0  0  0  0  0  0  0
   46.0203   32.4614   43.5503 C   0  0  0  0  0  0  0  0  0  0  0  0
   45.5179   32.9209   44.6573 C   0  0  0  0  0  0  0  0  0  0  0  0
   46.3556   33.7584   45.5034 C   0  0  0  0  0  0  0  0  0  0  0  0
   46.0142   34.2743   46.5984 O   0  0  0  0  0  0  0  0  0  0  0  0
   47.3560   34.5076   46.0924 O   0  0  0  0  0  0  0  0  0  0  0  0
   44.2086   32.6458   45.0653 N   0  0  0  0  0  0  0  0  0  0  0  0
   43.2168   32.3062   46.0470 C   0  0  0  0  0  0  0  0  0  0  0  0
   43.1205   32.6243   47.2456 O   0  0  0  0  0  0  0  0  0  0  0  0
   42.5581   31.5245   44.9506 C   0  0  2  0  0  0  0  0  0  0  0  0
   43.0965   32.6639   44.1112 C   0  0  2  0  0  0  0  0  0  0  0  0
   43.6010   32.1399   42.4739 S   0  0  0  0  0  0  0  0  0  0  0  0
   45.3276   31.5976   42.5738 C   0  0  2  0  0  0  0  0  0  0  0  0
   45.3040   30.5549   42.9411 H   0  0  0  0  0  0  0  0  0  0  0  0
   47.6380   32.7408   42.1943 H   0  0  0  0  0  0  0  0  0  0  0  0
   47.6079   33.9201   43.5970 H   0  0  0  0  0  0  0  0  0  0  0  0
   48.3479   34.4431   45.8178 H   0  0  0  0  0  0  0  0  0  0  0  0
   42.9969   30.5482   44.7250 H   0  0  0  0  0  0  0  0  0  0  0  0
   42.4726   33.5726   44.1671 H   0  0  0  0  0  0  0  0  0  0  0  0
   45.7465   31.7002   41.5566 H   0  0  0  0  0  0  0  0  0  0  0  0
  1  2  2  0
  1  7  1  0
  3  2  1  0
  4  3  2  0
  5  4  1  0
  5  6  2  0
  6  1  1  0
  7  8  1  0
  7  9  1  0
  8  9  1  0
 10  5  1  0
 11 13  1  0
 12 11  2  0
 13 10  1  0
  2 14  1  0
  3 15  1  0
  7 16  1  0
  8 17  1  0
  8 18  1  0
  9 19  1  0
  9 20  1  0
 10 21  1  0
 10 22  1  0
 13 23  1  0
 24 25  1  0
 24 26  1  0
 26 27  2  0
 27 28  1  0
 28 29  2  0
 28 30  1  0
 27 31  1  0
 31 32  1  0
 32 33  2  0
 32 34  1  0
 34 35  1  0
 35 36  1  0
 36 37  1  0
 37 38  1  1
 37 26  1  0
 35 31  1  0
 24 39  1  0
 24 40  1  0
 30 41  1  0
 34 42  1  6
 35 43  1  6
 37 44  1  0
 11 34  1  0
M  ISO  8  14  14  15  14  16  13  17  13  18  13  19  13  20  13  21   8
M  ISO  3  22   8  25   8  38  15
M  END
>  <DihAtoms>  (1) 
12,10,33,31

>  <DihDeg>  (1) 
-60.03890846586818

$$$$
