
     RDKit          3D

 44 47  0  0  0  0  0  0  0  0999 V2000
   37.4705   31.4367   49.3869 C   0  0  0  0  0  0  0  0  0  0  0  0
   37.8671   32.7222   49.7028 C   0  0  0  0  0  0  0  0  0  0  0  0
   38.6800   33.3327   48.7567 C   0  0  0  0  0  0  0  0  0  0  0  0
   39.0344   32.6693   47.6116 N   0  0  0  0  0  0  0  0  0  0  0  0
   38.6187   31.4119   47.3507 C   0  0  0  0  0  0  0  0  0  0  0  0
   37.8229   30.7894   48.2586 N   0  0  0  0  0  0  0  0  0  0  0  0
   36.5621   30.7348   50.3614 C   0  0  0  0  0  0  0  0  0  0  0  0
   36.4704   29.3167   50.4624 C   0  0  0  0  0  0  0  0  0  0  0  0
   37.3441   30.0260   51.4868 C   0  0  0  0  0  0  0  0  0  0  0  0
   38.9842   30.7038   46.1277 C   0  0  0  0  0  0  0  0  0  0  0  0
   41.0557   31.5514   45.0145 C   0  0  0  0  0  0  0  0  0  0  0  0
   40.4371   32.2862   44.1718 O   0  0  0  0  0  0  0  0  0  0  0  0
   40.4319   30.7579   46.0072 N   0  0  0  0  0  0  0  0  0  0  0  0
   37.5505   33.1848   50.6225 H   0  0  0  0  0  0  0  0  0  0  0  0
   39.0279   34.3411   48.9409 H   0  0  0  0  0  0  0  0  0  0  0  0
   35.7543   31.4206   50.7293 H   0  0  0  0  0  0  0  0  0  0  0  0
   37.0164   28.6811   49.7085 H   0  0  0  0  0  0  0  0  0  0  0  0
   35.5072   28.8665   50.7748 H   0  0  0  0  0  0  0  0  0  0  0  0
   36.8694   30.0841   52.4724 H   0  0  0  0  0  0  0  0  0  0  0  0
   38.4212   29.8849   51.3738 H   0  0  0  0  0  0  0  0  0  0  0  0
   38.6431   29.6723   46.1412 H   0  0  0  0  0  0  0  0  0  0  0  0
   38.5442   31.2914   45.2727 H   0  0  0  0  0  0  0  0  0  0  0  0
   41.0118   30.1975   46.6700 H   0  0  0  0  0  0  0  0  0  0  0  0
   47.3859   29.6636   43.7397 C   0  0  0  0  0  0  0  0  0  0  0  0
   48.0694   30.3845   44.2575 H   0  0  0  0  0  0  0  0  0  0  0  0
   46.0022   29.9941   44.1619 C   0  0  0  0  0  0  0  0  0  0  0  0
   45.4319   30.9353   43.4705 C   0  0  0  0  0  0  0  0  0  0  0  0
   46.1836   31.5516   42.3869 C   0  0  0  0  0  0  0  0  0  0  0  0
   45.7707   32.4696   41.6328 O   0  0  0  0  0  0  0  0  0  0  0  0
   47.1124   31.9454   41.4430 O   0  0  0  0  0  0  0  0  0  0  0  0
   44.1288   31.3761   43.7236 N   0  0  0  0  0  0  0  0  0  0  0  0
   43.1257   32.3937   43.8692 C   0  0  0  0  0  0  0  0  0  0  0  0
   42.9661   33.4674   43.2619 O   0  0  0  0  0  0  0  0  0  0  0  0
   42.5581   31.5245   44.9506 C   0  0  2  0  0  0  0  0  0  0  0  0
   43.0530   30.4293   44.0296 C   0  0  2  0  0  0  0  0  0  0  0  0
   43.6487   28.9927   44.9190 S   0  0  0  0  0  0  0  0  0  0  0  0
   45.4015   29.2613   45.2941 C   0  0  2  0  0  0  0  0  0  0  0  0
   45.4309   29.8851   46.2067 H   0  0  0  0  0  0  0  0  0  0  0  0
   47.6468   28.6422   44.1261 H   0  0  0  0  0  0  0  0  0  0  0  0
   47.4911   29.6917   42.6316 H   0  0  0  0  0  0  0  0  0  0  0  0
   48.1156   31.7153   41.5054 H   0  0  0  0  0  0  0  0  0  0  0  0
   43.0659   31.5670   45.9185 H   0  0  0  0  0  0  0  0  0  0  0  0
   42.3710   30.2368   43.1834 H   0  0  0  0  0  0  0  0  0  0  0  0
   45.8495   28.2601   45.4265 H   0  0  0  0  0  0  0  0  0  0  0  0
  1  2  2  0
  1  7  1  0
  3  2  1  0
  4  3  2  0
  5  4  1  0
  5  6  2  0
  6  1  1  0
  7  8  1  0
  7  9  1  0
  8  9  1  0
 10  5  1  0
 11 13  1  0
 12 11  2  0
 13 10  1  0
  2 14  1  0
  3 15  1  0
  7 16  1  0
  8 17  1  0
  8 18  1  0
  9 19  1  0
  9 20  1  0
 10 21  1  0
 10 22  1  0
 13 23  1  0
 24 25  1  0
 24 26  1  0
 26 27  2  0
 27 28  1  0
 28 29  2  0
 28 30  1  0
 27 31  1  0
 31 32  1  0
 32 33  2  0
 32 34  1  0
 34 35  1  0
 35 36  1  0
 36 37  1  0
 37 38  1  1
 37 26  1  0
 35 31  1  0
 24 39  1  0
 24 40  1  0
 30 41  1  0
 34 42  1  1
 35 43  1  6
 37 44  1  0
 11 34  1  0
M  ISO  8  14  14  15  14  16  13  17  13  18  13  19  13  20  13  21   8
M  ISO  3  22   8  25   8  38  15
M  END
>  <DihAtoms>  (1) 
12,10,33,31

>  <DihDeg>  (1) 
-60.03890846586818

$$$$
