
     RDKit          3D

 46 50  0  0  1  0  0  0  0  0999 V2000
   34.1090   29.5800   48.4640 C   0  0  1  0  0  0  0  0  0  0  0  0
   33.9570   29.7490   47.0210 C   0  0  0  0  0  0  0  0  0  0  0  0
   34.0610   28.5050   46.1700 C   0  0  0  0  0  0  0  0  0  0  0  0
   33.4950   27.2870   46.7320 C   0  0  2  0  0  0  0  0  0  0  0  0
   33.6070   27.1040   48.2170 C   0  0  0  0  0  0  0  0  0  0  0  0
   33.4050   28.3590   48.9880 C   0  0  0  0  0  0  0  0  0  0  0  0
   36.5390   30.2970   48.2410 C   0  0  0  0  0  0  0  0  0  0  0  0
   35.4850   29.7260   48.9980 C   0  0  0  0  0  0  0  0  0  0  0  0
   35.7870   29.3050   50.2800 C   0  0  0  0  0  0  0  0  0  0  0  0
   37.0560   29.4490   50.7630 N   0  0  0  0  0  0  0  0  0  0  0  0
   38.0310   30.0030   49.9960 C   0  0  0  0  0  0  0  0  0  0  0  0
   37.7650   30.4250   48.7360 N   0  0  0  0  0  0  0  0  0  0  0  0
   34.1030   26.0490   46.1300 C   0  0  0  0  0  0  0  0  0  0  0  0
   33.2640   25.2480   45.2520 C   0  0  0  0  0  0  0  0  0  0  0  0
   33.0080   24.0370   45.7520 C   0  0  0  0  0  0  0  0  0  0  0  0
   32.2550   23.0020   45.1700 N   0  0  0  0  0  0  0  0  0  0  0  0
   31.7610   21.6600   45.0890 C   0  0  2  0  0  0  0  0  0  0  0  0
   31.5650   20.7550   45.9380 O   0  0  0  0  0  0  0  0  0  0  0  0
   31.5690   21.7530   43.6110 C   0  0  0  0  0  0  0  0  0  0  0  0
   31.4750   23.2040   43.9640 C   0  0  1  0  0  0  0  0  0  0  0  0
   32.5460   24.1980   42.8650 S   0  0  0  0  0  0  0  0  0  0  0  0
   32.7450   25.6660   43.9550 C   0  0  0  0  0  0  0  0  0  0  0  0
   33.5550   23.6310   47.0700 C   0  0  0  0  0  0  0  0  0  0  0  0
   32.8490   23.3170   48.0880 O   0  0  0  0  0  0  0  0  0  0  0  0
   34.3910   23.3180   48.0950 O   0  0  0  0  0  0  0  0  0  0  0  0
   33.5873   30.4574   48.8739 H   0  0  0  0  0  0  0  0  0  0  0  0
   32.9664   30.1921   46.8413 H   0  0  0  0  0  0  0  0  0  0  0  0
   34.8077   30.3759   46.7156 H   0  0  0  0  0  0  0  0  0  0  0  0
   35.1280   28.3200   45.9767 H   0  0  0  0  0  0  0  0  0  0  0  0
   33.4648   28.7160   45.2700 H   0  0  0  0  0  0  0  0  0  0  0  0
   32.4319   27.4194   46.4824 H   0  0  0  0  0  0  0  0  0  0  0  0
   32.8483   26.3741   48.5357 H   0  0  0  0  0  0  0  0  0  0  0  0
   34.6312   26.7598   48.4234 H   0  0  0  0  0  0  0  0  0  0  0  0
   33.7580   28.1827   50.0148 H   0  0  0  0  0  0  0  0  0  0  0  0
   32.3307   28.5825   48.9109 H   0  0  0  0  0  0  0  0  0  0  0  0
   36.3362   30.6431   47.2168 H   0  0  0  0  0  0  0  0  0  0  0  0
   35.0058   28.8546   50.9100 H   0  0  0  0  0  0  0  0  0  0  0  0
   39.0476   30.1102   50.4023 H   0  0  0  0  0  0  0  0  0  0  0  0
   34.9827   26.3629   45.5490 H   0  0  0  0  0  0  0  0  0  0  0  0
   34.3154   25.3949   46.9885 H   0  0  0  0  0  0  0  0  0  0  0  0
   31.6470   21.1338   46.8490 H   0  0  0  0  0  0  0  0  0  0  0  0
   30.6542   21.2912   43.2110 H   0  0  0  0  0  0  0  0  0  0  0  0
   32.2419   21.3245   42.8536 H   0  0  0  0  0  0  0  0  0  0  0  0
   33.4476   26.3736   43.4907 H   0  0  0  0  0  0  0  0  0  0  0  0
   31.7681   26.1525   44.0930 H   0  0  0  0  0  0  0  0  0  0  0  0
   34.0195   23.0434   48.9706 H   0  0  0  0  0  0  0  0  0  0  0  0
  1  6  1  0
  1  8  1  0
  2  1  1  0
  3  4  1  0
  3  2  1  0
  4  5  1  0
  5  6  1  0
  7 12  2  0
  7  8  1  0
  8  9  2  0
  9 10  1  0
 11 10  2  0
 12 11  1  0
 13  4  1  0
 14 15  2  0
 14 13  1  0
 15 23  1  0
 16 15  1  0
 17 16  1  0
 17 18  1  1
 19 20  1  0
 19 17  1  0
 20 21  1  6
 20 17  1  0
 20 16  1  0
 21 22  1  0
 22 14  1  0
 23 24  2  0
 23 25  1  0
  1 26  1  1
  2 27  1  0
  2 28  1  0
  3 29  1  0
  3 30  1  0
  4 31  1  1
  5 32  1  0
  5 33  1  0
  6 34  1  0
  6 35  1  0
  7 36  1  0
  9 37  1  0
 11 38  1  0
 13 39  1  0
 13 40  1  0
 18 41  1  0
 19 42  1  0
 19 43  1  0
 22 44  1  0
 22 45  1  0
 25 46  1  0
M  ISO  8  26  13  27  13  28  13  29  13  30  13  31  13  32  13  33  13
M  ISO  8  34  13  35  13  36  14  37  14  38  14  39   8  40   8  41   3
M  ISO  5  42  13  43  13  44  13  45  13  46   3
M  END
>  <minimizedAffinity>  (1) 
-4.1699152

>  <minimizedRMSD>  (1) 
1.09845185

$$$$
