
     RDKit          3D

 61 66  0  0  0  0  0  0  0  0999 V2000
   37.5168   32.0917   49.0459 C   0  0  0  0  0  0  0  0  0  0  0  0
   38.0775   33.2269   49.5981 C   0  0  0  0  0  0  0  0  0  0  0  0
   39.0942   33.8194   48.8540 C   0  0  0  0  0  0  0  0  0  0  0  0
   39.4797   33.2797   47.6603 N   0  0  0  0  0  0  0  0  0  0  0  0
   38.9073   32.1652   47.1481 C   0  0  0  0  0  0  0  0  0  0  0  0
   37.9112   31.5736   47.8644 N   0  0  0  0  0  0  0  0  0  0  0  0
   40.0609   32.3793   45.0189 C   0  0  0  0  0  0  0  0  0  0  0  0
   39.3257   31.5861   45.8645 C   0  0  0  0  0  0  0  0  0  0  0  0
   39.0120   30.3027   45.4788 C   0  0  0  0  0  0  0  0  0  0  0  0
   39.3999   29.7553   44.2685 C   0  0  0  0  0  0  0  0  0  0  0  0
   39.2228   28.5570   43.6694 N   0  0  0  0  0  0  0  0  0  0  0  0
   39.8493   28.6468   42.4793 C   0  0  0  0  0  0  0  0  0  0  0  0
   40.4037   29.8650   42.3354 N   0  0  0  0  0  0  0  0  0  0  0  0
   40.1404   30.5902   43.4443 C   0  0  0  0  0  0  0  0  0  0  0  0
   40.4705   31.8733   43.7980 C   0  0  0  0  0  0  0  0  0  0  0  0
   36.4331   31.4036   49.8305 C   0  0  1  0  0  0  0  0  0  0  0  0
   35.3952   30.6141   49.1851 C   0  0  2  0  0  0  0  0  0  0  0  0
   36.6091   29.8799   49.8212 C   0  0  2  0  0  0  0  0  0  0  0  0
   35.3736   30.5780   47.8472 O   0  0  0  0  0  0  0  0  0  0  0  0
   34.5477   30.2696   46.8477 C   0  0  0  0  0  0  0  0  0  0  0  0
   35.0419   29.4440   46.0065 O   0  0  0  0  0  0  0  0  0  0  0  0
   33.3202   30.8423   46.8225 N   0  0  0  0  0  0  0  0  0  0  0  0
   36.4817   29.2878   51.1783 C   0  0  0  0  0  0  0  0  0  0  0  0
   37.3954   29.7716   52.2131 C   0  0  0  0  0  0  0  0  0  0  0  0
   37.7959   33.6743   50.5323 H   0  0  0  0  0  0  0  0  0  0  0  0
   39.6184   34.7000   49.1562 H   0  0  0  0  0  0  0  0  0  0  0  0
   40.3606   33.4014   45.2263 H   0  0  0  0  0  0  0  0  0  0  0  0
   38.4261   29.6699   46.1520 H   0  0  0  0  0  0  0  0  0  0  0  0
   38.7003   27.7544   44.0817 H   0  0  0  0  0  0  0  0  0  0  0  0
   39.8755   27.8386   41.7811 H   0  0  0  0  0  0  0  0  0  0  0  0
   41.0514   32.4519   43.0922 H   0  0  0  0  0  0  0  0  0  0  0  0
   36.1999   31.8988   50.7974 H   0  0  0  0  0  0  0  0  0  0  0  0
   34.5805   30.3190   49.9190 H   0  0  0  0  0  0  0  0  0  0  0  0
   37.3085   29.4018   49.1443 H   0  0  0  0  0  0  0  0  0  0  0  0
   32.2988   31.0770   46.6496 H   0  0  0  0  0  0  0  0  0  0  0  0
   32.3614   31.2618   46.7850 H   0  0  0  0  0  0  0  0  0  0  0  0
   36.6463   28.1750   51.0691 H   0  0  0  0  0  0  0  0  0  0  0  0
   35.4181   29.3516   51.5175 H   0  0  0  0  0  0  0  0  0  0  0  0
   37.2888   30.9054   52.2467 H   0  0  0  0  0  0  0  0  0  0  0  0
   37.1151   29.4193   53.2383 H   0  0  0  0  0  0  0  0  0  0  0  0
   44.1796   29.2720   52.3947 C   0  0  0  0  0  0  0  0  0  0  0  0
   44.5808   29.2391   53.4402 H   0  0  0  0  0  0  0  0  0  0  0  0
   42.7261   29.4457   52.3097 C   0  0  0  0  0  0  0  0  0  0  0  0
   41.9339   28.5809   52.8951 C   0  0  0  0  0  0  0  0  0  0  0  0
   42.4833   27.4268   53.6424 C   0  0  0  0  0  0  0  0  0  0  0  0
   43.6869   27.1299   53.8140 O   0  0  0  0  0  0  0  0  0  0  0  0
   41.7418   26.4569   54.2935 O   0  0  0  0  0  0  0  0  0  0  0  0
   40.5355   28.7301   52.8338 N   0  0  0  0  0  0  0  0  0  0  0  0
   39.2534   28.1556   52.6367 C   0  0  0  0  0  0  0  0  0  0  0  0
   38.7717   27.0133   52.8893 O   0  0  0  0  0  0  0  0  0  0  0  0
   38.8391   29.4965   52.0349 C   0  0  2  0  0  0  0  0  0  0  0  0
   39.8244   29.9968   53.0442 C   0  0  2  0  0  0  0  0  0  0  0  0
   40.8189   31.3831   52.4408 S   0  0  0  0  0  0  0  0  0  0  0  0
   42.1942   30.5904   51.5597 C   0  0  1  0  0  0  0  0  0  0  0  0
   42.9840   31.3635   51.4902 H   0  0  0  0  0  0  0  0  0  0  0  0
   44.7376   30.0193   51.7870 H   0  0  0  0  0  0  0  0  0  0  0  0
   44.4354   28.2853   51.9422 H   0  0  0  0  0  0  0  0  0  0  0  0
   41.9292   26.1499   55.2230 H   0  0  0  0  0  0  0  0  0  0  0  0
   39.2368   29.5592   50.9981 H   0  0  0  0  0  0  0  0  0  0  0  0
   39.4765   30.0338   54.0744 H   0  0  0  0  0  0  0  0  0  0  0  0
   41.9080   30.3284   50.5151 H   0  0  0  0  0  0  0  0  0  0  0  0
  1  2  2  0
  1 16  1  0
  3  2  1  0
  4  3  2  0
  5  4  1  0
  5  6  2  0
  6  1  1  0
  7  8  2  0
  8  5  1  0
  9  8  1  0
 10  9  2  0
 11 10  1  0
 12 11  1  0
 13 12  2  0
 13 14  1  0
 14 15  2  0
 14 10  1  0
 15  7  1  0
 16 18  1  0
 17 16  1  0
 17 18  1  0
 18 23  1  0
 19 17  1  0
 20 22  1  0
 20 19  1  0
 21 20  2  0
 23 24  1  0
  2 25  1  0
  3 26  1  0
  7 27  1  0
  9 28  1  0
 11 29  1  0
 12 30  1  0
 15 31  1  0
 16 32  1  1
 17 33  1  1
 18 34  1  6
 22 35  1  0
 22 36  1  0
 23 37  1  0
 23 38  1  0
 24 39  1  0
 24 40  1  0
 41 42  1  0
 41 43  1  0
 43 44  2  0
 44 45  1  0
 45 46  2  0
 45 47  1  0
 44 48  1  0
 48 49  1  0
 49 50  2  0
 49 51  1  0
 51 52  1  0
 52 53  1  0
 53 54  1  0
 54 55  1  6
 54 43  1  0
 52 48  1  0
 41 56  1  0
 41 57  1  0
 47 58  1  0
 51 59  1  6
 52 60  1  1
 54 61  1  0
 24 51  1  0
M  ISO  8  25  14  26  14  27  14  28  14  29   9  30  14  31  14  32  13
M  ISO  8  33  13  34  13  37   8  38   8  39   8  40   8  42   8  55  15
M  END
>  <DihAtoms>  (1) 
22,23,50,48

>  <DihDeg>  (1) 
-178.7387324568929

$$$$
