
     RDKit          3D

 55 59  0  0  0  0  0  0  0  0999 V2000
   37.3320   30.1688   51.5074 C   0  0  0  0  0  0  0  0  0  0  0  0
   38.0730   30.8611   50.5133 C   0  0  0  0  0  0  0  0  0  0  0  0
   37.7130   30.6545   49.1997 C   0  0  0  0  0  0  0  0  0  0  0  0
   36.6639   29.7923   48.9699 N   0  0  0  0  0  0  0  0  0  0  0  0
   35.9851   29.1543   49.9316 C   0  0  0  0  0  0  0  0  0  0  0  0
   36.3356   29.3556   51.2085 N   0  0  0  0  0  0  0  0  0  0  0  0
   38.9308   33.2712   49.0015 F   0  0  0  0  0  0  0  0  0  0  0  0
   38.9148   32.4835   47.9362 C   0  0  0  0  0  0  0  0  0  0  0  0
   38.3384   31.2606   48.0520 C   0  0  0  0  0  0  0  0  0  0  0  0
   38.3784   30.5161   46.8680 C   0  0  0  0  0  0  0  0  0  0  0  0
   38.9439   30.9770   45.7068 C   0  0  0  0  0  0  0  0  0  0  0  0
   39.5151   32.2266   45.6459 C   0  0  0  0  0  0  0  0  0  0  0  0
   39.4926   32.9818   46.7889 C   0  0  0  0  0  0  0  0  0  0  0  0
   34.9960   28.3608   49.4465 O   0  0  0  0  0  0  0  0  0  0  0  0
   34.4448   28.6589   48.1653 C   0  0  0  0  0  0  0  0  0  0  0  0
   33.5652   27.5397   47.7012 C   0  0  0  0  0  0  0  0  0  0  0  0
   32.1317   27.9045   47.6981 C   0  0  0  0  0  0  0  0  0  0  0  0
   31.3437   27.5241   48.7816 C   0  0  0  0  0  0  0  0  0  0  0  0
   30.0163   27.8076   48.8799 C   0  0  0  0  0  0  0  0  0  0  0  0
   29.4428   28.4825   47.8905 N   0  0  0  0  0  0  0  0  0  0  0  0
   30.2014   28.8634   46.8200 C   0  0  0  0  0  0  0  0  0  0  0  0
   31.5294   28.5891   46.7041 N   0  0  0  0  0  0  0  0  0  0  0  0
   37.6801   30.3882   52.5032 H   0  0  0  0  0  0  0  0  0  0  0  0
   38.8848   31.5293   50.6765 H   0  0  0  0  0  0  0  0  0  0  0  0
   37.9500   29.5100   46.8161 H   0  0  0  0  0  0  0  0  0  0  0  0
   38.9657   30.3869   44.7998 H   0  0  0  0  0  0  0  0  0  0  0  0
   39.9596   32.5957   44.7430 H   0  0  0  0  0  0  0  0  0  0  0  0
   39.9353   33.9683   46.7666 H   0  0  0  0  0  0  0  0  0  0  0  0
   35.3149   28.7961   47.4849 H   0  0  0  0  0  0  0  0  0  0  0  0
   33.9146   29.6330   48.1803 H   0  0  0  0  0  0  0  0  0  0  0  0
   33.7133   26.5899   48.2686 H   0  0  0  0  0  0  0  0  0  0  0  0
   33.8323   27.3013   46.6428 H   0  0  0  0  0  0  0  0  0  0  0  0
   31.8063   26.9709   49.5963 H   0  0  0  0  0  0  0  0  0  0  0  0
   29.4504   27.4886   49.7437 H   0  0  0  0  0  0  0  0  0  0  0  0
   29.5492   29.6300   45.6984 C   0  0  0  0  0  0  0  0  0  0  0  0
   28.0868   29.5824   45.7348 C   0  0  0  0  0  0  0  0  0  0  0  0
   27.3914   29.0751   44.7333 C   0  0  0  0  0  0  0  0  0  0  0  0
   28.0542   28.5428   43.5519 C   0  0  0  0  0  0  0  0  0  0  0  0
   27.4513   28.0527   42.5718 O   0  0  0  0  0  0  0  0  0  0  0  0
   28.9956   28.1516   42.6437 O   0  0  0  0  0  0  0  0  0  0  0  0
   25.9769   29.0344   44.7813 N   0  0  0  0  0  0  0  0  0  0  0  0
   24.7670   29.2001   44.0611 C   0  0  0  0  0  0  0  0  0  0  0  0
   24.3538   29.3755   42.9022 O   0  0  0  0  0  0  0  0  0  0  0  0
   23.9903   29.0828   45.3163 C   0  0  2  0  0  0  0  0  0  0  0  0
   23.2260   28.3012   45.2226 H   0  0  0  0  0  0  0  0  0  0  0  0
   25.2694   28.6955   46.0279 C   0  0  2  0  0  0  0  0  0  0  0  0
   25.8128   29.8680   47.2665 S   0  0  0  0  0  0  0  0  0  0  0  0
   27.5736   30.1615   46.9932 C   0  0  2  0  0  0  0  0  0  0  0  0
   27.7733   31.2501   47.0723 H   0  0  0  0  0  0  0  0  0  0  0  0
   29.9524   29.3026   44.7192 H   0  0  0  0  0  0  0  0  0  0  0  0
   29.8320   30.7150   45.8032 H   0  0  0  0  0  0  0  0  0  0  0  0
   29.8458   27.6749   42.9699 H   0  0  0  0  0  0  0  0  0  0  0  0
   23.6038   30.0930   45.5928 H   0  0  0  0  0  0  0  0  0  0  0  0
   25.3508   27.6272   46.3078 H   0  0  0  0  0  0  0  0  0  0  0  0
   28.0942   29.6537   47.8491 H   0  0  0  0  0  0  0  0  0  0  0  0
  2  1  2  0
  3  2  1  0
  4  3  2  0
  4  5  1  0
  5  6  2  0
  6  1  1  0
  8  9  2  0
  8  7  1  0
  9  3  1  0
 10  9  1  0
 11 10  2  0
 12 11  1  0
 12 13  2  0
 13  8  1  0
 14  5  1  0
 15 14  1  0
 16 15  1  0
 17 16  1  0
 17 18  2  0
 18 19  1  0
 20 19  2  0
 21 20  1  0
 22 21  2  0
 22 17  1  0
  1 23  1  0
  2 24  1  0
 10 25  1  0
 11 26  1  0
 12 27  1  0
 13 28  1  0
 15 29  1  0
 15 30  1  0
 16 31  1  0
 16 32  1  0
 18 33  1  0
 19 34  1  0
 35 36  1  0
 36 37  2  0
 37 38  1  0
 38 39  2  0
 38 40  1  0
 37 41  1  0
 41 42  1  0
 42 43  2  0
 42 44  1  0
 44 45  1  6
 44 46  1  0
 46 47  1  0
 47 48  1  0
 48 49  1  6
 48 36  1  0
 46 41  1  0
 35 50  1  0
 35 51  1  0
 40 52  1  0
 44 53  1  0
 46 54  1  1
 48 55  1  0
 21 35  1  0
M  ISO  8  23  14  24  14  25  14  26  14  27  14  28  14  29   8  30   8
M  ISO  6  31   8  32   8  33  14  34  14  45  15  49  15
M  END
>  <DihAtoms>  (1) 
19,20,34,35

>  <DihDeg>  (1) 
-89.82404706740319

$$$$
