
     RDKit          3D

 46 49  0  0  0  0  0  0  0  0999 V2000
   35.9701   29.6269   48.8637 N   0  0  0  0  0  0  0  0  0  0  0  0
   36.5667   28.8577   49.9236 C   0  0  0  0  0  0  0  0  0  0  0  0
   37.0371   29.5710   51.1180 C   0  0  0  0  0  0  0  0  0  0  0  0
   37.4232   30.9937   50.9776 C   0  0  0  0  0  0  0  0  0  0  0  0
   36.8201   31.6926   49.7813 C   0  0  0  0  0  0  0  0  0  0  0  0
   36.8408   30.7351   48.5844 C   0  0  1  0  0  0  0  0  0  0  0  0
   34.7362   29.3294   48.2173 C   0  0  0  0  0  0  0  0  0  0  0  0
   34.2471   30.0134   47.0998 C   0  0  0  0  0  0  0  0  0  0  0  0
   33.0311   29.6197   46.5708 C   0  0  0  0  0  0  0  0  0  0  0  0
   32.3738   28.5853   47.1672 N   0  0  0  0  0  0  0  0  0  0  0  0
   32.8794   27.9577   48.2371 C   0  0  0  0  0  0  0  0  0  0  0  0
   34.0652   28.3252   48.7706 N   0  0  0  0  0  0  0  0  0  0  0  0
   38.1792   30.3482   48.4747 O   0  0  0  0  0  0  0  0  0  0  0  0
   37.3972   28.2588   49.4779 H   0  0  0  0  0  0  0  0  0  0  0  0
   35.8008   28.0947   50.2210 H   0  0  0  0  0  0  0  0  0  0  0  0
   36.2405   29.5232   51.9111 H   0  0  0  0  0  0  0  0  0  0  0  0
   37.9046   29.0236   51.5462 H   0  0  0  0  0  0  0  0  0  0  0  0
   37.1477   31.6067   51.8622 H   0  0  0  0  0  0  0  0  0  0  0  0
   38.5350   31.1043   50.8851 H   0  0  0  0  0  0  0  0  0  0  0  0
   37.4648   32.5418   49.4890 H   0  0  0  0  0  0  0  0  0  0  0  0
   35.8065   32.0675   49.9740 H   0  0  0  0  0  0  0  0  0  0  0  0
   36.5955   31.2624   47.6506 H   0  0  0  0  0  0  0  0  0  0  0  0
   34.8433   30.8139   46.7068 H   0  0  0  0  0  0  0  0  0  0  0  0
   32.7174   30.1871   45.7159 H   0  0  0  0  0  0  0  0  0  0  0  0
   32.2750   27.1485   48.6330 H   0  0  0  0  0  0  0  0  0  0  0  0
   38.7281   30.7494   47.2593 C   0  0  0  0  0  0  0  0  0  0  0  0
   40.1988   30.6396   47.3579 C   0  0  0  0  0  0  0  0  0  0  0  0
   41.0058   31.6795   47.2012 C   0  0  0  0  0  0  0  0  0  0  0  0
   40.5470   33.0558   46.9150 C   0  0  0  0  0  0  0  0  0  0  0  0
   39.4959   33.7111   46.7373 O   0  0  0  0  0  0  0  0  0  0  0  0
   41.3367   34.1612   46.7434 O   0  0  0  0  0  0  0  0  0  0  0  0
   42.4040   31.4501   47.3179 N   0  0  0  0  0  0  0  0  0  0  0  0
   43.6904   31.7995   47.8728 C   0  0  0  0  0  0  0  0  0  0  0  0
   44.1874   32.9293   48.1767 O   0  0  0  0  0  0  0  0  0  0  0  0
   43.9782   30.3399   47.8585 C   0  0  1  0  0  0  0  0  0  0  0  0
   45.0320   30.0713   47.6733 H   0  0  0  0  0  0  0  0  0  0  0  0
   43.1120   30.3834   46.6178 C   0  0  1  0  0  0  0  0  0  0  0  0
   42.0592   28.8823   46.5772 S   0  0  0  0  0  0  0  0  0  0  0  0
   40.6570   29.2679   47.6655 C   0  0  2  0  0  0  0  0  0  0  0  0
   39.8676   28.5449   47.3941 H   0  0  0  0  0  0  0  0  0  0  0  0
   38.4521   31.8012   47.1340 H   0  0  0  0  0  0  0  0  0  0  0  0
   38.3204   30.1604   46.4090 H   0  0  0  0  0  0  0  0  0  0  0  0
   41.4379   34.7243   45.9213 H   0  0  0  0  0  0  0  0  0  0  0  0
   43.4694   29.8451   48.6915 H   0  0  0  0  0  0  0  0  0  0  0  0
   43.5956   30.6477   45.6792 H   0  0  0  0  0  0  0  0  0  0  0  0
   40.9301   29.1505   48.7355 H   0  0  0  0  0  0  0  0  0  0  0  0
  1  2  1  0
  2  3  1  0
  4  3  1  0
  5  4  1  0
  6  1  1  0
  6  5  1  0
  7 12  1  0
  7  1  1  0
  8  7  2  0
  9  8  1  0
  9 10  2  0
 10 11  1  0
 11 12  2  0
 13  6  1  0
  2 14  1  0
  2 15  1  0
  3 16  1  0
  3 17  1  0
  4 18  1  0
  4 19  1  0
  5 20  1  0
  5 21  1  0
  6 22  1  6
  8 23  1  0
  9 24  1  0
 11 25  1  0
 26 27  1  0
 27 28  2  0
 28 29  1  0
 29 30  2  0
 29 31  1  0
 28 32  1  0
 32 33  1  0
 33 34  2  0
 33 35  1  0
 35 36  1  6
 35 37  1  0
 37 38  1  0
 38 39  1  0
 39 40  1  6
 39 27  1  0
 37 32  1  0
 26 41  1  0
 26 42  1  0
 31 43  1  0
 35 44  1  0
 37 45  1  6
 39 46  1  0
 13 26  1  0
M  ISO  8  14  13  15  13  16  13  17  13  18  13  19  13  20  13  21  13
M  ISO  6  22  13  23  14  24  14  25  14  36  15  40  15
M  END
>  <DihAtoms>  (1) 
5,12,25,26

>  <DihDeg>  (1) 
179.99727243392192

$$$$
