
     RDKit          3D

 53 56  0  0  1  0  0  0  0  0999 V2000
   39.4040   32.0690   47.1770 C   0  0  2  0  0  0  0  0  0  0  0  0
   39.7510   33.5030   46.8320 C   0  0  0  0  0  0  0  0  0  0  0  0
   40.2870   33.5300   45.4090 C   0  0  0  0  0  0  0  0  0  0  0  0
   41.1310   32.3330   45.1670 C   0  0  0  0  0  0  0  0  0  0  0  0
   40.5160   31.0120   45.4930 C   0  0  0  0  0  0  0  0  0  0  0  0
   39.1100   31.2720   46.0400 C   0  0  1  0  0  0  0  0  0  0  0  0
   38.1220   32.2170   48.4110 S   0  0  0  0  0  0  0  0  0  0  0  0
   37.9040   30.6210   49.2340 C   0  0  0  0  0  0  0  0  0  0  0  0
   36.5440   30.5310   49.7660 C   0  0  0  0  0  0  0  0  0  0  0  0
   34.2410   27.8250   48.6520 C   0  0  0  0  0  0  0  0  0  0  0  0
   35.0990   28.5670   49.4620 C   0  0  0  0  0  0  0  0  0  0  0  0
   35.6240   29.7230   48.9930 C   0  0  0  0  0  0  0  0  0  0  0  0
   35.2750   30.1170   47.7140 N   0  0  0  0  0  0  0  0  0  0  0  0
   34.4470   29.3790   46.9660 C   0  0  0  0  0  0  0  0  0  0  0  0
   33.9180   28.2360   47.4060 N   0  0  0  0  0  0  0  0  0  0  0  0
   38.4350   30.1370   45.5790 C   0  0  0  0  0  0  0  0  0  0  0  0
   37.6740   30.3100   44.2830 C   0  0  0  0  0  0  0  0  0  0  0  0
   37.9470   29.5190   43.2260 C   0  0  0  0  0  0  0  0  0  0  0  0
   37.2340   29.6540   42.0180 N   0  0  0  0  0  0  0  0  0  0  0  0
   36.6780   29.0470   40.8690 C   0  0  0  0  0  0  0  0  0  0  0  0
   36.7090   27.9390   40.2730 O   0  0  0  0  0  0  0  0  0  0  0  0
   35.9110   30.2510   40.4670 C   0  0  0  0  0  0  0  0  0  0  0  0
   36.7310   30.9320   41.5200 C   0  0  1  0  0  0  0  0  0  0  0  0
   35.6340   31.5230   42.8670 S   0  0  0  0  0  0  0  0  0  0  0  0
   36.6720   31.4080   44.3460 C   0  0  0  0  0  0  0  0  0  0  0  0
   38.9740   28.4530   43.2390 C   0  0  0  0  0  0  0  0  0  0  0  0
   39.1530   27.2340   43.4530 O   0  0  0  0  0  0  0  0  0  0  0  0
   40.2930   28.6660   42.9330 O   0  0  0  0  0  0  0  0  0  0  0  0
   40.2509   31.4999   47.5879 H   0  0  0  0  0  0  0  0  0  0  0  0
   38.8514   34.1319   46.9036 H   0  0  0  0  0  0  0  0  0  0  0  0
   40.5063   33.8912   47.5312 H   0  0  0  0  0  0  0  0  0  0  0  0
   39.4448   33.5321   44.7015 H   0  0  0  0  0  0  0  0  0  0  0  0
   40.8931   34.4368   45.2663 H   0  0  0  0  0  0  0  0  0  0  0  0
   41.4003   32.3231   44.1005 H   0  0  0  0  0  0  0  0  0  0  0  0
   41.9865   32.4346   45.8510 H   0  0  0  0  0  0  0  0  0  0  0  0
   40.4559   30.3932   44.5855 H   0  0  0  0  0  0  0  0  0  0  0  0
   41.1250   30.4781   46.2374 H   0  0  0  0  0  0  0  0  0  0  0  0
   38.1989   31.8668   45.8782 H   0  0  0  0  0  0  0  0  0  0  0  0
   38.0696   29.8092   48.5104 H   0  0  0  0  0  0  0  0  0  0  0  0
   38.6277   30.5300   50.0574 H   0  0  0  0  0  0  0  0  0  0  0  0
   36.6035   30.1028   50.7775 H   0  0  0  0  0  0  0  0  0  0  0  0
   36.1416   31.5544   49.7405 H   0  0  0  0  0  0  0  0  0  0  0  0
   33.8178   26.8848   49.0353 H   0  0  0  0  0  0  0  0  0  0  0  0
   35.3475   28.2158   50.4744 H   0  0  0  0  0  0  0  0  0  0  0  0
   34.1937   29.7265   45.9535 H   0  0  0  0  0  0  0  0  0  0  0  0
   39.1771   29.3385   45.4316 H   0  0  0  0  0  0  0  0  0  0  0  0
   37.6785   29.9058   46.3434 H   0  0  0  0  0  0  0  0  0  0  0  0
   36.0827   30.5979   39.4374 H   0  0  0  0  0  0  0  0  0  0  0  0
   34.8122   30.2887   40.4330 H   0  0  0  0  0  0  0  0  0  0  0  0
   37.3886   31.7591   41.2144 H   0  0  0  0  0  0  0  0  0  0  0  0
   36.0211   31.2360   45.2159 H   0  0  0  0  0  0  0  0  0  0  0  0
   37.2308   32.3523   44.4238 H   0  0  0  0  0  0  0  0  0  0  0  0
   40.9350   27.9128   42.9588 H   0  0  0  0  0  0  0  0  0  0  0  0
  1  7  1  0
  2  1  1  0
  3  2  1  0
  4  3  1  0
  4  5  1  0
  5  6  1  0
  6  1  1  0
  7  8  1  0
  8  9  1  0
 10 11  2  0
 12 11  1  0
 12  9  1  0
 13 12  2  0
 14 15  2  0
 14 13  1  0
 15 10  1  0
 16  6  1  0
 17 25  1  0
 17 16  1  0
 18 26  1  0
 18 17  2  0
 19 18  1  0
 20 19  1  0
 21 20  2  0
 22 20  1  0
 23 22  1  0
 23 19  1  0
 23 24  1  0
 24 25  1  0
 26 27  2  0
 28 26  1  0
  1 29  1  1
  2 30  1  0
  2 31  1  0
  3 32  1  0
  3 33  1  0
  4 34  1  0
  4 35  1  0
  5 36  1  0
  5 37  1  0
  6 38  1  6
  8 39  1  0
  8 40  1  0
  9 41  1  0
  9 42  1  0
 10 43  1  0
 11 44  1  0
 14 45  1  0
 16 46  1  0
 16 47  1  0
 22 48  1  0
 22 49  1  0
 23 50  1  6
 25 51  1  0
 25 52  1  0
 28 53  1  0
M  ISO  8  29  13  30  13  31  13  32  13  33  13  34  13  35  13  36  13
M  ISO  8  37  13  38  13  39   8  40   8  41   8  42   8  43  14  44  14
M  ISO  8  45  14  46   8  47   8  48  13  49  13  50  13  51  13  52  13
M  ISO  1  53   3
M  END
>  <minimizedAffinity>  (1) 
-5.4611063

>  <minimizedRMSD>  (1) 
2.72431612

$$$$
