
     RDKit          3D

 46 49  0  0  0  0  0  0  0  0999 V2000
   34.7622   29.4291   48.7963 C   0  0  0  0  0  0  0  0  0  0  0  0
   34.2054   30.0694   47.6732 C   0  0  0  0  0  0  0  0  0  0  0  0
   33.4735   29.2631   46.7960 C   0  0  0  0  0  0  0  0  0  0  0  0
   33.3291   27.9144   47.0561 N   0  0  0  0  0  0  0  0  0  0  0  0
   33.8919   27.3434   48.1640 C   0  0  0  0  0  0  0  0  0  0  0  0
   34.5960   28.1048   49.0124 N   0  0  0  0  0  0  0  0  0  0  0  0
   35.5311   30.3004   49.7342 C   0  0  2  0  0  0  0  0  0  0  0  0
   36.4896   31.1649   48.9412 C   0  0  0  0  0  0  0  0  0  0  0  0
   37.9231   30.7798   49.1592 C   0  0  0  0  0  0  0  0  0  0  0  0
   38.3215   30.7608   50.6172 C   0  0  0  0  0  0  0  0  0  0  0  0
   37.2660   30.1761   51.5058 C   0  0  0  0  0  0  0  0  0  0  0  0
   36.1956   29.4227   50.7356 C   0  0  1  0  0  0  0  0  0  0  0  0
   34.3030   31.1080   47.4516 H   0  0  0  0  0  0  0  0  0  0  0  0
   32.9970   29.6242   45.9022 H   0  0  0  0  0  0  0  0  0  0  0  0
   33.7743   26.2963   48.3573 H   0  0  0  0  0  0  0  0  0  0  0  0
   34.7674   30.9240   50.2470 H   0  0  0  0  0  0  0  0  0  0  0  0
   36.3745   32.2040   49.3174 H   0  0  0  0  0  0  0  0  0  0  0  0
   36.3034   31.1089   47.8556 H   0  0  0  0  0  0  0  0  0  0  0  0
   38.5411   31.5244   48.6504 H   0  0  0  0  0  0  0  0  0  0  0  0
   38.1298   29.8059   48.6763 H   0  0  0  0  0  0  0  0  0  0  0  0
   39.2045   30.0742   50.6724 H   0  0  0  0  0  0  0  0  0  0  0  0
   38.6980   31.7428   50.9533 H   0  0  0  0  0  0  0  0  0  0  0  0
   36.7236   31.0489   51.9730 H   0  0  0  0  0  0  0  0  0  0  0  0
   37.6657   29.5362   52.3163 H   0  0  0  0  0  0  0  0  0  0  0  0
   36.6172   28.5492   50.2104 H   0  0  0  0  0  0  0  0  0  0  0  0
   35.1735   29.0221   51.7836 C   0  0  0  0  0  0  0  0  0  0  0  0
   33.8564   29.5783   51.5485 C   0  0  0  0  0  0  0  0  0  0  0  0
   32.7111   28.9518   51.3551 C   0  0  0  0  0  0  0  0  0  0  0  0
   32.6528   27.4873   51.3573 C   0  0  0  0  0  0  0  0  0  0  0  0
   33.4235   26.5265   51.4960 O   0  0  0  0  0  0  0  0  0  0  0  0
   31.5566   26.6910   51.1774 O   0  0  0  0  0  0  0  0  0  0  0  0
   31.5242   29.7030   51.1492 N   0  0  0  0  0  0  0  0  0  0  0  0
   30.3635   29.9184   50.3154 C   0  0  0  0  0  0  0  0  0  0  0  0
   29.6788   29.1666   49.5431 O   0  0  0  0  0  0  0  0  0  0  0  0
   30.3935   31.3283   50.7886 C   0  0  2  0  0  0  0  0  0  0  0  0
   29.4032   31.7482   51.0313 H   0  0  0  0  0  0  0  0  0  0  0  0
   31.0570   30.7823   52.0351 C   0  0  2  0  0  0  0  0  0  0  0  0
   32.5396   31.6677   52.5814 S   0  0  0  0  0  0  0  0  0  0  0  0
   33.8899   31.0401   51.5236 C   0  0  1  0  0  0  0  0  0  0  0  0
   34.8295   31.5347   51.7159 H   0  0  0  0  0  0  0  0  0  0  0  0
   35.5003   29.2934   52.8083 H   0  0  0  0  0  0  0  0  0  0  0  0
   35.1427   27.9247   51.7673 H   0  0  0  0  0  0  0  0  0  0  0  0
   31.1322   26.0762   51.8434 H   0  0  0  0  0  0  0  0  0  0  0  0
   31.0825   31.9670   50.2312 H   0  0  0  0  0  0  0  0  0  0  0  0
   30.3723   30.4598   52.8380 H   0  0  0  0  0  0  0  0  0  0  0  0
   33.5948   31.3419   50.4746 H   0  0  0  0  0  0  0  0  0  0  0  0
  1  6  1  0
  1  7  1  0
  2  1  2  0
  3  4  2  0
  3  2  1  0
  4  5  1  0
  5  6  2  0
  7 12  1  0
  8  9  1  0
  8  7  1  0
  9 10  1  0
 10 11  1  0
 12 11  1  0
  2 13  1  0
  3 14  1  0
  5 15  1  0
  7 16  1  1
  8 17  1  0
  8 18  1  0
  9 19  1  0
  9 20  1  0
 10 21  1  0
 10 22  1  0
 11 23  1  0
 11 24  1  0
 12 25  1  6
 26 27  1  0
 27 28  2  0
 28 29  1  0
 29 30  2  0
 29 31  1  0
 28 32  1  0
 32 33  1  0
 33 34  2  0
 33 35  1  0
 35 36  1  1
 35 37  1  0
 37 38  1  0
 38 39  1  0
 39 40  1  1
 39 27  1  0
 37 32  1  0
 26 41  1  0
 26 42  1  0
 31 43  1  0
 35 44  1  0
 37 45  1  1
 39 46  1  0
 12 26  1  0
M  ISO  8  13  14  14  14  15  14  16  13  17  13  18  13  19  13  20  13
M  ISO  7  21  13  22  13  23  13  24  13  25  13  36  15  40  15
M  END
>  <DihAtoms>  (1) 
6,11,25,26

>  <DihDeg>  (1) 
-179.99993290408497

$$$$
