
     RDKit          3D

 52 56  0  0  0  0  0  0  0  0999 V2000
   38.9547   32.3758   47.7928 C   0  0  2  0  0  0  0  0  0  0  0  0
   37.9983   32.7504   48.9734 C   0  0  2  0  0  0  0  0  0  0  0  0
   38.8892   33.5482   49.8004 C   0  0  0  0  0  0  0  0  0  0  0  0
   39.7241   34.2774   48.9570 O   0  0  0  0  0  0  0  0  0  0  0  0
   39.6215   33.7762   47.6955 C   0  0  0  0  0  0  0  0  0  0  0  0
   37.3634   29.6943   51.0826 C   0  0  0  0  0  0  0  0  0  0  0  0
   38.0288   30.8360   50.5583 C   0  0  0  0  0  0  0  0  0  0  0  0
   37.3779   31.5932   49.5544 C   0  0  0  0  0  0  0  0  0  0  0  0
   36.1212   31.1854   49.1294 N   0  0  0  0  0  0  0  0  0  0  0  0
   35.5346   30.0991   49.6556 C   0  0  0  0  0  0  0  0  0  0  0  0
   36.1390   29.3512   50.6242 N   0  0  0  0  0  0  0  0  0  0  0  0
   38.2806   32.1317   46.6461 O   0  0  0  0  0  0  0  0  0  0  0  0
   40.9543   31.2502   45.3856 Cl  0  0  0  0  0  0  0  0  0  0  0  0
   39.3751   30.6789   44.9063 C   0  0  0  0  0  0  0  0  0  0  0  0
   38.3343   31.2391   45.6323 C   0  0  0  0  0  0  0  0  0  0  0  0
   37.0684   30.8156   45.2669 C   0  0  0  0  0  0  0  0  0  0  0  0
   36.8504   29.8976   44.2496 C   0  0  0  0  0  0  0  0  0  0  0  0
   37.9339   29.3772   43.5661 C   0  0  0  0  0  0  0  0  0  0  0  0
   39.1942   29.7713   43.8985 C   0  0  0  0  0  0  0  0  0  0  0  0
   39.7106   31.6591   48.0932 H   0  0  0  0  0  0  0  0  0  0  0  0
   37.2088   33.3809   48.5063 H   0  0  0  0  0  0  0  0  0  0  0  0
   38.2771   34.3182   50.3560 H   0  0  0  0  0  0  0  0  0  0  0  0
   39.4554   33.0319   50.5863 H   0  0  0  0  0  0  0  0  0  0  0  0
   40.6244   33.6228   47.2682 H   0  0  0  0  0  0  0  0  0  0  0  0
   39.0533   34.4302   47.0372 H   0  0  0  0  0  0  0  0  0  0  0  0
   37.8151   29.0835   51.8483 H   0  0  0  0  0  0  0  0  0  0  0  0
   38.9884   31.0856   50.9322 H   0  0  0  0  0  0  0  0  0  0  0  0
   34.5588   29.9093   49.2205 H   0  0  0  0  0  0  0  0  0  0  0  0
   36.1384   31.1351   45.7114 H   0  0  0  0  0  0  0  0  0  0  0  0
   35.8779   29.5437   43.9363 H   0  0  0  0  0  0  0  0  0  0  0  0
   37.7898   28.6584   42.7806 H   0  0  0  0  0  0  0  0  0  0  0  0
   40.4649   29.3126   43.2828 C   0  0  0  0  0  0  0  0  0  0  0  0
   41.6632   29.4516   44.0851 C   0  0  0  0  0  0  0  0  0  0  0  0
   42.6132   30.2435   43.6785 C   0  0  0  0  0  0  0  0  0  0  0  0
   42.6147   31.0584   42.4385 C   0  0  0  0  0  0  0  0  0  0  0  0
   43.4396   31.8479   41.9370 O   0  0  0  0  0  0  0  0  0  0  0  0
   41.9228   31.4223   41.2987 O   0  0  0  0  0  0  0  0  0  0  0  0
   43.8200   30.3780   44.4508 N   0  0  0  0  0  0  0  0  0  0  0  0
   44.7806   31.2359   45.1032 C   0  0  0  0  0  0  0  0  0  0  0  0
   45.2090   32.4093   44.8412 O   0  0  0  0  0  0  0  0  0  0  0  0
   44.9558   30.1393   46.0972 C   0  0  2  0  0  0  0  0  0  0  0  0
   44.1681   30.0997   46.8671 H   0  0  0  0  0  0  0  0  0  0  0  0
   44.6371   29.2576   44.9151 C   0  0  1  0  0  0  0  0  0  0  0  0
   43.5034   27.9176   45.3450 S   0  0  0  0  0  0  0  0  0  0  0  0
   41.8370   28.6966   45.3461 C   0  0  2  0  0  0  0  0  0  0  0  0
   41.1266   27.8531   45.3781 H   0  0  0  0  0  0  0  0  0  0  0  0
   40.5810   29.8397   42.2887 H   0  0  0  0  0  0  0  0  0  0  0  0
   40.2961   28.2357   42.9526 H   0  0  0  0  0  0  0  0  0  0  0  0
   41.0597   31.9872   41.3201 H   0  0  0  0  0  0  0  0  0  0  0  0
   46.0034   30.0306   46.4313 H   0  0  0  0  0  0  0  0  0  0  0  0
   45.4713   28.9928   44.2691 H   0  0  0  0  0  0  0  0  0  0  0  0
   41.7502   29.3841   46.1918 H   0  0  0  0  0  0  0  0  0  0  0  0
  1  2  1  0
  2  8  1  0
  2  3  1  0
  4  3  1  0
  5  1  1  0
  5  4  1  0
  7  6  2  0
  8  7  1  0
  9  8  2  0
  9 10  1  0
 10 11  2  0
 11  6  1  0
 12  1  1  0
 14 13  1  0
 14 15  2  0
 15 12  1  0
 16 15  1  0
 17 16  2  0
 18 19  2  0
 18 17  1  0
 19 14  1  0
  1 20  1  1
  2 21  1  6
  3 22  1  0
  3 23  1  0
  5 24  1  0
  5 25  1  0
  6 26  1  0
  7 27  1  0
 10 28  1  0
 16 29  1  0
 17 30  1  0
 18 31  1  0
 32 33  1  0
 33 34  2  0
 34 35  1  0
 35 36  2  0
 35 37  1  0
 34 38  1  0
 38 39  1  0
 39 40  2  0
 39 41  1  0
 41 42  1  1
 41 43  1  0
 43 44  1  0
 44 45  1  0
 45 46  1  1
 45 33  1  0
 43 38  1  0
 32 47  1  0
 32 48  1  0
 37 49  1  0
 41 50  1  0
 43 51  1  6
 45 52  1  0
 19 32  1  0
M  ISO  8  20  13  21  13  22  13  23  13  24  13  25  13  26  14  27  14
M  ISO  6  28  14  29  14  30  14  31  14  42  15  46  15
M  END
>  <DihAtoms>  (1) 
17,18,31,32

>  <DihDeg>  (1) 
7.704757389262774

$$$$
