
     RDKit          3D

 44 47  0  0  0  0  0  0  0  0999 V2000
   37.4705   31.4367   49.3869 C   0  0  0  0  0  0  0  0  0  0  0  0
   37.8671   32.7222   49.7028 C   0  0  0  0  0  0  0  0  0  0  0  0
   38.6800   33.3327   48.7567 C   0  0  0  0  0  0  0  0  0  0  0  0
   39.0344   32.6693   47.6116 N   0  0  0  0  0  0  0  0  0  0  0  0
   38.6187   31.4119   47.3507 C   0  0  0  0  0  0  0  0  0  0  0  0
   37.8229   30.7894   48.2586 N   0  0  0  0  0  0  0  0  0  0  0  0
   36.5621   30.7348   50.3614 C   0  0  0  0  0  0  0  0  0  0  0  0
   36.4704   29.3167   50.4624 C   0  0  0  0  0  0  0  0  0  0  0  0
   37.3441   30.0260   51.4868 C   0  0  0  0  0  0  0  0  0  0  0  0
   38.9842   30.7038   46.1277 C   0  0  0  0  0  0  0  0  0  0  0  0
   41.0557   31.5514   45.0145 C   0  0  0  0  0  0  0  0  0  0  0  0
   40.4371   32.2862   44.1718 O   0  0  0  0  0  0  0  0  0  0  0  0
   40.4319   30.7579   46.0072 N   0  0  0  0  0  0  0  0  0  0  0  0
   37.5505   33.1848   50.6225 H   0  0  0  0  0  0  0  0  0  0  0  0
   39.0279   34.3411   48.9409 H   0  0  0  0  0  0  0  0  0  0  0  0
   35.7543   31.4206   50.7293 H   0  0  0  0  0  0  0  0  0  0  0  0
   37.0164   28.6811   49.7085 H   0  0  0  0  0  0  0  0  0  0  0  0
   35.5072   28.8665   50.7748 H   0  0  0  0  0  0  0  0  0  0  0  0
   36.8694   30.0841   52.4724 H   0  0  0  0  0  0  0  0  0  0  0  0
   38.4212   29.8849   51.3738 H   0  0  0  0  0  0  0  0  0  0  0  0
   38.6431   29.6723   46.1412 H   0  0  0  0  0  0  0  0  0  0  0  0
   38.5442   31.2914   45.2727 H   0  0  0  0  0  0  0  0  0  0  0  0
   41.0118   30.1975   46.6700 H   0  0  0  0  0  0  0  0  0  0  0  0
   47.4965   30.0075   46.1949 C   0  0  0  0  0  0  0  0  0  0  0  0
   48.1324   30.7133   45.6010 H   0  0  0  0  0  0  0  0  0  0  0  0
   46.0910   30.4623   46.0534 C   0  0  0  0  0  0  0  0  0  0  0  0
   45.4803   30.0228   44.9937 C   0  0  0  0  0  0  0  0  0  0  0  0
   46.2127   29.1572   44.0808 C   0  0  0  0  0  0  0  0  0  0  0  0
   45.7614   28.6554   43.0195 O   0  0  0  0  0  0  0  0  0  0  0  0
   47.1321   28.3736   43.4102 O   0  0  0  0  0  0  0  0  0  0  0  0
   44.1518   30.3451   44.6979 N   0  0  0  0  0  0  0  0  0  0  0  0
   43.0930   30.7214   43.8035 C   0  0  0  0  0  0  0  0  0  0  0  0
   42.8840   30.4088   42.6178 O   0  0  0  0  0  0  0  0  0  0  0  0
   42.5581   31.5245   44.9506 C   0  0  2  0  0  0  0  0  0  0  0  0
   43.1248   30.3653   45.7430 C   0  0  2  0  0  0  0  0  0  0  0  0
   43.7848   30.8685   47.3308 S   0  0  0  0  0  0  0  0  0  0  0  0
   45.5150   31.3489   47.0839 C   0  0  2  0  0  0  0  0  0  0  0  0
   45.4975   32.3924   46.7183 H   0  0  0  0  0  0  0  0  0  0  0  0
   47.8069   30.1232   47.2676 H   0  0  0  0  0  0  0  0  0  0  0  0
   47.6157   28.9479   45.8743 H   0  0  0  0  0  0  0  0  0  0  0  0
   48.1454   28.4022   43.5995 H   0  0  0  0  0  0  0  0  0  0  0  0
   43.0491   32.4841   45.1366 H   0  0  0  0  0  0  0  0  0  0  0  0
   42.4663   29.4796   45.7417 H   0  0  0  0  0  0  0  0  0  0  0  0
   46.0148   31.2298   48.0619 H   0  0  0  0  0  0  0  0  0  0  0  0
  1  2  2  0
  1  7  1  0
  3  2  1  0
  4  3  2  0
  5  4  1  0
  5  6  2  0
  6  1  1  0
  7  8  1  0
  7  9  1  0
  8  9  1  0
 10  5  1  0
 11 13  1  0
 12 11  2  0
 13 10  1  0
  2 14  1  0
  3 15  1  0
  7 16  1  0
  8 17  1  0
  8 18  1  0
  9 19  1  0
  9 20  1  0
 10 21  1  0
 10 22  1  0
 13 23  1  0
 24 25  1  0
 24 26  1  0
 26 27  2  0
 27 28  1  0
 28 29  2  0
 28 30  1  0
 27 31  1  0
 31 32  1  0
 32 33  2  0
 32 34  1  0
 34 35  1  0
 35 36  1  0
 36 37  1  0
 37 38  1  6
 37 26  1  0
 35 31  1  0
 24 39  1  0
 24 40  1  0
 30 41  1  0
 34 42  1  1
 35 43  1  1
 37 44  1  0
 11 34  1  0
M  ISO  8  14  14  15  14  16  13  17  13  18  13  19  13  20  13  21   8
M  ISO  3  22   8  25   8  38  15
M  END
>  <DihAtoms>  (1) 
12,10,33,31

>  <DihDeg>  (1) 
-60.03890846586818

$$$$
