
     RDKit          3D

 50 53  0  0  0  0  0  0  0  0999 V2000
   38.1376   30.5668   47.3281 C   0  0  1  0  0  0  0  0  0  0  0  0
   37.5086   30.7354   46.0254 C   0  0  0  0  0  0  0  0  0  0  0  0
   38.5501   30.5638   44.9645 C   0  0  0  0  0  0  0  0  0  0  0  0
   39.8107   31.2564   45.3337 C   0  0  0  0  0  0  0  0  0  0  0  0
   39.7038   32.2800   46.3873 C   0  0  0  0  0  0  0  0  0  0  0  0
   38.9354   31.8278   47.6285 C   0  0  1  0  0  0  0  0  0  0  0  0
   36.9370   29.6273   50.7152 C   0  0  0  0  0  0  0  0  0  0  0  0
   37.8222   29.8385   49.6178 C   0  0  0  0  0  0  0  0  0  0  0  0
   37.2352   30.3681   48.4749 C   0  0  0  0  0  0  0  0  0  0  0  0
   35.8788   30.6598   48.4389 N   0  0  0  0  0  0  0  0  0  0  0  0
   35.0923   30.4412   49.5003 C   0  0  0  0  0  0  0  0  0  0  0  0
   35.6039   29.9284   50.6387 N   0  0  0  0  0  0  0  0  0  0  0  0
   38.2619   33.8115   49.2513 C   0  0  0  0  0  0  0  0  0  0  0  0
   39.3563   33.6162   49.8562 O   0  0  0  0  0  0  0  0  0  0  0  0
   38.1493   32.9169   48.1433 N   0  0  0  0  0  0  0  0  0  0  0  0
   38.9149   29.7467   47.3386 H   0  0  0  0  0  0  0  0  0  0  0  0
   37.0225   31.7283   45.9352 H   0  0  0  0  0  0  0  0  0  0  0  0
   36.7116   29.9631   45.8174 H   0  0  0  0  0  0  0  0  0  0  0  0
   38.7294   29.4683   44.8074 H   0  0  0  0  0  0  0  0  0  0  0  0
   38.1304   30.9520   44.0130 H   0  0  0  0  0  0  0  0  0  0  0  0
   40.2026   31.7440   44.4235 H   0  0  0  0  0  0  0  0  0  0  0  0
   40.5610   30.4917   45.6452 H   0  0  0  0  0  0  0  0  0  0  0  0
   40.7140   32.5730   46.7348 H   0  0  0  0  0  0  0  0  0  0  0  0
   39.2503   33.1982   45.9519 H   0  0  0  0  0  0  0  0  0  0  0  0
   39.6591   31.5642   48.4353 H   0  0  0  0  0  0  0  0  0  0  0  0
   37.3023   29.2195   51.6444 H   0  0  0  0  0  0  0  0  0  0  0  0
   38.8576   29.5973   49.6980 H   0  0  0  0  0  0  0  0  0  0  0  0
   34.0608   30.7139   49.3307 H   0  0  0  0  0  0  0  0  0  0  0  0
   37.3079   33.0124   47.4905 H   0  0  0  0  0  0  0  0  0  0  0  0
   35.9219   39.9819   47.8324 C   0  0  0  0  0  0  0  0  0  0  0  0
   36.5213   40.0446   46.8808 H   0  0  0  0  0  0  0  0  0  0  0  0
   36.3083   38.7031   48.4792 C   0  0  0  0  0  0  0  0  0  0  0  0
   36.1273   37.6312   47.7673 C   0  0  0  0  0  0  0  0  0  0  0  0
   35.5809   37.6557   46.4178 C   0  0  0  0  0  0  0  0  0  0  0  0
   35.3880   36.6495   45.6947 O   0  0  0  0  0  0  0  0  0  0  0  0
   35.1465   38.6727   45.5876 O   0  0  0  0  0  0  0  0  0  0  0  0
   36.4689   36.3594   48.2967 N   0  0  0  0  0  0  0  0  0  0  0  0
   36.1893   34.9666   48.4211 C   0  0  0  0  0  0  0  0  0  0  0  0
   35.4134   34.1386   47.8555 O   0  0  0  0  0  0  0  0  0  0  0  0
   37.1722   34.7624   49.5137 C   0  0  2  0  0  0  0  0  0  0  0  0
   37.6204   36.1353   49.1527 C   0  0  2  0  0  0  0  0  0  0  0  0
   37.4281   37.2733   50.5524 S   0  0  0  0  0  0  0  0  0  0  0  0
   36.8464   38.8191   49.8527 C   0  0  2  0  0  0  0  0  0  0  0  0
   36.1617   39.3795   50.5262 H   0  0  0  0  0  0  0  0  0  0  0  0
   36.0534   40.8630   48.4617 H   0  0  0  0  0  0  0  0  0  0  0  0
   34.8374   39.9083   47.5424 H   0  0  0  0  0  0  0  0  0  0  0  0
   34.1490   38.7649   45.3401 H   0  0  0  0  0  0  0  0  0  0  0  0
   36.6501   34.6463   50.4819 H   0  0  0  0  0  0  0  0  0  0  0  0
   38.5938   36.2306   48.6364 H   0  0  0  0  0  0  0  0  0  0  0  0
   37.7526   39.4856   49.7508 H   0  0  0  0  0  0  0  0  0  0  0  0
  1  6  1  0
  1  9  1  0
  2  1  1  0
  3  4  1  0
  3  2  1  0
  4  5  1  0
  5  6  1  0
  6 15  1  0
  8  7  2  0
  9  8  1  0
 10  9  2  0
 10 11  1  0
 11 12  2  0
 12  7  1  0
 13 14  2  0
 15 13  1  0
  1 16  1  6
  2 17  1  0
  2 18  1  0
  3 19  1  0
  3 20  1  0
  4 21  1  0
  4 22  1  0
  5 23  1  0
  5 24  1  0
  6 25  1  1
  7 26  1  0
  8 27  1  0
 11 28  1  0
 15 29  1  0
 30 31  1  0
 30 32  1  0
 32 33  2  0
 33 34  1  0
 34 35  2  0
 34 36  1  0
 33 37  1  0
 37 38  1  0
 38 39  2  0
 38 40  1  0
 40 41  1  0
 41 42  1  0
 42 43  1  0
 43 44  1  1
 43 32  1  0
 41 37  1  0
 30 45  1  0
 30 46  1  0
 36 47  1  0
 40 48  1  1
 41 49  1  6
 43 50  1  0
 13 40  1  0
M  ISO  8  16  13  17  13  18  13  19  13  20  13  21  13  22  13  23  13
M  ISO  7  24  13  25  13  26  14  27  14  28  14  31   8  44  15
M  END
>  <DihAtoms>  (1) 
13,12,39,37

>  <DihDeg>  (1) 
120.00317442694397

$$$$
