
     RDKit          3D

 46 49  0  0  0  0  0  0  0  0999 V2000
   34.7622   29.4291   48.7963 C   0  0  0  0  0  0  0  0  0  0  0  0
   34.2054   30.0694   47.6732 C   0  0  0  0  0  0  0  0  0  0  0  0
   33.4735   29.2631   46.7960 C   0  0  0  0  0  0  0  0  0  0  0  0
   33.3291   27.9144   47.0561 N   0  0  0  0  0  0  0  0  0  0  0  0
   33.8919   27.3434   48.1640 C   0  0  0  0  0  0  0  0  0  0  0  0
   34.5960   28.1048   49.0124 N   0  0  0  0  0  0  0  0  0  0  0  0
   35.5311   30.3004   49.7342 C   0  0  2  0  0  0  0  0  0  0  0  0
   36.4896   31.1649   48.9412 C   0  0  0  0  0  0  0  0  0  0  0  0
   37.9231   30.7798   49.1592 C   0  0  0  0  0  0  0  0  0  0  0  0
   38.3215   30.7608   50.6172 C   0  0  0  0  0  0  0  0  0  0  0  0
   37.2660   30.1761   51.5058 C   0  0  0  0  0  0  0  0  0  0  0  0
   36.1956   29.4227   50.7356 C   0  0  1  0  0  0  0  0  0  0  0  0
   34.3030   31.1080   47.4516 H   0  0  0  0  0  0  0  0  0  0  0  0
   32.9970   29.6242   45.9022 H   0  0  0  0  0  0  0  0  0  0  0  0
   33.7743   26.2963   48.3573 H   0  0  0  0  0  0  0  0  0  0  0  0
   34.7674   30.9240   50.2470 H   0  0  0  0  0  0  0  0  0  0  0  0
   36.3745   32.2040   49.3174 H   0  0  0  0  0  0  0  0  0  0  0  0
   36.3034   31.1089   47.8556 H   0  0  0  0  0  0  0  0  0  0  0  0
   38.5411   31.5244   48.6504 H   0  0  0  0  0  0  0  0  0  0  0  0
   38.1298   29.8059   48.6763 H   0  0  0  0  0  0  0  0  0  0  0  0
   39.2045   30.0742   50.6724 H   0  0  0  0  0  0  0  0  0  0  0  0
   38.6980   31.7428   50.9533 H   0  0  0  0  0  0  0  0  0  0  0  0
   36.7236   31.0489   51.9730 H   0  0  0  0  0  0  0  0  0  0  0  0
   37.6657   29.5362   52.3163 H   0  0  0  0  0  0  0  0  0  0  0  0
   36.6172   28.5492   50.2104 H   0  0  0  0  0  0  0  0  0  0  0  0
   35.1735   29.0221   51.7836 C   0  0  0  0  0  0  0  0  0  0  0  0
   35.7640   28.4614   52.9820 C   0  0  0  0  0  0  0  0  0  0  0  0
   35.6818   28.8882   54.2281 C   0  0  0  0  0  0  0  0  0  0  0  0
   34.9108   30.0911   54.5548 C   0  0  0  0  0  0  0  0  0  0  0  0
   34.2288   30.9452   53.9704 O   0  0  0  0  0  0  0  0  0  0  0  0
   34.7239   30.6598   55.7835 O   0  0  0  0  0  0  0  0  0  0  0  0
   36.3410   28.1725   55.2619 N   0  0  0  0  0  0  0  0  0  0  0  0
   37.2463   28.2398   56.3865 C   0  0  0  0  0  0  0  0  0  0  0  0
   37.5534   29.1575   57.2196 O   0  0  0  0  0  0  0  0  0  0  0  0
   37.5885   26.8241   56.0841 C   0  0  2  0  0  0  0  0  0  0  0  0
   37.6786   26.1778   56.9729 H   0  0  0  0  0  0  0  0  0  0  0  0
   36.1964   26.7261   55.4970 C   0  0  2  0  0  0  0  0  0  0  0  0
   36.0918   25.9544   53.8618 S   0  0  0  0  0  0  0  0  0  0  0  0
   36.5547   27.2686   52.6809 C   0  0  1  0  0  0  0  0  0  0  0  0
   36.5834   26.9166   51.6612 H   0  0  0  0  0  0  0  0  0  0  0  0
   34.4257   28.3072   51.3833 H   0  0  0  0  0  0  0  0  0  0  0  0
   34.6099   29.9352   52.0163 H   0  0  0  0  0  0  0  0  0  0  0  0
   33.8674   30.7423   56.2946 H   0  0  0  0  0  0  0  0  0  0  0  0
   38.3461   26.7093   55.3055 H   0  0  0  0  0  0  0  0  0  0  0  0
   35.3978   26.4490   56.2061 H   0  0  0  0  0  0  0  0  0  0  0  0
   37.6233   27.5267   52.9452 H   0  0  0  0  0  0  0  0  0  0  0  0
  1  6  1  0
  1  7  1  0
  2  1  2  0
  3  4  2  0
  3  2  1  0
  4  5  1  0
  5  6  2  0
  7 12  1  0
  8  9  1  0
  8  7  1  0
  9 10  1  0
 10 11  1  0
 12 11  1  0
  2 13  1  0
  3 14  1  0
  5 15  1  0
  7 16  1  1
  8 17  1  0
  8 18  1  0
  9 19  1  0
  9 20  1  0
 10 21  1  0
 10 22  1  0
 11 23  1  0
 11 24  1  0
 12 25  1  6
 26 27  1  0
 27 28  2  0
 28 29  1  0
 29 30  2  0
 29 31  1  0
 28 32  1  0
 32 33  1  0
 33 34  2  0
 33 35  1  0
 35 36  1  1
 35 37  1  0
 37 38  1  0
 38 39  1  0
 39 40  1  6
 39 27  1  0
 37 32  1  0
 26 41  1  0
 26 42  1  0
 31 43  1  0
 35 44  1  0
 37 45  1  1
 39 46  1  0
 12 26  1  0
M  ISO  8  13  14  14  14  15  14  16  13  17  13  18  13  19  13  20  13
M  ISO  7  21  13  22  13  23  13  24  13  25  13  36  15  40  15
M  END
>  <DihAtoms>  (1) 
6,11,25,26

>  <DihDeg>  (1) 
-179.99993290408497

$$$$
