
     RDKit          3D

 47 51  0  0  1  0  0  0  0  0999 V2000
   34.4940   29.2920   48.9260 C   0  0  0  0  0  0  0  0  0  0  0  0
   33.9300   29.6110   47.7110 C   0  0  0  0  0  0  0  0  0  0  0  0
   32.7450   28.9480   47.5650 N   0  0  0  0  0  0  0  0  0  0  0  0
   32.5930   28.2160   48.7110 C   0  0  0  0  0  0  0  0  0  0  0  0
   33.6560   28.4330   49.5240 N   0  0  0  0  0  0  0  0  0  0  0  0
   37.5270   31.1370   48.2740 C   0  0  0  0  0  0  0  0  0  0  0  0
   38.0850   31.1200   49.5450 C   0  0  0  0  0  0  0  0  0  0  0  0
   37.5400   30.5330   50.6620 C   0  0  0  0  0  0  0  0  0  0  0  0
   36.3430   29.9160   50.4830 N   0  0  0  0  0  0  0  0  0  0  0  0
   35.7640   29.9130   49.2430 C   0  0  0  0  0  0  0  0  0  0  0  0
   36.3560   30.5120   48.1830 N   0  0  0  0  0  0  0  0  0  0  0  0
   38.2260   32.2200   44.8900 C   0  0  0  0  0  0  0  0  0  0  0  0
   39.4070   32.9930   44.9970 C   0  0  0  0  0  0  0  0  0  0  0  0
   39.9410   33.1200   46.2750 C   0  0  0  0  0  0  0  0  0  0  0  0
   39.3250   32.5190   47.3130 N   0  0  0  0  0  0  0  0  0  0  0  0
   38.2130   31.7990   47.1680 C   0  0  0  0  0  0  0  0  0  0  0  0
   37.6150   31.6180   45.9530 N   0  0  0  0  0  0  0  0  0  0  0  0
   39.9810   33.5820   43.8550 N   0  0  0  0  0  0  0  0  0  0  0  0
   31.4010   27.3520   48.9240 C   0  0  0  0  0  0  0  0  0  0  0  0
   31.0680   26.5810   47.7160 C   0  0  0  0  0  0  0  0  0  0  0  0
   30.1450   26.9120   46.8430 C   0  0  0  0  0  0  0  0  0  0  0  0
   29.9440   26.0690   45.7290 N   0  0  0  0  0  0  0  0  0  0  0  0
   28.9890   25.4870   44.8210 C   0  0  0  0  0  0  0  0  0  0  0  0
   27.7570   25.6070   44.5080 O   0  0  0  0  0  0  0  0  0  0  0  0
   30.0000   24.5510   44.2560 C   0  0  0  0  0  0  0  0  0  0  0  0
   31.0080   25.3630   45.0000 C   0  0  2  0  0  0  0  0  0  0  0  0
   31.8230   24.3470   46.2820 S   0  0  0  0  0  0  0  0  0  0  0  0
   31.9640   25.4220   47.7170 C   0  0  0  0  0  0  0  0  0  0  0  0
   29.2940   28.1170   46.9360 C   0  0  0  0  0  0  0  0  0  0  0  0
   29.5310   29.3450   46.8430 O   0  0  0  0  0  0  0  0  0  0  0  0
   27.9610   28.0780   47.1640 O   0  0  0  0  0  0  0  0  0  0  0  0
   34.3677   30.2962   46.9701 H   0  0  0  0  0  0  0  0  0  0  0  0
   32.1016   28.9901   46.7618 H   0  0  0  0  0  0  0  0  0  0  0  0
   39.0548   31.6238   49.6700 H   0  0  0  0  0  0  0  0  0  0  0  0
   38.0420   30.5611   51.6404 H   0  0  0  0  0  0  0  0  0  0  0  0
   37.7747   32.0972   43.8944 H   0  0  0  0  0  0  0  0  0  0  0  0
   40.8579   33.7056   46.4375 H   0  0  0  0  0  0  0  0  0  0  0  0
   40.8405   34.1430   43.9417 H   0  0  0  0  0  0  0  0  0  0  0  0
   39.5416   33.4521   42.9325 H   0  0  0  0  0  0  0  0  0  0  0  0
   31.6093   26.6530   49.7474 H   0  0  0  0  0  0  0  0  0  0  0  0
   30.5453   27.9997   49.1654 H   0  0  0  0  0  0  0  0  0  0  0  0
   29.9054   23.5072   44.5901 H   0  0  0  0  0  0  0  0  0  0  0  0
   30.0819   24.3470   43.1782 H   0  0  0  0  0  0  0  0  0  0  0  0
   31.7935   25.8738   44.4238 H   0  0  0  0  0  0  0  0  0  0  0  0
   32.9990   25.7915   47.7655 H   0  0  0  0  0  0  0  0  0  0  0  0
   31.6751   24.8124   48.5859 H   0  0  0  0  0  0  0  0  0  0  0  0
   27.4429   28.9200   47.2160 H   0  0  0  0  0  0  0  0  0  0  0  0
  1 10  1  0
  1  5  1  0
  2  1  2  0
  3  2  1  0
  3  4  1  0
  4 19  1  0
  4  5  2  0
  6  7  2  0
  7  8  1  0
  9  8  2  0
 10  9  1  0
 11  6  1  0
 11 10  2  0
 12 13  2  0
 12 17  1  0
 13 14  1  0
 14 15  2  0
 16 15  1  0
 16  6  1  0
 17 16  2  0
 18 13  1  0
 20 28  1  0
 20 19  1  0
 21 29  1  0
 21 20  2  0
 22 21  1  0
 23 22  1  0
 24 23  2  0
 25 23  1  0
 26 25  1  0
 26 22  1  0
 26 27  1  0
 27 28  1  0
 29 31  1  0
 30 29  2  0
  2 32  1  0
  3 33  1  0
  7 34  1  0
  8 35  1  0
 12 36  1  0
 14 37  1  0
 18 38  1  0
 18 39  1  0
 19 40  1  0
 19 41  1  0
 25 42  1  0
 25 43  1  0
 26 44  1  6
 28 45  1  0
 28 46  1  0
 31 47  1  0
M  ISO  8  32  14  33   9  34  14  35  14  36  14  37  14  40   8  41   8
M  ISO  6  42  13  43  13  44  13  45  13  46  13  47   3
M  END
>  <minimizedAffinity>  (1) 
-6.27737379

>  <minimizedRMSD>  (1) 
3.0119884

$$$$
