
     RDKit          3D

 35 37  0  0  0  0  0  0  0  0999 V2000
   37.7647   30.5227   49.3507 C   0  0  0  0  0  0  0  0  0  0  0  0
   38.2448   31.7254   49.8406 C   0  0  0  0  0  0  0  0  0  0  0  0
   38.6346   32.6943   48.9172 C   0  0  0  0  0  0  0  0  0  0  0  0
   38.5284   32.4213   47.5691 N   0  0  0  0  0  0  0  0  0  0  0  0
   38.0542   31.2337   47.1580 C   0  0  0  0  0  0  0  0  0  0  0  0
   37.6838   30.3130   48.0220 N   0  0  0  0  0  0  0  0  0  0  0  0
   37.2872   29.3355   50.5915 S   0  0  0  0  0  0  0  0  0  0  0  0
   35.4871   29.3462   50.7236 C   0  0  0  0  0  0  0  0  0  0  0  0
   34.6992   28.3919   49.3992 S   0  0  0  0  0  0  0  0  0  0  0  0
   38.3453   31.9830   50.8882 H   0  0  0  0  0  0  0  0  0  0  0  0
   39.0209   33.6617   49.2255 H   0  0  0  0  0  0  0  0  0  0  0  0
   37.9462   30.9580   46.1182 H   0  0  0  0  0  0  0  0  0  0  0  0
   35.1251   28.8775   51.6753 H   0  0  0  0  0  0  0  0  0  0  0  0
   35.1552   30.4057   50.6494 H   0  0  0  0  0  0  0  0  0  0  0  0
   35.1623   26.6345   49.6550 C   0  0  0  0  0  0  0  0  0  0  0  0
   34.4128   26.0561   50.7737 C   0  0  0  0  0  0  0  0  0  0  0  0
   34.9927   25.5628   51.8395 C   0  0  0  0  0  0  0  0  0  0  0  0
   36.4398   25.5432   52.0111 C   0  0  0  0  0  0  0  0  0  0  0  0
   37.0955   25.1030   52.9756 O   0  0  0  0  0  0  0  0  0  0  0  0
   37.6580   25.8696   51.4509 O   0  0  0  0  0  0  0  0  0  0  0  0
   34.2698   25.0023   52.9274 N   0  0  0  0  0  0  0  0  0  0  0  0
   34.1710   24.6560   54.2818 C   0  0  0  0  0  0  0  0  0  0  0  0
   34.9971   24.3246   55.1771 O   0  0  0  0  0  0  0  0  0  0  0  0
   32.7254   24.8349   54.2348 C   0  0  1  0  0  0  0  0  0  0  0  0
   32.0906   24.1111   54.7794 H   0  0  0  0  0  0  0  0  0  0  0  0
   32.9543   24.4596   52.7649 C   0  0  1  0  0  0  0  0  0  0  0  0
   31.8927   25.4820   51.7513 S   0  0  0  0  0  0  0  0  0  0  0  0
   32.9901   26.1200   50.5130 C   0  0  1  0  0  0  0  0  0  0  0  0
   32.6762   27.1875   50.3040 H   0  0  0  0  0  0  0  0  0  0  0  0
   34.8675   26.1219   48.7127 H   0  0  0  0  0  0  0  0  0  0  0  0
   36.2562   26.6416   49.7713 H   0  0  0  0  0  0  0  0  0  0  0  0
   38.1115   25.2899   50.7267 H   0  0  0  0  0  0  0  0  0  0  0  0
   32.4442   25.9009   54.3530 H   0  0  0  0  0  0  0  0  0  0  0  0
   32.8767   23.3667   52.6117 H   0  0  0  0  0  0  0  0  0  0  0  0
   32.7914   25.5918   49.5305 H   0  0  0  0  0  0  0  0  0  0  0  0
  1  2  2  0
  1  7  1  0
  3  2  1  0
  4  3  2  0
  5  4  1  0
  5  6  2  0
  6  1  1  0
  7  8  1  0
  9  8  1  0
  2 10  1  0
  3 11  1  0
  5 12  1  0
  8 13  1  0
  8 14  1  0
 15 16  1  0
 16 17  2  0
 17 18  1  0
 18 19  2  0
 18 20  1  0
 17 21  1  0
 21 22  1  0
 22 23  2  0
 22 24  1  0
 24 25  1  1
 24 26  1  0
 26 27  1  0
 27 28  1  0
 28 29  1  6
 28 16  1  0
 26 21  1  0
 15 30  1  0
 15 31  1  0
 20 32  1  0
 24 33  1  0
 26 34  1  1
 28 35  1  0
  9 15  1  0
M  ISO  7  10  14  11  14  12  14  13   8  14   8  25  15  29  15
M  END
>  <DihAtoms>  (1) 
7,8,14,15

>  <DihDeg>  (1) 
179.9832371352997

$$$$
