
     RDKit          3D

 35 37  0  0  0  0  0  0  0  0999 V2000
   37.7647   30.5227   49.3507 C   0  0  0  0  0  0  0  0  0  0  0  0
   38.2448   31.7254   49.8406 C   0  0  0  0  0  0  0  0  0  0  0  0
   38.6346   32.6943   48.9172 C   0  0  0  0  0  0  0  0  0  0  0  0
   38.5284   32.4213   47.5691 N   0  0  0  0  0  0  0  0  0  0  0  0
   38.0542   31.2337   47.1580 C   0  0  0  0  0  0  0  0  0  0  0  0
   37.6838   30.3130   48.0220 N   0  0  0  0  0  0  0  0  0  0  0  0
   37.2872   29.3355   50.5915 S   0  0  0  0  0  0  0  0  0  0  0  0
   35.4871   29.3462   50.7236 C   0  0  0  0  0  0  0  0  0  0  0  0
   34.6992   28.3919   49.3992 S   0  0  0  0  0  0  0  0  0  0  0  0
   38.3453   31.9830   50.8882 H   0  0  0  0  0  0  0  0  0  0  0  0
   39.0209   33.6617   49.2255 H   0  0  0  0  0  0  0  0  0  0  0  0
   37.9462   30.9580   46.1182 H   0  0  0  0  0  0  0  0  0  0  0  0
   35.1251   28.8775   51.6753 H   0  0  0  0  0  0  0  0  0  0  0  0
   35.1552   30.4057   50.6494 H   0  0  0  0  0  0  0  0  0  0  0  0
   35.1623   26.6345   49.6550 C   0  0  0  0  0  0  0  0  0  0  0  0
   34.3031   25.7493   48.8639 C   0  0  0  0  0  0  0  0  0  0  0  0
   33.5449   24.8264   49.4016 C   0  0  0  0  0  0  0  0  0  0  0  0
   33.4862   24.5943   50.8393 C   0  0  0  0  0  0  0  0  0  0  0  0
   32.8060   23.7516   51.4566 O   0  0  0  0  0  0  0  0  0  0  0  0
   33.9561   24.9851   52.0765 O   0  0  0  0  0  0  0  0  0  0  0  0
   32.7090   23.9667   48.6385 N   0  0  0  0  0  0  0  0  0  0  0  0
   31.5853   23.1368   48.5256 C   0  0  0  0  0  0  0  0  0  0  0  0
   30.9384   22.4031   49.3237 O   0  0  0  0  0  0  0  0  0  0  0  0
   31.4685   23.4668   47.1109 C   0  0  1  0  0  0  0  0  0  0  0  0
   31.2014   22.6579   46.4052 H   0  0  0  0  0  0  0  0  0  0  0  0
   32.9818   23.6663   47.2650 C   0  0  1  0  0  0  0  0  0  0  0  0
   33.4596   25.1033   46.3130 S   0  0  0  0  0  0  0  0  0  0  0  0
   34.4286   26.0539   47.4542 C   0  0  1  0  0  0  0  0  0  0  0  0
   34.1946   27.1454   47.2654 H   0  0  0  0  0  0  0  0  0  0  0  0
   36.2080   26.5582   49.2831 H   0  0  0  0  0  0  0  0  0  0  0  0
   35.1219   26.4843   50.7441 H   0  0  0  0  0  0  0  0  0  0  0  0
   34.8739   24.6867   52.4437 H   0  0  0  0  0  0  0  0  0  0  0  0
   30.9354   24.4273   46.9607 H   0  0  0  0  0  0  0  0  0  0  0  0
   33.5346   22.7313   47.0550 H   0  0  0  0  0  0  0  0  0  0  0  0
   35.5234   25.9688   47.1750 H   0  0  0  0  0  0  0  0  0  0  0  0
  1  2  2  0
  1  7  1  0
  3  2  1  0
  4  3  2  0
  5  4  1  0
  5  6  2  0
  6  1  1  0
  7  8  1  0
  9  8  1  0
  2 10  1  0
  3 11  1  0
  5 12  1  0
  8 13  1  0
  8 14  1  0
 15 16  1  0
 16 17  2  0
 17 18  1  0
 18 19  2  0
 18 20  1  0
 17 21  1  0
 21 22  1  0
 22 23  2  0
 22 24  1  0
 24 25  1  6
 24 26  1  0
 26 27  1  0
 27 28  1  0
 28 29  1  1
 28 16  1  0
 26 21  1  0
 15 30  1  0
 15 31  1  0
 20 32  1  0
 24 33  1  0
 26 34  1  1
 28 35  1  0
  9 15  1  0
M  ISO  7  10  14  11  14  12  14  13   8  14   8  25  15  29  15
M  END
>  <DihAtoms>  (1) 
7,8,14,15

>  <DihDeg>  (1) 
179.9832371352997

$$$$
