
     RDKit          3D

 35 37  0  0  0  0  0  0  0  0999 V2000
   37.7647   30.5227   49.3507 C   0  0  0  0  0  0  0  0  0  0  0  0
   38.2448   31.7254   49.8406 C   0  0  0  0  0  0  0  0  0  0  0  0
   38.6346   32.6943   48.9172 C   0  0  0  0  0  0  0  0  0  0  0  0
   38.5284   32.4213   47.5691 N   0  0  0  0  0  0  0  0  0  0  0  0
   38.0542   31.2337   47.1580 C   0  0  0  0  0  0  0  0  0  0  0  0
   37.6838   30.3130   48.0220 N   0  0  0  0  0  0  0  0  0  0  0  0
   37.2872   29.3355   50.5915 S   0  0  0  0  0  0  0  0  0  0  0  0
   35.4871   29.3462   50.7236 C   0  0  0  0  0  0  0  0  0  0  0  0
   34.6992   28.3919   49.3992 S   0  0  0  0  0  0  0  0  0  0  0  0
   38.3453   31.9830   50.8882 H   0  0  0  0  0  0  0  0  0  0  0  0
   39.0209   33.6617   49.2255 H   0  0  0  0  0  0  0  0  0  0  0  0
   37.9462   30.9580   46.1182 H   0  0  0  0  0  0  0  0  0  0  0  0
   35.1251   28.8775   51.6753 H   0  0  0  0  0  0  0  0  0  0  0  0
   35.1552   30.4057   50.6494 H   0  0  0  0  0  0  0  0  0  0  0  0
   35.1623   26.6345   49.6550 C   0  0  0  0  0  0  0  0  0  0  0  0
   36.1746   26.2159   48.6814 C   0  0  0  0  0  0  0  0  0  0  0  0
   35.9819   25.2398   47.8295 C   0  0  0  0  0  0  0  0  0  0  0  0
   34.7405   24.4783   47.7716 C   0  0  0  0  0  0  0  0  0  0  0  0
   34.4489   23.5370   47.0082 O   0  0  0  0  0  0  0  0  0  0  0  0
   33.4804   24.3113   48.3086 O   0  0  0  0  0  0  0  0  0  0  0  0
   36.9601   24.8314   46.8827 N   0  0  0  0  0  0  0  0  0  0  0  0
   37.3089   24.2289   45.6663 C   0  0  0  0  0  0  0  0  0  0  0  0
   36.8111   23.3143   44.9524 O   0  0  0  0  0  0  0  0  0  0  0  0
   38.4807   25.0891   45.5621 C   0  0  1  0  0  0  0  0  0  0  0  0
   39.4227   24.6470   45.1871 H   0  0  0  0  0  0  0  0  0  0  0  0
   38.3589   25.0579   47.0911 C   0  0  1  0  0  0  0  0  0  0  0  0
   38.7199   26.6940   47.7178 S   0  0  0  0  0  0  0  0  0  0  0  0
   37.3668   27.0262   48.8149 C   0  0  1  0  0  0  0  0  0  0  0  0
   37.1102   28.1237   48.7087 H   0  0  0  0  0  0  0  0  0  0  0  0
   35.6010   26.6011   50.6768 H   0  0  0  0  0  0  0  0  0  0  0  0
   34.2124   26.0807   49.6182 H   0  0  0  0  0  0  0  0  0  0  0  0
   33.3138   23.8022   49.1913 H   0  0  0  0  0  0  0  0  0  0  0  0
   38.2192   26.0823   45.1442 H   0  0  0  0  0  0  0  0  0  0  0  0
   38.9440   24.2251   47.5246 H   0  0  0  0  0  0  0  0  0  0  0  0
   37.7264   26.9440   49.8862 H   0  0  0  0  0  0  0  0  0  0  0  0
  1  2  2  0
  1  7  1  0
  3  2  1  0
  4  3  2  0
  5  4  1  0
  5  6  2  0
  6  1  1  0
  7  8  1  0
  9  8  1  0
  2 10  1  0
  3 11  1  0
  5 12  1  0
  8 13  1  0
  8 14  1  0
 15 16  1  0
 16 17  2  0
 17 18  1  0
 18 19  2  0
 18 20  1  0
 17 21  1  0
 21 22  1  0
 22 23  2  0
 22 24  1  0
 24 25  1  1
 24 26  1  0
 26 27  1  0
 27 28  1  0
 28 29  1  6
 28 16  1  0
 26 21  1  0
 15 30  1  0
 15 31  1  0
 20 32  1  0
 24 33  1  0
 26 34  1  1
 28 35  1  0
  9 15  1  0
M  ISO  7  10  14  11  14  12  14  13   8  14   8  25  15  29  15
M  END
>  <DihAtoms>  (1) 
7,8,14,15

>  <DihDeg>  (1) 
179.9832371352997

$$$$
