
     RDKit          3D

 35 37  0  0  0  0  0  0  0  0999 V2000
   37.7647   30.5227   49.3507 C   0  0  0  0  0  0  0  0  0  0  0  0
   38.2448   31.7254   49.8406 C   0  0  0  0  0  0  0  0  0  0  0  0
   38.6346   32.6943   48.9172 C   0  0  0  0  0  0  0  0  0  0  0  0
   38.5284   32.4213   47.5691 N   0  0  0  0  0  0  0  0  0  0  0  0
   38.0542   31.2337   47.1580 C   0  0  0  0  0  0  0  0  0  0  0  0
   37.6838   30.3130   48.0220 N   0  0  0  0  0  0  0  0  0  0  0  0
   37.2872   29.3355   50.5915 S   0  0  0  0  0  0  0  0  0  0  0  0
   35.4871   29.3462   50.7236 C   0  0  0  0  0  0  0  0  0  0  0  0
   34.6992   28.3919   49.3992 S   0  0  0  0  0  0  0  0  0  0  0  0
   38.3453   31.9830   50.8882 H   0  0  0  0  0  0  0  0  0  0  0  0
   39.0209   33.6617   49.2255 H   0  0  0  0  0  0  0  0  0  0  0  0
   37.9462   30.9580   46.1182 H   0  0  0  0  0  0  0  0  0  0  0  0
   35.1251   28.8775   51.6753 H   0  0  0  0  0  0  0  0  0  0  0  0
   35.1552   30.4057   50.6494 H   0  0  0  0  0  0  0  0  0  0  0  0
   35.1623   26.6345   49.6550 C   0  0  0  0  0  0  0  0  0  0  0  0
   34.1088   25.7418   49.1641 C   0  0  0  0  0  0  0  0  0  0  0  0
   33.4831   24.8878   49.9353 C   0  0  0  0  0  0  0  0  0  0  0  0
   33.7778   24.7463   51.3556 C   0  0  0  0  0  0  0  0  0  0  0  0
   33.2496   23.9736   52.1789 O   0  0  0  0  0  0  0  0  0  0  0  0
   34.5517   25.1904   52.4082 O   0  0  0  0  0  0  0  0  0  0  0  0
   32.4598   24.0212   49.4639 N   0  0  0  0  0  0  0  0  0  0  0  0
   31.3208   23.2366   49.6899 C   0  0  0  0  0  0  0  0  0  0  0  0
   30.8729   22.5821   50.6721 O   0  0  0  0  0  0  0  0  0  0  0  0
   30.8646   23.4848   48.3282 C   0  0  1  0  0  0  0  0  0  0  0  0
   30.4078   22.6472   47.7685 H   0  0  0  0  0  0  0  0  0  0  0  0
   32.3736   23.6261   48.0899 C   0  0  1  0  0  0  0  0  0  0  0  0
   32.6391   24.9800   46.9515 S   0  0  0  0  0  0  0  0  0  0  0  0
   33.8878   25.9543   47.7492 C   0  0  1  0  0  0  0  0  0  0  0  0
   33.6447   27.0416   47.5482 H   0  0  0  0  0  0  0  0  0  0  0  0
   36.0799   26.4895   49.0430 H   0  0  0  0  0  0  0  0  0  0  0  0
   35.3903   26.5527   50.7281 H   0  0  0  0  0  0  0  0  0  0  0  0
   35.5233   24.8744   52.5578 H   0  0  0  0  0  0  0  0  0  0  0  0
   30.3379   24.4572   48.2474 H   0  0  0  0  0  0  0  0  0  0  0  0
   32.8303   22.6565   47.8160 H   0  0  0  0  0  0  0  0  0  0  0  0
   34.8758   25.8040   47.2153 H   0  0  0  0  0  0  0  0  0  0  0  0
  1  2  2  0
  1  7  1  0
  3  2  1  0
  4  3  2  0
  5  4  1  0
  5  6  2  0
  6  1  1  0
  7  8  1  0
  9  8  1  0
  2 10  1  0
  3 11  1  0
  5 12  1  0
  8 13  1  0
  8 14  1  0
 15 16  1  0
 16 17  2  0
 17 18  1  0
 18 19  2  0
 18 20  1  0
 17 21  1  0
 21 22  1  0
 22 23  2  0
 22 24  1  0
 24 25  1  6
 24 26  1  0
 26 27  1  0
 27 28  1  0
 28 29  1  1
 28 16  1  0
 26 21  1  0
 15 30  1  0
 15 31  1  0
 20 32  1  0
 24 33  1  0
 26 34  1  6
 28 35  1  0
  9 15  1  0
M  ISO  7  10  14  11  14  12  14  13   8  14   8  25  15  29  15
M  END
>  <DihAtoms>  (1) 
7,8,14,15

>  <DihDeg>  (1) 
179.9832371352997

$$$$
