
     RDKit          3D

 35 37  0  0  0  0  0  0  0  0999 V2000
   37.7647   30.5227   49.3507 C   0  0  0  0  0  0  0  0  0  0  0  0
   38.2448   31.7254   49.8406 C   0  0  0  0  0  0  0  0  0  0  0  0
   38.6346   32.6943   48.9172 C   0  0  0  0  0  0  0  0  0  0  0  0
   38.5284   32.4213   47.5691 N   0  0  0  0  0  0  0  0  0  0  0  0
   38.0542   31.2337   47.1580 C   0  0  0  0  0  0  0  0  0  0  0  0
   37.6838   30.3130   48.0220 N   0  0  0  0  0  0  0  0  0  0  0  0
   37.2872   29.3355   50.5915 S   0  0  0  0  0  0  0  0  0  0  0  0
   35.4871   29.3462   50.7236 C   0  0  0  0  0  0  0  0  0  0  0  0
   34.6992   28.3919   49.3992 S   0  0  0  0  0  0  0  0  0  0  0  0
   38.3453   31.9830   50.8882 H   0  0  0  0  0  0  0  0  0  0  0  0
   39.0209   33.6617   49.2255 H   0  0  0  0  0  0  0  0  0  0  0  0
   37.9462   30.9580   46.1182 H   0  0  0  0  0  0  0  0  0  0  0  0
   35.1251   28.8775   51.6753 H   0  0  0  0  0  0  0  0  0  0  0  0
   35.1552   30.4057   50.6494 H   0  0  0  0  0  0  0  0  0  0  0  0
   35.1623   26.6345   49.6550 C   0  0  0  0  0  0  0  0  0  0  0  0
   34.1864   25.9588   50.5145 C   0  0  0  0  0  0  0  0  0  0  0  0
   34.5068   25.4085   51.6591 C   0  0  0  0  0  0  0  0  0  0  0  0
   35.8663   25.4173   52.1842 C   0  0  0  0  0  0  0  0  0  0  0  0
   36.2827   24.9292   53.2530 O   0  0  0  0  0  0  0  0  0  0  0  0
   37.1693   25.8158   51.9659 O   0  0  0  0  0  0  0  0  0  0  0  0
   33.5635   24.7535   52.4966 N   0  0  0  0  0  0  0  0  0  0  0  0
   33.1491   24.3108   53.7601 C   0  0  0  0  0  0  0  0  0  0  0  0
   33.7428   23.9408   54.8111 O   0  0  0  0  0  0  0  0  0  0  0  0
   31.7533   24.4522   53.3655 C   0  0  1  0  0  0  0  0  0  0  0  0
   31.0365   23.6748   53.6899 H   0  0  0  0  0  0  0  0  0  0  0  0
   32.3541   24.1870   51.9790 C   0  0  1  0  0  0  0  0  0  0  0  0
   31.5311   25.2478   50.7970 S   0  0  0  0  0  0  0  0  0  0  0  0
   32.8706   26.0011   49.9121 C   0  0  1  0  0  0  0  0  0  0  0  0
   32.5710   27.0714   49.6968 H   0  0  0  0  0  0  0  0  0  0  0  0
   35.1320   26.1810   48.6396 H   0  0  0  0  0  0  0  0  0  0  0  0
   36.1923   26.6639   50.0403 H   0  0  0  0  0  0  0  0  0  0  0  0
   37.8127   25.3010   51.3436 H   0  0  0  0  0  0  0  0  0  0  0  0
   31.4047   25.4991   53.4745 H   0  0  0  0  0  0  0  0  0  0  0  0
   32.3652   23.1058   51.7452 H   0  0  0  0  0  0  0  0  0  0  0  0
   32.9439   25.5374   48.8809 H   0  0  0  0  0  0  0  0  0  0  0  0
  1  2  2  0
  1  7  1  0
  3  2  1  0
  4  3  2  0
  5  4  1  0
  5  6  2  0
  6  1  1  0
  7  8  1  0
  9  8  1  0
  2 10  1  0
  3 11  1  0
  5 12  1  0
  8 13  1  0
  8 14  1  0
 15 16  1  0
 16 17  2  0
 17 18  1  0
 18 19  2  0
 18 20  1  0
 17 21  1  0
 21 22  1  0
 22 23  2  0
 22 24  1  0
 24 25  1  1
 24 26  1  0
 26 27  1  0
 27 28  1  0
 28 29  1  6
 28 16  1  0
 26 21  1  0
 15 30  1  0
 15 31  1  0
 20 32  1  0
 24 33  1  0
 26 34  1  6
 28 35  1  0
  9 15  1  0
M  ISO  7  10  14  11  14  12  14  13   8  14   8  25  15  29  15
M  END
>  <DihAtoms>  (1) 
7,8,14,15

>  <DihDeg>  (1) 
179.9832371352997

$$$$
