
     RDKit          3D

 35 37  0  0  0  0  0  0  0  0999 V2000
   37.7647   30.5227   49.3507 C   0  0  0  0  0  0  0  0  0  0  0  0
   38.2448   31.7254   49.8406 C   0  0  0  0  0  0  0  0  0  0  0  0
   38.6346   32.6943   48.9172 C   0  0  0  0  0  0  0  0  0  0  0  0
   38.5284   32.4213   47.5691 N   0  0  0  0  0  0  0  0  0  0  0  0
   38.0542   31.2337   47.1580 C   0  0  0  0  0  0  0  0  0  0  0  0
   37.6838   30.3130   48.0220 N   0  0  0  0  0  0  0  0  0  0  0  0
   37.2872   29.3355   50.5915 S   0  0  0  0  0  0  0  0  0  0  0  0
   35.4871   29.3462   50.7236 C   0  0  0  0  0  0  0  0  0  0  0  0
   34.6992   28.3919   49.3992 S   0  0  0  0  0  0  0  0  0  0  0  0
   38.3453   31.9830   50.8882 H   0  0  0  0  0  0  0  0  0  0  0  0
   39.0209   33.6617   49.2255 H   0  0  0  0  0  0  0  0  0  0  0  0
   37.9462   30.9580   46.1182 H   0  0  0  0  0  0  0  0  0  0  0  0
   35.1251   28.8775   51.6753 H   0  0  0  0  0  0  0  0  0  0  0  0
   35.1552   30.4057   50.6494 H   0  0  0  0  0  0  0  0  0  0  0  0
   35.1623   26.6345   49.6550 C   0  0  0  0  0  0  0  0  0  0  0  0
   35.5612   26.0118   48.3898 C   0  0  0  0  0  0  0  0  0  0  0  0
   34.9444   24.9740   47.8817 C   0  0  0  0  0  0  0  0  0  0  0  0
   33.8024   24.3414   48.5296 C   0  0  0  0  0  0  0  0  0  0  0  0
   33.1431   23.3577   48.1403 O   0  0  0  0  0  0  0  0  0  0  0  0
   32.9537   24.3631   49.6174 O   0  0  0  0  0  0  0  0  0  0  0  0
   35.3269   24.3678   46.6544 N   0  0  0  0  0  0  0  0  0  0  0  0
   35.0214   23.6047   45.5192 C   0  0  0  0  0  0  0  0  0  0  0  0
   34.2067   22.6738   45.2668 O   0  0  0  0  0  0  0  0  0  0  0  0
   36.0279   24.3245   44.7493 C   0  0  1  0  0  0  0  0  0  0  0  0
   36.6539   23.7506   44.0407 H   0  0  0  0  0  0  0  0  0  0  0  0
   36.6595   24.4716   46.1397 C   0  0  1  0  0  0  0  0  0  0  0  0
   37.3392   26.1204   46.2772 S   0  0  0  0  0  0  0  0  0  0  0  0
   36.6987   26.7059   47.8237 C   0  0  1  0  0  0  0  0  0  0  0  0
   36.4639   27.8059   47.6951 H   0  0  0  0  0  0  0  0  0  0  0  0
   36.0387   26.6673   50.3394 H   0  0  0  0  0  0  0  0  0  0  0  0
   34.2931   26.1799   50.1531 H   0  0  0  0  0  0  0  0  0  0  0  0
   33.2158   23.9722   50.5365 H   0  0  0  0  0  0  0  0  0  0  0  0
   35.6342   25.2880   44.3671 H   0  0  0  0  0  0  0  0  0  0  0  0
   37.3496   23.6353   46.3588 H   0  0  0  0  0  0  0  0  0  0  0  0
   37.5281   26.7039   48.5957 H   0  0  0  0  0  0  0  0  0  0  0  0
  1  2  2  0
  1  7  1  0
  3  2  1  0
  4  3  2  0
  5  4  1  0
  5  6  2  0
  6  1  1  0
  7  8  1  0
  9  8  1  0
  2 10  1  0
  3 11  1  0
  5 12  1  0
  8 13  1  0
  8 14  1  0
 15 16  1  0
 16 17  2  0
 17 18  1  0
 18 19  2  0
 18 20  1  0
 17 21  1  0
 21 22  1  0
 22 23  2  0
 22 24  1  0
 24 25  1  6
 24 26  1  0
 26 27  1  0
 27 28  1  0
 28 29  1  6
 28 16  1  0
 26 21  1  0
 15 30  1  0
 15 31  1  0
 20 32  1  0
 24 33  1  0
 26 34  1  1
 28 35  1  0
  9 15  1  0
M  ISO  7  10  14  11  14  12  14  13   8  14   8  25  15  29  15
M  END
>  <DihAtoms>  (1) 
7,8,14,15

>  <DihDeg>  (1) 
179.9832371352997

$$$$
