
     RDKit          3D

 35 37  0  0  0  0  0  0  0  0999 V2000
   37.7647   30.5227   49.3507 C   0  0  0  0  0  0  0  0  0  0  0  0
   38.2448   31.7254   49.8406 C   0  0  0  0  0  0  0  0  0  0  0  0
   38.6346   32.6943   48.9172 C   0  0  0  0  0  0  0  0  0  0  0  0
   38.5284   32.4213   47.5691 N   0  0  0  0  0  0  0  0  0  0  0  0
   38.0542   31.2337   47.1580 C   0  0  0  0  0  0  0  0  0  0  0  0
   37.6838   30.3130   48.0220 N   0  0  0  0  0  0  0  0  0  0  0  0
   37.2872   29.3355   50.5915 S   0  0  0  0  0  0  0  0  0  0  0  0
   35.4871   29.3462   50.7236 C   0  0  0  0  0  0  0  0  0  0  0  0
   34.6992   28.3919   49.3992 S   0  0  0  0  0  0  0  0  0  0  0  0
   38.3453   31.9830   50.8882 H   0  0  0  0  0  0  0  0  0  0  0  0
   39.0209   33.6617   49.2255 H   0  0  0  0  0  0  0  0  0  0  0  0
   37.9462   30.9580   46.1182 H   0  0  0  0  0  0  0  0  0  0  0  0
   35.1251   28.8775   51.6753 H   0  0  0  0  0  0  0  0  0  0  0  0
   35.1552   30.4057   50.6494 H   0  0  0  0  0  0  0  0  0  0  0  0
   35.1623   26.6345   49.6550 C   0  0  0  0  0  0  0  0  0  0  0  0
   36.0225   26.4889   50.8325 C   0  0  0  0  0  0  0  0  0  0  0  0
   37.2354   25.9983   50.7715 C   0  0  0  0  0  0  0  0  0  0  0  0
   37.8424   25.5508   49.5243 C   0  0  0  0  0  0  0  0  0  0  0  0
   38.9798   25.0717   49.3493 O   0  0  0  0  0  0  0  0  0  0  0  0
   37.6679   25.3938   48.1645 O   0  0  0  0  0  0  0  0  0  0  0  0
   38.0737   25.8567   51.9106 N   0  0  0  0  0  0  0  0  0  0  0  0
   39.3469   25.7589   52.4881 C   0  0  0  0  0  0  0  0  0  0  0  0
   40.4659   25.3183   52.1037 O   0  0  0  0  0  0  0  0  0  0  0  0
   38.8519   26.3734   53.7133 C   0  0  1  0  0  0  0  0  0  0  0  0
   39.2078   25.9723   54.6807 H   0  0  0  0  0  0  0  0  0  0  0  0
   37.5408   25.7365   53.2346 C   0  0  1  0  0  0  0  0  0  0  0  0
   36.2066   26.8822   53.5615 S   0  0  0  0  0  0  0  0  0  0  0  0
   35.3364   26.9574   52.0182 C   0  0  1  0  0  0  0  0  0  0  0  0
   34.9942   28.0274   51.8774 H   0  0  0  0  0  0  0  0  0  0  0  0
   34.1988   26.1095   49.8381 H   0  0  0  0  0  0  0  0  0  0  0  0
   35.6074   26.3148   48.7011 H   0  0  0  0  0  0  0  0  0  0  0  0
   37.1437   24.6028   47.7576 H   0  0  0  0  0  0  0  0  0  0  0  0
   38.8309   27.4791   53.6331 H   0  0  0  0  0  0  0  0  0  0  0  0
   37.4200   24.7132   53.6370 H   0  0  0  0  0  0  0  0  0  0  0  0
   34.3648   26.3818   52.1094 H   0  0  0  0  0  0  0  0  0  0  0  0
  1  2  2  0
  1  7  1  0
  3  2  1  0
  4  3  2  0
  5  4  1  0
  5  6  2  0
  6  1  1  0
  7  8  1  0
  9  8  1  0
  2 10  1  0
  3 11  1  0
  5 12  1  0
  8 13  1  0
  8 14  1  0
 15 16  1  0
 16 17  2  0
 17 18  1  0
 18 19  2  0
 18 20  1  0
 17 21  1  0
 21 22  1  0
 22 23  2  0
 22 24  1  0
 24 25  1  1
 24 26  1  0
 26 27  1  0
 27 28  1  0
 28 29  1  6
 28 16  1  0
 26 21  1  0
 15 30  1  0
 15 31  1  0
 20 32  1  0
 24 33  1  0
 26 34  1  1
 28 35  1  0
  9 15  1  0
M  ISO  7  10  14  11  14  12  14  13   8  14   8  25  15  29  15
M  END
>  <DihAtoms>  (1) 
7,8,14,15

>  <DihDeg>  (1) 
179.9832371352997

$$$$
