
     RDKit          3D

 35 37  0  0  0  0  0  0  0  0999 V2000
   37.7647   30.5227   49.3507 C   0  0  0  0  0  0  0  0  0  0  0  0
   38.2448   31.7254   49.8406 C   0  0  0  0  0  0  0  0  0  0  0  0
   38.6346   32.6943   48.9172 C   0  0  0  0  0  0  0  0  0  0  0  0
   38.5284   32.4213   47.5691 N   0  0  0  0  0  0  0  0  0  0  0  0
   38.0542   31.2337   47.1580 C   0  0  0  0  0  0  0  0  0  0  0  0
   37.6838   30.3130   48.0220 N   0  0  0  0  0  0  0  0  0  0  0  0
   37.2872   29.3355   50.5915 S   0  0  0  0  0  0  0  0  0  0  0  0
   35.4871   29.3462   50.7236 C   0  0  0  0  0  0  0  0  0  0  0  0
   34.6992   28.3919   49.3992 S   0  0  0  0  0  0  0  0  0  0  0  0
   38.3453   31.9830   50.8882 H   0  0  0  0  0  0  0  0  0  0  0  0
   39.0209   33.6617   49.2255 H   0  0  0  0  0  0  0  0  0  0  0  0
   37.9462   30.9580   46.1182 H   0  0  0  0  0  0  0  0  0  0  0  0
   35.1251   28.8775   51.6753 H   0  0  0  0  0  0  0  0  0  0  0  0
   35.1552   30.4057   50.6494 H   0  0  0  0  0  0  0  0  0  0  0  0
   35.1623   26.6345   49.6550 C   0  0  0  0  0  0  0  0  0  0  0  0
   35.7111   26.4310   50.9986 C   0  0  0  0  0  0  0  0  0  0  0  0
   36.9221   25.9798   51.2119 C   0  0  0  0  0  0  0  0  0  0  0  0
   37.8371   25.6376   50.1303 C   0  0  0  0  0  0  0  0  0  0  0  0
   39.0026   25.2038   50.2153 O   0  0  0  0  0  0  0  0  0  0  0  0
   38.0105   25.5712   48.7629 O   0  0  0  0  0  0  0  0  0  0  0  0
   37.4590   25.7824   52.5130 N   0  0  0  0  0  0  0  0  0  0  0  0
   38.5535   25.6799   53.3823 C   0  0  0  0  0  0  0  0  0  0  0  0
   39.7510   25.2987   53.2626 O   0  0  0  0  0  0  0  0  0  0  0  0
   37.7448   26.1934   54.4807 C   0  0  1  0  0  0  0  0  0  0  0  0
   37.8685   25.7357   55.4800 H   0  0  0  0  0  0  0  0  0  0  0  0
   36.6219   25.5552   53.6528 C   0  0  1  0  0  0  0  0  0  0  0  0
   35.1988   26.6377   53.7061 S   0  0  0  0  0  0  0  0  0  0  0  0
   34.7337   26.7962   52.0022 C   0  0  1  0  0  0  0  0  0  0  0  0
   34.3897   27.8635   51.8459 H   0  0  0  0  0  0  0  0  0  0  0  0
   34.2076   26.0714   49.5602 H   0  0  0  0  0  0  0  0  0  0  0  0
   35.8426   26.3948   48.8244 H   0  0  0  0  0  0  0  0  0  0  0  0
   37.6385   24.7962   48.1910 H   0  0  0  0  0  0  0  0  0  0  0  0
   37.6952   27.3009   54.4651 H   0  0  0  0  0  0  0  0  0  0  0  0
   36.4510   24.5033   53.9494 H   0  0  0  0  0  0  0  0  0  0  0  0
   33.7961   26.1888   51.8134 H   0  0  0  0  0  0  0  0  0  0  0  0
  1  2  2  0
  1  7  1  0
  3  2  1  0
  4  3  2  0
  5  4  1  0
  5  6  2  0
  6  1  1  0
  7  8  1  0
  9  8  1  0
  2 10  1  0
  3 11  1  0
  5 12  1  0
  8 13  1  0
  8 14  1  0
 15 16  1  0
 16 17  2  0
 17 18  1  0
 18 19  2  0
 18 20  1  0
 17 21  1  0
 21 22  1  0
 22 23  2  0
 22 24  1  0
 24 25  1  1
 24 26  1  0
 26 27  1  0
 27 28  1  0
 28 29  1  6
 28 16  1  0
 26 21  1  0
 15 30  1  0
 15 31  1  0
 20 32  1  0
 24 33  1  0
 26 34  1  1
 28 35  1  0
  9 15  1  0
M  ISO  7  10  14  11  14  12  14  13   8  14   8  25  15  29  15
M  END
>  <DihAtoms>  (1) 
7,8,14,15

>  <DihDeg>  (1) 
179.9832371352997

$$$$
