
     RDKit          3D

 35 37  0  0  0  0  0  0  0  0999 V2000
   37.7647   30.5227   49.3507 C   0  0  0  0  0  0  0  0  0  0  0  0
   38.2448   31.7254   49.8406 C   0  0  0  0  0  0  0  0  0  0  0  0
   38.6346   32.6943   48.9172 C   0  0  0  0  0  0  0  0  0  0  0  0
   38.5284   32.4213   47.5691 N   0  0  0  0  0  0  0  0  0  0  0  0
   38.0542   31.2337   47.1580 C   0  0  0  0  0  0  0  0  0  0  0  0
   37.6838   30.3130   48.0220 N   0  0  0  0  0  0  0  0  0  0  0  0
   37.2872   29.3355   50.5915 S   0  0  0  0  0  0  0  0  0  0  0  0
   35.4871   29.3462   50.7236 C   0  0  0  0  0  0  0  0  0  0  0  0
   34.6992   28.3919   49.3992 S   0  0  0  0  0  0  0  0  0  0  0  0
   38.3453   31.9830   50.8882 H   0  0  0  0  0  0  0  0  0  0  0  0
   39.0209   33.6617   49.2255 H   0  0  0  0  0  0  0  0  0  0  0  0
   37.9462   30.9580   46.1182 H   0  0  0  0  0  0  0  0  0  0  0  0
   35.1251   28.8775   51.6753 H   0  0  0  0  0  0  0  0  0  0  0  0
   35.1552   30.4057   50.6494 H   0  0  0  0  0  0  0  0  0  0  0  0
   35.1623   26.6345   49.6550 C   0  0  0  0  0  0  0  0  0  0  0  0
   36.2842   26.5227   50.5912 C   0  0  0  0  0  0  0  0  0  0  0  0
   37.4296   25.9761   50.2674 C   0  0  0  0  0  0  0  0  0  0  0  0
   37.6941   25.4272   48.9434 C   0  0  0  0  0  0  0  0  0  0  0  0
   38.7384   24.8884   48.5272 O   0  0  0  0  0  0  0  0  0  0  0  0
   37.1822   25.1958   47.6830 O   0  0  0  0  0  0  0  0  0  0  0  0
   38.5209   25.8670   51.1715 N   0  0  0  0  0  0  0  0  0  0  0  0
   39.8946   25.7481   51.4225 C   0  0  0  0  0  0  0  0  0  0  0  0
   40.8698   25.2359   50.8058 O   0  0  0  0  0  0  0  0  0  0  0  0
   39.7375   26.4573   52.6860 C   0  0  1  0  0  0  0  0  0  0  0  0
   40.3118   26.1002   53.5613 H   0  0  0  0  0  0  0  0  0  0  0  0
   38.3314   25.8512   52.5911 C   0  0  1  0  0  0  0  0  0  0  0  0
   37.1530   27.0726   53.1561 S   0  0  0  0  0  0  0  0  0  0  0  0
   35.9284   27.0924   51.8737 C   0  0  1  0  0  0  0  0  0  0  0  0
   35.5918   28.1659   51.7473 H   0  0  0  0  0  0  0  0  0  0  0  0
   34.2605   26.1648   50.1063 H   0  0  0  0  0  0  0  0  0  0  0  0
   35.3467   26.2380   48.6455 H   0  0  0  0  0  0  0  0  0  0  0  0
   36.5514   24.4054   47.4742 H   0  0  0  0  0  0  0  0  0  0  0  0
   39.7280   27.5559   52.5364 H   0  0  0  0  0  0  0  0  0  0  0  0
   38.2861   24.8605   53.0813 H   0  0  0  0  0  0  0  0  0  0  0  0
   34.9944   26.5669   52.2418 H   0  0  0  0  0  0  0  0  0  0  0  0
  1  2  2  0
  1  7  1  0
  3  2  1  0
  4  3  2  0
  5  4  1  0
  5  6  2  0
  6  1  1  0
  7  8  1  0
  9  8  1  0
  2 10  1  0
  3 11  1  0
  5 12  1  0
  8 13  1  0
  8 14  1  0
 15 16  1  0
 16 17  2  0
 17 18  1  0
 18 19  2  0
 18 20  1  0
 17 21  1  0
 21 22  1  0
 22 23  2  0
 22 24  1  0
 24 25  1  1
 24 26  1  0
 26 27  1  0
 27 28  1  0
 28 29  1  6
 28 16  1  0
 26 21  1  0
 15 30  1  0
 15 31  1  0
 20 32  1  0
 24 33  1  0
 26 34  1  1
 28 35  1  0
  9 15  1  0
M  ISO  7  10  14  11  14  12  14  13   8  14   8  25  15  29  15
M  END
>  <DihAtoms>  (1) 
7,8,14,15

>  <DihDeg>  (1) 
179.9832371352997

$$$$
