
     RDKit          3D

 35 37  0  0  0  0  0  0  0  0999 V2000
   37.7647   30.5227   49.3507 C   0  0  0  0  0  0  0  0  0  0  0  0
   38.2448   31.7254   49.8406 C   0  0  0  0  0  0  0  0  0  0  0  0
   38.6346   32.6943   48.9172 C   0  0  0  0  0  0  0  0  0  0  0  0
   38.5284   32.4213   47.5691 N   0  0  0  0  0  0  0  0  0  0  0  0
   38.0542   31.2337   47.1580 C   0  0  0  0  0  0  0  0  0  0  0  0
   37.6838   30.3130   48.0220 N   0  0  0  0  0  0  0  0  0  0  0  0
   37.2872   29.3355   50.5915 S   0  0  0  0  0  0  0  0  0  0  0  0
   35.4871   29.3462   50.7236 C   0  0  0  0  0  0  0  0  0  0  0  0
   34.6992   28.3919   49.3992 S   0  0  0  0  0  0  0  0  0  0  0  0
   38.3453   31.9830   50.8882 H   0  0  0  0  0  0  0  0  0  0  0  0
   39.0209   33.6617   49.2255 H   0  0  0  0  0  0  0  0  0  0  0  0
   37.9462   30.9580   46.1182 H   0  0  0  0  0  0  0  0  0  0  0  0
   35.1251   28.8775   51.6753 H   0  0  0  0  0  0  0  0  0  0  0  0
   35.1552   30.4057   50.6494 H   0  0  0  0  0  0  0  0  0  0  0  0
   35.1623   26.6345   49.6550 C   0  0  0  0  0  0  0  0  0  0  0  0
   35.3712   26.3530   51.0780 C   0  0  0  0  0  0  0  0  0  0  0  0
   36.5110   25.9219   51.5583 C   0  0  0  0  0  0  0  0  0  0  0  0
   37.6787   25.6817   50.7199 C   0  0  0  0  0  0  0  0  0  0  0  0
   38.8053   25.2756   51.0660 O   0  0  0  0  0  0  0  0  0  0  0  0
   38.1868   25.7159   49.4374 O   0  0  0  0  0  0  0  0  0  0  0  0
   36.7186   25.6491   52.9377 N   0  0  0  0  0  0  0  0  0  0  0  0
   37.5683   25.5167   54.0443 C   0  0  0  0  0  0  0  0  0  0  0  0
   38.7741   25.1782   54.2037 O   0  0  0  0  0  0  0  0  0  0  0  0
   36.4918   25.9294   54.9358 C   0  0  1  0  0  0  0  0  0  0  0  0
   36.3854   25.4067   55.9047 H   0  0  0  0  0  0  0  0  0  0  0  0
   35.6371   25.3197   53.8171 C   0  0  1  0  0  0  0  0  0  0  0  0
   34.1983   26.3557   53.5800 S   0  0  0  0  0  0  0  0  0  0  0  0
   34.1613   26.6199   51.8269 C   0  0  1  0  0  0  0  0  0  0  0  0
   33.8195   27.6855   51.6550 H   0  0  0  0  0  0  0  0  0  0  0  0
   34.2864   26.0530   49.2914 H   0  0  0  0  0  0  0  0  0  0  0  0
   36.0364   26.4724   49.0070 H   0  0  0  0  0  0  0  0  0  0  0  0
   38.0020   24.9726   48.7448 H   0  0  0  0  0  0  0  0  0  0  0  0
   36.3986   27.0336   54.9757 H   0  0  0  0  0  0  0  0  0  0  0  0
   35.4451   24.2452   53.9974 H   0  0  0  0  0  0  0  0  0  0  0  0
   33.3271   26.0013   51.3740 H   0  0  0  0  0  0  0  0  0  0  0  0
  1  2  2  0
  1  7  1  0
  3  2  1  0
  4  3  2  0
  5  4  1  0
  5  6  2  0
  6  1  1  0
  7  8  1  0
  9  8  1  0
  2 10  1  0
  3 11  1  0
  5 12  1  0
  8 13  1  0
  8 14  1  0
 15 16  1  0
 16 17  2  0
 17 18  1  0
 18 19  2  0
 18 20  1  0
 17 21  1  0
 21 22  1  0
 22 23  2  0
 22 24  1  0
 24 25  1  1
 24 26  1  0
 26 27  1  0
 27 28  1  0
 28 29  1  1
 28 16  1  0
 26 21  1  0
 15 30  1  0
 15 31  1  0
 20 32  1  0
 24 33  1  0
 26 34  1  1
 28 35  1  0
  9 15  1  0
M  ISO  7  10  14  11  14  12  14  13   8  14   8  25  15  29  15
M  END
>  <DihAtoms>  (1) 
7,8,14,15

>  <DihDeg>  (1) 
179.9832371352997

$$$$
