
     RDKit          3D

 35 37  0  0  0  0  0  0  0  0999 V2000
   37.7647   30.5227   49.3507 C   0  0  0  0  0  0  0  0  0  0  0  0
   38.2448   31.7254   49.8406 C   0  0  0  0  0  0  0  0  0  0  0  0
   38.6346   32.6943   48.9172 C   0  0  0  0  0  0  0  0  0  0  0  0
   38.5284   32.4213   47.5691 N   0  0  0  0  0  0  0  0  0  0  0  0
   38.0542   31.2337   47.1580 C   0  0  0  0  0  0  0  0  0  0  0  0
   37.6838   30.3130   48.0220 N   0  0  0  0  0  0  0  0  0  0  0  0
   37.2872   29.3355   50.5915 S   0  0  0  0  0  0  0  0  0  0  0  0
   35.4871   29.3462   50.7236 C   0  0  0  0  0  0  0  0  0  0  0  0
   34.6992   28.3919   49.3992 S   0  0  0  0  0  0  0  0  0  0  0  0
   38.3453   31.9830   50.8882 H   0  0  0  0  0  0  0  0  0  0  0  0
   39.0209   33.6617   49.2255 H   0  0  0  0  0  0  0  0  0  0  0  0
   37.9462   30.9580   46.1182 H   0  0  0  0  0  0  0  0  0  0  0  0
   35.1251   28.8775   51.6753 H   0  0  0  0  0  0  0  0  0  0  0  0
   35.1552   30.4057   50.6494 H   0  0  0  0  0  0  0  0  0  0  0  0
   35.1623   26.6345   49.6550 C   0  0  0  0  0  0  0  0  0  0  0  0
   36.4785   26.5302   50.2910 C   0  0  0  0  0  0  0  0  0  0  0  0
   37.4915   25.9147   49.7337 C   0  0  0  0  0  0  0  0  0  0  0  0
   37.4026   25.2752   48.4271 C   0  0  0  0  0  0  0  0  0  0  0  0
   38.2948   24.6664   47.8049 O   0  0  0  0  0  0  0  0  0  0  0  0
   36.5866   24.9905   47.3512 O   0  0  0  0  0  0  0  0  0  0  0  0
   38.7700   25.8125   50.3461 N   0  0  0  0  0  0  0  0  0  0  0  0
   40.1591   25.6483   50.2583 C   0  0  0  0  0  0  0  0  0  0  0  0
   40.9353   25.0569   49.4574 O   0  0  0  0  0  0  0  0  0  0  0  0
   40.3415   26.4392   51.4687 C   0  0  1  0  0  0  0  0  0  0  0  0
   41.1055   26.1110   52.1981 H   0  0  0  0  0  0  0  0  0  0  0  0
   38.9396   25.8914   51.7661 C   0  0  1  0  0  0  0  0  0  0  0  0
   37.9736   27.1959   52.5176 S   0  0  0  0  0  0  0  0  0  0  0  0
   36.4692   27.1919   51.5787 C   0  0  1  0  0  0  0  0  0  0  0  0
   36.1418   28.2697   51.4645 H   0  0  0  0  0  0  0  0  0  0  0  0
   34.3886   26.2335   50.3465 H   0  0  0  0  0  0  0  0  0  0  0  0
   35.0784   26.1697   48.6615 H   0  0  0  0  0  0  0  0  0  0  0  0
   35.9020   24.2177   47.3602 H   0  0  0  0  0  0  0  0  0  0  0  0
   40.3255   27.5260   51.2497 H   0  0  0  0  0  0  0  0  0  0  0  0
   38.9903   24.9353   52.3203 H   0  0  0  0  0  0  0  0  0  0  0  0
   35.6421   26.7317   52.2015 H   0  0  0  0  0  0  0  0  0  0  0  0
  1  2  2  0
  1  7  1  0
  3  2  1  0
  4  3  2  0
  5  4  1  0
  5  6  2  0
  6  1  1  0
  7  8  1  0
  9  8  1  0
  2 10  1  0
  3 11  1  0
  5 12  1  0
  8 13  1  0
  8 14  1  0
 15 16  1  0
 16 17  2  0
 17 18  1  0
 18 19  2  0
 18 20  1  0
 17 21  1  0
 21 22  1  0
 22 23  2  0
 22 24  1  0
 24 25  1  1
 24 26  1  0
 26 27  1  0
 27 28  1  0
 28 29  1  6
 28 16  1  0
 26 21  1  0
 15 30  1  0
 15 31  1  0
 20 32  1  0
 24 33  1  0
 26 34  1  1
 28 35  1  0
  9 15  1  0
M  ISO  7  10  14  11  14  12  14  13   8  14   8  25  15  29  15
M  END
>  <DihAtoms>  (1) 
7,8,14,15

>  <DihDeg>  (1) 
179.9832371352997

$$$$
