
     RDKit          3D

 35 37  0  0  0  0  0  0  0  0999 V2000
   37.7647   30.5227   49.3507 C   0  0  0  0  0  0  0  0  0  0  0  0
   38.2448   31.7254   49.8406 C   0  0  0  0  0  0  0  0  0  0  0  0
   38.6346   32.6943   48.9172 C   0  0  0  0  0  0  0  0  0  0  0  0
   38.5284   32.4213   47.5691 N   0  0  0  0  0  0  0  0  0  0  0  0
   38.0542   31.2337   47.1580 C   0  0  0  0  0  0  0  0  0  0  0  0
   37.6838   30.3130   48.0220 N   0  0  0  0  0  0  0  0  0  0  0  0
   37.2872   29.3355   50.5915 S   0  0  0  0  0  0  0  0  0  0  0  0
   35.4871   29.3462   50.7236 C   0  0  0  0  0  0  0  0  0  0  0  0
   34.6992   28.3919   49.3992 S   0  0  0  0  0  0  0  0  0  0  0  0
   38.3453   31.9830   50.8882 H   0  0  0  0  0  0  0  0  0  0  0  0
   39.0209   33.6617   49.2255 H   0  0  0  0  0  0  0  0  0  0  0  0
   37.9462   30.9580   46.1182 H   0  0  0  0  0  0  0  0  0  0  0  0
   35.1251   28.8775   51.6753 H   0  0  0  0  0  0  0  0  0  0  0  0
   35.1552   30.4057   50.6494 H   0  0  0  0  0  0  0  0  0  0  0  0
   35.1623   26.6345   49.6550 C   0  0  0  0  0  0  0  0  0  0  0  0
   35.0261   26.2602   51.0654 C   0  0  0  0  0  0  0  0  0  0  0  0
   36.0301   25.8285   51.7873 C   0  0  0  0  0  0  0  0  0  0  0  0
   37.3780   25.6801   51.2531 C   0  0  0  0  0  0  0  0  0  0  0  0
   38.4013   25.2823   51.8435 O   0  0  0  0  0  0  0  0  0  0  0  0
   38.1846   25.8179   50.1420 O   0  0  0  0  0  0  0  0  0  0  0  0
   35.9030   25.4659   53.1557 N   0  0  0  0  0  0  0  0  0  0  0  0
   36.4585   25.2802   54.4289 C   0  0  0  0  0  0  0  0  0  0  0  0
   37.6015   24.9651   54.8626 O   0  0  0  0  0  0  0  0  0  0  0  0
   35.1782   25.5995   55.0476 C   0  0  1  0  0  0  0  0  0  0  0  0
   34.8593   25.0076   55.9259 H   0  0  0  0  0  0  0  0  0  0  0  0
   34.6537   25.0459   53.7164 C   0  0  1  0  0  0  0  0  0  0  0  0
   33.2734   26.0555   53.1919 S   0  0  0  0  0  0  0  0  0  0  0  0
   33.6582   26.4404   51.5041 C   0  0  1  0  0  0  0  0  0  0  0  0
   33.3225   27.5054   51.3177 H   0  0  0  0  0  0  0  0  0  0  0  0
   34.4298   26.0557   49.0501 H   0  0  0  0  0  0  0  0  0  0  0  0
   36.1755   26.5425   49.2364 H   0  0  0  0  0  0  0  0  0  0  0  0
   38.2095   25.1200   49.3814 H   0  0  0  0  0  0  0  0  0  0  0  0
   35.0292   26.6952   55.1300 H   0  0  0  0  0  0  0  0  0  0  0  0
   34.4710   23.9565   53.7775 H   0  0  0  0  0  0  0  0  0  0  0  0
   32.9897   25.8319   50.8211 H   0  0  0  0  0  0  0  0  0  0  0  0
  1  2  2  0
  1  7  1  0
  3  2  1  0
  4  3  2  0
  5  4  1  0
  5  6  2  0
  6  1  1  0
  7  8  1  0
  9  8  1  0
  2 10  1  0
  3 11  1  0
  5 12  1  0
  8 13  1  0
  8 14  1  0
 15 16  1  0
 16 17  2  0
 17 18  1  0
 18 19  2  0
 18 20  1  0
 17 21  1  0
 21 22  1  0
 22 23  2  0
 22 24  1  0
 24 25  1  1
 24 26  1  0
 26 27  1  0
 27 28  1  0
 28 29  1  1
 28 16  1  0
 26 21  1  0
 15 30  1  0
 15 31  1  0
 20 32  1  0
 24 33  1  0
 26 34  1  1
 28 35  1  0
  9 15  1  0
M  ISO  7  10  14  11  14  12  14  13   8  14   8  25  15  29  15
M  END
>  <DihAtoms>  (1) 
7,8,14,15

>  <DihDeg>  (1) 
179.9832371352997

$$$$
