
     RDKit          3D

 35 37  0  0  0  0  0  0  0  0999 V2000
   37.7647   30.5227   49.3507 C   0  0  0  0  0  0  0  0  0  0  0  0
   38.2448   31.7254   49.8406 C   0  0  0  0  0  0  0  0  0  0  0  0
   38.6346   32.6943   48.9172 C   0  0  0  0  0  0  0  0  0  0  0  0
   38.5284   32.4213   47.5691 N   0  0  0  0  0  0  0  0  0  0  0  0
   38.0542   31.2337   47.1580 C   0  0  0  0  0  0  0  0  0  0  0  0
   37.6838   30.3130   48.0220 N   0  0  0  0  0  0  0  0  0  0  0  0
   37.2872   29.3355   50.5915 S   0  0  0  0  0  0  0  0  0  0  0  0
   35.4871   29.3462   50.7236 C   0  0  0  0  0  0  0  0  0  0  0  0
   34.6992   28.3919   49.3992 S   0  0  0  0  0  0  0  0  0  0  0  0
   38.3453   31.9830   50.8882 H   0  0  0  0  0  0  0  0  0  0  0  0
   39.0209   33.6617   49.2255 H   0  0  0  0  0  0  0  0  0  0  0  0
   37.9462   30.9580   46.1182 H   0  0  0  0  0  0  0  0  0  0  0  0
   35.1251   28.8775   51.6753 H   0  0  0  0  0  0  0  0  0  0  0  0
   35.1552   30.4057   50.6494 H   0  0  0  0  0  0  0  0  0  0  0  0
   35.1623   26.6345   49.6550 C   0  0  0  0  0  0  0  0  0  0  0  0
   36.4009   26.3132   48.9406 C   0  0  0  0  0  0  0  0  0  0  0  0
   36.4678   25.3940   48.0099 C   0  0  0  0  0  0  0  0  0  0  0  0
   35.3140   24.6042   47.5985 C   0  0  0  0  0  0  0  0  0  0  0  0
   35.2617   23.7108   46.7308 O   0  0  0  0  0  0  0  0  0  0  0  0
   33.9691   24.3652   47.7936 O   0  0  0  0  0  0  0  0  0  0  0  0
   37.6663   25.0802   47.3135 N   0  0  0  0  0  0  0  0  0  0  0  0
   38.3307   24.5741   46.1880 C   0  0  0  0  0  0  0  0  0  0  0  0
   38.0654   23.6981   45.3184 O   0  0  0  0  0  0  0  0  0  0  0  0
   39.4527   25.4718   46.4314 C   0  0  1  0  0  0  0  0  0  0  0  0
   40.4767   25.0834   46.2766 H   0  0  0  0  0  0  0  0  0  0  0  0
   38.9591   25.3304   47.8771 C   0  0  1  0  0  0  0  0  0  0  0  0
   39.0815   26.9282   48.6721 S   0  0  0  0  0  0  0  0  0  0  0  0
   37.4863   27.1451   49.4157 C   0  0  1  0  0  0  0  0  0  0  0  0
   37.2154   28.2399   49.3159 H   0  0  0  0  0  0  0  0  0  0  0  0
   35.3364   26.5420   50.7498 H   0  0  0  0  0  0  0  0  0  0  0  0
   34.2763   26.0584   49.3493 H   0  0  0  0  0  0  0  0  0  0  0  0
   33.6126   23.7911   48.5744 H   0  0  0  0  0  0  0  0  0  0  0  0
   39.2587   26.4841   46.0226 H   0  0  0  0  0  0  0  0  0  0  0  0
   39.4555   24.4860   48.3912 H   0  0  0  0  0  0  0  0  0  0  0  0
   37.5739   26.9984   50.5358 H   0  0  0  0  0  0  0  0  0  0  0  0
  1  2  2  0
  1  7  1  0
  3  2  1  0
  4  3  2  0
  5  4  1  0
  5  6  2  0
  6  1  1  0
  7  8  1  0
  9  8  1  0
  2 10  1  0
  3 11  1  0
  5 12  1  0
  8 13  1  0
  8 14  1  0
 15 16  1  0
 16 17  2  0
 17 18  1  0
 18 19  2  0
 18 20  1  0
 17 21  1  0
 21 22  1  0
 22 23  2  0
 22 24  1  0
 24 25  1  1
 24 26  1  0
 26 27  1  0
 27 28  1  0
 28 29  1  1
 28 16  1  0
 26 21  1  0
 15 30  1  0
 15 31  1  0
 20 32  1  0
 24 33  1  0
 26 34  1  1
 28 35  1  0
  9 15  1  0
M  ISO  7  10  14  11  14  12  14  13   8  14   8  25  15  29  15
M  END
>  <DihAtoms>  (1) 
7,8,14,15

>  <DihDeg>  (1) 
179.9832371352997

$$$$
