
     RDKit          3D

 35 37  0  0  0  0  0  0  0  0999 V2000
   37.7647   30.5227   49.3507 C   0  0  0  0  0  0  0  0  0  0  0  0
   38.2448   31.7254   49.8406 C   0  0  0  0  0  0  0  0  0  0  0  0
   38.6346   32.6943   48.9172 C   0  0  0  0  0  0  0  0  0  0  0  0
   38.5284   32.4213   47.5691 N   0  0  0  0  0  0  0  0  0  0  0  0
   38.0542   31.2337   47.1580 C   0  0  0  0  0  0  0  0  0  0  0  0
   37.6838   30.3130   48.0220 N   0  0  0  0  0  0  0  0  0  0  0  0
   37.2872   29.3355   50.5915 S   0  0  0  0  0  0  0  0  0  0  0  0
   35.4871   29.3462   50.7236 C   0  0  0  0  0  0  0  0  0  0  0  0
   34.6992   28.3919   49.3992 S   0  0  0  0  0  0  0  0  0  0  0  0
   38.3453   31.9830   50.8882 H   0  0  0  0  0  0  0  0  0  0  0  0
   39.0209   33.6617   49.2255 H   0  0  0  0  0  0  0  0  0  0  0  0
   37.9462   30.9580   46.1182 H   0  0  0  0  0  0  0  0  0  0  0  0
   35.1251   28.8775   51.6753 H   0  0  0  0  0  0  0  0  0  0  0  0
   35.1552   30.4057   50.6494 H   0  0  0  0  0  0  0  0  0  0  0  0
   35.1623   26.6345   49.6550 C   0  0  0  0  0  0  0  0  0  0  0  0
   34.0355   25.8735   50.2017 C   0  0  0  0  0  0  0  0  0  0  0  0
   34.0877   25.2537   51.3544 C   0  0  0  0  0  0  0  0  0  0  0  0
   35.2740   25.2636   52.2011 C   0  0  0  0  0  0  0  0  0  0  0  0
   35.4351   24.7139   53.3082 O   0  0  0  0  0  0  0  0  0  0  0  0
   36.5716   25.7125   52.3388 O   0  0  0  0  0  0  0  0  0  0  0  0
   32.9970   24.5158   51.8892 N   0  0  0  0  0  0  0  0  0  0  0  0
   32.3039   23.9746   52.9804 C   0  0  0  0  0  0  0  0  0  0  0  0
   32.6358   23.5487   54.1216 O   0  0  0  0  0  0  0  0  0  0  0  0
   31.0436   24.1043   52.2600 C   0  0  1  0  0  0  0  0  0  0  0  0
   30.3041   23.2864   52.3478 H   0  0  0  0  0  0  0  0  0  0  0  0
   31.9790   23.9534   51.0533 C   0  0  1  0  0  0  0  0  0  0  0  0
   31.4267   25.0709   49.7703 S   0  0  0  0  0  0  0  0  0  0  0  0
   32.9084   25.9211   49.2944 C   0  0  1  0  0  0  0  0  0  0  0  0
   32.6240   26.9951   49.0767 H   0  0  0  0  0  0  0  0  0  0  0  0
   35.4035   26.2524   48.6385 H   0  0  0  0  0  0  0  0  0  0  0  0
   36.0631   26.6656   50.2857 H   0  0  0  0  0  0  0  0  0  0  0  0
   37.3707   25.2606   51.8662 H   0  0  0  0  0  0  0  0  0  0  0  0
   30.6329   25.1309   52.3422 H   0  0  0  0  0  0  0  0  0  0  0  0
   32.0952   22.8919   50.7644 H   0  0  0  0  0  0  0  0  0  0  0  0
   33.2542   25.5328   48.2877 H   0  0  0  0  0  0  0  0  0  0  0  0
  1  2  2  0
  1  7  1  0
  3  2  1  0
  4  3  2  0
  5  4  1  0
  5  6  2  0
  6  1  1  0
  7  8  1  0
  9  8  1  0
  2 10  1  0
  3 11  1  0
  5 12  1  0
  8 13  1  0
  8 14  1  0
 15 16  1  0
 16 17  2  0
 17 18  1  0
 18 19  2  0
 18 20  1  0
 17 21  1  0
 21 22  1  0
 22 23  2  0
 22 24  1  0
 24 25  1  1
 24 26  1  0
 26 27  1  0
 27 28  1  0
 28 29  1  6
 28 16  1  0
 26 21  1  0
 15 30  1  0
 15 31  1  0
 20 32  1  0
 24 33  1  0
 26 34  1  6
 28 35  1  0
  9 15  1  0
M  ISO  7  10  14  11  14  12  14  13   8  14   8  25  15  29  15
M  END
>  <DihAtoms>  (1) 
7,8,14,15

>  <DihDeg>  (1) 
179.9832371352997

$$$$
