
     RDKit          3D

 35 37  0  0  0  0  0  0  0  0999 V2000
   37.7647   30.5227   49.3507 C   0  0  0  0  0  0  0  0  0  0  0  0
   38.2448   31.7254   49.8406 C   0  0  0  0  0  0  0  0  0  0  0  0
   38.6346   32.6943   48.9172 C   0  0  0  0  0  0  0  0  0  0  0  0
   38.5284   32.4213   47.5691 N   0  0  0  0  0  0  0  0  0  0  0  0
   38.0542   31.2337   47.1580 C   0  0  0  0  0  0  0  0  0  0  0  0
   37.6838   30.3130   48.0220 N   0  0  0  0  0  0  0  0  0  0  0  0
   37.2872   29.3355   50.5915 S   0  0  0  0  0  0  0  0  0  0  0  0
   35.4871   29.3462   50.7236 C   0  0  0  0  0  0  0  0  0  0  0  0
   34.6992   28.3919   49.3992 S   0  0  0  0  0  0  0  0  0  0  0  0
   38.3453   31.9830   50.8882 H   0  0  0  0  0  0  0  0  0  0  0  0
   39.0209   33.6617   49.2255 H   0  0  0  0  0  0  0  0  0  0  0  0
   37.9462   30.9580   46.1182 H   0  0  0  0  0  0  0  0  0  0  0  0
   35.1251   28.8775   51.6753 H   0  0  0  0  0  0  0  0  0  0  0  0
   35.1552   30.4057   50.6494 H   0  0  0  0  0  0  0  0  0  0  0  0
   35.1623   26.6345   49.6550 C   0  0  0  0  0  0  0  0  0  0  0  0
   33.9703   25.8061   49.8566 C   0  0  0  0  0  0  0  0  0  0  0  0
   33.7641   25.1090   50.9461 C   0  0  0  0  0  0  0  0  0  0  0  0
   34.7032   25.0928   52.0605 C   0  0  0  0  0  0  0  0  0  0  0  0
   34.6105   24.4717   53.1374 O   0  0  0  0  0  0  0  0  0  0  0  0
   35.9056   25.5669   52.5440 O   0  0  0  0  0  0  0  0  0  0  0  0
   32.6089   24.3055   51.1466 N   0  0  0  0  0  0  0  0  0  0  0  0
   31.6927   23.6702   51.9959 C   0  0  0  0  0  0  0  0  0  0  0  0
   31.7515   23.1751   53.1557 O   0  0  0  0  0  0  0  0  0  0  0  0
   30.6447   23.8148   50.9936 C   0  0  1  0  0  0  0  0  0  0  0  0
   29.9433   22.9726   50.8446 H   0  0  0  0  0  0  0  0  0  0  0  0
   31.8544   23.7747   50.0509 C   0  0  1  0  0  0  0  0  0  0  0  0
   31.5868   24.9632   48.7412 S   0  0  0  0  0  0  0  0  0  0  0  0
   33.1008   25.8856   48.7018 C   0  0  1  0  0  0  0  0  0  0  0  0
   32.8316   26.9638   48.4858 H   0  0  0  0  0  0  0  0  0  0  0  0
   35.6635   26.3312   48.7093 H   0  0  0  0  0  0  0  0  0  0  0  0
   35.8774   26.6465   50.4909 H   0  0  0  0  0  0  0  0  0  0  0  0
   36.8158   25.1715   52.2588 H   0  0  0  0  0  0  0  0  0  0  0  0
   30.1813   24.8214   51.0331 H   0  0  0  0  0  0  0  0  0  0  0  0
   32.0853   22.7396   49.7361 H   0  0  0  0  0  0  0  0  0  0  0  0
   33.7011   25.5783   47.7912 H   0  0  0  0  0  0  0  0  0  0  0  0
  1  2  2  0
  1  7  1  0
  3  2  1  0
  4  3  2  0
  5  4  1  0
  5  6  2  0
  6  1  1  0
  7  8  1  0
  9  8  1  0
  2 10  1  0
  3 11  1  0
  5 12  1  0
  8 13  1  0
  8 14  1  0
 15 16  1  0
 16 17  2  0
 17 18  1  0
 18 19  2  0
 18 20  1  0
 17 21  1  0
 21 22  1  0
 22 23  2  0
 22 24  1  0
 24 25  1  6
 24 26  1  0
 26 27  1  0
 27 28  1  0
 28 29  1  6
 28 16  1  0
 26 21  1  0
 15 30  1  0
 15 31  1  0
 20 32  1  0
 24 33  1  0
 26 34  1  6
 28 35  1  0
  9 15  1  0
M  ISO  7  10  14  11  14  12  14  13   8  14   8  25  15  29  15
M  END
>  <DihAtoms>  (1) 
7,8,14,15

>  <DihDeg>  (1) 
179.9832371352997

$$$$
