
     RDKit          3D

 43 46  0  0  0  0  0  0  0  0999 V2000
   36.8070   32.1768   50.1320 Cl  0  0  0  0  0  0  0  0  0  0  0  0
   37.5480   31.9204   48.5836 C   0  0  0  0  0  0  0  0  0  0  0  0
   36.9668   30.9097   47.8854 C   0  0  0  0  0  0  0  0  0  0  0  0
   37.4927   30.6126   46.6021 C   0  0  0  0  0  0  0  0  0  0  0  0
   38.5406   31.3087   46.0808 C   0  0  0  0  0  0  0  0  0  0  0  0
   39.0984   32.3193   46.8153 C   0  0  0  0  0  0  0  0  0  0  0  0
   40.4388   33.2363   46.1907 Cl  0  0  0  0  0  0  0  0  0  0  0  0
   38.6026   32.6130   48.0466 C   0  0  0  0  0  0  0  0  0  0  0  0
   36.0424   29.0894   49.2561 C   0  0  0  0  0  0  0  0  0  0  0  0
   35.8354   30.0268   48.2416 C   0  0  0  0  0  0  0  0  0  0  0  0
   34.5853   30.1012   47.6027 C   0  0  0  0  0  0  0  0  0  0  0  0
   33.6341   29.2186   48.0391 N   0  0  0  0  0  0  0  0  0  0  0  0
   33.8613   28.3294   49.0154 C   0  0  0  0  0  0  0  0  0  0  0  0
   35.0720   28.2581   49.6335 N   0  0  0  0  0  0  0  0  0  0  0  0
   39.1380   33.6842   48.9096 C   0  0  0  0  0  0  0  0  0  0  0  0
   39.2698   34.8785   48.6688 O   0  0  0  0  0  0  0  0  0  0  0  0
   39.6106   33.5500   50.1977 O   0  0  0  0  0  0  0  0  0  0  0  0
   37.0970   29.8272   45.9728 H   0  0  0  0  0  0  0  0  0  0  0  0
   38.9540   31.0941   45.1020 H   0  0  0  0  0  0  0  0  0  0  0  0
   36.9997   29.0228   49.7549 H   0  0  0  0  0  0  0  0  0  0  0  0
   34.4502   30.8212   46.8343 H   0  0  0  0  0  0  0  0  0  0  0  0
   33.1083   27.6328   49.3588 H   0  0  0  0  0  0  0  0  0  0  0  0
   40.1174   34.5420   51.0253 C   0  0  0  0  0  0  0  0  0  0  0  0
   40.8443   34.0035   52.1825 C   0  0  0  0  0  0  0  0  0  0  0  0
   40.4999   34.2389   53.4389 C   0  0  0  0  0  0  0  0  0  0  0  0
   39.3364   35.0746   53.8312 C   0  0  0  0  0  0  0  0  0  0  0  0
   38.4511   35.7170   53.2141 O   0  0  0  0  0  0  0  0  0  0  0  0
   38.9576   35.3371   55.1233 O   0  0  0  0  0  0  0  0  0  0  0  0
   41.2789   33.6615   54.4783 N   0  0  0  0  0  0  0  0  0  0  0  0
   41.3553   32.9649   55.7387 C   0  0  0  0  0  0  0  0  0  0  0  0
   40.6364   32.9967   56.7591 O   0  0  0  0  0  0  0  0  0  0  0  0
   42.5895   32.3088   55.1751 C   0  0  2  0  0  0  0  0  0  0  0  0
   42.3703   31.5177   54.4397 H   0  0  0  0  0  0  0  0  0  0  0  0
   42.7282   33.6503   54.4871 C   0  0  1  0  0  0  0  0  0  0  0  0
   43.4125   33.6242   52.8219 S   0  0  0  0  0  0  0  0  0  0  0  0
   41.9973   33.1573   51.7876 C   0  0  1  0  0  0  0  0  0  0  0  0
   41.7462   32.0836   51.9777 H   0  0  0  0  0  0  0  0  0  0  0  0
   39.3124   35.2544   51.2274 H   0  0  0  0  0  0  0  0  0  0  0  0
   40.8622   35.1459   50.4142 H   0  0  0  0  0  0  0  0  0  0  0  0
   38.8577   36.2884   55.4468 H   0  0  0  0  0  0  0  0  0  0  0  0
   43.3560   32.0947   55.9423 H   0  0  0  0  0  0  0  0  0  0  0  0
   43.1468   34.3892   55.1704 H   0  0  0  0  0  0  0  0  0  0  0  0
   42.2725   33.3612   50.7609 H   0  0  0  0  0  0  0  0  0  0  0  0
  2  1  1  0
  3 10  1  0
  3  2  2  0
  4  3  1  0
  5  4  2  0
  5  6  1  0
  6  8  2  0
  7  6  1  0
  8  2  1  0
  8 15  1  0
  9 14  2  0
 10  9  1  0
 11 12  1  0
 11 10  2  0
 12 13  2  0
 13 14  1  0
 15 17  1  0
 16 15  2  0
  4 18  1  0
  5 19  1  0
  9 20  1  0
 11 21  1  0
 13 22  1  0
 23 24  1  0
 24 25  2  0
 25 26  1  0
 26 27  2  0
 26 28  1  0
 25 29  1  0
 29 30  1  0
 30 31  2  0
 30 32  1  0
 32 33  1  6
 32 34  1  0
 34 35  1  0
 35 36  1  0
 36 37  1  6
 36 24  1  0
 34 29  1  0
 23 38  1  0
 23 39  1  0
 28 40  1  0
 32 41  1  0
 34 42  1  1
 36 43  1  0
 17 23  1  0
M  ISO  7  18  14  19  14  20  14  21  14  22  14  33  15  37  15
M  END
>  <DihAtoms>  (1) 
14,16,22,23

>  <DihDeg>  (1) 
59.9897232485894

$$$$
