
     RDKit          3D

 43 46  0  0  0  0  0  0  0  0999 V2000
   36.8070   32.1768   50.1320 Cl  0  0  0  0  0  0  0  0  0  0  0  0
   37.5480   31.9204   48.5836 C   0  0  0  0  0  0  0  0  0  0  0  0
   36.9668   30.9097   47.8854 C   0  0  0  0  0  0  0  0  0  0  0  0
   37.4927   30.6126   46.6021 C   0  0  0  0  0  0  0  0  0  0  0  0
   38.5406   31.3087   46.0808 C   0  0  0  0  0  0  0  0  0  0  0  0
   39.0984   32.3193   46.8153 C   0  0  0  0  0  0  0  0  0  0  0  0
   40.4388   33.2363   46.1907 Cl  0  0  0  0  0  0  0  0  0  0  0  0
   38.6026   32.6130   48.0466 C   0  0  0  0  0  0  0  0  0  0  0  0
   36.0424   29.0894   49.2561 C   0  0  0  0  0  0  0  0  0  0  0  0
   35.8354   30.0268   48.2416 C   0  0  0  0  0  0  0  0  0  0  0  0
   34.5853   30.1012   47.6027 C   0  0  0  0  0  0  0  0  0  0  0  0
   33.6341   29.2186   48.0391 N   0  0  0  0  0  0  0  0  0  0  0  0
   33.8613   28.3294   49.0154 C   0  0  0  0  0  0  0  0  0  0  0  0
   35.0720   28.2581   49.6335 N   0  0  0  0  0  0  0  0  0  0  0  0
   39.1380   33.6842   48.9096 C   0  0  0  0  0  0  0  0  0  0  0  0
   39.2698   34.8785   48.6688 O   0  0  0  0  0  0  0  0  0  0  0  0
   39.6106   33.5500   50.1977 O   0  0  0  0  0  0  0  0  0  0  0  0
   37.0970   29.8272   45.9728 H   0  0  0  0  0  0  0  0  0  0  0  0
   38.9540   31.0941   45.1020 H   0  0  0  0  0  0  0  0  0  0  0  0
   36.9997   29.0228   49.7549 H   0  0  0  0  0  0  0  0  0  0  0  0
   34.4502   30.8212   46.8343 H   0  0  0  0  0  0  0  0  0  0  0  0
   33.1083   27.6328   49.3588 H   0  0  0  0  0  0  0  0  0  0  0  0
   40.1174   34.5420   51.0253 C   0  0  0  0  0  0  0  0  0  0  0  0
   40.1222   35.8668   50.3911 C   0  0  0  0  0  0  0  0  0  0  0  0
   41.2194   36.5803   50.1919 C   0  0  0  0  0  0  0  0  0  0  0  0
   42.5786   36.1276   50.5836 C   0  0  0  0  0  0  0  0  0  0  0  0
   43.0538   35.1025   51.1321 O   0  0  0  0  0  0  0  0  0  0  0  0
   43.7317   36.8456   50.3917 O   0  0  0  0  0  0  0  0  0  0  0  0
   41.1013   37.8508   49.5655 N   0  0  0  0  0  0  0  0  0  0  0  0
   41.5704   38.8122   48.5982 C   0  0  0  0  0  0  0  0  0  0  0  0
   42.7134   39.0921   48.1809 O   0  0  0  0  0  0  0  0  0  0  0  0
   40.1208   39.1917   48.4368 C   0  0  2  0  0  0  0  0  0  0  0  0
   39.5402   38.4679   47.8419 H   0  0  0  0  0  0  0  0  0  0  0  0
   40.0828   38.8245   49.9051 C   0  0  1  0  0  0  0  0  0  0  0  0
   38.5708   38.0421   50.4914 S   0  0  0  0  0  0  0  0  0  0  0  0
   38.7649   36.3103   49.9877 C   0  0  1  0  0  0  0  0  0  0  0  0
   38.6730   36.2425   48.8746 H   0  0  0  0  0  0  0  0  0  0  0  0
   41.0635   34.1824   51.4400 H   0  0  0  0  0  0  0  0  0  0  0  0
   39.4353   34.6082   51.9326 H   0  0  0  0  0  0  0  0  0  0  0  0
   44.3417   37.0562   51.1683 H   0  0  0  0  0  0  0  0  0  0  0  0
   39.9750   40.2654   48.2189 H   0  0  0  0  0  0  0  0  0  0  0  0
   40.4723   39.6405   50.5137 H   0  0  0  0  0  0  0  0  0  0  0  0
   38.0149   35.7384   50.5186 H   0  0  0  0  0  0  0  0  0  0  0  0
  2  1  1  0
  3 10  1  0
  3  2  2  0
  4  3  1  0
  5  4  2  0
  5  6  1  0
  6  8  2  0
  7  6  1  0
  8  2  1  0
  8 15  1  0
  9 14  2  0
 10  9  1  0
 11 12  1  0
 11 10  2  0
 12 13  2  0
 13 14  1  0
 15 17  1  0
 16 15  2  0
  4 18  1  0
  5 19  1  0
  9 20  1  0
 11 21  1  0
 13 22  1  0
 23 24  1  0
 24 25  2  0
 25 26  1  0
 26 27  2  0
 26 28  1  0
 25 29  1  0
 29 30  1  0
 30 31  2  0
 30 32  1  0
 32 33  1  6
 32 34  1  0
 34 35  1  0
 35 36  1  0
 36 37  1  6
 36 24  1  0
 34 29  1  0
 23 38  1  0
 23 39  1  0
 28 40  1  0
 32 41  1  0
 34 42  1  1
 36 43  1  0
 17 23  1  0
M  ISO  7  18  14  19  14  20  14  21  14  22  14  33  15  37  15
M  END
>  <DihAtoms>  (1) 
14,16,22,23

>  <DihDeg>  (1) 
59.9897232485894

$$$$
