
     RDKit          3D

 43 46  0  0  0  0  0  0  0  0999 V2000
   36.8070   32.1768   50.1320 Cl  0  0  0  0  0  0  0  0  0  0  0  0
   37.5480   31.9204   48.5836 C   0  0  0  0  0  0  0  0  0  0  0  0
   36.9668   30.9097   47.8854 C   0  0  0  0  0  0  0  0  0  0  0  0
   37.4927   30.6126   46.6021 C   0  0  0  0  0  0  0  0  0  0  0  0
   38.5406   31.3087   46.0808 C   0  0  0  0  0  0  0  0  0  0  0  0
   39.0984   32.3193   46.8153 C   0  0  0  0  0  0  0  0  0  0  0  0
   40.4388   33.2363   46.1907 Cl  0  0  0  0  0  0  0  0  0  0  0  0
   38.6026   32.6130   48.0466 C   0  0  0  0  0  0  0  0  0  0  0  0
   36.0424   29.0894   49.2561 C   0  0  0  0  0  0  0  0  0  0  0  0
   35.8354   30.0268   48.2416 C   0  0  0  0  0  0  0  0  0  0  0  0
   34.5853   30.1012   47.6027 C   0  0  0  0  0  0  0  0  0  0  0  0
   33.6341   29.2186   48.0391 N   0  0  0  0  0  0  0  0  0  0  0  0
   33.8613   28.3294   49.0154 C   0  0  0  0  0  0  0  0  0  0  0  0
   35.0720   28.2581   49.6335 N   0  0  0  0  0  0  0  0  0  0  0  0
   39.1380   33.6842   48.9096 C   0  0  0  0  0  0  0  0  0  0  0  0
   39.2698   34.8785   48.6688 O   0  0  0  0  0  0  0  0  0  0  0  0
   39.6106   33.5500   50.1977 O   0  0  0  0  0  0  0  0  0  0  0  0
   37.0970   29.8272   45.9728 H   0  0  0  0  0  0  0  0  0  0  0  0
   38.9540   31.0941   45.1020 H   0  0  0  0  0  0  0  0  0  0  0  0
   36.9997   29.0228   49.7549 H   0  0  0  0  0  0  0  0  0  0  0  0
   34.4502   30.8212   46.8343 H   0  0  0  0  0  0  0  0  0  0  0  0
   33.1083   27.6328   49.3588 H   0  0  0  0  0  0  0  0  0  0  0  0
   40.1174   34.5420   51.0253 C   0  0  0  0  0  0  0  0  0  0  0  0
   40.7711   35.6268   50.2815 C   0  0  0  0  0  0  0  0  0  0  0  0
   42.0441   35.9569   50.4341 C   0  0  0  0  0  0  0  0  0  0  0  0
   42.9661   35.2700   51.3743 C   0  0  0  0  0  0  0  0  0  0  0  0
   42.8645   34.3185   52.1877 O   0  0  0  0  0  0  0  0  0  0  0  0
   44.2875   35.5915   51.5546 O   0  0  0  0  0  0  0  0  0  0  0  0
   42.5686   37.0251   49.6566 N   0  0  0  0  0  0  0  0  0  0  0  0
   43.6210   37.5681   48.8336 C   0  0  0  0  0  0  0  0  0  0  0  0
   44.8615   37.4289   48.8591 O   0  0  0  0  0  0  0  0  0  0  0  0
   42.5191   38.2656   48.0781 C   0  0  2  0  0  0  0  0  0  0  0  0
   41.9601   37.5995   47.4009 H   0  0  0  0  0  0  0  0  0  0  0  0
   41.8812   38.2845   49.4511 C   0  0  1  0  0  0  0  0  0  0  0  0
   40.0917   38.0919   49.5003 S   0  0  0  0  0  0  0  0  0  0  0  0
   39.8516   36.3017   49.3325 C   0  0  1  0  0  0  0  0  0  0  0  0
   40.1132   35.9957   48.2884 H   0  0  0  0  0  0  0  0  0  0  0  0
   40.6977   34.0563   51.8151 H   0  0  0  0  0  0  0  0  0  0  0  0
   39.2387   35.0009   51.5823 H   0  0  0  0  0  0  0  0  0  0  0  0
   44.6419   35.8138   52.4735 H   0  0  0  0  0  0  0  0  0  0  0  0
   42.8195   39.2552   47.6879 H   0  0  0  0  0  0  0  0  0  0  0  0
   42.2977   39.0904   50.0553 H   0  0  0  0  0  0  0  0  0  0  0  0
   38.8240   36.0920   49.5994 H   0  0  0  0  0  0  0  0  0  0  0  0
  2  1  1  0
  3 10  1  0
  3  2  2  0
  4  3  1  0
  5  4  2  0
  5  6  1  0
  6  8  2  0
  7  6  1  0
  8  2  1  0
  8 15  1  0
  9 14  2  0
 10  9  1  0
 11 12  1  0
 11 10  2  0
 12 13  2  0
 13 14  1  0
 15 17  1  0
 16 15  2  0
  4 18  1  0
  5 19  1  0
  9 20  1  0
 11 21  1  0
 13 22  1  0
 23 24  1  0
 24 25  2  0
 25 26  1  0
 26 27  2  0
 26 28  1  0
 25 29  1  0
 29 30  1  0
 30 31  2  0
 30 32  1  0
 32 33  1  6
 32 34  1  0
 34 35  1  0
 35 36  1  0
 36 37  1  6
 36 24  1  0
 34 29  1  0
 23 38  1  0
 23 39  1  0
 28 40  1  0
 32 41  1  0
 34 42  1  1
 36 43  1  0
 17 23  1  0
M  ISO  7  18  14  19  14  20  14  21  14  22  14  33  15  37  15
M  END
>  <DihAtoms>  (1) 
14,16,22,23

>  <DihDeg>  (1) 
59.9897232485894

$$$$
