
     RDKit          3D

 47 51  0  0  0  0  0  0  0  0999 V2000
   33.8352   28.7937   48.2764 C   0  0  0  0  0  0  0  0  0  0  0  0
   34.4304   28.4282   49.4430 C   0  0  0  0  0  0  0  0  0  0  0  0
   35.7027   28.7946   49.8183 C   0  0  0  0  0  0  0  0  0  0  0  0
   36.4557   29.5836   48.9847 C   0  0  0  0  0  0  0  0  0  0  0  0
   35.8460   29.9621   47.7826 C   0  0  0  0  0  0  0  0  0  0  0  0
   34.5970   29.5794   47.4565 N   0  0  0  0  0  0  0  0  0  0  0  0
   31.6467   27.6622   48.6940 C   0  0  0  0  0  0  0  0  0  0  0  0
   32.5149   28.4085   47.8827 C   0  0  0  0  0  0  0  0  0  0  0  0
   32.0331   28.7585   46.6493 C   0  0  0  0  0  0  0  0  0  0  0  0
   30.7772   28.3848   46.2667 N   0  0  0  0  0  0  0  0  0  0  0  0
   29.9813   27.6572   47.1051 C   0  0  0  0  0  0  0  0  0  0  0  0
   30.4072   27.2924   48.3183 N   0  0  0  0  0  0  0  0  0  0  0  0
   37.7504   30.0479   49.1971 O   0  0  0  0  0  0  0  0  0  0  0  0
   38.1557   31.3041   48.7859 C   0  0  0  0  0  0  0  0  0  0  0  0
   37.8784   32.3233   49.6799 C   0  0  0  0  0  0  0  0  0  0  0  0
   38.3446   33.5054   49.1209 C   0  0  0  0  0  0  0  0  0  0  0  0
   38.8851   33.1765   47.9188 N   0  0  0  0  0  0  0  0  0  0  0  0
   38.7655   31.8865   47.7406 N   0  0  0  0  0  0  0  0  0  0  0  0
   33.9069   27.8068   50.1569 H   0  0  0  0  0  0  0  0  0  0  0  0
   36.1834   28.5085   50.7436 H   0  0  0  0  0  0  0  0  0  0  0  0
   36.3582   30.5786   47.0686 H   0  0  0  0  0  0  0  0  0  0  0  0
   31.9794   27.3611   49.6778 H   0  0  0  0  0  0  0  0  0  0  0  0
   32.6699   29.3371   45.9867 H   0  0  0  0  0  0  0  0  0  0  0  0
   29.0352   27.4693   46.6099 H   0  0  0  0  0  0  0  0  0  0  0  0
   37.3993   32.3816   50.6697 H   0  0  0  0  0  0  0  0  0  0  0  0
   38.3118   34.5141   49.5162 H   0  0  0  0  0  0  0  0  0  0  0  0
   39.4829   34.1293   47.0148 C   0  0  0  0  0  0  0  0  0  0  0  0
   40.8081   34.5096   47.5626 C   0  0  0  0  0  0  0  0  0  0  0  0
   41.0634   35.7586   47.8657 C   0  0  0  0  0  0  0  0  0  0  0  0
   40.0344   36.7671   47.6587 C   0  0  0  0  0  0  0  0  0  0  0  0
   40.1955   38.0073   47.9238 O   0  0  0  0  0  0  0  0  0  0  0  0
   38.8989   37.4929   47.3661 O   0  0  0  0  0  0  0  0  0  0  0  0
   42.3121   36.1700   48.3939 N   0  0  0  0  0  0  0  0  0  0  0  0
   43.3844   37.1002   48.4600 C   0  0  0  0  0  0  0  0  0  0  0  0
   43.5662   38.2680   47.9735 O   0  0  0  0  0  0  0  0  0  0  0  0
   44.2188   36.2122   49.3058 C   0  0  1  0  0  0  0  0  0  0  0  0
   45.0584   35.7194   48.8135 H   0  0  0  0  0  0  0  0  0  0  0  0
   43.0004   35.3354   49.3943 C   0  0  2  0  0  0  0  0  0  0  0  0
   43.2611   33.7368   48.5448 S   0  0  0  0  0  0  0  0  0  0  0  0
   41.7081   33.3638   47.6940 C   0  0  2  0  0  0  0  0  0  0  0  0
   41.9643   32.9872   46.6787 H   0  0  0  0  0  0  0  0  0  0  0  0
   38.8120   34.9872   46.9352 H   0  0  0  0  0  0  0  0  0  0  0  0
   39.6206   33.6712   45.9902 H   0  0  0  0  0  0  0  0  0  0  0  0
   37.9423   37.1553   47.4471 H   0  0  0  0  0  0  0  0  0  0  0  0
   44.5145   36.6980   50.2582 H   0  0  0  0  0  0  0  0  0  0  0  0
   42.5004   35.2751   50.3726 H   0  0  0  0  0  0  0  0  0  0  0  0
   41.2549   32.5119   48.2463 H   0  0  0  0  0  0  0  0  0  0  0  0
  1  2  2  0
  2  3  1  0
  4 13  1  0
  4  3  2  0
  5  4  1  0
  6  5  2  0
  6  1  1  0
  8  1  1  0
  8  7  2  0
  9  8  1  0
 10  9  2  0
 10 11  1  0
 11 12  2  0
 12  7  1  0
 14 13  1  0
 14 15  1  0
 16 15  2  0
 17 16  1  0
 18 17  1  0
 18 14  2  0
  2 19  1  0
  3 20  1  0
  5 21  1  0
  7 22  1  0
  9 23  1  0
 11 24  1  0
 15 25  1  0
 16 26  1  0
 27 28  1  0
 28 29  2  0
 29 30  1  0
 30 31  2  0
 30 32  1  0
 29 33  1  0
 33 34  1  0
 34 35  2  0
 34 36  1  0
 36 37  1  6
 36 38  1  0
 38 39  1  0
 39 40  1  0
 40 41  1  6
 40 28  1  0
 38 33  1  0
 27 42  1  0
 27 43  1  0
 32 44  1  0
 36 45  1  0
 38 46  1  1
 40 47  1  0
 17 27  1  0
M  ISO  8  19  14  20  14  21  14  22  14  23  14  24  14  25  14  26  14
M  ISO  2  37  15  41  15
M  END
>  <DihAtoms>  (1) 
15,16,26,27

>  <DihDeg>  (1) 
89.88323704639843

$$$$
