
     RDKit          3D

 44 47  0  0  1  0  0  0  0  0999 V2000
   36.6790   31.2300   48.7050 N   0  0  0  0  0  0  0  0  0  0  0  0
   36.7870   32.3110   49.4860 C   0  0  0  0  0  0  0  0  0  0  0  0
   37.8900   33.1560   49.3200 C   0  0  0  0  0  0  0  0  0  0  0  0
   38.7660   32.7740   48.3460 C   0  0  0  0  0  0  0  0  0  0  0  0
   39.7460   33.5810   48.2420 O   0  0  0  0  0  0  0  0  0  0  0  0
   38.6840   31.6940   47.5440 N   0  0  0  0  0  0  0  0  0  0  0  0
   37.6010   30.9230   47.7570 C   0  0  0  0  0  0  0  0  0  0  0  0
   37.5010   29.8990   47.0180 O   0  0  0  0  0  0  0  0  0  0  0  0
   35.4040   29.6610   50.0650 C   0  0  0  0  0  0  0  0  0  0  0  0
   35.5840   30.3220   48.8180 C   0  0  0  0  0  0  0  0  0  0  0  0
   34.6780   30.0360   47.7840 C   0  0  0  0  0  0  0  0  0  0  0  0
   33.6840   29.1480   48.0240 N   0  0  0  0  0  0  0  0  0  0  0  0
   33.5260   28.5370   49.1850 C   0  0  0  0  0  0  0  0  0  0  0  0
   34.3780   28.7900   50.1960 N   0  0  0  0  0  0  0  0  0  0  0  0
   37.5040   29.3180   51.5660 C   0  0  0  0  0  0  0  0  0  0  0  0
   38.1220   28.5170   50.8360 O   0  0  0  0  0  0  0  0  0  0  0  0
   36.2360   29.8740   51.1840 N   0  0  0  0  0  0  0  0  0  0  0  0
   39.7430   31.4500   46.5750 C   0  0  0  0  0  0  0  0  0  0  0  0
   39.3240   31.2990   45.2000 C   0  0  0  0  0  0  0  0  0  0  0  0
   39.4120   32.3030   44.3100 C   0  0  0  0  0  0  0  0  0  0  0  0
   39.0040   32.0870   42.9410 N   0  0  0  0  0  0  0  0  0  0  0  0
   38.1460   32.5840   41.8890 C   0  0  0  0  0  0  0  0  0  0  0  0
   37.5840   33.6830   41.6020 O   0  0  0  0  0  0  0  0  0  0  0  0
   38.2470   31.1940   41.3170 C   0  0  0  0  0  0  0  0  0  0  0  0
   39.5380   31.0040   42.0870 C   0  0  2  0  0  0  0  0  0  0  0  0
   39.6410   29.5610   43.1410 S   0  0  0  0  0  0  0  0  0  0  0  0
   38.7590   30.0550   44.6790 C   0  0  0  0  0  0  0  0  0  0  0  0
   39.9410   33.6400   44.6670 C   0  0  0  0  0  0  0  0  0  0  0  0
   40.2970   34.2980   45.6500 O   0  0  0  0  0  0  0  0  0  0  0  0
   40.2260   34.6910   43.8300 O   0  0  0  0  0  0  0  0  0  0  0  0
   36.0222   32.5316   50.2452 H   0  0  0  0  0  0  0  0  0  0  0  0
   38.0396   34.0599   49.9287 H   0  0  0  0  0  0  0  0  0  0  0  0
   34.7734   30.5220   46.8018 H   0  0  0  0  0  0  0  0  0  0  0  0
   32.7005   27.8236   49.3249 H   0  0  0  0  0  0  0  0  0  0  0  0
   37.9437   29.6073   52.5319 H   0  0  0  0  0  0  0  0  0  0  0  0
   35.8627   30.5596   51.8559 H   0  0  0  0  0  0  0  0  0  0  0  0
   40.4432   32.2970   46.6219 H   0  0  0  0  0  0  0  0  0  0  0  0
   40.1848   30.4830   46.8572 H   0  0  0  0  0  0  0  0  0  0  0  0
   37.4340   30.5183   41.6209 H   0  0  0  0  0  0  0  0  0  0  0  0
   38.2042   31.0233   40.2312 H   0  0  0  0  0  0  0  0  0  0  0  0
   40.4932   30.9614   41.5431 H   0  0  0  0  0  0  0  0  0  0  0  0
   37.6924   30.2045   44.4556 H   0  0  0  0  0  0  0  0  0  0  0  0
   38.8739   29.2619   45.4326 H   0  0  0  0  0  0  0  0  0  0  0  0
   40.5783   35.5383   44.2016 H   0  0  0  0  0  0  0  0  0  0  0  0
  1 10  1  0
  1  2  1  0
  3  2  2  0
  4  3  1  0
  5  4  2  0
  6  7  1  0
  6  4  1  0
  7  1  1  0
  8  7  2  0
  9 14  2  0
  9 17  1  0
 10  9  1  0
 11 12  1  0
 11 10  2  0
 12 13  2  0
 13 14  1  0
 16 15  2  0
 17 15  1  0
 18  6  1  0
 19 18  1  0
 20 28  1  0
 20 19  2  0
 21 20  1  0
 22 21  1  0
 23 22  2  0
 24 22  1  0
 25 24  1  0
 25 21  1  0
 25 26  1  0
 26 27  1  0
 27 19  1  0
 28 29  2  0
 30 28  1  0
  2 31  1  0
  3 32  1  0
 11 33  1  0
 13 34  1  0
 15 35  1  0
 17 36  1  0
 18 37  1  0
 18 38  1  0
 24 39  1  0
 24 40  1  0
 25 41  1  6
 27 42  1  0
 27 43  1  0
 30 44  1  0
M  ISO  8  31  14  32  14  33  14  34  14  35   6  37   8  38   8  39  13
M  ISO  5  40  13  41  13  42  13  43  13  44   3
M  END
>  <minimizedAffinity>  (1) 
-5.48363495

>  <minimizedRMSD>  (1) 
1.16207552

$$$$
