
     RDKit          3D

 46 49  0  0  0  0  0  0  0  0999 V2000
   38.0739   31.2534   48.3798 C   0  0  0  0  0  0  0  0  0  0  0  0
   38.2559   32.0120   49.5414 C   0  0  0  0  0  0  0  0  0  0  0  0
   38.9374   33.2248   49.4458 C   0  0  0  0  0  0  0  0  0  0  0  0
   39.3929   33.6097   48.2202 N   0  0  0  0  0  0  0  0  0  0  0  0
   39.2049   32.8593   47.1110 C   0  0  0  0  0  0  0  0  0  0  0  0
   38.5596   31.7161   47.2157 N   0  0  0  0  0  0  0  0  0  0  0  0
   40.6349   32.3815   45.2773 C   0  0  0  0  0  0  0  0  0  0  0  0
   41.0365   31.2749   45.7409 O   0  0  0  0  0  0  0  0  0  0  0  0
   39.7019   33.3095   45.8532 N   0  0  0  0  0  0  0  0  0  0  0  0
   37.3866   30.0744   48.5948 O   0  0  0  0  0  0  0  0  0  0  0  0
   36.1996   29.3386   51.1671 O   0  0  0  0  0  0  0  0  0  0  0  0
   35.6361   29.2751   50.0563 C   0  0  0  0  0  0  0  0  0  0  0  0
   36.0097   30.1524   48.9405 C   0  0  2  0  0  0  0  0  0  0  0  0
   35.1745   29.5624   47.7921 C   0  0  0  0  0  0  0  0  0  0  0  0
   33.9944   28.9639   48.5223 C   0  0  0  0  0  0  0  0  0  0  0  0
   34.5841   28.3671   49.7334 N   0  0  0  0  0  0  0  0  0  0  0  0
   37.9130   31.7480   50.5344 H   0  0  0  0  0  0  0  0  0  0  0  0
   39.0904   33.8310   50.3362 H   0  0  0  0  0  0  0  0  0  0  0  0
   41.1023   32.5832   44.3183 H   0  0  0  0  0  0  0  0  0  0  0  0
   39.4541   34.2102   45.3479 H   0  0  0  0  0  0  0  0  0  0  0  0
   35.6892   31.1972   49.1247 H   0  0  0  0  0  0  0  0  0  0  0  0
   35.7407   28.8539   47.1801 H   0  0  0  0  0  0  0  0  0  0  0  0
   34.7842   30.4148   47.1956 H   0  0  0  0  0  0  0  0  0  0  0  0
   33.4814   28.1966   47.9312 H   0  0  0  0  0  0  0  0  0  0  0  0
   33.3255   29.7570   48.8563 H   0  0  0  0  0  0  0  0  0  0  0  0
   34.1848   27.1497   50.4161 C   0  0  0  0  0  0  0  0  0  0  0  0
   34.1241   27.2507   51.8663 C   0  0  0  0  0  0  0  0  0  0  0  0
   34.8739   26.5061   52.6630 C   0  0  0  0  0  0  0  0  0  0  0  0
   35.8532   25.4962   52.1925 C   0  0  0  0  0  0  0  0  0  0  0  0
   36.2493   25.0582   51.1003 O   0  0  0  0  0  0  0  0  0  0  0  0
   36.6480   24.7153   52.9866 O   0  0  0  0  0  0  0  0  0  0  0  0
   34.7173   26.6828   54.0870 N   0  0  0  0  0  0  0  0  0  0  0  0
   35.3744   26.8999   55.3519 C   0  0  0  0  0  0  0  0  0  0  0  0
   36.5260   26.6300   55.8185 O   0  0  0  0  0  0  0  0  0  0  0  0
   34.0935   27.5590   55.7990 C   0  0  1  0  0  0  0  0  0  0  0  0
   33.8324   27.3354   56.8478 H   0  0  0  0  0  0  0  0  0  0  0  0
   33.4128   26.6728   54.7616 C   0  0  1  0  0  0  0  0  0  0  0  0
   32.1960   27.5227   53.7347 S   0  0  0  0  0  0  0  0  0  0  0  0
   33.1740   28.2502   52.3597 C   0  0  2  0  0  0  0  0  0  0  0  0
   32.4501   28.5596   51.6173 H   0  0  0  0  0  0  0  0  0  0  0  0
   34.8048   26.3306   50.0359 H   0  0  0  0  0  0  0  0  0  0  0  0
   33.1476   26.9360   49.9938 H   0  0  0  0  0  0  0  0  0  0  0  0
   37.6504   24.7569   52.9284 H   0  0  0  0  0  0  0  0  0  0  0  0
   34.1309   28.6341   55.5585 H   0  0  0  0  0  0  0  0  0  0  0  0
   33.0982   25.7173   55.1792 H   0  0  0  0  0  0  0  0  0  0  0  0
   33.7235   29.0912   52.8383 H   0  0  0  0  0  0  0  0  0  0  0  0
  1 10  1  0
  1  2  2  0
  3  2  1  0
  4  3  2  0
  5  6  2  0
  5  4  1  0
  6  1  1  0
  7  8  2  0
  7  9  1  0
  9  5  1  0
 12 11  2  0
 13 10  1  0
 13 12  1  0
 14 15  1  0
 14 13  1  0
 15 16  1  0
 16 12  1  0
  2 17  1  0
  3 18  1  0
  7 19  1  0
  9 20  1  0
 13 21  1  1
 14 22  1  0
 14 23  1  0
 15 24  1  0
 15 25  1  0
 26 27  1  0
 27 28  2  0
 28 29  1  0
 29 30  2  0
 29 31  1  0
 28 32  1  0
 32 33  1  0
 33 34  2  0
 33 35  1  0
 35 36  1  1
 35 37  1  0
 37 38  1  0
 38 39  1  0
 39 40  1  6
 39 27  1  0
 37 32  1  0
 26 41  1  0
 26 42  1  0
 31 43  1  0
 35 44  1  0
 37 45  1  1
 39 46  1  0
 16 26  1  0
M  ISO  8  17  14  18  14  19   6  21  13  22  13  23  13  24  13  25  13
M  ISO  2  36  15  40  15
M  END
>  <DihAtoms>  (1) 
14,15,25,26

>  <DihDeg>  (1) 
88.90155874913953

$$$$
