
     RDKit          3D

 46 49  0  0  0  0  0  0  0  0999 V2000
   38.0739   31.2534   48.3798 C   0  0  0  0  0  0  0  0  0  0  0  0
   38.2559   32.0120   49.5414 C   0  0  0  0  0  0  0  0  0  0  0  0
   38.9374   33.2248   49.4458 C   0  0  0  0  0  0  0  0  0  0  0  0
   39.3929   33.6097   48.2202 N   0  0  0  0  0  0  0  0  0  0  0  0
   39.2049   32.8593   47.1110 C   0  0  0  0  0  0  0  0  0  0  0  0
   38.5596   31.7161   47.2157 N   0  0  0  0  0  0  0  0  0  0  0  0
   40.6349   32.3815   45.2773 C   0  0  0  0  0  0  0  0  0  0  0  0
   41.0365   31.2749   45.7409 O   0  0  0  0  0  0  0  0  0  0  0  0
   39.7019   33.3095   45.8532 N   0  0  0  0  0  0  0  0  0  0  0  0
   37.3866   30.0744   48.5948 O   0  0  0  0  0  0  0  0  0  0  0  0
   36.1996   29.3386   51.1671 O   0  0  0  0  0  0  0  0  0  0  0  0
   35.6361   29.2751   50.0563 C   0  0  0  0  0  0  0  0  0  0  0  0
   36.0097   30.1524   48.9405 C   0  0  2  0  0  0  0  0  0  0  0  0
   35.1745   29.5624   47.7921 C   0  0  0  0  0  0  0  0  0  0  0  0
   33.9944   28.9639   48.5223 C   0  0  0  0  0  0  0  0  0  0  0  0
   34.5841   28.3671   49.7334 N   0  0  0  0  0  0  0  0  0  0  0  0
   37.9130   31.7480   50.5344 H   0  0  0  0  0  0  0  0  0  0  0  0
   39.0904   33.8310   50.3362 H   0  0  0  0  0  0  0  0  0  0  0  0
   41.1023   32.5832   44.3183 H   0  0  0  0  0  0  0  0  0  0  0  0
   39.4541   34.2102   45.3479 H   0  0  0  0  0  0  0  0  0  0  0  0
   35.6892   31.1972   49.1247 H   0  0  0  0  0  0  0  0  0  0  0  0
   35.7407   28.8539   47.1801 H   0  0  0  0  0  0  0  0  0  0  0  0
   34.7842   30.4148   47.1956 H   0  0  0  0  0  0  0  0  0  0  0  0
   33.4814   28.1966   47.9312 H   0  0  0  0  0  0  0  0  0  0  0  0
   33.3255   29.7570   48.8563 H   0  0  0  0  0  0  0  0  0  0  0  0
   34.1848   27.1497   50.4161 C   0  0  0  0  0  0  0  0  0  0  0  0
   33.1989   27.3322   51.4705 C   0  0  0  0  0  0  0  0  0  0  0  0
   33.4405   27.0152   52.7324 C   0  0  0  0  0  0  0  0  0  0  0  0
   34.7190   26.4478   53.2259 C   0  0  0  0  0  0  0  0  0  0  0  0
   35.8129   26.1200   52.7385 O   0  0  0  0  0  0  0  0  0  0  0  0
   35.0045   26.1154   54.5221 O   0  0  0  0  0  0  0  0  0  0  0  0
   32.3811   27.2264   53.6899 N   0  0  0  0  0  0  0  0  0  0  0  0
   32.0048   27.7874   54.9637 C   0  0  0  0  0  0  0  0  0  0  0  0
   32.6218   28.0386   56.0468 O   0  0  0  0  0  0  0  0  0  0  0  0
   30.6140   27.9120   54.3935 C   0  0  1  0  0  0  0  0  0  0  0  0
   29.8212   27.6863   55.1274 H   0  0  0  0  0  0  0  0  0  0  0  0
   31.0068   26.7486   53.4896 C   0  0  1  0  0  0  0  0  0  0  0  0
   30.5421   26.9567   51.7580 S   0  0  0  0  0  0  0  0  0  0  0  0
   31.9300   27.9036   51.0141 C   0  0  2  0  0  0  0  0  0  0  0  0
   31.7884   27.8380   49.9434 H   0  0  0  0  0  0  0  0  0  0  0  0
   35.0938   26.6198   50.7207 H   0  0  0  0  0  0  0  0  0  0  0  0
   33.7515   26.5063   49.5807 H   0  0  0  0  0  0  0  0  0  0  0  0
   35.7613   26.5499   55.0207 H   0  0  0  0  0  0  0  0  0  0  0  0
   30.5082   28.8897   53.8954 H   0  0  0  0  0  0  0  0  0  0  0  0
   30.7671   25.7833   53.9335 H   0  0  0  0  0  0  0  0  0  0  0  0
   31.8059   28.9292   51.4279 H   0  0  0  0  0  0  0  0  0  0  0  0
  1 10  1  0
  1  2  2  0
  3  2  1  0
  4  3  2  0
  5  6  2  0
  5  4  1  0
  6  1  1  0
  7  8  2  0
  7  9  1  0
  9  5  1  0
 12 11  2  0
 13 10  1  0
 13 12  1  0
 14 15  1  0
 14 13  1  0
 15 16  1  0
 16 12  1  0
  2 17  1  0
  3 18  1  0
  7 19  1  0
  9 20  1  0
 13 21  1  1
 14 22  1  0
 14 23  1  0
 15 24  1  0
 15 25  1  0
 26 27  1  0
 27 28  2  0
 28 29  1  0
 29 30  2  0
 29 31  1  0
 28 32  1  0
 32 33  1  0
 33 34  2  0
 33 35  1  0
 35 36  1  1
 35 37  1  0
 37 38  1  0
 38 39  1  0
 39 40  1  6
 39 27  1  0
 37 32  1  0
 26 41  1  0
 26 42  1  0
 31 43  1  0
 35 44  1  0
 37 45  1  1
 39 46  1  0
 16 26  1  0
M  ISO  8  17  14  18  14  19   6  21  13  22  13  23  13  24  13  25  13
M  ISO  2  36  15  40  15
M  END
>  <DihAtoms>  (1) 
14,15,25,26

>  <DihDeg>  (1) 
88.90155874913953

$$$$
