
     RDKit          3D

 35 37  0  0  0  0  0  0  0  0999 V2000
   36.7746   29.6761   51.1201 C   0  0  0  0  0  0  0  0  0  0  0  0
   37.3018   30.0636   49.8932 C   0  0  0  0  0  0  0  0  0  0  0  0
   36.5491   29.8559   48.7451 C   0  0  0  0  0  0  0  0  0  0  0  0
   35.3289   29.2798   48.8939 N   0  0  0  0  0  0  0  0  0  0  0  0
   34.8335   28.9096   50.0982 C   0  0  0  0  0  0  0  0  0  0  0  0
   35.5647   29.1119   51.2085 N   0  0  0  0  0  0  0  0  0  0  0  0
   38.6259   32.0654   49.4973 C   0  0  0  0  0  0  0  0  0  0  0  0
   37.8059   33.0382   49.4576 O   0  0  0  0  0  0  0  0  0  0  0  0
   38.5478   30.6593   49.6787 N   0  0  0  0  0  0  0  0  0  0  0  0
   37.6616   29.9592   52.1515 O   0  0  0  0  0  0  0  0  0  0  0  0
   36.8812   30.1263   47.7502 H   0  0  0  0  0  0  0  0  0  0  0  0
   33.8788   28.4545   50.2507 H   0  0  0  0  0  0  0  0  0  0  0  0
   39.5759   32.5849   49.3400 H   0  0  0  0  0  0  0  0  0  0  0  0
   39.4743   30.1798   49.6323 H   0  0  0  0  0  0  0  0  0  0  0  0
   37.1965   29.5918   53.4494 C   0  0  0  0  0  0  0  0  0  0  0  0
   38.0004   30.2262   54.5149 C   0  0  0  0  0  0  0  0  0  0  0  0
   38.6612   29.5171   55.4022 C   0  0  0  0  0  0  0  0  0  0  0  0
   38.6307   28.0630   55.3756 C   0  0  0  0  0  0  0  0  0  0  0  0
   39.2269   27.2822   56.1758 O   0  0  0  0  0  0  0  0  0  0  0  0
   38.3722   26.7527   55.0444 O   0  0  0  0  0  0  0  0  0  0  0  0
   39.4520   30.0347   56.4551 N   0  0  0  0  0  0  0  0  0  0  0  0
   40.4211   29.9253   57.4965 C   0  0  0  0  0  0  0  0  0  0  0  0
   41.5175   29.2704   57.5553 O   0  0  0  0  0  0  0  0  0  0  0  0
   39.4978   30.8587   58.2526 C   0  0  1  0  0  0  0  0  0  0  0  0
   38.6471   30.2683   58.6180 H   0  0  0  0  0  0  0  0  0  0  0  0
   39.4093   31.4211   56.8790 C   0  0  2  0  0  0  0  0  0  0  0  0
   37.8842   32.1284   56.2994 S   0  0  0  0  0  0  0  0  0  0  0  0
   37.9989   31.7071   54.5056 C   0  0  2  0  0  0  0  0  0  0  0  0
   37.1526   32.1382   53.9797 H   0  0  0  0  0  0  0  0  0  0  0  0
   36.1082   29.8712   53.5211 H   0  0  0  0  0  0  0  0  0  0  0  0
   37.2068   28.4887   53.4581 H   0  0  0  0  0  0  0  0  0  0  0  0
   37.4522   26.4535   54.6924 H   0  0  0  0  0  0  0  0  0  0  0  0
   40.0060   31.4606   59.0215 H   0  0  0  0  0  0  0  0  0  0  0  0
   40.3329   31.9975   56.6569 H   0  0  0  0  0  0  0  0  0  0  0  0
   38.9331   32.1178   54.0769 H   0  0  0  0  0  0  0  0  0  0  0  0
  1  6  1  0
  1 10  1  0
  2  1  2  0
  3  4  2  0
  3  2  1  0
  4  5  1  0
  5  6  2  0
  7  9  1  0
  8  7  2  0
  9  2  1  0
  3 11  1  0
  5 12  1  0
  7 13  1  0
  9 14  1  0
 15 16  1  0
 16 17  2  0
 17 18  1  0
 18 19  2  0
 18 20  1  0
 17 21  1  0
 21 22  1  0
 22 23  2  0
 22 24  1  0
 24 25  1  1
 24 26  1  0
 26 27  1  0
 27 28  1  0
 28 29  1  6
 28 16  1  0
 26 21  1  0
 15 30  1  0
 15 31  1  0
 20 32  1  0
 24 33  1  0
 26 34  1  6
 28 35  1  0
 10 15  1  0
M  ISO  5  11  14  12  14  13   6  25  15  29  15
M  END
>  <DihAtoms>  (1) 
0,9,14,15

>  <DihDeg>  (1) 
179.99704446366053

$$$$
