
     RDKit          3D

 35 37  0  0  0  0  0  0  0  0999 V2000
   36.7746   29.6761   51.1201 C   0  0  0  0  0  0  0  0  0  0  0  0
   37.3018   30.0636   49.8932 C   0  0  0  0  0  0  0  0  0  0  0  0
   36.5491   29.8559   48.7451 C   0  0  0  0  0  0  0  0  0  0  0  0
   35.3289   29.2798   48.8939 N   0  0  0  0  0  0  0  0  0  0  0  0
   34.8335   28.9096   50.0982 C   0  0  0  0  0  0  0  0  0  0  0  0
   35.5647   29.1119   51.2085 N   0  0  0  0  0  0  0  0  0  0  0  0
   38.6259   32.0654   49.4973 C   0  0  0  0  0  0  0  0  0  0  0  0
   37.8059   33.0382   49.4576 O   0  0  0  0  0  0  0  0  0  0  0  0
   38.5478   30.6593   49.6787 N   0  0  0  0  0  0  0  0  0  0  0  0
   37.6616   29.9592   52.1515 O   0  0  0  0  0  0  0  0  0  0  0  0
   36.8812   30.1263   47.7502 H   0  0  0  0  0  0  0  0  0  0  0  0
   33.8788   28.4545   50.2507 H   0  0  0  0  0  0  0  0  0  0  0  0
   39.5759   32.5849   49.3400 H   0  0  0  0  0  0  0  0  0  0  0  0
   39.4743   30.1798   49.6323 H   0  0  0  0  0  0  0  0  0  0  0  0
   37.1965   29.5918   53.4494 C   0  0  0  0  0  0  0  0  0  0  0  0
   36.1678   30.5304   53.9443 C   0  0  0  0  0  0  0  0  0  0  0  0
   36.3320   31.2213   55.0499 C   0  0  0  0  0  0  0  0  0  0  0  0
   37.5441   31.0921   55.8436 C   0  0  0  0  0  0  0  0  0  0  0  0
   37.8088   31.7062   56.9199 O   0  0  0  0  0  0  0  0  0  0  0  0
   38.7821   30.7180   56.3137 O   0  0  0  0  0  0  0  0  0  0  0  0
   35.4053   32.1379   55.6003 N   0  0  0  0  0  0  0  0  0  0  0  0
   35.0217   33.1891   56.4855 C   0  0  0  0  0  0  0  0  0  0  0  0
   35.6463   34.2404   56.8582 O   0  0  0  0  0  0  0  0  0  0  0  0
   33.7339   32.4029   56.6243 C   0  0  1  0  0  0  0  0  0  0  0  0
   33.9286   31.5521   57.2905 H   0  0  0  0  0  0  0  0  0  0  0  0
   34.0212   32.2263   55.1761 C   0  0  2  0  0  0  0  0  0  0  0  0
   33.5962   30.7047   54.3597 S   0  0  0  0  0  0  0  0  0  0  0  0
   34.9500   30.6262   53.1071 C   0  0  2  0  0  0  0  0  0  0  0  0
   34.7955   29.7656   52.4634 H   0  0  0  0  0  0  0  0  0  0  0  0
   36.8104   28.5356   53.3947 H   0  0  0  0  0  0  0  0  0  0  0  0
   38.1036   29.5297   54.0742 H   0  0  0  0  0  0  0  0  0  0  0  0
   39.1263   29.7518   56.2260 H   0  0  0  0  0  0  0  0  0  0  0  0
   32.8650   33.0184   56.9035 H   0  0  0  0  0  0  0  0  0  0  0  0
   33.7664   33.1618   54.6334 H   0  0  0  0  0  0  0  0  0  0  0  0
   34.9476   31.5423   52.4858 H   0  0  0  0  0  0  0  0  0  0  0  0
  1  6  1  0
  1 10  1  0
  2  1  2  0
  3  4  2  0
  3  2  1  0
  4  5  1  0
  5  6  2  0
  7  9  1  0
  8  7  2  0
  9  2  1  0
  3 11  1  0
  5 12  1  0
  7 13  1  0
  9 14  1  0
 15 16  1  0
 16 17  2  0
 17 18  1  0
 18 19  2  0
 18 20  1  0
 17 21  1  0
 21 22  1  0
 22 23  2  0
 22 24  1  0
 24 25  1  1
 24 26  1  0
 26 27  1  0
 27 28  1  0
 28 29  1  6
 28 16  1  0
 26 21  1  0
 15 30  1  0
 15 31  1  0
 20 32  1  0
 24 33  1  0
 26 34  1  6
 28 35  1  0
 10 15  1  0
M  ISO  5  11  14  12  14  13   6  25  15  29  15
M  END
>  <DihAtoms>  (1) 
0,9,14,15

>  <DihDeg>  (1) 
179.99704446366053

$$$$
