
     RDKit          3D

 35 37  0  0  0  0  0  0  0  0999 V2000
   36.7746   29.6761   51.1201 C   0  0  0  0  0  0  0  0  0  0  0  0
   37.3018   30.0636   49.8932 C   0  0  0  0  0  0  0  0  0  0  0  0
   36.5491   29.8559   48.7451 C   0  0  0  0  0  0  0  0  0  0  0  0
   35.3289   29.2798   48.8939 N   0  0  0  0  0  0  0  0  0  0  0  0
   34.8335   28.9096   50.0982 C   0  0  0  0  0  0  0  0  0  0  0  0
   35.5647   29.1119   51.2085 N   0  0  0  0  0  0  0  0  0  0  0  0
   38.6259   32.0654   49.4973 C   0  0  0  0  0  0  0  0  0  0  0  0
   37.8059   33.0382   49.4576 O   0  0  0  0  0  0  0  0  0  0  0  0
   38.5478   30.6593   49.6787 N   0  0  0  0  0  0  0  0  0  0  0  0
   37.6616   29.9592   52.1515 O   0  0  0  0  0  0  0  0  0  0  0  0
   36.8812   30.1263   47.7502 H   0  0  0  0  0  0  0  0  0  0  0  0
   33.8788   28.4545   50.2507 H   0  0  0  0  0  0  0  0  0  0  0  0
   39.5759   32.5849   49.3400 H   0  0  0  0  0  0  0  0  0  0  0  0
   39.4743   30.1798   49.6323 H   0  0  0  0  0  0  0  0  0  0  0  0
   37.1965   29.5918   53.4494 C   0  0  0  0  0  0  0  0  0  0  0  0
   38.0956   28.6103   54.0916 C   0  0  0  0  0  0  0  0  0  0  0  0
   37.6772   27.4191   54.4556 C   0  0  0  0  0  0  0  0  0  0  0  0
   36.2981   27.0092   54.2414 C   0  0  0  0  0  0  0  0  0  0  0  0
   35.7879   25.8911   54.5496 O   0  0  0  0  0  0  0  0  0  0  0  0
   34.9684   26.9785   53.8885 O   0  0  0  0  0  0  0  0  0  0  0  0
   38.4616   26.4186   55.0766 N   0  0  0  0  0  0  0  0  0  0  0  0
   38.7160   25.0850   55.5153 C   0  0  0  0  0  0  0  0  0  0  0  0
   38.4716   23.9595   54.9604 O   0  0  0  0  0  0  0  0  0  0  0  0
   39.3044   25.7569   56.7392 C   0  0  1  0  0  0  0  0  0  0  0  0
   38.4723   26.0911   57.3729 H   0  0  0  0  0  0  0  0  0  0  0  0
   39.7639   26.6733   55.6621 C   0  0  2  0  0  0  0  0  0  0  0  0
   39.8978   28.4194   55.9710 S   0  0  0  0  0  0  0  0  0  0  0  0
   39.4881   29.0722   54.2934 C   0  0  2  0  0  0  0  0  0  0  0  0
   39.5929   30.1528   54.2921 H   0  0  0  0  0  0  0  0  0  0  0  0
   37.0941   30.5314   54.0613 H   0  0  0  0  0  0  0  0  0  0  0  0
   36.1623   29.2394   53.2964 H   0  0  0  0  0  0  0  0  0  0  0  0
   34.3661   27.8094   53.9704 H   0  0  0  0  0  0  0  0  0  0  0  0
   40.0645   25.1517   57.2566 H   0  0  0  0  0  0  0  0  0  0  0  0
   40.6115   26.2052   55.1171 H   0  0  0  0  0  0  0  0  0  0  0  0
   40.1775   28.6454   53.5399 H   0  0  0  0  0  0  0  0  0  0  0  0
  1  6  1  0
  1 10  1  0
  2  1  2  0
  3  4  2  0
  3  2  1  0
  4  5  1  0
  5  6  2  0
  7  9  1  0
  8  7  2  0
  9  2  1  0
  3 11  1  0
  5 12  1  0
  7 13  1  0
  9 14  1  0
 15 16  1  0
 16 17  2  0
 17 18  1  0
 18 19  2  0
 18 20  1  0
 17 21  1  0
 21 22  1  0
 22 23  2  0
 22 24  1  0
 24 25  1  1
 24 26  1  0
 26 27  1  0
 27 28  1  0
 28 29  1  1
 28 16  1  0
 26 21  1  0
 15 30  1  0
 15 31  1  0
 20 32  1  0
 24 33  1  0
 26 34  1  6
 28 35  1  0
 10 15  1  0
M  ISO  5  11  14  12  14  13   6  25  15  29  15
M  END
>  <DihAtoms>  (1) 
0,9,14,15

>  <DihDeg>  (1) 
179.99704446366053

$$$$
