
     RDKit          3D

 35 37  0  0  0  0  0  0  0  0999 V2000
   36.7746   29.6761   51.1201 C   0  0  0  0  0  0  0  0  0  0  0  0
   37.3018   30.0636   49.8932 C   0  0  0  0  0  0  0  0  0  0  0  0
   36.5491   29.8559   48.7451 C   0  0  0  0  0  0  0  0  0  0  0  0
   35.3289   29.2798   48.8939 N   0  0  0  0  0  0  0  0  0  0  0  0
   34.8335   28.9096   50.0982 C   0  0  0  0  0  0  0  0  0  0  0  0
   35.5647   29.1119   51.2085 N   0  0  0  0  0  0  0  0  0  0  0  0
   38.6259   32.0654   49.4973 C   0  0  0  0  0  0  0  0  0  0  0  0
   37.8059   33.0382   49.4576 O   0  0  0  0  0  0  0  0  0  0  0  0
   38.5478   30.6593   49.6787 N   0  0  0  0  0  0  0  0  0  0  0  0
   37.6616   29.9592   52.1515 O   0  0  0  0  0  0  0  0  0  0  0  0
   36.8812   30.1263   47.7502 H   0  0  0  0  0  0  0  0  0  0  0  0
   33.8788   28.4545   50.2507 H   0  0  0  0  0  0  0  0  0  0  0  0
   39.5759   32.5849   49.3400 H   0  0  0  0  0  0  0  0  0  0  0  0
   39.4743   30.1798   49.6323 H   0  0  0  0  0  0  0  0  0  0  0  0
   37.1965   29.5918   53.4494 C   0  0  0  0  0  0  0  0  0  0  0  0
   35.7234   29.6669   53.5406 C   0  0  0  0  0  0  0  0  0  0  0  0
   35.1198   30.4575   54.3993 C   0  0  0  0  0  0  0  0  0  0  0  0
   35.8811   31.3015   55.3070 C   0  0  0  0  0  0  0  0  0  0  0  0
   35.4072   32.0987   56.1704 O   0  0  0  0  0  0  0  0  0  0  0  0
   36.9000   31.9326   55.9831 O   0  0  0  0  0  0  0  0  0  0  0  0
   33.7207   30.5936   54.5595 N   0  0  0  0  0  0  0  0  0  0  0  0
   32.5491   31.2445   55.0490 C   0  0  0  0  0  0  0  0  0  0  0  0
   32.2597   32.4858   55.1479 O   0  0  0  0  0  0  0  0  0  0  0  0
   32.0475   29.8358   55.2933 C   0  0  1  0  0  0  0  0  0  0  0  0
   32.5384   29.4556   56.1989 H   0  0  0  0  0  0  0  0  0  0  0  0
   32.7582   29.6649   53.9985 C   0  0  2  0  0  0  0  0  0  0  0  0
   33.6053   28.1435   53.6380 S   0  0  0  0  0  0  0  0  0  0  0  0
   34.9902   28.7877   52.6011 C   0  0  2  0  0  0  0  0  0  0  0  0
   35.5816   27.9551   52.2326 H   0  0  0  0  0  0  0  0  0  0  0  0
   37.5796   28.5577   53.6766 H   0  0  0  0  0  0  0  0  0  0  0  0
   37.7366   30.2536   54.1476 H   0  0  0  0  0  0  0  0  0  0  0  0
   37.7755   31.4463   56.2216 H   0  0  0  0  0  0  0  0  0  0  0  0
   30.9502   29.7479   55.2916 H   0  0  0  0  0  0  0  0  0  0  0  0
   32.1374   30.0866   53.1791 H   0  0  0  0  0  0  0  0  0  0  0  0
   34.5888   29.3511   51.7370 H   0  0  0  0  0  0  0  0  0  0  0  0
  1  6  1  0
  1 10  1  0
  2  1  2  0
  3  4  2  0
  3  2  1  0
  4  5  1  0
  5  6  2  0
  7  9  1  0
  8  7  2  0
  9  2  1  0
  3 11  1  0
  5 12  1  0
  7 13  1  0
  9 14  1  0
 15 16  1  0
 16 17  2  0
 17 18  1  0
 18 19  2  0
 18 20  1  0
 17 21  1  0
 21 22  1  0
 22 23  2  0
 22 24  1  0
 24 25  1  1
 24 26  1  0
 26 27  1  0
 27 28  1  0
 28 29  1  6
 28 16  1  0
 26 21  1  0
 15 30  1  0
 15 31  1  0
 20 32  1  0
 24 33  1  0
 26 34  1  6
 28 35  1  0
 10 15  1  0
M  ISO  5  11  14  12  14  13   6  25  15  29  15
M  END
>  <DihAtoms>  (1) 
0,9,14,15

>  <DihDeg>  (1) 
179.99704446366053

$$$$
