
     RDKit          3D

 35 37  0  0  0  0  0  0  0  0999 V2000
   36.7746   29.6761   51.1201 C   0  0  0  0  0  0  0  0  0  0  0  0
   37.3018   30.0636   49.8932 C   0  0  0  0  0  0  0  0  0  0  0  0
   36.5491   29.8559   48.7451 C   0  0  0  0  0  0  0  0  0  0  0  0
   35.3289   29.2798   48.8939 N   0  0  0  0  0  0  0  0  0  0  0  0
   34.8335   28.9096   50.0982 C   0  0  0  0  0  0  0  0  0  0  0  0
   35.5647   29.1119   51.2085 N   0  0  0  0  0  0  0  0  0  0  0  0
   38.6259   32.0654   49.4973 C   0  0  0  0  0  0  0  0  0  0  0  0
   37.8059   33.0382   49.4576 O   0  0  0  0  0  0  0  0  0  0  0  0
   38.5478   30.6593   49.6787 N   0  0  0  0  0  0  0  0  0  0  0  0
   37.6616   29.9592   52.1515 O   0  0  0  0  0  0  0  0  0  0  0  0
   36.8812   30.1263   47.7502 H   0  0  0  0  0  0  0  0  0  0  0  0
   33.8788   28.4545   50.2507 H   0  0  0  0  0  0  0  0  0  0  0  0
   39.5759   32.5849   49.3400 H   0  0  0  0  0  0  0  0  0  0  0  0
   39.4743   30.1798   49.6323 H   0  0  0  0  0  0  0  0  0  0  0  0
   37.1965   29.5918   53.4494 C   0  0  0  0  0  0  0  0  0  0  0  0
   37.2660   28.1305   53.6585 C   0  0  0  0  0  0  0  0  0  0  0  0
   36.1963   27.4150   53.9238 C   0  0  0  0  0  0  0  0  0  0  0  0
   34.8840   28.0344   54.0248 C   0  0  0  0  0  0  0  0  0  0  0  0
   33.7901   27.4455   54.2737 O   0  0  0  0  0  0  0  0  0  0  0  0
   33.8483   28.9402   54.0425 O   0  0  0  0  0  0  0  0  0  0  0  0
   36.1663   26.0171   54.1404 N   0  0  0  0  0  0  0  0  0  0  0  0
   35.5053   24.7596   54.2727 C   0  0  0  0  0  0  0  0  0  0  0  0
   34.5205   24.2590   53.6293 O   0  0  0  0  0  0  0  0  0  0  0  0
   36.5050   24.5177   55.3852 C   0  0  1  0  0  0  0  0  0  0  0  0
   36.1742   25.0857   56.2648 H   0  0  0  0  0  0  0  0  0  0  0  0
   37.3535   25.2214   54.3873 C   0  0  2  0  0  0  0  0  0  0  0  0
   38.6479   26.3148   54.9273 S   0  0  0  0  0  0  0  0  0  0  0  0
   38.6216   27.5442   53.5504 C   0  0  2  0  0  0  0  0  0  0  0  0
   39.4205   28.2649   53.6959 H   0  0  0  0  0  0  0  0  0  0  0  0
   37.8066   30.1548   54.2100 H   0  0  0  0  0  0  0  0  0  0  0  0
   36.1832   30.0213   53.5252 H   0  0  0  0  0  0  0  0  0  0  0  0
   33.9664   29.8920   54.4166 H   0  0  0  0  0  0  0  0  0  0  0  0
   36.7112   23.4531   55.5741 H   0  0  0  0  0  0  0  0  0  0  0  0
   37.6148   24.5199   53.5662 H   0  0  0  0  0  0  0  0  0  0  0  0
   38.7738   27.0330   52.5804 H   0  0  0  0  0  0  0  0  0  0  0  0
  1  6  1  0
  1 10  1  0
  2  1  2  0
  3  4  2  0
  3  2  1  0
  4  5  1  0
  5  6  2  0
  7  9  1  0
  8  7  2  0
  9  2  1  0
  3 11  1  0
  5 12  1  0
  7 13  1  0
  9 14  1  0
 15 16  1  0
 16 17  2  0
 17 18  1  0
 18 19  2  0
 18 20  1  0
 17 21  1  0
 21 22  1  0
 22 23  2  0
 22 24  1  0
 24 25  1  1
 24 26  1  0
 26 27  1  0
 27 28  1  0
 28 29  1  1
 28 16  1  0
 26 21  1  0
 15 30  1  0
 15 31  1  0
 20 32  1  0
 24 33  1  0
 26 34  1  6
 28 35  1  0
 10 15  1  0
M  ISO  5  11  14  12  14  13   6  25  15  29  15
M  END
>  <DihAtoms>  (1) 
0,9,14,15

>  <DihDeg>  (1) 
179.99704446366053

$$$$
