
     RDKit          3D

 35 37  0  0  0  0  0  0  0  0999 V2000
   36.7746   29.6761   51.1201 C   0  0  0  0  0  0  0  0  0  0  0  0
   37.3018   30.0636   49.8932 C   0  0  0  0  0  0  0  0  0  0  0  0
   36.5491   29.8559   48.7451 C   0  0  0  0  0  0  0  0  0  0  0  0
   35.3289   29.2798   48.8939 N   0  0  0  0  0  0  0  0  0  0  0  0
   34.8335   28.9096   50.0982 C   0  0  0  0  0  0  0  0  0  0  0  0
   35.5647   29.1119   51.2085 N   0  0  0  0  0  0  0  0  0  0  0  0
   38.6259   32.0654   49.4973 C   0  0  0  0  0  0  0  0  0  0  0  0
   37.8059   33.0382   49.4576 O   0  0  0  0  0  0  0  0  0  0  0  0
   38.5478   30.6593   49.6787 N   0  0  0  0  0  0  0  0  0  0  0  0
   37.6616   29.9592   52.1515 O   0  0  0  0  0  0  0  0  0  0  0  0
   36.8812   30.1263   47.7502 H   0  0  0  0  0  0  0  0  0  0  0  0
   33.8788   28.4545   50.2507 H   0  0  0  0  0  0  0  0  0  0  0  0
   39.5759   32.5849   49.3400 H   0  0  0  0  0  0  0  0  0  0  0  0
   39.4743   30.1798   49.6323 H   0  0  0  0  0  0  0  0  0  0  0  0
   37.1965   29.5918   53.4494 C   0  0  0  0  0  0  0  0  0  0  0  0
   35.7913   29.9987   53.6589 C   0  0  0  0  0  0  0  0  0  0  0  0
   35.4431   30.8252   54.6192 C   0  0  0  0  0  0  0  0  0  0  0  0
   36.4336   31.3815   55.5276 C   0  0  0  0  0  0  0  0  0  0  0  0
   36.2130   32.1838   56.4833 O   0  0  0  0  0  0  0  0  0  0  0  0
   37.6101   31.6931   56.1698 O   0  0  0  0  0  0  0  0  0  0  0  0
   34.1280   31.2676   54.8963 N   0  0  0  0  0  0  0  0  0  0  0  0
   33.1749   32.1250   55.5225 C   0  0  0  0  0  0  0  0  0  0  0  0
   33.1957   33.3850   55.7379 O   0  0  0  0  0  0  0  0  0  0  0  0
   32.3667   30.8553   55.6962 C   0  0  1  0  0  0  0  0  0  0  0  0
   32.8032   30.2894   56.5298 H   0  0  0  0  0  0  0  0  0  0  0  0
   32.9419   30.6441   54.3415 C   0  0  2  0  0  0  0  0  0  0  0  0
   33.3802   29.0073   53.8019 S   0  0  0  0  0  0  0  0  0  0  0  0
   34.8179   29.4047   52.7139 C   0  0  2  0  0  0  0  0  0  0  0  0
   35.1720   28.4951   52.2387 H   0  0  0  0  0  0  0  0  0  0  0  0
   37.3344   28.4806   53.5669 H   0  0  0  0  0  0  0  0  0  0  0  0
   37.9173   30.0424   54.1526 H   0  0  0  0  0  0  0  0  0  0  0  0
   38.3565   30.9966   56.3025 H   0  0  0  0  0  0  0  0  0  0  0  0
   31.2818   31.0255   55.7720 H   0  0  0  0  0  0  0  0  0  0  0  0
   32.3941   31.2724   53.6068 H   0  0  0  0  0  0  0  0  0  0  0  0
   34.5141   30.1234   51.9288 H   0  0  0  0  0  0  0  0  0  0  0  0
  1  6  1  0
  1 10  1  0
  2  1  2  0
  3  4  2  0
  3  2  1  0
  4  5  1  0
  5  6  2  0
  7  9  1  0
  8  7  2  0
  9  2  1  0
  3 11  1  0
  5 12  1  0
  7 13  1  0
  9 14  1  0
 15 16  1  0
 16 17  2  0
 17 18  1  0
 18 19  2  0
 18 20  1  0
 17 21  1  0
 21 22  1  0
 22 23  2  0
 22 24  1  0
 24 25  1  1
 24 26  1  0
 26 27  1  0
 27 28  1  0
 28 29  1  6
 28 16  1  0
 26 21  1  0
 15 30  1  0
 15 31  1  0
 20 32  1  0
 24 33  1  0
 26 34  1  6
 28 35  1  0
 10 15  1  0
M  ISO  5  11  14  12  14  13   6  25  15  29  15
M  END
>  <DihAtoms>  (1) 
0,9,14,15

>  <DihDeg>  (1) 
179.99704446366053

$$$$
