
     RDKit          3D

 35 37  0  0  0  0  0  0  0  0999 V2000
   36.7746   29.6761   51.1201 C   0  0  0  0  0  0  0  0  0  0  0  0
   37.3018   30.0636   49.8932 C   0  0  0  0  0  0  0  0  0  0  0  0
   36.5491   29.8559   48.7451 C   0  0  0  0  0  0  0  0  0  0  0  0
   35.3289   29.2798   48.8939 N   0  0  0  0  0  0  0  0  0  0  0  0
   34.8335   28.9096   50.0982 C   0  0  0  0  0  0  0  0  0  0  0  0
   35.5647   29.1119   51.2085 N   0  0  0  0  0  0  0  0  0  0  0  0
   38.6259   32.0654   49.4973 C   0  0  0  0  0  0  0  0  0  0  0  0
   37.8059   33.0382   49.4576 O   0  0  0  0  0  0  0  0  0  0  0  0
   38.5478   30.6593   49.6787 N   0  0  0  0  0  0  0  0  0  0  0  0
   37.6616   29.9592   52.1515 O   0  0  0  0  0  0  0  0  0  0  0  0
   36.8812   30.1263   47.7502 H   0  0  0  0  0  0  0  0  0  0  0  0
   33.8788   28.4545   50.2507 H   0  0  0  0  0  0  0  0  0  0  0  0
   39.5759   32.5849   49.3400 H   0  0  0  0  0  0  0  0  0  0  0  0
   39.4743   30.1798   49.6323 H   0  0  0  0  0  0  0  0  0  0  0  0
   37.1965   29.5918   53.4494 C   0  0  0  0  0  0  0  0  0  0  0  0
   37.8706   28.3732   53.9439 C   0  0  0  0  0  0  0  0  0  0  0  0
   37.2017   27.2835   54.2469 C   0  0  0  0  0  0  0  0  0  0  0  0
   35.7548   27.2272   54.1084 C   0  0  0  0  0  0  0  0  0  0  0  0
   35.0111   26.2348   54.3686 O   0  0  0  0  0  0  0  0  0  0  0  0
   34.4383   27.5393   53.8574 O   0  0  0  0  0  0  0  0  0  0  0  0
   37.7589   26.0750   54.7275 N   0  0  0  0  0  0  0  0  0  0  0  0
   37.7125   24.6842   55.0423 C   0  0  0  0  0  0  0  0  0  0  0  0
   37.1761   23.7026   54.4234 O   0  0  0  0  0  0  0  0  0  0  0  0
   38.5124   25.0849   56.2651 C   0  0  1  0  0  0  0  0  0  0  0  0
   37.8211   25.5434   56.9845 H   0  0  0  0  0  0  0  0  0  0  0  0
   39.1153   25.9647   55.2291 C   0  0  2  0  0  0  0  0  0  0  0  0
   39.6787   27.5956   55.6593 S   0  0  0  0  0  0  0  0  0  0  0  0
   39.3422   28.4778   54.0729 C   0  0  2  0  0  0  0  0  0  0  0  0
   39.7012   29.4998   54.1461 H   0  0  0  0  0  0  0  0  0  0  0  0
   37.3557   30.4688   54.1373 H   0  0  0  0  0  0  0  0  0  0  0  0
   36.1012   29.5053   53.3497 H   0  0  0  0  0  0  0  0  0  0  0  0
   34.0570   28.4763   54.0484 H   0  0  0  0  0  0  0  0  0  0  0  0
   39.1344   24.2744   56.6749 H   0  0  0  0  0  0  0  0  0  0  0  0
   39.7948   25.3647   54.5865 H   0  0  0  0  0  0  0  0  0  0  0  0
   39.8663   27.9738   53.2383 H   0  0  0  0  0  0  0  0  0  0  0  0
  1  6  1  0
  1 10  1  0
  2  1  2  0
  3  4  2  0
  3  2  1  0
  4  5  1  0
  5  6  2  0
  7  9  1  0
  8  7  2  0
  9  2  1  0
  3 11  1  0
  5 12  1  0
  7 13  1  0
  9 14  1  0
 15 16  1  0
 16 17  2  0
 17 18  1  0
 18 19  2  0
 18 20  1  0
 17 21  1  0
 21 22  1  0
 22 23  2  0
 22 24  1  0
 24 25  1  1
 24 26  1  0
 26 27  1  0
 27 28  1  0
 28 29  1  1
 28 16  1  0
 26 21  1  0
 15 30  1  0
 15 31  1  0
 20 32  1  0
 24 33  1  0
 26 34  1  6
 28 35  1  0
 10 15  1  0
M  ISO  5  11  14  12  14  13   6  25  15  29  15
M  END
>  <DihAtoms>  (1) 
0,9,14,15

>  <DihDeg>  (1) 
179.99704446366053

$$$$
