
     RDKit          3D

 35 37  0  0  0  0  0  0  0  0999 V2000
   36.7746   29.6761   51.1201 C   0  0  0  0  0  0  0  0  0  0  0  0
   37.3018   30.0636   49.8932 C   0  0  0  0  0  0  0  0  0  0  0  0
   36.5491   29.8559   48.7451 C   0  0  0  0  0  0  0  0  0  0  0  0
   35.3289   29.2798   48.8939 N   0  0  0  0  0  0  0  0  0  0  0  0
   34.8335   28.9096   50.0982 C   0  0  0  0  0  0  0  0  0  0  0  0
   35.5647   29.1119   51.2085 N   0  0  0  0  0  0  0  0  0  0  0  0
   38.6259   32.0654   49.4973 C   0  0  0  0  0  0  0  0  0  0  0  0
   37.8059   33.0382   49.4576 O   0  0  0  0  0  0  0  0  0  0  0  0
   38.5478   30.6593   49.6787 N   0  0  0  0  0  0  0  0  0  0  0  0
   37.6616   29.9592   52.1515 O   0  0  0  0  0  0  0  0  0  0  0  0
   36.8812   30.1263   47.7502 H   0  0  0  0  0  0  0  0  0  0  0  0
   33.8788   28.4545   50.2507 H   0  0  0  0  0  0  0  0  0  0  0  0
   39.5759   32.5849   49.3400 H   0  0  0  0  0  0  0  0  0  0  0  0
   39.4743   30.1798   49.6323 H   0  0  0  0  0  0  0  0  0  0  0  0
   37.1965   29.5918   53.4494 C   0  0  0  0  0  0  0  0  0  0  0  0
   38.1874   29.9206   54.4954 C   0  0  0  0  0  0  0  0  0  0  0  0
   38.7092   28.9985   55.2726 C   0  0  0  0  0  0  0  0  0  0  0  0
   38.3316   27.6002   55.1374 C   0  0  0  0  0  0  0  0  0  0  0  0
   38.7689   26.6317   55.8275 O   0  0  0  0  0  0  0  0  0  0  0  0
   37.7500   26.4223   54.7279 O   0  0  0  0  0  0  0  0  0  0  0  0
   39.6588   29.2185   56.2982 N   0  0  0  0  0  0  0  0  0  0  0  0
   40.6312   28.7910   57.2507 C   0  0  0  0  0  0  0  0  0  0  0  0
   41.5415   27.8965   57.1749 O   0  0  0  0  0  0  0  0  0  0  0  0
   40.0012   29.8397   58.1446 C   0  0  1  0  0  0  0  0  0  0  0  0
   39.0564   29.4321   58.5279 H   0  0  0  0  0  0  0  0  0  0  0  0
   39.9718   30.5315   56.8287 C   0  0  2  0  0  0  0  0  0  0  0  0
   38.6289   31.6246   56.4236 S   0  0  0  0  0  0  0  0  0  0  0  0
   38.5382   31.3556   54.5994 C   0  0  2  0  0  0  0  0  0  0  0  0
   37.7907   32.0185   54.1744 H   0  0  0  0  0  0  0  0  0  0  0  0
   36.2120   30.1088   53.6256 H   0  0  0  0  0  0  0  0  0  0  0  0
   36.9441   28.5206   53.3730 H   0  0  0  0  0  0  0  0  0  0  0  0
   36.7668   26.3791   54.4258 H   0  0  0  0  0  0  0  0  0  0  0  0
   40.6808   30.2331   58.9159 H   0  0  0  0  0  0  0  0  0  0  0  0
   40.9920   30.8953   56.5810 H   0  0  0  0  0  0  0  0  0  0  0  0
   39.5176   31.5756   54.1329 H   0  0  0  0  0  0  0  0  0  0  0  0
  1  6  1  0
  1 10  1  0
  2  1  2  0
  3  4  2  0
  3  2  1  0
  4  5  1  0
  5  6  2  0
  7  9  1  0
  8  7  2  0
  9  2  1  0
  3 11  1  0
  5 12  1  0
  7 13  1  0
  9 14  1  0
 15 16  1  0
 16 17  2  0
 17 18  1  0
 18 19  2  0
 18 20  1  0
 17 21  1  0
 21 22  1  0
 22 23  2  0
 22 24  1  0
 24 25  1  1
 24 26  1  0
 26 27  1  0
 27 28  1  0
 28 29  1  6
 28 16  1  0
 26 21  1  0
 15 30  1  0
 15 31  1  0
 20 32  1  0
 24 33  1  0
 26 34  1  6
 28 35  1  0
 10 15  1  0
M  ISO  5  11  14  12  14  13   6  25  15  29  15
M  END
>  <DihAtoms>  (1) 
0,9,14,15

>  <DihDeg>  (1) 
179.99704446366053

$$$$
