
     RDKit          3D

 35 37  0  0  0  0  0  0  0  0999 V2000
   36.7746   29.6761   51.1201 C   0  0  0  0  0  0  0  0  0  0  0  0
   37.3018   30.0636   49.8932 C   0  0  0  0  0  0  0  0  0  0  0  0
   36.5491   29.8559   48.7451 C   0  0  0  0  0  0  0  0  0  0  0  0
   35.3289   29.2798   48.8939 N   0  0  0  0  0  0  0  0  0  0  0  0
   34.8335   28.9096   50.0982 C   0  0  0  0  0  0  0  0  0  0  0  0
   35.5647   29.1119   51.2085 N   0  0  0  0  0  0  0  0  0  0  0  0
   38.6259   32.0654   49.4973 C   0  0  0  0  0  0  0  0  0  0  0  0
   37.8059   33.0382   49.4576 O   0  0  0  0  0  0  0  0  0  0  0  0
   38.5478   30.6593   49.6787 N   0  0  0  0  0  0  0  0  0  0  0  0
   37.6616   29.9592   52.1515 O   0  0  0  0  0  0  0  0  0  0  0  0
   36.8812   30.1263   47.7502 H   0  0  0  0  0  0  0  0  0  0  0  0
   33.8788   28.4545   50.2507 H   0  0  0  0  0  0  0  0  0  0  0  0
   39.5759   32.5849   49.3400 H   0  0  0  0  0  0  0  0  0  0  0  0
   39.4743   30.1798   49.6323 H   0  0  0  0  0  0  0  0  0  0  0  0
   37.1965   29.5918   53.4494 C   0  0  0  0  0  0  0  0  0  0  0  0
   37.4433   30.6617   54.4386 C   0  0  0  0  0  0  0  0  0  0  0  0
   38.1900   30.4661   55.5019 C   0  0  0  0  0  0  0  0  0  0  0  0
   38.8126   29.1762   55.7558 C   0  0  0  0  0  0  0  0  0  0  0  0
   39.5490   28.8762   56.7424 O   0  0  0  0  0  0  0  0  0  0  0  0
   39.2221   27.8657   55.6640 O   0  0  0  0  0  0  0  0  0  0  0  0
   38.4791   31.4260   56.5003 N   0  0  0  0  0  0  0  0  0  0  0  0
   39.2052   31.9190   57.6252 C   0  0  0  0  0  0  0  0  0  0  0  0
   40.4509   31.8648   57.9075 O   0  0  0  0  0  0  0  0  0  0  0  0
   37.8510   32.4049   58.1002 C   0  0  1  0  0  0  0  0  0  0  0  0
   37.3026   31.5400   58.4962 H   0  0  0  0  0  0  0  0  0  0  0  0
   37.7552   32.6749   56.6412 C   0  0  2  0  0  0  0  0  0  0  0  0
   36.1966   32.5067   55.8017 S   0  0  0  0  0  0  0  0  0  0  0  0
   36.7866   31.9555   54.1415 C   0  0  2  0  0  0  0  0  0  0  0  0
   35.9390   31.8690   53.4686 H   0  0  0  0  0  0  0  0  0  0  0  0
   36.1025   29.3385   53.3683 H   0  0  0  0  0  0  0  0  0  0  0  0
   37.6934   28.6326   53.6732 H   0  0  0  0  0  0  0  0  0  0  0  0
   38.6042   27.1288   55.2964 H   0  0  0  0  0  0  0  0  0  0  0  0
   37.9019   33.2695   58.7796 H   0  0  0  0  0  0  0  0  0  0  0  0
   38.3499   33.5804   56.3943 H   0  0  0  0  0  0  0  0  0  0  0  0
   37.4990   32.6938   53.7260 H   0  0  0  0  0  0  0  0  0  0  0  0
  1  6  1  0
  1 10  1  0
  2  1  2  0
  3  4  2  0
  3  2  1  0
  4  5  1  0
  5  6  2  0
  7  9  1  0
  8  7  2  0
  9  2  1  0
  3 11  1  0
  5 12  1  0
  7 13  1  0
  9 14  1  0
 15 16  1  0
 16 17  2  0
 17 18  1  0
 18 19  2  0
 18 20  1  0
 17 21  1  0
 21 22  1  0
 22 23  2  0
 22 24  1  0
 24 25  1  1
 24 26  1  0
 26 27  1  0
 27 28  1  0
 28 29  1  6
 28 16  1  0
 26 21  1  0
 15 30  1  0
 15 31  1  0
 20 32  1  0
 24 33  1  0
 26 34  1  1
 28 35  1  0
 10 15  1  0
M  ISO  5  11  14  12  14  13   6  25  15  29  15
M  END
>  <DihAtoms>  (1) 
0,9,14,15

>  <DihDeg>  (1) 
179.99704446366053

$$$$
