
     RDKit          3D

 35 37  0  0  0  0  0  0  0  0999 V2000
   36.7746   29.6761   51.1201 C   0  0  0  0  0  0  0  0  0  0  0  0
   37.3018   30.0636   49.8932 C   0  0  0  0  0  0  0  0  0  0  0  0
   36.5491   29.8559   48.7451 C   0  0  0  0  0  0  0  0  0  0  0  0
   35.3289   29.2798   48.8939 N   0  0  0  0  0  0  0  0  0  0  0  0
   34.8335   28.9096   50.0982 C   0  0  0  0  0  0  0  0  0  0  0  0
   35.5647   29.1119   51.2085 N   0  0  0  0  0  0  0  0  0  0  0  0
   38.6259   32.0654   49.4973 C   0  0  0  0  0  0  0  0  0  0  0  0
   37.8059   33.0382   49.4576 O   0  0  0  0  0  0  0  0  0  0  0  0
   38.5478   30.6593   49.6787 N   0  0  0  0  0  0  0  0  0  0  0  0
   37.6616   29.9592   52.1515 O   0  0  0  0  0  0  0  0  0  0  0  0
   36.8812   30.1263   47.7502 H   0  0  0  0  0  0  0  0  0  0  0  0
   33.8788   28.4545   50.2507 H   0  0  0  0  0  0  0  0  0  0  0  0
   39.5759   32.5849   49.3400 H   0  0  0  0  0  0  0  0  0  0  0  0
   39.4743   30.1798   49.6323 H   0  0  0  0  0  0  0  0  0  0  0  0
   37.1965   29.5918   53.4494 C   0  0  0  0  0  0  0  0  0  0  0  0
   36.5952   28.2418   53.4496 C   0  0  0  0  0  0  0  0  0  0  0  0
   35.3437   28.0387   53.7949 C   0  0  0  0  0  0  0  0  0  0  0  0
   34.4863   29.1431   54.1962 C   0  0  0  0  0  0  0  0  0  0  0  0
   33.2710   29.0648   54.5461 O   0  0  0  0  0  0  0  0  0  0  0  0
   33.9983   30.3916   54.5071 O   0  0  0  0  0  0  0  0  0  0  0  0
   34.6851   26.7869   53.8276 N   0  0  0  0  0  0  0  0  0  0  0  0
   33.5290   25.9542   53.9026 C   0  0  0  0  0  0  0  0  0  0  0  0
   32.3715   26.0781   53.3742 O   0  0  0  0  0  0  0  0  0  0  0  0
   34.3953   25.0829   54.7892 C   0  0  1  0  0  0  0  0  0  0  0  0
   34.4471   25.5556   55.7789 H   0  0  0  0  0  0  0  0  0  0  0  0
   35.3813   25.5161   53.7640 C   0  0  2  0  0  0  0  0  0  0  0  0
   37.0783   25.7936   54.2174 S   0  0  0  0  0  0  0  0  0  0  0  0
   37.5057   27.1486   53.0385 C   0  0  2  0  0  0  0  0  0  0  0  0
   38.5577   27.3965   53.1409 H   0  0  0  0  0  0  0  0  0  0  0  0
   38.0636   29.6659   54.1637 H   0  0  0  0  0  0  0  0  0  0  0  0
   36.5114   30.4024   53.7507 H   0  0  0  0  0  0  0  0  0  0  0  0
   34.5792   31.0992   54.9780 H   0  0  0  0  0  0  0  0  0  0  0  0
   34.0974   24.0233   54.7989 H   0  0  0  0  0  0  0  0  0  0  0  0
   35.2113   24.9461   52.8255 H   0  0  0  0  0  0  0  0  0  0  0  0
   37.3150   26.8223   51.9981 H   0  0  0  0  0  0  0  0  0  0  0  0
  1  6  1  0
  1 10  1  0
  2  1  2  0
  3  4  2  0
  3  2  1  0
  4  5  1  0
  5  6  2  0
  7  9  1  0
  8  7  2  0
  9  2  1  0
  3 11  1  0
  5 12  1  0
  7 13  1  0
  9 14  1  0
 15 16  1  0
 16 17  2  0
 17 18  1  0
 18 19  2  0
 18 20  1  0
 17 21  1  0
 21 22  1  0
 22 23  2  0
 22 24  1  0
 24 25  1  1
 24 26  1  0
 26 27  1  0
 27 28  1  0
 28 29  1  6
 28 16  1  0
 26 21  1  0
 15 30  1  0
 15 31  1  0
 20 32  1  0
 24 33  1  0
 26 34  1  6
 28 35  1  0
 10 15  1  0
M  ISO  5  11  14  12  14  13   6  25  15  29  15
M  END
>  <DihAtoms>  (1) 
0,9,14,15

>  <DihDeg>  (1) 
179.99704446366053

$$$$
