
     RDKit          3D

 52 56  0  0  1  0  0  0  0  0999 V2000
   33.5970   26.8990   45.6390 N   0  0  0  0  0  0  0  0  0  0  0  0
   33.8670   27.3300   46.8920 C   0  0  0  0  0  0  0  0  0  0  0  0
   33.4590   28.6050   47.2610 C   0  0  0  0  0  0  0  0  0  0  0  0
   32.7910   29.3960   46.3400 C   0  0  0  0  0  0  0  0  0  0  0  0
   32.3420   30.5620   46.4790 O   0  0  0  0  0  0  0  0  0  0  0  0
   32.5430   28.9310   45.0980 N   0  0  0  0  0  0  0  0  0  0  0  0
   32.9440   27.6740   44.7380 C   0  0  0  0  0  0  0  0  0  0  0  0
   32.7510   27.1630   43.6060 O   0  0  0  0  0  0  0  0  0  0  0  0
   33.6370   29.2240   48.4820 O   0  0  0  0  0  0  0  0  0  0  0  0
   36.4830   30.6650   50.2050 C   0  0  0  0  0  0  0  0  0  0  0  0
   37.2960   31.0340   49.1260 C   0  0  0  0  0  0  0  0  0  0  0  0
   36.8250   30.7700   47.8610 C   0  0  0  0  0  0  0  0  0  0  0  0
   35.6300   30.1810   47.7380 N   0  0  0  0  0  0  0  0  0  0  0  0
   34.8570   29.8300   48.7740 C   0  0  0  0  0  0  0  0  0  0  0  0
   35.2910   30.0760   50.0170 N   0  0  0  0  0  0  0  0  0  0  0  0
   37.5610   31.1110   46.6520 C   0  0  0  0  0  0  0  0  0  0  0  0
   37.2240   30.5410   45.4250 C   0  0  0  0  0  0  0  0  0  0  0  0
   37.8870   30.8380   44.2600 C   0  0  0  0  0  0  0  0  0  0  0  0
   38.9140   31.7220   44.2940 N   0  0  0  0  0  0  0  0  0  0  0  0
   39.2220   32.2580   45.4800 C   0  0  0  0  0  0  0  0  0  0  0  0
   38.5890   31.9840   46.6370 N   0  0  0  0  0  0  0  0  0  0  0  0
   40.3440   33.2310   45.5470 C   0  0  0  0  0  0  0  0  0  0  0  0
   40.2580   33.8880   46.7970 F   0  0  0  0  0  0  0  0  0  0  0  0
   41.5500   32.6200   45.3990 F   0  0  0  0  0  0  0  0  0  0  0  0
   40.2050   34.2400   44.6070 F   0  0  0  0  0  0  0  0  0  0  0  0
   31.9090   29.6840   44.0410 C   0  0  0  0  0  0  0  0  0  0  0  0
   32.5740   30.8200   43.4750 C   0  0  0  0  0  0  0  0  0  0  0  0
   33.7220   31.0240   42.8330 C   0  0  0  0  0  0  0  0  0  0  0  0
   34.1000   32.3280   42.3550 N   0  0  0  0  0  0  0  0  0  0  0  0
   35.1550   33.2920   42.3790 C   0  0  0  0  0  0  0  0  0  0  0  0
   36.4030   33.2560   42.5500 O   0  0  0  0  0  0  0  0  0  0  0  0
   34.0640   34.3060   42.1070 C   0  0  0  0  0  0  0  0  0  0  0  0
   33.2420   33.1900   41.5000 C   0  0  2  0  0  0  0  0  0  0  0  0
   31.5730   32.9760   42.1390 S   0  0  0  0  0  0  0  0  0  0  0  0
   31.7640   32.0480   43.7090 C   0  0  0  0  0  0  0  0  0  0  0  0
   34.5550   29.8450   42.6250 C   0  0  0  0  0  0  0  0  0  0  0  0
   35.3960   29.9040   41.6980 O   0  0  0  0  0  0  0  0  0  0  0  0
   35.3340   28.7490   42.4270 O   0  0  0  0  0  0  0  0  0  0  0  0
   33.8964   25.9536   45.3606 H   0  0  0  0  0  0  0  0  0  0  0  0
   34.3994   26.6833   47.6050 H   0  0  0  0  0  0  0  0  0  0  0  0
   36.8290   30.8623   51.2304 H   0  0  0  0  0  0  0  0  0  0  0  0
   38.2722   31.5157   49.2839 H   0  0  0  0  0  0  0  0  0  0  0  0
   36.3916   29.8228   45.3888 H   0  0  0  0  0  0  0  0  0  0  0  0
   37.5890   30.3653   43.3125 H   0  0  0  0  0  0  0  0  0  0  0  0
   31.7240   28.9802   43.2161 H   0  0  0  0  0  0  0  0  0  0  0  0
   31.0303   30.1244   44.5350 H   0  0  0  0  0  0  0  0  0  0  0  0
   33.6251   34.7565   43.0094 H   0  0  0  0  0  0  0  0  0  0  0  0
   34.2699   35.2325   41.5509 H   0  0  0  0  0  0  0  0  0  0  0  0
   33.0842   33.1583   40.4118 H   0  0  0  0  0  0  0  0  0  0  0  0
   30.7713   31.7637   44.0881 H   0  0  0  0  0  0  0  0  0  0  0  0
   32.2747   32.6843   44.4468 H   0  0  0  0  0  0  0  0  0  0  0  0
   35.2038   27.9418   42.9852 H   0  0  0  0  0  0  0  0  0  0  0  0
  1  2  1  0
  2  3  2  0
  3  9  1  0
  4  5  2  0
  4  3  1  0
  6  4  1  0
  7  6  1  0
  7  1  1  0
  8  7  2  0
  9 14  1  0
 11 10  2  0
 12 11  1  0
 13 12  2  0
 13 14  1  0
 14 15  2  0
 15 10  1  0
 16 12  1  0
 17 16  2  0
 18 19  2  0
 18 17  1  0
 19 20  1  0
 20 22  1  0
 20 21  2  0
 21 16  1  0
 22 23  1  0
 24 22  1  0
 25 22  1  0
 26  6  1  0
 27 35  1  0
 27 26  1  0
 28 27  2  0
 29 30  1  0
 29 28  1  0
 30 31  2  0
 32 30  1  0
 33 32  1  0
 33 34  1  0
 33 29  1  0
 34 35  1  0
 36 28  1  0
 37 36  2  0
 38 36  1  0
  1 39  1  0
  2 40  1  0
 10 41  1  0
 11 42  1  0
 17 43  1  0
 18 44  1  0
 26 45  1  0
 26 46  1  0
 32 47  1  0
 32 48  1  0
 33 49  1  6
 35 50  1  0
 35 51  1  0
 38 52  1  0
M  ISO  8  39   9  40  14  41  14  42  14  43  14  44  14  45   8  46   8
M  ISO  6  47  13  48  13  49  13  50  13  51  13  52   3
M  END
>  <minimizedAffinity>  (1) 
-5.97244263

>  <minimizedRMSD>  (1) 
2.18217993

$$$$
