
     RDKit          3D

 35 37  0  0  0  0  0  0  0  0999 V2000
   36.7746   29.6761   51.1201 C   0  0  0  0  0  0  0  0  0  0  0  0
   37.3018   30.0636   49.8932 C   0  0  0  0  0  0  0  0  0  0  0  0
   36.5491   29.8559   48.7451 C   0  0  0  0  0  0  0  0  0  0  0  0
   35.3289   29.2798   48.8939 N   0  0  0  0  0  0  0  0  0  0  0  0
   34.8335   28.9096   50.0982 C   0  0  0  0  0  0  0  0  0  0  0  0
   35.5647   29.1119   51.2085 N   0  0  0  0  0  0  0  0  0  0  0  0
   38.6259   32.0654   49.4973 C   0  0  0  0  0  0  0  0  0  0  0  0
   37.8059   33.0382   49.4576 O   0  0  0  0  0  0  0  0  0  0  0  0
   38.5478   30.6593   49.6787 N   0  0  0  0  0  0  0  0  0  0  0  0
   37.6616   29.9592   52.1515 O   0  0  0  0  0  0  0  0  0  0  0  0
   36.8812   30.1263   47.7502 H   0  0  0  0  0  0  0  0  0  0  0  0
   33.8788   28.4545   50.2507 H   0  0  0  0  0  0  0  0  0  0  0  0
   39.5759   32.5849   49.3400 H   0  0  0  0  0  0  0  0  0  0  0  0
   39.4743   30.1798   49.6323 H   0  0  0  0  0  0  0  0  0  0  0  0
   37.1965   29.5918   53.4494 C   0  0  0  0  0  0  0  0  0  0  0  0
   38.2947   29.5831   54.4383 C   0  0  0  0  0  0  0  0  0  0  0  0
   38.6248   28.4972   55.1004 C   0  0  0  0  0  0  0  0  0  0  0  0
   37.9179   27.2437   54.8882 C   0  0  0  0  0  0  0  0  0  0  0  0
   38.1501   26.1406   55.4667 O   0  0  0  0  0  0  0  0  0  0  0  0
   37.0502   26.2763   54.4358 O   0  0  0  0  0  0  0  0  0  0  0  0
   39.6559   28.3946   56.0639 N   0  0  0  0  0  0  0  0  0  0  0  0
   40.5507   27.6666   56.9036 C   0  0  0  0  0  0  0  0  0  0  0  0
   41.2158   26.5959   56.6901 O   0  0  0  0  0  0  0  0  0  0  0  0
   40.2403   28.7459   57.9206 C   0  0  1  0  0  0  0  0  0  0  0  0
   39.2488   28.5356   58.3431 H   0  0  0  0  0  0  0  0  0  0  0  0
   40.3022   29.5441   56.6677 C   0  0  2  0  0  0  0  0  0  0  0  0
   39.2378   30.9521   56.4514 S   0  0  0  0  0  0  0  0  0  0  0  0
   38.9827   30.8813   54.6244 C   0  0  2  0  0  0  0  0  0  0  0  0
   38.3918   31.7361   54.3099 H   0  0  0  0  0  0  0  0  0  0  0  0
   36.3751   30.3051   53.7396 H   0  0  0  0  0  0  0  0  0  0  0  0
   36.6922   28.6204   53.3110 H   0  0  0  0  0  0  0  0  0  0  0  0
   36.0696   26.4911   54.2076 H   0  0  0  0  0  0  0  0  0  0  0  0
   41.0366   28.8976   58.6653 H   0  0  0  0  0  0  0  0  0  0  0  0
   41.3641   29.6819   56.3709 H   0  0  0  0  0  0  0  0  0  0  0  0
   39.9583   30.9095   54.1023 H   0  0  0  0  0  0  0  0  0  0  0  0
  1  6  1  0
  1 10  1  0
  2  1  2  0
  3  4  2  0
  3  2  1  0
  4  5  1  0
  5  6  2  0
  7  9  1  0
  8  7  2  0
  9  2  1  0
  3 11  1  0
  5 12  1  0
  7 13  1  0
  9 14  1  0
 15 16  1  0
 16 17  2  0
 17 18  1  0
 18 19  2  0
 18 20  1  0
 17 21  1  0
 21 22  1  0
 22 23  2  0
 22 24  1  0
 24 25  1  1
 24 26  1  0
 26 27  1  0
 27 28  1  0
 28 29  1  6
 28 16  1  0
 26 21  1  0
 15 30  1  0
 15 31  1  0
 20 32  1  0
 24 33  1  0
 26 34  1  6
 28 35  1  0
 10 15  1  0
M  ISO  5  11  14  12  14  13   6  25  15  29  15
M  END
>  <DihAtoms>  (1) 
0,9,14,15

>  <DihDeg>  (1) 
179.99704446366053

$$$$
