
     RDKit          3D

 35 37  0  0  0  0  0  0  0  0999 V2000
   36.7746   29.6761   51.1201 C   0  0  0  0  0  0  0  0  0  0  0  0
   37.3018   30.0636   49.8932 C   0  0  0  0  0  0  0  0  0  0  0  0
   36.5491   29.8559   48.7451 C   0  0  0  0  0  0  0  0  0  0  0  0
   35.3289   29.2798   48.8939 N   0  0  0  0  0  0  0  0  0  0  0  0
   34.8335   28.9096   50.0982 C   0  0  0  0  0  0  0  0  0  0  0  0
   35.5647   29.1119   51.2085 N   0  0  0  0  0  0  0  0  0  0  0  0
   38.6259   32.0654   49.4973 C   0  0  0  0  0  0  0  0  0  0  0  0
   37.8059   33.0382   49.4576 O   0  0  0  0  0  0  0  0  0  0  0  0
   38.5478   30.6593   49.6787 N   0  0  0  0  0  0  0  0  0  0  0  0
   37.6616   29.9592   52.1515 O   0  0  0  0  0  0  0  0  0  0  0  0
   36.8812   30.1263   47.7502 H   0  0  0  0  0  0  0  0  0  0  0  0
   33.8788   28.4545   50.2507 H   0  0  0  0  0  0  0  0  0  0  0  0
   39.5759   32.5849   49.3400 H   0  0  0  0  0  0  0  0  0  0  0  0
   39.4743   30.1798   49.6323 H   0  0  0  0  0  0  0  0  0  0  0  0
   37.1965   29.5918   53.4494 C   0  0  0  0  0  0  0  0  0  0  0  0
   35.7438   29.3204   53.4499 C   0  0  0  0  0  0  0  0  0  0  0  0
   34.9089   30.0076   54.1964 C   0  0  0  0  0  0  0  0  0  0  0  0
   35.3810   31.0756   55.0638 C   0  0  0  0  0  0  0  0  0  0  0  0
   34.6699   31.8004   55.8218 O   0  0  0  0  0  0  0  0  0  0  0  0
   36.1702   31.9810   55.7353 O   0  0  0  0  0  0  0  0  0  0  0  0
   33.5083   29.8183   54.2640 N   0  0  0  0  0  0  0  0  0  0  0  0
   32.1835   30.2066   54.6242 C   0  0  0  0  0  0  0  0  0  0  0  0
   31.6066   31.3470   54.5915 O   0  0  0  0  0  0  0  0  0  0  0  0
   32.0060   28.7419   54.9688 C   0  0  1  0  0  0  0  0  0  0  0  0
   32.5009   28.5600   55.9319 H   0  0  0  0  0  0  0  0  0  0  0  0
   32.8343   28.6469   53.7376 C   0  0  2  0  0  0  0  0  0  0  0  0
   34.0371   27.3482   53.5676 S   0  0  0  0  0  0  0  0  0  0  0  0
   35.3096   28.2227   52.5556 C   0  0  2  0  0  0  0  0  0  0  0  0
   36.1048   27.5294   52.2996 H   0  0  0  0  0  0  0  0  0  0  0  0
   37.7910   28.6993   53.7924 H   0  0  0  0  0  0  0  0  0  0  0  0
   37.5126   30.4145   54.1129 H   0  0  0  0  0  0  0  0  0  0  0  0
   37.1138   31.7370   56.0668 H   0  0  0  0  0  0  0  0  0  0  0  0
   30.9627   28.3952   54.9131 H   0  0  0  0  0  0  0  0  0  0  0  0
   32.1971   28.8447   52.8489 H   0  0  0  0  0  0  0  0  0  0  0  0
   34.8556   28.6066   51.6218 H   0  0  0  0  0  0  0  0  0  0  0  0
  1  6  1  0
  1 10  1  0
  2  1  2  0
  3  4  2  0
  3  2  1  0
  4  5  1  0
  5  6  2  0
  7  9  1  0
  8  7  2  0
  9  2  1  0
  3 11  1  0
  5 12  1  0
  7 13  1  0
  9 14  1  0
 15 16  1  0
 16 17  2  0
 17 18  1  0
 18 19  2  0
 18 20  1  0
 17 21  1  0
 21 22  1  0
 22 23  2  0
 22 24  1  0
 24 25  1  1
 24 26  1  0
 26 27  1  0
 27 28  1  0
 28 29  1  6
 28 16  1  0
 26 21  1  0
 15 30  1  0
 15 31  1  0
 20 32  1  0
 24 33  1  0
 26 34  1  6
 28 35  1  0
 10 15  1  0
M  ISO  5  11  14  12  14  13   6  25  15  29  15
M  END
>  <DihAtoms>  (1) 
0,9,14,15

>  <DihDeg>  (1) 
179.99704446366053

$$$$
