
     RDKit          3D

 35 37  0  0  0  0  0  0  0  0999 V2000
   37.3846   30.1263   51.1026 C   0  0  0  0  0  0  0  0  0  0  0  0
   38.2197   30.8915   50.2567 C   0  0  0  0  0  0  0  0  0  0  0  0
   37.6863   31.4407   49.0881 C   0  0  0  0  0  0  0  0  0  0  0  0
   36.3737   31.1994   48.8347 N   0  0  0  0  0  0  0  0  0  0  0  0
   35.5887   30.4680   49.6496 C   0  0  0  0  0  0  0  0  0  0  0  0
   36.1048   29.9454   50.7659 N   0  0  0  0  0  0  0  0  0  0  0  0
   33.9101   28.8331   49.2051 C   0  0  0  0  0  0  0  0  0  0  0  0
   34.6857   27.8453   49.3107 O   0  0  0  0  0  0  0  0  0  0  0  0
   34.2103   30.2361   49.3482 N   0  0  0  0  0  0  0  0  0  0  0  0
   38.0671   29.6632   52.2034 O   0  0  0  0  0  0  0  0  0  0  0  0
   39.2599   31.0990   50.4307 H   0  0  0  0  0  0  0  0  0  0  0  0
   38.2893   32.0375   48.4044 H   0  0  0  0  0  0  0  0  0  0  0  0
   32.8680   28.5650   48.9718 H   0  0  0  0  0  0  0  0  0  0  0  0
   33.5097   30.9820   49.2444 H   0  0  0  0  0  0  0  0  0  0  0  0
   37.3883   28.8714   53.1705 C   0  0  0  0  0  0  0  0  0  0  0  0
   37.9408   29.0392   54.5107 C   0  0  0  0  0  0  0  0  0  0  0  0
   37.2807   29.4747   55.5548 C   0  0  0  0  0  0  0  0  0  0  0  0
   35.8745   29.8591   55.5210 C   0  0  0  0  0  0  0  0  0  0  0  0
   34.9472   29.9165   54.7065 O   0  0  0  0  0  0  0  0  0  0  0  0
   35.1886   30.3196   56.6049 O   0  0  0  0  0  0  0  0  0  0  0  0
   37.9723   29.5750   56.7928 N   0  0  0  0  0  0  0  0  0  0  0  0
   38.1836   30.3142   57.9963 C   0  0  0  0  0  0  0  0  0  0  0  0
   37.6811   31.3278   58.5861 O   0  0  0  0  0  0  0  0  0  0  0  0
   39.2953   29.4642   58.4258 C   0  0  1  0  0  0  0  0  0  0  0  0
   40.3091   29.9025   58.3455 H   0  0  0  0  0  0  0  0  0  0  0  0
   38.9671   28.5926   57.2571 C   0  0  2  0  0  0  0  0  0  0  0  0
   40.2315   28.5865   55.9479 S   0  0  0  0  0  0  0  0  0  0  0  0
   39.3485   28.6200   54.3665 C   0  0  2  0  0  0  0  0  0  0  0  0
   39.8866   29.3701   53.7144 H   0  0  0  0  0  0  0  0  0  0  0  0
   36.3235   29.1129   53.1541 H   0  0  0  0  0  0  0  0  0  0  0  0
   37.4295   27.7801   52.8749 H   0  0  0  0  0  0  0  0  0  0  0  0
   34.6385   31.1821   56.6680 H   0  0  0  0  0  0  0  0  0  0  0  0
   39.1712   28.9088   59.3912 H   0  0  0  0  0  0  0  0  0  0  0  0
   38.5056   27.6254   57.4852 H   0  0  0  0  0  0  0  0  0  0  0  0
   39.4683   27.5984   53.9357 H   0  0  0  0  0  0  0  0  0  0  0  0
  1 10  1  0
  2  1  2  0
  3  2  1  0
  4  3  2  0
  4  5  1  0
  5  6  2  0
  6  1  1  0
  7  8  2  0
  7  9  1  0
  9  5  1  0
  2 11  1  0
  3 12  1  0
  7 13  1  0
  9 14  1  0
 15 16  1  0
 16 17  2  0
 17 18  1  0
 18 19  2  0
 18 20  1  0
 17 21  1  0
 21 22  1  0
 22 23  2  0
 22 24  1  0
 24 25  1  6
 24 26  1  0
 26 27  1  0
 27 28  1  0
 28 29  1  6
 28 16  1  0
 26 21  1  0
 15 30  1  0
 15 31  1  0
 20 32  1  0
 24 33  1  0
 26 34  1  1
 28 35  1  0
 10 15  1  0
M  ISO  5  11  14  12  14  13   6  25  15  29  15
M  END
>  <DihAtoms>  (1) 
0,9,14,15

>  <DihDeg>  (1) 
-179.99981524074153

$$$$
