
     RDKit          3D

 35 37  0  0  0  0  0  0  0  0999 V2000
   37.3846   30.1263   51.1026 C   0  0  0  0  0  0  0  0  0  0  0  0
   38.2197   30.8915   50.2567 C   0  0  0  0  0  0  0  0  0  0  0  0
   37.6863   31.4407   49.0881 C   0  0  0  0  0  0  0  0  0  0  0  0
   36.3737   31.1994   48.8347 N   0  0  0  0  0  0  0  0  0  0  0  0
   35.5887   30.4680   49.6496 C   0  0  0  0  0  0  0  0  0  0  0  0
   36.1048   29.9454   50.7659 N   0  0  0  0  0  0  0  0  0  0  0  0
   33.9101   28.8331   49.2051 C   0  0  0  0  0  0  0  0  0  0  0  0
   34.6857   27.8453   49.3107 O   0  0  0  0  0  0  0  0  0  0  0  0
   34.2103   30.2361   49.3482 N   0  0  0  0  0  0  0  0  0  0  0  0
   38.0671   29.6632   52.2034 O   0  0  0  0  0  0  0  0  0  0  0  0
   39.2599   31.0990   50.4307 H   0  0  0  0  0  0  0  0  0  0  0  0
   38.2893   32.0375   48.4044 H   0  0  0  0  0  0  0  0  0  0  0  0
   32.8680   28.5650   48.9718 H   0  0  0  0  0  0  0  0  0  0  0  0
   33.5097   30.9820   49.2444 H   0  0  0  0  0  0  0  0  0  0  0  0
   37.3883   28.8714   53.1705 C   0  0  0  0  0  0  0  0  0  0  0  0
   38.3097   28.1818   54.0677 C   0  0  0  0  0  0  0  0  0  0  0  0
   38.3540   28.3271   55.3685 C   0  0  0  0  0  0  0  0  0  0  0  0
   37.4705   29.2157   56.1144 C   0  0  0  0  0  0  0  0  0  0  0  0
   36.5418   30.0004   55.8944 O   0  0  0  0  0  0  0  0  0  0  0  0
   37.5206   29.3736   57.4672 O   0  0  0  0  0  0  0  0  0  0  0  0
   39.3149   27.5735   56.0964 N   0  0  0  0  0  0  0  0  0  0  0  0
   40.2507   27.5385   57.1746 C   0  0  0  0  0  0  0  0  0  0  0  0
   40.6041   28.2853   58.1468 O   0  0  0  0  0  0  0  0  0  0  0  0
   40.7644   26.2198   56.8006 C   0  0  1  0  0  0  0  0  0  0  0  0
   41.7697   26.1969   56.3369 H   0  0  0  0  0  0  0  0  0  0  0  0
   39.6745   26.1806   55.7788 C   0  0  2  0  0  0  0  0  0  0  0  0
   40.2586   26.2531   54.0566 S   0  0  0  0  0  0  0  0  0  0  0  0
   39.1218   27.3447   53.1633 C   0  0  2  0  0  0  0  0  0  0  0  0
   39.7625   28.0187   52.5208 H   0  0  0  0  0  0  0  0  0  0  0  0
   36.6943   29.5005   53.7317 H   0  0  0  0  0  0  0  0  0  0  0  0
   36.7223   28.1166   52.6541 H   0  0  0  0  0  0  0  0  0  0  0  0
   37.5956   30.2551   57.9846 H   0  0  0  0  0  0  0  0  0  0  0  0
   40.6463   25.3938   57.5487 H   0  0  0  0  0  0  0  0  0  0  0  0
   38.8453   25.4926   55.9773 H   0  0  0  0  0  0  0  0  0  0  0  0
   38.5152   26.6744   52.5102 H   0  0  0  0  0  0  0  0  0  0  0  0
  1 10  1  0
  2  1  2  0
  3  2  1  0
  4  3  2  0
  4  5  1  0
  5  6  2  0
  6  1  1  0
  7  8  2  0
  7  9  1  0
  9  5  1  0
  2 11  1  0
  3 12  1  0
  7 13  1  0
  9 14  1  0
 15 16  1  0
 16 17  2  0
 17 18  1  0
 18 19  2  0
 18 20  1  0
 17 21  1  0
 21 22  1  0
 22 23  2  0
 22 24  1  0
 24 25  1  6
 24 26  1  0
 26 27  1  0
 27 28  1  0
 28 29  1  6
 28 16  1  0
 26 21  1  0
 15 30  1  0
 15 31  1  0
 20 32  1  0
 24 33  1  0
 26 34  1  6
 28 35  1  0
 10 15  1  0
M  ISO  5  11  14  12  14  13   6  25  15  29  15
M  END
>  <DihAtoms>  (1) 
0,9,14,15

>  <DihDeg>  (1) 
-179.99981524074153

$$$$
