
     RDKit          3D

 35 37  0  0  0  0  0  0  0  0999 V2000
   37.3846   30.1263   51.1026 C   0  0  0  0  0  0  0  0  0  0  0  0
   38.2197   30.8915   50.2567 C   0  0  0  0  0  0  0  0  0  0  0  0
   37.6863   31.4407   49.0881 C   0  0  0  0  0  0  0  0  0  0  0  0
   36.3737   31.1994   48.8347 N   0  0  0  0  0  0  0  0  0  0  0  0
   35.5887   30.4680   49.6496 C   0  0  0  0  0  0  0  0  0  0  0  0
   36.1048   29.9454   50.7659 N   0  0  0  0  0  0  0  0  0  0  0  0
   33.9101   28.8331   49.2051 C   0  0  0  0  0  0  0  0  0  0  0  0
   34.6857   27.8453   49.3107 O   0  0  0  0  0  0  0  0  0  0  0  0
   34.2103   30.2361   49.3482 N   0  0  0  0  0  0  0  0  0  0  0  0
   38.0671   29.6632   52.2034 O   0  0  0  0  0  0  0  0  0  0  0  0
   39.2599   31.0990   50.4307 H   0  0  0  0  0  0  0  0  0  0  0  0
   38.2893   32.0375   48.4044 H   0  0  0  0  0  0  0  0  0  0  0  0
   32.8680   28.5650   48.9718 H   0  0  0  0  0  0  0  0  0  0  0  0
   33.5097   30.9820   49.2444 H   0  0  0  0  0  0  0  0  0  0  0  0
   37.3883   28.8714   53.1705 C   0  0  0  0  0  0  0  0  0  0  0  0
   35.9704   29.2040   53.2626 C   0  0  0  0  0  0  0  0  0  0  0  0
   34.9805   28.3757   53.0405 C   0  0  0  0  0  0  0  0  0  0  0  0
   35.1627   26.9790   52.6633 C   0  0  0  0  0  0  0  0  0  0  0  0
   36.0878   26.1872   52.4537 O   0  0  0  0  0  0  0  0  0  0  0  0
   34.1336   26.1180   52.4244 O   0  0  0  0  0  0  0  0  0  0  0  0
   33.6523   28.8638   53.1783 N   0  0  0  0  0  0  0  0  0  0  0  0
   32.3122   28.8605   52.6851 C   0  0  0  0  0  0  0  0  0  0  0  0
   31.6274   28.2376   51.8071 O   0  0  0  0  0  0  0  0  0  0  0  0
   31.8818   29.9217   53.5969 C   0  0  1  0  0  0  0  0  0  0  0  0
   31.7156   30.9197   53.1467 H   0  0  0  0  0  0  0  0  0  0  0  0
   33.2320   29.8088   54.2274 C   0  0  2  0  0  0  0  0  0  0  0  0
   34.3013   31.2597   53.9742 S   0  0  0  0  0  0  0  0  0  0  0  0
   35.9670   30.6309   53.6395 C   0  0  2  0  0  0  0  0  0  0  0  0
   36.3708   31.2367   52.7749 H   0  0  0  0  0  0  0  0  0  0  0  0
   37.5269   27.8141   52.9353 H   0  0  0  0  0  0  0  0  0  0  0  0
   37.8758   28.9961   54.1837 H   0  0  0  0  0  0  0  0  0  0  0  0
   33.9953   25.5349   51.5930 H   0  0  0  0  0  0  0  0  0  0  0  0
   31.0719   29.6695   54.3292 H   0  0  0  0  0  0  0  0  0  0  0  0
   33.2682   29.3519   55.2226 H   0  0  0  0  0  0  0  0  0  0  0  0
   36.5598   30.8517   54.5578 H   0  0  0  0  0  0  0  0  0  0  0  0
  1 10  1  0
  2  1  2  0
  3  2  1  0
  4  3  2  0
  4  5  1  0
  5  6  2  0
  6  1  1  0
  7  8  2  0
  7  9  1  0
  9  5  1  0
  2 11  1  0
  3 12  1  0
  7 13  1  0
  9 14  1  0
 15 16  1  0
 16 17  2  0
 17 18  1  0
 18 19  2  0
 18 20  1  0
 17 21  1  0
 21 22  1  0
 22 23  2  0
 22 24  1  0
 24 25  1  6
 24 26  1  0
 26 27  1  0
 27 28  1  0
 28 29  1  6
 28 16  1  0
 26 21  1  0
 15 30  1  0
 15 31  1  0
 20 32  1  0
 24 33  1  0
 26 34  1  1
 28 35  1  0
 10 15  1  0
M  ISO  5  11  14  12  14  13   6  25  15  29  15
M  END
>  <DihAtoms>  (1) 
0,9,14,15

>  <DihDeg>  (1) 
-179.99981524074153

$$$$
