
     RDKit          3D

 35 37  0  0  0  0  0  0  0  0999 V2000
   37.3846   30.1263   51.1026 C   0  0  0  0  0  0  0  0  0  0  0  0
   38.2197   30.8915   50.2567 C   0  0  0  0  0  0  0  0  0  0  0  0
   37.6863   31.4407   49.0881 C   0  0  0  0  0  0  0  0  0  0  0  0
   36.3737   31.1994   48.8347 N   0  0  0  0  0  0  0  0  0  0  0  0
   35.5887   30.4680   49.6496 C   0  0  0  0  0  0  0  0  0  0  0  0
   36.1048   29.9454   50.7659 N   0  0  0  0  0  0  0  0  0  0  0  0
   33.9101   28.8331   49.2051 C   0  0  0  0  0  0  0  0  0  0  0  0
   34.6857   27.8453   49.3107 O   0  0  0  0  0  0  0  0  0  0  0  0
   34.2103   30.2361   49.3482 N   0  0  0  0  0  0  0  0  0  0  0  0
   38.0671   29.6632   52.2034 O   0  0  0  0  0  0  0  0  0  0  0  0
   39.2599   31.0990   50.4307 H   0  0  0  0  0  0  0  0  0  0  0  0
   38.2893   32.0375   48.4044 H   0  0  0  0  0  0  0  0  0  0  0  0
   32.8680   28.5650   48.9718 H   0  0  0  0  0  0  0  0  0  0  0  0
   33.5097   30.9820   49.2444 H   0  0  0  0  0  0  0  0  0  0  0  0
   37.3883   28.8714   53.1705 C   0  0  0  0  0  0  0  0  0  0  0  0
   37.6903   29.2857   54.5367 C   0  0  0  0  0  0  0  0  0  0  0  0
   36.8130   29.7043   55.4145 C   0  0  0  0  0  0  0  0  0  0  0  0
   35.3848   29.8158   55.1418 C   0  0  0  0  0  0  0  0  0  0  0  0
   34.5987   29.6102   54.2110 O   0  0  0  0  0  0  0  0  0  0  0  0
   34.4719   30.2584   56.0517 O   0  0  0  0  0  0  0  0  0  0  0  0
   37.2775   30.0673   56.7082 N   0  0  0  0  0  0  0  0  0  0  0  0
   37.1732   30.9613   57.8169 C   0  0  0  0  0  0  0  0  0  0  0  0
   36.4231   31.9233   58.1908 O   0  0  0  0  0  0  0  0  0  0  0  0
   38.3309   30.3845   58.5024 C   0  0  1  0  0  0  0  0  0  0  0  0
   39.2573   30.9912   58.4986 H   0  0  0  0  0  0  0  0  0  0  0  0
   38.3381   29.3434   57.4303 C   0  0  2  0  0  0  0  0  0  0  0  0
   39.7733   29.4266   56.3141 S   0  0  0  0  0  0  0  0  0  0  0  0
   39.1533   29.1209   54.6396 C   0  0  2  0  0  0  0  0  0  0  0  0
   39.6533   29.8808   53.9687 H   0  0  0  0  0  0  0  0  0  0  0  0
   36.3138   28.9084   52.9798 H   0  0  0  0  0  0  0  0  0  0  0  0
   37.6564   27.7807   53.0347 H   0  0  0  0  0  0  0  0  0  0  0  0
   33.7825   31.0058   55.9229 H   0  0  0  0  0  0  0  0  0  0  0  0
   38.1529   29.9260   59.5093 H   0  0  0  0  0  0  0  0  0  0  0  0
   38.0149   28.3388   57.7247 H   0  0  0  0  0  0  0  0  0  0  0  0
   39.5074   28.0979   54.3720 H   0  0  0  0  0  0  0  0  0  0  0  0
  1 10  1  0
  2  1  2  0
  3  2  1  0
  4  3  2  0
  4  5  1  0
  5  6  2  0
  6  1  1  0
  7  8  2  0
  7  9  1  0
  9  5  1  0
  2 11  1  0
  3 12  1  0
  7 13  1  0
  9 14  1  0
 15 16  1  0
 16 17  2  0
 17 18  1  0
 18 19  2  0
 18 20  1  0
 17 21  1  0
 21 22  1  0
 22 23  2  0
 22 24  1  0
 24 25  1  1
 24 26  1  0
 26 27  1  0
 27 28  1  0
 28 29  1  6
 28 16  1  0
 26 21  1  0
 15 30  1  0
 15 31  1  0
 20 32  1  0
 24 33  1  0
 26 34  1  1
 28 35  1  0
 10 15  1  0
M  ISO  5  11  14  12  14  13   6  25  15  29  15
M  END
>  <DihAtoms>  (1) 
0,9,14,15

>  <DihDeg>  (1) 
-179.99981524074153

$$$$
