
     RDKit          3D

 35 37  0  0  0  0  0  0  0  0999 V2000
   37.3846   30.1263   51.1026 C   0  0  0  0  0  0  0  0  0  0  0  0
   38.2197   30.8915   50.2567 C   0  0  0  0  0  0  0  0  0  0  0  0
   37.6863   31.4407   49.0881 C   0  0  0  0  0  0  0  0  0  0  0  0
   36.3737   31.1994   48.8347 N   0  0  0  0  0  0  0  0  0  0  0  0
   35.5887   30.4680   49.6496 C   0  0  0  0  0  0  0  0  0  0  0  0
   36.1048   29.9454   50.7659 N   0  0  0  0  0  0  0  0  0  0  0  0
   33.9101   28.8331   49.2051 C   0  0  0  0  0  0  0  0  0  0  0  0
   34.6857   27.8453   49.3107 O   0  0  0  0  0  0  0  0  0  0  0  0
   34.2103   30.2361   49.3482 N   0  0  0  0  0  0  0  0  0  0  0  0
   38.0671   29.6632   52.2034 O   0  0  0  0  0  0  0  0  0  0  0  0
   39.2599   31.0990   50.4307 H   0  0  0  0  0  0  0  0  0  0  0  0
   38.2893   32.0375   48.4044 H   0  0  0  0  0  0  0  0  0  0  0  0
   32.8680   28.5650   48.9718 H   0  0  0  0  0  0  0  0  0  0  0  0
   33.5097   30.9820   49.2444 H   0  0  0  0  0  0  0  0  0  0  0  0
   37.3883   28.8714   53.1705 C   0  0  0  0  0  0  0  0  0  0  0  0
   38.2614   28.4678   54.2679 C   0  0  0  0  0  0  0  0  0  0  0  0
   38.0784   28.7618   55.5310 C   0  0  0  0  0  0  0  0  0  0  0  0
   36.9541   29.5485   56.0244 C   0  0  0  0  0  0  0  0  0  0  0  0
   35.9530   30.1185   55.5778 O   0  0  0  0  0  0  0  0  0  0  0  0
   36.7667   29.8616   57.3375 O   0  0  0  0  0  0  0  0  0  0  0  0
   39.0269   28.2841   56.4762 N   0  0  0  0  0  0  0  0  0  0  0  0
   39.7767   28.5424   57.6639 C   0  0  0  0  0  0  0  0  0  0  0  0
   39.8453   29.4446   58.5634 O   0  0  0  0  0  0  0  0  0  0  0  0
   40.5550   27.3084   57.5449 C   0  0  1  0  0  0  0  0  0  0  0  0
   41.6096   27.4208   57.2265 H   0  0  0  0  0  0  0  0  0  0  0  0
   39.6589   26.9554   56.4023 C   0  0  2  0  0  0  0  0  0  0  0  0
   40.4827   26.9438   54.7793 S   0  0  0  0  0  0  0  0  0  0  0  0
   39.3322   27.7006   53.6023 C   0  0  2  0  0  0  0  0  0  0  0  0
   39.9432   28.4062   52.9649 H   0  0  0  0  0  0  0  0  0  0  0  0
   36.5205   29.4194   53.5433 H   0  0  0  0  0  0  0  0  0  0  0  0
   36.9460   27.9540   52.6779 H   0  0  0  0  0  0  0  0  0  0  0  0
   36.6123   30.7935   57.7352 H   0  0  0  0  0  0  0  0  0  0  0  0
   40.4618   26.5628   58.3763 H   0  0  0  0  0  0  0  0  0  0  0  0
   38.9355   26.1521   56.5807 H   0  0  0  0  0  0  0  0  0  0  0  0
   38.9548   26.8616   52.9720 H   0  0  0  0  0  0  0  0  0  0  0  0
  1 10  1  0
  2  1  2  0
  3  2  1  0
  4  3  2  0
  4  5  1  0
  5  6  2  0
  6  1  1  0
  7  8  2  0
  7  9  1  0
  9  5  1  0
  2 11  1  0
  3 12  1  0
  7 13  1  0
  9 14  1  0
 15 16  1  0
 16 17  2  0
 17 18  1  0
 18 19  2  0
 18 20  1  0
 17 21  1  0
 21 22  1  0
 22 23  2  0
 22 24  1  0
 24 25  1  6
 24 26  1  0
 26 27  1  0
 27 28  1  0
 28 29  1  6
 28 16  1  0
 26 21  1  0
 15 30  1  0
 15 31  1  0
 20 32  1  0
 24 33  1  0
 26 34  1  1
 28 35  1  0
 10 15  1  0
M  ISO  5  11  14  12  14  13   6  25  15  29  15
M  END
>  <DihAtoms>  (1) 
0,9,14,15

>  <DihDeg>  (1) 
-179.99981524074153

$$$$
