
     RDKit          3D

 35 37  0  0  0  0  0  0  0  0999 V2000
   37.3846   30.1263   51.1026 C   0  0  0  0  0  0  0  0  0  0  0  0
   38.2197   30.8915   50.2567 C   0  0  0  0  0  0  0  0  0  0  0  0
   37.6863   31.4407   49.0881 C   0  0  0  0  0  0  0  0  0  0  0  0
   36.3737   31.1994   48.8347 N   0  0  0  0  0  0  0  0  0  0  0  0
   35.5887   30.4680   49.6496 C   0  0  0  0  0  0  0  0  0  0  0  0
   36.1048   29.9454   50.7659 N   0  0  0  0  0  0  0  0  0  0  0  0
   33.9101   28.8331   49.2051 C   0  0  0  0  0  0  0  0  0  0  0  0
   34.6857   27.8453   49.3107 O   0  0  0  0  0  0  0  0  0  0  0  0
   34.2103   30.2361   49.3482 N   0  0  0  0  0  0  0  0  0  0  0  0
   38.0671   29.6632   52.2034 O   0  0  0  0  0  0  0  0  0  0  0  0
   39.2599   31.0990   50.4307 H   0  0  0  0  0  0  0  0  0  0  0  0
   38.2893   32.0375   48.4044 H   0  0  0  0  0  0  0  0  0  0  0  0
   32.8680   28.5650   48.9718 H   0  0  0  0  0  0  0  0  0  0  0  0
   33.5097   30.9820   49.2444 H   0  0  0  0  0  0  0  0  0  0  0  0
   37.3883   28.8714   53.1705 C   0  0  0  0  0  0  0  0  0  0  0  0
   36.8464   27.6428   52.5993 C   0  0  0  0  0  0  0  0  0  0  0  0
   37.1598   26.4280   52.9755 C   0  0  0  0  0  0  0  0  0  0  0  0
   38.1123   26.1303   54.0387 C   0  0  0  0  0  0  0  0  0  0  0  0
   38.8357   26.7389   54.8342 O   0  0  0  0  0  0  0  0  0  0  0  0
   38.4451   24.8667   54.4261 O   0  0  0  0  0  0  0  0  0  0  0  0
   36.5336   25.3370   52.3132 N   0  0  0  0  0  0  0  0  0  0  0  0
   36.6644   24.0200   51.7767 C   0  0  0  0  0  0  0  0  0  0  0  0
   37.5402   23.0927   51.7449 O   0  0  0  0  0  0  0  0  0  0  0  0
   35.3233   24.0319   51.1902 C   0  0  1  0  0  0  0  0  0  0  0  0
   35.2687   24.1396   50.0895 H   0  0  0  0  0  0  0  0  0  0  0  0
   35.1220   25.3359   51.8919 C   0  0  2  0  0  0  0  0  0  0  0  0
   34.9876   26.7718   50.7815 S   0  0  0  0  0  0  0  0  0  0  0  0
   35.9224   28.1190   51.5515 C   0  0  2  0  0  0  0  0  0  0  0  0
   36.5253   28.6032   50.7272 H   0  0  0  0  0  0  0  0  0  0  0  0
   38.0651   28.6515   53.9988 H   0  0  0  0  0  0  0  0  0  0  0  0
   36.5548   29.4711   53.6454 H   0  0  0  0  0  0  0  0  0  0  0  0
   39.3878   24.4731   54.5087 H   0  0  0  0  0  0  0  0  0  0  0  0
   34.5980   23.2601   51.5565 H   0  0  0  0  0  0  0  0  0  0  0  0
   34.4426   25.3268   52.7513 H   0  0  0  0  0  0  0  0  0  0  0  0
   35.1567   28.8387   51.9249 H   0  0  0  0  0  0  0  0  0  0  0  0
  1 10  1  0
  2  1  2  0
  3  2  1  0
  4  3  2  0
  4  5  1  0
  5  6  2  0
  6  1  1  0
  7  8  2  0
  7  9  1  0
  9  5  1  0
  2 11  1  0
  3 12  1  0
  7 13  1  0
  9 14  1  0
 15 16  1  0
 16 17  2  0
 17 18  1  0
 18 19  2  0
 18 20  1  0
 17 21  1  0
 21 22  1  0
 22 23  2  0
 22 24  1  0
 24 25  1  6
 24 26  1  0
 26 27  1  0
 27 28  1  0
 28 29  1  6
 28 16  1  0
 26 21  1  0
 15 30  1  0
 15 31  1  0
 20 32  1  0
 24 33  1  0
 26 34  1  1
 28 35  1  0
 10 15  1  0
M  ISO  5  11  14  12  14  13   6  25  15  29  15
M  END
>  <DihAtoms>  (1) 
0,9,14,15

>  <DihDeg>  (1) 
-179.99981524074153

$$$$
