
     RDKit          3D

 35 37  0  0  0  0  0  0  0  0999 V2000
   37.3846   30.1263   51.1026 C   0  0  0  0  0  0  0  0  0  0  0  0
   38.2197   30.8915   50.2567 C   0  0  0  0  0  0  0  0  0  0  0  0
   37.6863   31.4407   49.0881 C   0  0  0  0  0  0  0  0  0  0  0  0
   36.3737   31.1994   48.8347 N   0  0  0  0  0  0  0  0  0  0  0  0
   35.5887   30.4680   49.6496 C   0  0  0  0  0  0  0  0  0  0  0  0
   36.1048   29.9454   50.7659 N   0  0  0  0  0  0  0  0  0  0  0  0
   33.9101   28.8331   49.2051 C   0  0  0  0  0  0  0  0  0  0  0  0
   34.6857   27.8453   49.3107 O   0  0  0  0  0  0  0  0  0  0  0  0
   34.2103   30.2361   49.3482 N   0  0  0  0  0  0  0  0  0  0  0  0
   38.0671   29.6632   52.2034 O   0  0  0  0  0  0  0  0  0  0  0  0
   39.2599   31.0990   50.4307 H   0  0  0  0  0  0  0  0  0  0  0  0
   38.2893   32.0375   48.4044 H   0  0  0  0  0  0  0  0  0  0  0  0
   32.8680   28.5650   48.9718 H   0  0  0  0  0  0  0  0  0  0  0  0
   33.5097   30.9820   49.2444 H   0  0  0  0  0  0  0  0  0  0  0  0
   37.3883   28.8714   53.1705 C   0  0  0  0  0  0  0  0  0  0  0  0
   36.0815   29.4203   53.5177 C   0  0  0  0  0  0  0  0  0  0  0  0
   34.9348   28.8070   53.3616 C   0  0  0  0  0  0  0  0  0  0  0  0
   34.8037   27.4642   52.8085 C   0  0  0  0  0  0  0  0  0  0  0  0
   35.5299   26.5652   52.3716 O   0  0  0  0  0  0  0  0  0  0  0  0
   33.6105   26.8279   52.6384 O   0  0  0  0  0  0  0  0  0  0  0  0
   33.7503   29.4865   53.7570 N   0  0  0  0  0  0  0  0  0  0  0  0
   32.3792   29.7744   53.4803 C   0  0  0  0  0  0  0  0  0  0  0  0
   31.4804   29.4001   52.6557 O   0  0  0  0  0  0  0  0  0  0  0  0
   32.2777   30.7581   54.5595 C   0  0  1  0  0  0  0  0  0  0  0  0
   32.2407   31.8217   54.2538 H   0  0  0  0  0  0  0  0  0  0  0  0
   33.6554   30.3364   54.9565 C   0  0  2  0  0  0  0  0  0  0  0  0
   34.9314   31.6092   54.7026 S   0  0  0  0  0  0  0  0  0  0  0  0
   36.3923   30.7628   54.0460 C   0  0  2  0  0  0  0  0  0  0  0  0
   36.7827   31.4049   53.2016 H   0  0  0  0  0  0  0  0  0  0  0  0
   37.2963   27.8479   52.8012 H   0  0  0  0  0  0  0  0  0  0  0  0
   38.0209   28.7735   54.1033 H   0  0  0  0  0  0  0  0  0  0  0  0
   33.2574   26.3949   51.7792 H   0  0  0  0  0  0  0  0  0  0  0  0
   31.5399   30.5471   55.3762 H   0  0  0  0  0  0  0  0  0  0  0  0
   33.7385   29.7484   55.8773 H   0  0  0  0  0  0  0  0  0  0  0  0
   37.1326   30.7542   54.8800 H   0  0  0  0  0  0  0  0  0  0  0  0
  1 10  1  0
  2  1  2  0
  3  2  1  0
  4  3  2  0
  4  5  1  0
  5  6  2  0
  6  1  1  0
  7  8  2  0
  7  9  1  0
  9  5  1  0
  2 11  1  0
  3 12  1  0
  7 13  1  0
  9 14  1  0
 15 16  1  0
 16 17  2  0
 17 18  1  0
 18 19  2  0
 18 20  1  0
 17 21  1  0
 21 22  1  0
 22 23  2  0
 22 24  1  0
 24 25  1  6
 24 26  1  0
 26 27  1  0
 27 28  1  0
 28 29  1  6
 28 16  1  0
 26 21  1  0
 15 30  1  0
 15 31  1  0
 20 32  1  0
 24 33  1  0
 26 34  1  1
 28 35  1  0
 10 15  1  0
M  ISO  5  11  14  12  14  13   6  25  15  29  15
M  END
>  <DihAtoms>  (1) 
0,9,14,15

>  <DihDeg>  (1) 
-179.99981524074153

$$$$
