
     RDKit          3D

 35 37  0  0  0  0  0  0  0  0999 V2000
   37.3846   30.1263   51.1026 C   0  0  0  0  0  0  0  0  0  0  0  0
   38.2197   30.8915   50.2567 C   0  0  0  0  0  0  0  0  0  0  0  0
   37.6863   31.4407   49.0881 C   0  0  0  0  0  0  0  0  0  0  0  0
   36.3737   31.1994   48.8347 N   0  0  0  0  0  0  0  0  0  0  0  0
   35.5887   30.4680   49.6496 C   0  0  0  0  0  0  0  0  0  0  0  0
   36.1048   29.9454   50.7659 N   0  0  0  0  0  0  0  0  0  0  0  0
   33.9101   28.8331   49.2051 C   0  0  0  0  0  0  0  0  0  0  0  0
   34.6857   27.8453   49.3107 O   0  0  0  0  0  0  0  0  0  0  0  0
   34.2103   30.2361   49.3482 N   0  0  0  0  0  0  0  0  0  0  0  0
   38.0671   29.6632   52.2034 O   0  0  0  0  0  0  0  0  0  0  0  0
   39.2599   31.0990   50.4307 H   0  0  0  0  0  0  0  0  0  0  0  0
   38.2893   32.0375   48.4044 H   0  0  0  0  0  0  0  0  0  0  0  0
   32.8680   28.5650   48.9718 H   0  0  0  0  0  0  0  0  0  0  0  0
   33.5097   30.9820   49.2444 H   0  0  0  0  0  0  0  0  0  0  0  0
   37.3883   28.8714   53.1705 C   0  0  0  0  0  0  0  0  0  0  0  0
   38.1356   28.7602   54.4190 C   0  0  0  0  0  0  0  0  0  0  0  0
   37.7124   29.1532   55.5945 C   0  0  0  0  0  0  0  0  0  0  0  0
   36.4098   29.7679   55.8220 C   0  0  0  0  0  0  0  0  0  0  0  0
   35.4092   30.0899   55.1727 O   0  0  0  0  0  0  0  0  0  0  0  0
   35.9713   30.1842   57.0434 O   0  0  0  0  0  0  0  0  0  0  0  0
   38.5690   28.9668   56.7137 N   0  0  0  0  0  0  0  0  0  0  0  0
   39.0716   29.4891   57.9441 C   0  0  0  0  0  0  0  0  0  0  0  0
   38.8483   30.4823   58.7132 O   0  0  0  0  0  0  0  0  0  0  0  0
   40.0540   28.4150   58.0993 C   0  0  1  0  0  0  0  0  0  0  0  0
   41.1114   28.6847   57.9117 H   0  0  0  0  0  0  0  0  0  0  0  0
   39.4176   27.7781   56.9065 C   0  0  2  0  0  0  0  0  0  0  0  0
   40.4734   27.7397   55.4245 S   0  0  0  0  0  0  0  0  0  0  0  0
   39.4095   28.1355   54.0127 C   0  0  2  0  0  0  0  0  0  0  0  0
   39.9855   28.8671   53.3720 H   0  0  0  0  0  0  0  0  0  0  0  0
   36.3940   29.2872   53.3463 H   0  0  0  0  0  0  0  0  0  0  0  0
   37.1872   27.8392   52.7532 H   0  0  0  0  0  0  0  0  0  0  0  0
   35.6037   31.1096   57.2862 H   0  0  0  0  0  0  0  0  0  0  0  0
   39.9587   27.7617   59.0048 H   0  0  0  0  0  0  0  0  0  0  0  0
   38.8197   26.8796   57.0950 H   0  0  0  0  0  0  0  0  0  0  0  0
   39.2798   27.1767   53.4582 H   0  0  0  0  0  0  0  0  0  0  0  0
  1 10  1  0
  2  1  2  0
  3  2  1  0
  4  3  2  0
  4  5  1  0
  5  6  2  0
  6  1  1  0
  7  8  2  0
  7  9  1  0
  9  5  1  0
  2 11  1  0
  3 12  1  0
  7 13  1  0
  9 14  1  0
 15 16  1  0
 16 17  2  0
 17 18  1  0
 18 19  2  0
 18 20  1  0
 17 21  1  0
 21 22  1  0
 22 23  2  0
 22 24  1  0
 24 25  1  6
 24 26  1  0
 26 27  1  0
 27 28  1  0
 28 29  1  6
 28 16  1  0
 26 21  1  0
 15 30  1  0
 15 31  1  0
 20 32  1  0
 24 33  1  0
 26 34  1  1
 28 35  1  0
 10 15  1  0
M  ISO  5  11  14  12  14  13   6  25  15  29  15
M  END
>  <DihAtoms>  (1) 
0,9,14,15

>  <DihDeg>  (1) 
-179.99981524074153

$$$$
