
     RDKit          3D

 35 37  0  0  0  0  0  0  0  0999 V2000
   37.3846   30.1263   51.1026 C   0  0  0  0  0  0  0  0  0  0  0  0
   38.2197   30.8915   50.2567 C   0  0  0  0  0  0  0  0  0  0  0  0
   37.6863   31.4407   49.0881 C   0  0  0  0  0  0  0  0  0  0  0  0
   36.3737   31.1994   48.8347 N   0  0  0  0  0  0  0  0  0  0  0  0
   35.5887   30.4680   49.6496 C   0  0  0  0  0  0  0  0  0  0  0  0
   36.1048   29.9454   50.7659 N   0  0  0  0  0  0  0  0  0  0  0  0
   33.9101   28.8331   49.2051 C   0  0  0  0  0  0  0  0  0  0  0  0
   34.6857   27.8453   49.3107 O   0  0  0  0  0  0  0  0  0  0  0  0
   34.2103   30.2361   49.3482 N   0  0  0  0  0  0  0  0  0  0  0  0
   38.0671   29.6632   52.2034 O   0  0  0  0  0  0  0  0  0  0  0  0
   39.2599   31.0990   50.4307 H   0  0  0  0  0  0  0  0  0  0  0  0
   38.2893   32.0375   48.4044 H   0  0  0  0  0  0  0  0  0  0  0  0
   32.8680   28.5650   48.9718 H   0  0  0  0  0  0  0  0  0  0  0  0
   33.5097   30.9820   49.2444 H   0  0  0  0  0  0  0  0  0  0  0  0
   37.3883   28.8714   53.1705 C   0  0  0  0  0  0  0  0  0  0  0  0
   35.9862   28.6580   52.8267 C   0  0  0  0  0  0  0  0  0  0  0  0
   35.4223   27.4928   52.6277 C   0  0  0  0  0  0  0  0  0  0  0  0
   36.1323   26.2228   52.7246 C   0  0  0  0  0  0  0  0  0  0  0  0
   37.2700   25.8122   52.9765 O   0  0  0  0  0  0  0  0  0  0  0  0
   35.5485   25.0100   52.5104 O   0  0  0  0  0  0  0  0  0  0  0  0
   34.0387   27.4628   52.3025 N   0  0  0  0  0  0  0  0  0  0  0  0
   32.9969   26.8639   51.5309 C   0  0  0  0  0  0  0  0  0  0  0  0
   32.8551   25.8764   50.7356 O   0  0  0  0  0  0  0  0  0  0  0  0
   31.9946   27.8367   51.9689 C   0  0  1  0  0  0  0  0  0  0  0  0
   31.6867   28.5954   51.2234 H   0  0  0  0  0  0  0  0  0  0  0  0
   33.0365   28.3598   52.9038 C   0  0  2  0  0  0  0  0  0  0  0  0
   33.6351   30.0305   52.5003 S   0  0  0  0  0  0  0  0  0  0  0  0
   35.4276   30.0226   52.7627 C   0  0  2  0  0  0  0  0  0  0  0  0
   35.8835   30.5615   51.8801 H   0  0  0  0  0  0  0  0  0  0  0  0
   37.9100   27.9197   53.2907 H   0  0  0  0  0  0  0  0  0  0  0  0
   37.4614   29.3581   54.1892 H   0  0  0  0  0  0  0  0  0  0  0  0
   35.8696   24.2726   51.8751 H   0  0  0  0  0  0  0  0  0  0  0  0
   31.1095   27.4412   52.5312 H   0  0  0  0  0  0  0  0  0  0  0  0
   32.8878   28.1457   53.9680 H   0  0  0  0  0  0  0  0  0  0  0  0
   35.5963   30.6182   53.6903 H   0  0  0  0  0  0  0  0  0  0  0  0
  1 10  1  0
  2  1  2  0
  3  2  1  0
  4  3  2  0
  4  5  1  0
  5  6  2  0
  6  1  1  0
  7  8  2  0
  7  9  1  0
  9  5  1  0
  2 11  1  0
  3 12  1  0
  7 13  1  0
  9 14  1  0
 15 16  1  0
 16 17  2  0
 17 18  1  0
 18 19  2  0
 18 20  1  0
 17 21  1  0
 21 22  1  0
 22 23  2  0
 22 24  1  0
 24 25  1  6
 24 26  1  0
 26 27  1  0
 27 28  1  0
 28 29  1  6
 28 16  1  0
 26 21  1  0
 15 30  1  0
 15 31  1  0
 20 32  1  0
 24 33  1  0
 26 34  1  1
 28 35  1  0
 10 15  1  0
M  ISO  5  11  14  12  14  13   6  25  15  29  15
M  END
>  <DihAtoms>  (1) 
0,9,14,15

>  <DihDeg>  (1) 
-179.99981524074153

$$$$
