
     RDKit          3D

 35 37  0  0  0  0  0  0  0  0999 V2000
   37.3846   30.1263   51.1026 C   0  0  0  0  0  0  0  0  0  0  0  0
   38.2197   30.8915   50.2567 C   0  0  0  0  0  0  0  0  0  0  0  0
   37.6863   31.4407   49.0881 C   0  0  0  0  0  0  0  0  0  0  0  0
   36.3737   31.1994   48.8347 N   0  0  0  0  0  0  0  0  0  0  0  0
   35.5887   30.4680   49.6496 C   0  0  0  0  0  0  0  0  0  0  0  0
   36.1048   29.9454   50.7659 N   0  0  0  0  0  0  0  0  0  0  0  0
   33.9101   28.8331   49.2051 C   0  0  0  0  0  0  0  0  0  0  0  0
   34.6857   27.8453   49.3107 O   0  0  0  0  0  0  0  0  0  0  0  0
   34.2103   30.2361   49.3482 N   0  0  0  0  0  0  0  0  0  0  0  0
   38.0671   29.6632   52.2034 O   0  0  0  0  0  0  0  0  0  0  0  0
   39.2599   31.0990   50.4307 H   0  0  0  0  0  0  0  0  0  0  0  0
   38.2893   32.0375   48.4044 H   0  0  0  0  0  0  0  0  0  0  0  0
   32.8680   28.5650   48.9718 H   0  0  0  0  0  0  0  0  0  0  0  0
   33.5097   30.9820   49.2444 H   0  0  0  0  0  0  0  0  0  0  0  0
   37.3883   28.8714   53.1705 C   0  0  0  0  0  0  0  0  0  0  0  0
   37.4012   29.4830   54.4954 C   0  0  0  0  0  0  0  0  0  0  0  0
   36.3409   29.8265   55.1832 C   0  0  0  0  0  0  0  0  0  0  0  0
   34.9741   29.6409   54.7103 C   0  0  0  0  0  0  0  0  0  0  0  0
   34.3873   29.1917   53.7201 O   0  0  0  0  0  0  0  0  0  0  0  0
   33.8701   30.0049   55.4218 O   0  0  0  0  0  0  0  0  0  0  0  0
   36.5320   30.4100   56.4655 N   0  0  0  0  0  0  0  0  0  0  0  0
   36.1091   31.3863   57.4181 C   0  0  0  0  0  0  0  0  0  0  0  0
   35.1602   32.2283   57.5541 O   0  0  0  0  0  0  0  0  0  0  0  0
   37.2263   31.1132   58.3237 C   0  0  1  0  0  0  0  0  0  0  0  0
   38.0276   31.8766   58.3605 H   0  0  0  0  0  0  0  0  0  0  0  0
   37.5735   29.9793   57.4142 C   0  0  2  0  0  0  0  0  0  0  0  0
   39.1302   30.2026   56.4981 S   0  0  0  0  0  0  0  0  0  0  0  0
   38.8373   29.6042   54.8135 C   0  0  2  0  0  0  0  0  0  0  0  0
   39.3014   30.3645   54.1177 H   0  0  0  0  0  0  0  0  0  0  0  0
   36.3655   28.6876   52.8353 H   0  0  0  0  0  0  0  0  0  0  0  0
   37.8525   27.8410   53.2216 H   0  0  0  0  0  0  0  0  0  0  0  0
   33.0941   30.5929   55.1017 H   0  0  0  0  0  0  0  0  0  0  0  0
   36.9734   30.7439   59.3510 H   0  0  0  0  0  0  0  0  0  0  0  0
   37.3807   28.9710   57.7973 H   0  0  0  0  0  0  0  0  0  0  0  0
   39.3944   28.6411   54.7374 H   0  0  0  0  0  0  0  0  0  0  0  0
  1 10  1  0
  2  1  2  0
  3  2  1  0
  4  3  2  0
  4  5  1  0
  5  6  2  0
  6  1  1  0
  7  8  2  0
  7  9  1  0
  9  5  1  0
  2 11  1  0
  3 12  1  0
  7 13  1  0
  9 14  1  0
 15 16  1  0
 16 17  2  0
 17 18  1  0
 18 19  2  0
 18 20  1  0
 17 21  1  0
 21 22  1  0
 22 23  2  0
 22 24  1  0
 24 25  1  1
 24 26  1  0
 26 27  1  0
 27 28  1  0
 28 29  1  6
 28 16  1  0
 26 21  1  0
 15 30  1  0
 15 31  1  0
 20 32  1  0
 24 33  1  0
 26 34  1  1
 28 35  1  0
 10 15  1  0
M  ISO  5  11  14  12  14  13   6  25  15  29  15
M  END
>  <DihAtoms>  (1) 
0,9,14,15

>  <DihDeg>  (1) 
-179.99981524074153

$$$$
