
     RDKit          3D

 34 36  0  0  0  0  0  0  0  0999 V2000
   37.5522   31.6818   48.9435 C   0  0  0  0  0  0  0  0  0  0  0  0
   38.1869   32.7394   49.5157 C   0  0  0  0  0  0  0  0  0  0  0  0
   39.0732   33.5436   48.8092 C   0  0  0  0  0  0  0  0  0  0  0  0
   39.3549   33.3137   47.4984 C   0  0  0  0  0  0  0  0  0  0  0  0
   38.6979   32.2365   46.9433 C   0  0  0  0  0  0  0  0  0  0  0  0
   37.8442   31.4673   47.6360 N   0  0  0  0  0  0  0  0  0  0  0  0
   36.9425   30.1802   50.8640 C   0  0  0  0  0  0  0  0  0  0  0  0
   36.6199   30.8060   49.6368 C   0  0  0  0  0  0  0  0  0  0  0  0
   35.3767   30.5673   49.0939 C   0  0  0  0  0  0  0  0  0  0  0  0
   34.5338   29.7306   49.7916 N   0  0  0  0  0  0  0  0  0  0  0  0
   34.8739   29.1577   50.9483 C   0  0  0  0  0  0  0  0  0  0  0  0
   36.0929   29.3753   51.5066 N   0  0  0  0  0  0  0  0  0  0  0  0
   40.2180   34.0556   46.7236 O   0  0  0  0  0  0  0  0  0  0  0  0
   38.0039   32.9719   50.5537 H   0  0  0  0  0  0  0  0  0  0  0  0
   39.5433   34.3683   49.3256 H   0  0  0  0  0  0  0  0  0  0  0  0
   38.8087   31.9204   45.9209 H   0  0  0  0  0  0  0  0  0  0  0  0
   37.9281   30.3786   51.2800 H   0  0  0  0  0  0  0  0  0  0  0  0
   35.0284   30.9893   48.1695 H   0  0  0  0  0  0  0  0  0  0  0  0
   34.0723   28.5339   51.3404 H   0  0  0  0  0  0  0  0  0  0  0  0
   40.9591   35.1743   47.1381 C   0  0  1  0  0  0  0  0  0  0  0  0
   41.0899   36.1027   45.9242 C   0  0  1  0  0  0  0  0  0  0  0  0
   41.4853   37.0742   46.2435 H   0  0  0  0  0  0  0  0  0  0  0  0
   39.7037   36.2047   45.3319 C   0  0  1  0  0  0  0  0  0  0  0  0
   39.6938   36.9157   44.4565 H   0  0  0  0  0  0  0  0  0  0  0  0
   38.7326   36.5458   46.2389 O   0  0  0  0  0  0  0  0  0  0  0  0
   39.2256   36.9492   47.4734 C   0  0  1  0  0  0  0  0  0  0  0  0
   39.7477   37.9349   47.4227 H   0  0  0  0  0  0  0  0  0  0  0  0
   40.0948   35.9244   48.1241 C   0  0  1  0  0  0  0  0  0  0  0  0
   39.4853   35.2752   48.7508 H   0  0  0  0  0  0  0  0  0  0  0  0
   41.9608   34.9439   47.5435 H   0  0  0  0  0  0  0  0  0  0  0  0
   41.7308   35.5845   45.1652 H   0  0  0  0  0  0  0  0  0  0  0  0
   39.4538   35.1725   44.9483 H   0  0  0  0  0  0  0  0  0  0  0  0
   38.3520   37.1288   48.1350 H   0  0  0  0  0  0  0  0  0  0  0  0
   40.8099   36.4574   48.8073 H   0  0  0  0  0  0  0  0  0  0  0  0
  1  2  2  0
  1  8  1  0
  3  2  1  0
  4  3  2  0
  5  4  1  0
  5  6  2  0
  6  1  1  0
  7 12  2  0
  8  7  1  0
  9  8  2  0
  9 10  1  0
 10 11  2  0
 11 12  1  0
 13  4  1  0
  2 14  1  0
  3 15  1  0
  5 16  1  0
  7 17  1  0
  9 18  1  0
 11 19  1  0
 20 21  1  0
 21 22  1  1
 21 23  1  0
 23 24  1  6
 23 25  1  0
 25 26  1  0
 26 27  1  6
 26 28  1  0
 28 29  1  1
 28 20  1  0
 20 30  1  1
 21 31  1  0
 23 32  1  0
 26 33  1  0
 28 34  1  0
 13 20  1  0
M  ISO  8  14  14  15  14  16  14  17  14  18  14  19  14  22  15  24  15
M  ISO  2  27  15  29  15
M  END
>  <DihAtoms>  (1) 
3,12,19,20

>  <DihDeg>  (1) 
122.22151919110786

$$$$
