
     RDKit          3D

 43 46  0  0  0  0  0  0  0  0999 V2000
   37.6801   31.3017   48.2097 C   0  0  0  0  0  0  0  0  0  0  0  0
   38.5357   32.3093   48.0862 C   0  0  0  0  0  0  0  0  0  0  0  0
   38.9254   32.7081   46.8651 C   0  0  0  0  0  0  0  0  0  0  0  0
   38.4116   32.0429   45.7780 C   0  0  0  0  0  0  0  0  0  0  0  0
   37.3252   30.7962   46.5702 S   0  0  0  0  0  0  0  0  0  0  0  0
   41.1552   31.2358   44.7218 Cl  0  0  0  0  0  0  0  0  0  0  0  0
   39.7816   31.8289   43.8058 C   0  0  0  0  0  0  0  0  0  0  0  0
   38.5819   32.1710   44.3497 C   0  0  0  0  0  0  0  0  0  0  0  0
   37.5079   32.6273   43.6899 C   0  0  0  0  0  0  0  0  0  0  0  0
   37.6096   32.7742   42.2993 C   0  0  0  0  0  0  0  0  0  0  0  0
   38.7775   32.4525   41.6829 C   0  0  0  0  0  0  0  0  0  0  0  0
   38.9484   32.6203   39.9503 Cl  0  0  0  0  0  0  0  0  0  0  0  0
   39.8603   31.9823   42.4257 C   0  0  0  0  0  0  0  0  0  0  0  0
   37.1563   29.9134   51.6720 C   0  0  0  0  0  0  0  0  0  0  0  0
   37.7989   30.5502   50.5975 C   0  0  0  0  0  0  0  0  0  0  0  0
   37.0771   30.6477   49.3859 C   0  0  0  0  0  0  0  0  0  0  0  0
   35.8479   30.1394   49.3294 N   0  0  0  0  0  0  0  0  0  0  0  0
   35.2607   29.5377   50.3699 C   0  0  0  0  0  0  0  0  0  0  0  0
   35.9108   29.4286   51.5245 N   0  0  0  0  0  0  0  0  0  0  0  0
   33.9176   29.0216   50.1912 C   0  0  0  0  0  0  0  0  0  0  0  0
   33.6733   28.2940   49.2021 O   0  0  0  0  0  0  0  0  0  0  0  0
   38.8933   32.7802   48.9973 H   0  0  0  0  0  0  0  0  0  0  0  0
   39.6122   33.5093   46.6180 H   0  0  0  0  0  0  0  0  0  0  0  0
   36.5581   32.8946   44.1480 H   0  0  0  0  0  0  0  0  0  0  0  0
   36.7462   33.1466   41.7266 H   0  0  0  0  0  0  0  0  0  0  0  0
   40.7709   31.7398   41.8812 H   0  0  0  0  0  0  0  0  0  0  0  0
   37.7375   29.8539   52.5909 H   0  0  0  0  0  0  0  0  0  0  0  0
   38.7904   30.9715   50.6094 H   0  0  0  0  0  0  0  0  0  0  0  0
   32.8975   29.3857   51.1968 C   0  0  0  0  0  0  0  0  0  0  0  0
   31.5800   29.8054   50.6414 C   0  0  2  0  0  0  0  0  0  0  0  0
   31.0819   28.9321   50.1661 H   0  0  0  0  0  0  0  0  0  0  0  0
   30.7398   30.2313   51.8508 C   0  0  2  0  0  0  0  0  0  0  0  0
   29.8842   30.8512   51.5807 H   0  0  0  0  0  0  0  0  0  0  0  0
   30.4467   29.1549   52.6759 O   0  0  0  0  0  0  0  0  0  0  0  0
   31.1525   28.0101   52.3878 C   0  0  1  0  0  0  0  0  0  0  0  0
   31.0798   27.3358   53.2669 H   0  0  0  0  0  0  0  0  0  0  0  0
   32.6230   28.2391   52.1559 C   0  0  2  0  0  0  0  0  0  0  0  0
   33.2239   28.2931   53.0751 H   0  0  0  0  0  0  0  0  0  0  0  0
   33.3168   30.2161   51.8197 H   0  0  0  0  0  0  0  0  0  0  0  0
   31.6235   30.6427   49.9452 H   0  0  0  0  0  0  0  0  0  0  0  0
   31.4249   30.8823   52.4661 H   0  0  0  0  0  0  0  0  0  0  0  0
   30.7391   27.4351   51.5346 H   0  0  0  0  0  0  0  0  0  0  0  0
   32.9889   27.3177   51.6237 H   0  0  0  0  0  0  0  0  0  0  0  0
  1 16  1  0
  2  1  2  0
  3  2  1  0
  4  5  1  0
  4  3  2  0
  5  1  1  0
  7  8  2  0
  7  6  1  0
  8  4  1  0
  9  8  1  0
 10  9  2  0
 11 10  1  0
 11 13  2  0
 12 11  1  0
 13  7  1  0
 15 14  2  0
 16 15  1  0
 17 16  2  0
 17 18  1  0
 18 19  2  0
 19 14  1  0
 20 18  1  0
 21 20  2  0
  2 22  1  0
  3 23  1  0
  9 24  1  0
 10 25  1  0
 13 26  1  0
 14 27  1  0
 15 28  1  0
 29 30  1  0
 30 31  1  6
 30 32  1  0
 32 33  1  6
 32 34  1  0
 34 35  1  0
 35 36  1  1
 35 37  1  0
 37 38  1  1
 37 29  1  0
 29 39  1  0
 30 40  1  0
 32 41  1  0
 35 42  1  0
 37 43  1  0
 20 29  1  0
M  ISO  8  22  14  23  14  24  14  25  14  26  14  27  14  28  14  31  15
M  ISO  3  33  15  36  15  38  15
M  END
>  <DihAtoms>  (1) 
17,19,28,29

>  <DihDeg>  (1) 
60.00278327607467

$$$$
