
     RDKit          3D

 34 36  0  0  0  0  0  0  0  0999 V2000
   37.5522   31.6818   48.9435 C   0  0  0  0  0  0  0  0  0  0  0  0
   38.1869   32.7394   49.5157 C   0  0  0  0  0  0  0  0  0  0  0  0
   39.0732   33.5436   48.8092 C   0  0  0  0  0  0  0  0  0  0  0  0
   39.3549   33.3137   47.4984 C   0  0  0  0  0  0  0  0  0  0  0  0
   38.6979   32.2365   46.9433 C   0  0  0  0  0  0  0  0  0  0  0  0
   37.8442   31.4673   47.6360 N   0  0  0  0  0  0  0  0  0  0  0  0
   36.9425   30.1802   50.8640 C   0  0  0  0  0  0  0  0  0  0  0  0
   36.6199   30.8060   49.6368 C   0  0  0  0  0  0  0  0  0  0  0  0
   35.3767   30.5673   49.0939 C   0  0  0  0  0  0  0  0  0  0  0  0
   34.5338   29.7306   49.7916 N   0  0  0  0  0  0  0  0  0  0  0  0
   34.8739   29.1577   50.9483 C   0  0  0  0  0  0  0  0  0  0  0  0
   36.0929   29.3753   51.5066 N   0  0  0  0  0  0  0  0  0  0  0  0
   40.2180   34.0556   46.7236 O   0  0  0  0  0  0  0  0  0  0  0  0
   38.0039   32.9719   50.5537 H   0  0  0  0  0  0  0  0  0  0  0  0
   39.5433   34.3683   49.3256 H   0  0  0  0  0  0  0  0  0  0  0  0
   38.8087   31.9204   45.9209 H   0  0  0  0  0  0  0  0  0  0  0  0
   37.9281   30.3786   51.2800 H   0  0  0  0  0  0  0  0  0  0  0  0
   35.0284   30.9893   48.1695 H   0  0  0  0  0  0  0  0  0  0  0  0
   34.0723   28.5339   51.3404 H   0  0  0  0  0  0  0  0  0  0  0  0
   40.9591   35.1743   47.1381 C   0  0  1  0  0  0  0  0  0  0  0  0
   42.1496   34.6498   47.9506 C   0  0  1  0  0  0  0  0  0  0  0  0
   42.8628   35.4636   48.1275 H   0  0  0  0  0  0  0  0  0  0  0  0
   42.7415   33.5242   47.1349 C   0  0  1  0  0  0  0  0  0  0  0  0
   43.6627   33.1086   47.6356 H   0  0  0  0  0  0  0  0  0  0  0  0
   43.0129   33.8607   45.8330 O   0  0  0  0  0  0  0  0  0  0  0  0
   42.9051   35.2192   45.5637 C   0  0  1  0  0  0  0  0  0  0  0  0
   43.7121   35.8162   46.0527 H   0  0  0  0  0  0  0  0  0  0  0  0
   41.5610   35.7802   45.8921 C   0  0  1  0  0  0  0  0  0  0  0  0
   40.9146   35.7112   45.0185 H   0  0  0  0  0  0  0  0  0  0  0  0
   40.3930   35.9113   47.7357 H   0  0  0  0  0  0  0  0  0  0  0  0
   41.7469   34.1933   48.8912 H   0  0  0  0  0  0  0  0  0  0  0  0
   41.9575   32.7118   47.1129 H   0  0  0  0  0  0  0  0  0  0  0  0
   43.0772   35.3546   44.4750 H   0  0  0  0  0  0  0  0  0  0  0  0
   41.6857   36.8735   46.1185 H   0  0  0  0  0  0  0  0  0  0  0  0
  1  2  2  0
  1  8  1  0
  3  2  1  0
  4  3  2  0
  5  4  1  0
  5  6  2  0
  6  1  1  0
  7 12  2  0
  8  7  1  0
  9  8  2  0
  9 10  1  0
 10 11  2  0
 11 12  1  0
 13  4  1  0
  2 14  1  0
  3 15  1  0
  5 16  1  0
  7 17  1  0
  9 18  1  0
 11 19  1  0
 20 21  1  0
 21 22  1  1
 21 23  1  0
 23 24  1  1
 23 25  1  0
 25 26  1  0
 26 27  1  1
 26 28  1  0
 28 29  1  6
 28 20  1  0
 20 30  1  1
 21 31  1  0
 23 32  1  0
 26 33  1  0
 28 34  1  0
 13 20  1  0
M  ISO  8  14  14  15  14  16  14  17  14  18  14  19  14  22  15  24  15
M  ISO  2  27  15  29  15
M  END
>  <DihAtoms>  (1) 
3,12,19,20

>  <DihDeg>  (1) 
122.22151919110786

$$$$
