
     RDKit          3D

 46 48  0  0  0  0  0  0  0  0999 V2000
   37.0799   30.9485   49.0283 C   0  0  0  0  0  0  0  0  0  0  0  0
   36.8100   31.8784   50.0353 C   0  0  0  0  0  0  0  0  0  0  0  0
   37.4242   33.1217   50.0623 C   0  0  0  0  0  0  0  0  0  0  0  0
   38.3362   33.4628   49.0627 C   0  0  0  0  0  0  0  0  0  0  0  0
   38.5883   32.5404   48.0850 C   0  0  0  0  0  0  0  0  0  0  0  0
   37.9590   31.3058   48.0860 C   0  0  0  0  0  0  0  0  0  0  0  0
   36.4665   29.6384   49.0176 C   0  0  1  0  0  0  0  0  0  0  0  0
   36.8635   28.8973   49.9907 O   0  0  0  0  0  0  0  0  0  0  0  0
   33.6150   30.1491   46.8228 C   0  0  0  0  0  0  0  0  0  0  0  0
   32.9545   28.9362   46.8445 C   0  0  0  0  0  0  0  0  0  0  0  0
   33.4477   27.9398   47.6674 C   0  0  0  0  0  0  0  0  0  0  0  0
   34.5693   28.1866   48.4281 N   0  0  0  0  0  0  0  0  0  0  0  0
   35.1562   29.3637   48.3617 C   0  0  0  0  0  0  0  0  0  0  0  0
   34.6876   30.3476   47.5671 N   0  0  0  0  0  0  0  0  0  0  0  0
   38.3438   30.4194   47.0117 C   0  0  0  0  0  0  0  0  0  0  0  0
   38.8198   30.8405   45.8350 C   0  0  0  0  0  0  0  0  0  0  0  0
   39.2862   30.0241   44.6892 C   0  0  0  0  0  0  0  0  0  0  0  0
   39.1852   30.9857   43.1785 S   0  0  0  0  0  0  0  0  0  0  0  0
   36.0894   31.5742   50.8009 H   0  0  0  0  0  0  0  0  0  0  0  0
   37.1243   33.7382   50.8935 H   0  0  0  0  0  0  0  0  0  0  0  0
   38.7725   34.4474   49.1510 H   0  0  0  0  0  0  0  0  0  0  0  0
   39.3201   32.9447   47.3770 H   0  0  0  0  0  0  0  0  0  0  0  0
   37.0074   29.0581   48.1755 H   0  0  0  0  0  0  0  0  0  0  0  0
   36.6025   29.0455   50.9243 H   0  0  0  0  0  0  0  0  0  0  0  0
   33.2580   30.9643   46.1868 H   0  0  0  0  0  0  0  0  0  0  0  0
   32.0899   28.8564   46.2067 H   0  0  0  0  0  0  0  0  0  0  0  0
   32.9272   26.9931   47.6822 H   0  0  0  0  0  0  0  0  0  0  0  0
   38.3613   29.3302   46.8950 H   0  0  0  0  0  0  0  0  0  0  0  0
   38.9172   31.9360   45.6854 H   0  0  0  0  0  0  0  0  0  0  0  0
   40.3756   29.8168   44.8681 H   0  0  0  0  0  0  0  0  0  0  0  0
   38.7298   29.0774   44.6582 H   0  0  0  0  0  0  0  0  0  0  0  0
   39.7242   30.0490   41.7278 C   0  0  2  0  0  0  0  0  0  0  0  0
   38.5575   29.7718   40.8390 C   0  0  1  0  0  0  0  0  0  0  0  0
   37.6440   29.4746   41.3853 H   0  0  0  0  0  0  0  0  0  0  0  0
   38.8161   28.7856   39.7528 C   0  0  2  0  0  0  0  0  0  0  0  0
   39.2671   29.3282   38.8793 H   0  0  0  0  0  0  0  0  0  0  0  0
   39.6193   27.7236   40.0831 O   0  0  0  0  0  0  0  0  0  0  0  0
   39.8668   27.5542   41.4260 C   0  0  2  0  0  0  0  0  0  0  0  0
   40.6896   26.7854   41.4873 H   0  0  0  0  0  0  0  0  0  0  0  0
   40.3801   28.7689   42.1243 C   0  0  2  0  0  0  0  0  0  0  0  0
   40.2314   28.6115   43.2312 H   0  0  0  0  0  0  0  0  0  0  0  0
   40.4454   30.6872   41.1670 H   0  0  0  0  0  0  0  0  0  0  0  0
   38.2870   30.7434   40.3302 H   0  0  0  0  0  0  0  0  0  0  0  0
   37.8032   28.4388   39.3913 H   0  0  0  0  0  0  0  0  0  0  0  0
   39.0295   27.1171   42.0007 H   0  0  0  0  0  0  0  0  0  0  0  0
   41.4929   28.8823   42.0264 H   0  0  0  0  0  0  0  0  0  0  0  0
  1  7  1  0
  1  2  2  0
  2  3  1  0
  4  3  2  0
  5  6  2  0
  5  4  1  0
  6  1  1  0
  7  8  1  0
  9 10  2  0
  9 14  1  0
 10 11  1  0
 11 12  2  0
 13 12  1  0
 13  7  1  0
 14 13  2  0
 15  6  1  0
 16 15  2  0
 17 16  1  0
 18 17  1  0
  2 19  1  0
  3 20  1  0
  4 21  1  0
  5 22  1  0
  7 23  1  6
  8 24  1  0
  9 25  1  0
 10 26  1  0
 11 27  1  0
 15 28  1  0
 16 29  1  0
 17 30  1  0
 17 31  1  0
 32 33  1  0
 33 34  1  1
 33 35  1  0
 35 36  1  6
 35 37  1  0
 37 38  1  0
 38 39  1  6
 38 40  1  0
 40 41  1  1
 40 32  1  0
 32 42  1  6
 33 43  1  0
 35 44  1  0
 38 45  1  0
 40 46  1  0
 18 32  1  0
M  ISO  8  19  14  20  14  21  14  22  14  23   8  24   3  25  14  26  14
M  ISO  7  27  14  30   8  31   8  34  15  36  15  39  15  41  15
M  END
>  <DihAtoms>  (1) 
16,17,31,32

>  <DihDeg>  (1) 
66.32674363147311

$$$$
