
     RDKit          3D

 51 53  0  0  0  0  0  0  0  0999 V2000
   34.8050   29.3870   48.8320 C   0  0  0  0  0  0  0  0  0  0  0  0
   37.5620   30.4420   48.5350 Cl  0  0  0  0  0  0  0  0  0  0  0  0
   36.4140   30.2930   47.1930 C   0  0  0  0  0  0  0  0  0  0  0  0
   36.7960   30.6750   45.9550 C   0  0  0  0  0  0  0  0  0  0  0  0
   35.9130   30.5650   44.9050 C   0  0  0  0  0  0  0  0  0  0  0  0
   34.6470   30.0610   45.1580 C   0  0  0  0  0  0  0  0  0  0  0  0
   34.3210   29.6850   46.4660 C   0  0  0  0  0  0  0  0  0  0  0  0
   35.1750   29.7860   47.5040 C   0  0  0  0  0  0  0  0  0  0  0  0
   39.7830   32.8330   46.0110 C   0  0  0  0  0  0  0  0  0  0  0  0
   40.6520   32.1180   45.1370 C   0  0  0  0  0  0  0  0  0  0  0  0
   40.1790   30.9190   44.5590 C   0  0  0  0  0  0  0  0  0  0  0  0
   38.9240   30.5020   44.8620 N   0  0  0  0  0  0  0  0  0  0  0  0
   38.1250   31.2080   45.6980 C   0  0  0  0  0  0  0  0  0  0  0  0
   38.5570   32.3520   46.2580 N   0  0  0  0  0  0  0  0  0  0  0  0
   41.0520   30.2400   43.7060 N   0  0  0  0  0  0  0  0  0  0  0  0
   34.1190   28.0990   49.0360 C   0  0  0  0  0  0  0  0  0  0  0  0
   32.7900   28.2820   49.3120 O   0  0  0  0  0  0  0  0  0  0  0  0
   32.6530   26.5380   47.3510 O   0  0  0  0  0  0  0  0  0  0  0  0
   31.8310   27.4270   48.2320 P   0  0  2  0  0  0  0  0  0  0  0  0
   31.0040   28.5990   47.2750 O   0  0  0  0  0  0  0  0  0  0  0  0
   30.7680   28.0460   46.0180 C   0  0  0  0  0  0  0  0  0  0  0  0
   29.3810   27.5040   45.8100 C   0  0  0  0  0  0  0  0  0  0  0  0
   28.3470   28.5880   45.7230 C   0  0  0  0  0  0  0  0  0  0  0  0
   28.7900   29.6710   44.9610 O   0  0  0  0  0  0  0  0  0  0  0  0
   29.8240   29.3150   44.1160 C   0  0  0  0  0  0  0  0  0  0  0  0
   31.0570   29.0100   44.9180 C   0  0  0  0  0  0  0  0  0  0  0  0
   30.6530   26.5400   48.9940 O   0  0  0  0  0  0  0  0  0  0  0  0
   29.8350   27.3350   49.7650 C   0  0  0  0  0  0  0  0  0  0  0  0
   29.3080   26.6520   50.8630 F   0  0  0  0  0  0  0  0  0  0  0  0
   30.5270   28.4210   50.2820 F   0  0  0  0  0  0  0  0  0  0  0  0
   28.7850   27.8140   49.0240 F   0  0  0  0  0  0  0  0  0  0  0  0
   34.1415   30.1697   49.2285 H   0  0  0  0  0  0  0  0  0  0  0  0
   35.7710   29.2495   49.3400 H   0  0  0  0  0  0  0  0  0  0  0  0
   36.2051   30.8698   43.8893 H   0  0  0  0  0  0  0  0  0  0  0  0
   33.9122   29.9584   44.3459 H   0  0  0  0  0  0  0  0  0  0  0  0
   33.3140   29.2857   46.6573 H   0  0  0  0  0  0  0  0  0  0  0  0
   40.1156   33.7714   46.4787 H   0  0  0  0  0  0  0  0  0  0  0  0
   41.6639   32.4897   44.9183 H   0  0  0  0  0  0  0  0  0  0  0  0
   41.9921   30.6190   43.5232 H   0  0  0  0  0  0  0  0  0  0  0  0
   40.7557   29.3602   43.2598 H   0  0  0  0  0  0  0  0  0  0  0  0
   34.2154   27.4930   48.1231 H   0  0  0  0  0  0  0  0  0  0  0  0
   34.5847   27.5890   49.8922 H   0  0  0  0  0  0  0  0  0  0  0  0
   31.4646   27.1953   45.9856 H   0  0  0  0  0  0  0  0  0  0  0  0
   29.3650   26.9255   44.8746 H   0  0  0  0  0  0  0  0  0  0  0  0
   29.1341   26.8758   46.6786 H   0  0  0  0  0  0  0  0  0  0  0  0
   27.4380   28.1760   45.2604 H   0  0  0  0  0  0  0  0  0  0  0  0
   28.1450   28.9487   46.7424 H   0  0  0  0  0  0  0  0  0  0  0  0
   30.0338   30.1456   43.4261 H   0  0  0  0  0  0  0  0  0  0  0  0
   29.5334   28.4214   43.5442 H   0  0  0  0  0  0  0  0  0  0  0  0
   31.8179   28.5758   44.2528 H   0  0  0  0  0  0  0  0  0  0  0  0
   31.4181   29.9474   45.3662 H   0  0  0  0  0  0  0  0  0  0  0  0
  1 16  1  0
  3  8  2  0
  3  2  1  0
  4  3  1  0
  5  6  1  0
  5  4  2  0
  6  7  2  0
  7  8  1  0
  8  1  1  0
  9 14  2  0
 10  9  1  0
 11 12  1  0
 11 10  2  0
 12 13  2  0
 13  4  1  0
 13 14  1  0
 15 11  1  0
 16 17  1  0
 19 18  2  0
 19 27  1  0
 19 17  1  0
 20 19  1  0
 21 20  1  0
 22 21  1  0
 23 22  1  0
 24 23  1  0
 25 26  1  0
 25 24  1  0
 26 21  1  0
 27 28  1  0
 28 30  1  0
 28 29  1  0
 31 28  1  0
  1 32  1  0
  1 33  1  0
  5 34  1  0
  6 35  1  0
  7 36  1  0
  9 37  1  0
 10 38  1  0
 15 39  1  0
 15 40  1  0
 16 41  1  0
 16 42  1  0
 21 43  1  0
 22 44  1  0
 22 45  1  0
 23 46  1  0
 23 47  1  0
 25 48  1  0
 25 49  1  0
 26 50  1  0
 26 51  1  0
M  ISO  8  32   8  33   8  34  14  35  14  36  14  37  14  38  14  41   8
M  ISO  8  42   8  43  13  44  13  45  13  46  13  47  13  48  13  49  13
M  ISO  2  50  13  51  13
M  END
>  <minimizedAffinity>  (1) 
-5.75835848

>  <minimizedRMSD>  (1) 
0.299877048

$$$$
