
     RDKit          3D

 43 45  0  0  0  0  0  0  0  0999 V2000
   39.5948   32.8596   46.3017 N   0  0  0  0  0  0  0  0  0  0  0  0
   38.2703   32.3545   46.0676 C   0  0  1  0  0  0  0  0  0  0  0  0
   37.9318   32.4089   44.6055 C   0  0  0  0  0  0  0  0  0  0  0  0
   38.9370   31.5924   43.9124 N   0  0  0  0  0  0  0  0  0  0  0  0
   40.1887   32.3558   44.0234 C   0  0  0  0  0  0  0  0  0  0  0  0
   40.5882   32.2658   45.4748 C   0  0  2  0  0  0  0  0  0  0  0  0
   40.8386   30.8826   45.8071 N   0  0  0  0  0  0  0  0  0  0  0  0
   38.1251   30.5950   46.5686 S   0  0  0  0  0  0  0  0  0  0  0  0
   37.8849   30.9345   50.6007 C   0  0  0  0  0  0  0  0  0  0  0  0
   38.3521   31.0866   49.3156 C   0  0  0  0  0  0  0  0  0  0  0  0
   37.6607   30.4960   48.2851 C   0  0  0  0  0  0  0  0  0  0  0  0
   36.5215   29.7720   48.5869 N   0  0  0  0  0  0  0  0  0  0  0  0
   36.1181   29.6610   49.8591 C   0  0  0  0  0  0  0  0  0  0  0  0
   36.7861   30.2319   50.8572 N   0  0  0  0  0  0  0  0  0  0  0  0
   34.9212   28.9061   50.1785 C   0  0  0  0  0  0  0  0  0  0  0  0
   34.4901   27.9724   49.4350 O   0  0  0  0  0  0  0  0  0  0  0  0
   39.6048   33.8788   46.3000 H   0  0  0  0  0  0  0  0  0  0  0  0
   37.5552   32.9701   46.6678 H   0  0  0  0  0  0  0  0  0  0  0  0
   38.0413   33.4686   44.2724 H   0  0  0  0  0  0  0  0  0  0  0  0
   36.9219   32.0084   44.4388 H   0  0  0  0  0  0  0  0  0  0  0  0
   38.6520   31.5914   42.9164 H   0  0  0  0  0  0  0  0  0  0  0  0
   40.0439   33.4006   43.7068 H   0  0  0  0  0  0  0  0  0  0  0  0
   40.9447   31.8220   43.3978 H   0  0  0  0  0  0  0  0  0  0  0  0
   41.5432   32.8189   45.6468 H   0  0  0  0  0  0  0  0  0  0  0  0
   40.2723   30.2379   45.2188 H   0  0  0  0  0  0  0  0  0  0  0  0
   41.8480   30.6255   45.8223 H   0  0  0  0  0  0  0  0  0  0  0  0
   38.4969   31.4364   51.3456 H   0  0  0  0  0  0  0  0  0  0  0  0
   39.2435   31.6520   49.0716 H   0  0  0  0  0  0  0  0  0  0  0  0
   34.1052   29.1527   51.3814 C   0  0  0  0  0  0  0  0  0  0  0  0
   33.0489   30.2084   51.2240 C   0  0  1  0  0  0  0  0  0  0  0  0
   33.5281   31.1938   51.5001 H   0  0  0  0  0  0  0  0  0  0  0  0
   31.9885   29.8687   52.2807 C   0  0  1  0  0  0  0  0  0  0  0  0
   31.3219   30.7297   52.4859 H   0  0  0  0  0  0  0  0  0  0  0  0
   32.6546   29.4484   53.4170 O   0  0  0  0  0  0  0  0  0  0  0  0
   33.8926   30.0677   53.6049 C   0  0  2  0  0  0  0  0  0  0  0  0
   34.2312   29.7445   54.6247 H   0  0  0  0  0  0  0  0  0  0  0  0
   34.9242   29.5552   52.5903 C   0  0  1  0  0  0  0  0  0  0  0  0
   35.4739   28.7121   53.0279 H   0  0  0  0  0  0  0  0  0  0  0  0
   33.5974   28.1840   51.6112 H   0  0  0  0  0  0  0  0  0  0  0  0
   32.6160   30.3179   50.2367 H   0  0  0  0  0  0  0  0  0  0  0  0
   31.4357   28.9975   51.8678 H   0  0  0  0  0  0  0  0  0  0  0  0
   33.7918   31.1617   53.5835 H   0  0  0  0  0  0  0  0  0  0  0  0
   35.6270   30.3779   52.2901 H   0  0  0  0  0  0  0  0  0  0  0  0
  2  1  1  0
  2  8  1  0
  3  2  1  0
  4  5  1  0
  4  3  1  0
  5  6  1  0
  6  7  1  0
  6  1  1  0
  8 11  1  0
  9 14  2  0
 10  9  1  0
 11 12  1  0
 11 10  2  0
 12 13  2  0
 13 15  1  0
 13 14  1  0
 16 15  2  0
  1 17  1  0
  2 18  1  1
  3 19  1  0
  3 20  1  0
  4 21  1  0
  5 22  1  0
  5 23  1  0
  6 24  1  6
  7 25  1  0
  7 26  1  0
  9 27  1  0
 10 28  1  0
 29 30  1  0
 30 31  1  1
 30 32  1  0
 32 33  1  1
 32 34  1  0
 34 35  1  0
 35 36  1  1
 35 37  1  0
 37 38  1  1
 37 29  1  0
 29 39  1  0
 30 40  1  0
 32 41  1  0
 35 42  1  0
 37 43  1  0
 15 29  1  0
M  ISO  8  17   5  18  13  19  13  20  13  21   5  22  13  23  13  24  13
M  ISO  8  25   5  26   5  27  14  28  14  31  15  33  15  36  15  38  15
M  END
>  <DihAtoms>  (1) 
12,14,28,29

>  <DihDeg>  (1) 
-63.026461869469706

$$$$
