
     RDKit          3D

 34 36  0  0  0  0  0  0  0  0999 V2000
   37.5522   31.6818   48.9435 C   0  0  0  0  0  0  0  0  0  0  0  0
   38.1869   32.7394   49.5157 C   0  0  0  0  0  0  0  0  0  0  0  0
   39.0732   33.5436   48.8092 C   0  0  0  0  0  0  0  0  0  0  0  0
   39.3549   33.3137   47.4984 C   0  0  0  0  0  0  0  0  0  0  0  0
   38.6979   32.2365   46.9433 C   0  0  0  0  0  0  0  0  0  0  0  0
   37.8442   31.4673   47.6360 N   0  0  0  0  0  0  0  0  0  0  0  0
   36.9425   30.1802   50.8640 C   0  0  0  0  0  0  0  0  0  0  0  0
   36.6199   30.8060   49.6368 C   0  0  0  0  0  0  0  0  0  0  0  0
   35.3767   30.5673   49.0939 C   0  0  0  0  0  0  0  0  0  0  0  0
   34.5338   29.7306   49.7916 N   0  0  0  0  0  0  0  0  0  0  0  0
   34.8739   29.1577   50.9483 C   0  0  0  0  0  0  0  0  0  0  0  0
   36.0929   29.3753   51.5066 N   0  0  0  0  0  0  0  0  0  0  0  0
   40.2180   34.0556   46.7236 O   0  0  0  0  0  0  0  0  0  0  0  0
   38.0039   32.9719   50.5537 H   0  0  0  0  0  0  0  0  0  0  0  0
   39.5433   34.3683   49.3256 H   0  0  0  0  0  0  0  0  0  0  0  0
   38.8087   31.9204   45.9209 H   0  0  0  0  0  0  0  0  0  0  0  0
   37.9281   30.3786   51.2800 H   0  0  0  0  0  0  0  0  0  0  0  0
   35.0284   30.9893   48.1695 H   0  0  0  0  0  0  0  0  0  0  0  0
   34.0723   28.5339   51.3404 H   0  0  0  0  0  0  0  0  0  0  0  0
   40.9591   35.1743   47.1381 C   0  0  1  0  0  0  0  0  0  0  0  0
   40.7724   36.2591   46.0699 C   0  0  1  0  0  0  0  0  0  0  0  0
   41.1653   37.2132   46.4403 H   0  0  0  0  0  0  0  0  0  0  0  0
   39.2886   36.3102   45.7892 C   0  0  1  0  0  0  0  0  0  0  0  0
   39.0498   37.1240   45.0459 H   0  0  0  0  0  0  0  0  0  0  0  0
   38.5121   36.4424   46.9124 O   0  0  0  0  0  0  0  0  0  0  0  0
   39.2289   36.7267   48.0677 C   0  0  1  0  0  0  0  0  0  0  0  0
   39.6663   37.7541   48.0562 H   0  0  0  0  0  0  0  0  0  0  0  0
   40.2780   35.7099   48.3755 C   0  0  1  0  0  0  0  0  0  0  0  0
   39.8563   34.9329   49.0112 H   0  0  0  0  0  0  0  0  0  0  0  0
   42.0362   34.9855   47.2964 H   0  0  0  0  0  0  0  0  0  0  0  0
   41.2692   35.9030   45.1308 H   0  0  0  0  0  0  0  0  0  0  0  0
   39.0279   35.3175   45.3184 H   0  0  0  0  0  0  0  0  0  0  0  0
   38.5056   36.7398   48.9102 H   0  0  0  0  0  0  0  0  0  0  0  0
   41.0869   36.2133   48.9709 H   0  0  0  0  0  0  0  0  0  0  0  0
  1  2  2  0
  1  8  1  0
  3  2  1  0
  4  3  2  0
  5  4  1  0
  5  6  2  0
  6  1  1  0
  7 12  2  0
  8  7  1  0
  9  8  2  0
  9 10  1  0
 10 11  2  0
 11 12  1  0
 13  4  1  0
  2 14  1  0
  3 15  1  0
  5 16  1  0
  7 17  1  0
  9 18  1  0
 11 19  1  0
 20 21  1  0
 21 22  1  1
 21 23  1  0
 23 24  1  6
 23 25  1  0
 25 26  1  0
 26 27  1  6
 26 28  1  0
 28 29  1  1
 28 20  1  0
 20 30  1  1
 21 31  1  0
 23 32  1  0
 26 33  1  0
 28 34  1  0
 13 20  1  0
M  ISO  8  14  14  15  14  16  14  17  14  18  14  19  14  22  15  24  15
M  ISO  2  27  15  29  15
M  END
>  <DihAtoms>  (1) 
3,12,19,20

>  <DihDeg>  (1) 
122.22151919110786

$$$$
