
     RDKit          3D

 47 50  0  0  0  0  0  0  0  0999 V2000
   34.0024   28.8169   48.2801 C   0  0  0  0  0  0  0  0  0  0  0  0
   34.6220   28.3804   49.4113 C   0  0  0  0  0  0  0  0  0  0  0  0
   35.8543   28.8096   49.8580 C   0  0  0  0  0  0  0  0  0  0  0  0
   36.5409   29.7439   49.1408 C   0  0  0  0  0  0  0  0  0  0  0  0
   35.9181   30.1998   47.9801 C   0  0  0  0  0  0  0  0  0  0  0  0
   34.7128   29.7462   47.5901 N   0  0  0  0  0  0  0  0  0  0  0  0
   31.8937   27.5146   48.5642 C   0  0  0  0  0  0  0  0  0  0  0  0
   32.7319   28.3626   47.8356 C   0  0  0  0  0  0  0  0  0  0  0  0
   32.2621   28.7637   46.6103 C   0  0  0  0  0  0  0  0  0  0  0  0
   31.0413   28.3408   46.1572 N   0  0  0  0  0  0  0  0  0  0  0  0
   30.2763   27.5178   46.9135 C   0  0  0  0  0  0  0  0  0  0  0  0
   30.6913   27.0871   48.1383 N   0  0  0  0  0  0  0  0  0  0  0  0
   37.7816   30.2892   49.4332 O   0  0  0  0  0  0  0  0  0  0  0  0
   38.3679   31.2660   48.6369 C   0  0  0  0  0  0  0  0  0  0  0  0
   38.4513   32.5080   49.2364 C   0  0  0  0  0  0  0  0  0  0  0  0
   39.0528   33.3637   48.3248 C   0  0  0  0  0  0  0  0  0  0  0  0
   39.3092   32.6277   47.2251 N   0  0  0  0  0  0  0  0  0  0  0  0
   38.9083   31.4045   47.4108 N   0  0  0  0  0  0  0  0  0  0  0  0
   39.9408   33.1189   46.0045 C   0  0  0  0  0  0  0  0  0  0  0  0
   40.6701   31.9606   45.3880 C   0  0  0  0  0  0  0  0  0  0  0  0
   34.1537   27.6373   50.0475 H   0  0  0  0  0  0  0  0  0  0  0  0
   36.3350   28.4535   50.7598 H   0  0  0  0  0  0  0  0  0  0  0  0
   36.3259   30.9402   47.2963 H   0  0  0  0  0  0  0  0  0  0  0  0
   32.2220   27.1735   49.5339 H   0  0  0  0  0  0  0  0  0  0  0  0
   32.7970   29.4189   45.9327 H   0  0  0  0  0  0  0  0  0  0  0  0
   29.3107   27.1532   46.6111 H   0  0  0  0  0  0  0  0  0  0  0  0
   38.1745   32.9376   50.1879 H   0  0  0  0  0  0  0  0  0  0  0  0
   39.3087   34.4245   48.3873 H   0  0  0  0  0  0  0  0  0  0  0  0
   39.2114   33.6079   45.3445 H   0  0  0  0  0  0  0  0  0  0  0  0
   40.6384   33.9349   46.3284 H   0  0  0  0  0  0  0  0  0  0  0  0
   39.9114   31.2018   45.1241 H   0  0  0  0  0  0  0  0  0  0  0  0
   41.4119   31.5774   46.0911 H   0  0  0  0  0  0  0  0  0  0  0  0
   41.3697   32.3766   44.0950 C   0  0  2  0  0  0  0  0  0  0  0  0
   40.5000   32.1997   42.8963 C   0  0  1  0  0  0  0  0  0  0  0  0
   39.5454   31.7167   43.2604 H   0  0  0  0  0  0  0  0  0  0  0  0
   41.0371   31.3185   41.8233 C   0  0  2  0  0  0  0  0  0  0  0  0
   40.7316   31.6971   40.8298 H   0  0  0  0  0  0  0  0  0  0  0  0
   42.4274   31.2323   41.7808 O   0  0  0  0  0  0  0  0  0  0  0  0
   42.7863   30.6203   43.0042 C   0  0  2  0  0  0  0  0  0  0  0  0
   43.8074   30.2322   42.9770 H   0  0  0  0  0  0  0  0  0  0  0  0
   42.7154   31.7412   44.0228 C   0  0  2  0  0  0  0  0  0  0  0  0
   42.9594   31.2967   44.9983 H   0  0  0  0  0  0  0  0  0  0  0  0
   41.5099   33.4935   44.2085 H   0  0  0  0  0  0  0  0  0  0  0  0
   40.1551   33.1568   42.4432 H   0  0  0  0  0  0  0  0  0  0  0  0
   40.6165   30.2900   41.8949 H   0  0  0  0  0  0  0  0  0  0  0  0
   42.0459   29.8437   43.1997 H   0  0  0  0  0  0  0  0  0  0  0  0
   43.4688   32.5057   43.7436 H   0  0  0  0  0  0  0  0  0  0  0  0
  1  2  2  0
  2  3  1  0
  4 13  1  0
  4  3  2  0
  5  4  1  0
  6  5  2  0
  6  1  1  0
  8  1  1  0
  8  7  2  0
  9  8  1  0
 10  9  2  0
 10 11  1  0
 11 12  2  0
 12  7  1  0
 14 15  1  0
 14 13  1  0
 16 15  2  0
 17 18  1  0
 17 16  1  0
 18 14  2  0
 19 17  1  0
 20 19  1  0
  2 21  1  0
  3 22  1  0
  5 23  1  0
  7 24  1  0
  9 25  1  0
 11 26  1  0
 15 27  1  0
 16 28  1  0
 19 29  1  0
 19 30  1  0
 20 31  1  0
 20 32  1  0
 33 34  1  0
 34 35  1  1
 34 36  1  0
 36 37  1  6
 36 38  1  0
 38 39  1  0
 39 40  1  6
 39 41  1  0
 41 42  1  1
 41 33  1  0
 33 43  1  1
 34 44  1  0
 36 45  1  0
 39 46  1  0
 41 47  1  0
 20 33  1  0
M  ISO  8  21  14  22  14  23  14  24  14  25  14  26  14  27  14  28  14
M  ISO  8  29   8  30   8  31   8  32   8  35  15  37  15  40  15  42  15
M  END
>  <DihAtoms>  (1) 
18,19,32,33

>  <DihDeg>  (1) 
-60.08218852380818

$$$$
