
     RDKit          3D

 44 46  0  0  1  0  0  0  0  0999 V2000
   37.1760   29.3040   50.5700 C   0  0  0  0  0  0  0  0  0  0  0  0
   36.6300   29.1190   49.3090 C   0  0  0  0  0  0  0  0  0  0  0  0
   35.2710   29.0820   49.0750 C   0  0  0  0  0  0  0  0  0  0  0  0
   34.5170   29.2380   50.1850 N   0  0  0  0  0  0  0  0  0  0  0  0
   34.9930   29.4190   51.4270 C   0  0  0  0  0  0  0  0  0  0  0  0
   36.3320   29.4500   51.6110 N   0  0  0  0  0  0  0  0  0  0  0  0
   34.7370   28.8990   47.7960 N   0  0  0  0  0  0  0  0  0  0  0  0
   34.1420   27.6280   47.5190 C   0  0  0  0  0  0  0  0  0  0  0  0
   33.5500   27.4850   46.1510 C   0  0  0  0  0  0  0  0  0  0  0  0
   33.4000   28.6240   45.3950 N   0  0  0  0  0  0  0  0  0  0  0  0
   34.3830   29.6430   45.4700 C   0  0  0  0  0  0  0  0  0  0  0  0
   34.8140   29.9910   46.8550 C   0  0  2  0  0  0  0  0  0  0  0  0
   36.1650   30.6220   46.7440 C   0  0  0  0  0  0  0  0  0  0  0  0
   36.5840   30.4200   45.2750 C   0  0  0  0  0  0  0  0  0  0  0  0
   38.0110   30.9810   45.1250 C   0  0  0  0  0  0  0  0  0  0  0  0
   38.7780   30.9280   46.4140 C   0  0  0  0  0  0  0  0  0  0  0  0
   39.4230   32.2550   46.7450 C   0  0  0  0  0  0  0  0  0  0  0  0
   40.0640   32.8460   45.6850 O   0  0  0  0  0  0  0  0  0  0  0  0
   39.3180   32.9680   44.5360 C   0  0  0  0  0  0  0  0  0  0  0  0
   37.9200   32.4090   44.6790 C   0  0  0  0  0  0  0  0  0  0  0  0
   38.2658   29.3308   50.7167 H   0  0  0  0  0  0  0  0  0  0  0  0
   37.3125   28.9960   48.4551 H   0  0  0  0  0  0  0  0  0  0  0  0
   34.3070   29.5397   52.2784 H   0  0  0  0  0  0  0  0  0  0  0  0
   34.9173   26.8566   47.6365 H   0  0  0  0  0  0  0  0  0  0  0  0
   33.3058   27.5222   48.2258 H   0  0  0  0  0  0  0  0  0  0  0  0
   34.1955   26.7978   45.5844 H   0  0  0  0  0  0  0  0  0  0  0  0
   32.5230   27.1334   46.3289 H   0  0  0  0  0  0  0  0  0  0  0  0
   32.5037   29.0508   45.6698 H   0  0  0  0  0  0  0  0  0  0  0  0
   35.2681   29.3075   44.9096 H   0  0  0  0  0  0  0  0  0  0  0  0
   33.9237   30.5500   45.0499 H   0  0  0  0  0  0  0  0  0  0  0  0
   34.1060   30.7072   47.2976 H   0  0  0  0  0  0  0  0  0  0  0  0
   36.1116   31.6937   46.9863 H   0  0  0  0  0  0  0  0  0  0  0  0
   36.8869   30.1750   47.4433 H   0  0  0  0  0  0  0  0  0  0  0  0
   36.5721   29.3491   45.0239 H   0  0  0  0  0  0  0  0  0  0  0  0
   35.8889   30.9367   44.5969 H   0  0  0  0  0  0  0  0  0  0  0  0
   38.5435   30.3619   44.3880 H   0  0  0  0  0  0  0  0  0  0  0  0
   38.0883   30.6560   47.2266 H   0  0  0  0  0  0  0  0  0  0  0  0
   39.5772   30.1803   46.3030 H   0  0  0  0  0  0  0  0  0  0  0  0
   38.6399   32.9405   47.1010 H   0  0  0  0  0  0  0  0  0  0  0  0
   40.1899   32.0537   47.5074 H   0  0  0  0  0  0  0  0  0  0  0  0
   39.8305   32.4283   43.7260 H   0  0  0  0  0  0  0  0  0  0  0  0
   39.2230   34.0418   44.3169 H   0  0  0  0  0  0  0  0  0  0  0  0
   37.3630   32.9942   45.4256 H   0  0  0  0  0  0  0  0  0  0  0  0
   37.3958   32.4651   43.7136 H   0  0  0  0  0  0  0  0  0  0  0  0
  1  6  2  0
  2  1  1  0
  3  2  2  0
  3  4  1  0
  4  5  2  0
  5  6  1  0
  7  3  1  0
  8  7  1  0
  9  8  1  0
 10 11  1  0
 10  9  1  0
 11 12  1  0
 12  7  1  0
 13 12  1  0
 14 13  1  0
 15 14  1  0
 15 16  1  0
 16 17  1  0
 18 17  1  0
 19 20  1  0
 19 18  1  0
 20 15  1  0
  1 21  1  0
  2 22  1  0
  5 23  1  0
  8 24  1  0
  8 25  1  0
  9 26  1  0
  9 27  1  0
 10 28  1  0
 11 29  1  0
 11 30  1  0
 12 31  1  1
 13 32  1  0
 13 33  1  0
 14 34  1  0
 14 35  1  0
 15 36  1  0
 16 37  1  0
 16 38  1  0
 17 39  1  0
 17 40  1  0
 19 41  1  0
 19 42  1  0
 20 43  1  0
 20 44  1  0
M  ISO  8  21  14  22  14  23  14  24  13  25  13  26  13  27  13  28   5
M  ISO  8  29  13  30  13  31  13  32   8  33   8  34   8  35   8  36  13
M  ISO  8  37  13  38  13  39  13  40  13  41  13  42  13  43  13  44  13
M  END
>  <minimizedAffinity>  (1) 
-4.81278896

>  <minimizedRMSD>  (1) 
5.57571793

$$$$
