
     RDKit          3D

 43 45  0  0  0  0  0  0  0  0999 V2000
   37.5715   30.8151   49.5039 C   0  0  0  0  0  0  0  0  0  0  0  0
   37.4900   32.1326   49.9216 C   0  0  0  0  0  0  0  0  0  0  0  0
   37.9347   33.1336   49.0114 C   0  0  0  0  0  0  0  0  0  0  0  0
   38.4044   32.6997   47.8011 N   0  0  0  0  0  0  0  0  0  0  0  0
   38.4597   31.4247   47.4537 C   0  0  0  0  0  0  0  0  0  0  0  0
   38.0443   30.4807   48.3024 N   0  0  0  0  0  0  0  0  0  0  0  0
   38.9698   31.1171   46.1623 N   0  0  0  0  0  0  0  0  0  0  0  0
   40.3778   30.8609   45.9981 C   0  0  0  0  0  0  0  0  0  0  0  0
   40.9198   31.5662   44.7650 C   0  0  0  0  0  0  0  0  0  0  0  0
   40.1063   31.3190   43.6311 N   0  0  0  0  0  0  0  0  0  0  0  0
   38.9488   30.4827   43.8442 C   0  0  0  0  0  0  0  0  0  0  0  0
   38.1218   31.0471   45.0029 C   0  0  2  0  0  0  0  0  0  0  0  0
   37.1033   29.7563   50.4625 C   0  0  0  0  0  0  0  0  0  0  0  0
   35.8107   29.3658   50.1431 F   0  0  0  0  0  0  0  0  0  0  0  0
   38.0018   28.7329   50.4367 F   0  0  0  0  0  0  0  0  0  0  0  0
   37.0225   30.3520   51.7238 F   0  0  0  0  0  0  0  0  0  0  0  0
   37.4213   32.2829   44.6626 C   0  0  0  0  0  0  0  0  0  0  0  0
   37.4815   32.6698   43.4716 O   0  0  0  0  0  0  0  0  0  0  0  0
   37.1093   32.4197   50.8918 H   0  0  0  0  0  0  0  0  0  0  0  0
   37.8947   34.1804   49.2834 H   0  0  0  0  0  0  0  0  0  0  0  0
   40.9622   31.1805   46.8803 H   0  0  0  0  0  0  0  0  0  0  0  0
   40.5026   29.7601   45.7814 H   0  0  0  0  0  0  0  0  0  0  0  0
   41.9144   31.0896   44.5786 H   0  0  0  0  0  0  0  0  0  0  0  0
   41.0809   32.6365   45.0038 H   0  0  0  0  0  0  0  0  0  0  0  0
   40.5994   31.0051   42.7847 H   0  0  0  0  0  0  0  0  0  0  0  0
   39.2484   29.4644   44.1622 H   0  0  0  0  0  0  0  0  0  0  0  0
   38.3554   30.4868   42.9216 H   0  0  0  0  0  0  0  0  0  0  0  0
   37.3960   30.2011   45.2318 H   0  0  0  0  0  0  0  0  0  0  0  0
   36.5741   33.3308   45.3115 C   0  0  2  0  0  0  0  0  0  0  0  0
   36.6540   33.0356   46.8189 C   0  0  2  0  0  0  0  0  0  0  0  0
   37.4708   33.5608   47.3149 H   0  0  0  0  0  0  0  0  0  0  0  0
   35.3179   33.3085   47.4788 C   0  0  1  0  0  0  0  0  0  0  0  0
   34.6201   32.4495   47.4286 H   0  0  0  0  0  0  0  0  0  0  0  0
   34.7752   34.4529   46.9501 O   0  0  0  0  0  0  0  0  0  0  0  0
   34.2669   34.1133   45.6965 C   0  0  1  0  0  0  0  0  0  0  0  0
   33.2070   33.7628   45.8648 H   0  0  0  0  0  0  0  0  0  0  0  0
   35.0770   33.0683   45.0063 C   0  0  1  0  0  0  0  0  0  0  0  0
   34.8932   33.1353   43.9199 H   0  0  0  0  0  0  0  0  0  0  0  0
   36.8168   34.3539   45.0562 H   0  0  0  0  0  0  0  0  0  0  0  0
   36.8113   31.9443   46.9162 H   0  0  0  0  0  0  0  0  0  0  0  0
   35.5544   33.4075   48.5783 H   0  0  0  0  0  0  0  0  0  0  0  0
   34.1612   35.0600   45.1249 H   0  0  0  0  0  0  0  0  0  0  0  0
   34.8517   32.0878   45.4348 H   0  0  0  0  0  0  0  0  0  0  0  0
  1  2  2  0
  1 13  1  0
  3  2  1  0
  4  3  2  0
  5  4  1  0
  5  6  2  0
  6  1  1  0
  7  5  1  0
  8  7  1  0
  9  8  1  0
 10 11  1  0
 10  9  1  0
 11 12  1  0
 12  7  1  0
 13 16  1  0
 14 13  1  0
 15 13  1  0
 17 12  1  0
 18 17  2  0
  2 19  1  0
  3 20  1  0
  8 21  1  0
  8 22  1  0
  9 23  1  0
  9 24  1  0
 10 25  1  0
 11 26  1  0
 11 27  1  0
 12 28  1  1
 29 30  1  0
 30 31  1  1
 30 32  1  0
 32 33  1  1
 32 34  1  0
 34 35  1  0
 35 36  1  1
 35 37  1  0
 37 38  1  6
 37 29  1  0
 29 39  1  1
 30 40  1  0
 32 41  1  0
 35 42  1  0
 37 43  1  0
 17 29  1  0
M  ISO  8  19  14  20  14  21  13  22  13  23  13  24  13  25   5  26  13
M  ISO  6  27  13  28  13  31  15  33  15  36  15  38  15
M  END
>  <DihAtoms>  (1) 
11,16,28,29

>  <DihDeg>  (1) 
-50.52420047815126

$$$$
