
     RDKit          3D

 47 49  0  0  0  0  0  0  0  0999 V2000
   35.5927   30.1845   47.6326 C   0  0  0  0  0  0  0  0  0  0  0  0
   32.7676   28.0645   48.8865 C   0  0  0  0  0  0  0  0  0  0  0  0
   33.9698   28.7727   48.8659 C   0  0  0  0  0  0  0  0  0  0  0  0
   34.3493   29.4222   47.7308 C   0  0  0  0  0  0  0  0  0  0  0  0
   33.5238   29.3544   46.6382 N   0  0  0  0  0  0  0  0  0  0  0  0
   32.3758   28.6628   46.6995 C   0  0  0  0  0  0  0  0  0  0  0  0
   31.9764   28.0145   47.7993 N   0  0  0  0  0  0  0  0  0  0  0  0
   36.5739   29.8726   48.7028 C   0  0  0  0  0  0  0  0  0  0  0  0
   37.0721   31.3774   49.5703 S   0  0  0  0  0  0  0  0  0  0  0  0
   38.4646   32.1494   48.7272 C   0  0  2  0  0  0  0  0  0  0  0  0
   39.0439   33.1538   49.5954 C   0  0  0  0  0  0  0  0  0  0  0  0
   39.5746   34.2687   48.7463 C   0  0  0  0  0  0  0  0  0  0  0  0
   40.1365   33.8624   47.4696 C   0  0  0  0  0  0  0  0  0  0  0  0
   39.4679   32.8168   46.6571 C   0  0  0  0  0  0  0  0  0  0  0  0
   38.0972   32.5293   47.3516 C   0  0  2  0  0  0  0  0  0  0  0  0
   35.9821   29.9559   46.5913 H   0  0  0  0  0  0  0  0  0  0  0  0
   35.2957   31.2366   47.5785 H   0  0  0  0  0  0  0  0  0  0  0  0
   32.3934   27.5214   49.7465 H   0  0  0  0  0  0  0  0  0  0  0  0
   34.4927   28.7311   49.8054 H   0  0  0  0  0  0  0  0  0  0  0  0
   31.8084   28.6848   45.7671 H   0  0  0  0  0  0  0  0  0  0  0  0
   37.5205   29.5488   48.1558 H   0  0  0  0  0  0  0  0  0  0  0  0
   36.3676   29.0258   49.3546 H   0  0  0  0  0  0  0  0  0  0  0  0
   39.1889   31.2880   48.5772 H   0  0  0  0  0  0  0  0  0  0  0  0
   39.8605   32.6881   50.1946 H   0  0  0  0  0  0  0  0  0  0  0  0
   38.3634   33.5425   50.4098 H   0  0  0  0  0  0  0  0  0  0  0  0
   38.9825   35.2021   48.8327 H   0  0  0  0  0  0  0  0  0  0  0  0
   40.4955   34.6182   49.3492 H   0  0  0  0  0  0  0  0  0  0  0  0
   40.2720   34.7897   46.8341 H   0  0  0  0  0  0  0  0  0  0  0  0
   41.2050   33.5139   47.6023 H   0  0  0  0  0  0  0  0  0  0  0  0
   40.0402   31.8821   46.5891 H   0  0  0  0  0  0  0  0  0  0  0  0
   39.2981   33.1638   45.6326 H   0  0  0  0  0  0  0  0  0  0  0  0
   37.7434   31.6309   46.8174 H   0  0  0  0  0  0  0  0  0  0  0  0
   37.2876   33.6837   47.0018 C   0  0  1  0  0  0  0  0  0  0  0  0
   35.8660   33.3484   46.5020 C   0  0  2  0  0  0  0  0  0  0  0  0
   35.1561   33.3564   47.3616 H   0  0  0  0  0  0  0  0  0  0  0  0
   35.3754   34.5276   45.6656 C   0  0  2  0  0  0  0  0  0  0  0  0
   34.3863   34.2990   45.2696 H   0  0  0  0  0  0  0  0  0  0  0  0
   35.2967   35.6057   46.5464 O   0  0  0  0  0  0  0  0  0  0  0  0
   36.5679   35.9819   46.9768 C   0  0  2  0  0  0  0  0  0  0  0  0
   36.5332   36.9426   47.4994 H   0  0  0  0  0  0  0  0  0  0  0  0
   37.1730   34.8676   47.8658 C   0  0  2  0  0  0  0  0  0  0  0  0
   38.1123   35.3099   48.2151 H   0  0  0  0  0  0  0  0  0  0  0  0
   37.6583   34.1122   45.9942 H   0  0  0  0  0  0  0  0  0  0  0  0
   35.8281   32.4161   45.9622 H   0  0  0  0  0  0  0  0  0  0  0  0
   36.0973   34.7156   44.8435 H   0  0  0  0  0  0  0  0  0  0  0  0
   37.2163   36.0078   46.0764 H   0  0  0  0  0  0  0  0  0  0  0  0
   36.4290   34.6932   48.6683 H   0  0  0  0  0  0  0  0  0  0  0  0
  1  4  1  0
  1  8  1  0
  2  3  2  0
  4  3  1  0
  5  6  1  0
  5  4  2  0
  6  7  2  0
  7  2  1  0
  8  9  1  0
 10 11  1  0
 10  9  1  0
 12 11  1  0
 13 12  1  0
 14 15  1  0
 14 13  1  0
 15 10  1  0
  1 16  1  0
  1 17  1  0
  2 18  1  0
  3 19  1  0
  6 20  1  0
  8 21  1  0
  8 22  1  0
 10 23  1  6
 11 24  1  0
 11 25  1  0
 12 26  1  0
 12 27  1  0
 13 28  1  0
 13 29  1  0
 14 30  1  0
 14 31  1  0
 15 32  1  6
 33 34  1  0
 34 35  1  1
 34 36  1  0
 36 37  1  6
 36 38  1  0
 38 39  1  0
 39 40  1  1
 39 41  1  0
 41 42  1  1
 41 33  1  0
 33 43  1  6
 34 44  1  0
 36 45  1  0
 39 46  1  0
 41 47  1  0
 15 33  1  0
M  ISO  8  16   8  17   8  18  14  19  14  20  14  21   8  22   8  23  13
M  ISO  8  24  13  25  13  26  13  27  13  28  13  29  13  30  13  31  13
M  ISO  5  32  13  35  15  37  15  40  15  42  15
M  END
>  <DihAtoms>  (1) 
13,14,32,33

>  <DihDeg>  (1) 
73.269045041288

$$$$
