
     RDKit          3D

 41 44  0  0  0  0  0  0  0  0999 V2000
   33.8421   28.7933   48.2652 C   0  0  0  0  0  0  0  0  0  0  0  0
   34.4391   28.4186   49.4315 C   0  0  0  0  0  0  0  0  0  0  0  0
   35.7089   28.7866   49.8116 C   0  0  0  0  0  0  0  0  0  0  0  0
   36.4526   29.5814   48.9897 C   0  0  0  0  0  0  0  0  0  0  0  0
   35.8450   29.9679   47.7935 C   0  0  0  0  0  0  0  0  0  0  0  0
   34.5976   29.5842   47.4602 N   0  0  0  0  0  0  0  0  0  0  0  0
   31.6335   27.6565   48.7036 C   0  0  0  0  0  0  0  0  0  0  0  0
   32.5118   28.3935   47.8927 C   0  0  0  0  0  0  0  0  0  0  0  0
   32.0377   28.7517   46.6414 C   0  0  0  0  0  0  0  0  0  0  0  0
   30.7764   28.3824   46.2662 N   0  0  0  0  0  0  0  0  0  0  0  0
   29.9771   27.6694   47.0987 C   0  0  0  0  0  0  0  0  0  0  0  0
   30.4026   27.3024   48.3234 N   0  0  0  0  0  0  0  0  0  0  0  0
   37.7475   30.0516   49.2062 O   0  0  0  0  0  0  0  0  0  0  0  0
   38.1600   31.3125   48.7816 C   0  0  0  0  0  0  0  0  0  0  0  0
   37.8779   32.3289   49.6743 C   0  0  0  0  0  0  0  0  0  0  0  0
   38.3462   33.5090   49.1117 C   0  0  0  0  0  0  0  0  0  0  0  0
   38.8801   33.1742   47.9317 N   0  0  0  0  0  0  0  0  0  0  0  0
   38.7709   31.8848   47.7377 N   0  0  0  0  0  0  0  0  0  0  0  0
   33.9244   27.7871   50.1470 H   0  0  0  0  0  0  0  0  0  0  0  0
   36.1866   28.4917   50.7358 H   0  0  0  0  0  0  0  0  0  0  0  0
   36.3615   30.5980   47.0820 H   0  0  0  0  0  0  0  0  0  0  0  0
   31.9844   27.3727   49.6714 H   0  0  0  0  0  0  0  0  0  0  0  0
   32.6715   29.3192   45.9765 H   0  0  0  0  0  0  0  0  0  0  0  0
   29.0245   27.4740   46.6287 H   0  0  0  0  0  0  0  0  0  0  0  0
   37.4031   32.4208   50.6578 H   0  0  0  0  0  0  0  0  0  0  0  0
   38.3477   34.5423   49.4400 H   0  0  0  0  0  0  0  0  0  0  0  0
   39.5098   34.0065   46.9332 C   0  0  1  0  0  0  0  0  0  0  0  0
   40.6651   34.7873   47.4836 C   0  0  2  0  0  0  0  0  0  0  0  0
   41.5076   34.0852   47.7318 H   0  0  0  0  0  0  0  0  0  0  0  0
   41.1850   35.6547   46.3383 C   0  0  2  0  0  0  0  0  0  0  0  0
   42.0060   36.3010   46.6569 H   0  0  0  0  0  0  0  0  0  0  0  0
   41.6015   34.8658   45.2802 O   0  0  0  0  0  0  0  0  0  0  0  0
   40.4830   34.2318   44.7312 C   0  0  2  0  0  0  0  0  0  0  0  0
   40.8098   33.7355   43.7793 H   0  0  0  0  0  0  0  0  0  0  0  0
   40.0202   33.1999   45.7588 C   0  0  1  0  0  0  0  0  0  0  0  0
   40.9534   32.6403   46.0497 H   0  0  0  0  0  0  0  0  0  0  0  0
   38.7747   34.7383   46.5048 H   0  0  0  0  0  0  0  0  0  0  0  0
   40.4302   35.4322   48.3343 H   0  0  0  0  0  0  0  0  0  0  0  0
   40.3022   36.2405   45.9785 H   0  0  0  0  0  0  0  0  0  0  0  0
   39.6354   34.9319   44.5856 H   0  0  0  0  0  0  0  0  0  0  0  0
   39.2408   32.5363   45.3376 H   0  0  0  0  0  0  0  0  0  0  0  0
  1  2  2  0
  2  3  1  0
  4 13  1  0
  4  3  2  0
  5  4  1  0
  6  5  2  0
  6  1  1  0
  8  1  1  0
  8  7  2  0
  9  8  1  0
 10  9  2  0
 10 11  1  0
 11 12  2  0
 12  7  1  0
 14 13  1  0
 14 15  1  0
 16 15  2  0
 17 16  1  0
 18 17  1  0
 18 14  2  0
  2 19  1  0
  3 20  1  0
  5 21  1  0
  7 22  1  0
  9 23  1  0
 11 24  1  0
 15 25  1  0
 16 26  1  0
 27 28  1  0
 28 29  1  1
 28 30  1  0
 30 31  1  1
 30 32  1  0
 32 33  1  0
 33 34  1  6
 33 35  1  0
 35 36  1  1
 35 27  1  0
 27 37  1  6
 28 38  1  0
 30 39  1  0
 33 40  1  0
 35 41  1  0
 17 27  1  0
M  ISO  8  19  14  20  14  21  14  22  14  23  14  24  14  25  14  26  14
M  ISO  4  29  15  31  15  34  15  36  15
M  END
>  <DihAtoms>  (1) 
15,16,26,27

>  <DihDeg>  (1) 
11.590324867819309

$$$$
