
     RDKit          3D

 41 44  0  0  0  0  0  0  0  0999 V2000
   33.8421   28.7933   48.2652 C   0  0  0  0  0  0  0  0  0  0  0  0
   34.4391   28.4186   49.4315 C   0  0  0  0  0  0  0  0  0  0  0  0
   35.7089   28.7866   49.8116 C   0  0  0  0  0  0  0  0  0  0  0  0
   36.4526   29.5814   48.9897 C   0  0  0  0  0  0  0  0  0  0  0  0
   35.8450   29.9679   47.7935 C   0  0  0  0  0  0  0  0  0  0  0  0
   34.5976   29.5842   47.4602 N   0  0  0  0  0  0  0  0  0  0  0  0
   31.6335   27.6565   48.7036 C   0  0  0  0  0  0  0  0  0  0  0  0
   32.5118   28.3935   47.8927 C   0  0  0  0  0  0  0  0  0  0  0  0
   32.0377   28.7517   46.6414 C   0  0  0  0  0  0  0  0  0  0  0  0
   30.7764   28.3824   46.2662 N   0  0  0  0  0  0  0  0  0  0  0  0
   29.9771   27.6694   47.0987 C   0  0  0  0  0  0  0  0  0  0  0  0
   30.4026   27.3024   48.3234 N   0  0  0  0  0  0  0  0  0  0  0  0
   37.7475   30.0516   49.2062 O   0  0  0  0  0  0  0  0  0  0  0  0
   38.1600   31.3125   48.7816 C   0  0  0  0  0  0  0  0  0  0  0  0
   37.8779   32.3289   49.6743 C   0  0  0  0  0  0  0  0  0  0  0  0
   38.3462   33.5090   49.1117 C   0  0  0  0  0  0  0  0  0  0  0  0
   38.8801   33.1742   47.9317 N   0  0  0  0  0  0  0  0  0  0  0  0
   38.7709   31.8848   47.7377 N   0  0  0  0  0  0  0  0  0  0  0  0
   33.9244   27.7871   50.1470 H   0  0  0  0  0  0  0  0  0  0  0  0
   36.1866   28.4917   50.7358 H   0  0  0  0  0  0  0  0  0  0  0  0
   36.3615   30.5980   47.0820 H   0  0  0  0  0  0  0  0  0  0  0  0
   31.9844   27.3727   49.6714 H   0  0  0  0  0  0  0  0  0  0  0  0
   32.6715   29.3192   45.9765 H   0  0  0  0  0  0  0  0  0  0  0  0
   29.0245   27.4740   46.6287 H   0  0  0  0  0  0  0  0  0  0  0  0
   37.4031   32.4208   50.6578 H   0  0  0  0  0  0  0  0  0  0  0  0
   38.3477   34.5423   49.4400 H   0  0  0  0  0  0  0  0  0  0  0  0
   39.5098   34.0065   46.9332 C   0  0  1  0  0  0  0  0  0  0  0  0
   39.1663   35.4566   47.0962 C   0  0  2  0  0  0  0  0  0  0  0  0
   39.6475   35.8528   48.0321 H   0  0  0  0  0  0  0  0  0  0  0  0
   39.8497   36.1944   45.9460 C   0  0  2  0  0  0  0  0  0  0  0  0
   39.6181   37.2619   45.9519 H   0  0  0  0  0  0  0  0  0  0  0  0
   41.2214   36.0186   46.0013 O   0  0  0  0  0  0  0  0  0  0  0  0
   41.5078   34.6741   45.7462 C   0  0  2  0  0  0  0  0  0  0  0  0
   42.6198   34.5829   45.6271 H   0  0  0  0  0  0  0  0  0  0  0  0
   41.0182   33.8873   46.9612 C   0  0  1  0  0  0  0  0  0  0  0  0
   41.4338   34.4382   47.8513 H   0  0  0  0  0  0  0  0  0  0  0  0
   39.1977   33.6943   45.9014 H   0  0  0  0  0  0  0  0  0  0  0  0
   38.0983   35.6887   47.0775 H   0  0  0  0  0  0  0  0  0  0  0  0
   39.4954   35.6910   45.0117 H   0  0  0  0  0  0  0  0  0  0  0  0
   40.9454   34.2855   44.8730 H   0  0  0  0  0  0  0  0  0  0  0  0
   41.3547   32.8336   46.9186 H   0  0  0  0  0  0  0  0  0  0  0  0
  1  2  2  0
  2  3  1  0
  4 13  1  0
  4  3  2  0
  5  4  1  0
  6  5  2  0
  6  1  1  0
  8  1  1  0
  8  7  2  0
  9  8  1  0
 10  9  2  0
 10 11  1  0
 11 12  2  0
 12  7  1  0
 14 13  1  0
 14 15  1  0
 16 15  2  0
 17 16  1  0
 18 17  1  0
 18 14  2  0
  2 19  1  0
  3 20  1  0
  5 21  1  0
  7 22  1  0
  9 23  1  0
 11 24  1  0
 15 25  1  0
 16 26  1  0
 27 28  1  0
 28 29  1  1
 28 30  1  0
 30 31  1  6
 30 32  1  0
 32 33  1  0
 33 34  1  6
 33 35  1  0
 35 36  1  1
 35 27  1  0
 27 37  1  6
 28 38  1  0
 30 39  1  0
 33 40  1  0
 35 41  1  0
 17 27  1  0
M  ISO  8  19  14  20  14  21  14  22  14  23  14  24  14  25  14  26  14
M  ISO  4  29  15  31  15  34  15  36  15
M  END
>  <DihAtoms>  (1) 
15,16,26,27

>  <DihDeg>  (1) 
11.590324867819309

$$$$
