
     RDKit          3D

 27 28  0  0  0  0  0  0  0  0999 V2000
   36.7410   29.9460   49.6200 C   0  0  0  0  0  0  0  0  0  0  0  0
   37.9260   30.3010   48.9690 C   0  0  0  0  0  0  0  0  0  0  0  0
   37.8480   30.6660   47.6210 C   0  0  0  0  0  0  0  0  0  0  0  0
   36.6300   30.6570   47.0230 N   0  0  0  0  0  0  0  0  0  0  0  0
   35.5050   30.3070   47.6870 C   0  0  0  0  0  0  0  0  0  0  0  0
   35.5640   29.9500   48.9890 N   0  0  0  0  0  0  0  0  0  0  0  0
   39.0440   31.0620   46.8320 C   0  0  0  0  0  0  0  0  0  0  0  0
   39.0580   30.5190   45.4360 C   0  0  0  0  0  0  0  0  0  0  0  0
   40.2940   31.1310   44.7740 C   0  0  0  0  0  0  0  0  0  0  0  0
   40.0980   32.5080   44.6220 O   0  0  0  0  0  0  0  0  0  0  0  0
   40.1450   33.1050   45.8780 C   0  0  0  0  0  0  0  0  0  0  0  0
   39.0130   32.5710   46.7160 C   0  0  0  0  0  0  0  0  0  0  0  0
   36.8330   29.5530   51.0680 C   0  0  0  0  0  0  0  0  0  0  0  0
   35.5600   29.2220   51.5310 F   0  0  0  0  0  0  0  0  0  0  0  0
   37.7350   28.5410   51.1790 F   0  0  0  0  0  0  0  0  0  0  0  0
   37.2300   30.6760   51.7820 F   0  0  0  0  0  0  0  0  0  0  0  0
   38.8893   30.2935   49.5000 H   0  0  0  0  0  0  0  0  0  0  0  0
   34.5370   30.3130   47.1646 H   0  0  0  0  0  0  0  0  0  0  0  0
   39.9285   30.6630   47.3501 H   0  0  0  0  0  0  0  0  0  0  0  0
   39.1329   29.4217   45.4507 H   0  0  0  0  0  0  0  0  0  0  0  0
   38.1360   30.7691   44.8907 H   0  0  0  0  0  0  0  0  0  0  0  0
   41.1767   30.9522   45.4056 H   0  0  0  0  0  0  0  0  0  0  0  0
   40.4537   30.6686   43.7888 H   0  0  0  0  0  0  0  0  0  0  0  0
   41.1047   32.8712   46.3621 H   0  0  0  0  0  0  0  0  0  0  0  0
   40.0496   34.1960   45.7753 H   0  0  0  0  0  0  0  0  0  0  0  0
   39.0847   33.0045   47.7244 H   0  0  0  0  0  0  0  0  0  0  0  0
   38.0699   32.8506   46.2237 H   0  0  0  0  0  0  0  0  0  0  0  0
  1 13  1  0
  2  1  2  0
  3  2  1  0
  4  3  2  0
  4  5  1  0
  5  6  2  0
  6  1  1  0
  7  3  1  0
  8  7  1  0
  9  8  1  0
 10  9  1  0
 10 11  1  0
 11 12  1  0
 12  7  1  0
 13 15  1  0
 13 14  1  0
 13 16  1  0
  2 17  1  0
  5 18  1  0
  7 19  1  0
  8 20  1  0
  8 21  1  0
  9 22  1  0
  9 23  1  0
 11 24  1  0
 11 25  1  0
 12 26  1  0
 12 27  1  0
M  ISO  8  17  14  18  14  19  13  20  13  21  13  22  13  23  13  24  13
M  ISO  3  25  13  26  13  27  13
M  END
>  <minimizedAffinity>  (1) 
-5.85738182

>  <minimizedRMSD>  (1) 
2.37328768

$$$$
