
     RDKit          3D

 36 38  0  0  0  0  0  0  0  0999 V2000
   37.5170   31.3680   46.8630 C   0  0  0  0  0  0  0  0  0  0  0  0
   38.5200   32.0470   47.5650 C   0  0  0  0  0  0  0  0  0  0  0  0
   39.5060   32.7200   46.8750 C   0  0  0  0  0  0  0  0  0  0  0  0
   39.4260   32.6680   45.4810 C   0  0  0  0  0  0  0  0  0  0  0  0
   38.4410   32.0010   44.8090 C   0  0  0  0  0  0  0  0  0  0  0  0
   37.4760   31.3440   45.5010 N   0  0  0  0  0  0  0  0  0  0  0  0
   36.5210   30.6880   47.6630 C   0  0  0  0  0  0  0  0  0  0  0  0
   35.4360   30.3430   47.1530 O   0  0  0  0  0  0  0  0  0  0  0  0
   37.9070   30.7660   49.6890 C   0  0  0  0  0  0  0  0  0  0  0  0
   36.7130   30.3760   49.0650 C   0  0  0  0  0  0  0  0  0  0  0  0
   35.7780   29.7040   49.8400 C   0  0  0  0  0  0  0  0  0  0  0  0
   36.0230   29.4430   51.1520 N   0  0  0  0  0  0  0  0  0  0  0  0
   37.2020   29.8430   51.7180 C   0  0  0  0  0  0  0  0  0  0  0  0
   38.1140   30.4860   51.0030 N   0  0  0  0  0  0  0  0  0  0  0  0
   38.3550   31.9490   43.0250 S   0  0  0  0  0  0  0  0  0  0  0  0
   38.3510   30.2490   42.3930 C   0  0  0  0  0  0  0  0  0  0  0  0
   38.8640   30.2910   40.9560 C   0  0  0  0  0  0  0  0  0  0  0  0
   40.2360   30.9410   41.0400 C   0  0  0  0  0  0  0  0  0  0  0  0
   41.1380   30.0390   41.5870 O   0  0  0  0  0  0  0  0  0  0  0  0
   40.5670   29.0440   42.3310 C   0  0  0  0  0  0  0  0  0  0  0  0
   39.3850   29.4690   43.1690 C   0  0  0  0  0  0  0  0  0  0  0  0
   38.5215   32.0436   48.6650 H   0  0  0  0  0  0  0  0  0  0  0  0
   40.3089   33.2661   47.3919 H   0  0  0  0  0  0  0  0  0  0  0  0
   40.1957   33.1910   44.8944 H   0  0  0  0  0  0  0  0  0  0  0  0
   38.6778   31.2997   49.1137 H   0  0  0  0  0  0  0  0  0  0  0  0
   34.8290   29.3792   49.3884 H   0  0  0  0  0  0  0  0  0  0  0  0
   37.3956   29.6285   52.7794 H   0  0  0  0  0  0  0  0  0  0  0  0
   37.3460   29.8087   42.4706 H   0  0  0  0  0  0  0  0  0  0  0  0
   38.1917   30.8899   40.3240 H   0  0  0  0  0  0  0  0  0  0  0  0
   38.9117   29.2877   40.5075 H   0  0  0  0  0  0  0  0  0  0  0  0
   40.5690   31.2280   40.0317 H   0  0  0  0  0  0  0  0  0  0  0  0
   40.1808   31.8378   41.6746 H   0  0  0  0  0  0  0  0  0  0  0  0
   40.2307   28.2543   41.6431 H   0  0  0  0  0  0  0  0  0  0  0  0
   41.3396   28.7087   43.0386 H   0  0  0  0  0  0  0  0  0  0  0  0
   39.7503   30.0984   43.9938 H   0  0  0  0  0  0  0  0  0  0  0  0
   38.8967   28.5523   43.5313 H   0  0  0  0  0  0  0  0  0  0  0  0
  1  2  2  0
  1  7  1  0
  3  2  1  0
  4  3  2  0
  5  4  1  0
  5  6  2  0
  6  1  1  0
  7 10  1  0
  8  7  2  0
  9 14  2  0
 10  9  1  0
 10 11  2  0
 11 12  1  0
 12 13  2  0
 14 13  1  0
 15  5  1  0
 16 15  1  0
 16 21  1  0
 17 18  1  0
 17 16  1  0
 18 19  1  0
 19 20  1  0
 20 21  1  0
  2 22  1  0
  3 23  1  0
  4 24  1  0
  9 25  1  0
 11 26  1  0
 13 27  1  0
 16 28  1  0
 17 29  1  0
 17 30  1  0
 18 31  1  0
 18 32  1  0
 20 33  1  0
 20 34  1  0
 21 35  1  0
 21 36  1  0
M  ISO  8  22  14  23  14  24  14  25  14  26  14  27  14  28  13  29  13
M  ISO  7  30  13  31  13  32  13  33  13  34  13  35  13  36  13
M  END
>  <minimizedAffinity>  (1) 
-5.40669918

>  <minimizedRMSD>  (1) 
3.4329412

$$$$
