
     RDKit          3D

 47 49  0  0  0  0  0  0  0  0999 V2000
   35.5927   30.1845   47.6326 C   0  0  0  0  0  0  0  0  0  0  0  0
   32.7676   28.0645   48.8865 C   0  0  0  0  0  0  0  0  0  0  0  0
   33.9698   28.7727   48.8659 C   0  0  0  0  0  0  0  0  0  0  0  0
   34.3493   29.4222   47.7308 C   0  0  0  0  0  0  0  0  0  0  0  0
   33.5238   29.3544   46.6382 N   0  0  0  0  0  0  0  0  0  0  0  0
   32.3758   28.6628   46.6995 C   0  0  0  0  0  0  0  0  0  0  0  0
   31.9764   28.0145   47.7993 N   0  0  0  0  0  0  0  0  0  0  0  0
   36.5739   29.8726   48.7028 C   0  0  0  0  0  0  0  0  0  0  0  0
   37.0721   31.3774   49.5703 S   0  0  0  0  0  0  0  0  0  0  0  0
   38.4646   32.1494   48.7272 C   0  0  2  0  0  0  0  0  0  0  0  0
   39.0439   33.1538   49.5954 C   0  0  0  0  0  0  0  0  0  0  0  0
   39.5746   34.2687   48.7463 C   0  0  0  0  0  0  0  0  0  0  0  0
   40.1365   33.8624   47.4696 C   0  0  0  0  0  0  0  0  0  0  0  0
   39.4679   32.8168   46.6571 C   0  0  0  0  0  0  0  0  0  0  0  0
   38.0972   32.5293   47.3516 C   0  0  2  0  0  0  0  0  0  0  0  0
   35.9821   29.9559   46.5913 H   0  0  0  0  0  0  0  0  0  0  0  0
   35.2957   31.2366   47.5785 H   0  0  0  0  0  0  0  0  0  0  0  0
   32.3934   27.5214   49.7465 H   0  0  0  0  0  0  0  0  0  0  0  0
   34.4927   28.7311   49.8054 H   0  0  0  0  0  0  0  0  0  0  0  0
   31.8084   28.6848   45.7671 H   0  0  0  0  0  0  0  0  0  0  0  0
   37.5205   29.5488   48.1558 H   0  0  0  0  0  0  0  0  0  0  0  0
   36.3676   29.0258   49.3546 H   0  0  0  0  0  0  0  0  0  0  0  0
   39.1889   31.2880   48.5772 H   0  0  0  0  0  0  0  0  0  0  0  0
   39.8605   32.6881   50.1946 H   0  0  0  0  0  0  0  0  0  0  0  0
   38.3634   33.5425   50.4098 H   0  0  0  0  0  0  0  0  0  0  0  0
   38.9825   35.2021   48.8327 H   0  0  0  0  0  0  0  0  0  0  0  0
   40.4955   34.6182   49.3492 H   0  0  0  0  0  0  0  0  0  0  0  0
   40.2720   34.7897   46.8341 H   0  0  0  0  0  0  0  0  0  0  0  0
   41.2050   33.5139   47.6023 H   0  0  0  0  0  0  0  0  0  0  0  0
   40.0402   31.8821   46.5891 H   0  0  0  0  0  0  0  0  0  0  0  0
   39.2981   33.1638   45.6326 H   0  0  0  0  0  0  0  0  0  0  0  0
   37.7434   31.6309   46.8174 H   0  0  0  0  0  0  0  0  0  0  0  0
   37.2876   33.6837   47.0018 C   0  0  1  0  0  0  0  0  0  0  0  0
   35.7785   33.3938   46.8545 C   0  0  2  0  0  0  0  0  0  0  0  0
   35.2663   33.5750   47.8280 H   0  0  0  0  0  0  0  0  0  0  0  0
   35.1793   34.4810   45.9658 C   0  0  2  0  0  0  0  0  0  0  0  0
   34.1193   34.2773   45.8159 H   0  0  0  0  0  0  0  0  0  0  0  0
   35.3385   35.6730   46.6716 O   0  0  0  0  0  0  0  0  0  0  0  0
   36.6881   36.0053   46.7759 C   0  0  2  0  0  0  0  0  0  0  0  0
   36.8094   37.0286   47.1439 H   0  0  0  0  0  0  0  0  0  0  0  0
   37.4132   34.9806   47.6826 C   0  0  2  0  0  0  0  0  0  0  0  0
   38.4248   35.3928   47.7651 H   0  0  0  0  0  0  0  0  0  0  0  0
   37.4580   33.9393   45.8874 H   0  0  0  0  0  0  0  0  0  0  0  0
   35.5839   32.4018   46.4801 H   0  0  0  0  0  0  0  0  0  0  0  0
   35.7203   34.4975   44.9966 H   0  0  0  0  0  0  0  0  0  0  0  0
   37.1332   35.8567   45.7700 H   0  0  0  0  0  0  0  0  0  0  0  0
   36.8472   34.9765   48.6353 H   0  0  0  0  0  0  0  0  0  0  0  0
  1  4  1  0
  1  8  1  0
  2  3  2  0
  4  3  1  0
  5  6  1  0
  5  4  2  0
  6  7  2  0
  7  2  1  0
  8  9  1  0
 10 11  1  0
 10  9  1  0
 12 11  1  0
 13 12  1  0
 14 15  1  0
 14 13  1  0
 15 10  1  0
  1 16  1  0
  1 17  1  0
  2 18  1  0
  3 19  1  0
  6 20  1  0
  8 21  1  0
  8 22  1  0
 10 23  1  6
 11 24  1  0
 11 25  1  0
 12 26  1  0
 12 27  1  0
 13 28  1  0
 13 29  1  0
 14 30  1  0
 14 31  1  0
 15 32  1  6
 33 34  1  0
 34 35  1  1
 34 36  1  0
 36 37  1  6
 36 38  1  0
 38 39  1  0
 39 40  1  1
 39 41  1  0
 41 42  1  1
 41 33  1  0
 33 43  1  6
 34 44  1  0
 36 45  1  0
 39 46  1  0
 41 47  1  0
 15 33  1  0
M  ISO  8  16   8  17   8  18  14  19  14  20  14  21   8  22   8  23  13
M  ISO  8  24  13  25  13  26  13  27  13  28  13  29  13  30  13  31  13
M  ISO  5  32  13  35  15  37  15  40  15  42  15
M  END
>  <DihAtoms>  (1) 
13,14,32,33

>  <DihDeg>  (1) 
73.269045041288

$$$$
