
     RDKit          3D

 31 33  0  0  0  0  0  0  0  0999 V2000
   37.3490   30.0701   51.3051 C   0  0  0  0  0  0  0  0  0  0  0  0
   38.0590   30.9802   50.5278 C   0  0  0  0  0  0  0  0  0  0  0  0
   37.8796   30.9440   49.1410 C   0  0  0  0  0  0  0  0  0  0  0  0
   37.0077   30.0059   48.6288 N   0  0  0  0  0  0  0  0  0  0  0  0
   36.3324   29.1337   49.4221 C   0  0  0  0  0  0  0  0  0  0  0  0
   36.5128   29.1774   50.7567 N   0  0  0  0  0  0  0  0  0  0  0  0
   38.5645   31.8445   48.2102 C   0  0  0  0  0  0  0  0  0  0  0  0
   38.9259   31.4704   46.9434 C   0  0  0  0  0  0  0  0  0  0  0  0
   39.5486   32.5572   46.3411 C   0  0  0  0  0  0  0  0  0  0  0  0
   39.5416   33.5421   47.2583 N   0  0  0  0  0  0  0  0  0  0  0  0
   38.9459   33.1204   48.3985 N   0  0  0  0  0  0  0  0  0  0  0  0
   37.5217   30.1370   52.3775 H   0  0  0  0  0  0  0  0  0  0  0  0
   38.7455   31.7218   50.9058 H   0  0  0  0  0  0  0  0  0  0  0  0
   35.6593   28.4174   48.9614 H   0  0  0  0  0  0  0  0  0  0  0  0
   38.8161   30.5448   46.3795 H   0  0  0  0  0  0  0  0  0  0  0  0
   39.9681   32.6549   45.3565 H   0  0  0  0  0  0  0  0  0  0  0  0
   40.0578   34.8963   47.1731 C   0  0  2  0  0  0  0  0  0  0  0  0
   41.3450   35.0610   47.9296 C   0  0  2  0  0  0  0  0  0  0  0  0
   42.0801   34.2661   47.7515 H   0  0  0  0  0  0  0  0  0  0  0  0
   41.9290   36.4032   47.5072 C   0  0  1  0  0  0  0  0  0  0  0  0
   42.7783   36.6565   48.1816 H   0  0  0  0  0  0  0  0  0  0  0  0
   40.9729   37.3902   47.4293 O   0  0  0  0  0  0  0  0  0  0  0  0
   39.8276   37.1387   48.1582 C   0  0  2  0  0  0  0  0  0  0  0  0
   39.1619   38.0170   48.0259 H   0  0  0  0  0  0  0  0  0  0  0  0
   39.0722   35.9271   47.6665 C   0  0  1  0  0  0  0  0  0  0  0  0
   38.3837   36.2617   46.8440 H   0  0  0  0  0  0  0  0  0  0  0  0
   40.2783   35.1747   46.1136 H   0  0  0  0  0  0  0  0  0  0  0  0
   41.1408   35.1311   49.0378 H   0  0  0  0  0  0  0  0  0  0  0  0
   42.3104   36.2610   46.4590 H   0  0  0  0  0  0  0  0  0  0  0  0
   40.0460   37.0262   49.2389 H   0  0  0  0  0  0  0  0  0  0  0  0
   38.4050   35.5640   48.4655 H   0  0  0  0  0  0  0  0  0  0  0  0
  2  1  2  0
  3  2  1  0
  4  3  2  0
  4  5  1  0
  5  6  2  0
  6  1  1  0
  7 11  2  0
  7  3  1  0
  8  7  1  0
  9  8  2  0
  9 10  1  0
 10 11  1  0
  1 12  1  0
  2 13  1  0
  5 14  1  0
  8 15  1  0
  9 16  1  0
 17 18  1  0
 18 19  1  1
 18 20  1  0
 20 21  1  1
 20 22  1  0
 22 23  1  0
 23 24  1  1
 23 25  1  0
 25 26  1  6
 25 17  1  0
 17 27  1  6
 18 28  1  0
 20 29  1  0
 23 30  1  0
 25 31  1  0
 10 17  1  0
M  ISO  8  12  14  13  14  14  14  15  14  16  14  19  15  21  15  24  15
M  ISO  1  26  15
M  END
>  <DihAtoms>  (1) 
8,9,16,17

>  <DihDeg>  (1) 
15.569855361351157

$$$$
