
     RDKit          3D

 51 54  0  0  0  0  0  0  0  0999 V2000
   39.5948   33.3818   47.1078 C   0  0  0  0  0  0  0  0  0  0  0  0
   39.5374   32.5176   46.0101 C   0  0  0  0  0  0  0  0  0  0  0  0
   39.0204   31.2682   46.2273 C   0  0  0  0  0  0  0  0  0  0  0  0
   38.5993   30.9461   47.4834 N   0  0  0  0  0  0  0  0  0  0  0  0
   38.6708   31.7824   48.4804 C   0  0  0  0  0  0  0  0  0  0  0  0
   39.1794   33.0570   48.3349 N   0  0  0  0  0  0  0  0  0  0  0  0
   39.9935   32.9707   44.8171 O   0  0  0  0  0  0  0  0  0  0  0  0
   40.0970   32.0859   43.7503 C   0  0  0  0  0  0  0  0  0  0  0  0
   40.7188   30.8518   43.7270 C   0  0  0  0  0  0  0  0  0  0  0  0
   40.7152   30.1296   42.5894 C   0  0  0  0  0  0  0  0  0  0  0  0
   40.0913   30.6434   41.4805 C   0  0  0  0  0  0  0  0  0  0  0  0
   39.4719   31.8802   41.5137 C   0  0  0  0  0  0  0  0  0  0  0  0
   39.4847   32.5970   42.6725 N   0  0  0  0  0  0  0  0  0  0  0  0
   38.7929   32.4273   40.2717 C   0  0  0  0  0  0  0  0  0  0  0  0
   38.0393   31.0791   50.0235 S   0  0  0  0  0  0  0  0  0  0  0  0
   36.2576   31.4951   50.0159 C   0  0  0  0  0  0  0  0  0  0  0  0
   35.5732   29.2557   51.4845 F   0  0  0  0  0  0  0  0  0  0  0  0
   35.2682   29.3097   50.1511 C   0  0  0  0  0  0  0  0  0  0  0  0
   35.5638   30.3836   49.3150 C   0  0  0  0  0  0  0  0  0  0  0  0
   35.2236   30.3570   47.9910 C   0  0  0  0  0  0  0  0  0  0  0  0
   34.5661   29.2465   47.4347 C   0  0  0  0  0  0  0  0  0  0  0  0
   34.2660   28.1681   48.2613 C   0  0  0  0  0  0  0  0  0  0  0  0
   34.6149   28.2091   49.5929 C   0  0  0  0  0  0  0  0  0  0  0  0
   39.9907   34.3900   47.0193 H   0  0  0  0  0  0  0  0  0  0  0  0
   38.9445   30.5540   45.4109 H   0  0  0  0  0  0  0  0  0  0  0  0
   41.1842   30.5485   44.6551 H   0  0  0  0  0  0  0  0  0  0  0  0
   41.1958   29.1615   42.5508 H   0  0  0  0  0  0  0  0  0  0  0  0
   40.0689   30.0875   40.5448 H   0  0  0  0  0  0  0  0  0  0  0  0
   39.4455   32.3690   39.3937 H   0  0  0  0  0  0  0  0  0  0  0  0
   38.4757   33.4567   40.5149 H   0  0  0  0  0  0  0  0  0  0  0  0
   37.8824   31.8249   40.1436 H   0  0  0  0  0  0  0  0  0  0  0  0
   35.8839   31.6739   51.0448 H   0  0  0  0  0  0  0  0  0  0  0  0
   36.0539   32.4123   49.4261 H   0  0  0  0  0  0  0  0  0  0  0  0
   35.5120   31.2563   47.4562 H   0  0  0  0  0  0  0  0  0  0  0  0
   34.3437   29.3354   46.3685 H   0  0  0  0  0  0  0  0  0  0  0  0
   33.7600   27.3397   47.7832 H   0  0  0  0  0  0  0  0  0  0  0  0
   34.2708   27.0301   50.4313 C   0  0  0  0  0  0  0  0  0  0  0  0
   34.9579   25.8245   49.8630 C   0  0  2  0  0  0  0  0  0  0  0  0
   35.5407   25.2455   50.6190 H   0  0  0  0  0  0  0  0  0  0  0  0
   34.0393   24.8327   49.2009 C   0  0  2  0  0  0  0  0  0  0  0  0
   34.5826   23.8763   49.0972 H   0  0  0  0  0  0  0  0  0  0  0  0
   32.9659   24.6083   50.0601 O   0  0  0  0  0  0  0  0  0  0  0  0
   32.1719   25.7257   49.9743 C   0  0  1  0  0  0  0  0  0  0  0  0
   31.8718   25.8640   48.9152 H   0  0  0  0  0  0  0  0  0  0  0  0
   32.8025   26.9536   50.5721 C   0  0  2  0  0  0  0  0  0  0  0  0
   32.2483   27.8344   50.1790 H   0  0  0  0  0  0  0  0  0  0  0  0
   34.7689   27.2021   51.4313 H   0  0  0  0  0  0  0  0  0  0  0  0
   35.7121   26.1236   49.1052 H   0  0  0  0  0  0  0  0  0  0  0  0
   33.7110   25.1619   48.1979 H   0  0  0  0  0  0  0  0  0  0  0  0
   31.1933   25.5669   50.5127 H   0  0  0  0  0  0  0  0  0  0  0  0
   32.5422   26.9523   51.6715 H   0  0  0  0  0  0  0  0  0  0  0  0
  1  6  2  0
  2  3  2  0
  2  1  1  0
  3  4  1  0
  4  5  2  0
  5 15  1  0
  6  5  1  0
  7  2  1  0
  8  7  1  0
  9  8  2  0
 10  9  1  0
 11 12  1  0
 11 10  2  0
 12 13  2  0
 13  8  1  0
 14 12  1  0
 16 15  1  0
 18 17  1  0
 19 16  1  0
 19 18  2  0
 20 19  1  0
 21 20  2  0
 21 22  1  0
 22 23  2  0
 23 18  1  0
  1 24  1  0
  3 25  1  0
  9 26  1  0
 10 27  1  0
 11 28  1  0
 14 29  1  0
 14 30  1  0
 14 31  1  0
 16 32  1  0
 16 33  1  0
 20 34  1  0
 21 35  1  0
 22 36  1  0
 37 38  1  0
 38 39  1  1
 38 40  1  0
 40 41  1  6
 40 42  1  0
 42 43  1  0
 43 44  1  6
 43 45  1  0
 45 46  1  6
 45 37  1  0
 37 47  1  0
 38 48  1  0
 40 49  1  0
 43 50  1  0
 45 51  1  0
 23 37  1  0
M  ISO  8  24  14  25  14  26  14  27  14  28  14  29   8  30   8  31   8
M  ISO  8  32   8  33   8  34  14  35  14  36  14  39  15  41  15  44  15
M  ISO  1  46  15
M  END
>  <DihAtoms>  (1) 
21,22,36,37

>  <DihDeg>  (1) 
89.91061974049711

$$$$
