
     RDKit          3D

 46 49  0  0  0  0  0  0  0  0999 V2000
   35.1310   29.6490   47.5470 C   0  0  0  0  0  0  0  0  0  0  0  0
   35.2820   30.0760   46.2410 C   0  0  0  0  0  0  0  0  0  0  0  0
   34.2450   29.9120   45.3320 C   0  0  0  0  0  0  0  0  0  0  0  0
   33.0910   29.3210   45.7810 N   0  0  0  0  0  0  0  0  0  0  0  0
   32.9710   28.9110   47.0750 C   0  0  0  0  0  0  0  0  0  0  0  0
   33.9850   29.0730   47.9560 N   0  0  0  0  0  0  0  0  0  0  0  0
   36.1610   29.7900   48.5260 N   0  0  0  0  0  0  0  0  0  0  0  0
   36.2380   28.9220   49.6940 C   0  0  0  0  0  0  0  0  0  0  0  0
   36.5470   29.6120   50.9770 C   0  0  0  0  0  0  0  0  0  0  0  0
   37.2700   30.8260   50.9190 N   0  0  0  0  0  0  0  0  0  0  0  0
   36.9730   31.6260   49.7420 C   0  0  0  0  0  0  0  0  0  0  0  0
   37.2190   30.7220   48.5500 C   0  0  0  0  0  0  0  0  0  0  0  0
   31.7240   28.2910   47.4940 C   0  0  0  0  0  0  0  0  0  0  0  0
   31.7520   27.1730   48.3040 C   0  0  0  0  0  0  0  0  0  0  0  0
   30.5980   26.5360   48.7370 C   0  0  0  0  0  0  0  0  0  0  0  0
   29.4290   27.0850   48.3120 N   0  0  0  0  0  0  0  0  0  0  0  0
   29.4150   28.1690   47.5290 C   0  0  0  0  0  0  0  0  0  0  0  0
   30.5500   28.7940   47.1020 N   0  0  0  0  0  0  0  0  0  0  0  0
   28.0620   28.6540   47.1460 C   0  0  0  0  0  0  0  0  0  0  0  0
   27.0930   27.5220   47.2750 C   0  0  0  0  0  0  0  0  0  0  0  0
   26.4140   27.6920   48.6240 C   0  0  0  0  0  0  0  0  0  0  0  0
   25.6220   28.8210   48.5070 O   0  0  0  0  0  0  0  0  0  0  0  0
   26.3340   29.9960   48.4160 C   0  0  0  0  0  0  0  0  0  0  0  0
   27.7640   29.8390   48.0230 C   0  0  0  0  0  0  0  0  0  0  0  0
   36.2239   30.5459   45.9216 H   0  0  0  0  0  0  0  0  0  0  0  0
   34.3453   30.2444   44.2882 H   0  0  0  0  0  0  0  0  0  0  0  0
   35.2685   28.4144   49.8054 H   0  0  0  0  0  0  0  0  0  0  0  0
   37.0754   28.2334   49.5081 H   0  0  0  0  0  0  0  0  0  0  0  0
   35.5887   29.8251   51.4732 H   0  0  0  0  0  0  0  0  0  0  0  0
   37.2152   28.9186   51.5086 H   0  0  0  0  0  0  0  0  0  0  0  0
   37.0415   31.3812   51.7559 H   0  0  0  0  0  0  0  0  0  0  0  0
   35.9245   31.9580   49.7601 H   0  0  0  0  0  0  0  0  0  0  0  0
   37.6000   32.5288   49.6995 H   0  0  0  0  0  0  0  0  0  0  0  0
   38.1814   30.2009   48.6611 H   0  0  0  0  0  0  0  0  0  0  0  0
   37.2594   31.3004   47.6152 H   0  0  0  0  0  0  0  0  0  0  0  0
   32.7269   26.7719   48.6181 H   0  0  0  0  0  0  0  0  0  0  0  0
   30.6269   25.6453   49.3818 H   0  0  0  0  0  0  0  0  0  0  0  0
   27.9902   28.9870   46.1001 H   0  0  0  0  0  0  0  0  0  0  0  0
   26.3487   27.5640   46.4662 H   0  0  0  0  0  0  0  0  0  0  0  0
   27.6028   26.5498   47.2042 H   0  0  0  0  0  0  0  0  0  0  0  0
   25.7954   26.8123   48.8552 H   0  0  0  0  0  0  0  0  0  0  0  0
   27.1479   27.7943   49.4370 H   0  0  0  0  0  0  0  0  0  0  0  0
   25.8429   30.6352   47.6675 H   0  0  0  0  0  0  0  0  0  0  0  0
   26.3394   30.4306   49.4265 H   0  0  0  0  0  0  0  0  0  0  0  0
   28.3604   29.7404   48.9420 H   0  0  0  0  0  0  0  0  0  0  0  0
   28.0160   30.7293   47.4282 H   0  0  0  0  0  0  0  0  0  0  0  0
  1  6  1  0
  1  7  1  0
  2  1  2  0
  3  4  2  0
  3  2  1  0
  4  5  1  0
  5 13  1  0
  5  6  2  0
  7 12  1  0
  7  8  1  0
  8  9  1  0
 10  9  1  0
 11 10  1  0
 12 11  1  0
 13 14  2  0
 14 15  1  0
 16 15  2  0
 17 16  1  0
 18 13  1  0
 18 17  2  0
 19 20  1  0
 19 17  1  0
 19 24  1  0
 20 21  1  0
 22 21  1  0
 23 22  1  0
 24 23  1  0
  2 25  1  0
  3 26  1  0
  8 27  1  0
  8 28  1  0
  9 29  1  0
  9 30  1  0
 10 31  1  0
 11 32  1  0
 11 33  1  0
 12 34  1  0
 12 35  1  0
 14 36  1  0
 15 37  1  0
 19 38  1  0
 20 39  1  0
 20 40  1  0
 21 41  1  0
 21 42  1  0
 23 43  1  0
 23 44  1  0
 24 45  1  0
 24 46  1  0
M  ISO  8  25  14  26  14  27  13  28  13  29  13  30  13  31   5  32  13
M  ISO  8  33  13  34  13  35  13  36  14  37  14  38  13  39  13  40  13
M  ISO  6  41  13  42  13  43  13  44  13  45  13  46  13
M  END
>  <minimizedAffinity>  (1) 
-5.88102102

>  <minimizedRMSD>  (1) 
0.475007057

$$$$
