
     RDKit          3D

 50 53  0  0  0  0  0  0  0  0999 V2000
   34.9259   29.9818   46.9131 C   0  0  0  0  0  0  0  0  0  0  0  0
   36.2291   30.5452   46.9234 C   0  0  0  0  0  0  0  0  0  0  0  0
   36.8907   30.6710   45.6906 C   0  0  0  0  0  0  0  0  0  0  0  0
   36.2508   30.2490   44.5677 N   0  0  0  0  0  0  0  0  0  0  0  0
   35.0177   29.7204   44.5972 C   0  0  0  0  0  0  0  0  0  0  0  0
   34.3647   29.5893   45.7574 N   0  0  0  0  0  0  0  0  0  0  0  0
   36.7348   30.9206   48.2086 N   0  0  0  0  0  0  0  0  0  0  0  0
   37.1551   32.1337   48.8912 C   0  0  0  0  0  0  0  0  0  0  0  0
   38.5112   31.6932   49.4653 C   0  0  0  0  0  0  0  0  0  0  0  0
   38.3236   30.2206   49.7765 C   0  0  0  0  0  0  0  0  0  0  0  0
   36.9561   29.9036   49.2605 C   0  0  1  0  0  0  0  0  0  0  0  0
   34.9431   29.2382   50.5722 C   0  0  0  0  0  0  0  0  0  0  0  0
   34.6765   28.2157   49.8796 O   0  0  0  0  0  0  0  0  0  0  0  0
   35.9988   30.1680   50.3261 N   0  0  0  0  0  0  0  0  0  0  0  0
   38.1982   31.2288   45.5869 C   0  0  0  0  0  0  0  0  0  0  0  0
   38.3289   32.5471   45.1950 C   0  0  0  0  0  0  0  0  0  0  0  0
   39.5526   33.1794   45.0715 C   0  0  0  0  0  0  0  0  0  0  0  0
   40.6753   32.4372   45.3585 C   0  0  0  0  0  0  0  0  0  0  0  0
   40.6272   31.1001   45.7603 C   0  0  0  0  0  0  0  0  0  0  0  0
   39.3557   30.5451   45.8574 C   0  0  0  0  0  0  0  0  0  0  0  0
   34.3132   29.8411   47.7809 H   0  0  0  0  0  0  0  0  0  0  0  0
   34.6106   29.4191   43.6323 H   0  0  0  0  0  0  0  0  0  0  0  0
   36.4650   32.5029   49.6420 H   0  0  0  0  0  0  0  0  0  0  0  0
   37.4176   32.8797   48.1114 H   0  0  0  0  0  0  0  0  0  0  0  0
   39.2886   31.7792   48.7036 H   0  0  0  0  0  0  0  0  0  0  0  0
   38.7285   32.2868   50.3805 H   0  0  0  0  0  0  0  0  0  0  0  0
   38.3583   30.0352   50.8765 H   0  0  0  0  0  0  0  0  0  0  0  0
   39.0279   29.5636   49.2309 H   0  0  0  0  0  0  0  0  0  0  0  0
   36.8661   28.8986   48.8631 H   0  0  0  0  0  0  0  0  0  0  0  0
   34.2546   29.3291   51.4008 H   0  0  0  0  0  0  0  0  0  0  0  0
   36.0278   31.0021   50.9365 H   0  0  0  0  0  0  0  0  0  0  0  0
   37.4349   33.1199   44.9720 H   0  0  0  0  0  0  0  0  0  0  0  0
   39.6421   34.2082   44.7650 H   0  0  0  0  0  0  0  0  0  0  0  0
   41.6468   32.9016   45.2722 H   0  0  0  0  0  0  0  0  0  0  0  0
   41.5346   30.5492   45.9774 H   0  0  0  0  0  0  0  0  0  0  0  0
   39.3172   29.1354   46.2726 C   0  0  0  0  0  0  0  0  0  0  0  0
   39.2285   28.1907   45.0860 C   0  0  0  0  0  0  0  0  0  0  0  0
   40.1777   28.3416   44.4989 H   0  0  0  0  0  0  0  0  0  0  0  0
   39.2232   26.7902   45.6474 C   0  0  0  0  0  0  0  0  0  0  0  0
   40.0543   26.1871   45.2338 H   0  0  0  0  0  0  0  0  0  0  0  0
   39.1583   26.7851   47.0171 O   0  0  0  0  0  0  0  0  0  0  0  0
   40.2641   27.3675   47.6265 C   0  0  0  0  0  0  0  0  0  0  0  0
   40.0435   27.4555   48.7056 H   0  0  0  0  0  0  0  0  0  0  0  0
   40.5992   28.7123   46.9817 C   0  0  0  0  0  0  0  0  0  0  0  0
   41.4148   28.4782   46.2413 H   0  0  0  0  0  0  0  0  0  0  0  0
   38.4884   28.9796   46.9657 H   0  0  0  0  0  0  0  0  0  0  0  0
   38.3966   28.4112   44.4021 H   0  0  0  0  0  0  0  0  0  0  0  0
   38.2463   26.3428   45.2987 H   0  0  0  0  0  0  0  0  0  0  0  0
   41.1144   26.6555   47.5338 H   0  0  0  0  0  0  0  0  0  0  0  0
   40.8964   29.4325   47.7409 H   0  0  0  0  0  0  0  0  0  0  0  0
  1  2  2  0
  2  7  1  0
  3  2  1  0
  4  5  1  0
  4  3  2  0
  5  6  2  0
  6  1  1  0
  7  8  1  0
  7 11  1  0
  8  9  1  0
  9 10  1  0
 11 10  1  0
 11 14  1  0
 13 12  2  0
 14 12  1  0
 15  3  1  0
 15 20  1  0
 16 15  2  0
 17 16  1  0
 17 18  2  0
 18 19  1  0
 19 20  2  0
  1 21  1  0
  5 22  1  0
  8 23  1  0
  8 24  1  0
  9 25  1  0
  9 26  1  0
 10 27  1  0
 10 28  1  0
 11 29  1  6
 12 30  1  0
 14 31  1  0
 16 32  1  0
 17 33  1  0
 18 34  1  0
 19 35  1  0
 36 37  1  0
 37 38  1  0
 37 39  1  0
 39 40  1  0
 39 41  1  0
 41 42  1  0
 42 43  1  0
 42 44  1  0
 44 45  1  0
 44 36  1  0
 36 46  1  0
 37 47  1  0
 39 48  1  0
 42 49  1  0
 44 50  1  0
 20 36  1  0
M  ISO  8  21  14  22  14  23  13  24  13  25  13  26  13  27  13  28  13
M  ISO  8  29  13  30   6  32  14  33  14  34  14  35  14  38  15  40  15
M  ISO  2  43  15  45  15
M  END
>  <DihAtoms>  (1) 
14,19,35,36

>  <DihDeg>  (1) 
83.77204388934203

$$$$
