
     RDKit          3D

 31 33  0  0  0  0  0  0  0  0999 V2000
   37.3490   30.0701   51.3051 C   0  0  0  0  0  0  0  0  0  0  0  0
   38.0590   30.9802   50.5278 C   0  0  0  0  0  0  0  0  0  0  0  0
   37.8796   30.9440   49.1410 C   0  0  0  0  0  0  0  0  0  0  0  0
   37.0077   30.0059   48.6288 N   0  0  0  0  0  0  0  0  0  0  0  0
   36.3324   29.1337   49.4221 C   0  0  0  0  0  0  0  0  0  0  0  0
   36.5128   29.1774   50.7567 N   0  0  0  0  0  0  0  0  0  0  0  0
   38.5645   31.8445   48.2102 C   0  0  0  0  0  0  0  0  0  0  0  0
   38.9259   31.4704   46.9434 C   0  0  0  0  0  0  0  0  0  0  0  0
   39.5486   32.5572   46.3411 C   0  0  0  0  0  0  0  0  0  0  0  0
   39.5416   33.5421   47.2583 N   0  0  0  0  0  0  0  0  0  0  0  0
   38.9459   33.1204   48.3985 N   0  0  0  0  0  0  0  0  0  0  0  0
   37.5217   30.1370   52.3775 H   0  0  0  0  0  0  0  0  0  0  0  0
   38.7455   31.7218   50.9058 H   0  0  0  0  0  0  0  0  0  0  0  0
   35.6593   28.4174   48.9614 H   0  0  0  0  0  0  0  0  0  0  0  0
   38.8161   30.5448   46.3795 H   0  0  0  0  0  0  0  0  0  0  0  0
   39.9681   32.6549   45.3565 H   0  0  0  0  0  0  0  0  0  0  0  0
   40.0578   34.8963   47.1731 C   0  0  2  0  0  0  0  0  0  0  0  0
   39.8494   35.6637   48.4475 C   0  0  2  0  0  0  0  0  0  0  0  0
   40.1214   35.1137   49.3571 H   0  0  0  0  0  0  0  0  0  0  0  0
   40.6963   36.9254   48.3388 C   0  0  1  0  0  0  0  0  0  0  0  0
   40.4255   37.6155   49.1699 H   0  0  0  0  0  0  0  0  0  0  0  0
   40.6173   37.5046   47.0927 O   0  0  0  0  0  0  0  0  0  0  0  0
   39.4980   37.1516   46.3656 C   0  0  2  0  0  0  0  0  0  0  0  0
   39.5506   37.7039   45.4042 H   0  0  0  0  0  0  0  0  0  0  0  0
   39.4532   35.6791   46.0334 C   0  0  1  0  0  0  0  0  0  0  0  0
   40.0275   35.5242   45.0802 H   0  0  0  0  0  0  0  0  0  0  0  0
   41.1592   34.8937   46.9845 H   0  0  0  0  0  0  0  0  0  0  0  0
   38.7750   36.0009   48.5294 H   0  0  0  0  0  0  0  0  0  0  0  0
   41.7645   36.5948   48.4572 H   0  0  0  0  0  0  0  0  0  0  0  0
   38.5632   37.4432   46.8846 H   0  0  0  0  0  0  0  0  0  0  0  0
   38.4169   35.3912   45.7908 H   0  0  0  0  0  0  0  0  0  0  0  0
  2  1  2  0
  3  2  1  0
  4  3  2  0
  4  5  1  0
  5  6  2  0
  6  1  1  0
  7 11  2  0
  7  3  1  0
  8  7  1  0
  9  8  2  0
  9 10  1  0
 10 11  1  0
  1 12  1  0
  2 13  1  0
  5 14  1  0
  8 15  1  0
  9 16  1  0
 17 18  1  0
 18 19  1  1
 18 20  1  0
 20 21  1  1
 20 22  1  0
 22 23  1  0
 23 24  1  6
 23 25  1  0
 25 26  1  6
 25 17  1  0
 17 27  1  6
 18 28  1  0
 20 29  1  0
 23 30  1  0
 25 31  1  0
 10 17  1  0
M  ISO  8  12  14  13  14  14  14  15  14  16  14  19  15  21  15  24  15
M  ISO  1  26  15
M  END
>  <DihAtoms>  (1) 
8,9,16,17

>  <DihDeg>  (1) 
15.569855361351157

$$$$
