
     RDKit          3D

 45 48  0  0  0  0  0  0  0  0999 V2000
   36.9965   31.3325   48.6801 C   0  0  0  0  0  0  0  0  0  0  0  0
   37.0446   32.3137   49.6590 C   0  0  0  0  0  0  0  0  0  0  0  0
   37.9897   33.3372   49.5340 C   0  0  0  0  0  0  0  0  0  0  0  0
   38.8567   33.3653   48.4517 C   0  0  0  0  0  0  0  0  0  0  0  0
   38.7761   32.3703   47.4979 C   0  0  0  0  0  0  0  0  0  0  0  0
   37.8629   31.4068   47.6472 N   0  0  0  0  0  0  0  0  0  0  0  0
   35.1285   28.4782   50.2405 C   0  0  0  0  0  0  0  0  0  0  0  0
   36.1461   29.4404   50.0051 C   0  0  0  0  0  0  0  0  0  0  0  0
   35.9804   30.3469   48.9465 C   0  0  0  0  0  0  0  0  0  0  0  0
   34.8403   30.2477   48.2003 N   0  0  0  0  0  0  0  0  0  0  0  0
   33.8877   29.3074   48.4615 C   0  0  0  0  0  0  0  0  0  0  0  0
   34.0331   28.4304   49.4745 N   0  0  0  0  0  0  0  0  0  0  0  0
   32.8057   29.4072   47.5553 N   0  0  0  0  0  0  0  0  0  0  0  0
   37.3348   29.4444   50.8840 C   0  0  0  0  0  0  0  0  0  0  0  0
   38.5003   29.7673   50.1763 F   0  0  0  0  0  0  0  0  0  0  0  0
   37.1762   30.3613   51.8611 F   0  0  0  0  0  0  0  0  0  0  0  0
   37.5751   28.2097   51.4819 F   0  0  0  0  0  0  0  0  0  0  0  0
   39.6407   32.3281   46.3269 C   0  0  0  0  0  0  0  0  0  0  0  0
   40.2535   31.2159   45.7989 C   0  0  0  0  0  0  0  0  0  0  0  0
   40.9928   31.5790   44.6805 C   0  0  0  0  0  0  0  0  0  0  0  0
   40.7974   32.9182   44.5709 N   0  0  0  0  0  0  0  0  0  0  0  0
   40.0070   33.3511   45.5350 N   0  0  0  0  0  0  0  0  0  0  0  0
   36.4810   32.5090   50.5594 H   0  0  0  0  0  0  0  0  0  0  0  0
   38.1554   34.1642   50.2002 H   0  0  0  0  0  0  0  0  0  0  0  0
   39.6142   34.1151   48.2765 H   0  0  0  0  0  0  0  0  0  0  0  0
   35.2276   27.7759   51.0389 H   0  0  0  0  0  0  0  0  0  0  0  0
   32.0732   30.1517   47.6839 H   0  0  0  0  0  0  0  0  0  0  0  0
   32.7114   28.7564   46.7536 H   0  0  0  0  0  0  0  0  0  0  0  0
   40.1961   30.1997   46.1647 H   0  0  0  0  0  0  0  0  0  0  0  0
   41.5928   30.9939   44.0211 H   0  0  0  0  0  0  0  0  0  0  0  0
   41.3302   33.8342   43.5802 C   0  0  2  0  0  0  0  0  0  0  0  0
   41.8582   35.1093   44.1564 C   0  0  2  0  0  0  0  0  0  0  0  0
   42.6020   34.9682   44.9639 H   0  0  0  0  0  0  0  0  0  0  0  0
   42.5271   35.8603   43.0138 C   0  0  1  0  0  0  0  0  0  0  0  0
   42.2185   36.9229   42.9544 H   0  0  0  0  0  0  0  0  0  0  0  0
   42.3062   35.2513   41.7841 O   0  0  0  0  0  0  0  0  0  0  0  0
   40.9661   35.0638   41.5047 C   0  0  1  0  0  0  0  0  0  0  0  0
   40.4070   36.0024   41.3137 H   0  0  0  0  0  0  0  0  0  0  0  0
   40.2614   34.2417   42.5590 C   0  0  1  0  0  0  0  0  0  0  0  0
   39.8239   33.3196   42.1456 H   0  0  0  0  0  0  0  0  0  0  0  0
   42.1481   33.3796   42.9826 H   0  0  0  0  0  0  0  0  0  0  0  0
   41.0165   35.7447   44.5013 H   0  0  0  0  0  0  0  0  0  0  0  0
   43.6337   35.8610   43.1588 H   0  0  0  0  0  0  0  0  0  0  0  0
   40.9255   34.4820   40.5521 H   0  0  0  0  0  0  0  0  0  0  0  0
   39.4747   34.8212   43.0574 H   0  0  0  0  0  0  0  0  0  0  0  0
  1  9  1  0
  1  2  2  0
  3  2  1  0
  4  3  2  0
  5  6  2  0
  5  4  1  0
  6  1  1  0
  8  7  2  0
  8 14  1  0
  9  8  1  0
 10 11  1  0
 10  9  2  0
 11 12  2  0
 12  7  1  0
 13 11  1  0
 14 17  1  0
 14 16  1  0
 15 14  1  0
 18  5  1  0
 19 18  1  0
 20 19  2  0
 21 20  1  0
 21 22  1  0
 22 18  2  0
  2 23  1  0
  3 24  1  0
  4 25  1  0
  7 26  1  0
 13 27  1  0
 13 28  1  0
 19 29  1  0
 20 30  1  0
 31 32  1  0
 32 33  1  1
 32 34  1  0
 34 35  1  6
 34 36  1  0
 36 37  1  0
 37 38  1  6
 37 39  1  0
 39 40  1  6
 39 31  1  0
 31 41  1  6
 32 42  1  0
 34 43  1  0
 37 44  1  0
 39 45  1  0
 21 31  1  0
M  ISO  8  23  14  24  14  25  14  26  14  29  14  30  14  33  15  35  15
M  ISO  2  38  15  40  15
M  END
>  <DihAtoms>  (1) 
19,20,30,31

>  <DihDeg>  (1) 
-105.14040283424954

$$$$
