
     RDKit          3D

 38 41  0  0  0  0  0  0  0  0999 V2000
   37.8249   30.3798   51.0905 C   0  0  0  0  0  0  0  0  0  0  0  0
   38.2258   30.9702   49.8850 C   0  0  0  0  0  0  0  0  0  0  0  0
   37.5866   30.5551   48.7257 C   0  0  0  0  0  0  0  0  0  0  0  0
   36.6324   29.6180   48.8530 N   0  0  0  0  0  0  0  0  0  0  0  0
   36.2598   29.0621   50.0163 C   0  0  0  0  0  0  0  0  0  0  0  0
   36.8666   29.4516   51.1438 N   0  0  0  0  0  0  0  0  0  0  0  0
   37.8952   31.0833   47.4212 C   0  0  0  0  0  0  0  0  0  0  0  0
   37.1180   30.7535   46.3174 C   0  0  0  0  0  0  0  0  0  0  0  0
   37.3643   31.2318   45.0569 C   0  0  0  0  0  0  0  0  0  0  0  0
   38.4093   32.0639   44.8670 N   0  0  0  0  0  0  0  0  0  0  0  0
   39.1558   32.3773   45.9407 C   0  0  0  0  0  0  0  0  0  0  0  0
   38.9296   31.9198   47.1765 N   0  0  0  0  0  0  0  0  0  0  0  0
   40.3178   33.2942   45.7625 C   0  0  0  0  0  0  0  0  0  0  0  0
   40.4274   34.0584   46.9242 F   0  0  0  0  0  0  0  0  0  0  0  0
   41.4668   32.5773   45.5084 F   0  0  0  0  0  0  0  0  0  0  0  0
   40.1096   34.1810   44.7369 F   0  0  0  0  0  0  0  0  0  0  0  0
   35.2554   28.1086   49.9588 O   0  0  0  0  0  0  0  0  0  0  0  0
   33.2864   27.1708   47.0033 N   0  0  0  0  0  0  0  0  0  0  0  0
   34.1671   27.0117   48.0014 C   0  0  0  0  0  0  0  0  0  0  0  0
   34.4076   28.0469   48.8780 C   0  0  0  0  0  0  0  0  0  0  0  0
   33.7134   29.2496   48.6949 C   0  0  0  0  0  0  0  0  0  0  0  0
   33.7737   30.3199   49.3692 O   0  0  0  0  0  0  0  0  0  0  0  0
   32.8339   29.3444   47.6622 N   0  0  0  0  0  0  0  0  0  0  0  0
   32.6240   28.3170   46.8276 C   0  0  0  0  0  0  0  0  0  0  0  0
   31.8106   28.3786   45.8579 O   0  0  0  0  0  0  0  0  0  0  0  0
   38.3382   30.7202   51.9801 H   0  0  0  0  0  0  0  0  0  0  0  0
   38.9856   31.7148   49.7920 H   0  0  0  0  0  0  0  0  0  0  0  0
   36.2634   30.0844   46.4242 H   0  0  0  0  0  0  0  0  0  0  0  0
   36.7339   30.9503   44.2220 H   0  0  0  0  0  0  0  0  0  0  0  0
   33.1866   26.3249   46.4064 H   0  0  0  0  0  0  0  0  0  0  0  0
   34.7377   26.1319   48.2129 H   0  0  0  0  0  0  0  0  0  0  0  0
   32.0746   30.5113   47.3784 C   0  0  0  0  0  0  0  0  0  0  0  0
   30.7935   30.9251   47.4563 N   0  0  0  0  0  0  0  0  0  0  0  0
   30.7359   32.2002   47.0099 C   0  0  0  0  0  0  0  0  0  0  0  0
   29.7856   32.6827   47.0049 H   0  0  0  0  0  0  0  0  0  0  0  0
   31.9843   32.5630   46.6597 N   0  0  0  0  0  0  0  0  0  0  0  0
   32.1367   33.5223   46.2892 H   0  0  0  0  0  0  0  0  0  0  0  0
   32.8059   31.5464   46.8787 N   0  0  0  0  0  0  0  0  0  0  0  0
  1  6  2  0
  2  1  1  0
  3  4  1  0
  3  2  2  0
  4  5  2  0
  5  6  1  0
  7  3  1  0
  8  7  2  0
  9  8  1  0
 10  9  2  0
 10 11  1  0
 11 12  2  0
 12  7  1  0
 13 11  1  0
 13 14  1  0
 15 13  1  0
 16 13  1  0
 17  5  1  0
 18 19  1  0
 19 20  2  0
 20 17  1  0
 21 20  1  0
 21 22  2  0
 23 21  1  0
 24 18  1  0
 24 23  1  0
 25 24  2  0
  1 26  1  0
  2 27  1  0
  8 28  1  0
  9 29  1  0
 18 30  1  0
 19 31  1  0
 32 33  1  0
 33 34  2  0
 34 35  1  0
 34 36  1  0
 36 37  1  0
 36 38  1  0
 38 32  2  0
 23 32  1  0
M  ISO  8  26  14  27  14  28  14  29  14  30   9  31  14  35  14  37   9
M  END
>  <DihAtoms>  (1) 
20,22,31,32

>  <DihDeg>  (1) 
116.29824215125366

$$$$
