
     RDKit          3D

 31 33  0  0  0  0  0  0  0  0999 V2000
   37.9920   31.3990   47.6390 C   0  0  0  0  0  0  0  0  0  0  0  0
   37.0780   31.3020   48.6700 C   0  0  0  0  0  0  0  0  0  0  0  0
   37.2000   32.3180   49.6390 C   0  0  0  0  0  0  0  0  0  0  0  0
   38.1680   33.3150   49.5390 C   0  0  0  0  0  0  0  0  0  0  0  0
   39.0430   33.3250   48.4620 C   0  0  0  0  0  0  0  0  0  0  0  0
   38.9470   32.3390   47.4920 C   0  0  0  0  0  0  0  0  0  0  0  0
   34.9410   30.3420   47.9610 C   0  0  0  0  0  0  0  0  0  0  0  0
   36.0840   30.2810   48.7770 C   0  0  0  0  0  0  0  0  0  0  0  0
   36.2090   29.2170   49.6730 C   0  0  0  0  0  0  0  0  0  0  0  0
   35.2040   28.2960   49.6970 N   0  0  0  0  0  0  0  0  0  0  0  0
   34.1200   28.3780   48.9040 C   0  0  0  0  0  0  0  0  0  0  0  0
   33.9910   29.3920   48.0440 N   0  0  0  0  0  0  0  0  0  0  0  0
   37.3950   29.1140   50.5520 C   0  0  0  0  0  0  0  0  0  0  0  0
   37.9460   30.4290   46.6280 O   0  0  0  0  0  0  0  0  0  0  0  0
   39.8370   32.3660   46.4150 O   0  0  0  0  0  0  0  0  0  0  0  0
   39.2660   32.5350   45.1610 C   0  0  0  0  0  0  0  0  0  0  0  0
   39.8250   32.8560   43.9800 N   0  0  0  0  0  0  0  0  0  0  0  0
   38.8410   32.8950   43.0630 C   0  0  0  0  0  0  0  0  0  0  0  0
   37.6790   32.6000   43.6710 N   0  0  0  0  0  0  0  0  0  0  0  0
   37.9630   32.3860   44.9380 N   0  0  0  0  0  0  0  0  0  0  0  0
   36.5123   32.3240   50.4975 H   0  0  0  0  0  0  0  0  0  0  0  0
   38.2386   34.0934   50.3130 H   0  0  0  0  0  0  0  0  0  0  0  0
   39.8083   34.1107   48.3783 H   0  0  0  0  0  0  0  0  0  0  0  0
   34.8220   31.1723   47.2493 H   0  0  0  0  0  0  0  0  0  0  0  0
   33.3374   27.6074   48.9641 H   0  0  0  0  0  0  0  0  0  0  0  0
   37.0751   29.1418   51.6041 H   0  0  0  0  0  0  0  0  0  0  0  0
   37.9180   28.1671   50.3526 H   0  0  0  0  0  0  0  0  0  0  0  0
   38.0734   29.9566   50.3526 H   0  0  0  0  0  0  0  0  0  0  0  0
   38.5867   30.4688   45.8743 H   0  0  0  0  0  0  0  0  0  0  0  0
   38.9664   33.1289   41.9955 H   0  0  0  0  0  0  0  0  0  0  0  0
   36.7488   32.5511   43.2314 H   0  0  0  0  0  0  0  0  0  0  0  0
  1  2  2  0
  2  8  1  0
  2  3  1  0
  4  3  2  0
  5  4  1  0
  6  1  1  0
  6  5  2  0
  7 12  2  0
  7  8  1  0
  8  9  2  0
  9 10  1  0
  9 13  1  0
 11 10  2  0
 12 11  1  0
 14  1  1  0
 15  6  1  0
 16 15  1  0
 17 16  1  0
 18 19  1  0
 18 17  2  0
 19 20  1  0
 20 16  2  0
  3 21  1  0
  4 22  1  0
  5 23  1  0
  7 24  1  0
 11 25  1  0
 13 26  1  0
 13 27  1  0
 13 28  1  0
 14 29  1  0
 18 30  1  0
 19 31  1  0
M  ISO  8  21  14  22  14  23  14  24  14  25  14  26   8  27   8  28   8
M  ISO  3  29   3  30  14  31   9
M  END
>  <minimizedAffinity>  (1) 
-6.61246252

>  <minimizedRMSD>  (1) 
0.0959376618

$$$$
