
     RDKit          3D

 38 41  0  0  1  0  0  0  0  0999 V2000
   38.7140   32.2570   47.8690 C   0  0  2  0  0  0  0  0  0  0  0  0
   37.8860   32.6600   49.1200 C   0  0  2  0  0  0  0  0  0  0  0  0
   38.8740   33.3930   49.8960 C   0  0  0  0  0  0  0  0  0  0  0  0
   39.6840   34.0870   49.0030 O   0  0  0  0  0  0  0  0  0  0  0  0
   39.4510   33.6230   47.7490 C   0  0  0  0  0  0  0  0  0  0  0  0
   37.1890   29.6650   51.2950 C   0  0  0  0  0  0  0  0  0  0  0  0
   37.8890   30.7750   50.7440 C   0  0  0  0  0  0  0  0  0  0  0  0
   37.2290   31.5250   49.7290 C   0  0  0  0  0  0  0  0  0  0  0  0
   35.9640   31.1490   49.3340 N   0  0  0  0  0  0  0  0  0  0  0  0
   35.3520   30.1000   49.8830 C   0  0  0  0  0  0  0  0  0  0  0  0
   35.9460   29.3530   50.8580 N   0  0  0  0  0  0  0  0  0  0  0  0
   37.9370   32.0880   46.7730 O   0  0  0  0  0  0  0  0  0  0  0  0
   40.4600   31.2620   45.2070 Cl  0  0  0  0  0  0  0  0  0  0  0  0
   38.8350   30.7200   44.8680 C   0  0  0  0  0  0  0  0  0  0  0  0
   37.8760   31.2410   45.7240 C   0  0  0  0  0  0  0  0  0  0  0  0
   36.5830   30.8150   45.4630 C   0  0  0  0  0  0  0  0  0  0  0  0
   36.2770   29.9470   44.4390 C   0  0  0  0  0  0  0  0  0  0  0  0
   37.2790   29.4720   43.6320 C   0  0  0  0  0  0  0  0  0  0  0  0
   38.5920   29.8520   43.8320 C   0  0  0  0  0  0  0  0  0  0  0  0
   39.7350   29.4100   43.0370 C   0  0  0  0  0  0  0  0  0  0  0  0
   40.7030   30.1420   42.4540 N   0  0  0  0  0  0  0  0  0  0  0  0
   41.5540   29.2850   41.8200 C   0  0  0  0  0  0  0  0  0  0  0  0
   41.0980   28.0180   42.0210 N   0  0  0  0  0  0  0  0  0  0  0  0
   40.0020   28.1180   42.7550 N   0  0  0  0  0  0  0  0  0  0  0  0
   39.2962   31.3267   47.9436 H   0  0  0  0  0  0  0  0  0  0  0  0
   37.0017   33.2906   48.9457 H   0  0  0  0  0  0  0  0  0  0  0  0
   38.3702   34.0998   50.5718 H   0  0  0  0  0  0  0  0  0  0  0  0
   39.4757   32.7018   50.5044 H   0  0  0  0  0  0  0  0  0  0  0  0
   40.4049   33.4868   47.2184 H   0  0  0  0  0  0  0  0  0  0  0  0
   38.8362   34.3399   47.1851 H   0  0  0  0  0  0  0  0  0  0  0  0
   37.6608   29.0568   52.0808 H   0  0  0  0  0  0  0  0  0  0  0  0
   38.8989   31.0428   51.0882 H   0  0  0  0  0  0  0  0  0  0  0  0
   34.3420   29.8295   49.5412 H   0  0  0  0  0  0  0  0  0  0  0  0
   35.7672   31.1860   46.1008 H   0  0  0  0  0  0  0  0  0  0  0  0
   35.2355   29.6365   44.2692 H   0  0  0  0  0  0  0  0  0  0  0  0
   37.0337   28.7787   42.8140 H   0  0  0  0  0  0  0  0  0  0  0  0
   42.4499   29.5675   41.2477 H   0  0  0  0  0  0  0  0  0  0  0  0
   41.5243   27.1489   41.6692 H   0  0  0  0  0  0  0  0  0  0  0  0
  1  2  1  0
  2  8  1  0
  2  3  1  0
  4  3  1  0
  5  1  1  0
  5  4  1  0
  7  6  2  0
  8  7  1  0
  9  8  2  0
  9 10  1  0
 10 11  2  0
 11  6  1  0
 12  1  1  0
 14 13  1  0
 14 15  2  0
 15 12  1  0
 16 15  1  0
 17 16  2  0
 18 19  2  0
 18 17  1  0
 19 14  1  0
 20 19  1  0
 21 20  1  0
 22 23  1  0
 22 21  2  0
 23 24  1  0
 24 20  2  0
  1 25  1  1
  2 26  1  6
  3 27  1  0
  3 28  1  0
  5 29  1  0
  5 30  1  0
  6 31  1  0
  7 32  1  0
 10 33  1  0
 16 34  1  0
 17 35  1  0
 18 36  1  0
 22 37  1  0
 23 38  1  0
M  ISO  8  25  13  26  13  27  13  28  13  29  13  30  13  31  14  32  14
M  ISO  6  33  14  34  14  35  14  36  14  37  14  38   9
M  END
>  <minimizedAffinity>  (1) 
-6.31841373

>  <minimizedRMSD>  (1) 
0.643303812

$$$$
