
     RDKit          3D

 36 38  0  0  1  0  0  0  0  0999 V2000
   37.7850   30.7010   48.7130 C   0  0  2  0  0  0  0  0  0  0  0  0
   38.5670   31.8800   48.3020 C   0  0  0  0  0  0  0  0  0  0  0  0
   38.6620   32.8670   49.3180 C   0  0  0  0  0  0  0  0  0  0  0  0
   39.3360   34.0510   49.1710 C   0  0  0  0  0  0  0  0  0  0  0  0
   39.9890   34.3550   47.9640 C   0  0  0  0  0  0  0  0  0  0  0  0
   39.8480   33.3410   47.0260 C   0  0  0  0  0  0  0  0  0  0  0  0
   39.1950   32.1790   47.1480 N   0  0  0  0  0  0  0  0  0  0  0  0
   35.6540   29.7820   48.1360 C   0  0  0  0  0  0  0  0  0  0  0  0
   36.6690   30.4780   47.7360 C   0  0  0  0  0  0  0  0  0  0  0  0
   33.5040   29.6390   45.0970 C   0  0  0  0  0  0  0  0  0  0  0  0
   34.5610   29.8670   45.9590 C   0  0  0  0  0  0  0  0  0  0  0  0
   34.5210   29.5110   47.2810 C   0  0  0  0  0  0  0  0  0  0  0  0
   33.3940   28.9240   47.6980 N   0  0  0  0  0  0  0  0  0  0  0  0
   32.3590   28.6870   46.9020 C   0  0  0  0  0  0  0  0  0  0  0  0
   32.4160   29.0480   45.5870 N   0  0  0  0  0  0  0  0  0  0  0  0
   31.1690   28.0400   47.4450 C   0  0  0  0  0  0  0  0  0  0  0  0
   31.1980   27.6360   48.7470 N   0  0  0  0  0  0  0  0  0  0  0  0
   29.9800   27.0730   48.9910 C   0  0  0  0  0  0  0  0  0  0  0  0
   29.2200   27.1320   47.8610 N   0  0  0  0  0  0  0  0  0  0  0  0
   29.9690   27.7290   46.9250 N   0  0  0  0  0  0  0  0  0  0  0  0
   37.0200   31.1290   50.3130 S   0  0  0  0  0  0  0  0  0  0  0  0
   36.9890   29.7220   51.4090 C   0  0  0  0  0  0  0  0  0  0  0  0
   37.6540   29.9410   52.6030 F   0  0  0  0  0  0  0  0  0  0  0  0
   35.7060   29.2610   51.6180 F   0  0  0  0  0  0  0  0  0  0  0  0
   37.6560   28.6780   50.7260 F   0  0  0  0  0  0  0  0  0  0  0  0
   38.4233   29.8068   48.7668 H   0  0  0  0  0  0  0  0  0  0  0  0
   38.1655   32.6698   50.2795 H   0  0  0  0  0  0  0  0  0  0  0  0
   39.3662   34.7689   50.0039 H   0  0  0  0  0  0  0  0  0  0  0  0
   40.5460   35.2863   47.7838 H   0  0  0  0  0  0  0  0  0  0  0  0
   40.3367   33.5154   46.0561 H   0  0  0  0  0  0  0  0  0  0  0  0
   35.6537   29.3833   49.1612 H   0  0  0  0  0  0  0  0  0  0  0  0
   36.7117   30.8908   46.7173 H   0  0  0  0  0  0  0  0  0  0  0  0
   33.5602   29.9366   44.0395 H   0  0  0  0  0  0  0  0  0  0  0  0
   35.4676   30.3523   45.5685 H   0  0  0  0  0  0  0  0  0  0  0  0
   29.6608   26.6390   49.9500 H   0  0  0  0  0  0  0  0  0  0  0  0
   28.2568   26.7849   47.7488 H   0  0  0  0  0  0  0  0  0  0  0  0
  1 21  1  0
  2  1  1  0
  2  3  2  0
  4  3  1  0
  5  4  2  0
  6  7  2  0
  6  5  1  0
  7  2  1  0
  9  8  2  0
  9  1  1  0
 10 15  2  0
 10 11  1  0
 11 12  2  0
 12 13  1  0
 12  8  1  0
 14 16  1  0
 14 13  2  0
 15 14  1  0
 16 17  1  0
 17 18  2  0
 19 18  1  0
 20 16  2  0
 20 19  1  0
 21 22  1  0
 22 24  1  0
 22 23  1  0
 25 22  1  0
  1 26  1  1
  3 27  1  0
  4 28  1  0
  5 29  1  0
  6 30  1  0
  8 31  1  0
  9 32  1  0
 10 33  1  0
 11 34  1  0
 18 35  1  0
 19 36  1  0
M  ISO  8  26   8  27  14  28  14  29  14  30  14  33  14  34  14  35  14
M  ISO  1  36   9
M  END
>  <minimizedAffinity>  (1) 
-6.44665241

>  <minimizedRMSD>  (1) 
0.669069886

$$$$
