
     RDKit          3D

 37 40  0  0  0  0  0  0  0  0999 V2000
   36.4070   30.9050   45.7050 Cl  0  0  0  0  0  0  0  0  0  0  0  0
   36.6920   30.7790   47.4230 C   0  0  0  0  0  0  0  0  0  0  0  0
   37.9510   31.1050   47.8790 C   0  0  0  0  0  0  0  0  0  0  0  0
   38.1910   31.0100   49.2380 C   0  0  0  0  0  0  0  0  0  0  0  0
   37.1860   30.6010   50.0780 C   0  0  0  0  0  0  0  0  0  0  0  0
   35.9360   30.2870   49.5480 C   0  0  0  0  0  0  0  0  0  0  0  0
   35.6380   30.3610   48.2130 C   0  0  0  0  0  0  0  0  0  0  0  0
   40.2070   33.3170   46.0600 C   0  0  0  0  0  0  0  0  0  0  0  0
   40.9200   32.4620   45.2060 C   0  0  0  0  0  0  0  0  0  0  0  0
   40.6050   31.1060   45.2700 C   0  0  0  0  0  0  0  0  0  0  0  0
   39.6430   30.6790   46.1390 N   0  0  0  0  0  0  0  0  0  0  0  0
   38.9970   31.5400   46.9300 C   0  0  0  0  0  0  0  0  0  0  0  0
   39.2840   32.8360   46.8810 N   0  0  0  0  0  0  0  0  0  0  0  0
   34.0590   29.9670   47.5190 S   0  0  0  0  0  0  0  0  0  0  0  0
   33.7810   29.1860   44.4900 Cl  0  0  0  0  0  0  0  0  0  0  0  0
   33.8090   27.9640   45.7430 C   0  0  0  0  0  0  0  0  0  0  0  0
   33.9290   28.2220   47.1200 C   0  0  0  0  0  0  0  0  0  0  0  0
   33.9380   27.1770   48.0120 C   0  0  0  0  0  0  0  0  0  0  0  0
   33.8310   25.8880   47.5730 C   0  0  0  0  0  0  0  0  0  0  0  0
   33.7100   25.5810   46.2270 C   0  0  0  0  0  0  0  0  0  0  0  0
   33.7040   26.6370   45.3600 C   0  0  0  0  0  0  0  0  0  0  0  0
   33.5760   26.3110   43.9420 C   0  0  0  0  0  0  0  0  0  0  0  0
   32.4180   26.1420   43.2780 N   0  0  0  0  0  0  0  0  0  0  0  0
   32.6210   25.8500   41.9830 C   0  0  0  0  0  0  0  0  0  0  0  0
   33.9520   25.8370   41.8380 N   0  0  0  0  0  0  0  0  0  0  0  0
   34.5440   26.1120   43.0060 N   0  0  0  0  0  0  0  0  0  0  0  0
   39.1824   31.2610   49.6432 H   0  0  0  0  0  0  0  0  0  0  0  0
   37.3655   30.5217   51.1604 H   0  0  0  0  0  0  0  0  0  0  0  0
   35.1450   29.9618   50.2398 H   0  0  0  0  0  0  0  0  0  0  0  0
   40.4159   34.3969   46.0481 H   0  0  0  0  0  0  0  0  0  0  0  0
   41.6901   32.8435   44.5194 H   0  0  0  0  0  0  0  0  0  0  0  0
   41.1280   30.3848   44.6247 H   0  0  0  0  0  0  0  0  0  0  0  0
   34.0322   27.3802   49.0890 H   0  0  0  0  0  0  0  0  0  0  0  0
   33.8412   25.0703   48.3088 H   0  0  0  0  0  0  0  0  0  0  0  0
   33.6234   24.5423   45.8753 H   0  0  0  0  0  0  0  0  0  0  0  0
   31.8605   25.6626   41.2107 H   0  0  0  0  0  0  0  0  0  0  0  0
   34.4478   25.6436   40.9561 H   0  0  0  0  0  0  0  0  0  0  0  0
  1  2  1  0
  2  3  2  0
  2  7  1  0
  3  4  1  0
  4  5  2  0
  6  5  1  0
  7  6  2  0
  8 13  2  0
  9 10  2  0
  9  8  1  0
 10 11  1  0
 11 12  2  0
 12  3  1  0
 13 12  1  0
 14  7  1  0
 15 16  1  0
 16 17  2  0
 17 14  1  0
 17 18  1  0
 19 18  2  0
 20 19  1  0
 21 16  1  0
 21 20  2  0
 22 21  1  0
 23 22  1  0
 24 23  2  0
 25 24  1  0
 25 26  1  0
 26 22  2  0
  4 27  1  0
  5 28  1  0
  6 29  1  0
  8 30  1  0
  9 31  1  0
 10 32  1  0
 18 33  1  0
 19 34  1  0
 20 35  1  0
 24 36  1  0
 25 37  1  0
M  ISO  8  27  14  28  14  29  14  30  14  31  14  32  14  33  14  34  14
M  ISO  3  35  14  36  14  37   9
M  END
>  <minimizedAffinity>  (1) 
-5.61094046

>  <minimizedRMSD>  (1) 
0.205091968

$$$$
