
     RDKit          3D

 25 27  0  0  0  0  0  0  0  0999 V2000
   35.7790   30.1890   49.9990 C   0  0  0  0  0  0  0  0  0  0  0  0
   36.7550   29.7710   50.8910 C   0  0  0  0  0  0  0  0  0  0  0  0
   37.8180   30.6140   50.5890 C   0  0  0  0  0  0  0  0  0  0  0  0
   37.4540   31.4710   49.5700 C   0  0  0  0  0  0  0  0  0  0  0  0
   36.2260   31.1970   49.2330 O   0  0  0  0  0  0  0  0  0  0  0  0
   38.3170   32.4950   48.9930 C   0  0  0  0  0  0  0  0  0  0  0  0
   38.8820   33.5290   49.6380 N   0  0  0  0  0  0  0  0  0  0  0  0
   39.6210   34.2910   48.8130 C   0  0  0  0  0  0  0  0  0  0  0  0
   39.5000   33.6870   47.6000 N   0  0  0  0  0  0  0  0  0  0  0  0
   38.7150   32.6090   47.7130 N   0  0  0  0  0  0  0  0  0  0  0  0
   34.4350   29.6000   49.9130 C   0  0  0  0  0  0  0  0  0  0  0  0
   33.6740   29.7390   50.9100 O   0  0  0  0  0  0  0  0  0  0  0  0
   32.7870   27.1570   47.7920 C   0  0  0  0  0  0  0  0  0  0  0  0
   33.2010   27.4990   46.5120 C   0  0  0  0  0  0  0  0  0  0  0  0
   34.0620   28.5860   46.3580 C   0  0  0  0  0  0  0  0  0  0  0  0
   34.4450   29.2490   47.4810 N   0  0  0  0  0  0  0  0  0  0  0  0
   34.0240   28.8910   48.7150 C   0  0  0  0  0  0  0  0  0  0  0  0
   33.1980   27.8500   48.8700 N   0  0  0  0  0  0  0  0  0  0  0  0
   36.7014   28.9736   51.6468 H   0  0  0  0  0  0  0  0  0  0  0  0
   38.7992   30.6003   51.0860 H   0  0  0  0  0  0  0  0  0  0  0  0
   40.1933   35.1968   49.0621 H   0  0  0  0  0  0  0  0  0  0  0  0
   39.9443   34.0098   46.7286 H   0  0  0  0  0  0  0  0  0  0  0  0
   32.1088   26.3017   47.9281 H   0  0  0  0  0  0  0  0  0  0  0  0
   32.8578   26.9256   45.6383 H   0  0  0  0  0  0  0  0  0  0  0  0
   34.4178   28.8951   45.3641 H   0  0  0  0  0  0  0  0  0  0  0  0
  1  2  2  0
  3  2  1  0
  4  3  2  0
  5  4  1  0
  5  1  1  0
  6  4  1  0
  6  7  1  0
  8  7  2  0
  9 10  1  0
  9  8  1  0
 10  6  2  0
 11  1  1  0
 11 12  2  0
 13 18  2  0
 14 13  1  0
 15 14  2  0
 15 16  1  0
 16 17  2  0
 17 18  1  0
 17 11  1  0
  2 19  1  0
  3 20  1  0
  8 21  1  0
  9 22  1  0
 13 23  1  0
 14 24  1  0
 15 25  1  0
M  ISO  7  19  14  20  14  21  14  22   9  23  14  24  14  25  14
M  END
>  <minimizedAffinity>  (1) 
-5.53691864

>  <minimizedRMSD>  (1) 
1.97538674

$$$$
