
     RDKit          3D

 38 40  0  0  1  0  0  0  0  0999 V2000
   37.0340   30.9340   49.0050 C   0  0  0  0  0  0  0  0  0  0  0  0
   36.7450   31.7930   50.0690 C   0  0  0  0  0  0  0  0  0  0  0  0
   37.3360   33.0450   50.1730 C   0  0  0  0  0  0  0  0  0  0  0  0
   38.2410   33.4620   49.1940 C   0  0  0  0  0  0  0  0  0  0  0  0
   38.5120   32.6090   48.1640 C   0  0  0  0  0  0  0  0  0  0  0  0
   37.9060   31.3660   48.0870 C   0  0  0  0  0  0  0  0  0  0  0  0
   36.4490   29.6130   48.9160 C   0  0  2  0  0  0  0  0  0  0  0  0
   33.5730   30.1410   46.7570 C   0  0  0  0  0  0  0  0  0  0  0  0
   32.8750   28.9470   46.8350 C   0  0  0  0  0  0  0  0  0  0  0  0
   33.3540   27.9660   47.6810 C   0  0  0  0  0  0  0  0  0  0  0  0
   34.4970   28.2040   48.4120 N   0  0  0  0  0  0  0  0  0  0  0  0
   35.1190   29.3590   48.2940 C   0  0  0  0  0  0  0  0  0  0  0  0
   34.6660   30.3230   47.4780 N   0  0  0  0  0  0  0  0  0  0  0  0
   36.9020   28.8090   49.8130 O   0  0  0  0  0  0  0  0  0  0  0  0
   38.3040   30.5550   46.9610 C   0  0  0  0  0  0  0  0  0  0  0  0
   39.1340   30.9760   45.9990 C   0  0  0  0  0  0  0  0  0  0  0  0
   39.6370   30.2200   44.8270 C   0  0  0  0  0  0  0  0  0  0  0  0
   39.5850   31.2700   43.3680 S   0  0  0  0  0  0  0  0  0  0  0  0
   38.0100   32.1030   43.2100 C   0  0  0  0  0  0  0  0  0  0  0  0
   37.8630   32.6750   42.0020 N   0  0  0  0  0  0  0  0  0  0  0  0
   36.6740   33.2900   41.9180 C   0  0  0  0  0  0  0  0  0  0  0  0
   36.0830   33.0880   43.1020 N   0  0  0  0  0  0  0  0  0  0  0  0
   36.8580   32.3860   43.8840 N   0  0  0  0  0  0  0  0  0  0  0  0
   36.0326   31.4695   50.8422 H   0  0  0  0  0  0  0  0  0  0  0  0
   37.0934   33.7036   51.0200 H   0  0  0  0  0  0  0  0  0  0  0  0
   38.7215   34.4498   49.2518 H   0  0  0  0  0  0  0  0  0  0  0  0
   39.2233   32.9135   47.3821 H   0  0  0  0  0  0  0  0  0  0  0  0
   36.8382   29.2781   47.9432 H   0  0  0  0  0  0  0  0  0  0  0  0
   33.2162   30.9413   46.0921 H   0  0  0  0  0  0  0  0  0  0  0  0
   31.9644   28.7847   46.2396 H   0  0  0  0  0  0  0  0  0  0  0  0
   32.8279   27.0041   47.7702 H   0  0  0  0  0  0  0  0  0  0  0  0
   36.6988   29.1696   50.7123 H   0  0  0  0  0  0  0  0  0  0  0  0
   37.9025   29.5334   46.8896 H   0  0  0  0  0  0  0  0  0  0  0  0
   39.4875   32.0137   46.0894 H   0  0  0  0  0  0  0  0  0  0  0  0
   40.6735   29.9022   45.0132 H   0  0  0  0  0  0  0  0  0  0  0  0
   39.0053   29.3344   44.6637 H   0  0  0  0  0  0  0  0  0  0  0  0
   36.2698   33.8436   41.0577 H   0  0  0  0  0  0  0  0  0  0  0  0
   35.1488   33.4370   43.3598 H   0  0  0  0  0  0  0  0  0  0  0  0
  1  2  2  0
  2  3  1  0
  4  3  2  0
  5  4  1  0
  6  5  2  0
  6  1  1  0
  7  1  1  0
  7 14  1  0
  8  9  2  0
  8 13  1  0
  9 10  1  0
 10 11  2  0
 12 11  1  0
 12  7  1  0
 13 12  2  0
 15  6  1  0
 16 15  2  0
 17 16  1  0
 18 17  1  0
 19 18  1  0
 19 23  2  0
 20 19  1  0
 21 20  2  0
 21 22  1  0
 22 23  1  0
  2 24  1  0
  3 25  1  0
  4 26  1  0
  5 27  1  0
  7 28  1  6
  8 29  1  0
  9 30  1  0
 10 31  1  0
 14 32  1  0
 15 33  1  0
 16 34  1  0
 17 35  1  0
 17 36  1  0
 21 37  1  0
 22 38  1  0
M  ISO  8  24  14  25  14  26  14  27  14  28   8  29  14  30  14  31  14
M  ISO  5  32   3  35   8  36   8  37  14  38   9
M  END
>  <minimizedAffinity>  (1) 
-5.84060478

>  <minimizedRMSD>  (1) 
0.608136892

$$$$
