
     RDKit          3D

 30 32  0  0  0  0  0  0  0  0999 V2000
   37.4710   31.4312   49.3835 C   0  0  0  0  0  0  0  0  0  0  0  0
   37.8687   32.7168   49.7020 C   0  0  0  0  0  0  0  0  0  0  0  0
   38.6822   33.3377   48.7567 C   0  0  0  0  0  0  0  0  0  0  0  0
   39.0303   32.6712   47.6109 N   0  0  0  0  0  0  0  0  0  0  0  0
   38.6173   31.4156   47.3431 C   0  0  0  0  0  0  0  0  0  0  0  0
   37.8182   30.7829   48.2546 N   0  0  0  0  0  0  0  0  0  0  0  0
   36.5654   30.7323   50.3552 C   0  0  0  0  0  0  0  0  0  0  0  0
   36.4811   29.3140   50.4692 C   0  0  0  0  0  0  0  0  0  0  0  0
   37.3444   30.0392   51.4910 C   0  0  0  0  0  0  0  0  0  0  0  0
   38.9760   30.7037   46.1178 C   0  0  0  0  0  0  0  0  0  0  0  0
   41.0538   31.5395   45.0177 C   0  0  0  0  0  0  0  0  0  0  0  0
   40.4489   32.3011   44.1870 O   0  0  0  0  0  0  0  0  0  0  0  0
   40.4216   30.7537   46.0102 N   0  0  0  0  0  0  0  0  0  0  0  0
   37.5604   33.1813   50.6163 H   0  0  0  0  0  0  0  0  0  0  0  0
   39.0331   34.3505   48.9418 H   0  0  0  0  0  0  0  0  0  0  0  0
   35.7426   31.3947   50.6952 H   0  0  0  0  0  0  0  0  0  0  0  0
   36.9751   28.5716   49.8133 H   0  0  0  0  0  0  0  0  0  0  0  0
   35.5212   28.8896   50.8774 H   0  0  0  0  0  0  0  0  0  0  0  0
   36.9011   30.1786   52.4949 H   0  0  0  0  0  0  0  0  0  0  0  0
   38.4338   29.9677   51.4028 H   0  0  0  0  0  0  0  0  0  0  0  0
   38.7050   29.6530   46.1707 H   0  0  0  0  0  0  0  0  0  0  0  0
   38.4855   31.1113   45.2006 H   0  0  0  0  0  0  0  0  0  0  0  0
   40.9769   30.1931   46.6867 H   0  0  0  0  0  0  0  0  0  0  0  0
   42.5246   31.4792   44.9298 C   0  0  0  0  0  0  0  0  0  0  0  0
   43.3472   32.3210   44.2768 N   0  0  0  0  0  0  0  0  0  0  0  0
   44.6324   31.9497   44.4198 C   0  0  0  0  0  0  0  0  0  0  0  0
   45.4408   32.5079   43.9637 H   0  0  0  0  0  0  0  0  0  0  0  0
   44.5790   30.8470   45.1849 N   0  0  0  0  0  0  0  0  0  0  0  0
   45.4518   30.3246   45.4684 H   0  0  0  0  0  0  0  0  0  0  0  0
   43.3401   30.5571   45.4940 N   0  0  0  0  0  0  0  0  0  0  0  0
  1  2  2  0
  1  7  1  0
  3  2  1  0
  4  3  2  0
  5  4  1  0
  5  6  2  0
  6  1  1  0
  7  8  1  0
  7  9  1  0
  8  9  1  0
 10  5  1  0
 11 13  1  0
 12 11  2  0
 13 10  1  0
  2 14  1  0
  3 15  1  0
  7 16  1  0
  8 17  1  0
  8 18  1  0
  9 19  1  0
  9 20  1  0
 10 21  1  0
 10 22  1  0
 13 23  1  0
 24 25  1  0
 25 26  2  0
 26 27  1  0
 26 28  1  0
 28 29  1  0
 28 30  1  0
 30 24  2  0
 11 24  1  0
M  ISO  8  14  14  15  14  16  13  17  13  18  13  19  13  20  13  21   8
M  ISO  3  22   8  27  14  29   9
M  END
>  <DihAtoms>  (1) 
12,10,23,24

>  <DihDeg>  (1) 
-0.0010518714020455162

$$$$
