
     RDKit          3D

 33 35  0  0  0  0  0  0  0  0999 V2000
   38.1870   31.8630   47.4360 C   0  0  0  0  0  0  0  0  0  0  0  0
   38.7930   32.6720   48.3550 C   0  0  0  0  0  0  0  0  0  0  0  0
   38.3750   32.7330   49.6900 C   0  0  0  0  0  0  0  0  0  0  0  0
   37.2560   31.8920   50.0720 C   0  0  0  0  0  0  0  0  0  0  0  0
   36.7020   31.1140   49.1140 C   0  0  0  0  0  0  0  0  0  0  0  0
   37.1090   31.0640   47.8320 C   0  0  0  0  0  0  0  0  0  0  0  0
   39.9890   31.2360   45.9050 C   0  0  0  0  0  0  0  0  0  0  0  0
   38.7480   31.8940   46.1030 C   0  0  0  0  0  0  0  0  0  0  0  0
   38.2260   32.4810   44.9770 C   0  0  0  0  0  0  0  0  0  0  0  0
   38.8750   32.4110   43.8020 N   0  0  0  0  0  0  0  0  0  0  0  0
   40.0250   31.7970   43.6370 C   0  0  0  0  0  0  0  0  0  0  0  0
   40.5690   31.2160   44.6930 N   0  0  0  0  0  0  0  0  0  0  0  0
   35.0690   30.0810   47.1940 C   0  0  0  0  0  0  0  0  0  0  0  0
   34.5860   30.6190   48.2690 O   0  0  0  0  0  0  0  0  0  0  0  0
   36.4770   30.2690   46.9100 N   0  0  0  0  0  0  0  0  0  0  0  0
   34.2390   29.3620   46.3740 O   0  0  0  0  0  0  0  0  0  0  0  0
   32.8510   29.4390   46.3910 C   0  0  0  0  0  0  0  0  0  0  0  0
   32.2070   30.4430   45.8340 O   0  0  0  0  0  0  0  0  0  0  0  0
   32.0180   28.3870   47.0200 C   0  0  0  0  0  0  0  0  0  0  0  0
   32.1870   27.7710   48.2180 N   0  0  0  0  0  0  0  0  0  0  0  0
   31.2070   26.8750   48.4090 C   0  0  0  0  0  0  0  0  0  0  0  0
   30.4160   26.9270   47.3250 N   0  0  0  0  0  0  0  0  0  0  0  0
   30.9100   27.8350   46.4990 N   0  0  0  0  0  0  0  0  0  0  0  0
   39.6393   33.2976   48.0349 H   0  0  0  0  0  0  0  0  0  0  0  0
   38.8735   33.3902   50.4178 H   0  0  0  0  0  0  0  0  0  0  0  0
   36.8722   31.8872   51.1029 H   0  0  0  0  0  0  0  0  0  0  0  0
   35.8555   30.4744   49.4044 H   0  0  0  0  0  0  0  0  0  0  0  0
   40.4817   30.7369   46.7524 H   0  0  0  0  0  0  0  0  0  0  0  0
   37.2659   33.0145   45.0371 H   0  0  0  0  0  0  0  0  0  0  0  0
   40.5182   31.7673   42.6542 H   0  0  0  0  0  0  0  0  0  0  0  0
   36.9542   29.8491   46.0995 H   0  0  0  0  0  0  0  0  0  0  0  0
   31.0764   26.2230   49.2852 H   0  0  0  0  0  0  0  0  0  0  0  0
   29.5719   26.3590   47.1645 H   0  0  0  0  0  0  0  0  0  0  0  0
  1  6  1  0
  1  2  2  0
  2  3  1  0
  3  4  2  0
  5  4  1  0
  6  5  2  0
  7  8  2  0
  8  1  1  0
  9  8  1  0
 10  9  2  0
 11 10  1  0
 11 12  2  0
 12  7  1  0
 13 14  2  0
 15 13  1  0
 15  6  1  0
 16 17  1  0
 16 13  1  0
 17 19  1  0
 18 17  2  0
 19 20  1  0
 20 21  2  0
 22 21  1  0
 23 19  2  0
 23 22  1  0
  2 24  1  0
  3 25  1  0
  4 26  1  0
  5 27  1  0
  7 28  1  0
  9 29  1  0
 11 30  1  0
 15 31  1  0
 21 32  1  0
 22 33  1  0
M  ISO  8  24  14  25  14  26  14  27  14  28  14  29  14  30  14  32  14
M  ISO  1  33   9
M  END
>  <minimizedAffinity>  (1) 
-5.73157167

>  <minimizedRMSD>  (1) 
1.29575276

$$$$
