
     RDKit          3D

 30 31  0  0  0  0  0  0  0  0999 V2000
   37.4708   31.4371   49.3863 C   0  0  0  0  0  0  0  0  0  0  0  0
   37.8691   32.7207   49.7070 C   0  0  0  0  0  0  0  0  0  0  0  0
   38.6835   33.3304   48.7561 C   0  0  0  0  0  0  0  0  0  0  0  0
   39.0301   32.6624   47.6111 N   0  0  0  0  0  0  0  0  0  0  0  0
   38.6131   31.4074   47.3455 C   0  0  0  0  0  0  0  0  0  0  0  0
   37.8169   30.7884   48.2584 N   0  0  0  0  0  0  0  0  0  0  0  0
   36.5616   30.7292   50.3539 C   0  0  0  0  0  0  0  0  0  0  0  0
   36.4916   29.3098   50.4623 C   0  0  0  0  0  0  0  0  0  0  0  0
   37.3352   30.0442   51.4960 C   0  0  0  0  0  0  0  0  0  0  0  0
   38.9793   30.7189   46.1211 C   0  0  0  0  0  0  0  0  0  0  0  0
   41.0457   31.5479   45.0113 C   0  0  0  0  0  0  0  0  0  0  0  0
   40.4542   32.2914   44.1833 O   0  0  0  0  0  0  0  0  0  0  0  0
   40.4279   30.7511   46.0067 N   0  0  0  0  0  0  0  0  0  0  0  0
   37.5983   33.2383   50.5976 H   0  0  0  0  0  0  0  0  0  0  0  0
   39.0713   34.3266   48.8669 H   0  0  0  0  0  0  0  0  0  0  0  0
   35.7257   31.3849   50.6793 H   0  0  0  0  0  0  0  0  0  0  0  0
   37.1376   28.6680   49.7938 H   0  0  0  0  0  0  0  0  0  0  0  0
   35.5854   28.7899   50.7664 H   0  0  0  0  0  0  0  0  0  0  0  0
   36.8579   30.1391   52.4781 H   0  0  0  0  0  0  0  0  0  0  0  0
   38.4288   30.0152   51.4401 H   0  0  0  0  0  0  0  0  0  0  0  0
   38.6079   29.6784   46.1260 H   0  0  0  0  0  0  0  0  0  0  0  0
   38.5339   31.2965   45.2684 H   0  0  0  0  0  0  0  0  0  0  0  0
   40.9812   30.1725   46.6772 H   0  0  0  0  0  0  0  0  0  0  0  0
   42.4853   31.4715   44.9775 N   0  0  0  0  0  0  0  0  0  0  0  0
   43.0010   30.5897   45.2722 H   0  0  0  0  0  0  0  0  0  0  0  0
   43.3665   32.8720   44.4371 S   0  0  0  0  0  0  0  0  0  0  0  0
   42.9647   33.2313   43.0415 O   0  0  0  0  0  0  0  0  0  0  0  0
   43.0243   33.9888   45.3801 O   0  0  0  0  0  0  0  0  0  0  0  0
   44.9976   32.5370   44.4881 O   0  0  0  0  0  0  0  0  0  0  0  0
   45.5123   33.3402   44.2891 H   0  0  0  0  0  0  0  0  0  0  0  0
  1  2  2  0
  1  7  1  0
  3  2  1  0
  4  3  2  0
  5  4  1  0
  5  6  2  0
  6  1  1  0
  7  8  1  0
  7  9  1  0
  8  9  1  0
 10  5  1  0
 11 13  1  0
 12 11  2  0
 13 10  1  0
  2 14  1  0
  3 15  1  0
  7 16  1  0
  8 17  1  0
  8 18  1  0
  9 19  1  0
  9 20  1  0
 10 21  1  0
 10 22  1  0
 13 23  1  0
 24 25  1  0
 24 26  1  0
 26 27  2  0
 26 28  2  0
 26 29  1  0
 29 30  1  0
 11 24  1  0
M  ISO  8  14  14  15  14  16  13  17  13  18  13  19  13  20  13  21   8
M  ISO  3  22   8  25   5  30   3
M  END
>  <DihAtoms>  (1) 
12,10,23,24

>  <DihDeg>  (1) 
-0.0004825618255468102

$$$$
