
     RDKit          3D

 35 36  0  0  0  0  0  0  0  0999 V2000
   39.5953   32.8641   46.3057 N   0  0  0  0  0  0  0  0  0  0  0  0
   38.2708   32.3508   46.0664 C   0  0  1  0  0  0  0  0  0  0  0  0
   37.9373   32.3978   44.6020 C   0  0  0  0  0  0  0  0  0  0  0  0
   38.9344   31.5908   43.9097 N   0  0  0  0  0  0  0  0  0  0  0  0
   40.1762   32.3741   44.0219 C   0  0  0  0  0  0  0  0  0  0  0  0
   40.5915   32.2639   45.4773 C   0  0  2  0  0  0  0  0  0  0  0  0
   40.8422   30.8796   45.8086 N   0  0  0  0  0  0  0  0  0  0  0  0
   38.1261   30.5899   46.5660 S   0  0  0  0  0  0  0  0  0  0  0  0
   37.8909   30.9289   50.6007 C   0  0  0  0  0  0  0  0  0  0  0  0
   38.3621   31.0813   49.3144 C   0  0  0  0  0  0  0  0  0  0  0  0
   37.6586   30.4924   48.2818 C   0  0  0  0  0  0  0  0  0  0  0  0
   36.5191   29.7821   48.5989 N   0  0  0  0  0  0  0  0  0  0  0  0
   36.1203   29.6738   49.8567 C   0  0  0  0  0  0  0  0  0  0  0  0
   36.7846   30.2344   50.8691 N   0  0  0  0  0  0  0  0  0  0  0  0
   34.9043   28.9101   50.1487 C   0  0  0  0  0  0  0  0  0  0  0  0
   34.4952   27.9611   49.4510 O   0  0  0  0  0  0  0  0  0  0  0  0
   39.5634   33.8723   46.1327 H   0  0  0  0  0  0  0  0  0  0  0  0
   37.5521   32.9531   46.6554 H   0  0  0  0  0  0  0  0  0  0  0  0
   37.9258   33.4085   44.1738 H   0  0  0  0  0  0  0  0  0  0  0  0
   36.9263   31.9207   44.4559 H   0  0  0  0  0  0  0  0  0  0  0  0
   39.0378   30.6581   44.3291 H   0  0  0  0  0  0  0  0  0  0  0  0
   39.9236   33.4255   43.7836 H   0  0  0  0  0  0  0  0  0  0  0  0
   40.9678   31.9432   43.4009 H   0  0  0  0  0  0  0  0  0  0  0  0
   41.5320   32.8467   45.6204 H   0  0  0  0  0  0  0  0  0  0  0  0
   40.9431   30.2699   44.9787 H   0  0  0  0  0  0  0  0  0  0  0  0
   41.6851   30.8076   46.4155 H   0  0  0  0  0  0  0  0  0  0  0  0
   38.4302   31.3839   51.4220 H   0  0  0  0  0  0  0  0  0  0  0  0
   39.2515   31.6361   49.0704 H   0  0  0  0  0  0  0  0  0  0  0  0
   34.1389   29.2783   51.3085 N   0  0  0  0  0  0  0  0  0  0  0  0
   33.1308   29.5845   51.1701 H   0  0  0  0  0  0  0  0  0  0  0  0
   34.7870   29.2445   52.9169 S   0  0  0  0  0  0  0  0  0  0  0  0
   33.7358   28.9504   53.9255 O   0  0  0  0  0  0  0  0  0  0  0  0
   35.8197   28.1566   52.9925 O   0  0  0  0  0  0  0  0  0  0  0  0
   35.4697   30.7418   53.2576 O   0  0  0  0  0  0  0  0  0  0  0  0
   35.8018   31.1302   52.4300 H   0  0  0  0  0  0  0  0  0  0  0  0
  2  1  1  0
  2  8  1  0
  3  2  1  0
  4  5  1  0
  4  3  1  0
  5  6  1  0
  6  7  1  0
  6  1  1  0
  8 11  1  0
  9 14  2  0
 10  9  1  0
 11 12  1  0
 11 10  2  0
 12 13  2  0
 13 15  1  0
 13 14  1  0
 16 15  2  0
  1 17  1  0
  2 18  1  1
  3 19  1  0
  3 20  1  0
  4 21  1  0
  5 22  1  0
  5 23  1  0
  6 24  1  6
  7 25  1  0
  7 26  1  0
  9 27  1  0
 10 28  1  0
 29 30  1  0
 29 31  1  0
 31 32  2  0
 31 33  2  0
 31 34  1  0
 34 35  1  0
 15 29  1  0
M  ISO  8  17   5  18  13  19  13  20  13  21   5  22  13  23  13  24  13
M  ISO  6  25   5  26   5  27  14  28  14  30   5  35   3
M  END
>  <DihAtoms>  (1) 
12,14,28,29

>  <DihDeg>  (1) 
0.00032678370309301906

$$$$
