
     RDKit          3D

 39 41  0  0  0  0  0  0  0  0999 V2000
   34.3180   30.0290   48.5570 F   0  0  0  0  0  0  0  0  0  0  0  0
   34.6130   29.7570   47.2440 C   0  0  0  0  0  0  0  0  0  0  0  0
   33.7470   29.0520   46.4270 C   0  0  0  0  0  0  0  0  0  0  0  0
   34.1020   28.8340   45.1130 C   0  0  0  0  0  0  0  0  0  0  0  0
   35.3170   29.3150   44.6130 C   0  0  0  0  0  0  0  0  0  0  0  0
   36.1330   30.0100   45.4860 C   0  0  0  0  0  0  0  0  0  0  0  0
   35.8270   30.2460   46.7730 C   0  0  0  0  0  0  0  0  0  0  0  0
   37.9320   32.1260   45.4180 Br  0  0  0  0  0  0  0  0  0  0  0  0
   37.7190   31.8660   47.2930 C   0  0  0  0  0  0  0  0  0  0  0  0
   36.7430   30.9670   47.6320 C   0  0  0  0  0  0  0  0  0  0  0  0
   36.5560   30.6910   48.9960 C   0  0  0  0  0  0  0  0  0  0  0  0
   37.3210   31.2990   49.9470 C   0  0  0  0  0  0  0  0  0  0  0  0
   38.2820   32.1930   49.5320 C   0  0  0  0  0  0  0  0  0  0  0  0
   38.4960   32.4910   48.1790 C   0  0  0  0  0  0  0  0  0  0  0  0
   39.4260   33.3680   47.6990 O   0  0  0  0  0  0  0  0  0  0  0  0
   32.6650   27.7860   48.1670 C   0  0  0  0  0  0  0  0  0  0  0  0
   32.5350   28.6130   47.0590 C   0  0  0  0  0  0  0  0  0  0  0  0
   31.2570   28.9610   46.6550 C   0  0  0  0  0  0  0  0  0  0  0  0
   30.1760   28.5000   47.3330 N   0  0  0  0  0  0  0  0  0  0  0  0
   30.3410   27.7060   48.3980 C   0  0  0  0  0  0  0  0  0  0  0  0
   31.5470   27.3510   48.8120 N   0  0  0  0  0  0  0  0  0  0  0  0
   29.1820   27.2440   49.0820 N   0  0  0  0  0  0  0  0  0  0  0  0
   27.8490   28.2640   49.4900 S   0  0  0  0  0  0  0  0  0  0  0  0
   27.6920   28.2980   50.9800 O   0  0  0  0  0  0  0  0  0  0  0  0
   28.0090   29.6560   49.0010 O   0  0  0  0  0  0  0  0  0  0  0  0
   26.4600   27.5390   48.8540 O   0  0  0  0  0  0  0  0  0  0  0  0
   33.4233   28.2763   44.4509 H   0  0  0  0  0  0  0  0  0  0  0  0
   35.6113   29.1468   43.5665 H   0  0  0  0  0  0  0  0  0  0  0  0
   37.0908   30.3930   45.1040 H   0  0  0  0  0  0  0  0  0  0  0  0
   35.7805   29.9734   49.3020 H   0  0  0  0  0  0  0  0  0  0  0  0
   37.1744   31.0813   51.0152 H   0  0  0  0  0  0  0  0  0  0  0  0
   38.9046   32.6916   50.2895 H   0  0  0  0  0  0  0  0  0  0  0  0
   40.0210   33.8509   48.3259 H   0  0  0  0  0  0  0  0  0  0  0  0
   33.6621   27.4849   48.5206 H   0  0  0  0  0  0  0  0  0  0  0  0
   31.1177   29.6139   45.7808 H   0  0  0  0  0  0  0  0  0  0  0  0
   29.1355   26.2499   49.3476 H   0  0  0  0  0  0  0  0  0  0  0  0
   28.5644   28.1091   51.4081 H   0  0  0  0  0  0  0  0  0  0  0  0
   28.0797   30.2711   49.7735 H   0  0  0  0  0  0  0  0  0  0  0  0
   25.8777   27.2351   49.5947 H   0  0  0  0  0  0  0  0  0  0  0  0
  2  1  1  0
  3 17  1  0
  3  2  2  0
  4  3  1  0
  5  4  2  0
  5  6  1  0
  6  7  2  0
  7  2  1  0
  7 10  1  0
  8  9  1  0
  9 10  2  0
  9 14  1  0
 10 11  1  0
 11 12  2  0
 13 12  1  0
 14 13  2  0
 15 14  1  0
 16 21  2  0
 17 16  1  0
 18 17  2  0
 18 19  1  0
 19 20  2  0
 20 21  1  0
 20 22  1  0
 22 23  1  0
 23 24  1  0
 25 23  1  0
 26 23  1  0
  4 27  1  0
  5 28  1  0
  6 29  1  0
 11 30  1  0
 12 31  1  0
 13 32  1  0
 15 33  1  0
 16 34  1  0
 18 35  1  0
 22 36  1  0
 24 37  1  0
 25 38  1  0
 26 39  1  0
M  ISO  8  27  14  28  14  29  14  30  14  31  14  32  14  33   3  34  14
M  ISO  4  35  14  37   3  38   3  39   3
M  END
>  <minimizedAffinity>  (1) 
-7.178545

>  <minimizedRMSD>  (1) 
1.4121182

$$$$
