
     RDKit          3D

 28 29  0  0  0  0  0  0  0  0999 V2000
   38.0100   33.3210   49.4440 Cl  0  0  0  0  0  0  0  0  0  0  0  0
   38.4890   32.3620   48.0780 C   0  0  0  0  0  0  0  0  0  0  0  0
   38.0510   31.0690   47.9510 C   0  0  0  0  0  0  0  0  0  0  0  0
   38.4760   30.3650   46.8320 C   0  0  0  0  0  0  0  0  0  0  0  0
   39.2930   30.9110   45.8820 C   0  0  0  0  0  0  0  0  0  0  0  0
   39.7190   32.2230   46.0370 C   0  0  0  0  0  0  0  0  0  0  0  0
   40.7590   32.9090   44.8210 Cl  0  0  0  0  0  0  0  0  0  0  0  0
   39.3210   32.9420   47.1250 C   0  0  0  0  0  0  0  0  0  0  0  0
   36.8740   29.4300   51.1480 C   0  0  0  0  0  0  0  0  0  0  0  0
   37.7110   29.9450   50.1490 C   0  0  0  0  0  0  0  0  0  0  0  0
   37.1860   30.5340   48.9890 C   0  0  0  0  0  0  0  0  0  0  0  0
   35.8410   30.5710   48.9030 N   0  0  0  0  0  0  0  0  0  0  0  0
   35.0390   30.0780   49.8590 C   0  0  0  0  0  0  0  0  0  0  0  0
   35.5420   29.5180   50.9620 N   0  0  0  0  0  0  0  0  0  0  0  0
   39.7230   30.1890   44.7400 N   0  0  0  0  0  0  0  0  0  0  0  0
   38.8790   29.3900   43.4720 S   0  0  0  0  0  0  0  0  0  0  0  0
   39.1800   27.9170   43.4390 O   0  0  0  0  0  0  0  0  0  0  0  0
   37.4090   29.6600   43.4670 O   0  0  0  0  0  0  0  0  0  0  0  0
   39.4670   29.9970   41.9970 O   0  0  0  0  0  0  0  0  0  0  0  0
   38.1413   29.3249   46.7049 H   0  0  0  0  0  0  0  0  0  0  0  0
   39.6579   33.9817   47.2496 H   0  0  0  0  0  0  0  0  0  0  0  0
   37.2909   28.9685   52.0553 H   0  0  0  0  0  0  0  0  0  0  0  0
   38.8019   29.8862   50.2770 H   0  0  0  0  0  0  0  0  0  0  0  0
   33.9479   30.1361   49.7320 H   0  0  0  0  0  0  0  0  0  0  0  0
   40.7476   30.1313   44.6519 H   0  0  0  0  0  0  0  0  0  0  0  0
   39.2502   27.5737   44.3649 H   0  0  0  0  0  0  0  0  0  0  0  0
   37.0814   29.7202   44.3993 H   0  0  0  0  0  0  0  0  0  0  0  0
   40.1446   30.6965   42.1747 H   0  0  0  0  0  0  0  0  0  0  0  0
  2  1  1  0
  3  2  2  0
  3 11  1  0
  4  3  1  0
  5  6  1  0
  5  4  2  0
  6  8  2  0
  7  6  1  0
  8  2  1  0
 10  9  2  0
 11 10  1  0
 12 11  2  0
 12 13  1  0
 13 14  2  0
 14  9  1  0
 15  5  1  0
 16 15  1  0
 17 16  1  0
 18 16  1  0
 19 16  1  0
  4 20  1  0
  8 21  1  0
  9 22  1  0
 10 23  1  0
 13 24  1  0
 15 25  1  0
 17 26  1  0
 18 27  1  0
 19 28  1  0
M  ISO  8  20  14  21  14  22  14  23  14  24  14  26   3  27   3  28   3
M  END
>  <minimizedAffinity>  (1) 
-5.93371391

>  <minimizedRMSD>  (1) 
0.391628027

$$$$
