
     RDKit          3D

 26 27  0  0  0  0  0  0  0  0999 V2000
   38.0123   33.1031   49.4733 C   0  0  0  0  0  0  0  0  0  0  0  0
   38.9679   33.2155   48.4672 C   0  0  0  0  0  0  0  0  0  0  0  0
   38.9457   32.2321   47.4650 C   0  0  0  0  0  0  0  0  0  0  0  0
   38.0163   31.2322   47.5124 N   0  0  0  0  0  0  0  0  0  0  0  0
   37.1084   31.1766   48.5219 C   0  0  0  0  0  0  0  0  0  0  0  0
   37.1064   32.1175   49.5081 N   0  0  0  0  0  0  0  0  0  0  0  0
   36.1052   30.1333   48.6052 C   0  0  0  0  0  0  0  0  0  0  0  0
   35.2889   29.9358   47.5359 C   0  0  0  0  0  0  0  0  0  0  0  0
   34.2995   28.9825   47.5071 C   0  0  0  0  0  0  0  0  0  0  0  0
   34.1468   28.2033   48.6239 C   0  0  0  0  0  0  0  0  0  0  0  0
   34.9499   28.3672   49.7285 C   0  0  0  0  0  0  0  0  0  0  0  0
   35.9377   29.3370   49.7254 C   0  0  0  0  0  0  0  0  0  0  0  0
   38.0413   33.8658   50.2367 H   0  0  0  0  0  0  0  0  0  0  0  0
   39.7152   33.9861   48.3942 H   0  0  0  0  0  0  0  0  0  0  0  0
   39.6521   32.2351   46.6376 H   0  0  0  0  0  0  0  0  0  0  0  0
   35.4028   30.5524   46.6398 H   0  0  0  0  0  0  0  0  0  0  0  0
   33.6735   28.8687   46.6205 H   0  0  0  0  0  0  0  0  0  0  0  0
   33.3537   27.4578   48.5680 H   0  0  0  0  0  0  0  0  0  0  0  0
   34.7374   27.6968   50.5474 H   0  0  0  0  0  0  0  0  0  0  0  0
   36.7516   29.4905   50.8536 N   0  0  0  0  0  0  0  0  0  0  0  0
   36.7995   30.4491   51.3141 H   0  0  0  0  0  0  0  0  0  0  0  0
   37.7587   28.4477   51.7323 S   0  0  0  0  0  0  0  0  0  0  0  0
   37.8559   27.0519   51.2062 O   0  0  0  0  0  0  0  0  0  0  0  0
   37.3768   28.4868   53.1750 O   0  0  0  0  0  0  0  0  0  0  0  0
   39.3340   29.0810   51.6217 O   0  0  0  0  0  0  0  0  0  0  0  0
   39.4793   29.4562   50.6997 H   0  0  0  0  0  0  0  0  0  0  0  0
  1  6  2  0
  2  1  1  0
  3  4  1  0
  3  2  2  0
  4  5  2  0
  5  7  1  0
  5  6  1  0
  7 12  1  0
  8  7  2  0
  9  8  1  0
  9 10  2  0
 10 11  1  0
 12 11  2  0
  1 13  1  0
  2 14  1  0
  3 15  1  0
  8 16  1  0
  9 17  1  0
 10 18  1  0
 11 19  1  0
 20 21  1  0
 20 22  1  0
 22 23  2  0
 22 24  2  0
 22 25  1  0
 25 26  1  0
 12 20  1  0
M  ISO  8  13  14  14  14  15  14  16  14  17  14  18  14  19  14  21   5
M  ISO  1  26   3
M  END
>  <DihAtoms>  (1) 
6,11,19,20

>  <DihDeg>  (1) 
-3.8160637092259124

$$$$
