
     RDKit          3D

 30 31  0  0  0  0  0  0  0  0999 V2000
   38.4612   30.4402   47.3073 F   0  0  0  0  0  0  0  0  0  0  0  0
   38.7533   31.6714   47.7936 C   0  0  0  0  0  0  0  0  0  0  0  0
   38.2382   32.0846   48.9963 C   0  0  0  0  0  0  0  0  0  0  0  0
   38.5749   33.3361   49.4232 C   0  0  0  0  0  0  0  0  0  0  0  0
   39.3950   34.1737   48.7006 C   0  0  0  0  0  0  0  0  0  0  0  0
   39.9033   33.7435   47.4960 C   0  0  0  0  0  0  0  0  0  0  0  0
   39.5834   32.4809   47.0316 C   0  0  0  0  0  0  0  0  0  0  0  0
   36.9178   29.5972   51.5219 C   0  0  0  0  0  0  0  0  0  0  0  0
   37.7771   30.4797   50.8584 C   0  0  0  0  0  0  0  0  0  0  0  0
   37.3760   31.1568   49.7184 C   0  0  0  0  0  0  0  0  0  0  0  0
   36.0955   30.9059   49.2905 N   0  0  0  0  0  0  0  0  0  0  0  0
   35.2844   30.0564   49.9387 C   0  0  0  0  0  0  0  0  0  0  0  0
   35.6865   29.4093   51.0394 N   0  0  0  0  0  0  0  0  0  0  0  0
   39.1959   32.1815   44.6856 C   0  0  0  0  0  0  0  0  0  0  0  0
   38.0763   32.6971   44.9885 O   0  0  0  0  0  0  0  0  0  0  0  0
   40.0890   31.9886   45.7820 N   0  0  0  0  0  0  0  0  0  0  0  0
   38.1726   33.6668   50.3688 H   0  0  0  0  0  0  0  0  0  0  0  0
   39.6686   35.1678   49.0292 H   0  0  0  0  0  0  0  0  0  0  0  0
   40.5635   34.3154   46.8328 H   0  0  0  0  0  0  0  0  0  0  0  0
   37.2997   29.1173   52.3880 H   0  0  0  0  0  0  0  0  0  0  0  0
   38.7902   30.6572   51.2250 H   0  0  0  0  0  0  0  0  0  0  0  0
   34.2668   29.8692   49.5824 H   0  0  0  0  0  0  0  0  0  0  0  0
   40.9920   31.5216   45.5627 H   0  0  0  0  0  0  0  0  0  0  0  0
   39.5101   31.8314   43.3420 N   0  0  0  0  0  0  0  0  0  0  0  0
   40.4473   31.4073   43.1342 H   0  0  0  0  0  0  0  0  0  0  0  0
   38.4135   32.0737   42.0290 S   0  0  0  0  0  0  0  0  0  0  0  0
   38.1870   30.7885   41.3300 O   0  0  0  0  0  0  0  0  0  0  0  0
   38.9882   33.0627   41.0384 O   0  0  0  0  0  0  0  0  0  0  0  0
   36.9937   32.7617   42.6218 O   0  0  0  0  0  0  0  0  0  0  0  0
   36.1993   32.4718   42.1031 H   0  0  0  0  0  0  0  0  0  0  0  0
  1  2  1  0
  2  3  2  0
  3  4  1  0
  3 10  1  0
  5  4  2  0
  6  5  1  0
  7  6  2  0
  7  2  1  0
  9  8  2  0
 10  9  1  0
 11 10  2  0
 11 12  1  0
 12 13  2  0
 13  8  1  0
 14 15  2  0
 14 16  1  0
 16  7  1  0
  4 17  1  0
  5 18  1  0
  6 19  1  0
  8 20  1  0
  9 21  1  0
 12 22  1  0
 16 23  1  0
 24 25  1  0
 24 26  1  0
 26 27  2  0
 26 28  2  0
 26 29  1  0
 29 30  1  0
 14 24  1  0
M  ISO  8  17  14  18  14  19  14  20  14  21  14  22  14  25   5  30   3
M  END
>  <DihAtoms>  (1) 
14,13,23,24

>  <DihDeg>  (1) 
179.9995281139376

$$$$
