
     RDKit          3D

 26 27  0  0  0  0  0  0  0  0999 V2000
   37.9813   33.1694   49.4310 C   0  0  0  0  0  0  0  0  0  0  0  0
   39.0198   33.1633   48.4626 C   0  0  0  0  0  0  0  0  0  0  0  0
   39.0108   32.1274   47.5430 C   0  0  0  0  0  0  0  0  0  0  0  0
   38.0276   31.1694   47.5966 N   0  0  0  0  0  0  0  0  0  0  0  0
   37.0570   31.2209   48.5427 C   0  0  0  0  0  0  0  0  0  0  0  0
   37.0357   32.2235   49.4605 N   0  0  0  0  0  0  0  0  0  0  0  0
   37.2670   29.3562   51.0455 Br  0  0  0  0  0  0  0  0  0  0  0  0
   35.9602   29.3188   49.6639 C   0  0  0  0  0  0  0  0  0  0  0  0
   36.0038   30.2151   48.6185 C   0  0  0  0  0  0  0  0  0  0  0  0
   35.0179   30.1229   47.6542 C   0  0  0  0  0  0  0  0  0  0  0  0
   34.0029   29.1819   47.6928 C   0  0  0  0  0  0  0  0  0  0  0  0
   33.9858   28.3039   48.7447 C   0  0  0  0  0  0  0  0  0  0  0  0
   34.9681   28.3782   49.7270 C   0  0  0  0  0  0  0  0  0  0  0  0
   37.9105   33.9439   50.1904 H   0  0  0  0  0  0  0  0  0  0  0  0
   39.7472   33.9540   48.4964 H   0  0  0  0  0  0  0  0  0  0  0  0
   39.7901   32.1095   46.8043 H   0  0  0  0  0  0  0  0  0  0  0  0
   35.0608   30.8406   46.8261 H   0  0  0  0  0  0  0  0  0  0  0  0
   33.1881   27.5728   48.7647 H   0  0  0  0  0  0  0  0  0  0  0  0
   34.8725   27.6406   50.5219 H   0  0  0  0  0  0  0  0  0  0  0  0
   33.0570   29.2167   46.6174 N   0  0  0  0  0  0  0  0  0  0  0  0
   32.1440   28.8888   46.9409 H   0  0  0  0  0  0  0  0  0  0  0  0
   33.4299   29.7409   45.0153 S   0  0  0  0  0  0  0  0  0  0  0  0
   32.6752   30.9823   44.6979 O   0  0  0  0  0  0  0  0  0  0  0  0
   34.9121   30.0820   44.9773 O   0  0  0  0  0  0  0  0  0  0  0  0
   33.2080   28.5264   43.8772 O   0  0  0  0  0  0  0  0  0  0  0  0
   32.2413   28.5144   43.6394 H   0  0  0  0  0  0  0  0  0  0  0  0
  1  6  2  0
  2  1  1  0
  3  4  1  0
  3  2  2  0
  4  5  2  0
  5  9  1  0
  5  6  1  0
  8 13  2  0
  8  7  1  0
  9  8  1  0
 10 11  1  0
 10  9  2  0
 11 12  2  0
 12 13  1  0
  1 14  1  0
  2 15  1  0
  3 16  1  0
 10 17  1  0
 12 18  1  0
 13 19  1  0
 20 21  1  0
 20 22  1  0
 22 23  2  0
 22 24  2  0
 22 25  1  0
 25 26  1  0
 11 20  1  0
M  ISO  8  14  14  15  14  16  14  17  14  18  14  19  14  21   5  26   3
M  END
>  <DihAtoms>  (1) 
9,10,19,20

>  <DihDeg>  (1) 
-134.9958014885729

$$$$
