
     RDKit          3D

 52 55  0  0  0  0  0  0  0  0999 V2000
   34.5952   29.5249   48.8942 C   0  0  0  0  0  0  0  0  0  0  0  0
   34.1100   30.1824   47.7602 C   0  0  0  0  0  0  0  0  0  0  0  0
   33.3085   29.4222   46.8960 C   0  0  0  0  0  0  0  0  0  0  0  0
   33.0433   28.0929   47.2009 N   0  0  0  0  0  0  0  0  0  0  0  0
   33.5517   27.5106   48.3315 C   0  0  0  0  0  0  0  0  0  0  0  0
   34.3142   28.2312   49.1537 N   0  0  0  0  0  0  0  0  0  0  0  0
   32.7674   29.9769   45.7117 N   0  0  0  0  0  0  0  0  0  0  0  0
   33.5650   30.4906   44.7252 C   0  0  0  0  0  0  0  0  0  0  0  0
   33.0183   31.0240   43.5838 C   0  0  0  0  0  0  0  0  0  0  0  0
   31.6620   31.0293   43.4573 C   0  0  0  0  0  0  0  0  0  0  0  0
   31.1446   31.5179   42.4106 O   0  0  0  0  0  0  0  0  0  0  0  0
   30.8757   30.5243   44.4267 N   0  0  0  0  0  0  0  0  0  0  0  0
   31.4509   30.0099   45.5315 C   0  0  0  0  0  0  0  0  0  0  0  0
   30.6224   29.5600   46.3839 O   0  0  0  0  0  0  0  0  0  0  0  0
   35.4439   30.3754   49.8066 C   0  0  2  0  0  0  0  0  0  0  0  0
   36.4732   31.1202   48.9614 C   0  0  0  0  0  0  0  0  0  0  0  0
   37.8650   30.6436   49.1728 C   0  0  0  0  0  0  0  0  0  0  0  0
   38.2578   30.6792   50.6324 C   0  0  0  0  0  0  0  0  0  0  0  0
   37.2682   30.0161   51.5124 C   0  0  0  0  0  0  0  0  0  0  0  0
   36.0366   29.5016   50.8241 C   0  0  1  0  0  0  0  0  0  0  0  0
   34.2642   31.1935   47.4576 H   0  0  0  0  0  0  0  0  0  0  0  0
   33.3046   26.4725   48.5060 H   0  0  0  0  0  0  0  0  0  0  0  0
   34.6412   30.4619   44.8757 H   0  0  0  0  0  0  0  0  0  0  0  0
   33.7058   31.4134   42.8429 H   0  0  0  0  0  0  0  0  0  0  0  0
   29.8628   30.5629   44.2612 H   0  0  0  0  0  0  0  0  0  0  0  0
   34.7455   31.1628   50.1617 H   0  0  0  0  0  0  0  0  0  0  0  0
   36.2298   30.9525   47.8785 H   0  0  0  0  0  0  0  0  0  0  0  0
   36.3967   32.2204   49.0855 H   0  0  0  0  0  0  0  0  0  0  0  0
   38.5405   31.3569   48.6575 H   0  0  0  0  0  0  0  0  0  0  0  0
   37.9986   29.6265   48.7502 H   0  0  0  0  0  0  0  0  0  0  0  0
   39.2931   30.3442   50.7460 H   0  0  0  0  0  0  0  0  0  0  0  0
   38.2697   31.7756   50.9056 H   0  0  0  0  0  0  0  0  0  0  0  0
   37.7791   29.0891   51.9117 H   0  0  0  0  0  0  0  0  0  0  0  0
   37.0506   30.6010   52.4224 H   0  0  0  0  0  0  0  0  0  0  0  0
   36.1938   28.4623   50.4209 H   0  0  0  0  0  0  0  0  0  0  0  0
   36.6235   29.7352   53.6630 O   0  0  0  0  0  0  0  0  0  0  0  0
   35.3989   30.1281   53.1647 C   0  0  1  0  0  0  0  0  0  0  0  0
   35.0043   29.3011   51.9428 C   0  0  1  0  0  0  0  0  0  0  0  0
   33.6272   29.7588   51.5124 C   0  0  1  0  0  0  0  0  0  0  0  0
   33.6012   30.1229   50.4515 H   0  0  0  0  0  0  0  0  0  0  0  0
   33.1168   30.7281   52.3786 O   0  0  0  0  0  0  0  0  0  0  0  0
   32.9464   30.1133   53.6178 C   0  0  2  0  0  0  0  0  0  0  0  0
   32.3485   29.1877   53.4451 H   0  0  0  0  0  0  0  0  0  0  0  0
   34.3193   29.8182   54.2088 C   0  0  2  0  0  0  0  0  0  0  0  0
   34.5463   30.5496   55.3701 O   0  0  0  0  0  0  0  0  0  0  0  0
   36.5187   28.9610   54.2791 H   0  0  0  0  0  0  0  0  0  0  0  0
   35.3243   31.1959   52.9396 H   0  0  0  0  0  0  0  0  0  0  0  0
   34.9345   28.2563   52.2757 H   0  0  0  0  0  0  0  0  0  0  0  0
   32.8921   28.9149   51.5445 H   0  0  0  0  0  0  0  0  0  0  0  0
   32.3637   30.7400   54.3208 H   0  0  0  0  0  0  0  0  0  0  0  0
   34.3654   28.7266   54.3888 H   0  0  0  0  0  0  0  0  0  0  0  0
   34.5766   29.9356   56.1506 H   0  0  0  0  0  0  0  0  0  0  0  0
  1  6  1  0
  1 15  1  0
  2  1  2  0
  3  4  2  0
  3  2  1  0
  4  5  1  0
  5  6  2  0
  7  3  1  0
  8  7  1  0
  9  8  2  0
 10  9  1  0
 10 12  1  0
 11 10  2  0
 12 13  1  0
 13  7  1  0
 13 14  2  0
 15 20  1  0
 16 17  1  0
 16 15  1  0
 17 18  1  0
 18 19  1  0
 20 19  1  0
  2 21  1  0
  5 22  1  0
  8 23  1  0
  9 24  1  0
 12 25  1  0
 15 26  1  1
 16 27  1  0
 16 28  1  0
 17 29  1  0
 17 30  1  0
 18 31  1  0
 18 32  1  0
 19 33  1  0
 19 34  1  0
 20 35  1  6
 36 37  1  0
 37 38  1  0
 38 39  1  0
 39 40  1  6
 39 41  1  0
 41 42  1  0
 42 43  1  6
 42 44  1  0
 44 45  1  0
 44 37  1  0
 36 46  1  0
 37 47  1  6
 38 48  1  1
 39 49  1  0
 42 50  1  0
 44 51  1  1
 45 52  1  0
 20 38  1  0
M  ISO  8  21  14  22  14  23  14  24  14  25   9  26  13  27  13  28  13
M  ISO  8  29  13  30  13  31  13  32  13  33  13  34  13  35  13  40   8
M  ISO  1  43   8
M  END
>  <DihAtoms>  (1) 
14,19,37,36

>  <DihDeg>  (1) 
179.9981122528462

$$$$
