
     RDKit          3D

 36 38  0  0  0  0  0  0  0  0999 V2000
   37.0075   31.3918   48.5677 N   0  0  0  0  0  0  0  0  0  0  0  0
   37.1847   32.1542   49.6528 C   0  0  0  0  0  0  0  0  0  0  0  0
   38.1511   33.1603   49.6736 C   0  0  0  0  0  0  0  0  0  0  0  0
   38.8611   33.2602   48.4922 C   0  0  0  0  0  0  0  0  0  0  0  0
   39.7569   34.1685   48.4642 O   0  0  0  0  0  0  0  0  0  0  0  0
   38.7154   32.5208   47.3891 N   0  0  0  0  0  0  0  0  0  0  0  0
   37.7582   31.5715   47.4570 C   0  0  0  0  0  0  0  0  0  0  0  0
   37.6058   30.8607   46.4185 O   0  0  0  0  0  0  0  0  0  0  0  0
   36.2022   29.2472   49.3496 C   0  0  0  0  0  0  0  0  0  0  0  0
   36.0350   30.3673   48.5160 C   0  0  0  0  0  0  0  0  0  0  0  0
   34.9038   30.3943   47.6881 C   0  0  0  0  0  0  0  0  0  0  0  0
   34.0406   29.3474   47.7378 N   0  0  0  0  0  0  0  0  0  0  0  0
   34.2344   28.2835   48.5557 C   0  0  0  0  0  0  0  0  0  0  0  0
   35.3194   28.2252   49.3696 N   0  0  0  0  0  0  0  0  0  0  0  0
   36.5925   32.0337   50.5495 H   0  0  0  0  0  0  0  0  0  0  0  0
   38.3429   33.8082   50.5169 H   0  0  0  0  0  0  0  0  0  0  0  0
   39.3143   32.6899   46.5515 H   0  0  0  0  0  0  0  0  0  0  0  0
   34.7714   31.2515   47.0463 H   0  0  0  0  0  0  0  0  0  0  0  0
   33.4343   27.5589   48.4456 H   0  0  0  0  0  0  0  0  0  0  0  0
   38.0174   31.0141   49.2895 O   0  0  0  0  0  0  0  0  0  0  0  0
   38.4514   30.0065   50.1484 C   0  0  2  0  0  0  0  0  0  0  0  0
   37.3285   29.0278   50.2912 C   0  0  1  0  0  0  0  0  0  0  0  0
   36.8802   29.0618   51.7345 C   0  0  1  0  0  0  0  0  0  0  0  0
   35.9733   28.4294   51.8184 H   0  0  0  0  0  0  0  0  0  0  0  0
   36.5682   30.3140   52.2033 O   0  0  0  0  0  0  0  0  0  0  0  0
   37.5898   31.2263   52.1252 C   0  0  1  0  0  0  0  0  0  0  0  0
   37.2767   32.1712   51.6265 H   0  0  0  0  0  0  0  0  0  0  0  0
   38.8137   30.6563   51.4781 C   0  0  2  0  0  0  0  0  0  0  0  0
   39.6865   31.7108   51.2206 O   0  0  0  0  0  0  0  0  0  0  0  0
   38.7634   31.5266   48.8928 H   0  0  0  0  0  0  0  0  0  0  0  0
   39.3618   29.5383   49.7510 H   0  0  0  0  0  0  0  0  0  0  0  0
   37.7311   27.9922   50.1366 H   0  0  0  0  0  0  0  0  0  0  0  0
   37.6758   28.5564   52.3199 H   0  0  0  0  0  0  0  0  0  0  0  0
   37.8901   31.5137   53.1689 H   0  0  0  0  0  0  0  0  0  0  0  0
   39.2828   29.9041   52.1434 H   0  0  0  0  0  0  0  0  0  0  0  0
   39.7428   32.3448   51.9850 H   0  0  0  0  0  0  0  0  0  0  0  0
  1  2  1  0
  2  3  2  0
  4  3  1  0
  5  4  2  0
  6  7  1  0
  6  4  1  0
  7  1  1  0
  8  7  2  0
  9 14  1  0
 10  1  1  0
 10  9  2  0
 11 12  2  0
 11 10  1  0
 12 13  1  0
 13 14  2  0
  2 15  1  0
  3 16  1  0
  6 17  1  0
 11 18  1  0
 13 19  1  0
 20 21  1  0
 21 22  1  0
 22 23  1  0
 23 24  1  6
 23 25  1  0
 25 26  1  0
 26 27  1  6
 26 28  1  0
 28 29  1  0
 28 21  1  0
 20 30  1  0
 21 31  1  6
 22 32  1  6
 23 33  1  0
 26 34  1  0
 28 35  1  1
 29 36  1  0
  9 22  1  0
M  ISO  7  15  14  16  14  17   9  18  14  19  14  24   8  27   8
M  END
>  <DihAtoms>  (1) 
13,8,21,20

>  <DihDeg>  (1) 
-84.81685763164037

$$$$
