
     RDKit          3D

 46 47  0  0  0  0  0  0  0  0999 V2000
   33.2846   27.2349   50.0675 O   0  0  0  0  0  0  0  0  0  0  0  0
   33.6418   28.6155   49.0923 P   0  0  0  0  0  0  0  0  0  0  0  0
   34.2204   30.8011   47.3857 O   0  0  0  0  0  0  0  0  0  0  0  0
   35.3218   28.7186   48.6339 O   0  0  0  0  0  0  0  0  0  0  0  0
   36.8576   30.4913   51.2841 C   0  0  0  0  0  0  0  0  0  0  0  0
   38.1964   30.5678   50.9085 C   0  0  0  0  0  0  0  0  0  0  0  0
   38.4966   29.9693   49.6985 C   0  0  0  0  0  0  0  0  0  0  0  0
   37.6049   29.3467   48.9033 N   0  0  0  0  0  0  0  0  0  0  0  0
   36.3168   29.3221   49.3543 C   0  0  0  0  0  0  0  0  0  0  0  0
   35.9339   29.8784   50.5190 N   0  0  0  0  0  0  0  0  0  0  0  0
   32.5693   28.8183   47.7655 O   0  0  0  0  0  0  0  0  0  0  0  0
   32.6109   30.3237   45.8918 C   0  0  2  0  0  0  0  0  0  0  0  0
   33.1879   29.0900   46.5557 C   0  0  2  0  0  0  0  0  0  0  0  0
   32.9336   28.0196   45.5227 C   0  0  0  0  0  0  0  0  0  0  0  0
   33.1948   28.7014   44.3346 O   0  0  0  0  0  0  0  0  0  0  0  0
   32.3826   29.8310   44.4766 C   0  0  0  0  0  0  0  0  0  0  0  0
   33.5271   31.3221   45.9781 O   0  0  0  0  0  0  0  0  0  0  0  0
   32.8621   26.5560   49.4859 H   0  0  0  0  0  0  0  0  0  0  0  0
   34.2045   31.7793   47.4467 H   0  0  0  0  0  0  0  0  0  0  0  0
   34.7554   30.4871   48.1665 H   0  0  0  0  0  0  0  0  0  0  0  0
   36.5727   30.9507   52.2338 H   0  0  0  0  0  0  0  0  0  0  0  0
   38.9503   31.0563   51.5115 H   0  0  0  0  0  0  0  0  0  0  0  0
   39.5557   30.0387   49.4175 H   0  0  0  0  0  0  0  0  0  0  0  0
   31.6490   30.5342   46.4119 H   0  0  0  0  0  0  0  0  0  0  0  0
   34.2624   29.1307   46.7360 H   0  0  0  0  0  0  0  0  0  0  0  0
   33.6570   27.1976   45.5695 H   0  0  0  0  0  0  0  0  0  0  0  0
   31.8827   27.6794   45.5373 H   0  0  0  0  0  0  0  0  0  0  0  0
   31.3345   29.4640   44.3993 H   0  0  0  0  0  0  0  0  0  0  0  0
   32.6786   30.5447   43.7014 H   0  0  0  0  0  0  0  0  0  0  0  0
   32.9166   31.9584   48.9500 O   0  0  0  0  0  0  0  0  0  0  0  0
   33.8457   32.4007   48.0276 C   0  0  1  0  0  0  0  0  0  0  0  0
   33.1977   32.4573   46.6635 C   0  0  1  0  0  0  0  0  0  0  0  0
   33.6097   33.7406   46.0181 C   0  0  1  0  0  0  0  0  0  0  0  0
   33.3428   33.8463   44.9518 H   0  0  0  0  0  0  0  0  0  0  0  0
   34.9793   33.9877   46.0915 O   0  0  0  0  0  0  0  0  0  0  0  0
   35.4192   34.1568   47.3820 C   0  0  2  0  0  0  0  0  0  0  0  0
   35.6597   35.2462   47.4934 H   0  0  0  0  0  0  0  0  0  0  0  0
   34.4243   33.7422   48.4148 C   0  0  2  0  0  0  0  0  0  0  0  0
   35.0784   33.5646   49.6432 O   0  0  0  0  0  0  0  0  0  0  0  0
   32.0150   32.3367   48.8062 H   0  0  0  0  0  0  0  0  0  0  0  0
   34.7018   31.6714   48.0332 H   0  0  0  0  0  0  0  0  0  0  0  0
   32.1005   32.4713   46.8191 H   0  0  0  0  0  0  0  0  0  0  0  0
   33.1033   34.5852   46.5288 H   0  0  0  0  0  0  0  0  0  0  0  0
   36.3734   33.5861   47.4893 H   0  0  0  0  0  0  0  0  0  0  0  0
   33.6070   34.4706   48.5001 H   0  0  0  0  0  0  0  0  0  0  0  0
   36.0224   33.4053   49.4510 H   0  0  0  0  0  0  0  0  0  0  0  0
  2  1  1  0
  2  4  1  0
  4  9  1  0
  6  5  2  0
  7  6  1  0
  8  7  2  0
  8  9  1  0
  9 10  2  0
 10  5  1  0
 11  2  1  0
 12 17  1  0
 12 13  1  0
 13 11  1  0
 14 13  1  0
 15 16  1  0
 15 14  1  0
 16 12  1  0
  1 18  1  0
  3 19  1  0
  3 20  1  0
  5 21  1  0
  6 22  1  0
  7 23  1  0
 12 24  1  1
 13 25  1  1
 14 26  1  0
 14 27  1  0
 16 28  1  0
 16 29  1  0
 30 31  1  0
 31 32  1  0
 32 33  1  0
 33 34  1  6
 33 35  1  0
 35 36  1  0
 36 37  1  1
 36 38  1  0
 38 39  1  0
 38 31  1  0
 30 40  1  0
 31 41  1  6
 32 42  1  1
 33 43  1  0
 36 44  1  0
 38 45  1  1
 39 46  1  0
 17 32  1  0
M  ISO  8  18   3  19   3  20   3  21  14  22  14  23  14  24  13  25  13
M  ISO  6  26  13  27  13  28  13  29  13  34   8  37   8
M  END
>  <DihAtoms>  (1) 
11,16,31,30

>  <DihDeg>  (1) 
116.53896488832353

$$$$
