
     RDKit          3D

 36 38  0  0  0  0  0  0  0  0999 V2000
   37.0075   31.3918   48.5677 N   0  0  0  0  0  0  0  0  0  0  0  0
   37.1847   32.1542   49.6528 C   0  0  0  0  0  0  0  0  0  0  0  0
   38.1511   33.1603   49.6736 C   0  0  0  0  0  0  0  0  0  0  0  0
   38.8611   33.2602   48.4922 C   0  0  0  0  0  0  0  0  0  0  0  0
   39.7569   34.1685   48.4642 O   0  0  0  0  0  0  0  0  0  0  0  0
   38.7154   32.5208   47.3891 N   0  0  0  0  0  0  0  0  0  0  0  0
   37.7582   31.5715   47.4570 C   0  0  0  0  0  0  0  0  0  0  0  0
   37.6058   30.8607   46.4185 O   0  0  0  0  0  0  0  0  0  0  0  0
   36.2022   29.2472   49.3496 C   0  0  0  0  0  0  0  0  0  0  0  0
   36.0350   30.3673   48.5160 C   0  0  0  0  0  0  0  0  0  0  0  0
   34.9038   30.3943   47.6881 C   0  0  0  0  0  0  0  0  0  0  0  0
   34.0406   29.3474   47.7378 N   0  0  0  0  0  0  0  0  0  0  0  0
   34.2344   28.2835   48.5557 C   0  0  0  0  0  0  0  0  0  0  0  0
   35.3194   28.2252   49.3696 N   0  0  0  0  0  0  0  0  0  0  0  0
   36.5925   32.0337   50.5495 H   0  0  0  0  0  0  0  0  0  0  0  0
   38.3429   33.8082   50.5169 H   0  0  0  0  0  0  0  0  0  0  0  0
   39.3143   32.6899   46.5515 H   0  0  0  0  0  0  0  0  0  0  0  0
   34.7714   31.2515   47.0463 H   0  0  0  0  0  0  0  0  0  0  0  0
   33.4343   27.5589   48.4456 H   0  0  0  0  0  0  0  0  0  0  0  0
   38.2712   30.6386   48.8984 O   0  0  0  0  0  0  0  0  0  0  0  0
   38.5843   29.7576   49.9315 C   0  0  2  0  0  0  0  0  0  0  0  0
   37.3285   29.0278   50.2912 C   0  0  1  0  0  0  0  0  0  0  0  0
   36.9710   29.4148   51.7081 C   0  0  1  0  0  0  0  0  0  0  0  0
   35.9804   28.9721   51.9363 H   0  0  0  0  0  0  0  0  0  0  0  0
   36.8899   30.7683   51.9242 O   0  0  0  0  0  0  0  0  0  0  0  0
   38.0388   31.4635   51.6434 C   0  0  1  0  0  0  0  0  0  0  0  0
   37.8545   32.3330   50.9730 H   0  0  0  0  0  0  0  0  0  0  0  0
   39.1183   30.5818   51.0965 C   0  0  2  0  0  0  0  0  0  0  0  0
   40.1335   31.4048   50.6146 O   0  0  0  0  0  0  0  0  0  0  0  0
   39.0669   30.9321   48.3911 H   0  0  0  0  0  0  0  0  0  0  0  0
   39.3848   29.0753   49.6157 H   0  0  0  0  0  0  0  0  0  0  0  0
   37.5508   27.9293   50.3376 H   0  0  0  0  0  0  0  0  0  0  0  0
   37.7061   28.9057   52.3651 H   0  0  0  0  0  0  0  0  0  0  0  0
   38.4379   31.8925   52.6019 H   0  0  0  0  0  0  0  0  0  0  0  0
   39.4963   29.9044   51.8881 H   0  0  0  0  0  0  0  0  0  0  0  0
   40.3324   32.1558   51.2357 H   0  0  0  0  0  0  0  0  0  0  0  0
  1  2  1  0
  2  3  2  0
  4  3  1  0
  5  4  2  0
  6  7  1  0
  6  4  1  0
  7  1  1  0
  8  7  2  0
  9 14  1  0
 10  1  1  0
 10  9  2  0
 11 12  2  0
 11 10  1  0
 12 13  1  0
 13 14  2  0
  2 15  1  0
  3 16  1  0
  6 17  1  0
 11 18  1  0
 13 19  1  0
 20 21  1  0
 21 22  1  0
 22 23  1  0
 23 24  1  1
 23 25  1  0
 25 26  1  0
 26 27  1  6
 26 28  1  0
 28 29  1  0
 28 21  1  0
 20 30  1  0
 21 31  1  6
 22 32  1  1
 23 33  1  0
 26 34  1  0
 28 35  1  1
 29 36  1  0
  9 22  1  0
M  ISO  7  15  14  16  14  17   9  18  14  19  14  24   8  27   8
M  END
>  <DihAtoms>  (1) 
13,8,21,20

>  <DihDeg>  (1) 
-84.81685763164037

$$$$
