
     RDKit          3D

 47 50  0  0  0  0  0  0  0  0999 V2000
   35.4999   28.9169   49.1464 C   0  0  0  0  0  0  0  0  0  0  0  0
   35.4339   30.0945   48.4012 C   0  0  0  0  0  0  0  0  0  0  0  0
   34.3265   30.2550   47.5470 C   0  0  0  0  0  0  0  0  0  0  0  0
   33.4020   29.2613   47.5039 N   0  0  0  0  0  0  0  0  0  0  0  0
   33.4935   28.1461   48.2291 C   0  0  0  0  0  0  0  0  0  0  0  0
   34.5565   27.9637   49.0663 N   0  0  0  0  0  0  0  0  0  0  0  0
   36.4666   31.0479   48.5412 N   0  0  0  0  0  0  0  0  0  0  0  0
   36.6387   31.7508   49.6562 C   0  0  0  0  0  0  0  0  0  0  0  0
   37.6734   32.6800   49.7335 C   0  0  0  0  0  0  0  0  0  0  0  0
   38.4494   32.7873   48.6065 C   0  0  0  0  0  0  0  0  0  0  0  0
   39.3865   33.6278   48.6698 O   0  0  0  0  0  0  0  0  0  0  0  0
   38.3061   32.1030   47.4800 N   0  0  0  0  0  0  0  0  0  0  0  0
   37.2830   31.2058   47.4469 C   0  0  0  0  0  0  0  0  0  0  0  0
   37.1343   30.5422   46.3713 O   0  0  0  0  0  0  0  0  0  0  0  0
   32.5333   27.1303   48.1732 O   0  0  0  0  0  0  0  0  0  0  0  0
   31.2121   27.5584   48.2728 C   0  0  0  0  0  0  0  0  0  0  0  0
   30.7677   27.7287   49.5683 C   0  0  0  0  0  0  0  0  0  0  0  0
   29.4801   28.1514   49.8266 C   0  0  0  0  0  0  0  0  0  0  0  0
   28.6236   28.4082   48.7666 C   0  0  0  0  0  0  0  0  0  0  0  0
   29.0799   28.2341   47.4840 C   0  0  0  0  0  0  0  0  0  0  0  0
   30.3520   27.8156   47.2342 C   0  0  0  0  0  0  0  0  0  0  0  0
   36.3269   28.7043   49.8397 H   0  0  0  0  0  0  0  0  0  0  0  0
   34.2714   31.1573   46.9730 H   0  0  0  0  0  0  0  0  0  0  0  0
   35.9993   31.6269   50.5135 H   0  0  0  0  0  0  0  0  0  0  0  0
   37.8187   33.2548   50.6375 H   0  0  0  0  0  0  0  0  0  0  0  0
   38.9266   32.2288   46.6603 H   0  0  0  0  0  0  0  0  0  0  0  0
   31.4011   27.5410   50.4421 H   0  0  0  0  0  0  0  0  0  0  0  0
   29.1539   28.2776   50.8574 H   0  0  0  0  0  0  0  0  0  0  0  0
   27.6290   28.7361   49.0055 H   0  0  0  0  0  0  0  0  0  0  0  0
   28.3679   28.4496   46.7000 H   0  0  0  0  0  0  0  0  0  0  0  0
   28.8985   27.9551   44.5260 O   0  0  0  0  0  0  0  0  0  0  0  0
   29.7536   26.9534   44.9833 C   0  0  2  0  0  0  0  0  0  0  0  0
   30.7968   27.6199   45.8593 C   0  0  1  0  0  0  0  0  0  0  0  0
   31.2599   28.8556   45.1352 C   0  0  2  0  0  0  0  0  0  0  0  0
   32.3208   29.0622   45.4231 H   0  0  0  0  0  0  0  0  0  0  0  0
   31.3161   28.5659   43.7693 O   0  0  0  0  0  0  0  0  0  0  0  0
   31.6650   27.2734   43.4835 C   0  0  1  0  0  0  0  0  0  0  0  0
   31.8987   27.2562   42.3855 H   0  0  0  0  0  0  0  0  0  0  0  0
   30.4945   26.3457   43.8100 C   0  0  2  0  0  0  0  0  0  0  0  0
   29.6738   26.1242   42.7322 O   0  0  0  0  0  0  0  0  0  0  0  0
   27.9776   27.5900   44.4512 H   0  0  0  0  0  0  0  0  0  0  0  0
   29.1820   26.1706   45.4849 H   0  0  0  0  0  0  0  0  0  0  0  0
   31.6583   26.9235   45.8501 H   0  0  0  0  0  0  0  0  0  0  0  0
   30.6071   29.7229   45.2085 H   0  0  0  0  0  0  0  0  0  0  0  0
   32.5839   27.0121   44.0319 H   0  0  0  0  0  0  0  0  0  0  0  0
   30.9878   25.3902   44.1495 H   0  0  0  0  0  0  0  0  0  0  0  0
   29.7244   25.1653   42.4903 H   0  0  0  0  0  0  0  0  0  0  0  0
  2  7  1  0
  2  1  2  0
  3  2  1  0
  4  3  2  0
  4  5  1  0
  5  6  2  0
  6  1  1  0
  7  8  1  0
  8  9  2  0
 10 11  2  0
 10  9  1  0
 12 10  1  0
 13 12  1  0
 13  7  1  0
 14 13  2  0
 15  5  1  0
 15 16  1  0
 16 17  2  0
 17 18  1  0
 19 18  2  0
 20 19  1  0
 21 20  2  0
 21 16  1  0
  1 22  1  0
  3 23  1  0
  8 24  1  0
  9 25  1  0
 12 26  1  0
 17 27  1  0
 18 28  1  0
 19 29  1  0
 20 30  1  0
 31 32  1  0
 32 33  1  0
 33 34  1  0
 34 35  1  1
 34 36  1  0
 36 37  1  0
 37 38  1  6
 37 39  1  0
 39 40  1  0
 39 32  1  0
 31 41  1  0
 32 42  1  1
 33 43  1  1
 34 44  1  0
 37 45  1  0
 39 46  1  1
 40 47  1  0
 21 33  1  0
M  ISO  8  22  14  23  14  24  14  25  14  26   9  27  14  28  14  29  14
M  ISO  3  30  14  35   8  38   8
M  END
>  <DihAtoms>  (1) 
19,20,32,31

>  <DihDeg>  (1) 
-86.36253159791796

$$$$
