
     RDKit          3D

 53 57  0  0  0  0  0  0  0  0999 V2000
   36.2285   30.1926   46.8577 C   0  0  0  0  0  0  0  0  0  0  0  0
   37.0787   30.7452   47.8050 C   0  0  0  0  0  0  0  0  0  0  0  0
   38.0742   31.6592   47.4341 C   0  0  0  0  0  0  0  0  0  0  0  0
   38.1555   31.9726   46.0812 C   0  0  0  0  0  0  0  0  0  0  0  0
   39.0341   32.8320   45.4792 N   0  0  0  0  0  0  0  0  0  0  0  0
   38.7302   32.8115   44.1712 C   0  0  0  0  0  0  0  0  0  0  0  0
   37.7215   31.9908   43.9502 N   0  0  0  0  0  0  0  0  0  0  0  0
   37.3249   31.4409   45.1105 C   0  0  0  0  0  0  0  0  0  0  0  0
   36.3415   30.5311   45.5139 C   0  0  0  0  0  0  0  0  0  0  0  0
   37.4918   30.1628   51.4922 C   0  0  0  0  0  0  0  0  0  0  0  0
   37.8082   30.6042   50.2129 C   0  0  0  0  0  0  0  0  0  0  0  0
   36.9200   30.3623   49.1931 C   0  0  0  0  0  0  0  0  0  0  0  0
   35.7587   29.6885   49.5130 N   0  0  0  0  0  0  0  0  0  0  0  0
   35.4625   29.2652   50.7573 C   0  0  0  0  0  0  0  0  0  0  0  0
   36.3212   29.5023   51.7282 N   0  0  0  0  0  0  0  0  0  0  0  0
   39.4280   33.5784   43.2375 O   0  0  0  0  0  0  0  0  0  0  0  0
   39.5819   31.8679   41.7191 N   0  0  0  0  0  0  0  0  0  0  0  0
   39.2059   33.2417   41.8722 C   0  0  1  0  0  0  0  0  0  0  0  0
   37.8113   33.4506   41.5110 C   0  0  0  0  0  0  0  0  0  0  0  0
   37.6483   33.1329   40.1533 O   0  0  0  0  0  0  0  0  0  0  0  0
   38.0778   31.8854   39.7915 C   0  0  0  0  0  0  0  0  0  0  0  0
   39.4203   31.5187   40.3256 C   0  0  1  0  0  0  0  0  0  0  0  0
   35.4510   29.4875   47.0979 H   0  0  0  0  0  0  0  0  0  0  0  0
   38.7470   32.1014   48.1560 H   0  0  0  0  0  0  0  0  0  0  0  0
   39.7920   33.3882   45.9749 H   0  0  0  0  0  0  0  0  0  0  0  0
   35.6942   30.1160   44.7610 H   0  0  0  0  0  0  0  0  0  0  0  0
   38.2289   30.3804   52.2609 H   0  0  0  0  0  0  0  0  0  0  0  0
   38.7151   31.1327   49.9528 H   0  0  0  0  0  0  0  0  0  0  0  0
   34.5280   28.7458   50.9089 H   0  0  0  0  0  0  0  0  0  0  0  0
   39.2011   31.1632   42.3054 H   0  0  0  0  0  0  0  0  0  0  0  0
   39.8563   33.8608   41.2327 H   0  0  0  0  0  0  0  0  0  0  0  0
   37.6365   34.5704   41.5286 H   0  0  0  0  0  0  0  0  0  0  0  0
   36.9760   33.0122   41.9838 H   0  0  0  0  0  0  0  0  0  0  0  0
   38.0008   31.7974   38.7156 H   0  0  0  0  0  0  0  0  0  0  0  0
   37.3388   31.1606   40.2470 H   0  0  0  0  0  0  0  0  0  0  0  0
   39.4558   30.3881   40.2942 H   0  0  0  0  0  0  0  0  0  0  0  0
   40.6543   33.8656   40.9587 O   0  0  0  0  0  0  0  0  0  0  0  0
   41.4145   32.9413   40.2874 C   0  0  2  0  0  0  0  0  0  0  0  0
   40.5915   31.9497   39.4980 C   0  0  1  0  0  0  0  0  0  0  0  0
   41.4680   30.8145   39.1101 C   0  0  2  0  0  0  0  0  0  0  0  0
   42.3064   31.2598   38.4956 H   0  0  0  0  0  0  0  0  0  0  0  0
   42.1128   30.2143   40.1884 O   0  0  0  0  0  0  0  0  0  0  0  0
   43.0734   31.1661   40.6032 C   0  0  2  0  0  0  0  0  0  0  0  0
   43.5140   31.6055   39.6816 H   0  0  0  0  0  0  0  0  0  0  0  0
   42.3060   32.2553   41.3004 C   0  0  1  0  0  0  0  0  0  0  0  0
   43.1496   33.2399   41.8151 O   0  0  0  0  0  0  0  0  0  0  0  0
   41.1159   34.2624   41.7139 H   0  0  0  0  0  0  0  0  0  0  0  0
   42.0839   33.4602   39.5705 H   0  0  0  0  0  0  0  0  0  0  0  0
   40.2243   32.4217   38.5652 H   0  0  0  0  0  0  0  0  0  0  0  0
   41.0415   30.0374   38.4852 H   0  0  0  0  0  0  0  0  0  0  0  0
   43.8325   30.7038   41.2556 H   0  0  0  0  0  0  0  0  0  0  0  0
   41.7579   31.8086   42.1427 H   0  0  0  0  0  0  0  0  0  0  0  0
   43.2166   34.0372   41.2263 H   0  0  0  0  0  0  0  0  0  0  0  0
  1  2  2  0
  2 12  1  0
  3  2  1  0
  4  3  2  0
  5  4  1  0
  6  5  1  0
  7  6  2  0
  7  8  1  0
  8  9  2  0
  8  4  1  0
  9  1  1  0
 10 15  2  0
 11 10  1  0
 12 13  1  0
 12 11  2  0
 13 14  2  0
 14 15  1  0
 16  6  1  0
 17 18  1  0
 18 16  1  0
 19 18  1  0
 20 19  1  0
 21 20  1  0
 21 22  1  0
 22 17  1  0
  1 23  1  0
  3 24  1  0
  5 25  1  0
  9 26  1  0
 10 27  1  0
 11 28  1  0
 14 29  1  0
 17 30  1  0
 18 31  1  6
 19 32  1  0
 19 33  1  0
 21 34  1  0
 21 35  1  0
 22 36  1  1
 37 38  1  0
 38 39  1  0
 39 40  1  0
 40 41  1  6
 40 42  1  0
 42 43  1  0
 43 44  1  6
 43 45  1  0
 45 46  1  0
 45 38  1  0
 37 47  1  0
 38 48  1  6
 39 49  1  6
 40 50  1  0
 43 51  1  0
 45 52  1  1
 46 53  1  0
 22 39  1  0
M  ISO  8  23  14  24  14  25   9  26  14  27  14  28  14  29  14  30   5
M  ISO  8  31  13  32  13  33  13  34  13  35  13  36  13  41   8  44   8
M  END
>  <DihAtoms>  (1) 
20,21,38,37

>  <DihDeg>  (1) 
-168.9133710837721

$$$$
