
     RDKit          3D

 56 60  0  0  1  0  0  0  0  0999 V2000
   39.2800   28.8940   43.1470 C   0  0  0  0  0  0  0  0  0  0  0  0
   40.3130   29.7890   42.9300 C   0  0  0  0  0  0  0  0  0  0  0  0
   41.1540   29.6140   41.8400 C   0  0  0  0  0  0  0  0  0  0  0  0
   40.9850   28.5740   40.9690 C   0  0  0  0  0  0  0  0  0  0  0  0
   41.6420   28.1840   39.8570 N   0  0  0  0  0  0  0  0  0  0  0  0
   41.0320   27.0770   39.3990 C   0  0  0  0  0  0  0  0  0  0  0  0
   39.9550   26.7030   40.1920 C   0  0  0  0  0  0  0  0  0  0  0  0
   39.9560   27.6760   41.1780 C   0  0  0  0  0  0  0  0  0  0  0  0
   39.1100   27.8430   42.2660 C   0  0  0  0  0  0  0  0  0  0  0  0
   38.3600   25.7310   43.3650 C   0  0  1  0  0  0  0  0  0  0  0  0
   38.0120   26.8510   42.4550 C   0  0  2  0  0  0  0  0  0  0  0  0
   37.4590   26.3420   41.1450 C   0  0  0  0  0  0  0  0  0  0  0  0
   37.7800   25.0350   40.8560 O   0  0  0  0  0  0  0  0  0  0  0  0
   37.3610   24.1190   41.7940 C   0  0  0  0  0  0  0  0  0  0  0  0
   37.2710   24.6830   43.1890 C   0  0  2  0  0  0  0  0  0  0  0  0
   39.5620   25.1140   43.1240 O   0  0  0  0  0  0  0  0  0  0  0  0
   36.0470   25.3450   43.2970 O   0  0  0  0  0  0  0  0  0  0  0  0
   40.4840   30.9220   43.9000 C   0  0  0  0  0  0  0  0  0  0  0  0
   39.6030   30.6170   45.1080 C   0  0  0  0  0  0  0  0  0  0  0  0
   38.7090   32.1380   46.9140 C   0  0  1  0  0  0  0  0  0  0  0  0
   39.8110   32.9420   46.2640 C   0  0  0  0  0  0  0  0  0  0  0  0
   39.8650   31.4680   46.2960 C   0  0  2  0  0  0  0  0  0  0  0  0
   38.5950   32.3010   48.3990 C   0  0  0  0  0  0  0  0  0  0  0  0
   37.3430   29.8590   50.9500 C   0  0  0  0  0  0  0  0  0  0  0  0
   38.0580   30.9330   50.3340 C   0  0  0  0  0  0  0  0  0  0  0  0
   37.8370   31.1820   49.0060 C   0  0  0  0  0  0  0  0  0  0  0  0
   36.9660   30.4080   48.3560 N   0  0  0  0  0  0  0  0  0  0  0  0
   36.2960   29.4020   48.9300 C   0  0  0  0  0  0  0  0  0  0  0  0
   36.4980   29.1450   50.2290 N   0  0  0  0  0  0  0  0  0  0  0  0
   38.6051   29.0172   44.0069 H   0  0  0  0  0  0  0  0  0  0  0  0
   41.9744   30.3276   41.6733 H   0  0  0  0  0  0  0  0  0  0  0  0
   42.4596   28.6485   39.4367 H   0  0  0  0  0  0  0  0  0  0  0  0
   41.3496   26.5300   38.4990 H   0  0  0  0  0  0  0  0  0  0  0  0
   39.2728   25.8490   40.0683 H   0  0  0  0  0  0  0  0  0  0  0  0
   38.4430   26.1596   44.3747 H   0  0  0  0  0  0  0  0  0  0  0  0
   37.2131   27.4149   42.9588 H   0  0  0  0  0  0  0  0  0  0  0  0
   36.3628   26.4263   41.1796 H   0  0  0  0  0  0  0  0  0  0  0  0
   37.9147   26.9567   40.3547 H   0  0  0  0  0  0  0  0  0  0  0  0
   36.3658   23.7525   41.5020 H   0  0  0  0  0  0  0  0  0  0  0  0
   38.1117   23.3154   41.8184 H   0  0  0  0  0  0  0  0  0  0  0  0
   37.3743   23.8804   43.9341 H   0  0  0  0  0  0  0  0  0  0  0  0
   39.9968   24.8908   43.9849 H   0  0  0  0  0  0  0  0  0  0  0  0
   35.8211   25.4672   44.2531 H   0  0  0  0  0  0  0  0  0  0  0  0
   41.5366   30.9971   44.2103 H   0  0  0  0  0  0  0  0  0  0  0  0
   40.1973   31.8785   43.4385 H   0  0  0  0  0  0  0  0  0  0  0  0
   38.5532   30.7569   44.8108 H   0  0  0  0  0  0  0  0  0  0  0  0
   39.8331   29.5841   45.4082 H   0  0  0  0  0  0  0  0  0  0  0  0
   37.6232   31.9978   46.8074 H   0  0  0  0  0  0  0  0  0  0  0  0
   40.5018   33.5338   46.8825 H   0  0  0  0  0  0  0  0  0  0  0  0
   39.8611   33.7108   45.4789 H   0  0  0  0  0  0  0  0  0  0  0  0
   40.6546   30.7712   46.6140 H   0  0  0  0  0  0  0  0  0  0  0  0
   39.6045   32.3284   48.8352 H   0  0  0  0  0  0  0  0  0  0  0  0
   38.0567   33.2378   48.6055 H   0  0  0  0  0  0  0  0  0  0  0  0
   37.4954   29.6295   52.0149 H   0  0  0  0  0  0  0  0  0  0  0  0
   38.7673   31.5435   50.9121 H   0  0  0  0  0  0  0  0  0  0  0  0
   35.5900   28.7952   48.3440 H   0  0  0  0  0  0  0  0  0  0  0  0
  2  1  2  0
  2 18  1  0
  3  2  1  0
  4  8  1  0
  4  3  2  0
  5  4  1  0
  6  5  1  0
  6  7  2  0
  7  8  1  0
  8  9  2  0
  9  1  1  0
 10 16  1  0
 11  9  1  0
 11 10  1  0
 12 11  1  0
 13 12  1  0
 13 14  1  0
 14 15  1  0
 15 17  1  0
 15 10  1  0
 18 19  1  0
 19 22  1  0
 20 23  1  0
 21 22  1  0
 21 20  1  0
 22 20  1  0
 23 26  1  0
 25 24  2  0
 26 25  1  0
 27 28  1  0
 27 26  2  0
 28 29  2  0
 29 24  1  0
  1 30  1  0
  3 31  1  0
  5 32  1  0
  6 33  1  0
  7 34  1  0
 10 35  1  1
 11 36  1  1
 12 37  1  0
 12 38  1  0
 14 39  1  0
 14 40  1  0
 15 41  1  1
 16 42  1  0
 17 43  1  0
 18 44  1  0
 18 45  1  0
 19 46  1  0
 19 47  1  0
 20 48  1  6
 21 49  1  0
 21 50  1  0
 22 51  1  1
 23 52  1  0
 23 53  1  0
 24 54  1  0
 25 55  1  0
 28 56  1  0
M  ISO  8  30  14  31  14  32   9  33  14  34  14  35  13  36  13  37  13
M  ISO  8  38  13  39  13  40  13  41  13  42   3  43   3  44   8  45   8
M  ISO  8  46   8  47   8  48  13  49  13  50  13  51  13  52   8  53   8
M  ISO  3  54  14  55  14  56  14
M  END
>  <minimizedAffinity>  (1) 
-6.10663509

>  <minimizedRMSD>  (1) 
0.399518073

$$$$
