
     RDKit          3D

 47 50  0  0  0  0  0  0  0  0999 V2000
   34.3283   30.4539   47.6050 F   0  0  0  0  0  0  0  0  0  0  0  0
   34.7468   29.9840   46.3854 C   0  0  0  0  0  0  0  0  0  0  0  0
   33.8814   29.3594   45.5005 C   0  0  0  0  0  0  0  0  0  0  0  0
   34.3695   28.9307   44.2850 C   0  0  0  0  0  0  0  0  0  0  0  0
   35.7136   29.1219   43.9484 C   0  0  0  0  0  0  0  0  0  0  0  0
   36.5211   29.7501   44.8754 C   0  0  0  0  0  0  0  0  0  0  0  0
   36.0897   30.1840   46.0724 C   0  0  0  0  0  0  0  0  0  0  0  0
   37.9724   32.4300   44.9688 Br  0  0  0  0  0  0  0  0  0  0  0  0
   37.8818   31.8450   46.7798 C   0  0  0  0  0  0  0  0  0  0  0  0
   36.9942   30.8238   47.0073 C   0  0  0  0  0  0  0  0  0  0  0  0
   36.9013   30.3126   48.3150 C   0  0  0  0  0  0  0  0  0  0  0  0
   37.6672   30.8187   49.3161 C   0  0  0  0  0  0  0  0  0  0  0  0
   38.5415   31.8480   49.0268 C   0  0  0  0  0  0  0  0  0  0  0  0
   38.6616   32.3821   47.7379 C   0  0  0  0  0  0  0  0  0  0  0  0
   39.4904   33.3935   47.3640 O   0  0  0  0  0  0  0  0  0  0  0  0
   32.2559   28.2032   46.8466 C   0  0  0  0  0  0  0  0  0  0  0  0
   32.5289   29.2256   45.9654 C   0  0  0  0  0  0  0  0  0  0  0  0
   31.4798   30.0718   45.5952 C   0  0  0  0  0  0  0  0  0  0  0  0
   30.2402   29.8620   46.1111 N   0  0  0  0  0  0  0  0  0  0  0  0
   30.0171   28.8643   46.9601 C   0  0  0  0  0  0  0  0  0  0  0  0
   30.9922   28.0473   47.3268 N   0  0  0  0  0  0  0  0  0  0  0  0
   33.6641   28.4560   43.6396 H   0  0  0  0  0  0  0  0  0  0  0  0
   36.0599   28.7769   42.9947 H   0  0  0  0  0  0  0  0  0  0  0  0
   37.5438   29.8597   44.5407 H   0  0  0  0  0  0  0  0  0  0  0  0
   36.2296   29.5082   48.5824 H   0  0  0  0  0  0  0  0  0  0  0  0
   37.6309   30.4582   50.3358 H   0  0  0  0  0  0  0  0  0  0  0  0
   39.1707   32.2829   49.7919 H   0  0  0  0  0  0  0  0  0  0  0  0
   40.3404   33.6769   47.8323 H   0  0  0  0  0  0  0  0  0  0  0  0
   32.9984   27.4858   47.2006 H   0  0  0  0  0  0  0  0  0  0  0  0
   31.7170   30.8586   44.9081 H   0  0  0  0  0  0  0  0  0  0  0  0
   28.7694   26.5451   46.4280 O   0  0  0  0  0  0  0  0  0  0  0  0
   28.2882   27.1531   47.5604 C   0  0  1  0  0  0  0  0  0  0  0  0
   28.6685   28.6186   47.5363 C   0  0  1  0  0  0  0  0  0  0  0  0
   28.5739   29.0996   48.9673 C   0  0  1  0  0  0  0  0  0  0  0  0
   29.4748   28.8606   49.5687 H   0  0  0  0  0  0  0  0  0  0  0  0
   27.4525   28.5073   49.5124 O   0  0  0  0  0  0  0  0  0  0  0  0
   26.4308   28.2743   48.6071 C   0  0  1  0  0  0  0  0  0  0  0  0
   25.5657   27.9094   49.2055 H   0  0  0  0  0  0  0  0  0  0  0  0
   26.7591   27.1099   47.6637 C   0  0  1  0  0  0  0  0  0  0  0  0
   26.2971   27.3574   46.3696 O   0  0  0  0  0  0  0  0  0  0  0  0
   29.6512   26.0919   46.5968 H   0  0  0  0  0  0  0  0  0  0  0  0
   28.7229   26.6599   48.4779 H   0  0  0  0  0  0  0  0  0  0  0  0
   27.8587   29.1619   46.9906 H   0  0  0  0  0  0  0  0  0  0  0  0
   28.4346   30.2182   48.8990 H   0  0  0  0  0  0  0  0  0  0  0  0
   26.0851   29.1526   48.0547 H   0  0  0  0  0  0  0  0  0  0  0  0
   26.4334   26.1403   48.0687 H   0  0  0  0  0  0  0  0  0  0  0  0
   26.9914   27.1697   45.6790 H   0  0  0  0  0  0  0  0  0  0  0  0
  2  1  1  0
  3 17  1  0
  3  2  2  0
  4  3  1  0
  5  4  2  0
  5  6  1  0
  6  7  2  0
  7  2  1  0
  7 10  1  0
  8  9  1  0
  9 10  2  0
  9 14  1  0
 10 11  1  0
 11 12  2  0
 13 12  1  0
 14 13  2  0
 15 14  1  0
 16 21  2  0
 17 16  1  0
 18 17  2  0
 18 19  1  0
 19 20  2  0
 20 21  1  0
  4 22  1  0
  5 23  1  0
  6 24  1  0
 11 25  1  0
 12 26  1  0
 13 27  1  0
 15 28  1  0
 16 29  1  0
 18 30  1  0
 31 32  1  0
 32 33  1  0
 33 34  1  0
 34 35  1  1
 34 36  1  0
 36 37  1  0
 37 38  1  1
 37 39  1  0
 39 40  1  0
 39 32  1  0
 31 41  1  0
 32 42  1  1
 33 43  1  6
 34 44  1  0
 37 45  1  0
 39 46  1  1
 40 47  1  0
 20 33  1  0
M  ISO  8  22  14  23  14  24  14  25  14  26  14  27  14  28   3  29  14
M  ISO  3  30  14  35   8  38   8
M  END
>  <DihAtoms>  (1) 
18,19,32,31

>  <DihDeg>  (1) 
-57.99915323627896

$$$$
