
     RDKit          3D

 46 47  0  0  0  0  0  0  0  0999 V2000
   33.2846   27.2349   50.0675 O   0  0  0  0  0  0  0  0  0  0  0  0
   33.6418   28.6155   49.0923 P   0  0  0  0  0  0  0  0  0  0  0  0
   34.2204   30.8011   47.3857 O   0  0  0  0  0  0  0  0  0  0  0  0
   35.3218   28.7186   48.6339 O   0  0  0  0  0  0  0  0  0  0  0  0
   36.8576   30.4913   51.2841 C   0  0  0  0  0  0  0  0  0  0  0  0
   38.1964   30.5678   50.9085 C   0  0  0  0  0  0  0  0  0  0  0  0
   38.4966   29.9693   49.6985 C   0  0  0  0  0  0  0  0  0  0  0  0
   37.6049   29.3467   48.9033 N   0  0  0  0  0  0  0  0  0  0  0  0
   36.3168   29.3221   49.3543 C   0  0  0  0  0  0  0  0  0  0  0  0
   35.9339   29.8784   50.5190 N   0  0  0  0  0  0  0  0  0  0  0  0
   32.5693   28.8183   47.7655 O   0  0  0  0  0  0  0  0  0  0  0  0
   32.6109   30.3237   45.8918 C   0  0  2  0  0  0  0  0  0  0  0  0
   33.1879   29.0900   46.5557 C   0  0  2  0  0  0  0  0  0  0  0  0
   32.9336   28.0196   45.5227 C   0  0  0  0  0  0  0  0  0  0  0  0
   33.1948   28.7014   44.3346 O   0  0  0  0  0  0  0  0  0  0  0  0
   32.3826   29.8310   44.4766 C   0  0  0  0  0  0  0  0  0  0  0  0
   33.5271   31.3221   45.9781 O   0  0  0  0  0  0  0  0  0  0  0  0
   32.8621   26.5560   49.4859 H   0  0  0  0  0  0  0  0  0  0  0  0
   34.2045   31.7793   47.4467 H   0  0  0  0  0  0  0  0  0  0  0  0
   34.7554   30.4871   48.1665 H   0  0  0  0  0  0  0  0  0  0  0  0
   36.5727   30.9507   52.2338 H   0  0  0  0  0  0  0  0  0  0  0  0
   38.9503   31.0563   51.5115 H   0  0  0  0  0  0  0  0  0  0  0  0
   39.5557   30.0387   49.4175 H   0  0  0  0  0  0  0  0  0  0  0  0
   31.6490   30.5342   46.4119 H   0  0  0  0  0  0  0  0  0  0  0  0
   34.2624   29.1307   46.7360 H   0  0  0  0  0  0  0  0  0  0  0  0
   33.6570   27.1976   45.5695 H   0  0  0  0  0  0  0  0  0  0  0  0
   31.8827   27.6794   45.5373 H   0  0  0  0  0  0  0  0  0  0  0  0
   31.3345   29.4640   44.3993 H   0  0  0  0  0  0  0  0  0  0  0  0
   32.6786   30.5447   43.7014 H   0  0  0  0  0  0  0  0  0  0  0  0
   34.5874   34.2351   45.9822 O   0  0  0  0  0  0  0  0  0  0  0  0
   33.3630   33.6419   45.7399 C   0  0  1  0  0  0  0  0  0  0  0  0
   33.1977   32.4573   46.6635 C   0  0  1  0  0  0  0  0  0  0  0  0
   31.8073   32.4981   47.2098 C   0  0  1  0  0  0  0  0  0  0  0  0
   31.4897   31.6041   47.7749 H   0  0  0  0  0  0  0  0  0  0  0  0
   30.8306   32.6968   46.2357 O   0  0  0  0  0  0  0  0  0  0  0  0
   30.9371   33.9202   45.6198 C   0  0  2  0  0  0  0  0  0  0  0  0
   30.0745   34.5349   45.9873 H   0  0  0  0  0  0  0  0  0  0  0  0
   32.2243   34.6229   45.8987 C   0  0  2  0  0  0  0  0  0  0  0  0
   32.4184   35.6310   44.9424 O   0  0  0  0  0  0  0  0  0  0  0  0
   34.8172   34.2751   46.9425 H   0  0  0  0  0  0  0  0  0  0  0  0
   33.3527   33.3141   44.6640 H   0  0  0  0  0  0  0  0  0  0  0  0
   33.9142   32.5871   47.4990 H   0  0  0  0  0  0  0  0  0  0  0  0
   31.7214   33.3401   47.9269 H   0  0  0  0  0  0  0  0  0  0  0  0
   30.7955   33.7581   44.5237 H   0  0  0  0  0  0  0  0  0  0  0  0
   32.2461   35.0310   46.9180 H   0  0  0  0  0  0  0  0  0  0  0  0
   31.8823   35.3984   44.1601 H   0  0  0  0  0  0  0  0  0  0  0  0
  2  1  1  0
  2  4  1  0
  4  9  1  0
  6  5  2  0
  7  6  1  0
  8  7  2  0
  8  9  1  0
  9 10  2  0
 10  5  1  0
 11  2  1  0
 12 17  1  0
 12 13  1  0
 13 11  1  0
 14 13  1  0
 15 16  1  0
 15 14  1  0
 16 12  1  0
  1 18  1  0
  3 19  1  0
  3 20  1  0
  5 21  1  0
  6 22  1  0
  7 23  1  0
 12 24  1  1
 13 25  1  1
 14 26  1  0
 14 27  1  0
 16 28  1  0
 16 29  1  0
 30 31  1  0
 31 32  1  0
 32 33  1  0
 33 34  1  1
 33 35  1  0
 35 36  1  0
 36 37  1  1
 36 38  1  0
 38 39  1  0
 38 31  1  0
 30 40  1  0
 31 41  1  6
 32 42  1  1
 33 43  1  0
 36 44  1  0
 38 45  1  1
 39 46  1  0
 17 32  1  0
M  ISO  8  18   3  19   3  20   3  21  14  22  14  23  14  24  13  25  13
M  ISO  6  26  13  27  13  28  13  29  13  34   8  37   8
M  END
>  <DihAtoms>  (1) 
11,16,31,30

>  <DihDeg>  (1) 
116.53896488832353

$$$$
