
     RDKit          3D

 36 38  0  0  0  0  0  0  0  0999 V2000
   37.7871   30.6727   50.6105 C   0  0  0  0  0  0  0  0  0  0  0  0
   38.4530   31.6110   49.7796 C   0  0  0  0  0  0  0  0  0  0  0  0
   37.9187   31.8758   48.4925 C   0  0  0  0  0  0  0  0  0  0  0  0
   36.7968   31.2029   48.1495 N   0  0  0  0  0  0  0  0  0  0  0  0
   36.1895   30.3174   48.9645 C   0  0  0  0  0  0  0  0  0  0  0  0
   36.6753   30.0490   50.1877 N   0  0  0  0  0  0  0  0  0  0  0  0
   35.0005   29.6071   48.5954 N   0  0  0  0  0  0  0  0  0  0  0  0
   34.7541   29.4168   47.2929 C   0  0  0  0  0  0  0  0  0  0  0  0
   33.5952   28.7273   47.0135 C   0  0  0  0  0  0  0  0  0  0  0  0
   32.7232   28.2500   47.9801 C   0  0  0  0  0  0  0  0  0  0  0  0
   31.6695   27.6228   47.7185 O   0  0  0  0  0  0  0  0  0  0  0  0
   33.0338   28.4781   49.2909 N   0  0  0  0  0  0  0  0  0  0  0  0
   34.1659   29.1513   49.5522 C   0  0  0  0  0  0  0  0  0  0  0  0
   34.4964   29.3877   50.7632 O   0  0  0  0  0  0  0  0  0  0  0  0
   38.2297   30.5016   51.5841 H   0  0  0  0  0  0  0  0  0  0  0  0
   39.3458   32.1314   50.0815 H   0  0  0  0  0  0  0  0  0  0  0  0
   38.3738   32.5694   47.8242 H   0  0  0  0  0  0  0  0  0  0  0  0
   35.4012   29.7693   46.5228 H   0  0  0  0  0  0  0  0  0  0  0  0
   33.3010   28.5189   45.9925 H   0  0  0  0  0  0  0  0  0  0  0  0
   32.8880   25.8021   49.7414 O   0  0  0  0  0  0  0  0  0  0  0  0
   31.8054   26.5375   50.1931 C   0  0  2  0  0  0  0  0  0  0  0  0
   32.1801   28.0144   50.3399 C   0  0  2  0  0  0  0  0  0  0  0  0
   30.8814   28.7605   50.4570 C   0  0  1  0  0  0  0  0  0  0  0  0
   31.0693   29.7983   50.7614 H   0  0  0  0  0  0  0  0  0  0  0  0
   30.0106   28.0622   51.2761 O   0  0  0  0  0  0  0  0  0  0  0  0
   30.6422   27.2750   52.2335 C   0  0  2  0  0  0  0  0  0  0  0  0
   29.8331   26.8392   52.8540 H   0  0  0  0  0  0  0  0  0  0  0  0
   31.3622   26.0850   51.5863 C   0  0  1  0  0  0  0  0  0  0  0  0
   30.5765   24.9552   51.5506 O   0  0  0  0  0  0  0  0  0  0  0  0
   33.6313   25.8494   50.3793 H   0  0  0  0  0  0  0  0  0  0  0  0
   30.9313   26.4008   49.5353 H   0  0  0  0  0  0  0  0  0  0  0  0
   32.6867   28.0935   51.3260 H   0  0  0  0  0  0  0  0  0  0  0  0
   30.4153   28.7634   49.4470 H   0  0  0  0  0  0  0  0  0  0  0  0
   31.3202   27.8288   52.9018 H   0  0  0  0  0  0  0  0  0  0  0  0
   32.2965   25.9169   52.1489 H   0  0  0  0  0  0  0  0  0  0  0  0
   30.8519   24.4071   52.3526 H   0  0  0  0  0  0  0  0  0  0  0  0
  2  1  2  0
  3  2  1  0
  4  3  2  0
  4  5  1  0
  5  6  2  0
  6  1  1  0
  7  5  1  0
  7 13  1  0
  8  7  1  0
  9  8  2  0
  9 10  1  0
 10 12  1  0
 11 10  2  0
 12 13  1  0
 13 14  2  0
  1 15  1  0
  2 16  1  0
  3 17  1  0
  8 18  1  0
  9 19  1  0
 20 21  1  0
 21 22  1  0
 22 23  1  0
 23 24  1  1
 23 25  1  0
 25 26  1  0
 26 27  1  1
 26 28  1  0
 28 29  1  0
 28 21  1  0
 20 30  1  0
 21 31  1  6
 22 32  1  1
 23 33  1  0
 26 34  1  0
 28 35  1  1
 29 36  1  0
 12 22  1  0
M  ISO  7  15  14  16  14  17  14  18  14  19  14  24   8  27   8
M  END
>  <DihAtoms>  (1) 
9,11,21,20

>  <DihDeg>  (1) 
-130.04881872754282

$$$$
