
     RDKit          3D

 36 38  0  0  0  0  0  0  0  0999 V2000
   37.7871   30.6727   50.6105 C   0  0  0  0  0  0  0  0  0  0  0  0
   38.4530   31.6110   49.7796 C   0  0  0  0  0  0  0  0  0  0  0  0
   37.9187   31.8758   48.4925 C   0  0  0  0  0  0  0  0  0  0  0  0
   36.7968   31.2029   48.1495 N   0  0  0  0  0  0  0  0  0  0  0  0
   36.1895   30.3174   48.9645 C   0  0  0  0  0  0  0  0  0  0  0  0
   36.6753   30.0490   50.1877 N   0  0  0  0  0  0  0  0  0  0  0  0
   35.0005   29.6071   48.5954 N   0  0  0  0  0  0  0  0  0  0  0  0
   34.7541   29.4168   47.2929 C   0  0  0  0  0  0  0  0  0  0  0  0
   33.5952   28.7273   47.0135 C   0  0  0  0  0  0  0  0  0  0  0  0
   32.7232   28.2500   47.9801 C   0  0  0  0  0  0  0  0  0  0  0  0
   31.6695   27.6228   47.7185 O   0  0  0  0  0  0  0  0  0  0  0  0
   33.0338   28.4781   49.2909 N   0  0  0  0  0  0  0  0  0  0  0  0
   34.1659   29.1513   49.5522 C   0  0  0  0  0  0  0  0  0  0  0  0
   34.4964   29.3877   50.7632 O   0  0  0  0  0  0  0  0  0  0  0  0
   38.2297   30.5016   51.5841 H   0  0  0  0  0  0  0  0  0  0  0  0
   39.3458   32.1314   50.0815 H   0  0  0  0  0  0  0  0  0  0  0  0
   38.3738   32.5694   47.8242 H   0  0  0  0  0  0  0  0  0  0  0  0
   35.4012   29.7693   46.5228 H   0  0  0  0  0  0  0  0  0  0  0  0
   33.3010   28.5189   45.9925 H   0  0  0  0  0  0  0  0  0  0  0  0
   30.3816   29.0505   49.1376 O   0  0  0  0  0  0  0  0  0  0  0  0
   30.8549   28.7774   50.4097 C   0  0  2  0  0  0  0  0  0  0  0  0
   32.1801   28.0144   50.3399 C   0  0  2  0  0  0  0  0  0  0  0  0
   32.7817   28.1046   51.7136 C   0  0  1  0  0  0  0  0  0  0  0  0
   33.6345   27.4186   51.7971 H   0  0  0  0  0  0  0  0  0  0  0  0
   31.7967   27.9281   52.6704 O   0  0  0  0  0  0  0  0  0  0  0  0
   30.7296   27.1429   52.2462 C   0  0  2  0  0  0  0  0  0  0  0  0
   30.0645   27.0287   53.1261 H   0  0  0  0  0  0  0  0  0  0  0  0
   29.8963   27.8675   51.1813 C   0  0  1  0  0  0  0  0  0  0  0  0
   28.8364   28.5563   51.7263 O   0  0  0  0  0  0  0  0  0  0  0  0
   30.2112   28.2203   48.6440 H   0  0  0  0  0  0  0  0  0  0  0  0
   30.9454   29.7006   51.0054 H   0  0  0  0  0  0  0  0  0  0  0  0
   31.8999   26.9507   50.1805 H   0  0  0  0  0  0  0  0  0  0  0  0
   33.1482   29.1472   51.8407 H   0  0  0  0  0  0  0  0  0  0  0  0
   31.0144   26.1353   51.9044 H   0  0  0  0  0  0  0  0  0  0  0  0
   29.5615   27.1110   50.4509 H   0  0  0  0  0  0  0  0  0  0  0  0
   28.0368   27.9479   51.6267 H   0  0  0  0  0  0  0  0  0  0  0  0
  2  1  2  0
  3  2  1  0
  4  3  2  0
  4  5  1  0
  5  6  2  0
  6  1  1  0
  7  5  1  0
  7 13  1  0
  8  7  1  0
  9  8  2  0
  9 10  1  0
 10 12  1  0
 11 10  2  0
 12 13  1  0
 13 14  2  0
  1 15  1  0
  2 16  1  0
  3 17  1  0
  8 18  1  0
  9 19  1  0
 20 21  1  0
 21 22  1  0
 22 23  1  0
 23 24  1  6
 23 25  1  0
 25 26  1  0
 26 27  1  1
 26 28  1  0
 28 29  1  0
 28 21  1  0
 20 30  1  0
 21 31  1  1
 22 32  1  6
 23 33  1  0
 26 34  1  0
 28 35  1  6
 29 36  1  0
 12 22  1  0
M  ISO  7  15  14  16  14  17  14  18  14  19  14  24   8  27   8
M  END
>  <DihAtoms>  (1) 
9,11,21,20

>  <DihDeg>  (1) 
-130.04881872754282

$$$$
