
     RDKit          3D

 27 28  0  0  0  0  0  0  0  0999 V2000
   37.2612   30.1762   51.4182 C   0  0  0  0  0  0  0  0  0  0  0  0
   38.1172   30.7589   50.4732 C   0  0  0  0  0  0  0  0  0  0  0  0
   37.8411   30.5455   49.1229 C   0  0  0  0  0  0  0  0  0  0  0  0
   36.7702   29.7926   48.7688 N   0  0  0  0  0  0  0  0  0  0  0  0
   35.9634   29.2445   49.7140 C   0  0  0  0  0  0  0  0  0  0  0  0
   36.2076   29.4352   51.0325 N   0  0  0  0  0  0  0  0  0  0  0  0
   34.5412   28.2461   49.3043 S   0  0  0  0  0  0  0  0  0  0  0  0
   37.4606   30.3317   52.4626 H   0  0  0  0  0  0  0  0  0  0  0  0
   38.9670   31.3569   50.8187 H   0  0  0  0  0  0  0  0  0  0  0  0
   38.4801   30.9799   48.3758 H   0  0  0  0  0  0  0  0  0  0  0  0
   34.5378   31.1135   48.6647 O   0  0  0  0  0  0  0  0  0  0  0  0
   33.3793   30.4789   48.2182 C   0  0  1  0  0  0  0  0  0  0  0  0
   33.1159   29.3168   49.1482 C   0  0  1  0  0  0  0  0  0  0  0  0
   31.8889   28.5838   48.6467 C   0  0  2  0  0  0  0  0  0  0  0  0
   31.2127   28.2647   49.4771 H   0  0  0  0  0  0  0  0  0  0  0  0
   31.2241   29.3228   47.6638 O   0  0  0  0  0  0  0  0  0  0  0  0
   30.9418   30.6138   48.1008 C   0  0  2  0  0  0  0  0  0  0  0  0
   30.2769   30.5945   49.0016 H   0  0  0  0  0  0  0  0  0  0  0  0
   32.1947   31.4225   48.3299 C   0  0  2  0  0  0  0  0  0  0  0  0
   32.2988   32.4653   47.3899 O   0  0  0  0  0  0  0  0  0  0  0  0
   34.9361   31.6078   47.8839 H   0  0  0  0  0  0  0  0  0  0  0  0
   33.4585   30.1804   47.1534 H   0  0  0  0  0  0  0  0  0  0  0  0
   32.8091   29.7751   50.1335 H   0  0  0  0  0  0  0  0  0  0  0  0
   32.2330   27.6471   48.1616 H   0  0  0  0  0  0  0  0  0  0  0  0
   30.3597   31.1114   47.2973 H   0  0  0  0  0  0  0  0  0  0  0  0
   32.2195   31.8110   49.3848 H   0  0  0  0  0  0  0  0  0  0  0  0
   32.8938   33.1469   47.8326 H   0  0  0  0  0  0  0  0  0  0  0  0
  2  1  2  0
  3  2  1  0
  4  3  2  0
  4  5  1  0
  5  6  2  0
  6  1  1  0
  7  5  1  0
  1  8  1  0
  2  9  1  0
  3 10  1  0
 11 12  1  0
 12 13  1  0
 13 14  1  0
 14 15  1  1
 14 16  1  0
 16 17  1  0
 17 18  1  1
 17 19  1  0
 19 20  1  0
 19 12  1  0
 11 21  1  0
 12 22  1  6
 13 23  1  1
 14 24  1  0
 17 25  1  0
 19 26  1  1
 20 27  1  0
  7 13  1  0
M  ISO  5   8  14   9  14  10  14  15   8  18   8
M  END
>  <DihAtoms>  (1) 
4,6,12,11

>  <DihDeg>  (1) 
66.43997718117221

$$$$
