
     RDKit          3D

 27 28  0  0  0  0  0  0  0  0999 V2000
   37.2612   30.1762   51.4182 C   0  0  0  0  0  0  0  0  0  0  0  0
   38.1172   30.7589   50.4732 C   0  0  0  0  0  0  0  0  0  0  0  0
   37.8411   30.5455   49.1229 C   0  0  0  0  0  0  0  0  0  0  0  0
   36.7702   29.7926   48.7688 N   0  0  0  0  0  0  0  0  0  0  0  0
   35.9634   29.2445   49.7140 C   0  0  0  0  0  0  0  0  0  0  0  0
   36.2076   29.4352   51.0325 N   0  0  0  0  0  0  0  0  0  0  0  0
   34.5412   28.2461   49.3043 S   0  0  0  0  0  0  0  0  0  0  0  0
   37.4606   30.3317   52.4626 H   0  0  0  0  0  0  0  0  0  0  0  0
   38.9670   31.3569   50.8187 H   0  0  0  0  0  0  0  0  0  0  0  0
   38.4801   30.9799   48.3758 H   0  0  0  0  0  0  0  0  0  0  0  0
   32.2250   28.3907   51.1059 O   0  0  0  0  0  0  0  0  0  0  0  0
   32.4809   29.6139   50.4874 C   0  0  1  0  0  0  0  0  0  0  0  0
   33.1159   29.3168   49.1482 C   0  0  1  0  0  0  0  0  0  0  0  0
   33.4489   30.6368   48.4841 C   0  0  2  0  0  0  0  0  0  0  0  0
   33.2213   30.6342   47.3902 H   0  0  0  0  0  0  0  0  0  0  0  0
   32.8515   31.7069   49.1567 O   0  0  0  0  0  0  0  0  0  0  0  0
   31.4825   31.5102   49.3125 C   0  0  2  0  0  0  0  0  0  0  0  0
   30.9751   31.4243   48.3178 H   0  0  0  0  0  0  0  0  0  0  0  0
   31.1759   30.3411   50.2155 C   0  0  2  0  0  0  0  0  0  0  0  0
   30.5885   30.7759   51.4188 O   0  0  0  0  0  0  0  0  0  0  0  0
   32.1798   28.5531   52.0979 H   0  0  0  0  0  0  0  0  0  0  0  0
   33.0962   30.2775   51.1278 H   0  0  0  0  0  0  0  0  0  0  0  0
   32.2995   28.8608   48.5154 H   0  0  0  0  0  0  0  0  0  0  0  0
   34.5458   30.7844   48.5632 H   0  0  0  0  0  0  0  0  0  0  0  0
   31.0729   32.4242   49.7908 H   0  0  0  0  0  0  0  0  0  0  0  0
   30.5239   29.5970   49.6809 H   0  0  0  0  0  0  0  0  0  0  0  0
   30.0808   29.9744   51.7570 H   0  0  0  0  0  0  0  0  0  0  0  0
  2  1  2  0
  3  2  1  0
  4  3  2  0
  4  5  1  0
  5  6  2  0
  6  1  1  0
  7  5  1  0
  1  8  1  0
  2  9  1  0
  3 10  1  0
 11 12  1  0
 12 13  1  0
 13 14  1  0
 14 15  1  6
 14 16  1  0
 16 17  1  0
 17 18  1  6
 17 19  1  0
 19 20  1  0
 19 12  1  0
 11 21  1  0
 12 22  1  1
 13 23  1  6
 14 24  1  0
 17 25  1  0
 19 26  1  6
 20 27  1  0
  7 13  1  0
M  ISO  5   8  14   9  14  10  14  15   8  18   8
M  END
>  <DihAtoms>  (1) 
4,6,12,11

>  <DihDeg>  (1) 
66.43997718117221

$$$$
