
     RDKit          3D

 27 28  0  0  0  0  0  0  0  0999 V2000
   37.2612   30.1762   51.4182 C   0  0  0  0  0  0  0  0  0  0  0  0
   38.1172   30.7589   50.4732 C   0  0  0  0  0  0  0  0  0  0  0  0
   37.8411   30.5455   49.1229 C   0  0  0  0  0  0  0  0  0  0  0  0
   36.7702   29.7926   48.7688 N   0  0  0  0  0  0  0  0  0  0  0  0
   35.9634   29.2445   49.7140 C   0  0  0  0  0  0  0  0  0  0  0  0
   36.2076   29.4352   51.0325 N   0  0  0  0  0  0  0  0  0  0  0  0
   34.5412   28.2461   49.3043 S   0  0  0  0  0  0  0  0  0  0  0  0
   37.4606   30.3317   52.4626 H   0  0  0  0  0  0  0  0  0  0  0  0
   38.9670   31.3569   50.8187 H   0  0  0  0  0  0  0  0  0  0  0  0
   38.4801   30.9799   48.3758 H   0  0  0  0  0  0  0  0  0  0  0  0
   34.2186   30.9446   50.4202 O   0  0  0  0  0  0  0  0  0  0  0  0
   33.4917   30.7779   49.2421 C   0  0  1  0  0  0  0  0  0  0  0  0
   33.1159   29.3168   49.1482 C   0  0  1  0  0  0  0  0  0  0  0  0
   32.3698   29.1073   47.8468 C   0  0  2  0  0  0  0  0  0  0  0  0
   31.4958   28.4205   47.9610 H   0  0  0  0  0  0  0  0  0  0  0  0
   32.0233   30.3278   47.2597 O   0  0  0  0  0  0  0  0  0  0  0  0
   31.3354   31.1452   48.1518 C   0  0  2  0  0  0  0  0  0  0  0  0
   30.3828   30.6602   48.4854 H   0  0  0  0  0  0  0  0  0  0  0  0
   32.1991   31.5717   49.3130 C   0  0  2  0  0  0  0  0  0  0  0  0
   32.4608   32.9541   49.2638 O   0  0  0  0  0  0  0  0  0  0  0  0
   34.7892   31.7666   50.3138 H   0  0  0  0  0  0  0  0  0  0  0  0
   34.0514   31.1453   48.3584 H   0  0  0  0  0  0  0  0  0  0  0  0
   32.3529   29.1428   49.9622 H   0  0  0  0  0  0  0  0  0  0  0  0
   33.0609   28.6006   47.1420 H   0  0  0  0  0  0  0  0  0  0  0  0
   31.0391   32.0593   47.5964 H   0  0  0  0  0  0  0  0  0  0  0  0
   31.7182   31.2750   50.2852 H   0  0  0  0  0  0  0  0  0  0  0  0
   32.6766   33.2051   50.2151 H   0  0  0  0  0  0  0  0  0  0  0  0
  2  1  2  0
  3  2  1  0
  4  3  2  0
  4  5  1  0
  5  6  2  0
  6  1  1  0
  7  5  1  0
  1  8  1  0
  2  9  1  0
  3 10  1  0
 11 12  1  0
 12 13  1  0
 13 14  1  0
 14 15  1  1
 14 16  1  0
 16 17  1  0
 17 18  1  1
 17 19  1  0
 19 20  1  0
 19 12  1  0
 11 21  1  0
 12 22  1  6
 13 23  1  1
 14 24  1  0
 17 25  1  0
 19 26  1  1
 20 27  1  0
  7 13  1  0
M  ISO  5   8  14   9  14  10  14  15   8  18   8
M  END
>  <DihAtoms>  (1) 
4,6,12,11

>  <DihDeg>  (1) 
66.43997718117221

$$$$
