
     RDKit          3D

 27 28  0  0  0  0  0  0  0  0999 V2000
   37.2612   30.1762   51.4182 C   0  0  0  0  0  0  0  0  0  0  0  0
   38.1172   30.7589   50.4732 C   0  0  0  0  0  0  0  0  0  0  0  0
   37.8411   30.5455   49.1229 C   0  0  0  0  0  0  0  0  0  0  0  0
   36.7702   29.7926   48.7688 N   0  0  0  0  0  0  0  0  0  0  0  0
   35.9634   29.2445   49.7140 C   0  0  0  0  0  0  0  0  0  0  0  0
   36.2076   29.4352   51.0325 N   0  0  0  0  0  0  0  0  0  0  0  0
   34.5412   28.2461   49.3043 S   0  0  0  0  0  0  0  0  0  0  0  0
   37.4606   30.3317   52.4626 H   0  0  0  0  0  0  0  0  0  0  0  0
   38.9670   31.3569   50.8187 H   0  0  0  0  0  0  0  0  0  0  0  0
   38.4801   30.9799   48.3758 H   0  0  0  0  0  0  0  0  0  0  0  0
   34.0312   30.2246   47.1932 O   0  0  0  0  0  0  0  0  0  0  0  0
   32.8482   29.6978   47.7102 C   0  0  1  0  0  0  0  0  0  0  0  0
   33.1159   29.3168   49.1482 C   0  0  1  0  0  0  0  0  0  0  0  0
   31.8550   28.6938   49.7107 C   0  0  2  0  0  0  0  0  0  0  0  0
   31.6443   29.0257   50.7566 H   0  0  0  0  0  0  0  0  0  0  0  0
   30.7680   28.8891   48.8536 O   0  0  0  0  0  0  0  0  0  0  0  0
   30.6092   30.2336   48.5305 C   0  0  2  0  0  0  0  0  0  0  0  0
   30.4164   30.8453   49.4484 H   0  0  0  0  0  0  0  0  0  0  0  0
   31.7665   30.7636   47.7206 C   0  0  2  0  0  0  0  0  0  0  0  0
   31.3614   31.0743   46.4087 O   0  0  0  0  0  0  0  0  0  0  0  0
   34.0020   30.1180   46.1930 H   0  0  0  0  0  0  0  0  0  0  0  0
   32.4700   28.8561   47.0957 H   0  0  0  0  0  0  0  0  0  0  0  0
   33.2432   30.2905   49.7055 H   0  0  0  0  0  0  0  0  0  0  0  0
   32.0201   27.5982   49.7698 H   0  0  0  0  0  0  0  0  0  0  0  0
   29.6943   30.3145   47.9072 H   0  0  0  0  0  0  0  0  0  0  0  0
   32.2261   31.6521   48.2342 H   0  0  0  0  0  0  0  0  0  0  0  0
   32.0359   31.7506   46.0887 H   0  0  0  0  0  0  0  0  0  0  0  0
  2  1  2  0
  3  2  1  0
  4  3  2  0
  4  5  1  0
  5  6  2  0
  6  1  1  0
  7  5  1  0
  1  8  1  0
  2  9  1  0
  3 10  1  0
 11 12  1  0
 12 13  1  0
 13 14  1  0
 14 15  1  1
 14 16  1  0
 16 17  1  0
 17 18  1  1
 17 19  1  0
 19 20  1  0
 19 12  1  0
 11 21  1  0
 12 22  1  6
 13 23  1  1
 14 24  1  0
 17 25  1  0
 19 26  1  1
 20 27  1  0
  7 13  1  0
M  ISO  5   8  14   9  14  10  14  15   8  18   8
M  END
>  <DihAtoms>  (1) 
4,6,12,11

>  <DihDeg>  (1) 
66.43997718117221

$$$$
