
     RDKit          3D

 27 28  0  0  0  0  0  0  0  0999 V2000
   37.2612   30.1762   51.4182 C   0  0  0  0  0  0  0  0  0  0  0  0
   38.1172   30.7589   50.4732 C   0  0  0  0  0  0  0  0  0  0  0  0
   37.8411   30.5455   49.1229 C   0  0  0  0  0  0  0  0  0  0  0  0
   36.7702   29.7926   48.7688 N   0  0  0  0  0  0  0  0  0  0  0  0
   35.9634   29.2445   49.7140 C   0  0  0  0  0  0  0  0  0  0  0  0
   36.2076   29.4352   51.0325 N   0  0  0  0  0  0  0  0  0  0  0  0
   34.5412   28.2461   49.3043 S   0  0  0  0  0  0  0  0  0  0  0  0
   37.4606   30.3317   52.4626 H   0  0  0  0  0  0  0  0  0  0  0  0
   38.9670   31.3569   50.8187 H   0  0  0  0  0  0  0  0  0  0  0  0
   38.4801   30.9799   48.3758 H   0  0  0  0  0  0  0  0  0  0  0  0
   32.6352   28.3485   47.0709 O   0  0  0  0  0  0  0  0  0  0  0  0
   32.0400   28.7051   48.2804 C   0  0  1  0  0  0  0  0  0  0  0  0
   33.1159   29.3168   49.1482 C   0  0  1  0  0  0  0  0  0  0  0  0
   32.4979   29.6628   50.4871 C   0  0  2  0  0  0  0  0  0  0  0  0
   32.8500   30.6485   50.8783 H   0  0  0  0  0  0  0  0  0  0  0  0
   31.1039   29.5677   50.4410 O   0  0  0  0  0  0  0  0  0  0  0  0
   30.5767   30.3160   49.3925 C   0  0  2  0  0  0  0  0  0  0  0  0
   30.8271   31.4011   49.5102 H   0  0  0  0  0  0  0  0  0  0  0  0
   30.9884   29.7752   48.0456 C   0  0  2  0  0  0  0  0  0  0  0  0
   29.8814   29.2426   47.3581 O   0  0  0  0  0  0  0  0  0  0  0  0
   32.0757   27.6214   46.6574 H   0  0  0  0  0  0  0  0  0  0  0  0
   31.5282   27.8445   48.7561 H   0  0  0  0  0  0  0  0  0  0  0  0
   33.3696   30.3079   48.6704 H   0  0  0  0  0  0  0  0  0  0  0  0
   32.8438   28.9063   51.2214 H   0  0  0  0  0  0  0  0  0  0  0  0
   29.4713   30.2444   49.4628 H   0  0  0  0  0  0  0  0  0  0  0  0
   31.5034   30.5750   47.4461 H   0  0  0  0  0  0  0  0  0  0  0  0
   30.1456   29.2777   46.3867 H   0  0  0  0  0  0  0  0  0  0  0  0
  2  1  2  0
  3  2  1  0
  4  3  2  0
  4  5  1  0
  5  6  2  0
  6  1  1  0
  7  5  1  0
  1  8  1  0
  2  9  1  0
  3 10  1  0
 11 12  1  0
 12 13  1  0
 13 14  1  0
 14 15  1  1
 14 16  1  0
 16 17  1  0
 17 18  1  1
 17 19  1  0
 19 20  1  0
 19 12  1  0
 11 21  1  0
 12 22  1  1
 13 23  1  6
 14 24  1  0
 17 25  1  0
 19 26  1  6
 20 27  1  0
  7 13  1  0
M  ISO  5   8  14   9  14  10  14  15   8  18   8
M  END
>  <DihAtoms>  (1) 
4,6,12,11

>  <DihDeg>  (1) 
66.43997718117221

$$$$
