
     RDKit          3D

 27 28  0  0  0  0  0  0  0  0999 V2000
   37.2612   30.1762   51.4182 C   0  0  0  0  0  0  0  0  0  0  0  0
   38.1172   30.7589   50.4732 C   0  0  0  0  0  0  0  0  0  0  0  0
   37.8411   30.5455   49.1229 C   0  0  0  0  0  0  0  0  0  0  0  0
   36.7702   29.7926   48.7688 N   0  0  0  0  0  0  0  0  0  0  0  0
   35.9634   29.2445   49.7140 C   0  0  0  0  0  0  0  0  0  0  0  0
   36.2076   29.4352   51.0325 N   0  0  0  0  0  0  0  0  0  0  0  0
   34.5412   28.2461   49.3043 S   0  0  0  0  0  0  0  0  0  0  0  0
   37.4606   30.3317   52.4626 H   0  0  0  0  0  0  0  0  0  0  0  0
   38.9670   31.3569   50.8187 H   0  0  0  0  0  0  0  0  0  0  0  0
   38.4801   30.9799   48.3758 H   0  0  0  0  0  0  0  0  0  0  0  0
   34.5241   31.1838   49.2718 O   0  0  0  0  0  0  0  0  0  0  0  0
   33.4727   30.6486   48.5286 C   0  0  1  0  0  0  0  0  0  0  0  0
   33.1159   29.3168   49.1482 C   0  0  1  0  0  0  0  0  0  0  0  0
   32.0091   28.6963   48.3210 C   0  0  2  0  0  0  0  0  0  0  0  0
   31.2271   28.2072   48.9517 H   0  0  0  0  0  0  0  0  0  0  0  0
   31.4738   29.6193   47.4178 O   0  0  0  0  0  0  0  0  0  0  0  0
   31.0783   30.7894   48.0594 C   0  0  2  0  0  0  0  0  0  0  0  0
   30.2850   30.5791   48.8213 H   0  0  0  0  0  0  0  0  0  0  0  0
   32.2492   31.5407   48.6431 C   0  0  2  0  0  0  0  0  0  0  0  0
   32.4549   32.7568   47.9643 O   0  0  0  0  0  0  0  0  0  0  0  0
   35.0173   31.8321   48.6810 H   0  0  0  0  0  0  0  0  0  0  0  0
   33.7249   30.5785   47.4513 H   0  0  0  0  0  0  0  0  0  0  0  0
   32.6449   29.5583   50.1456 H   0  0  0  0  0  0  0  0  0  0  0  0
   32.4592   27.8832   47.7149 H   0  0  0  0  0  0  0  0  0  0  0  0
   30.6067   31.4395   47.2933 H   0  0  0  0  0  0  0  0  0  0  0  0
   32.0978   31.7016   49.7456 H   0  0  0  0  0  0  0  0  0  0  0  0
   32.9486   33.3353   48.6249 H   0  0  0  0  0  0  0  0  0  0  0  0
  2  1  2  0
  3  2  1  0
  4  3  2  0
  4  5  1  0
  5  6  2  0
  6  1  1  0
  7  5  1  0
  1  8  1  0
  2  9  1  0
  3 10  1  0
 11 12  1  0
 12 13  1  0
 13 14  1  0
 14 15  1  1
 14 16  1  0
 16 17  1  0
 17 18  1  1
 17 19  1  0
 19 20  1  0
 19 12  1  0
 11 21  1  0
 12 22  1  6
 13 23  1  1
 14 24  1  0
 17 25  1  0
 19 26  1  1
 20 27  1  0
  7 13  1  0
M  ISO  5   8  14   9  14  10  14  15   8  18   8
M  END
>  <DihAtoms>  (1) 
4,6,12,11

>  <DihDeg>  (1) 
66.43997718117221

$$$$
