
     RDKit          3D

 27 28  0  0  0  0  0  0  0  0999 V2000
   37.2612   30.1762   51.4182 C   0  0  0  0  0  0  0  0  0  0  0  0
   38.1172   30.7589   50.4732 C   0  0  0  0  0  0  0  0  0  0  0  0
   37.8411   30.5455   49.1229 C   0  0  0  0  0  0  0  0  0  0  0  0
   36.7702   29.7926   48.7688 N   0  0  0  0  0  0  0  0  0  0  0  0
   35.9634   29.2445   49.7140 C   0  0  0  0  0  0  0  0  0  0  0  0
   36.2076   29.4352   51.0325 N   0  0  0  0  0  0  0  0  0  0  0  0
   34.5412   28.2461   49.3043 S   0  0  0  0  0  0  0  0  0  0  0  0
   37.4606   30.3317   52.4626 H   0  0  0  0  0  0  0  0  0  0  0  0
   38.9670   31.3569   50.8187 H   0  0  0  0  0  0  0  0  0  0  0  0
   38.4801   30.9799   48.3758 H   0  0  0  0  0  0  0  0  0  0  0  0
   33.3649   29.2833   46.8200 O   0  0  0  0  0  0  0  0  0  0  0  0
   32.4100   29.1312   47.8245 C   0  0  1  0  0  0  0  0  0  0  0  0
   33.1159   29.3168   49.1482 C   0  0  1  0  0  0  0  0  0  0  0  0
   32.1029   29.1030   50.2538 C   0  0  2  0  0  0  0  0  0  0  0  0
   32.2184   29.8382   51.0873 H   0  0  0  0  0  0  0  0  0  0  0  0
   30.8008   29.0629   49.7467 O   0  0  0  0  0  0  0  0  0  0  0  0
   30.5228   30.1824   48.9677 C   0  0  2  0  0  0  0  0  0  0  0  0
   30.6103   31.1214   49.5716 H   0  0  0  0  0  0  0  0  0  0  0  0
   31.3629   30.2256   47.7153 C   0  0  2  0  0  0  0  0  0  0  0  0
   30.5667   30.0398   46.5693 O   0  0  0  0  0  0  0  0  0  0  0  0
   33.0308   28.7976   46.0044 H   0  0  0  0  0  0  0  0  0  0  0  0
   31.8778   28.1621   47.7424 H   0  0  0  0  0  0  0  0  0  0  0  0
   33.3892   30.4112   49.2000 H   0  0  0  0  0  0  0  0  0  0  0  0
   32.3003   28.1070   50.7012 H   0  0  0  0  0  0  0  0  0  0  0  0
   29.4589   30.1108   48.6596 H   0  0  0  0  0  0  0  0  0  0  0  0
   31.9405   31.1892   47.6673 H   0  0  0  0  0  0  0  0  0  0  0  0
   31.0957   30.4603   45.8223 H   0  0  0  0  0  0  0  0  0  0  0  0
  2  1  2  0
  3  2  1  0
  4  3  2  0
  4  5  1  0
  5  6  2  0
  6  1  1  0
  7  5  1  0
  1  8  1  0
  2  9  1  0
  3 10  1  0
 11 12  1  0
 12 13  1  0
 13 14  1  0
 14 15  1  1
 14 16  1  0
 16 17  1  0
 17 18  1  1
 17 19  1  0
 19 20  1  0
 19 12  1  0
 11 21  1  0
 12 22  1  1
 13 23  1  6
 14 24  1  0
 17 25  1  0
 19 26  1  6
 20 27  1  0
  7 13  1  0
M  ISO  5   8  14   9  14  10  14  15   8  18   8
M  END
>  <DihAtoms>  (1) 
4,6,12,11

>  <DihDeg>  (1) 
66.43997718117221

$$$$
