
     RDKit          3D

 27 28  0  0  0  0  0  0  0  0999 V2000
   37.2612   30.1762   51.4182 C   0  0  0  0  0  0  0  0  0  0  0  0
   38.1172   30.7589   50.4732 C   0  0  0  0  0  0  0  0  0  0  0  0
   37.8411   30.5455   49.1229 C   0  0  0  0  0  0  0  0  0  0  0  0
   36.7702   29.7926   48.7688 N   0  0  0  0  0  0  0  0  0  0  0  0
   35.9634   29.2445   49.7140 C   0  0  0  0  0  0  0  0  0  0  0  0
   36.2076   29.4352   51.0325 N   0  0  0  0  0  0  0  0  0  0  0  0
   34.5412   28.2461   49.3043 S   0  0  0  0  0  0  0  0  0  0  0  0
   37.4606   30.3317   52.4626 H   0  0  0  0  0  0  0  0  0  0  0  0
   38.9670   31.3569   50.8187 H   0  0  0  0  0  0  0  0  0  0  0  0
   38.4801   30.9799   48.3758 H   0  0  0  0  0  0  0  0  0  0  0  0
   31.7321   27.4315   49.0272 O   0  0  0  0  0  0  0  0  0  0  0  0
   31.8564   28.6632   49.6690 C   0  0  1  0  0  0  0  0  0  0  0  0
   33.1159   29.3168   49.1482 C   0  0  1  0  0  0  0  0  0  0  0  0
   33.2948   30.6343   49.8738 C   0  0  2  0  0  0  0  0  0  0  0  0
   33.6385   31.4527   49.1951 H   0  0  0  0  0  0  0  0  0  0  0  0
   32.1457   30.9766   50.5925 O   0  0  0  0  0  0  0  0  0  0  0  0
   31.0133   30.9543   49.7835 C   0  0  2  0  0  0  0  0  0  0  0  0
   31.1065   31.6906   48.9449 H   0  0  0  0  0  0  0  0  0  0  0  0
   30.6931   29.5640   49.2931 C   0  0  2  0  0  0  0  0  0  0  0  0
   29.4950   29.0934   49.8631 O   0  0  0  0  0  0  0  0  0  0  0  0
   31.1646   26.8390   49.6099 H   0  0  0  0  0  0  0  0  0  0  0  0
   31.8413   28.5551   50.7722 H   0  0  0  0  0  0  0  0  0  0  0  0
   32.8977   29.5930   48.0753 H   0  0  0  0  0  0  0  0  0  0  0  0
   34.1066   30.4994   50.6181 H   0  0  0  0  0  0  0  0  0  0  0  0
   30.1605   31.2992   50.4046 H   0  0  0  0  0  0  0  0  0  0  0  0
   30.6523   29.5475   48.1695 H   0  0  0  0  0  0  0  0  0  0  0  0
   29.1681   28.3896   49.2208 H   0  0  0  0  0  0  0  0  0  0  0  0
  2  1  2  0
  3  2  1  0
  4  3  2  0
  4  5  1  0
  5  6  2  0
  6  1  1  0
  7  5  1  0
  1  8  1  0
  2  9  1  0
  3 10  1  0
 11 12  1  0
 12 13  1  0
 13 14  1  0
 14 15  1  6
 14 16  1  0
 16 17  1  0
 17 18  1  6
 17 19  1  0
 19 20  1  0
 19 12  1  0
 11 21  1  0
 12 22  1  1
 13 23  1  6
 14 24  1  0
 17 25  1  0
 19 26  1  6
 20 27  1  0
  7 13  1  0
M  ISO  5   8  14   9  14  10  14  15   8  18   8
M  END
>  <DihAtoms>  (1) 
4,6,12,11

>  <DihDeg>  (1) 
66.43997718117221

$$$$
