
     RDKit          3D

 27 28  0  0  0  0  0  0  0  0999 V2000
   37.2612   30.1762   51.4182 C   0  0  0  0  0  0  0  0  0  0  0  0
   38.1172   30.7589   50.4732 C   0  0  0  0  0  0  0  0  0  0  0  0
   37.8411   30.5455   49.1229 C   0  0  0  0  0  0  0  0  0  0  0  0
   36.7702   29.7926   48.7688 N   0  0  0  0  0  0  0  0  0  0  0  0
   35.9634   29.2445   49.7140 C   0  0  0  0  0  0  0  0  0  0  0  0
   36.2076   29.4352   51.0325 N   0  0  0  0  0  0  0  0  0  0  0  0
   34.5412   28.2461   49.3043 S   0  0  0  0  0  0  0  0  0  0  0  0
   37.4606   30.3317   52.4626 H   0  0  0  0  0  0  0  0  0  0  0  0
   38.9670   31.3569   50.8187 H   0  0  0  0  0  0  0  0  0  0  0  0
   38.4801   30.9799   48.3758 H   0  0  0  0  0  0  0  0  0  0  0  0
   33.7182   29.7697   46.9310 O   0  0  0  0  0  0  0  0  0  0  0  0
   32.6278   29.4060   47.7204 C   0  0  1  0  0  0  0  0  0  0  0  0
   33.1159   29.3168   49.1482 C   0  0  1  0  0  0  0  0  0  0  0  0
   31.9552   28.8714   50.0134 C   0  0  2  0  0  0  0  0  0  0  0  0
   31.9136   29.4179   50.9872 H   0  0  0  0  0  0  0  0  0  0  0  0
   30.7482   28.9294   49.3106 O   0  0  0  0  0  0  0  0  0  0  0  0
   30.5491   30.1846   48.7430 C   0  0  2  0  0  0  0  0  0  0  0  0
   30.5069   30.9781   49.5321 H   0  0  0  0  0  0  0  0  0  0  0  0
   31.5680   30.4926   47.6739 C   0  0  2  0  0  0  0  0  0  0  0  0
   30.9636   30.5441   46.4034 O   0  0  0  0  0  0  0  0  0  0  0  0
   33.5315   29.4621   45.9912 H   0  0  0  0  0  0  0  0  0  0  0  0
   32.1524   28.4718   47.3593 H   0  0  0  0  0  0  0  0  0  0  0  0
   33.3354   30.3782   49.4648 H   0  0  0  0  0  0  0  0  0  0  0  0
   32.1206   27.8054   50.2732 H   0  0  0  0  0  0  0  0  0  0  0  0
   29.5482   30.1719   48.2634 H   0  0  0  0  0  0  0  0  0  0  0  0
   32.1083   31.4487   47.9152 H   0  0  0  0  0  0  0  0  0  0  0  0
   31.5837   31.1140   45.8508 H   0  0  0  0  0  0  0  0  0  0  0  0
  2  1  2  0
  3  2  1  0
  4  3  2  0
  4  5  1  0
  5  6  2  0
  6  1  1  0
  7  5  1  0
  1  8  1  0
  2  9  1  0
  3 10  1  0
 11 12  1  0
 12 13  1  0
 13 14  1  0
 14 15  1  1
 14 16  1  0
 16 17  1  0
 17 18  1  1
 17 19  1  0
 19 20  1  0
 19 12  1  0
 11 21  1  0
 12 22  1  6
 13 23  1  1
 14 24  1  0
 17 25  1  0
 19 26  1  1
 20 27  1  0
  7 13  1  0
M  ISO  5   8  14   9  14  10  14  15   8  18   8
M  END
>  <DihAtoms>  (1) 
4,6,12,11

>  <DihDeg>  (1) 
66.43997718117221

$$$$
