
     RDKit          3D

 27 28  0  0  0  0  0  0  0  0999 V2000
   37.2612   30.1762   51.4182 C   0  0  0  0  0  0  0  0  0  0  0  0
   38.1172   30.7589   50.4732 C   0  0  0  0  0  0  0  0  0  0  0  0
   37.8411   30.5455   49.1229 C   0  0  0  0  0  0  0  0  0  0  0  0
   36.7702   29.7926   48.7688 N   0  0  0  0  0  0  0  0  0  0  0  0
   35.9634   29.2445   49.7140 C   0  0  0  0  0  0  0  0  0  0  0  0
   36.2076   29.4352   51.0325 N   0  0  0  0  0  0  0  0  0  0  0  0
   34.5412   28.2461   49.3043 S   0  0  0  0  0  0  0  0  0  0  0  0
   37.4606   30.3317   52.4626 H   0  0  0  0  0  0  0  0  0  0  0  0
   38.9670   31.3569   50.8187 H   0  0  0  0  0  0  0  0  0  0  0  0
   38.4801   30.9799   48.3758 H   0  0  0  0  0  0  0  0  0  0  0  0
   31.8007   27.6950   50.2084 O   0  0  0  0  0  0  0  0  0  0  0  0
   32.0919   29.0585   50.2297 C   0  0  1  0  0  0  0  0  0  0  0  0
   33.1159   29.3168   49.1482 C   0  0  1  0  0  0  0  0  0  0  0  0
   33.4832   30.7856   49.1916 C   0  0  2  0  0  0  0  0  0  0  0  0
   33.5841   31.2312   48.1718 H   0  0  0  0  0  0  0  0  0  0  0  0
   32.6052   31.5032   50.0091 O   0  0  0  0  0  0  0  0  0  0  0  0
   31.2792   31.2880   49.6449 C   0  0  2  0  0  0  0  0  0  0  0  0
   31.0942   31.6229   48.5924 H   0  0  0  0  0  0  0  0  0  0  0  0
   30.8514   29.8598   49.8759 C   0  0  2  0  0  0  0  0  0  0  0  0
   29.8974   29.7814   50.9082 O   0  0  0  0  0  0  0  0  0  0  0  0
   31.4527   27.4424   51.1182 H   0  0  0  0  0  0  0  0  0  0  0  0
   32.4201   29.3930   51.2344 H   0  0  0  0  0  0  0  0  0  0  0  0
   32.5719   29.1730   48.1693 H   0  0  0  0  0  0  0  0  0  0  0  0
   34.4876   30.8664   49.6562 H   0  0  0  0  0  0  0  0  0  0  0  0
   30.6527   31.9379   50.2909 H   0  0  0  0  0  0  0  0  0  0  0  0
   30.4664   29.4095   48.9202 H   0  0  0  0  0  0  0  0  0  0  0  0
   29.4026   28.9221   50.7312 H   0  0  0  0  0  0  0  0  0  0  0  0
  2  1  2  0
  3  2  1  0
  4  3  2  0
  4  5  1  0
  5  6  2  0
  6  1  1  0
  7  5  1  0
  1  8  1  0
  2  9  1  0
  3 10  1  0
 11 12  1  0
 12 13  1  0
 13 14  1  0
 14 15  1  6
 14 16  1  0
 16 17  1  0
 17 18  1  6
 17 19  1  0
 19 20  1  0
 19 12  1  0
 11 21  1  0
 12 22  1  1
 13 23  1  6
 14 24  1  0
 17 25  1  0
 19 26  1  6
 20 27  1  0
  7 13  1  0
M  ISO  5   8  14   9  14  10  14  15   8  18   8
M  END
>  <DihAtoms>  (1) 
4,6,12,11

>  <DihDeg>  (1) 
66.43997718117221

$$$$
