
     RDKit          3D

 27 28  0  0  0  0  0  0  0  0999 V2000
   37.2612   30.1762   51.4182 C   0  0  0  0  0  0  0  0  0  0  0  0
   38.1172   30.7589   50.4732 C   0  0  0  0  0  0  0  0  0  0  0  0
   37.8411   30.5455   49.1229 C   0  0  0  0  0  0  0  0  0  0  0  0
   36.7702   29.7926   48.7688 N   0  0  0  0  0  0  0  0  0  0  0  0
   35.9634   29.2445   49.7140 C   0  0  0  0  0  0  0  0  0  0  0  0
   36.2076   29.4352   51.0325 N   0  0  0  0  0  0  0  0  0  0  0  0
   34.5412   28.2461   49.3043 S   0  0  0  0  0  0  0  0  0  0  0  0
   37.4606   30.3317   52.4626 H   0  0  0  0  0  0  0  0  0  0  0  0
   38.9670   31.3569   50.8187 H   0  0  0  0  0  0  0  0  0  0  0  0
   38.4801   30.9799   48.3758 H   0  0  0  0  0  0  0  0  0  0  0  0
   34.4555   30.9203   48.0908 O   0  0  0  0  0  0  0  0  0  0  0  0
   33.2372   30.2533   47.9679 C   0  0  0  0  0  0  0  0  0  0  0  0
   33.1159   29.3168   49.1482 C   0  0  0  0  0  0  0  0  0  0  0  0
   31.8207   28.5450   49.0031 C   0  0  0  0  0  0  0  0  0  0  0  0
   31.2814   28.4287   49.9748 H   0  0  0  0  0  0  0  0  0  0  0  0
   31.0144   29.0928   48.0011 O   0  0  0  0  0  0  0  0  0  0  0  0
   30.8125   30.4558   48.1980 C   0  0  0  0  0  0  0  0  0  0  0  0
   30.2973   30.6468   49.1738 H   0  0  0  0  0  0  0  0  0  0  0  0
   32.0909   31.2450   48.0603 C   0  0  0  0  0  0  0  0  0  0  0  0
   32.0526   32.0689   46.9194 O   0  0  0  0  0  0  0  0  0  0  0  0
   34.7292   31.2288   47.1729 H   0  0  0  0  0  0  0  0  0  0  0  0
   33.1462   29.7407   46.9891 H   0  0  0  0  0  0  0  0  0  0  0  0
   32.9707   29.9783   50.0517 H   0  0  0  0  0  0  0  0  0  0  0  0
   32.0783   27.5163   48.6766 H   0  0  0  0  0  0  0  0  0  0  0  0
   30.1145   30.8009   47.4070 H   0  0  0  0  0  0  0  0  0  0  0  0
   32.2837   31.8396   48.9950 H   0  0  0  0  0  0  0  0  0  0  0  0
   32.7141   32.8030   47.1147 H   0  0  0  0  0  0  0  0  0  0  0  0
  2  1  2  0
  3  2  1  0
  4  3  2  0
  4  5  1  0
  5  6  2  0
  6  1  1  0
  7  5  1  0
  1  8  1  0
  2  9  1  0
  3 10  1  0
 11 12  1  0
 12 13  1  0
 13 14  1  0
 14 15  1  0
 14 16  1  0
 16 17  1  0
 17 18  1  0
 17 19  1  0
 19 20  1  0
 19 12  1  0
 11 21  1  0
 12 22  1  0
 13 23  1  0
 14 24  1  0
 17 25  1  0
 19 26  1  0
 20 27  1  0
  7 13  1  0
M  ISO  5   8  14   9  14  10  14  15   8  18   8
M  END
>  <DihAtoms>  (1) 
4,6,12,11

>  <DihDeg>  (1) 
66.43997718117221

$$$$
