
     RDKit          3D

 27 28  0  0  0  0  0  0  0  0999 V2000
   37.2612   30.1762   51.4182 C   0  0  0  0  0  0  0  0  0  0  0  0
   38.1172   30.7589   50.4732 C   0  0  0  0  0  0  0  0  0  0  0  0
   37.8411   30.5455   49.1229 C   0  0  0  0  0  0  0  0  0  0  0  0
   36.7702   29.7926   48.7688 N   0  0  0  0  0  0  0  0  0  0  0  0
   35.9634   29.2445   49.7140 C   0  0  0  0  0  0  0  0  0  0  0  0
   36.2076   29.4352   51.0325 N   0  0  0  0  0  0  0  0  0  0  0  0
   34.5412   28.2461   49.3043 S   0  0  0  0  0  0  0  0  0  0  0  0
   37.4606   30.3317   52.4626 H   0  0  0  0  0  0  0  0  0  0  0  0
   38.9670   31.3569   50.8187 H   0  0  0  0  0  0  0  0  0  0  0  0
   38.4801   30.9799   48.3758 H   0  0  0  0  0  0  0  0  0  0  0  0
   33.9477   30.6515   50.8833 O   0  0  0  0  0  0  0  0  0  0  0  0
   33.4160   30.7288   49.5966 C   0  0  1  0  0  0  0  0  0  0  0  0
   33.1159   29.3168   49.1482 C   0  0  1  0  0  0  0  0  0  0  0  0
   32.5856   29.3778   47.7307 C   0  0  2  0  0  0  0  0  0  0  0  0
   31.7318   28.6767   47.5633 H   0  0  0  0  0  0  0  0  0  0  0  0
   32.2857   30.6914   47.3584 O   0  0  0  0  0  0  0  0  0  0  0  0
   31.4386   31.3011   48.2792 C   0  0  2  0  0  0  0  0  0  0  0  0
   30.4657   30.7513   48.3526 H   0  0  0  0  0  0  0  0  0  0  0  0
   32.0979   31.4823   49.6241 C   0  0  2  0  0  0  0  0  0  0  0  0
   32.3101   32.8463   49.9002 O   0  0  0  0  0  0  0  0  0  0  0  0
   34.4955   31.4813   51.0381 H   0  0  0  0  0  0  0  0  0  0  0  0
   34.0892   31.2754   48.9059 H   0  0  0  0  0  0  0  0  0  0  0  0
   32.2450   28.9726   49.7791 H   0  0  0  0  0  0  0  0  0  0  0  0
   33.3953   29.0331   47.0548 H   0  0  0  0  0  0  0  0  0  0  0  0
   31.1952   32.3088   47.8828 H   0  0  0  0  0  0  0  0  0  0  0  0
   31.4863   30.9869   50.4272 H   0  0  0  0  0  0  0  0  0  0  0  0
   32.3685   32.8954   50.9046 H   0  0  0  0  0  0  0  0  0  0  0  0
  2  1  2  0
  3  2  1  0
  4  3  2  0
  4  5  1  0
  5  6  2  0
  6  1  1  0
  7  5  1  0
  1  8  1  0
  2  9  1  0
  3 10  1  0
 11 12  1  0
 12 13  1  0
 13 14  1  0
 14 15  1  1
 14 16  1  0
 16 17  1  0
 17 18  1  1
 17 19  1  0
 19 20  1  0
 19 12  1  0
 11 21  1  0
 12 22  1  6
 13 23  1  1
 14 24  1  0
 17 25  1  0
 19 26  1  1
 20 27  1  0
  7 13  1  0
M  ISO  5   8  14   9  14  10  14  15   8  18   8
M  END
>  <DihAtoms>  (1) 
4,6,12,11

>  <DihDeg>  (1) 
66.43997718117221

$$$$
