
     RDKit          3D

 27 28  0  0  0  0  0  0  0  0999 V2000
   37.2612   30.1762   51.4182 C   0  0  0  0  0  0  0  0  0  0  0  0
   38.1172   30.7589   50.4732 C   0  0  0  0  0  0  0  0  0  0  0  0
   37.8411   30.5455   49.1229 C   0  0  0  0  0  0  0  0  0  0  0  0
   36.7702   29.7926   48.7688 N   0  0  0  0  0  0  0  0  0  0  0  0
   35.9634   29.2445   49.7140 C   0  0  0  0  0  0  0  0  0  0  0  0
   36.2076   29.4352   51.0325 N   0  0  0  0  0  0  0  0  0  0  0  0
   34.5412   28.2461   49.3043 S   0  0  0  0  0  0  0  0  0  0  0  0
   37.4606   30.3317   52.4626 H   0  0  0  0  0  0  0  0  0  0  0  0
   38.9670   31.3569   50.8187 H   0  0  0  0  0  0  0  0  0  0  0  0
   38.4801   30.9799   48.3758 H   0  0  0  0  0  0  0  0  0  0  0  0
   32.3085   27.9638   47.4158 O   0  0  0  0  0  0  0  0  0  0  0  0
   31.9131   28.5829   48.6010 C   0  0  1  0  0  0  0  0  0  0  0  0
   33.1159   29.3168   49.1482 C   0  0  1  0  0  0  0  0  0  0  0  0
   32.7183   29.9528   50.4641 C   0  0  2  0  0  0  0  0  0  0  0  0
   33.1337   30.9832   50.5835 H   0  0  0  0  0  0  0  0  0  0  0  0
   31.3339   29.9045   50.6519 O   0  0  0  0  0  0  0  0  0  0  0  0
   30.6530   30.4426   49.5637 C   0  0  2  0  0  0  0  0  0  0  0  0
   30.9258   31.5184   49.4136 H   0  0  0  0  0  0  0  0  0  0  0  0
   30.8444   29.6224   48.3120 C   0  0  2  0  0  0  0  0  0  0  0  0
   29.6398   29.0039   47.9273 O   0  0  0  0  0  0  0  0  0  0  0  0
   31.6863   27.1898   47.2528 H   0  0  0  0  0  0  0  0  0  0  0  0
   31.4770   27.8582   49.3176 H   0  0  0  0  0  0  0  0  0  0  0  0
   33.2976   30.1787   48.4418 H   0  0  0  0  0  0  0  0  0  0  0  0
   33.1705   29.3496   51.2782 H   0  0  0  0  0  0  0  0  0  0  0  0
   29.5720   30.4298   49.8151 H   0  0  0  0  0  0  0  0  0  0  0  0
   31.2638   30.2622   47.4879 H   0  0  0  0  0  0  0  0  0  0  0  0
   29.7482   28.8295   46.9411 H   0  0  0  0  0  0  0  0  0  0  0  0
  2  1  2  0
  3  2  1  0
  4  3  2  0
  4  5  1  0
  5  6  2  0
  6  1  1  0
  7  5  1  0
  1  8  1  0
  2  9  1  0
  3 10  1  0
 11 12  1  0
 12 13  1  0
 13 14  1  0
 14 15  1  6
 14 16  1  0
 16 17  1  0
 17 18  1  6
 17 19  1  0
 19 20  1  0
 19 12  1  0
 11 21  1  0
 12 22  1  1
 13 23  1  6
 14 24  1  0
 17 25  1  0
 19 26  1  6
 20 27  1  0
  7 13  1  0
M  ISO  5   8  14   9  14  10  14  15   8  18   8
M  END
>  <DihAtoms>  (1) 
4,6,12,11

>  <DihDeg>  (1) 
66.43997718117221

$$$$
