
     RDKit          3D

 53 56  0  0  1  0  0  0  0  0999 V2000
   39.6480   32.9010   44.1580 C   0  0  0  0  0  0  0  0  0  0  0  0
   39.5060   29.6530   42.7730 C   0  0  1  0  0  0  0  0  0  0  0  0
   39.8000   31.0980   42.4520 C   0  0  0  0  0  0  0  0  0  0  0  0
   40.3140   31.5910   43.7780 C   0  0  2  0  0  0  0  0  0  0  0  0
   40.1140   30.6120   44.7170 O   0  0  0  0  0  0  0  0  0  0  0  0
   39.1400   29.7560   44.2470 C   0  0  0  0  0  0  0  0  0  0  0  0
   38.4610   29.1490   42.0250 O   0  0  0  0  0  0  0  0  0  0  0  0
   37.3500   27.1360   41.7190 C   0  0  1  0  0  0  0  0  0  0  0  0
   38.6760   27.8550   41.5690 C   0  0  2  0  0  0  0  0  0  0  0  0
   39.7020   27.1150   42.3640 C   0  0  0  0  0  0  0  0  0  0  0  0
   39.2830   25.9230   42.9030 O   0  0  0  0  0  0  0  0  0  0  0  0
   38.6570   25.0910   41.9910 C   0  0  0  0  0  0  0  0  0  0  0  0
   37.4780   25.7040   41.3050 C   0  0  2  0  0  0  0  0  0  0  0  0
   36.7980   27.2800   42.9850 O   0  0  0  0  0  0  0  0  0  0  0  0
   37.6640   25.6790   39.9110 O   0  0  0  0  0  0  0  0  0  0  0  0
   40.5280   33.5610   45.6090 S   0  0  0  0  0  0  0  0  0  0  0  0
   37.7580   31.8960   47.9100 C   0  0  0  0  0  0  0  0  0  0  0  0
   37.8780   32.5790   49.1370 C   0  0  0  0  0  0  0  0  0  0  0  0
   38.8200   33.5790   49.2990 C   0  0  0  0  0  0  0  0  0  0  0  0
   39.6130   33.8570   48.2090 C   0  0  0  0  0  0  0  0  0  0  0  0
   39.4700   33.1790   47.0400 C   0  0  0  0  0  0  0  0  0  0  0  0
   38.5530   32.1970   46.8650 N   0  0  0  0  0  0  0  0  0  0  0  0
   36.7560   30.8680   47.8170 C   0  0  0  0  0  0  0  0  0  0  0  0
   36.3800   30.4450   46.7310 O   0  0  0  0  0  0  0  0  0  0  0  0
   36.9650   29.6180   49.9430 C   0  0  0  0  0  0  0  0  0  0  0  0
   36.1320   30.2720   49.0060 C   0  0  0  0  0  0  0  0  0  0  0  0
   34.7500   30.3270   49.2440 C   0  0  0  0  0  0  0  0  0  0  0  0
   34.2570   29.7460   50.3730 N   0  0  0  0  0  0  0  0  0  0  0  0
   35.0780   29.1280   51.2510 C   0  0  0  0  0  0  0  0  0  0  0  0
   36.4040   29.0650   51.0410 N   0  0  0  0  0  0  0  0  0  0  0  0
   38.5909   32.7266   44.4071 H   0  0  0  0  0  0  0  0  0  0  0  0
   39.6902   33.6142   43.3216 H   0  0  0  0  0  0  0  0  0  0  0  0
   40.3382   28.9686   42.5514 H   0  0  0  0  0  0  0  0  0  0  0  0
   40.5625   31.1893   41.6645 H   0  0  0  0  0  0  0  0  0  0  0  0
   38.9375   31.6597   42.0641 H   0  0  0  0  0  0  0  0  0  0  0  0
   41.3923   31.7988   43.7149 H   0  0  0  0  0  0  0  0  0  0  0  0
   38.1341   30.1802   44.3818 H   0  0  0  0  0  0  0  0  0  0  0  0
   39.1068   28.7877   44.7679 H   0  0  0  0  0  0  0  0  0  0  0  0
   36.6341   27.6182   41.0371 H   0  0  0  0  0  0  0  0  0  0  0  0
   39.0459   27.8958   40.5339 H   0  0  0  0  0  0  0  0  0  0  0  0
   40.5573   26.9071   41.7043 H   0  0  0  0  0  0  0  0  0  0  0  0
   39.9492   27.7632   43.2176 H   0  0  0  0  0  0  0  0  0  0  0  0
   39.3920   24.8063   41.2237 H   0  0  0  0  0  0  0  0  0  0  0  0
   38.2768   24.2300   42.5603 H   0  0  0  0  0  0  0  0  0  0  0  0
   36.5786   25.1337   41.5803 H   0  0  0  0  0  0  0  0  0  0  0  0
   37.4902   27.0994   43.6693 H   0  0  0  0  0  0  0  0  0  0  0  0
   38.6244   25.5499   39.7085 H   0  0  0  0  0  0  0  0  0  0  0  0
   37.2158   32.3142   49.9744 H   0  0  0  0  0  0  0  0  0  0  0  0
   38.9295   34.1232   50.2487 H   0  0  0  0  0  0  0  0  0  0  0  0
   40.3779   34.6438   48.2856 H   0  0  0  0  0  0  0  0  0  0  0  0
   38.0515   29.5604   49.7808 H   0  0  0  0  0  0  0  0  0  0  0  0
   34.0781   30.8295   48.5327 H   0  0  0  0  0  0  0  0  0  0  0  0
   34.6526   28.6677   52.1550 H   0  0  0  0  0  0  0  0  0  0  0  0
  1 16  1  0
  2  6  1  0
  3  2  1  0
  3  4  1  0
  4  1  1  0
  4  5  1  0
  6  5  1  0
  7  2  1  0
  8 14  1  0
  9  8  1  0
  9  7  1  0
  9 10  1  0
 10 11  1  0
 12 11  1  0
 13 15  1  0
 13  8  1  0
 13 12  1  0
 16 21  1  0
 17 18  2  0
 18 19  1  0
 20 19  2  0
 21 20  1  0
 22 21  2  0
 22 17  1  0
 23 17  1  0
 23 26  1  0
 24 23  2  0
 25 30  2  0
 26 27  2  0
 26 25  1  0
 27 28  1  0
 28 29  2  0
 30 29  1  0
  1 31  1  0
  1 32  1  0
  2 33  1  1
  3 34  1  0
  3 35  1  0
  4 36  1  6
  6 37  1  0
  6 38  1  0
  8 39  1  6
  9 40  1  6
 10 41  1  0
 10 42  1  0
 12 43  1  0
 12 44  1  0
 13 45  1  6
 14 46  1  0
 15 47  1  0
 18 48  1  0
 19 49  1  0
 20 50  1  0
 25 51  1  0
 27 52  1  0
 29 53  1  0
M  ISO  8  31   8  32   8  33  13  34  13  35  13  36  13  37  13  38  13
M  ISO  8  39  13  40  13  41  13  42  13  43  13  44  13  45  13  46   3
M  ISO  7  47   3  48  14  49  14  50  14  51  14  52  14  53  14
M  END
>  <minimizedAffinity>  (1) 
-5.61029625

>  <minimizedRMSD>  (1) 
1.2292459

$$$$
