
     RDKit          3D

 37 39  0  0  0  0  0  0  0  0999 V2000
   36.9790   31.4214   48.5718 N   0  0  0  0  0  0  0  0  0  0  0  0
   37.1581   32.1663   49.6638 C   0  0  0  0  0  0  0  0  0  0  0  0
   38.1510   33.1504   49.6765 C   0  0  0  0  0  0  0  0  0  0  0  0
   38.8688   33.2530   48.5163 C   0  0  0  0  0  0  0  0  0  0  0  0
   39.7748   34.1410   48.5089 O   0  0  0  0  0  0  0  0  0  0  0  0
   38.7187   32.5306   47.4128 N   0  0  0  0  0  0  0  0  0  0  0  0
   37.7417   31.5886   47.4508 C   0  0  0  0  0  0  0  0  0  0  0  0
   37.5839   30.8845   46.3969 O   0  0  0  0  0  0  0  0  0  0  0  0
   36.1639   29.2472   49.3004 C   0  0  0  0  0  0  0  0  0  0  0  0
   35.9927   30.4076   48.4894 C   0  0  0  0  0  0  0  0  0  0  0  0
   34.8731   30.4481   47.6856 C   0  0  0  0  0  0  0  0  0  0  0  0
   34.0011   29.4041   47.7008 N   0  0  0  0  0  0  0  0  0  0  0  0
   34.1780   28.3293   48.4648 C   0  0  0  0  0  0  0  0  0  0  0  0
   35.2689   28.2368   49.2796 N   0  0  0  0  0  0  0  0  0  0  0  0
   33.3004   27.2643   48.4886 O   0  0  0  0  0  0  0  0  0  0  0  0
   36.5293   32.0000   50.5331 H   0  0  0  0  0  0  0  0  0  0  0  0
   38.3217   33.7713   50.5463 H   0  0  0  0  0  0  0  0  0  0  0  0
   39.3136   32.6750   46.5655 H   0  0  0  0  0  0  0  0  0  0  0  0
   37.0344   29.1792   49.9472 H   0  0  0  0  0  0  0  0  0  0  0  0
   34.7472   31.3232   47.0762 H   0  0  0  0  0  0  0  0  0  0  0  0
   32.4574   26.9302   45.4036 O   0  0  0  0  0  0  0  0  0  0  0  0
   32.2325   26.2034   46.5803 C   0  0  1  0  0  0  0  0  0  0  0  0
   32.1327   27.1406   47.7492 C   0  0  1  0  0  0  0  0  0  0  0  0
   30.9566   26.6675   48.6040 C   0  0  1  0  0  0  0  0  0  0  0  0
   31.1360   25.6250   48.9438 H   0  0  0  0  0  0  0  0  0  0  0  0
   29.7725   26.8263   47.9129 O   0  0  0  0  0  0  0  0  0  0  0  0
   29.7167   26.1255   46.7349 C   0  0  2  0  0  0  0  0  0  0  0  0
   29.4040   26.7456   45.8643 H   0  0  0  0  0  0  0  0  0  0  0  0
   30.9669   25.3992   46.3671 C   0  0  2  0  0  0  0  0  0  0  0  0
   31.0666   24.1492   47.0084 O   0  0  0  0  0  0  0  0  0  0  0  0
   32.1083   27.8617   45.4981 H   0  0  0  0  0  0  0  0  0  0  0  0
   33.0382   25.4265   46.7198 H   0  0  0  0  0  0  0  0  0  0  0  0
   31.8867   28.1456   47.3505 H   0  0  0  0  0  0  0  0  0  0  0  0
   30.9148   27.3007   49.5053 H   0  0  0  0  0  0  0  0  0  0  0  0
   28.9192   25.3322   46.8176 H   0  0  0  0  0  0  0  0  0  0  0  0
   30.8897   25.1559   45.2682 H   0  0  0  0  0  0  0  0  0  0  0  0
   32.0002   23.8466   47.1045 H   0  0  0  0  0  0  0  0  0  0  0  0
  1  2  1  0
  2  3  2  0
  4  5  2  0
  4  3  1  0
  6  7  1  0
  6  4  1  0
  7  1  1  0
  8  7  2  0
 10  1  1  0
 10  9  2  0
 11 12  2  0
 11 10  1  0
 12 13  1  0
 13 15  1  0
 13 14  2  0
 14  9  1  0
  2 16  1  0
  3 17  1  0
  6 18  1  0
  9 19  1  0
 11 20  1  0
 21 22  1  0
 22 23  1  0
 23 24  1  0
 24 25  1  1
 24 26  1  0
 26 27  1  0
 27 28  1  6
 27 29  1  0
 29 30  1  0
 29 22  1  0
 21 31  1  0
 22 32  1  1
 23 33  1  6
 24 34  1  0
 27 35  1  0
 29 36  1  6
 30 37  1  0
 15 23  1  0
M  ISO  7  16  14  17  14  18   9  19  14  20  14  25   8  28   8
M  END
>  <DihAtoms>  (1) 
12,14,22,21

>  <DihDeg>  (1) 
119.19743833209883

$$$$
