
     RDKit          3D

 31 33  0  0  1  0  0  0  0  0999 V2000
   37.4700   31.0540   47.0170 C   0  0  2  0  0  0  0  0  0  0  0  0
   37.4050   31.7990   48.3750 C   0  0  2  0  0  0  0  0  0  0  0  0
   38.7970   32.2610   48.4750 C   0  0  0  0  0  0  0  0  0  0  0  0
   39.1840   32.6400   47.1940 O   0  0  0  0  0  0  0  0  0  0  0  0
   38.3410   32.0660   46.2770 C   0  0  0  0  0  0  0  0  0  0  0  0
   37.1640   29.8180   51.5820 C   0  0  0  0  0  0  0  0  0  0  0  0
   37.6970   30.6710   50.5780 C   0  0  0  0  0  0  0  0  0  0  0  0
   36.9140   30.9550   49.4360 C   0  0  0  0  0  0  0  0  0  0  0  0
   35.6620   30.3810   49.3640 N   0  0  0  0  0  0  0  0  0  0  0  0
   35.1940   29.5850   50.3260 C   0  0  0  0  0  0  0  0  0  0  0  0
   35.9280   29.2940   51.4410 N   0  0  0  0  0  0  0  0  0  0  0  0
   36.1980   30.9940   46.4460 O   0  0  0  0  0  0  0  0  0  0  0  0
   35.7890   30.0720   45.5280 C   0  0  0  0  0  0  0  0  0  0  0  0
   36.3070   29.7810   44.2840 C   0  0  0  0  0  0  0  0  0  0  0  0
   35.8050   28.8270   43.4530 C   0  0  0  0  0  0  0  0  0  0  0  0
   34.7210   28.1060   43.8630 C   0  0  0  0  0  0  0  0  0  0  0  0
   34.2000   28.3970   45.1120 C   0  0  0  0  0  0  0  0  0  0  0  0
   34.7050   29.3470   45.9320 N   0  0  0  0  0  0  0  0  0  0  0  0
   37.8314   30.0152   47.0339 H   0  0  0  0  0  0  0  0  0  0  0  0
   36.6884   32.6298   48.4547 H   0  0  0  0  0  0  0  0  0  0  0  0
   38.8637   33.1185   49.1607 H   0  0  0  0  0  0  0  0  0  0  0  0
   39.4504   31.4681   48.8680 H   0  0  0  0  0  0  0  0  0  0  0  0
   38.9264   31.5570   45.4971 H   0  0  0  0  0  0  0  0  0  0  0  0
   37.7163   32.8326   45.7953 H   0  0  0  0  0  0  0  0  0  0  0  0
   37.7602   29.5842   52.4763 H   0  0  0  0  0  0  0  0  0  0  0  0
   38.7026   31.1032   50.6878 H   0  0  0  0  0  0  0  0  0  0  0  0
   34.1891   29.1506   50.2189 H   0  0  0  0  0  0  0  0  0  0  0  0
   37.1803   30.3555   43.9417 H   0  0  0  0  0  0  0  0  0  0  0  0
   36.2637   28.6408   42.4707 H   0  0  0  0  0  0  0  0  0  0  0  0
   34.2792   27.3251   43.2265 H   0  0  0  0  0  0  0  0  0  0  0  0
   33.3268   27.8239   45.4569 H   0  0  0  0  0  0  0  0  0  0  0  0
  1  2  1  0
  2  3  1  0
  2  8  1  0
  4  3  1  0
  5  1  1  0
  5  4  1  0
  7  6  2  0
  8  7  1  0
  9  8  2  0
  9 10  1  0
 10 11  2  0
 11  6  1  0
 12  1  1  0
 13 18  1  0
 13 12  1  0
 14 13  2  0
 15 16  2  0
 15 14  1  0
 16 17  1  0
 17 18  2  0
  1 19  1  1
  2 20  1  6
  3 21  1  0
  3 22  1  0
  5 23  1  0
  5 24  1  0
  6 25  1  0
  7 26  1  0
 10 27  1  0
 14 28  1  0
 15 29  1  0
 16 30  1  0
 17 31  1  0
M  ISO  8  19  13  20  13  21  13  22  13  23  13  24  13  25  14  26  14
M  ISO  5  27  14  28  14  29  14  30  14  31  14
M  END
>  <minimizedAffinity>  (1) 
-4.49157

>  <minimizedRMSD>  (1) 
1.03299701

$$$$
