
     RDKit          3D

 37 39  0  0  0  0  0  0  0  0999 V2000
   38.4970   31.7370   48.2820 Br  0  0  0  0  0  0  0  0  0  0  0  0
   37.3610   31.1220   46.9190 C   0  0  0  0  0  0  0  0  0  0  0  0
   36.2950   30.3820   47.3220 C   0  0  0  0  0  0  0  0  0  0  0  0
   35.3980   29.8860   46.3630 C   0  0  0  0  0  0  0  0  0  0  0  0
   35.6130   30.1570   45.0230 C   0  0  0  0  0  0  0  0  0  0  0  0
   36.7020   30.9050   44.6890 C   0  0  0  0  0  0  0  0  0  0  0  0
   37.5900   31.4010   45.6030 C   0  0  0  0  0  0  0  0  0  0  0  0
   36.7970   29.4510   49.6210 C   0  0  0  0  0  0  0  0  0  0  0  0
   35.9260   30.0070   48.6940 C   0  0  0  0  0  0  0  0  0  0  0  0
   34.5950   30.2210   49.1110 C   0  0  0  0  0  0  0  0  0  0  0  0
   34.2550   29.8710   50.3870 N   0  0  0  0  0  0  0  0  0  0  0  0
   35.1480   29.3370   51.2350 C   0  0  0  0  0  0  0  0  0  0  0  0
   36.4240   29.1240   50.8580 N   0  0  0  0  0  0  0  0  0  0  0  0
   38.7340   32.1830   45.2770 N   0  0  0  0  0  0  0  0  0  0  0  0
   40.3570   31.7850   44.9630 S   0  0  0  0  0  0  0  0  0  0  0  0
   40.8150   30.6490   45.8040 O   0  0  0  0  0  0  0  0  0  0  0  0
   41.2340   32.9740   45.2750 O   0  0  0  0  0  0  0  0  0  0  0  0
   40.4930   31.3930   43.3200 O   0  0  0  0  0  0  0  0  0  0  0  0
   39.6850   30.3750   42.8410 C   0  0  0  0  0  0  0  0  0  0  0  0
   38.9650   30.7450   41.7420 C   0  0  0  0  0  0  0  0  0  0  0  0
   38.0900   29.8790   41.0990 C   0  0  0  0  0  0  0  0  0  0  0  0
   37.9420   28.5800   41.5970 C   0  0  0  0  0  0  0  0  0  0  0  0
   38.6980   28.2620   42.7140 C   0  0  0  0  0  0  0  0  0  0  0  0
   39.5560   29.1130   43.3420 N   0  0  0  0  0  0  0  0  0  0  0  0
   34.5302   29.2861   46.6744 H   0  0  0  0  0  0  0  0  0  0  0  0
   34.9258   29.7801   44.2511 H   0  0  0  0  0  0  0  0  0  0  0  0
   36.8765   31.1219   43.6248 H   0  0  0  0  0  0  0  0  0  0  0  0
   37.8403   29.2726   49.3216 H   0  0  0  0  0  0  0  0  0  0  0  0
   33.8518   30.6575   48.4276 H   0  0  0  0  0  0  0  0  0  0  0  0
   34.8330   29.0689   52.2543 H   0  0  0  0  0  0  0  0  0  0  0  0
   38.5395   33.1928   45.2199 H   0  0  0  0  0  0  0  0  0  0  0  0
   40.7192   30.8867   46.7603 H   0  0  0  0  0  0  0  0  0  0  0  0
   41.3112   33.0786   46.2564 H   0  0  0  0  0  0  0  0  0  0  0  0
   39.0821   31.7666   41.3512 H   0  0  0  0  0  0  0  0  0  0  0  0
   37.5241   30.2082   40.2150 H   0  0  0  0  0  0  0  0  0  0  0  0
   37.2636   27.8520   41.1282 H   0  0  0  0  0  0  0  0  0  0  0  0
   38.5976   27.2463   43.1241 H   0  0  0  0  0  0  0  0  0  0  0  0
  2  3  2  0
  2  1  1  0
  3  9  1  0
  4  3  1  0
  5  4  2  0
  6  5  1  0
  6  7  2  0
  7  2  1  0
  8 13  2  0
  9 10  2  0
  9  8  1  0
 10 11  1  0
 11 12  2  0
 13 12  1  0
 14  7  1  0
 15 17  1  0
 15 14  1  0
 15 16  1  0
 18 15  1  0
 19 18  1  0
 19 24  1  0
 20 19  2  0
 21 22  2  0
 21 20  1  0
 22 23  1  0
 23 24  2  0
  4 25  1  0
  5 26  1  0
  6 27  1  0
  8 28  1  0
 10 29  1  0
 12 30  1  0
 14 31  1  0
 16 32  1  0
 17 33  1  0
 20 34  1  0
 21 35  1  0
 22 36  1  0
 23 37  1  0
M  ISO  8  25  14  26  14  27  14  28  14  29  14  30  14  32   3  33   3
M  ISO  4  34  14  35  14  36  14  37  14
M  END
>  <minimizedAffinity>  (1) 
-5.54353285

>  <minimizedRMSD>  (1) 
3.29514742

$$$$
