
     RDKit          3D

 32 33  0  0  0  0  0  0  0  0999 V2000
   33.3640   27.9120   47.3820 C   0  0  0  0  0  0  0  0  0  0  0  0
   34.8740   28.4120   49.2820 C   0  0  0  0  0  0  0  0  0  0  0  0
   34.4790   28.6230   48.0540 C   0  0  0  0  0  0  0  0  0  0  0  0
   37.2390   30.1280   51.4770 C   0  0  0  0  0  0  0  0  0  0  0  0
   38.1220   30.7320   50.5630 C   0  0  0  0  0  0  0  0  0  0  0  0
   37.8700   30.5250   49.2100 C   0  0  0  0  0  0  0  0  0  0  0  0
   36.7920   29.7560   48.8610 N   0  0  0  0  0  0  0  0  0  0  0  0
   35.9890   29.2090   49.7670 C   0  0  0  0  0  0  0  0  0  0  0  0
   36.2160   29.3970   51.0700 N   0  0  0  0  0  0  0  0  0  0  0  0
   32.6940   27.0530   48.2550 O   0  0  0  0  0  0  0  0  0  0  0  0
   30.3300   26.3150   47.6370 O   0  0  0  0  0  0  0  0  0  0  0  0
   31.0420   27.5040   48.2890 P   0  0  2  0  0  0  0  0  0  0  0  0
   30.8690   28.8870   47.3370 O   0  0  0  0  0  0  0  0  0  0  0  0
   30.5080   27.7550   49.8680 O   0  0  0  0  0  0  0  0  0  0  0  0
   29.1590   27.9350   50.1130 C   0  0  0  0  0  0  0  0  0  0  0  0
   28.6110   27.1170   51.0860 C   0  0  0  0  0  0  0  0  0  0  0  0
   27.2740   27.2020   51.4200 C   0  0  0  0  0  0  0  0  0  0  0  0
   26.4900   28.1390   50.7470 C   0  0  0  0  0  0  0  0  0  0  0  0
   27.0460   28.9360   49.7920 C   0  0  0  0  0  0  0  0  0  0  0  0
   28.3600   28.8330   49.4830 N   0  0  0  0  0  0  0  0  0  0  0  0
   32.6501   28.6544   46.9957 H   0  0  0  0  0  0  0  0  0  0  0  0
   33.7872   27.3075   46.5662 H   0  0  0  0  0  0  0  0  0  0  0  0
   34.3836   27.6632   49.9213 H   0  0  0  0  0  0  0  0  0  0  0  0
   35.0155   29.3878   47.4733 H   0  0  0  0  0  0  0  0  0  0  0  0
   37.4041   30.2675   52.5556 H   0  0  0  0  0  0  0  0  0  0  0  0
   38.9732   31.3404   50.9026 H   0  0  0  0  0  0  0  0  0  0  0  0
   38.5200   30.9677   48.4408 H   0  0  0  0  0  0  0  0  0  0  0  0
   30.7698   29.6798   47.9216 H   0  0  0  0  0  0  0  0  0  0  0  0
   29.2517   26.3867   51.6020 H   0  0  0  0  0  0  0  0  0  0  0  0
   26.8404   26.5507   52.1932 H   0  0  0  0  0  0  0  0  0  0  0  0
   25.4209   28.2347   50.9877 H   0  0  0  0  0  0  0  0  0  0  0  0
   26.4199   29.6717   49.2659 H   0  0  0  0  0  0  0  0  0  0  0  0
  1  3  1  0
  1 10  1  0
  2  8  1  0
  3  2  2  0
  5  4  2  0
  6  5  1  0
  7  6  2  0
  7  8  1  0
  8  9  2  0
  9  4  1  0
 10 12  1  0
 12 11  2  0
 12 14  1  0
 13 12  1  0
 14 15  1  0
 15 16  2  0
 16 17  1  0
 18 17  2  0
 19 18  1  0
 20 19  2  0
 20 15  1  0
  1 21  1  0
  1 22  1  0
  2 23  1  0
  3 24  1  0
  4 25  1  0
  5 26  1  0
  6 27  1  0
 13 28  1  0
 16 29  1  0
 17 30  1  0
 18 31  1  0
 19 32  1  0
M  ISO  8  21   8  22   8  25  14  26  14  27  14  28   3  29  14  30  14
M  ISO  2  31  14  32  14
M  END
>  <minimizedAffinity>  (1) 
-6.05570555

>  <minimizedRMSD>  (1) 
1.54887176

$$$$
