
     RDKit          3D

 26 27  0  0  0  0  0  0  0  0999 V2000
   37.3217   30.2253   51.4190 C   0  0  0  0  0  0  0  0  0  0  0  0
   38.0427   30.6674   50.3007 C   0  0  0  0  0  0  0  0  0  0  0  0
   37.6165   30.2819   49.0357 C   0  0  0  0  0  0  0  0  0  0  0  0
   36.5053   29.4860   48.9823 N   0  0  0  0  0  0  0  0  0  0  0  0
   35.8290   29.0740   50.0728 C   0  0  0  0  0  0  0  0  0  0  0  0
   36.2577   29.4577   51.2837 N   0  0  0  0  0  0  0  0  0  0  0  0
   34.7555   28.2868   49.7391 O   0  0  0  0  0  0  0  0  0  0  0  0
   34.2002   28.4080   48.4530 C   0  0  0  0  0  0  0  0  0  0  0  0
   33.8266   27.0438   47.9157 C   0  0  0  0  0  0  0  0  0  0  0  0
   37.6928   30.5513   52.3715 H   0  0  0  0  0  0  0  0  0  0  0  0
   38.9335   31.3034   50.3101 H   0  0  0  0  0  0  0  0  0  0  0  0
   38.1290   30.5890   48.1283 H   0  0  0  0  0  0  0  0  0  0  0  0
   34.8718   28.9496   47.7564 H   0  0  0  0  0  0  0  0  0  0  0  0
   33.2891   29.0466   48.5572 H   0  0  0  0  0  0  0  0  0  0  0  0
   34.7479   26.4006   48.0014 H   0  0  0  0  0  0  0  0  0  0  0  0
   33.5248   27.0635   46.8682 H   0  0  0  0  0  0  0  0  0  0  0  0
   32.8304   26.4374   48.8381 C   0  0  0  0  0  0  0  0  0  0  0  0
   32.8681   25.0533   48.8989 C   0  0  0  0  0  0  0  0  0  0  0  0
   33.5616   24.4397   48.3271 H   0  0  0  0  0  0  0  0  0  0  0  0
   31.9489   24.4438   49.7533 C   0  0  0  0  0  0  0  0  0  0  0  0
   31.9822   23.3474   49.7984 H   0  0  0  0  0  0  0  0  0  0  0  0
   31.0343   25.1578   50.5138 C   0  0  0  0  0  0  0  0  0  0  0  0
   31.0597   26.5495   50.3968 C   0  0  0  0  0  0  0  0  0  0  0  0
   31.9477   27.1480   49.5706 N   0  0  0  0  0  0  0  0  0  0  0  0
   30.3448   24.6129   51.1607 H   0  0  0  0  0  0  0  0  0  0  0  0
   30.3541   27.1207   50.9820 H   0  0  0  0  0  0  0  0  0  0  0  0
  2  1  2  0
  3  2  1  0
  4  3  2  0
  4  5  1  0
  5  6  2  0
  6  1  1  0
  7  5  1  0
  8  7  1  0
  9  8  1  0
  1 10  1  0
  2 11  1  0
  3 12  1  0
  8 13  1  0
  8 14  1  0
  9 15  1  0
  9 16  1  0
 17 18  2  0
 18 19  1  0
 18 20  1  0
 20 21  1  0
 20 22  2  0
 22 23  1  0
 23 24  2  0
 24 17  1  0
 22 25  1  0
 23 26  1  0
  9 17  1  0
M  ISO  8  10  14  11  14  12  14  13   8  14   8  15   8  16   8  19  15
M  ISO  1  21  16
M  END
>  <DihAtoms>  (1) 
7,8,16,17

>  <DihDeg>  (1) 
89.99951538518576

$$$$
