
     RDKit          3D

 33 35  0  0  0  0  0  0  0  0999 V2000
   36.9200   31.1260   48.3870 C   0  0  0  0  0  0  0  0  0  0  0  0
   37.2290   32.0930   49.3310 C   0  0  0  0  0  0  0  0  0  0  0  0
   38.1880   33.0520   49.0350 C   0  0  0  0  0  0  0  0  0  0  0  0
   38.8310   33.0460   47.8130 C   0  0  0  0  0  0  0  0  0  0  0  0
   38.4960   32.0710   46.9050 C   0  0  0  0  0  0  0  0  0  0  0  0
   37.5690   31.1610   47.2180 N   0  0  0  0  0  0  0  0  0  0  0  0
   35.0990   28.5530   50.4190 C   0  0  0  0  0  0  0  0  0  0  0  0
   36.1230   29.4550   50.0020 C   0  0  0  0  0  0  0  0  0  0  0  0
   35.9030   30.1990   48.8420 C   0  0  0  0  0  0  0  0  0  0  0  0
   34.7310   30.0250   48.1730 N   0  0  0  0  0  0  0  0  0  0  0  0
   33.7820   29.1480   48.6140 C   0  0  0  0  0  0  0  0  0  0  0  0
   33.9610   28.4210   49.7220 N   0  0  0  0  0  0  0  0  0  0  0  0
   32.6490   29.1420   47.7530 N   0  0  0  0  0  0  0  0  0  0  0  0
   37.3570   29.5550   50.8150 C   0  0  0  0  0  0  0  0  0  0  0  0
   38.4690   29.7860   50.0120 F   0  0  0  0  0  0  0  0  0  0  0  0
   37.2330   30.6040   51.6810 F   0  0  0  0  0  0  0  0  0  0  0  0
   37.6080   28.4200   51.5580 F   0  0  0  0  0  0  0  0  0  0  0  0
   39.1480   32.0240   45.6000 C   0  0  0  0  0  0  0  0  0  0  0  0
   40.1590   31.1150   45.3600 C   0  0  0  0  0  0  0  0  0  0  0  0
   40.6830   31.1790   44.0960 C   0  0  0  0  0  0  0  0  0  0  0  0
   40.3010   32.0370   43.0900 C   0  0  0  0  0  0  0  0  0  0  0  0
   39.2760   32.9230   43.4130 C   0  0  0  0  0  0  0  0  0  0  0  0
   38.7400   32.8850   44.6480 N   0  0  0  0  0  0  0  0  0  0  0  0
   36.7190   32.1003   50.3056 H   0  0  0  0  0  0  0  0  0  0  0  0
   38.4376   33.8224   49.7794 H   0  0  0  0  0  0  0  0  0  0  0  0
   39.5922   33.8028   47.5727 H   0  0  0  0  0  0  0  0  0  0  0  0
   35.2460   27.9542   51.3300 H   0  0  0  0  0  0  0  0  0  0  0  0
   31.8489   28.5270   47.9590 H   0  0  0  0  0  0  0  0  0  0  0  0
   32.6291   29.7527   46.9238 H   0  0  0  0  0  0  0  0  0  0  0  0
   40.5131   30.4011   46.1182 H   0  0  0  0  0  0  0  0  0  0  0  0
   41.4922   30.4720   43.8609 H   0  0  0  0  0  0  0  0  0  0  0  0
   40.7738   32.0239   42.0969 H   0  0  0  0  0  0  0  0  0  0  0  0
   38.9088   33.6449   42.6686 H   0  0  0  0  0  0  0  0  0  0  0  0
  1  9  1  0
  1  2  2  0
  3  2  1  0
  4  3  2  0
  5  6  2  0
  5  4  1  0
  6  1  1  0
  8  7  2  0
  8 14  1  0
  9  8  1  0
 10 11  1  0
 10  9  2  0
 11 12  2  0
 12  7  1  0
 13 11  1  0
 14 17  1  0
 14 16  1  0
 15 14  1  0
 18  5  1  0
 19 18  2  0
 20 19  1  0
 21 22  1  0
 21 20  2  0
 22 23  2  0
 23 18  1  0
  2 24  1  0
  3 25  1  0
  4 26  1  0
  7 27  1  0
 13 28  1  0
 13 29  1  0
 19 30  1  0
 20 31  1  0
 21 32  1  0
 22 33  1  0
M  ISO  8  24  14  25  14  26  14  27  14  30  14  31  14  32  14  33  14
M  END
>  <minimizedAffinity>  (1) 
-7.01982212

>  <minimizedRMSD>  (1) 
1.07010388

$$$$
