
     RDKit          3D

 29 31  0  0  0  0  0  0  0  0999 V2000
   37.3681   31.3518   49.2068 C   0  0  0  0  0  0  0  0  0  0  0  0
   37.7126   32.6649   49.5951 C   0  0  0  0  0  0  0  0  0  0  0  0
   38.5858   33.3307   48.7661 C   0  0  0  0  0  0  0  0  0  0  0  0
   39.0609   32.7146   47.6475 N   0  0  0  0  0  0  0  0  0  0  0  0
   38.7047   31.4526   47.3104 C   0  0  0  0  0  0  0  0  0  0  0  0
   37.8342   30.7491   48.1125 N   0  0  0  0  0  0  0  0  0  0  0  0
   36.3862   30.6168   50.0605 C   0  0  0  0  0  0  0  0  0  0  0  0
   36.2627   29.1801   50.0453 C   0  0  0  0  0  0  0  0  0  0  0  0
   37.0571   29.8022   51.1785 C   0  0  0  0  0  0  0  0  0  0  0  0
   39.1946   30.8092   46.1013 C   0  0  0  0  0  0  0  0  0  0  0  0
   37.3069   33.1095   50.4936 H   0  0  0  0  0  0  0  0  0  0  0  0
   38.9073   34.3239   48.9713 H   0  0  0  0  0  0  0  0  0  0  0  0
   35.5940   31.3258   50.4263 H   0  0  0  0  0  0  0  0  0  0  0  0
   36.7782   28.5471   49.3114 H   0  0  0  0  0  0  0  0  0  0  0  0
   35.2329   28.7760   50.2664 H   0  0  0  0  0  0  0  0  0  0  0  0
   36.5193   29.7887   52.1366 H   0  0  0  0  0  0  0  0  0  0  0  0
   38.1470   29.6810   51.1494 H   0  0  0  0  0  0  0  0  0  0  0  0
   39.4383   31.6424   45.3790 H   0  0  0  0  0  0  0  0  0  0  0  0
   38.4567   30.1959   45.5544 H   0  0  0  0  0  0  0  0  0  0  0  0
   40.4499   30.0592   46.2658 C   0  0  0  0  0  0  0  0  0  0  0  0
   40.9461   29.7195   47.5144 C   0  0  0  0  0  0  0  0  0  0  0  0
   40.3551   30.0387   48.3676 H   0  0  0  0  0  0  0  0  0  0  0  0
   42.1238   29.0157   47.6678 C   0  0  0  0  0  0  0  0  0  0  0  0
   42.4989   28.7572   48.6621 H   0  0  0  0  0  0  0  0  0  0  0  0
   42.8076   28.6521   46.5262 C   0  0  0  0  0  0  0  0  0  0  0  0
   42.3224   28.9854   45.2710 C   0  0  0  0  0  0  0  0  0  0  0  0
   41.1717   29.6699   45.2050 N   0  0  0  0  0  0  0  0  0  0  0  0
   43.7334   28.0967   46.7048 H   0  0  0  0  0  0  0  0  0  0  0  0
   42.8965   28.6766   44.4063 H   0  0  0  0  0  0  0  0  0  0  0  0
  1  2  2  0
  1  7  1  0
  3  2  1  0
  4  3  2  0
  5  4  1  0
  5  6  2  0
  6  1  1  0
  7  9  1  0
  8  7  1  0
  8  9  1  0
 10  5  1  0
  2 11  1  0
  3 12  1  0
  7 13  1  0
  8 14  1  0
  8 15  1  0
  9 16  1  0
  9 17  1  0
 10 18  1  0
 10 19  1  0
 20 21  2  0
 21 22  1  0
 21 23  1  0
 23 24  1  0
 23 25  2  0
 25 26  1  0
 26 27  2  0
 27 20  1  0
 25 28  1  0
 26 29  1  0
 10 20  1  0
M  ISO  8  11  14  12  14  13  13  14  13  15  13  16  13  17  13  18   8
M  ISO  3  19   8  22  15  24  16
M  END
>  <DihAtoms>  (1) 
4,9,19,20

>  <DihDeg>  (1) 
-90.00731276353653

$$$$
