
     RDKit          3D

 29 31  0  0  0  0  0  0  0  0999 V2000
   37.8760   31.2900   46.4440 C   0  0  0  0  0  0  0  0  0  0  0  0
   39.2210   31.0170   46.6500 C   0  0  0  0  0  0  0  0  0  0  0  0
   40.2500   31.2700   45.7700 C   0  0  0  0  0  0  0  0  0  0  0  0
   39.8720   31.8470   44.5890 N   0  0  0  0  0  0  0  0  0  0  0  0
   38.5670   32.1270   44.3570 C   0  0  0  0  0  0  0  0  0  0  0  0
   37.6110   31.8540   45.2600 N   0  0  0  0  0  0  0  0  0  0  0  0
   34.8310   29.9910   47.9070 C   0  0  0  0  0  0  0  0  0  0  0  0
   34.9170   30.2930   49.2610 C   0  0  0  0  0  0  0  0  0  0  0  0
   36.0820   30.9740   49.6660 C   0  0  0  0  0  0  0  0  0  0  0  0
   37.0160   31.2840   48.7420 N   0  0  0  0  0  0  0  0  0  0  0  0
   36.8860   30.9710   47.4520 C   0  0  0  0  0  0  0  0  0  0  0  0
   35.7820   30.3070   46.9780 N   0  0  0  0  0  0  0  0  0  0  0  0
   33.8790   29.9210   50.1430 N   0  0  0  0  0  0  0  0  0  0  0  0
   38.1640   32.7420   43.0960 C   0  0  0  0  0  0  0  0  0  0  0  0
   36.8290   32.7560   42.7400 C   0  0  0  0  0  0  0  0  0  0  0  0
   36.3500   33.3160   41.5660 C   0  0  0  0  0  0  0  0  0  0  0  0
   37.3340   33.8680   40.7710 C   0  0  0  0  0  0  0  0  0  0  0  0
   38.6790   33.8800   41.0790 C   0  0  0  0  0  0  0  0  0  0  0  0
   39.0770   33.3090   42.2540 N   0  0  0  0  0  0  0  0  0  0  0  0
   39.4918   30.5532   47.6100 H   0  0  0  0  0  0  0  0  0  0  0  0
   41.2977   31.0262   45.9999 H   0  0  0  0  0  0  0  0  0  0  0  0
   33.9332   29.4596   47.5583 H   0  0  0  0  0  0  0  0  0  0  0  0
   36.2285   31.2493   50.7209 H   0  0  0  0  0  0  0  0  0  0  0  0
   33.9488   30.1478   51.1453 H   0  0  0  0  0  0  0  0  0  0  0  0
   33.0520   29.4229   49.7841 H   0  0  0  0  0  0  0  0  0  0  0  0
   36.1044   32.2961   43.4281 H   0  0  0  0  0  0  0  0  0  0  0  0
   35.2844   33.3201   41.2932 H   0  0  0  0  0  0  0  0  0  0  0  0
   37.0235   34.3320   39.8232 H   0  0  0  0  0  0  0  0  0  0  0  0
   39.4108   34.3371   40.3966 H   0  0  0  0  0  0  0  0  0  0  0  0
  1  2  2  0
  1 11  1  0
  3  2  1  0
  4  3  2  0
  5  4  1  0
  5  6  2  0
  6  1  1  0
  7  8  2  0
  8  9  1  0
  8 13  1  0
 10  9  2  0
 11 10  1  0
 12 11  2  0
 12  7  1  0
 14  5  1  0
 15 14  2  0
 16 15  1  0
 17 18  1  0
 17 16  2  0
 18 19  2  0
 19 14  1  0
  2 20  1  0
  3 21  1  0
  7 22  1  0
  9 23  1  0
 13 24  1  0
 13 25  1  0
 15 26  1  0
 16 27  1  0
 17 28  1  0
 18 29  1  0
M  ISO  8  20  14  21  14  22  14  23  14  26  14  27  14  28  14  29  14
M  END
>  <minimizedAffinity>  (1) 
-5.25621653

>  <minimizedRMSD>  (1) 
1.3287859

$$$$
