
     RDKit          3D

 35 37  0  0  0  0  0  0  0  0999 V2000
   39.7980   32.2490   46.9510 C   0  0  0  0  0  0  0  0  0  0  0  0
   39.7590   32.1570   45.5260 C   0  0  0  0  0  0  0  0  0  0  0  0
   39.7080   33.2850   44.7670 C   0  0  0  0  0  0  0  0  0  0  0  0
   39.6680   33.2340   43.3650 C   0  0  0  0  0  0  0  0  0  0  0  0
   39.6860   31.9640   42.8260 N   0  0  0  0  0  0  0  0  0  0  0  0
   39.7370   30.8630   43.5910 C   0  0  0  0  0  0  0  0  0  0  0  0
   39.7720   30.9850   44.9360 N   0  0  0  0  0  0  0  0  0  0  0  0
   39.7540   29.5290   42.9960 C   0  0  0  0  0  0  0  0  0  0  0  0
   38.9920   28.5230   43.5550 C   0  0  0  0  0  0  0  0  0  0  0  0
   38.9850   27.2620   43.0220 C   0  0  0  0  0  0  0  0  0  0  0  0
   39.7690   27.0060   41.8970 C   0  0  0  0  0  0  0  0  0  0  0  0
   40.5230   28.0160   41.3520 C   0  0  0  0  0  0  0  0  0  0  0  0
   40.5180   29.2690   41.8950 N   0  0  0  0  0  0  0  0  0  0  0  0
   38.6210   32.6630   47.7190 C   0  0  0  0  0  0  0  0  0  0  0  0
   37.9550   31.5780   48.4620 C   0  0  0  0  0  0  0  0  0  0  0  0
   37.0650   30.7180   47.8300 C   0  0  0  0  0  0  0  0  0  0  0  0
   36.6140   29.8250   48.7640 C   0  0  0  0  0  0  0  0  0  0  0  0
   37.2070   30.1290   49.9280 N   0  0  0  0  0  0  0  0  0  0  0  0
   37.9840   31.1580   49.7160 N   0  0  0  0  0  0  0  0  0  0  0  0
   37.0440   29.4600   51.2180 C   0  0  0  0  0  0  0  0  0  0  0  0
   37.8350   28.3480   51.2900 F   0  0  0  0  0  0  0  0  0  0  0  0
   35.7390   29.1180   51.4600 F   0  0  0  0  0  0  0  0  0  0  0  0
   37.4480   30.3100   52.2500 F   0  0  0  0  0  0  0  0  0  0  0  0
   40.5967   32.9649   47.1951 H   0  0  0  0  0  0  0  0  0  0  0  0
   39.9243   31.1993   47.2547 H   0  0  0  0  0  0  0  0  0  0  0  0
   39.6978   34.2650   45.2665 H   0  0  0  0  0  0  0  0  0  0  0  0
   39.6254   34.1395   42.7420 H   0  0  0  0  0  0  0  0  0  0  0  0
   38.3802   28.7380   44.4435 H   0  0  0  0  0  0  0  0  0  0  0  0
   38.3732   26.4663   43.4720 H   0  0  0  0  0  0  0  0  0  0  0  0
   39.7832   26.0014   41.4492 H   0  0  0  0  0  0  0  0  0  0  0  0
   41.1404   27.8127   40.4646 H   0  0  0  0  0  0  0  0  0  0  0  0
   38.9365   33.4295   48.4421 H   0  0  0  0  0  0  0  0  0  0  0  0
   37.8878   33.0326   46.9870 H   0  0  0  0  0  0  0  0  0  0  0  0
   36.7750   30.7493   46.7694 H   0  0  0  0  0  0  0  0  0  0  0  0
   35.8973   29.0085   48.5918 H   0  0  0  0  0  0  0  0  0  0  0  0
  1 14  1  0
  2  1  1  0
  3  2  2  0
  4  3  1  0
  5  4  2  0
  5  6  1  0
  6  7  2  0
  7  2  1  0
  8  9  2  0
  8  6  1  0
 10  9  1  0
 11 10  2  0
 12 13  2  0
 12 11  1  0
 13  8  1  0
 14 15  1  0
 15 19  2  0
 16 15  1  0
 16 17  2  0
 17 18  1  0
 18 20  1  0
 19 18  1  0
 20 21  1  0
 20 22  1  0
 20 23  1  0
  1 24  1  0
  1 25  1  0
  3 26  1  0
  4 27  1  0
  9 28  1  0
 10 29  1  0
 11 30  1  0
 12 31  1  0
 14 32  1  0
 14 33  1  0
 16 34  1  0
 17 35  1  0
M  ISO  8  24   8  25   8  26  14  27  14  28  14  29  14  30  14  31  14
M  ISO  4  32   8  33   8  34  14  35  14
M  END
>  <minimizedAffinity>  (1) 
-6.14553165

>  <minimizedRMSD>  (1) 
1.2357204

$$$$
