
     RDKit          3D

 29 31  0  0  0  0  0  0  0  0999 V2000
   38.0620   33.2980   49.5920 Cl  0  0  0  0  0  0  0  0  0  0  0  0
   38.4600   32.4210   48.1370 C   0  0  0  0  0  0  0  0  0  0  0  0
   38.0160   31.1150   47.9630 C   0  0  0  0  0  0  0  0  0  0  0  0
   38.3720   30.4980   46.7950 C   0  0  0  0  0  0  0  0  0  0  0  0
   39.1250   31.0930   45.8150 C   0  0  0  0  0  0  0  0  0  0  0  0
   39.5480   32.3980   46.0270 C   0  0  0  0  0  0  0  0  0  0  0  0
   40.4990   33.1690   44.7840 Cl  0  0  0  0  0  0  0  0  0  0  0  0
   39.2250   33.0840   47.1870 C   0  0  0  0  0  0  0  0  0  0  0  0
   37.0130   29.3890   51.1700 C   0  0  0  0  0  0  0  0  0  0  0  0
   37.7860   29.9490   50.1430 C   0  0  0  0  0  0  0  0  0  0  0  0
   37.2230   30.5330   49.0270 C   0  0  0  0  0  0  0  0  0  0  0  0
   35.8560   30.5320   48.9860 N   0  0  0  0  0  0  0  0  0  0  0  0
   35.1120   29.9980   49.9670 C   0  0  0  0  0  0  0  0  0  0  0  0
   35.6910   29.4340   51.0450 N   0  0  0  0  0  0  0  0  0  0  0  0
   39.4980   30.4250   44.5750 C   0  0  0  0  0  0  0  0  0  0  0  0
   40.5910   30.7720   43.8120 C   0  0  0  0  0  0  0  0  0  0  0  0
   40.8910   30.0990   42.6430 C   0  0  0  0  0  0  0  0  0  0  0  0
   40.1310   29.0590   42.1780 C   0  0  0  0  0  0  0  0  0  0  0  0
   39.0490   28.7440   42.9700 C   0  0  0  0  0  0  0  0  0  0  0  0
   38.7670   29.4020   44.0980 N   0  0  0  0  0  0  0  0  0  0  0  0
   38.0345   29.4638   46.6322 H   0  0  0  0  0  0  0  0  0  0  0  0
   39.5631   34.1181   47.3494 H   0  0  0  0  0  0  0  0  0  0  0  0
   37.4853   28.9278   52.0499 H   0  0  0  0  0  0  0  0  0  0  0  0
   38.8822   29.9217   50.2303 H   0  0  0  0  0  0  0  0  0  0  0  0
   34.0149   30.0211   49.8900 H   0  0  0  0  0  0  0  0  0  0  0  0
   41.2369   31.6001   44.1392 H   0  0  0  0  0  0  0  0  0  0  0  0
   41.7732   30.4102   42.0643 H   0  0  0  0  0  0  0  0  0  0  0  0
   40.3654   28.5196   41.2484 H   0  0  0  0  0  0  0  0  0  0  0  0
   38.3911   27.9181   42.6616 H   0  0  0  0  0  0  0  0  0  0  0  0
  2  1  1  0
  3  2  2  0
  3 11  1  0
  4  3  1  0
  5  6  1  0
  5  4  2  0
  6  8  2  0
  7  6  1  0
  8  2  1  0
 10  9  2  0
 11 10  1  0
 12 11  2  0
 12 13  1  0
 13 14  2  0
 14  9  1  0
 15  5  1  0
 16 15  2  0
 17 16  1  0
 18 17  2  0
 18 19  1  0
 19 20  2  0
 20 15  1  0
  4 21  1  0
  8 22  1  0
  9 23  1  0
 10 24  1  0
 13 25  1  0
 16 26  1  0
 17 27  1  0
 18 28  1  0
 19 29  1  0
M  ISO  8  21  14  22  14  23  14  24  14  25  14  26  14  27  14  28  14
M  ISO  1  29  14
M  END
>  <minimizedAffinity>  (1) 
-6.61674786

>  <minimizedRMSD>  (1) 
0.143587425

$$$$
