
     RDKit          3D

 41 44  0  0  0  0  0  0  0  0999 V2000
   37.3820   31.1780   47.0900 N   0  0  0  0  0  0  0  0  0  0  0  0
   36.7150   30.9410   45.9280 C   0  0  0  0  0  0  0  0  0  0  0  0
   37.1390   31.4590   44.7180 C   0  0  0  0  0  0  0  0  0  0  0  0
   38.2990   32.2510   44.7260 C   0  0  0  0  0  0  0  0  0  0  0  0
   38.7230   32.7460   43.6500 O   0  0  0  0  0  0  0  0  0  0  0  0
   38.9670   32.4860   45.9000 N   0  0  0  0  0  0  0  0  0  0  0  0
   38.4610   31.9350   46.9910 C   0  0  0  0  0  0  0  0  0  0  0  0
   39.1000   32.1720   48.0410 O   0  0  0  0  0  0  0  0  0  0  0  0
   37.3790   29.5290   50.4170 C   0  0  0  0  0  0  0  0  0  0  0  0
   37.8310   30.0590   49.1960 C   0  0  0  0  0  0  0  0  0  0  0  0
   36.9440   30.6490   48.3020 C   0  0  0  0  0  0  0  0  0  0  0  0
   35.6400   30.6910   48.6510 N   0  0  0  0  0  0  0  0  0  0  0  0
   35.1810   30.1810   49.8300 C   0  0  0  0  0  0  0  0  0  0  0  0
   36.0580   29.6040   50.7030 N   0  0  0  0  0  0  0  0  0  0  0  0
   36.4650   31.2380   43.4530 C   0  0  0  0  0  0  0  0  0  0  0  0
   36.7190   30.1830   42.6220 C   0  0  0  0  0  0  0  0  0  0  0  0
   36.1010   29.9490   41.4240 C   0  0  0  0  0  0  0  0  0  0  0  0
   35.1330   30.8480   41.0050 C   0  0  0  0  0  0  0  0  0  0  0  0
   34.8800   31.9180   41.8550 C   0  0  0  0  0  0  0  0  0  0  0  0
   35.5350   32.0720   43.0160 N   0  0  0  0  0  0  0  0  0  0  0  0
   33.8880   32.9410   41.5420 C   0  0  0  0  0  0  0  0  0  0  0  0
   33.2770   33.7240   42.4990 C   0  0  0  0  0  0  0  0  0  0  0  0
   32.3370   34.7020   42.2540 C   0  0  0  0  0  0  0  0  0  0  0  0
   31.9610   34.9280   40.9460 C   0  0  0  0  0  0  0  0  0  0  0  0
   32.5670   34.1480   39.9830 C   0  0  0  0  0  0  0  0  0  0  0  0
   33.4800   33.2100   40.2860 N   0  0  0  0  0  0  0  0  0  0  0  0
   40.1550   33.3000   45.8930 C   0  0  0  0  0  0  0  0  0  0  0  0
   40.0830   34.2660   44.9390 F   0  0  0  0  0  0  0  0  0  0  0  0
   41.3130   32.5800   45.6280 F   0  0  0  0  0  0  0  0  0  0  0  0
   40.2760   33.9270   47.1390 F   0  0  0  0  0  0  0  0  0  0  0  0
   35.8093   30.3172   45.9519 H   0  0  0  0  0  0  0  0  0  0  0  0
   38.0823   29.0642   51.1236 H   0  0  0  0  0  0  0  0  0  0  0  0
   38.9005   30.0064   48.9443 H   0  0  0  0  0  0  0  0  0  0  0  0
   34.1102   30.2343   50.0760 H   0  0  0  0  0  0  0  0  0  0  0  0
   37.4846   29.4615   42.9434 H   0  0  0  0  0  0  0  0  0  0  0  0
   36.3645   29.0738   40.8119 H   0  0  0  0  0  0  0  0  0  0  0  0
   34.5954   30.7218   40.0536 H   0  0  0  0  0  0  0  0  0  0  0  0
   33.5643   33.5535   43.5470 H   0  0  0  0  0  0  0  0  0  0  0  0
   31.8994   35.2853   43.0775 H   0  0  0  0  0  0  0  0  0  0  0  0
   31.2148   35.6925   40.6839 H   0  0  0  0  0  0  0  0  0  0  0  0
   32.2927   34.2995   38.9286 H   0  0  0  0  0  0  0  0  0  0  0  0
  1 11  1  0
  2  1  1  0
  3  4  1  0
  3  2  2  0
  4  6  1  0
  5  4  2  0
  6  7  1  0
  7  1  1  0
  7  8  2  0
  9 14  2  0
 10  9  1  0
 11 12  1  0
 11 10  2  0
 12 13  2  0
 13 14  1  0
 15  3  1  0
 16 15  2  0
 17 16  1  0
 18 17  2  0
 18 19  1  0
 19 20  2  0
 20 15  1  0
 21 19  1  0
 21 22  2  0
 23 22  1  0
 24 23  2  0
 25 26  2  0
 25 24  1  0
 26 21  1  0
 27  6  1  0
 27 30  1  0
 28 27  1  0
 29 27  1  0
  2 31  1  0
  9 32  1  0
 10 33  1  0
 13 34  1  0
 16 35  1  0
 17 36  1  0
 18 37  1  0
 22 38  1  0
 23 39  1  0
 24 40  1  0
 25 41  1  0
M  ISO  8  31  14  32  14  33  14  34  14  35  14  36  14  37  14  38  14
M  ISO  3  39  14  40  14  41  14
M  END
>  <minimizedAffinity>  (1) 
-6.53263521

>  <minimizedRMSD>  (1) 
0.491805464

$$$$
