
     RDKit          3D

 37 40  0  0  0  0  0  0  0  0999 V2000
   37.3128   29.3325   51.0276 Br  0  0  0  0  0  0  0  0  0  0  0  0
   35.9617   29.3286   49.6760 C   0  0  0  0  0  0  0  0  0  0  0  0
   35.9944   30.2516   48.6401 C   0  0  0  0  0  0  0  0  0  0  0  0
   34.9893   30.1893   47.7033 C   0  0  0  0  0  0  0  0  0  0  0  0
   33.9627   29.2619   47.7470 C   0  0  0  0  0  0  0  0  0  0  0  0
   33.9663   28.3755   48.7769 C   0  0  0  0  0  0  0  0  0  0  0  0
   34.9603   28.4129   49.7313 C   0  0  0  0  0  0  0  0  0  0  0  0
   37.9847   33.1996   49.4618 C   0  0  0  0  0  0  0  0  0  0  0  0
   39.0172   33.1772   48.4774 C   0  0  0  0  0  0  0  0  0  0  0  0
   39.0054   32.1538   47.5579 C   0  0  0  0  0  0  0  0  0  0  0  0
   38.0164   31.2022   47.6163 N   0  0  0  0  0  0  0  0  0  0  0  0
   37.0578   31.2482   48.5532 C   0  0  0  0  0  0  0  0  0  0  0  0
   37.0527   32.2469   49.4659 N   0  0  0  0  0  0  0  0  0  0  0  0
   32.9053   29.1963   46.7616 C   0  0  0  0  0  0  0  0  0  0  0  0
   32.2604   28.0433   46.3710 C   0  0  0  0  0  0  0  0  0  0  0  0
   31.2479   28.0337   45.4175 C   0  0  0  0  0  0  0  0  0  0  0  0
   30.8665   29.1847   44.8399 N   0  0  0  0  0  0  0  0  0  0  0  0
   31.4884   30.3088   45.2142 C   0  0  0  0  0  0  0  0  0  0  0  0
   32.4648   30.3012   46.1370 N   0  0  0  0  0  0  0  0  0  0  0  0
   34.9610   30.8882   46.8656 H   0  0  0  0  0  0  0  0  0  0  0  0
   33.1990   27.6022   48.9024 H   0  0  0  0  0  0  0  0  0  0  0  0
   34.9515   27.6964   50.5521 H   0  0  0  0  0  0  0  0  0  0  0  0
   37.9757   33.9961   50.1944 H   0  0  0  0  0  0  0  0  0  0  0  0
   39.7766   33.9521   48.4727 H   0  0  0  0  0  0  0  0  0  0  0  0
   39.7633   32.0842   46.7870 H   0  0  0  0  0  0  0  0  0  0  0  0
   32.5660   27.1011   46.8376 H   0  0  0  0  0  0  0  0  0  0  0  0
   30.7541   27.1129   45.1256 H   0  0  0  0  0  0  0  0  0  0  0  0
   31.0986   31.5779   44.6064 C   0  0  0  0  0  0  0  0  0  0  0  0
   29.9196   32.2042   44.9674 C   0  0  0  0  0  0  0  0  0  0  0  0
   29.3312   31.6881   45.7149 H   0  0  0  0  0  0  0  0  0  0  0  0
   29.5751   33.4048   44.3762 C   0  0  0  0  0  0  0  0  0  0  0  0
   28.6282   33.7744   44.7574 H   0  0  0  0  0  0  0  0  0  0  0  0
   30.3762   33.9956   43.4349 C   0  0  0  0  0  0  0  0  0  0  0  0
   31.5373   33.3440   43.1032 C   0  0  0  0  0  0  0  0  0  0  0  0
   31.8829   32.1646   43.6792 N   0  0  0  0  0  0  0  0  0  0  0  0
   30.0213   34.9316   43.0318 H   0  0  0  0  0  0  0  0  0  0  0  0
   32.1706   33.8253   42.3495 H   0  0  0  0  0  0  0  0  0  0  0  0
  2  7  2  0
  2  1  1  0
  3  2  1  0
  4  5  1  0
  4  3  2  0
  5  6  2  0
  6  7  1  0
  8 13  2  0
  9  8  1  0
 10 11  1  0
 10  9  2  0
 11 12  2  0
 12  3  1  0
 12 13  1  0
 14  5  1  0
 15 14  2  0
 16 15  1  0
 17 18  1  0
 17 16  2  0
 18 19  2  0
 19 14  1  0
  4 20  1  0
  6 21  1  0
  7 22  1  0
  8 23  1  0
  9 24  1  0
 10 25  1  0
 15 26  1  0
 16 27  1  0
 28 29  2  0
 29 30  1  0
 29 31  1  0
 31 32  1  0
 31 33  2  0
 33 34  1  0
 34 35  2  0
 35 28  1  0
 33 36  1  0
 34 37  1  0
 18 28  1  0
M  ISO  8  20  14  21  14  22  14  23  14  24  14  25  14  26  14  27  14
M  ISO  2  30  15  32  16
M  END
>  <DihAtoms>  (1) 
16,17,27,28

>  <DihDeg>  (1) 
-179.9982760826694

$$$$
