
     RDKit          3D

 31 33  0  0  0  0  0  0  0  0999 V2000
   35.0600   29.7160   49.1280 C   0  0  0  0  0  0  0  0  0  0  0  0
   35.6470   30.3270   48.0170 C   0  0  0  0  0  0  0  0  0  0  0  0
   35.0890   30.0370   46.7720 C   0  0  0  0  0  0  0  0  0  0  0  0
   34.0290   29.1950   46.7080 N   0  0  0  0  0  0  0  0  0  0  0  0
   33.4910   28.6260   47.7980 C   0  0  0  0  0  0  0  0  0  0  0  0
   33.9910   28.8730   49.0100 N   0  0  0  0  0  0  0  0  0  0  0  0
   32.3670   27.7470   47.6240 N   0  0  0  0  0  0  0  0  0  0  0  0
   31.1090   28.1620   47.0430 C   0  0  0  0  0  0  0  0  0  0  0  0
   30.3540   26.8910   46.8520 C   0  0  0  0  0  0  0  0  0  0  0  0
   31.3270   25.7610   47.0940 C   0  0  0  0  0  0  0  0  0  0  0  0
   32.3540   26.3410   48.0080 C   0  0  0  0  0  0  0  0  0  0  0  0
   36.7800   31.2080   48.2350 C   0  0  0  0  0  0  0  0  0  0  0  0
   37.0610   31.7780   49.4550 C   0  0  0  0  0  0  0  0  0  0  0  0
   38.1360   32.6180   49.6750 C   0  0  0  0  0  0  0  0  0  0  0  0
   38.9470   32.8670   48.5650 C   0  0  0  0  0  0  0  0  0  0  0  0
   38.6380   32.2780   47.3490 C   0  0  0  0  0  0  0  0  0  0  0  0
   37.5690   31.4570   47.1790 N   0  0  0  0  0  0  0  0  0  0  0  0
   35.4708   29.9197   50.1279 H   0  0  0  0  0  0  0  0  0  0  0  0
   35.5028   30.4847   45.8564 H   0  0  0  0  0  0  0  0  0  0  0  0
   30.5695   28.8372   47.7235 H   0  0  0  0  0  0  0  0  0  0  0  0
   31.2432   28.7163   46.1024 H   0  0  0  0  0  0  0  0  0  0  0  0
   29.5221   26.8339   47.5695 H   0  0  0  0  0  0  0  0  0  0  0  0
   29.9292   26.8342   45.8389 H   0  0  0  0  0  0  0  0  0  0  0  0
   30.8212   24.9076   47.5692 H   0  0  0  0  0  0  0  0  0  0  0  0
   31.7659   25.3799   46.1601 H   0  0  0  0  0  0  0  0  0  0  0  0
   33.3376   25.8762   47.8453 H   0  0  0  0  0  0  0  0  0  0  0  0
   32.1305   26.1814   49.0732 H   0  0  0  0  0  0  0  0  0  0  0  0
   36.3944   31.5531   50.3006 H   0  0  0  0  0  0  0  0  0  0  0  0
   38.3400   33.0620   50.6605 H   0  0  0  0  0  0  0  0  0  0  0  0
   39.8237   33.5252   48.6554 H   0  0  0  0  0  0  0  0  0  0  0  0
   39.2861   32.4841   46.4845 H   0  0  0  0  0  0  0  0  0  0  0  0
  2 12  1  0
  2  1  2  0
  3  2  1  0
  4  3  2  0
  4  5  1  0
  5  6  2  0
  6  1  1  0
  7  5  1  0
  7 11  1  0
  8  7  1  0
  9  8  1  0
  9 10  1  0
 10 11  1  0
 12 13  2  0
 13 14  1  0
 15 14  2  0
 16 15  1  0
 17 16  2  0
 17 12  1  0
  1 18  1  0
  3 19  1  0
  8 20  1  0
  8 21  1  0
  9 22  1  0
  9 23  1  0
 10 24  1  0
 10 25  1  0
 11 26  1  0
 11 27  1  0
 13 28  1  0
 14 29  1  0
 15 30  1  0
 16 31  1  0
M  ISO  8  18  14  19  14  20  13  21  13  22  13  23  13  24  13  25  13
M  ISO  6  26  13  27  13  28  14  29  14  30  14  31  14
M  END
>  <minimizedAffinity>  (1) 
-4.9641881

>  <minimizedRMSD>  (1) 
4.47016335

$$$$
