
     RDKit          3D

 46 49  0  0  1  0  0  0  0  0999 V2000
   37.8290   32.5220   43.2500 C   0  0  2  0  0  0  0  0  0  0  0  0
   36.2860   32.6160   43.0490 C   0  0  0  0  0  0  0  0  0  0  0  0
   35.8010   31.3510   42.4070 C   0  0  0  0  0  0  0  0  0  0  0  0
   36.1940   31.3660   40.9550 C   0  0  0  0  0  0  0  0  0  0  0  0
   37.4260   32.1620   40.7820 C   0  0  0  0  0  0  0  0  0  0  0  0
   38.3680   32.0660   41.9410 C   0  0  2  0  0  0  0  0  0  0  0  0
   39.2010   30.8410   41.9750 C   0  0  0  0  0  0  0  0  0  0  0  0
   38.6690   29.6220   41.5370 C   0  0  0  0  0  0  0  0  0  0  0  0
   39.3650   28.4060   41.5260 C   0  0  0  0  0  0  0  0  0  0  0  0
   40.6680   28.3970   41.9740 C   0  0  0  0  0  0  0  0  0  0  0  0
   41.1840   29.5770   42.3970 C   0  0  0  0  0  0  0  0  0  0  0  0
   40.4700   30.6770   42.3780 N   0  0  0  0  0  0  0  0  0  0  0  0
   37.9900   31.5680   44.2090 O   0  0  0  0  0  0  0  0  0  0  0  0
   36.1220   30.0810   45.8630 Cl  0  0  0  0  0  0  0  0  0  0  0  0
   37.3820   31.1100   46.4750 C   0  0  0  0  0  0  0  0  0  0  0  0
   37.5030   31.2320   47.8330 C   0  0  0  0  0  0  0  0  0  0  0  0
   38.5180   32.0640   48.2860 C   0  0  0  0  0  0  0  0  0  0  0  0
   39.3320   32.7120   47.3760 C   0  0  0  0  0  0  0  0  0  0  0  0
   39.1750   32.5620   46.0170 C   0  0  0  0  0  0  0  0  0  0  0  0
   38.1820   31.7460   45.5670 C   0  0  0  0  0  0  0  0  0  0  0  0
   37.1640   29.6280   49.7270 C   0  0  0  0  0  0  0  0  0  0  0  0
   36.6410   30.5480   48.8080 C   0  0  0  0  0  0  0  0  0  0  0  0
   35.2740   30.8000   48.8420 C   0  0  0  0  0  0  0  0  0  0  0  0
   34.5290   30.1370   49.7670 N   0  0  0  0  0  0  0  0  0  0  0  0
   35.0420   29.2760   50.6220 C   0  0  0  0  0  0  0  0  0  0  0  0
   36.3620   29.0080   50.6170 N   0  0  0  0  0  0  0  0  0  0  0  0
   38.3303   33.4539   43.5504 H   0  0  0  0  0  0  0  0  0  0  0  0
   35.7941   32.7471   44.0241 H   0  0  0  0  0  0  0  0  0  0  0  0
   36.0460   33.4756   42.4059 H   0  0  0  0  0  0  0  0  0  0  0  0
   36.2587   30.4838   42.9055 H   0  0  0  0  0  0  0  0  0  0  0  0
   34.7072   31.2795   42.4986 H   0  0  0  0  0  0  0  0  0  0  0  0
   36.3732   30.3357   40.6138 H   0  0  0  0  0  0  0  0  0  0  0  0
   35.3834   31.8151   40.3624 H   0  0  0  0  0  0  0  0  0  0  0  0
   37.9463   31.8064   39.8804 H   0  0  0  0  0  0  0  0  0  0  0  0
   37.1209   33.2157   40.7002 H   0  0  0  0  0  0  0  0  0  0  0  0
   39.1070   32.8502   41.7197 H   0  0  0  0  0  0  0  0  0  0  0  0
   37.6301   29.6188   41.1756 H   0  0  0  0  0  0  0  0  0  0  0  0
   38.8841   27.4833   41.1693 H   0  0  0  0  0  0  0  0  0  0  0  0
   41.2637   27.4724   41.9878 H   0  0  0  0  0  0  0  0  0  0  0  0
   42.2207   29.6126   42.7630 H   0  0  0  0  0  0  0  0  0  0  0  0
   38.6739   32.2070   49.3655 H   0  0  0  0  0  0  0  0  0  0  0  0
   40.1311   33.3688   47.7501 H   0  0  0  0  0  0  0  0  0  0  0  0
   39.8352   33.0882   45.3118 H   0  0  0  0  0  0  0  0  0  0  0  0
   38.2419   29.4088   49.7224 H   0  0  0  0  0  0  0  0  0  0  0  0
   34.8102   31.5122   48.1437 H   0  0  0  0  0  0  0  0  0  0  0  0
   34.3863   28.7713   51.3467 H   0  0  0  0  0  0  0  0  0  0  0  0
  1 13  1  0
  2  1  1  0
  3  2  1  0
  4  3  1  0
  5  4  1  0
  5  6  1  0
  6  7  1  0
  6  1  1  0
  7 12  1  0
  8  7  2  0
  9  8  1  0
  9 10  2  0
 10 11  1  0
 12 11  2  0
 13 20  1  0
 14 15  1  0
 15 16  2  0
 16 17  1  0
 16 22  1  0
 18 17  2  0
 19 18  1  0
 20 19  2  0
 20 15  1  0
 21 26  2  0
 22 23  2  0
 22 21  1  0
 23 24  1  0
 24 25  2  0
 26 25  1  0
  1 27  1  1
  2 28  1  0
  2 29  1  0
  3 30  1  0
  3 31  1  0
  4 32  1  0
  4 33  1  0
  5 34  1  0
  5 35  1  0
  6 36  1  6
  8 37  1  0
  9 38  1  0
 10 39  1  0
 11 40  1  0
 17 41  1  0
 18 42  1  0
 19 43  1  0
 21 44  1  0
 23 45  1  0
 25 46  1  0
M  ISO  8  27  13  28  13  29  13  30  13  31  13  32  13  33  13  34  13
M  ISO  8  35  13  36  13  37  14  38  14  39  14  40  14  41  14  42  14
M  ISO  4  43  14  44  14  45  14  46  14
M  END
>  <minimizedAffinity>  (1) 
-5.67190552

>  <minimizedRMSD>  (1) 
2.4912324

$$$$
