
     RDKit          3D

 35 37  0  0  1  0  0  0  0  0999 V2000
   33.8190   29.0530   48.5620 C   0  0  1  0  0  0  0  0  0  0  0  0
   33.7040   29.6910   47.2350 C   0  0  0  0  0  0  0  0  0  0  0  0
   34.1510   28.8870   46.0510 C   0  0  0  0  0  0  0  0  0  0  0  0
   33.8570   27.4320   46.1240 C   0  0  0  0  0  0  0  0  0  0  0  0
   33.9830   26.7770   47.4490 C   0  0  0  0  0  0  0  0  0  0  0  0
   33.4190   27.6230   48.5570 C   0  0  2  0  0  0  0  0  0  0  0  0
   36.2900   29.7100   48.6410 C   0  0  0  0  0  0  0  0  0  0  0  0
   35.0890   29.3140   49.2760 C   0  0  0  0  0  0  0  0  0  0  0  0
   35.1260   29.1870   50.6510 C   0  0  0  0  0  0  0  0  0  0  0  0
   36.2780   29.4350   51.3230 N   0  0  0  0  0  0  0  0  0  0  0  0
   37.4100   29.8140   50.6710 C   0  0  0  0  0  0  0  0  0  0  0  0
   37.4120   29.9500   49.3240 N   0  0  0  0  0  0  0  0  0  0  0  0
   31.9070   27.4970   48.5910 C   0  0  0  0  0  0  0  0  0  0  0  0
   31.2260   26.7890   47.6020 C   0  0  0  0  0  0  0  0  0  0  0  0
   29.8700   26.6450   47.5850 C   0  0  0  0  0  0  0  0  0  0  0  0
   29.1400   27.2360   48.6060 C   0  0  0  0  0  0  0  0  0  0  0  0
   29.8200   27.9300   49.5720 C   0  0  0  0  0  0  0  0  0  0  0  0
   31.1590   28.0600   49.5710 N   0  0  0  0  0  0  0  0  0  0  0  0
   33.0700   29.5731   49.1772 H   0  0  0  0  0  0  0  0  0  0  0  0
   32.6455   29.9477   47.0810 H   0  0  0  0  0  0  0  0  0  0  0  0
   34.3896   30.5504   47.2714 H   0  0  0  0  0  0  0  0  0  0  0  0
   35.2394   29.0091   45.9486 H   0  0  0  0  0  0  0  0  0  0  0  0
   33.5818   29.2696   45.1910 H   0  0  0  0  0  0  0  0  0  0  0  0
   32.8220   27.2866   45.7809 H   0  0  0  0  0  0  0  0  0  0  0  0
   34.6285   26.9569   45.5002 H   0  0  0  0  0  0  0  0  0  0  0  0
   33.4419   25.8196   47.4238 H   0  0  0  0  0  0  0  0  0  0  0  0
   35.0538   26.6265   47.6508 H   0  0  0  0  0  0  0  0  0  0  0  0
   33.8720   27.2144   49.4723 H   0  0  0  0  0  0  0  0  0  0  0  0
   36.2996   29.8241   47.5470 H   0  0  0  0  0  0  0  0  0  0  0  0
   34.2222   28.8851   51.2005 H   0  0  0  0  0  0  0  0  0  0  0  0
   38.3295   30.0112   51.2417 H   0  0  0  0  0  0  0  0  0  0  0  0
   31.8113   26.3234   46.7954 H   0  0  0  0  0  0  0  0  0  0  0  0
   29.3703   26.0775   46.7861 H   0  0  0  0  0  0  0  0  0  0  0  0
   28.0439   27.1497   48.6391 H   0  0  0  0  0  0  0  0  0  0  0  0
   29.2462   28.4013   50.3836 H   0  0  0  0  0  0  0  0  0  0  0  0
  1  8  1  0
  2  1  1  0
  3  4  1  0
  3  2  1  0
  4  5  1  0
  5  6  1  0
  6  1  1  0
  6 13  1  0
  7  8  2  0
  7 12  1  0
  8  9  1  0
  9 10  2  0
 11 10  1  0
 12 11  2  0
 13 18  1  0
 14 13  2  0
 15 14  1  0
 15 16  2  0
 16 17  1  0
 18 17  2  0
  1 19  1  1
  2 20  1  0
  2 21  1  0
  3 22  1  0
  3 23  1  0
  4 24  1  0
  4 25  1  0
  5 26  1  0
  5 27  1  0
  6 28  1  1
  7 29  1  0
  9 30  1  0
 11 31  1  0
 14 32  1  0
 15 33  1  0
 16 34  1  0
 17 35  1  0
M  ISO  8  19  13  20  13  21  13  22  13  23  13  24  13  25  13  26  13
M  ISO  8  27  13  28  13  29  14  30  14  31  14  32  14  33  14  34  14
M  ISO  1  35  14
M  END
>  <minimizedAffinity>  (1) 
-4.93264294

>  <minimizedRMSD>  (1) 
1.84060764

$$$$
