
     RDKit          3D

 32 34  0  0  0  0  0  0  0  0999 V2000
   33.1130   30.0530   45.7190 O   0  0  0  0  0  0  0  0  0  0  0  0
   31.7940   29.7190   46.0840 C   0  0  0  0  0  0  0  0  0  0  0  0
   30.6000   30.1190   45.5010 C   0  0  0  0  0  0  0  0  0  0  0  0
   29.6110   29.5520   46.1870 N   0  0  0  0  0  0  0  0  0  0  0  0
   30.1120   28.8010   47.1910 C   0  0  0  0  0  0  0  0  0  0  0  0
   31.4600   28.9060   47.1260 N   0  0  0  0  0  0  0  0  0  0  0  0
   29.2990   28.0420   48.1360 C   0  0  0  0  0  0  0  0  0  0  0  0
   28.1060   27.4860   47.7390 C   0  0  0  0  0  0  0  0  0  0  0  0
   27.4200   26.7860   48.7310 C   0  0  0  0  0  0  0  0  0  0  0  0
   27.9110   26.6600   50.0310 C   0  0  0  0  0  0  0  0  0  0  0  0
   29.1190   27.2430   50.3690 C   0  0  0  0  0  0  0  0  0  0  0  0
   29.7620   27.9160   49.3900 N   0  0  0  0  0  0  0  0  0  0  0  0
   35.6500   29.7530   46.0580 O   0  0  0  0  0  0  0  0  0  0  0  0
   34.3400   29.5400   46.7780 P   0  0  2  0  0  0  0  0  0  0  0  0
   34.1100   27.9150   47.2200 O   0  0  0  0  0  0  0  0  0  0  0  0
   34.2530   30.4650   48.2210 O   0  0  0  0  0  0  0  0  0  0  0  0
   35.2180   30.3640   49.2160 C   0  0  0  0  0  0  0  0  0  0  0  0
   35.2100   29.4420   50.2740 C   0  0  0  0  0  0  0  0  0  0  0  0
   36.2610   29.4880   51.1800 C   0  0  0  0  0  0  0  0  0  0  0  0
   37.2450   30.4020   51.0220 N   0  0  0  0  0  0  0  0  0  0  0  0
   37.2210   31.2840   49.9810 C   0  0  0  0  0  0  0  0  0  0  0  0
   36.2040   31.2600   49.0810 N   0  0  0  0  0  0  0  0  0  0  0  0
   30.4911   30.7832   44.6310 H   0  0  0  0  0  0  0  0  0  0  0  0
   28.6084   29.6690   45.9819 H   0  0  0  0  0  0  0  0  0  0  0  0
   27.7206   27.5860   46.7136 H   0  0  0  0  0  0  0  0  0  0  0  0
   26.4575   26.3164   48.4797 H   0  0  0  0  0  0  0  0  0  0  0  0
   27.3392   26.0988   50.7847 H   0  0  0  0  0  0  0  0  0  0  0  0
   29.5352   27.1626   51.3841 H   0  0  0  0  0  0  0  0  0  0  0  0
   34.0994   27.8398   48.2071 H   0  0  0  0  0  0  0  0  0  0  0  0
   34.3983   28.7075   50.3818 H   0  0  0  0  0  0  0  0  0  0  0  0
   36.2932   28.7831   52.0238 H   0  0  0  0  0  0  0  0  0  0  0  0
   38.0312   32.0197   49.8699 H   0  0  0  0  0  0  0  0  0  0  0  0
  1  2  1  0
  1 14  1  0
  2  6  1  0
  3  2  2  0
  3  4  1  0
  4  5  1  0
  5  7  1  0
  6  5  2  0
  7 12  1  0
  8  7  2  0
  8  9  1  0
  9 10  2  0
 10 11  1  0
 12 11  2  0
 14 13  2  0
 14 15  1  0
 14 16  1  0
 16 17  1  0
 17 18  2  0
 18 19  1  0
 20 19  2  0
 21 20  1  0
 22 17  1  0
 22 21  2  0
  3 23  1  0
  4 24  1  0
  8 25  1  0
  9 26  1  0
 10 27  1  0
 11 28  1  0
 15 29  1  0
 18 30  1  0
 19 31  1  0
 21 32  1  0
M  ISO  8  23  14  24   9  25  14  26  14  27  14  28  14  29   3  30  14
M  ISO  2  31  14  32  14
M  END
>  <minimizedAffinity>  (1) 
-4.87885809

>  <minimizedRMSD>  (1) 
1.64643097

$$$$
