
     RDKit          3D

 40 43  0  0  0  0  0  0  0  0999 V2000
   36.4210   30.9080   45.7210 Cl  0  0  0  0  0  0  0  0  0  0  0  0
   36.7030   30.7970   47.4360 C   0  0  0  0  0  0  0  0  0  0  0  0
   37.9650   31.1370   47.8910 C   0  0  0  0  0  0  0  0  0  0  0  0
   38.2040   31.0530   49.2500 C   0  0  0  0  0  0  0  0  0  0  0  0
   37.2020   30.6430   50.0940 C   0  0  0  0  0  0  0  0  0  0  0  0
   35.9540   30.3170   49.5650 C   0  0  0  0  0  0  0  0  0  0  0  0
   35.6490   30.3760   48.2350 C   0  0  0  0  0  0  0  0  0  0  0  0
   40.2330   33.3370   46.0780 C   0  0  0  0  0  0  0  0  0  0  0  0
   40.9430   32.4760   45.2180 C   0  0  0  0  0  0  0  0  0  0  0  0
   40.6210   31.1080   45.2770 C   0  0  0  0  0  0  0  0  0  0  0  0
   39.6560   30.6980   46.1490 N   0  0  0  0  0  0  0  0  0  0  0  0
   39.0100   31.5710   46.9470 C   0  0  0  0  0  0  0  0  0  0  0  0
   39.2960   32.8690   46.9100 N   0  0  0  0  0  0  0  0  0  0  0  0
   34.0830   29.9700   47.5440 S   0  0  0  0  0  0  0  0  0  0  0  0
   33.9620   29.1790   44.5060 Cl  0  0  0  0  0  0  0  0  0  0  0  0
   33.9130   27.9490   45.7630 C   0  0  0  0  0  0  0  0  0  0  0  0
   33.9600   28.2270   47.1290 C   0  0  0  0  0  0  0  0  0  0  0  0
   33.9130   27.1840   48.0370 C   0  0  0  0  0  0  0  0  0  0  0  0
   33.8200   25.8980   47.6050 C   0  0  0  0  0  0  0  0  0  0  0  0
   33.7690   25.5850   46.2590 C   0  0  0  0  0  0  0  0  0  0  0  0
   33.8170   26.6190   45.3700 C   0  0  0  0  0  0  0  0  0  0  0  0
   33.7670   26.3360   43.9410 C   0  0  0  0  0  0  0  0  0  0  0  0
   34.8840   26.0910   43.1760 C   0  0  0  0  0  0  0  0  0  0  0  0
   34.8710   25.8200   41.8230 C   0  0  0  0  0  0  0  0  0  0  0  0
   33.6560   25.7860   41.1690 C   0  0  0  0  0  0  0  0  0  0  0  0
   32.5610   26.0360   41.9680 C   0  0  0  0  0  0  0  0  0  0  0  0
   32.6200   26.2930   43.2710 N   0  0  0  0  0  0  0  0  0  0  0  0
   39.1935   31.3138   49.6536 H   0  0  0  0  0  0  0  0  0  0  0  0
   37.3820   30.5724   51.1769 H   0  0  0  0  0  0  0  0  0  0  0  0
   35.1668   29.9924   50.2614 H   0  0  0  0  0  0  0  0  0  0  0  0
   40.4534   34.4146   46.0650 H   0  0  0  0  0  0  0  0  0  0  0  0
   41.7140   32.8562   44.5317 H   0  0  0  0  0  0  0  0  0  0  0  0
   41.1380   30.3824   44.6318 H   0  0  0  0  0  0  0  0  0  0  0  0
   33.9511   27.3966   49.1156 H   0  0  0  0  0  0  0  0  0  0  0  0
   33.7844   25.0854   48.3456 H   0  0  0  0  0  0  0  0  0  0  0  0
   33.6926   24.5420   45.9179 H   0  0  0  0  0  0  0  0  0  0  0  0
   35.8610   26.1128   43.6809 H   0  0  0  0  0  0  0  0  0  0  0  0
   35.8083   25.6351   41.2777 H   0  0  0  0  0  0  0  0  0  0  0  0
   33.5683   25.5756   40.0929 H   0  0  0  0  0  0  0  0  0  0  0  0
   31.5684   26.0219   41.4941 H   0  0  0  0  0  0  0  0  0  0  0  0
  1  2  1  0
  2  3  2  0
  2  7  1  0
  3  4  1  0
  4  5  2  0
  6  5  1  0
  7  6  2  0
  8 13  2  0
  9 10  2  0
  9  8  1  0
 10 11  1  0
 11 12  2  0
 12  3  1  0
 13 12  1  0
 14  7  1  0
 15 16  1  0
 16 17  2  0
 17 14  1  0
 17 18  1  0
 19 18  2  0
 20 19  1  0
 21 16  1  0
 21 20  2  0
 22 21  1  0
 23 22  2  0
 24 23  1  0
 25 24  2  0
 25 26  1  0
 26 27  2  0
 27 22  1  0
  4 28  1  0
  5 29  1  0
  6 30  1  0
  8 31  1  0
  9 32  1  0
 10 33  1  0
 18 34  1  0
 19 35  1  0
 20 36  1  0
 23 37  1  0
 24 38  1  0
 25 39  1  0
 26 40  1  0
M  ISO  8  28  14  29  14  30  14  31  14  32  14  33  14  34  14  35  14
M  ISO  5  36  14  37  14  38  14  39  14  40  14
M  END
>  <minimizedAffinity>  (1) 
-5.67888927

>  <minimizedRMSD>  (1) 
0.204097375

$$$$
