
     RDKit          3D

 33 35  0  0  0  0  0  0  0  0999 V2000
   37.4631   31.4311   49.3841 C   0  0  0  0  0  0  0  0  0  0  0  0
   37.8718   32.7124   49.7020 C   0  0  0  0  0  0  0  0  0  0  0  0
   38.6947   33.3193   48.7615 C   0  0  0  0  0  0  0  0  0  0  0  0
   39.0499   32.6698   47.6244 N   0  0  0  0  0  0  0  0  0  0  0  0
   38.6275   31.4114   47.3480 C   0  0  0  0  0  0  0  0  0  0  0  0
   37.8177   30.7882   48.2541 N   0  0  0  0  0  0  0  0  0  0  0  0
   36.5458   30.7347   50.3517 C   0  0  0  0  0  0  0  0  0  0  0  0
   36.4778   29.3164   50.4682 C   0  0  0  0  0  0  0  0  0  0  0  0
   37.3363   30.0433   51.4892 C   0  0  0  0  0  0  0  0  0  0  0  0
   38.9882   30.6952   46.1299 C   0  0  0  0  0  0  0  0  0  0  0  0
   41.0579   31.5798   45.0237 C   0  0  0  0  0  0  0  0  0  0  0  0
   40.4183   32.2655   44.1580 O   0  0  0  0  0  0  0  0  0  0  0  0
   40.4300   30.7719   46.0041 N   0  0  0  0  0  0  0  0  0  0  0  0
   37.6151   33.2533   50.5809 H   0  0  0  0  0  0  0  0  0  0  0  0
   39.0930   34.3309   48.8818 H   0  0  0  0  0  0  0  0  0  0  0  0
   35.7088   31.3855   50.7458 H   0  0  0  0  0  0  0  0  0  0  0  0
   35.5736   28.7903   50.7732 H   0  0  0  0  0  0  0  0  0  0  0  0
   37.0920   28.7086   49.7437 H   0  0  0  0  0  0  0  0  0  0  0  0
   36.9271   30.1428   52.5151 H   0  0  0  0  0  0  0  0  0  0  0  0
   38.4283   29.9904   51.4083 H   0  0  0  0  0  0  0  0  0  0  0  0
   38.7234   29.6422   46.1910 H   0  0  0  0  0  0  0  0  0  0  0  0
   38.5589   31.1834   45.2321 H   0  0  0  0  0  0  0  0  0  0  0  0
   40.9660   30.1916   46.6850 H   0  0  0  0  0  0  0  0  0  0  0  0
   42.5369   31.5704   45.0774 C   0  0  0  0  0  0  0  0  0  0  0  0
   43.1799   32.7108   44.6610 C   0  0  0  0  0  0  0  0  0  0  0  0
   42.6046   33.5764   44.3089 H   0  0  0  0  0  0  0  0  0  0  0  0
   44.5575   32.8928   44.6377 C   0  0  0  0  0  0  0  0  0  0  0  0
   45.0106   33.8120   44.2999 H   0  0  0  0  0  0  0  0  0  0  0  0
   45.2966   31.8124   45.0781 C   0  0  0  0  0  0  0  0  0  0  0  0
   44.6195   30.6870   45.4876 C   0  0  0  0  0  0  0  0  0  0  0  0
   43.2849   30.5355   45.5005 N   0  0  0  0  0  0  0  0  0  0  0  0
   46.3763   31.8504   45.1000 H   0  0  0  0  0  0  0  0  0  0  0  0
   45.1629   29.8083   45.8436 H   0  0  0  0  0  0  0  0  0  0  0  0
  1  2  2  0
  1  7  1  0
  3  2  1  0
  4  3  2  0
  5  4  1  0
  5  6  2  0
  6  1  1  0
  7  8  1  0
  7  9  1  0
  8  9  1  0
 10  5  1  0
 11 13  1  0
 12 11  2  0
 13 10  1  0
  2 14  1  0
  3 15  1  0
  7 16  1  0
  8 17  1  0
  8 18  1  0
  9 19  1  0
  9 20  1  0
 10 21  1  0
 10 22  1  0
 13 23  1  0
 24 25  2  0
 25 26  1  0
 25 27  1  0
 27 28  1  0
 27 29  2  0
 29 30  1  0
 30 31  2  0
 31 24  1  0
 29 32  1  0
 30 33  1  0
 11 24  1  0
M  ISO  8  14  14  15  14  16  13  17  13  18  13  19  13  20  13  21   8
M  ISO  3  22   8  26  15  28  16
M  END
>  <DihAtoms>  (1) 
12,10,23,24

>  <DihDeg>  (1) 
-179.99937457173993

$$$$
