
     RDKit          3D

 29 31  0  0  0  0  0  0  0  0999 V2000
   37.9846   33.1737   49.4294 C   0  0  0  0  0  0  0  0  0  0  0  0
   39.0144   33.1552   48.4642 C   0  0  0  0  0  0  0  0  0  0  0  0
   39.0123   32.1208   47.5424 C   0  0  0  0  0  0  0  0  0  0  0  0
   38.0286   31.1686   47.5981 N   0  0  0  0  0  0  0  0  0  0  0  0
   37.0479   31.2270   48.5537 C   0  0  0  0  0  0  0  0  0  0  0  0
   37.0414   32.2253   49.4513 N   0  0  0  0  0  0  0  0  0  0  0  0
   37.2784   29.3624   51.0509 Br  0  0  0  0  0  0  0  0  0  0  0  0
   35.9541   29.3181   49.6592 C   0  0  0  0  0  0  0  0  0  0  0  0
   35.9947   30.2165   48.6212 C   0  0  0  0  0  0  0  0  0  0  0  0
   35.0156   30.1280   47.6578 C   0  0  0  0  0  0  0  0  0  0  0  0
   34.0060   29.1839   47.6918 C   0  0  0  0  0  0  0  0  0  0  0  0
   33.9973   28.3042   48.7420 C   0  0  0  0  0  0  0  0  0  0  0  0
   34.9627   28.3673   49.7210 C   0  0  0  0  0  0  0  0  0  0  0  0
   38.0244   34.0008   50.1313 H   0  0  0  0  0  0  0  0  0  0  0  0
   39.7909   33.8947   48.4093 H   0  0  0  0  0  0  0  0  0  0  0  0
   39.7517   32.0162   46.7679 H   0  0  0  0  0  0  0  0  0  0  0  0
   35.0928   30.8644   46.8550 H   0  0  0  0  0  0  0  0  0  0  0  0
   33.2612   29.1685   46.8964 H   0  0  0  0  0  0  0  0  0  0  0  0
   33.2024   27.5800   48.7456 H   0  0  0  0  0  0  0  0  0  0  0  0
   34.9610   27.4383   50.8384 C   0  0  0  0  0  0  0  0  0  0  0  0
   35.9795   26.5707   51.1355 C   0  0  0  0  0  0  0  0  0  0  0  0
   36.8474   26.5505   50.5246 H   0  0  0  0  0  0  0  0  0  0  0  0
   35.9768   25.6892   52.1968 C   0  0  0  0  0  0  0  0  0  0  0  0
   36.8116   25.0245   52.3842 H   0  0  0  0  0  0  0  0  0  0  0  0
   34.8834   25.6561   53.0366 C   0  0  0  0  0  0  0  0  0  0  0  0
   33.8693   26.5313   52.7271 C   0  0  0  0  0  0  0  0  0  0  0  0
   33.9057   27.3688   51.6942 N   0  0  0  0  0  0  0  0  0  0  0  0
   34.8357   24.9834   53.8798 H   0  0  0  0  0  0  0  0  0  0  0  0
   32.9890   26.5412   53.3595 H   0  0  0  0  0  0  0  0  0  0  0  0
  1  6  2  0
  2  1  1  0
  3  4  1  0
  3  2  2  0
  4  5  2  0
  5  9  1  0
  5  6  1  0
  8 13  2  0
  8  7  1  0
  9  8  1  0
 10 11  1  0
 10  9  2  0
 11 12  2  0
 12 13  1  0
  1 14  1  0
  2 15  1  0
  3 16  1  0
 10 17  1  0
 11 18  1  0
 12 19  1  0
 20 21  2  0
 21 22  1  0
 21 23  1  0
 23 24  1  0
 23 25  2  0
 25 26  1  0
 26 27  2  0
 27 20  1  0
 25 28  1  0
 26 29  1  0
 13 20  1  0
M  ISO  8  14  14  15  14  16  14  17  14  18  14  19  14  22  15  24  16
M  END
>  <DihAtoms>  (1) 
7,12,19,20

>  <DihDeg>  (1) 
179.99593595146726

$$$$
