
     RDKit          3D

 30 32  0  0  0  0  0  0  0  0999 V2000
   36.3694   30.4872   46.3833 Cl  0  0  0  0  0  0  0  0  0  0  0  0
   36.7990   30.5421   48.0836 C   0  0  0  0  0  0  0  0  0  0  0  0
   38.0136   31.0862   48.3809 C   0  0  0  0  0  0  0  0  0  0  0  0
   38.3805   31.1417   49.7335 C   0  0  0  0  0  0  0  0  0  0  0  0
   37.5361   30.6633   50.6896 C   0  0  0  0  0  0  0  0  0  0  0  0
   36.3214   30.1268   50.3049 C   0  0  0  0  0  0  0  0  0  0  0  0
   35.8961   30.0401   48.9949 C   0  0  0  0  0  0  0  0  0  0  0  0
   40.0059   33.4144   46.3933 C   0  0  0  0  0  0  0  0  0  0  0  0
   40.5702   32.6078   45.3884 C   0  0  0  0  0  0  0  0  0  0  0  0
   40.2525   31.2584   45.4107 C   0  0  0  0  0  0  0  0  0  0  0  0
   39.4252   30.7971   46.3884 N   0  0  0  0  0  0  0  0  0  0  0  0
   38.9028   31.5936   47.3335 C   0  0  0  0  0  0  0  0  0  0  0  0
   39.1988   32.9056   47.3294 N   0  0  0  0  0  0  0  0  0  0  0  0
   34.3455   29.3567   48.4877 S   0  0  0  0  0  0  0  0  0  0  0  0
   39.3446   31.5721   49.9867 H   0  0  0  0  0  0  0  0  0  0  0  0
   37.8338   30.7133   51.7301 H   0  0  0  0  0  0  0  0  0  0  0  0
   35.6561   29.7474   51.0859 H   0  0  0  0  0  0  0  0  0  0  0  0
   40.2762   34.4592   46.3433 H   0  0  0  0  0  0  0  0  0  0  0  0
   41.2190   32.9011   44.6011 H   0  0  0  0  0  0  0  0  0  0  0  0
   40.5782   30.4755   44.7350 H   0  0  0  0  0  0  0  0  0  0  0  0
   34.4490   27.6077   48.1655 C   0  0  0  0  0  0  0  0  0  0  0  0
   35.6327   26.9273   48.3142 C   0  0  0  0  0  0  0  0  0  0  0  0
   36.5306   27.4416   48.6313 H   0  0  0  0  0  0  0  0  0  0  0  0
   35.7306   25.5593   48.0663 C   0  0  0  0  0  0  0  0  0  0  0  0
   36.6442   25.0214   48.1785 H   0  0  0  0  0  0  0  0  0  0  0  0
   34.5469   24.9647   47.6648 C   0  0  0  0  0  0  0  0  0  0  0  0
   33.3642   25.6620   47.5197 C   0  0  0  0  0  0  0  0  0  0  0  0
   33.3215   26.9891   47.7727 N   0  0  0  0  0  0  0  0  0  0  0  0
   34.5603   23.8851   47.4538 H   0  0  0  0  0  0  0  0  0  0  0  0
   32.4456   25.1510   47.1982 H   0  0  0  0  0  0  0  0  0  0  0  0
  1  2  1  0
  2  3  2  0
  2  7  1  0
  3  4  1  0
  4  5  2  0
  6  5  1  0
  7  6  2  0
  8 13  2  0
  9 10  2  0
  9  8  1  0
 10 11  1  0
 11 12  2  0
 12  3  1  0
 13 12  1  0
 14  7  1  0
  4 15  1  0
  5 16  1  0
  6 17  1  0
  8 18  1  0
  9 19  1  0
 10 20  1  0
 21 22  2  0
 22 23  1  0
 22 24  1  0
 24 25  1  0
 24 26  2  0
 26 27  1  0
 27 28  2  0
 28 21  1  0
 26 29  1  0
 27 30  1  0
 14 21  1  0
M  ISO  8  15  14  16  14  17  14  18  14  19  14  20  14  23  15  25  16
M  END
>  <DihAtoms>  (1) 
6,13,20,21

>  <DihDeg>  (1) 
-179.9995256654908

$$$$
