
     RDKit          3D

 29 31  0  0  0  0  0  0  0  0999 V2000
   37.5645   31.6477   48.9422 C   0  0  0  0  0  0  0  0  0  0  0  0
   38.1999   32.7228   49.4932 C   0  0  0  0  0  0  0  0  0  0  0  0
   39.0675   33.5622   48.8346 C   0  0  0  0  0  0  0  0  0  0  0  0
   39.3424   33.3276   47.5029 C   0  0  0  0  0  0  0  0  0  0  0  0
   38.6982   32.2387   46.9467 C   0  0  0  0  0  0  0  0  0  0  0  0
   37.8585   31.4497   47.6363 N   0  0  0  0  0  0  0  0  0  0  0  0
   36.9501   30.1670   50.8774 C   0  0  0  0  0  0  0  0  0  0  0  0
   36.6610   30.7899   49.6642 C   0  0  0  0  0  0  0  0  0  0  0  0
   35.3987   30.5650   49.1063 C   0  0  0  0  0  0  0  0  0  0  0  0
   34.5178   29.7539   49.7699 N   0  0  0  0  0  0  0  0  0  0  0  0
   34.8500   29.1779   50.9389 C   0  0  0  0  0  0  0  0  0  0  0  0
   36.0692   29.3790   51.5035 N   0  0  0  0  0  0  0  0  0  0  0  0
   40.1894   34.0736   46.6950 O   0  0  0  0  0  0  0  0  0  0  0  0
   38.0354   32.9738   50.5384 H   0  0  0  0  0  0  0  0  0  0  0  0
   39.5642   34.4121   49.2868 H   0  0  0  0  0  0  0  0  0  0  0  0
   38.8124   31.9244   45.9066 H   0  0  0  0  0  0  0  0  0  0  0  0
   37.9485   30.4122   51.2103 H   0  0  0  0  0  0  0  0  0  0  0  0
   35.0327   30.9755   48.1790 H   0  0  0  0  0  0  0  0  0  0  0  0
   34.2091   28.5295   51.5154 H   0  0  0  0  0  0  0  0  0  0  0  0
   39.7819   35.1548   45.9510 C   0  0  0  0  0  0  0  0  0  0  0  0
   38.5335   35.7363   45.8196 C   0  0  0  0  0  0  0  0  0  0  0  0
   37.7820   35.2263   46.4169 H   0  0  0  0  0  0  0  0  0  0  0  0
   38.3494   36.8287   45.0085 C   0  0  0  0  0  0  0  0  0  0  0  0
   37.3300   37.1759   45.0016 H   0  0  0  0  0  0  0  0  0  0  0  0
   39.4094   37.3771   44.3005 C   0  0  0  0  0  0  0  0  0  0  0  0
   40.6437   36.7740   44.4525 C   0  0  0  0  0  0  0  0  0  0  0  0
   40.8118   35.7052   45.2492 N   0  0  0  0  0  0  0  0  0  0  0  0
   39.1944   38.2334   43.6831 H   0  0  0  0  0  0  0  0  0  0  0  0
   41.4352   37.2380   43.8809 H   0  0  0  0  0  0  0  0  0  0  0  0
  1  2  2  0
  1  8  1  0
  3  2  1  0
  4  3  2  0
  5  4  1  0
  5  6  2  0
  6  1  1  0
  7 12  2  0
  8  7  1  0
  9  8  2  0
  9 10  1  0
 10 11  2  0
 11 12  1  0
 13  4  1  0
  2 14  1  0
  3 15  1  0
  5 16  1  0
  7 17  1  0
  9 18  1  0
 11 19  1  0
 20 21  2  0
 21 22  1  0
 21 23  1  0
 23 24  1  0
 23 25  2  0
 25 26  1  0
 26 27  2  0
 27 20  1  0
 25 28  1  0
 26 29  1  0
 13 20  1  0
M  ISO  8  14  14  15  14  16  14  17  14  18  14  19  14  22  15  24  16
M  END
>  <DihAtoms>  (1) 
3,12,19,20

>  <DihDeg>  (1) 
-0.0022929338805095204

$$$$
