
     RDKit          3D

 36 39  0  0  0  0  0  0  0  0999 V2000
   33.8392   28.7825   48.2805 C   0  0  0  0  0  0  0  0  0  0  0  0
   34.4342   28.4194   49.4365 C   0  0  0  0  0  0  0  0  0  0  0  0
   35.7079   28.7918   49.8127 C   0  0  0  0  0  0  0  0  0  0  0  0
   36.4566   29.5812   48.9926 C   0  0  0  0  0  0  0  0  0  0  0  0
   35.8505   29.9639   47.7916 C   0  0  0  0  0  0  0  0  0  0  0  0
   34.6034   29.5740   47.4693 N   0  0  0  0  0  0  0  0  0  0  0  0
   31.6506   27.6500   48.6857 C   0  0  0  0  0  0  0  0  0  0  0  0
   32.5183   28.4017   47.8809 C   0  0  0  0  0  0  0  0  0  0  0  0
   32.0289   28.7732   46.6421 C   0  0  0  0  0  0  0  0  0  0  0  0
   30.7675   28.4055   46.2692 N   0  0  0  0  0  0  0  0  0  0  0  0
   29.9815   27.6751   47.1035 C   0  0  0  0  0  0  0  0  0  0  0  0
   30.4132   27.2889   48.3208 N   0  0  0  0  0  0  0  0  0  0  0  0
   37.7578   30.0463   49.2225 O   0  0  0  0  0  0  0  0  0  0  0  0
   38.1614   31.2965   48.7840 C   0  0  0  0  0  0  0  0  0  0  0  0
   37.8659   32.3343   49.6717 C   0  0  0  0  0  0  0  0  0  0  0  0
   38.3265   33.5286   49.1035 C   0  0  0  0  0  0  0  0  0  0  0  0
   38.8680   33.1643   47.9226 N   0  0  0  0  0  0  0  0  0  0  0  0
   38.7756   31.8720   47.7312 N   0  0  0  0  0  0  0  0  0  0  0  0
   33.9125   27.7929   50.1474 H   0  0  0  0  0  0  0  0  0  0  0  0
   36.1770   28.4949   50.7435 H   0  0  0  0  0  0  0  0  0  0  0  0
   36.4008   30.5915   47.1022 H   0  0  0  0  0  0  0  0  0  0  0  0
   31.9850   27.3341   49.6643 H   0  0  0  0  0  0  0  0  0  0  0  0
   32.6844   29.3530   46.0085 H   0  0  0  0  0  0  0  0  0  0  0  0
   29.0155   27.4626   46.6708 H   0  0  0  0  0  0  0  0  0  0  0  0
   37.3884   32.4093   50.6418 H   0  0  0  0  0  0  0  0  0  0  0  0
   38.3024   34.5530   49.4485 H   0  0  0  0  0  0  0  0  0  0  0  0
   39.4711   34.0545   46.9829 C   0  0  0  0  0  0  0  0  0  0  0  0
   40.5417   33.5911   46.2455 C   0  0  0  0  0  0  0  0  0  0  0  0
   40.9557   32.6151   46.3230 H   0  0  0  0  0  0  0  0  0  0  0  0
   41.1220   34.4525   45.3391 C   0  0  0  0  0  0  0  0  0  0  0  0
   41.9744   34.1608   44.7167 H   0  0  0  0  0  0  0  0  0  0  0  0
   40.6894   35.7628   45.1257 C   0  0  0  0  0  0  0  0  0  0  0  0
   39.6050   36.1507   45.9098 C   0  0  0  0  0  0  0  0  0  0  0  0
   39.0245   35.3136   46.8053 N   0  0  0  0  0  0  0  0  0  0  0  0
   41.1522   36.4215   44.4157 H   0  0  0  0  0  0  0  0  0  0  0  0
   39.2217   37.1682   45.7861 H   0  0  0  0  0  0  0  0  0  0  0  0
  1  2  2  0
  2  3  1  0
  4 13  1  0
  4  3  2  0
  5  4  1  0
  6  5  2  0
  6  1  1  0
  8  1  1  0
  8  7  2  0
  9  8  1  0
 10  9  2  0
 10 11  1  0
 11 12  2  0
 12  7  1  0
 14 13  1  0
 14 15  1  0
 16 15  2  0
 17 16  1  0
 18 17  1  0
 18 14  2  0
  2 19  1  0
  3 20  1  0
  5 21  1  0
  7 22  1  0
  9 23  1  0
 11 24  1  0
 15 25  1  0
 16 26  1  0
 27 28  2  0
 28 29  1  0
 28 30  1  0
 30 31  1  0
 30 32  2  0
 32 33  1  0
 33 34  2  0
 34 27  1  0
 32 35  1  0
 33 36  1  0
 17 27  1  0
M  ISO  8  19  14  20  14  21  14  22  14  23  14  24  14  25  14  26  14
M  ISO  2  29  15  31  16
M  END
>  <DihAtoms>  (1) 
15,16,26,27

>  <DihDeg>  (1) 
-138.88468217806968

$$$$
