
     RDKit          3D

 33 36  0  0  0  0  0  0  0  0999 V2000
   36.8479   30.5610   46.9117 C   0  0  0  0  0  0  0  0  0  0  0  0
   37.5179   31.0403   48.0308 C   0  0  0  0  0  0  0  0  0  0  0  0
   38.5066   31.9836   47.8962 C   0  0  0  0  0  0  0  0  0  0  0  0
   38.8030   32.4319   46.6029 C   0  0  0  0  0  0  0  0  0  0  0  0
   39.7367   33.3530   46.2442 N   0  0  0  0  0  0  0  0  0  0  0  0
   39.6603   33.4565   44.9173 C   0  0  0  0  0  0  0  0  0  0  0  0
   38.7193   32.6402   44.4310 N   0  0  0  0  0  0  0  0  0  0  0  0
   38.1529   31.9724   45.4751 C   0  0  0  0  0  0  0  0  0  0  0  0
   37.1616   31.0227   45.6399 C   0  0  0  0  0  0  0  0  0  0  0  0
   37.3852   30.0954   51.6634 C   0  0  0  0  0  0  0  0  0  0  0  0
   37.8656   30.6579   50.4878 C   0  0  0  0  0  0  0  0  0  0  0  0
   37.1274   30.5039   49.3189 C   0  0  0  0  0  0  0  0  0  0  0  0
   35.9509   29.7974   49.3873 N   0  0  0  0  0  0  0  0  0  0  0  0
   35.5070   29.2585   50.5539 C   0  0  0  0  0  0  0  0  0  0  0  0
   36.2133   29.4067   51.6688 N   0  0  0  0  0  0  0  0  0  0  0  0
   40.4404   34.2904   44.1288 O   0  0  0  0  0  0  0  0  0  0  0  0
   36.0526   29.8137   46.9338 H   0  0  0  0  0  0  0  0  0  0  0  0
   39.0160   32.3450   48.7736 H   0  0  0  0  0  0  0  0  0  0  0  0
   40.3687   33.8527   46.9385 H   0  0  0  0  0  0  0  0  0  0  0  0
   36.6529   30.6644   44.7480 H   0  0  0  0  0  0  0  0  0  0  0  0
   37.9459   30.2083   52.5689 H   0  0  0  0  0  0  0  0  0  0  0  0
   38.7918   31.2109   50.4458 H   0  0  0  0  0  0  0  0  0  0  0  0
   34.5647   28.7338   50.4364 H   0  0  0  0  0  0  0  0  0  0  0  0
   41.3949   35.1107   44.6802 C   0  0  0  0  0  0  0  0  0  0  0  0
   40.7977   36.3385   44.9841 C   0  0  0  0  0  0  0  0  0  0  0  0
   39.7710   36.6506   44.8363 H   0  0  0  0  0  0  0  0  0  0  0  0
   41.5077   37.3972   45.5615 C   0  0  0  0  0  0  0  0  0  0  0  0
   41.1200   38.3572   45.8196 H   0  0  0  0  0  0  0  0  0  0  0  0
   42.8658   37.2346   45.8505 C   0  0  0  0  0  0  0  0  0  0  0  0
   43.4092   36.0013   45.5306 C   0  0  0  0  0  0  0  0  0  0  0  0
   42.6953   35.0103   44.9775 N   0  0  0  0  0  0  0  0  0  0  0  0
   43.5095   37.9755   46.2923 H   0  0  0  0  0  0  0  0  0  0  0  0
   44.4517   35.7157   45.6925 H   0  0  0  0  0  0  0  0  0  0  0  0
  1  2  2  0
  2 12  1  0
  3  2  1  0
  4  3  2  0
  5  4  1  0
  6  5  1  0
  7  6  2  0
  7  8  1  0
  8  9  2  0
  8  4  1  0
  9  1  1  0
 10 15  2  0
 11 10  1  0
 12 13  1  0
 12 11  2  0
 13 14  2  0
 14 15  1  0
 16  6  1  0
  1 17  1  0
  3 18  1  0
  5 19  1  0
  9 20  1  0
 10 21  1  0
 11 22  1  0
 14 23  1  0
 24 25  2  0
 25 26  1  0
 25 27  1  0
 27 28  1  0
 27 29  2  0
 29 30  1  0
 30 31  2  0
 31 24  1  0
 29 32  1  0
 30 33  1  0
 16 24  1  0
M  ISO  8  17  14  18  14  19   9  20  14  21  14  22  14  23  14  26  15
M  ISO  1  28  16
M  END
>  <DihAtoms>  (1) 
5,15,23,24

>  <DihDeg>  (1) 
-179.9997746032564

$$$$
