
     RDKit          3D

 30 32  0  0  0  0  0  0  0  0999 V2000
   36.1090   30.0950   45.9330 Cl  0  0  0  0  0  0  0  0  0  0  0  0
   37.3840   31.1280   46.5480 C   0  0  0  0  0  0  0  0  0  0  0  0
   37.5120   31.2350   47.9000 C   0  0  0  0  0  0  0  0  0  0  0  0
   38.5450   32.0720   48.3210 C   0  0  0  0  0  0  0  0  0  0  0  0
   39.3560   32.7260   47.4120 C   0  0  0  0  0  0  0  0  0  0  0  0
   39.1680   32.5700   46.0610 C   0  0  0  0  0  0  0  0  0  0  0  0
   38.1560   31.7500   45.6250 C   0  0  0  0  0  0  0  0  0  0  0  0
   37.2280   29.7030   49.8430 C   0  0  0  0  0  0  0  0  0  0  0  0
   36.6760   30.5620   48.8870 C   0  0  0  0  0  0  0  0  0  0  0  0
   35.2910   30.7690   48.8910 C   0  0  0  0  0  0  0  0  0  0  0  0
   34.5630   30.1170   49.8330 N   0  0  0  0  0  0  0  0  0  0  0  0
   35.1150   29.2960   50.7400 C   0  0  0  0  0  0  0  0  0  0  0  0
   36.4430   29.0860   50.7510 N   0  0  0  0  0  0  0  0  0  0  0  0
   37.9810   31.6070   44.2530 O   0  0  0  0  0  0  0  0  0  0  0  0
   38.7290   30.6200   43.6290 C   0  0  0  0  0  0  0  0  0  0  0  0
   39.7240   31.2010   42.8380 C   0  0  0  0  0  0  0  0  0  0  0  0
   40.6090   30.4050   42.1060 C   0  0  0  0  0  0  0  0  0  0  0  0
   40.4730   29.0180   42.1880 C   0  0  0  0  0  0  0  0  0  0  0  0
   39.4690   28.5120   42.9880 C   0  0  0  0  0  0  0  0  0  0  0  0
   38.6270   29.2930   43.6830 N   0  0  0  0  0  0  0  0  0  0  0  0
   38.7181   32.2148   49.3979 H   0  0  0  0  0  0  0  0  0  0  0  0
   40.1623   33.3798   47.7760 H   0  0  0  0  0  0  0  0  0  0  0  0
   39.8157   33.0919   45.3412 H   0  0  0  0  0  0  0  0  0  0  0  0
   38.3140   29.5284   49.8549 H   0  0  0  0  0  0  0  0  0  0  0  0
   34.8112   31.4348   48.1585 H   0  0  0  0  0  0  0  0  0  0  0  0
   34.4763   28.7912   51.4798 H   0  0  0  0  0  0  0  0  0  0  0  0
   39.8114   32.2965   42.7912 H   0  0  0  0  0  0  0  0  0  0  0  0
   41.3923   30.8594   41.4815 H   0  0  0  0  0  0  0  0  0  0  0  0
   41.1458   28.3488   41.6317 H   0  0  0  0  0  0  0  0  0  0  0  0
   39.3535   27.4204   43.0594 H   0  0  0  0  0  0  0  0  0  0  0  0
  1  2  1  0
  2  3  2  0
  3  4  1  0
  3  9  1  0
  5  4  2  0
  6  5  1  0
  7  6  2  0
  7  2  1  0
  8 13  2  0
  9 10  2  0
  9  8  1  0
 10 11  1  0
 11 12  2  0
 12 13  1  0
 14  7  1  0
 15 20  1  0
 15 14  1  0
 16 15  2  0
 17 18  2  0
 17 16  1  0
 18 19  1  0
 19 20  2  0
  4 21  1  0
  5 22  1  0
  6 23  1  0
  8 24  1  0
 10 25  1  0
 12 26  1  0
 16 27  1  0
 17 28  1  0
 18 29  1  0
 19 30  1  0
M  ISO  8  21  14  22  14  23  14  24  14  25  14  26  14  27  14  28  14
M  ISO  2  29  14  30  14
M  END
>  <minimizedAffinity>  (1) 
-5.29045963

>  <minimizedRMSD>  (1) 
2.45432162

$$$$
