
     RDKit          3D

 27 28  0  0  0  0  0  0  0  0999 V2000
   35.5060   29.9180   46.2080 O   0  0  0  0  0  0  0  0  0  0  0  0
   34.4680   29.7400   47.2770 P   0  0  1  0  0  0  0  0  0  0  0  0
   34.4710   28.1650   47.9040 O   0  0  0  0  0  0  0  0  0  0  0  0
   34.7580   30.7810   48.6280 O   0  0  0  0  0  0  0  0  0  0  0  0
   35.9450   30.7380   49.3480 C   0  0  0  0  0  0  0  0  0  0  0  0
   36.1950   29.9660   50.4730 C   0  0  0  0  0  0  0  0  0  0  0  0
   37.4450   30.0510   51.0660 C   0  0  0  0  0  0  0  0  0  0  0  0
   38.3880   30.8750   50.5440 N   0  0  0  0  0  0  0  0  0  0  0  0
   38.1110   31.6260   49.4300 C   0  0  0  0  0  0  0  0  0  0  0  0
   36.8900   31.5520   48.8400 N   0  0  0  0  0  0  0  0  0  0  0  0
   35.1190   29.1670   50.8890 N   0  0  0  0  0  0  0  0  0  0  0  0
   32.9780   30.1390   46.5970 O   0  0  0  0  0  0  0  0  0  0  0  0
   31.9870   29.2550   46.2340 C   0  0  0  0  0  0  0  0  0  0  0  0
   30.6130   29.3830   46.2310 C   0  0  0  0  0  0  0  0  0  0  0  0
   29.8290   28.3300   45.8140 C   0  0  0  0  0  0  0  0  0  0  0  0
   30.3670   27.1320   45.3920 C   0  0  0  0  0  0  0  0  0  0  0  0
   31.7450   27.0430   45.4080 C   0  0  0  0  0  0  0  0  0  0  0  0
   32.5370   28.0760   45.8190 N   0  0  0  0  0  0  0  0  0  0  0  0
   34.4709   28.2036   48.8932 H   0  0  0  0  0  0  0  0  0  0  0  0
   37.6723   29.4507   51.9593 H   0  0  0  0  0  0  0  0  0  0  0  0
   38.8813   32.2912   49.0127 H   0  0  0  0  0  0  0  0  0  0  0  0
   35.2169   28.5614   51.7164 H   0  0  0  0  0  0  0  0  0  0  0  0
   34.2313   29.1861   50.3669 H   0  0  0  0  0  0  0  0  0  0  0  0
   30.1455   30.3226   46.5605 H   0  0  0  0  0  0  0  0  0  0  0  0
   28.7354   28.4486   45.8176 H   0  0  0  0  0  0  0  0  0  0  0  0
   29.7343   26.2951   45.0615 H   0  0  0  0  0  0  0  0  0  0  0  0
   32.2207   26.1076   45.0782 H   0  0  0  0  0  0  0  0  0  0  0  0
  2  1  2  0
  2  3  1  0
  2  4  1  0
  4  5  1  0
  5  6  2  0
  6 11  1  0
  6  7  1  0
  8  7  2  0
  9  8  1  0
 10  5  1  0
 10  9  2  0
 12  2  1  0
 13 12  1  0
 14 13  2  0
 15 14  1  0
 16 17  1  0
 16 15  2  0
 17 18  2  0
 18 13  1  0
  3 19  1  0
  7 20  1  0
  9 21  1  0
 11 22  1  0
 11 23  1  0
 14 24  1  0
 15 25  1  0
 16 26  1  0
 17 27  1  0
M  ISO  7  19   3  20  14  21  14  24  14  25  14  26  14  27  14
M  END
>  <minimizedAffinity>  (1) 
-3.88353992

>  <minimizedRMSD>  (1) 
2.03334689

$$$$
