
     RDKit          3D

 20 21  0  0  0  0  0  0  0  0999 V2000
   37.3230   30.2294   51.4225 C   0  0  0  0  0  0  0  0  0  0  0  0
   38.0686   30.7291   50.3433 C   0  0  0  0  0  0  0  0  0  0  0  0
   37.6975   30.3725   49.0426 C   0  0  0  0  0  0  0  0  0  0  0  0
   36.6189   29.5496   48.9009 N   0  0  0  0  0  0  0  0  0  0  0  0
   35.9211   29.0853   49.9680 C   0  0  0  0  0  0  0  0  0  0  0  0
   36.2856   29.4336   51.2124 N   0  0  0  0  0  0  0  0  0  0  0  0
   34.8772   28.2753   49.5992 O   0  0  0  0  0  0  0  0  0  0  0  0
   37.6400   30.5277   52.4272 H   0  0  0  0  0  0  0  0  0  0  0  0
   38.9113   31.3725   50.4603 H   0  0  0  0  0  0  0  0  0  0  0  0
   38.2552   30.7437   48.1903 H   0  0  0  0  0  0  0  0  0  0  0  0
   33.9756   27.6413   50.3986 C   0  0  0  0  0  0  0  0  0  0  0  0
   34.0863   26.5231   51.1994 C   0  0  0  0  0  0  0  0  0  0  0  0
   35.0618   26.0937   51.1726 H   0  0  0  0  0  0  0  0  0  0  0  0
   33.0125   26.0603   51.9319 C   0  0  0  0  0  0  0  0  0  0  0  0
   33.1975   25.1793   52.5277 H   0  0  0  0  0  0  0  0  0  0  0  0
   31.7886   26.6986   51.8905 C   0  0  0  0  0  0  0  0  0  0  0  0
   31.6983   27.8228   51.0781 C   0  0  0  0  0  0  0  0  0  0  0  0
   32.7648   28.2738   50.3571 N   0  0  0  0  0  0  0  0  0  0  0  0
   30.9548   26.3279   52.4680 H   0  0  0  0  0  0  0  0  0  0  0  0
   30.7360   28.3137   51.0540 H   0  0  0  0  0  0  0  0  0  0  0  0
  2  1  2  0
  3  2  1  0
  4  3  2  0
  4  5  1  0
  5  6  2  0
  6  1  1  0
  7  5  1  0
  1  8  1  0
  2  9  1  0
  3 10  1  0
 11 12  2  0
 12 13  1  0
 12 14  1  0
 14 15  1  0
 14 16  2  0
 16 17  1  0
 17 18  2  0
 18 11  1  0
 16 19  1  0
 17 20  1  0
  7 11  1  0
M  ISO  5   8  14   9  14  10  14  13  15  15  16
M  END
>  <DihAtoms>  (1) 
4,6,10,11

>  <DihDeg>  (1) 
-0.0003089765740329861

$$$$
