
     RDKit          3D

 20 21  0  0  0  0  0  0  0  0999 V2000
   37.3230   30.2294   51.4225 C   0  0  0  0  0  0  0  0  0  0  0  0
   38.0686   30.7291   50.3433 C   0  0  0  0  0  0  0  0  0  0  0  0
   37.6975   30.3725   49.0426 C   0  0  0  0  0  0  0  0  0  0  0  0
   36.6189   29.5496   48.9009 N   0  0  0  0  0  0  0  0  0  0  0  0
   35.9211   29.0853   49.9680 C   0  0  0  0  0  0  0  0  0  0  0  0
   36.2856   29.4336   51.2124 N   0  0  0  0  0  0  0  0  0  0  0  0
   34.8772   28.2753   49.5992 O   0  0  0  0  0  0  0  0  0  0  0  0
   37.6400   30.5277   52.4272 H   0  0  0  0  0  0  0  0  0  0  0  0
   38.9113   31.3725   50.4603 H   0  0  0  0  0  0  0  0  0  0  0  0
   38.2552   30.7437   48.1903 H   0  0  0  0  0  0  0  0  0  0  0  0
   33.9756   27.6413   50.3986 C   0  0  0  0  0  0  0  0  0  0  0  0
   32.6498   27.9050   50.6752 C   0  0  0  0  0  0  0  0  0  0  0  0
   32.2857   28.7644   50.1598 H   0  0  0  0  0  0  0  0  0  0  0  0
   31.9269   27.1044   51.5356 C   0  0  0  0  0  0  0  0  0  0  0  0
   30.8977   27.3917   51.6885 H   0  0  0  0  0  0  0  0  0  0  0  0
   32.5033   26.0108   52.1511 C   0  0  0  0  0  0  0  0  0  0  0  0
   33.8393   25.7626   51.8590 C   0  0  0  0  0  0  0  0  0  0  0  0
   34.5470   26.5591   51.0071 N   0  0  0  0  0  0  0  0  0  0  0  0
   31.9283   25.3908   52.8229 H   0  0  0  0  0  0  0  0  0  0  0  0
   34.2793   24.9044   52.3464 H   0  0  0  0  0  0  0  0  0  0  0  0
  2  1  2  0
  3  2  1  0
  4  3  2  0
  4  5  1  0
  5  6  2  0
  6  1  1  0
  7  5  1  0
  1  8  1  0
  2  9  1  0
  3 10  1  0
 11 12  2  0
 12 13  1  0
 12 14  1  0
 14 15  1  0
 14 16  2  0
 16 17  1  0
 17 18  2  0
 18 11  1  0
 16 19  1  0
 17 20  1  0
  7 11  1  0
M  ISO  5   8  14   9  14  10  14  13  15  15  16
M  END
>  <DihAtoms>  (1) 
4,6,10,11

>  <DihDeg>  (1) 
-0.0003089765740329861

$$$$
