
     RDKit          3D

 20 21  0  0  0  0  0  0  0  0999 V2000
   37.3230   30.2294   51.4225 C   0  0  0  0  0  0  0  0  0  0  0  0
   38.0686   30.7291   50.3433 C   0  0  0  0  0  0  0  0  0  0  0  0
   37.6975   30.3725   49.0426 C   0  0  0  0  0  0  0  0  0  0  0  0
   36.6189   29.5496   48.9009 N   0  0  0  0  0  0  0  0  0  0  0  0
   35.9211   29.0853   49.9680 C   0  0  0  0  0  0  0  0  0  0  0  0
   36.2856   29.4336   51.2124 N   0  0  0  0  0  0  0  0  0  0  0  0
   34.8772   28.2753   49.5992 O   0  0  0  0  0  0  0  0  0  0  0  0
   37.6400   30.5277   52.4272 H   0  0  0  0  0  0  0  0  0  0  0  0
   38.9113   31.3725   50.4603 H   0  0  0  0  0  0  0  0  0  0  0  0
   38.2552   30.7437   48.1903 H   0  0  0  0  0  0  0  0  0  0  0  0
   33.9756   27.6413   50.3986 C   0  0  0  0  0  0  0  0  0  0  0  0
   33.0607   28.1235   51.3120 C   0  0  0  0  0  0  0  0  0  0  0  0
   33.0799   29.1867   51.3904 H   0  0  0  0  0  0  0  0  0  0  0  0
   32.2374   27.2697   52.0168 C   0  0  0  0  0  0  0  0  0  0  0  0
   31.5556   27.7416   52.7079 H   0  0  0  0  0  0  0  0  0  0  0  0
   32.2988   25.9022   51.8342 C   0  0  0  0  0  0  0  0  0  0  0  0
   33.2267   25.4371   50.9099 C   0  0  0  0  0  0  0  0  0  0  0  0
   34.0370   26.2881   50.2171 N   0  0  0  0  0  0  0  0  0  0  0  0
   31.6496   25.2429   52.3912 H   0  0  0  0  0  0  0  0  0  0  0  0
   33.2654   24.3656   50.7756 H   0  0  0  0  0  0  0  0  0  0  0  0
  2  1  2  0
  3  2  1  0
  4  3  2  0
  4  5  1  0
  5  6  2  0
  6  1  1  0
  7  5  1  0
  1  8  1  0
  2  9  1  0
  3 10  1  0
 11 12  2  0
 12 13  1  0
 12 14  1  0
 14 15  1  0
 14 16  2  0
 16 17  1  0
 17 18  2  0
 18 11  1  0
 16 19  1  0
 17 20  1  0
  7 11  1  0
M  ISO  5   8  14   9  14  10  14  13  15  15  16
M  END
>  <DihAtoms>  (1) 
4,6,10,11

>  <DihDeg>  (1) 
-0.0003089765740329861

$$$$
