
     RDKit          3D

 20 21  0  0  0  0  0  0  0  0999 V2000
   37.3230   30.2294   51.4225 C   0  0  0  0  0  0  0  0  0  0  0  0
   38.0686   30.7291   50.3433 C   0  0  0  0  0  0  0  0  0  0  0  0
   37.6975   30.3725   49.0426 C   0  0  0  0  0  0  0  0  0  0  0  0
   36.6189   29.5496   48.9009 N   0  0  0  0  0  0  0  0  0  0  0  0
   35.9211   29.0853   49.9680 C   0  0  0  0  0  0  0  0  0  0  0  0
   36.2856   29.4336   51.2124 N   0  0  0  0  0  0  0  0  0  0  0  0
   34.8772   28.2753   49.5992 O   0  0  0  0  0  0  0  0  0  0  0  0
   37.6400   30.5277   52.4272 H   0  0  0  0  0  0  0  0  0  0  0  0
   38.9113   31.3725   50.4603 H   0  0  0  0  0  0  0  0  0  0  0  0
   38.2552   30.7437   48.1903 H   0  0  0  0  0  0  0  0  0  0  0  0
   33.9756   27.6413   50.3986 C   0  0  0  0  0  0  0  0  0  0  0  0
   33.6516   27.8093   51.7293 C   0  0  0  0  0  0  0  0  0  0  0  0
   34.2220   28.5793   52.1968 H   0  0  0  0  0  0  0  0  0  0  0  0
   32.6840   27.0323   52.3322 C   0  0  0  0  0  0  0  0  0  0  0  0
   32.5017   27.2385   53.3760 H   0  0  0  0  0  0  0  0  0  0  0  0
   32.0047   26.0587   51.6267 C   0  0  0  0  0  0  0  0  0  0  0  0
   32.3458   25.9056   50.2880 C   0  0  0  0  0  0  0  0  0  0  0  0
   33.3038   26.6781   49.6994 N   0  0  0  0  0  0  0  0  0  0  0  0
   31.2491   25.4561   52.1085 H   0  0  0  0  0  0  0  0  0  0  0  0
   31.8077   25.1409   49.7465 H   0  0  0  0  0  0  0  0  0  0  0  0
  2  1  2  0
  3  2  1  0
  4  3  2  0
  4  5  1  0
  5  6  2  0
  6  1  1  0
  7  5  1  0
  1  8  1  0
  2  9  1  0
  3 10  1  0
 11 12  2  0
 12 13  1  0
 12 14  1  0
 14 15  1  0
 14 16  2  0
 16 17  1  0
 17 18  2  0
 18 11  1  0
 16 19  1  0
 17 20  1  0
  7 11  1  0
M  ISO  5   8  14   9  14  10  14  13  15  15  16
M  END
>  <DihAtoms>  (1) 
4,6,10,11

>  <DihDeg>  (1) 
-0.0003089765740329861

$$$$
