
     RDKit          3D

 40 43  0  0  1  0  0  0  0  0999 V2000
   34.4640   29.2060   48.8230 C   0  0  2  0  0  0  0  0  0  0  0  0
   35.1460   28.4490   49.9130 C   0  0  0  0  0  0  0  0  0  0  0  0
   36.3320   29.1840   50.3290 N   0  0  0  0  0  0  0  0  0  0  0  0
   37.3350   29.8770   51.0820 C   0  0  0  0  0  0  0  0  0  0  0  0
   37.6200   30.0470   52.2860 O   0  0  0  0  0  0  0  0  0  0  0  0
   38.0130   30.3960   49.8960 C   0  0  1  0  0  0  0  0  0  0  0  0
   37.1320   29.4260   49.1560 C   0  0  2  0  0  0  0  0  0  0  0  0
   35.8450   30.1860   48.1130 S   0  0  0  0  0  0  0  0  0  0  0  0
   33.2980   30.0390   49.2350 C   0  0  0  0  0  0  0  0  0  0  0  0
   34.0920   28.2120   47.7120 C   0  0  0  0  0  0  0  0  0  0  0  0
   32.6420   28.0160   47.5780 C   0  0  0  0  0  0  0  0  0  0  0  0
   31.9900   27.1070   48.3840 C   0  0  0  0  0  0  0  0  0  0  0  0
   30.6360   26.8020   48.3880 C   0  0  0  0  0  0  0  0  0  0  0  0
   29.8860   27.5230   47.4530 C   0  0  0  0  0  0  0  0  0  0  0  0
   30.5140   28.4430   46.6300 C   0  0  0  0  0  0  0  0  0  0  0  0
   31.8380   28.6610   46.7110 N   0  0  0  0  0  0  0  0  0  0  0  0
   37.7980   31.8350   49.6140 C   0  0  0  0  0  0  0  0  0  0  0  0
   36.8270   32.3440   50.2430 O   0  0  0  0  0  0  0  0  0  0  0  0
   38.6300   32.5820   48.7060 C   0  0  0  0  0  0  0  0  0  0  0  0
   39.1520   33.7830   49.1610 C   0  0  0  0  0  0  0  0  0  0  0  0
   39.9700   34.5230   48.2730 C   0  0  0  0  0  0  0  0  0  0  0  0
   40.1920   34.0090   47.0300 N   0  0  0  0  0  0  0  0  0  0  0  0
   39.6720   32.8520   46.6310 C   0  0  0  0  0  0  0  0  0  0  0  0
   38.8900   32.1350   47.4660 N   0  0  0  0  0  0  0  0  0  0  0  0
   34.4627   28.3369   50.7677 H   0  0  0  0  0  0  0  0  0  0  0  0
   35.4348   27.4519   49.5491 H   0  0  0  0  0  0  0  0  0  0  0  0
   39.1063   30.4223   49.7774 H   0  0  0  0  0  0  0  0  0  0  0  0
   37.6873   28.6922   48.5533 H   0  0  0  0  0  0  0  0  0  0  0  0
   33.2444   30.0773   50.3330 H   0  0  0  0  0  0  0  0  0  0  0  0
   33.4168   31.0579   48.8380 H   0  0  0  0  0  0  0  0  0  0  0  0
   32.3726   29.5963   48.8380 H   0  0  0  0  0  0  0  0  0  0  0  0
   34.4841   28.5913   46.7568 H   0  0  0  0  0  0  0  0  0  0  0  0
   34.5318   27.2399   47.9798 H   0  0  0  0  0  0  0  0  0  0  0  0
   32.6144   26.5610   49.1065 H   0  0  0  0  0  0  0  0  0  0  0  0
   30.1919   26.0588   49.0666 H   0  0  0  0  0  0  0  0  0  0  0  0
   28.8012   27.3599   47.3717 H   0  0  0  0  0  0  0  0  0  0  0  0
   29.9182   29.0058   45.8963 H   0  0  0  0  0  0  0  0  0  0  0  0
   38.9382   34.1483   50.1763 H   0  0  0  0  0  0  0  0  0  0  0  0
   40.4127   35.4831   48.5768 H   0  0  0  0  0  0  0  0  0  0  0  0
   39.8796   32.4780   45.6176 H   0  0  0  0  0  0  0  0  0  0  0  0
  1 10  1  6
  1  9  1  0
  1  2  1  0
  2  3  1  0
  3  4  1  0
  4  5  2  0
  6  4  1  0
  7  6  1  0
  7  3  1  0
  8  1  1  0
  8  7  1  0
 11 10  1  0
 11 12  2  0
 12 13  1  0
 14 13  2  0
 15 16  2  0
 15 14  1  0
 16 11  1  0
 17  6  1  0
 17 18  2  0
 19 20  2  0
 19 17  1  0
 21 20  1  0
 22 21  2  0
 23 22  1  0
 23 24  2  0
 24 19  1  0
  2 25  1  0
  2 26  1  0
  6 27  1  1
  7 28  1  6
  9 29  1  0
  9 30  1  0
  9 31  1  0
 10 32  1  0
 10 33  1  0
 12 34  1  0
 13 35  1  0
 14 36  1  0
 15 37  1  0
 20 38  1  0
 21 39  1  0
 23 40  1  0
M  ISO  8  25  13  26  13  27  13  28  13  29   8  30   8  31   8  32   8
M  ISO  8  33   8  34  14  35  14  36  14  37  14  38  14  39  14  40  14
M  END
>  <minimizedAffinity>  (1) 
-5.31799936

>  <minimizedRMSD>  (1) 
1.72869575

$$$$
