
     RDKit          3D

 58 64  0  0  0  0  0  0  0  0999 V2000
   34.6230   29.7437   46.1050 N   0  0  0  0  0  0  0  0  0  0  0  0
   33.3856   29.9163   45.3687 C   0  0  0  0  0  0  0  0  0  0  0  0
   33.5487   29.7750   43.8995 C   0  0  0  0  0  0  0  0  0  0  0  0
   34.7070   28.9810   43.6085 N   0  0  0  0  0  0  0  0  0  0  0  0
   35.8787   29.7648   43.9912 C   0  0  0  0  0  0  0  0  0  0  0  0
   35.9609   29.6683   45.4832 C   0  0  1  0  0  0  0  0  0  0  0  0
   37.5345   31.6488   45.3312 C   0  0  0  0  0  0  0  0  0  0  0  0
   36.9047   30.6451   46.0698 C   0  0  0  0  0  0  0  0  0  0  0  0
   37.1120   30.5347   47.4298 C   0  0  0  0  0  0  0  0  0  0  0  0
   37.9527   31.4501   48.0263 C   0  0  0  0  0  0  0  0  0  0  0  0
   38.5891   32.4638   47.2715 C   0  0  0  0  0  0  0  0  0  0  0  0
   38.3887   32.5836   45.8868 C   0  0  0  0  0  0  0  0  0  0  0  0
   39.3936   33.2528   48.1181 O   0  0  0  0  0  0  0  0  0  0  0  0
   38.9613   32.9836   49.4270 C   0  0  0  0  0  0  0  0  0  0  0  0
   38.3935   31.6763   49.3292 O   0  0  0  0  0  0  0  0  0  0  0  0
   34.7104   28.3739   48.1409 C   0  0  0  0  0  0  0  0  0  0  0  0
   34.5619   29.6335   47.5201 C   0  0  0  0  0  0  0  0  0  0  0  0
   34.3755   30.7264   48.3384 C   0  0  0  0  0  0  0  0  0  0  0  0
   34.3484   30.5257   49.6932 N   0  0  0  0  0  0  0  0  0  0  0  0
   34.4948   29.3162   50.2430 C   0  0  0  0  0  0  0  0  0  0  0  0
   34.6758   28.2315   49.4817 N   0  0  0  0  0  0  0  0  0  0  0  0
   33.0247   30.9562   45.6195 H   0  0  0  0  0  0  0  0  0  0  0  0
   32.5986   29.1841   45.7071 H   0  0  0  0  0  0  0  0  0  0  0  0
   32.6349   29.4125   43.3943 H   0  0  0  0  0  0  0  0  0  0  0  0
   33.7286   30.7994   43.4807 H   0  0  0  0  0  0  0  0  0  0  0  0
   34.7746   28.6452   42.6282 H   0  0  0  0  0  0  0  0  0  0  0  0
   36.7551   29.2730   43.5479 H   0  0  0  0  0  0  0  0  0  0  0  0
   35.6672   30.7797   43.6231 H   0  0  0  0  0  0  0  0  0  0  0  0
   36.3201   28.6584   45.7694 H   0  0  0  0  0  0  0  0  0  0  0  0
   37.3517   31.7026   44.2867 H   0  0  0  0  0  0  0  0  0  0  0  0
   36.8295   29.8401   48.1835 H   0  0  0  0  0  0  0  0  0  0  0  0
   38.8861   33.3677   45.3449 H   0  0  0  0  0  0  0  0  0  0  0  0
   38.1242   33.6850   49.7064 H   0  0  0  0  0  0  0  0  0  0  0  0
   39.7804   32.9909   50.1580 H   0  0  0  0  0  0  0  0  0  0  0  0
   34.8572   27.5119   47.4771 H   0  0  0  0  0  0  0  0  0  0  0  0
   34.2538   31.7144   47.9359 H   0  0  0  0  0  0  0  0  0  0  0  0
   34.4950   29.1692   51.6940 C   0  0  0  0  0  0  0  0  0  0  0  0
   33.9642   28.0376   52.2824 C   0  0  0  0  0  0  0  0  0  0  0  0
   33.5411   27.2447   51.6603 H   0  0  0  0  0  0  0  0  0  0  0  0
   33.9552   27.8801   53.6593 C   0  0  0  0  0  0  0  0  0  0  0  0
   33.5247   26.9700   54.0719 H   0  0  0  0  0  0  0  0  0  0  0  0
   34.4804   28.8524   54.5180 C   0  0  0  0  0  0  0  0  0  0  0  0
   34.9785   29.9275   53.8434 C   0  0  0  0  0  0  0  0  0  0  0  0
   35.0308   30.1684   52.5218 C   0  0  0  0  0  0  0  0  0  0  0  0
   35.4297   31.0283   52.0061 H   0  0  0  0  0  0  0  0  0  0  0  0
   35.7128   31.2902   54.7800 S   0  0  0  0  0  0  0  0  0  0  0  0
   35.5982   30.7812   56.4789 C   0  0  0  0  0  0  0  0  0  0  0  0
   36.0761   31.5513   57.5035 C   0  0  0  0  0  0  0  0  0  0  0  0
   36.5504   32.5107   57.2899 H   0  0  0  0  0  0  0  0  0  0  0  0
   36.0183   31.2180   58.8677 C   0  0  0  0  0  0  0  0  0  0  0  0
   36.4235   31.8890   59.6137 H   0  0  0  0  0  0  0  0  0  0  0  0
   35.4209   30.0044   59.1617 C   0  0  0  0  0  0  0  0  0  0  0  0
   35.3560   29.7134   60.1949 H   0  0  0  0  0  0  0  0  0  0  0  0
   34.9124   29.1730   58.1499 C   0  0  0  0  0  0  0  0  0  0  0  0
   34.4714   28.2534   58.5109 H   0  0  0  0  0  0  0  0  0  0  0  0
   35.0239   29.5982   56.8475 C   0  0  0  0  0  0  0  0  0  0  0  0
   34.4980   28.6908   55.9243 N   0  0  0  0  0  0  0  0  0  0  0  0
   34.0523   27.7748   56.2086 H   0  0  0  0  0  0  0  0  0  0  0  0
  1 17  1  0
  2  1  1  0
  3  2  1  0
  4  3  1  0
  4  5  1  0
  5  6  1  0
  6  8  1  0
  6  1  1  0
  7 12  2  0
  7  8  1  0
  8  9  2  0
  9 10  1  0
 10 15  1  0
 11 10  2  0
 11 13  1  0
 12 11  1  0
 13 14  1  0
 15 14  1  0
 16 21  2  0
 17 16  1  0
 17 18  2  0
 18 19  1  0
 19 20  2  0
 21 20  1  0
  2 22  1  0
  2 23  1  0
  3 24  1  0
  3 25  1  0
  4 26  1  0
  5 27  1  0
  5 28  1  0
  6 29  1  6
  7 30  1  0
  9 31  1  0
 12 32  1  0
 14 33  1  0
 14 34  1  0
 16 35  1  0
 18 36  1  0
 37 38  2  0
 38 39  1  0
 38 40  1  0
 40 41  1  0
 40 42  2  0
 42 43  1  0
 43 44  2  0
 44 45  1  0
 43 46  1  0
 46 47  1  0
 47 48  2  0
 48 49  1  0
 48 50  1  0
 50 51  1  0
 50 52  2  0
 52 53  1  0
 52 54  1  0
 54 55  1  0
 54 56  2  0
 56 57  1  0
 57 58  1  0
 44 37  1  0
 56 47  1  0
 57 42  1  0
 20 37  1  0
M  ISO  8  22  13  23  13  24  13  25  13  26   5  27  13  28  13  29  13
M  ISO  8  30  14  31  14  32  14  33  13  34  13  35  14  36  14  39  16
M  ISO  7  41  16  45  16  49  16  51  16  53  16  55  16  58   5
M  END
>  <DihAtoms>  (1) 
18,19,36,37

>  <DihDeg>  (1) 
176.27064785521804

$$$$
