
     RDKit          3D

 50 54  0  0  0  0  0  0  0  0999 V2000
   37.5622   30.8107   49.5029 C   0  0  0  0  0  0  0  0  0  0  0  0
   37.4781   32.1418   49.9158 C   0  0  0  0  0  0  0  0  0  0  0  0
   37.9349   33.1275   49.0068 C   0  0  0  0  0  0  0  0  0  0  0  0
   38.4152   32.7071   47.8149 N   0  0  0  0  0  0  0  0  0  0  0  0
   38.4761   31.4290   47.4609 C   0  0  0  0  0  0  0  0  0  0  0  0
   38.0511   30.4768   48.3019 N   0  0  0  0  0  0  0  0  0  0  0  0
   38.9831   31.1313   46.1692 N   0  0  0  0  0  0  0  0  0  0  0  0
   40.3838   30.8623   46.0011 C   0  0  0  0  0  0  0  0  0  0  0  0
   40.9255   31.5413   44.7623 C   0  0  0  0  0  0  0  0  0  0  0  0
   40.1007   31.3066   43.6274 N   0  0  0  0  0  0  0  0  0  0  0  0
   38.9427   30.5017   43.8517 C   0  0  0  0  0  0  0  0  0  0  0  0
   38.1297   31.0847   45.0189 C   0  0  2  0  0  0  0  0  0  0  0  0
   37.0956   29.7433   50.4516 C   0  0  0  0  0  0  0  0  0  0  0  0
   35.8006   29.3673   50.1328 F   0  0  0  0  0  0  0  0  0  0  0  0
   38.0120   28.7356   50.4308 F   0  0  0  0  0  0  0  0  0  0  0  0
   37.0262   30.3546   51.7244 F   0  0  0  0  0  0  0  0  0  0  0  0
   37.4175   32.2618   44.6518 C   0  0  0  0  0  0  0  0  0  0  0  0
   37.4550   32.6556   43.4727 O   0  0  0  0  0  0  0  0  0  0  0  0
   37.0794   32.3821   50.8878 H   0  0  0  0  0  0  0  0  0  0  0  0
   37.8719   34.1517   49.3200 H   0  0  0  0  0  0  0  0  0  0  0  0
   40.9688   31.2170   46.8921 H   0  0  0  0  0  0  0  0  0  0  0  0
   40.5489   29.7632   45.8652 H   0  0  0  0  0  0  0  0  0  0  0  0
   41.9033   31.0393   44.5592 H   0  0  0  0  0  0  0  0  0  0  0  0
   41.1574   32.5899   44.9924 H   0  0  0  0  0  0  0  0  0  0  0  0
   40.6205   30.9000   42.8117 H   0  0  0  0  0  0  0  0  0  0  0  0
   39.2490   29.4979   44.1537 H   0  0  0  0  0  0  0  0  0  0  0  0
   38.3328   30.5003   42.9381 H   0  0  0  0  0  0  0  0  0  0  0  0
   37.4011   30.2200   45.2396 H   0  0  0  0  0  0  0  0  0  0  0  0
   36.5519   33.3276   45.1156 C   0  0  0  0  0  0  0  0  0  0  0  0
   36.2736   34.5232   44.5062 C   0  0  0  0  0  0  0  0  0  0  0  0
   36.7990   34.8016   43.5904 H   0  0  0  0  0  0  0  0  0  0  0  0
   35.3316   35.4313   45.0154 C   0  0  0  0  0  0  0  0  0  0  0  0
   35.2126   36.3409   44.4291 H   0  0  0  0  0  0  0  0  0  0  0  0
   34.6497   35.1297   46.1695 C   0  0  0  0  0  0  0  0  0  0  0  0
   34.8690   33.9611   46.8341 C   0  0  0  0  0  0  0  0  0  0  0  0
   35.7852   33.1517   46.2777 C   0  0  0  0  0  0  0  0  0  0  0  0
   35.8670   32.2304   46.8716 H   0  0  0  0  0  0  0  0  0  0  0  0
   33.9474   33.6397   48.3231 S   0  0  0  0  0  0  0  0  0  0  0  0
   32.8924   35.0483   48.5718 C   0  0  0  0  0  0  0  0  0  0  0  0
   32.1030   34.9651   49.6885 C   0  0  0  0  0  0  0  0  0  0  0  0
   32.0897   34.1389   50.3822 H   0  0  0  0  0  0  0  0  0  0  0  0
   31.2397   36.0234   49.9695 C   0  0  0  0  0  0  0  0  0  0  0  0
   30.5695   36.0784   50.8148 H   0  0  0  0  0  0  0  0  0  0  0  0
   31.2112   37.1084   49.1196 C   0  0  0  0  0  0  0  0  0  0  0  0
   30.5569   37.9501   49.3002 H   0  0  0  0  0  0  0  0  0  0  0  0
   32.0433   37.0952   48.0249 C   0  0  0  0  0  0  0  0  0  0  0  0
   31.9874   37.9822   47.3733 H   0  0  0  0  0  0  0  0  0  0  0  0
   32.9275   36.0804   47.6807 C   0  0  0  0  0  0  0  0  0  0  0  0
   33.7440   36.1396   46.5470 N   0  0  0  0  0  0  0  0  0  0  0  0
   33.6092   37.0371   45.9919 H   0  0  0  0  0  0  0  0  0  0  0  0
  1  2  2  0
  1 13  1  0
  3  2  1  0
  4  3  2  0
  5  4  1  0
  5  6  2  0
  6  1  1  0
  7  5  1  0
  8  7  1  0
  9  8  1  0
 10 11  1  0
 10  9  1  0
 11 12  1  0
 12  7  1  0
 13 16  1  0
 14 13  1  0
 15 13  1  0
 17 12  1  0
 18 17  2  0
  2 19  1  0
  3 20  1  0
  8 21  1  0
  8 22  1  0
  9 23  1  0
  9 24  1  0
 10 25  1  0
 11 26  1  0
 11 27  1  0
 12 28  1  1
 29 30  2  0
 30 31  1  0
 30 32  1  0
 32 33  1  0
 32 34  2  0
 34 35  1  0
 35 36  2  0
 36 37  1  0
 35 38  1  0
 38 39  1  0
 39 40  2  0
 40 41  1  0
 40 42  1  0
 42 43  1  0
 42 44  2  0
 44 45  1  0
 44 46  1  0
 46 47  1  0
 46 48  2  0
 48 49  1  0
 49 50  1  0
 36 29  1  0
 48 39  1  0
 49 34  1  0
 17 29  1  0
M  ISO  8  19  14  20  14  21  13  22  13  23  13  24  13  25   5  26  13
M  ISO  8  27  13  28  13  31  16  33  16  37  16  41  16  43  16  45  16
M  ISO  2  47  16  50   5
M  END
>  <DihAtoms>  (1) 
11,16,28,29

>  <DihDeg>  (1) 
163.55403607809572

$$$$
