
     RDKit          3D

 50 54  0  0  0  0  0  0  0  0999 V2000
   37.5622   30.8107   49.5029 C   0  0  0  0  0  0  0  0  0  0  0  0
   37.4781   32.1418   49.9158 C   0  0  0  0  0  0  0  0  0  0  0  0
   37.9349   33.1275   49.0068 C   0  0  0  0  0  0  0  0  0  0  0  0
   38.4152   32.7071   47.8149 N   0  0  0  0  0  0  0  0  0  0  0  0
   38.4761   31.4290   47.4609 C   0  0  0  0  0  0  0  0  0  0  0  0
   38.0511   30.4768   48.3019 N   0  0  0  0  0  0  0  0  0  0  0  0
   38.9831   31.1313   46.1692 N   0  0  0  0  0  0  0  0  0  0  0  0
   40.3838   30.8623   46.0011 C   0  0  0  0  0  0  0  0  0  0  0  0
   40.9255   31.5413   44.7623 C   0  0  0  0  0  0  0  0  0  0  0  0
   40.1007   31.3066   43.6274 N   0  0  0  0  0  0  0  0  0  0  0  0
   38.9427   30.5017   43.8517 C   0  0  0  0  0  0  0  0  0  0  0  0
   38.1297   31.0847   45.0189 C   0  0  2  0  0  0  0  0  0  0  0  0
   37.0956   29.7433   50.4516 C   0  0  0  0  0  0  0  0  0  0  0  0
   35.8006   29.3673   50.1328 F   0  0  0  0  0  0  0  0  0  0  0  0
   38.0120   28.7356   50.4308 F   0  0  0  0  0  0  0  0  0  0  0  0
   37.0262   30.3546   51.7244 F   0  0  0  0  0  0  0  0  0  0  0  0
   37.4175   32.2618   44.6518 C   0  0  0  0  0  0  0  0  0  0  0  0
   37.4550   32.6556   43.4727 O   0  0  0  0  0  0  0  0  0  0  0  0
   37.0794   32.3821   50.8878 H   0  0  0  0  0  0  0  0  0  0  0  0
   37.8719   34.1517   49.3200 H   0  0  0  0  0  0  0  0  0  0  0  0
   40.9688   31.2170   46.8921 H   0  0  0  0  0  0  0  0  0  0  0  0
   40.5489   29.7632   45.8652 H   0  0  0  0  0  0  0  0  0  0  0  0
   41.9033   31.0393   44.5592 H   0  0  0  0  0  0  0  0  0  0  0  0
   41.1574   32.5899   44.9924 H   0  0  0  0  0  0  0  0  0  0  0  0
   40.6205   30.9000   42.8117 H   0  0  0  0  0  0  0  0  0  0  0  0
   39.2490   29.4979   44.1537 H   0  0  0  0  0  0  0  0  0  0  0  0
   38.3328   30.5003   42.9381 H   0  0  0  0  0  0  0  0  0  0  0  0
   37.4011   30.2200   45.2396 H   0  0  0  0  0  0  0  0  0  0  0  0
   36.5519   33.3276   45.1156 C   0  0  0  0  0  0  0  0  0  0  0  0
   36.0372   33.5196   46.3712 C   0  0  0  0  0  0  0  0  0  0  0  0
   36.1993   32.7674   47.1458 H   0  0  0  0  0  0  0  0  0  0  0  0
   35.2892   34.6564   46.7171 C   0  0  0  0  0  0  0  0  0  0  0  0
   34.9425   34.6769   47.7489 H   0  0  0  0  0  0  0  0  0  0  0  0
   35.0517   35.6279   45.7749 C   0  0  0  0  0  0  0  0  0  0  0  0
   35.5297   35.5113   44.5048 C   0  0  0  0  0  0  0  0  0  0  0  0
   36.2341   34.3941   44.2607 C   0  0  0  0  0  0  0  0  0  0  0  0
   36.5955   34.4099   43.2227 H   0  0  0  0  0  0  0  0  0  0  0  0
   35.1814   36.8109   43.3388 S   0  0  0  0  0  0  0  0  0  0  0  0
   34.2201   38.0231   44.2137 C   0  0  0  0  0  0  0  0  0  0  0  0
   33.8616   39.1060   43.4549 C   0  0  0  0  0  0  0  0  0  0  0  0
   34.1174   39.2519   42.4170 H   0  0  0  0  0  0  0  0  0  0  0  0
   33.1048   40.1126   44.0534 C   0  0  0  0  0  0  0  0  0  0  0  0
   32.7606   41.0126   43.5654 H   0  0  0  0  0  0  0  0  0  0  0  0
   32.7465   39.9834   45.3783 C   0  0  0  0  0  0  0  0  0  0  0  0
   32.1603   40.7402   45.8811 H   0  0  0  0  0  0  0  0  0  0  0  0
   33.1564   38.8574   46.0529 C   0  0  0  0  0  0  0  0  0  0  0  0
   32.8477   38.7959   47.1090 H   0  0  0  0  0  0  0  0  0  0  0  0
   33.9096   37.8158   45.5257 C   0  0  0  0  0  0  0  0  0  0  0  0
   34.2892   36.6996   46.2776 N   0  0  0  0  0  0  0  0  0  0  0  0
   33.9385   36.7435   47.2811 H   0  0  0  0  0  0  0  0  0  0  0  0
  1  2  2  0
  1 13  1  0
  3  2  1  0
  4  3  2  0
  5  4  1  0
  5  6  2  0
  6  1  1  0
  7  5  1  0
  8  7  1  0
  9  8  1  0
 10 11  1  0
 10  9  1  0
 11 12  1  0
 12  7  1  0
 13 16  1  0
 14 13  1  0
 15 13  1  0
 17 12  1  0
 18 17  2  0
  2 19  1  0
  3 20  1  0
  8 21  1  0
  8 22  1  0
  9 23  1  0
  9 24  1  0
 10 25  1  0
 11 26  1  0
 11 27  1  0
 12 28  1  1
 29 30  2  0
 30 31  1  0
 30 32  1  0
 32 33  1  0
 32 34  2  0
 34 35  1  0
 35 36  2  0
 36 37  1  0
 35 38  1  0
 38 39  1  0
 39 40  2  0
 40 41  1  0
 40 42  1  0
 42 43  1  0
 42 44  2  0
 44 45  1  0
 44 46  1  0
 46 47  1  0
 46 48  2  0
 48 49  1  0
 49 50  1  0
 36 29  1  0
 48 39  1  0
 49 34  1  0
 17 29  1  0
M  ISO  8  19  14  20  14  21  13  22  13  23  13  24  13  25   5  26  13
M  ISO  8  27  13  28  13  31  16  33  16  37  16  41  16  43  16  45  16
M  ISO  2  47  16  50   5
M  END
>  <DihAtoms>  (1) 
11,16,28,29

>  <DihDeg>  (1) 
163.55403607809572

$$$$
