
     RDKit          3D

 50 54  0  0  0  0  0  0  0  0999 V2000
   37.5622   30.8107   49.5029 C   0  0  0  0  0  0  0  0  0  0  0  0
   37.4781   32.1418   49.9158 C   0  0  0  0  0  0  0  0  0  0  0  0
   37.9349   33.1275   49.0068 C   0  0  0  0  0  0  0  0  0  0  0  0
   38.4152   32.7071   47.8149 N   0  0  0  0  0  0  0  0  0  0  0  0
   38.4761   31.4290   47.4609 C   0  0  0  0  0  0  0  0  0  0  0  0
   38.0511   30.4768   48.3019 N   0  0  0  0  0  0  0  0  0  0  0  0
   38.9831   31.1313   46.1692 N   0  0  0  0  0  0  0  0  0  0  0  0
   40.3838   30.8623   46.0011 C   0  0  0  0  0  0  0  0  0  0  0  0
   40.9255   31.5413   44.7623 C   0  0  0  0  0  0  0  0  0  0  0  0
   40.1007   31.3066   43.6274 N   0  0  0  0  0  0  0  0  0  0  0  0
   38.9427   30.5017   43.8517 C   0  0  0  0  0  0  0  0  0  0  0  0
   38.1297   31.0847   45.0189 C   0  0  2  0  0  0  0  0  0  0  0  0
   37.0956   29.7433   50.4516 C   0  0  0  0  0  0  0  0  0  0  0  0
   35.8006   29.3673   50.1328 F   0  0  0  0  0  0  0  0  0  0  0  0
   38.0120   28.7356   50.4308 F   0  0  0  0  0  0  0  0  0  0  0  0
   37.0262   30.3546   51.7244 F   0  0  0  0  0  0  0  0  0  0  0  0
   37.4175   32.2618   44.6518 C   0  0  0  0  0  0  0  0  0  0  0  0
   37.4550   32.6556   43.4727 O   0  0  0  0  0  0  0  0  0  0  0  0
   37.0794   32.3821   50.8878 H   0  0  0  0  0  0  0  0  0  0  0  0
   37.8719   34.1517   49.3200 H   0  0  0  0  0  0  0  0  0  0  0  0
   40.9688   31.2170   46.8921 H   0  0  0  0  0  0  0  0  0  0  0  0
   40.5489   29.7632   45.8652 H   0  0  0  0  0  0  0  0  0  0  0  0
   41.9033   31.0393   44.5592 H   0  0  0  0  0  0  0  0  0  0  0  0
   41.1574   32.5899   44.9924 H   0  0  0  0  0  0  0  0  0  0  0  0
   40.6205   30.9000   42.8117 H   0  0  0  0  0  0  0  0  0  0  0  0
   39.2490   29.4979   44.1537 H   0  0  0  0  0  0  0  0  0  0  0  0
   38.3328   30.5003   42.9381 H   0  0  0  0  0  0  0  0  0  0  0  0
   37.4011   30.2200   45.2396 H   0  0  0  0  0  0  0  0  0  0  0  0
   36.5519   33.3276   45.1156 C   0  0  0  0  0  0  0  0  0  0  0  0
   36.7870   34.2431   46.1080 C   0  0  0  0  0  0  0  0  0  0  0  0
   37.6900   34.1648   46.7168 H   0  0  0  0  0  0  0  0  0  0  0  0
   35.9021   35.2955   46.3923 C   0  0  0  0  0  0  0  0  0  0  0  0
   36.2153   35.9465   47.2067 H   0  0  0  0  0  0  0  0  0  0  0  0
   34.7484   35.4321   45.6588 C   0  0  0  0  0  0  0  0  0  0  0  0
   34.4430   34.5633   44.6551 C   0  0  0  0  0  0  0  0  0  0  0  0
   35.3437   33.5881   44.4510 C   0  0  0  0  0  0  0  0  0  0  0  0
   35.0191   32.9621   43.6078 H   0  0  0  0  0  0  0  0  0  0  0  0
   32.9299   34.8042   43.7482 S   0  0  0  0  0  0  0  0  0  0  0  0
   32.1493   36.2383   44.4503 C   0  0  0  0  0  0  0  0  0  0  0  0
   30.9574   36.5702   43.8618 C   0  0  0  0  0  0  0  0  0  0  0  0
   30.4965   36.0383   43.0441 H   0  0  0  0  0  0  0  0  0  0  0  0
   30.2679   37.6822   44.3439 C   0  0  0  0  0  0  0  0  0  0  0  0
   29.3231   38.0459   43.9673 H   0  0  0  0  0  0  0  0  0  0  0  0
   30.8062   38.4032   45.3882 C   0  0  0  0  0  0  0  0  0  0  0  0
   30.3047   39.2718   45.7924 H   0  0  0  0  0  0  0  0  0  0  0  0
   32.0088   37.9876   45.9097 C   0  0  0  0  0  0  0  0  0  0  0  0
   32.4016   38.5931   46.7426 H   0  0  0  0  0  0  0  0  0  0  0  0
   32.7518   36.8937   45.4837 C   0  0  0  0  0  0  0  0  0  0  0  0
   33.9708   36.5331   46.0661 N   0  0  0  0  0  0  0  0  0  0  0  0
   34.2543   37.1839   46.8585 H   0  0  0  0  0  0  0  0  0  0  0  0
  1  2  2  0
  1 13  1  0
  3  2  1  0
  4  3  2  0
  5  4  1  0
  5  6  2  0
  6  1  1  0
  7  5  1  0
  8  7  1  0
  9  8  1  0
 10 11  1  0
 10  9  1  0
 11 12  1  0
 12  7  1  0
 13 16  1  0
 14 13  1  0
 15 13  1  0
 17 12  1  0
 18 17  2  0
  2 19  1  0
  3 20  1  0
  8 21  1  0
  8 22  1  0
  9 23  1  0
  9 24  1  0
 10 25  1  0
 11 26  1  0
 11 27  1  0
 12 28  1  1
 29 30  2  0
 30 31  1  0
 30 32  1  0
 32 33  1  0
 32 34  2  0
 34 35  1  0
 35 36  2  0
 36 37  1  0
 35 38  1  0
 38 39  1  0
 39 40  2  0
 40 41  1  0
 40 42  1  0
 42 43  1  0
 42 44  2  0
 44 45  1  0
 44 46  1  0
 46 47  1  0
 46 48  2  0
 48 49  1  0
 49 50  1  0
 36 29  1  0
 48 39  1  0
 49 34  1  0
 17 29  1  0
M  ISO  8  19  14  20  14  21  13  22  13  23  13  24  13  25   5  26  13
M  ISO  8  27  13  28  13  31  16  33  16  37  16  41  16  43  16  45  16
M  ISO  2  47  16  50   5
M  END
>  <DihAtoms>  (1) 
11,16,28,29

>  <DihDeg>  (1) 
163.55403607809572

$$$$
