
     RDKit          3D

 44 48  0  0  0  0  0  0  0  0999 V2000
   37.9087   31.2634   47.9923 C   0  0  0  0  0  0  0  0  0  0  0  0
   37.4360   31.0127   46.7342 C   0  0  0  0  0  0  0  0  0  0  0  0
   38.1760   31.7749   45.8330 C   0  0  0  0  0  0  0  0  0  0  0  0
   39.0721   32.4609   46.5842 N   0  0  0  0  0  0  0  0  0  0  0  0
   38.9111   32.1546   47.8705 N   0  0  0  0  0  0  0  0  0  0  0  0
   37.3539   30.0422   51.4971 C   0  0  0  0  0  0  0  0  0  0  0  0
   37.9773   30.6880   50.4388 C   0  0  0  0  0  0  0  0  0  0  0  0
   37.3589   30.6309   49.1756 C   0  0  0  0  0  0  0  0  0  0  0  0
   36.1849   29.9413   49.0814 N   0  0  0  0  0  0  0  0  0  0  0  0
   35.6073   29.3237   50.1385 C   0  0  0  0  0  0  0  0  0  0  0  0
   36.1941   29.3770   51.3403 N   0  0  0  0  0  0  0  0  0  0  0  0
   40.0457   33.3856   46.0063 C   0  0  0  0  0  0  0  0  0  0  0  0
   39.9580   33.3450   44.5028 C   0  0  0  0  0  0  0  0  0  0  0  0
   36.6329   30.3568   46.3802 H   0  0  0  0  0  0  0  0  0  0  0  0
   38.0778   31.8283   44.7534 H   0  0  0  0  0  0  0  0  0  0  0  0
   37.8855   30.1277   52.4384 H   0  0  0  0  0  0  0  0  0  0  0  0
   38.9041   31.2280   50.5305 H   0  0  0  0  0  0  0  0  0  0  0  0
   34.6791   28.8071   49.9505 H   0  0  0  0  0  0  0  0  0  0  0  0
   41.0783   33.1252   46.3221 H   0  0  0  0  0  0  0  0  0  0  0  0
   39.7657   34.3886   46.3485 H   0  0  0  0  0  0  0  0  0  0  0  0
   38.9421   33.7608   44.2534 H   0  0  0  0  0  0  0  0  0  0  0  0
   40.0121   32.3369   44.0725 H   0  0  0  0  0  0  0  0  0  0  0  0
   40.9305   34.2692   43.9021 C   0  0  0  0  0  0  0  0  0  0  0  0
   40.5269   35.0874   42.8674 C   0  0  0  0  0  0  0  0  0  0  0  0
   39.5047   35.0319   42.5201 H   0  0  0  0  0  0  0  0  0  0  0  0
   41.4287   35.9601   42.2937 C   0  0  0  0  0  0  0  0  0  0  0  0
   41.0194   36.5736   41.4753 H   0  0  0  0  0  0  0  0  0  0  0  0
   42.7446   36.0842   42.6842 C   0  0  0  0  0  0  0  0  0  0  0  0
   43.1228   35.2603   43.7148 C   0  0  0  0  0  0  0  0  0  0  0  0
   42.2498   34.4034   44.2833 C   0  0  0  0  0  0  0  0  0  0  0  0
   42.5827   33.7543   45.1092 H   0  0  0  0  0  0  0  0  0  0  0  0
   44.8044   35.3445   44.2936 S   0  0  0  0  0  0  0  0  0  0  0  0
   45.6090   36.5747   43.2991 C   0  0  0  0  0  0  0  0  0  0  0  0
   46.9293   36.8646   43.5144 C   0  0  0  0  0  0  0  0  0  0  0  0
   47.4865   36.3346   44.3023 H   0  0  0  0  0  0  0  0  0  0  0  0
   47.6342   37.8022   42.7930 C   0  0  0  0  0  0  0  0  0  0  0  0
   48.6710   38.0716   42.9174 H   0  0  0  0  0  0  0  0  0  0  0  0
   46.9371   38.4671   41.8054 C   0  0  0  0  0  0  0  0  0  0  0  0
   47.4369   39.2150   41.2049 H   0  0  0  0  0  0  0  0  0  0  0  0
   45.6069   38.1596   41.6050 C   0  0  0  0  0  0  0  0  0  0  0  0
   45.1218   38.7320   40.8006 H   0  0  0  0  0  0  0  0  0  0  0  0
   44.8973   37.2227   42.3239 C   0  0  0  0  0  0  0  0  0  0  0  0
   43.5442   37.0267   41.9952 N   0  0  0  0  0  0  0  0  0  0  0  0
   43.1205   37.5870   41.2280 H   0  0  0  0  0  0  0  0  0  0  0  0
  1  8  1  0
  2  1  1  0
  3  4  1  0
  3  2  2  0
  4  5  1  0
  5  1  2  0
  7  6  2  0
  8  7  1  0
  9  8  2  0
  9 10  1  0
 10 11  2  0
 11  6  1  0
 12  4  1  0
 13 12  1  0
  2 14  1  0
  3 15  1  0
  6 16  1  0
  7 17  1  0
 10 18  1  0
 12 19  1  0
 12 20  1  0
 13 21  1  0
 13 22  1  0
 23 24  2  0
 24 25  1  0
 24 26  1  0
 26 27  1  0
 26 28  2  0
 28 29  1  0
 29 30  2  0
 30 31  1  0
 29 32  1  0
 32 33  1  0
 33 34  2  0
 34 35  1  0
 34 36  1  0
 36 37  1  0
 36 38  2  0
 38 39  1  0
 38 40  1  0
 40 41  1  0
 40 42  2  0
 42 43  1  0
 43 44  1  0
 30 23  1  0
 42 33  1  0
 43 28  1  0
 13 23  1  0
M  ISO  8  14  14  15  14  16  14  17  14  18  14  19   8  20   8  21   8
M  ISO  8  22   8  25  16  27  16  31  16  35  16  37  16  39  16  41  16
M  ISO  1  44   5
M  END
>  <DihAtoms>  (1) 
11,12,22,23

>  <DihDeg>  (1) 
90.00021404811794

$$$$
