
     RDKit          3D

 50 54  0  0  0  0  0  0  0  0999 V2000
   37.0595   30.0643   48.9402 C   0  0  0  0  0  0  0  0  0  0  0  0
   38.0398   30.7111   48.1472 C   0  0  0  0  0  0  0  0  0  0  0  0
   37.6901   31.0191   46.8153 C   0  0  0  0  0  0  0  0  0  0  0  0
   36.4596   30.6806   46.3918 N   0  0  0  0  0  0  0  0  0  0  0  0
   35.5435   30.0617   47.1762 C   0  0  0  0  0  0  0  0  0  0  0  0
   35.8606   29.7589   48.4546 N   0  0  0  0  0  0  0  0  0  0  0  0
   38.6046   31.6578   45.9694 N   0  0  0  0  0  0  0  0  0  0  0  0
   39.6559   32.5802   46.4092 C   0  0  0  0  0  0  0  0  0  0  0  0
   40.2153   33.2062   45.1764 C   0  0  0  0  0  0  0  0  0  0  0  0
   39.1564   32.9537   44.1634 C   0  0  0  0  0  0  0  0  0  0  0  0
   38.7164   31.5600   44.5472 C   0  0  2  0  0  0  0  0  0  0  0  0
   37.5325   31.1225   43.7814 C   0  0  0  0  0  0  0  0  0  0  0  0
   36.5533   32.0831   43.9561 F   0  0  0  0  0  0  0  0  0  0  0  0
   36.9831   29.9329   44.1641 F   0  0  0  0  0  0  0  0  0  0  0  0
   37.8720   31.1685   42.4451 F   0  0  0  0  0  0  0  0  0  0  0  0
   39.8155   30.5927   44.2681 C   0  0  0  0  0  0  0  0  0  0  0  0
   39.4838   29.5087   44.7272 O   0  0  0  0  0  0  0  0  0  0  0  0
   37.2805   29.8093   49.9627 H   0  0  0  0  0  0  0  0  0  0  0  0
   39.0055   30.9579   48.5360 H   0  0  0  0  0  0  0  0  0  0  0  0
   34.6082   29.8684   46.6626 H   0  0  0  0  0  0  0  0  0  0  0  0
   39.1351   33.3144   47.0679 H   0  0  0  0  0  0  0  0  0  0  0  0
   40.4189   32.0505   47.0221 H   0  0  0  0  0  0  0  0  0  0  0  0
   41.2376   32.9481   44.9075 H   0  0  0  0  0  0  0  0  0  0  0  0
   40.2243   34.3080   45.3545 H   0  0  0  0  0  0  0  0  0  0  0  0
   39.5078   32.9944   43.1177 H   0  0  0  0  0  0  0  0  0  0  0  0
   38.3019   33.6321   44.3842 H   0  0  0  0  0  0  0  0  0  0  0  0
   39.9372   30.6174   43.1408 H   0  0  0  0  0  0  0  0  0  0  0  0
   40.8022   30.9733   44.6217 H   0  0  0  0  0  0  0  0  0  0  0  0
   40.1897   28.3066   44.7062 C   0  0  0  0  0  0  0  0  0  0  0  0
   41.4326   28.2035   45.2983 C   0  0  0  0  0  0  0  0  0  0  0  0
   41.8357   29.0837   45.7759 H   0  0  0  0  0  0  0  0  0  0  0  0
   42.1064   27.0103   45.2639 C   0  0  0  0  0  0  0  0  0  0  0  0
   43.0845   27.0326   45.7623 H   0  0  0  0  0  0  0  0  0  0  0  0
   41.6157   25.8718   44.6617 C   0  0  0  0  0  0  0  0  0  0  0  0
   40.3831   25.9828   44.0772 C   0  0  0  0  0  0  0  0  0  0  0  0
   39.7115   27.1515   44.1051 C   0  0  0  0  0  0  0  0  0  0  0  0
   38.7344   27.2058   43.6312 H   0  0  0  0  0  0  0  0  0  0  0  0
   39.7113   24.5357   43.2877 S   0  0  0  0  0  0  0  0  0  0  0  0
   40.9166   23.2389   43.4878 C   0  0  0  0  0  0  0  0  0  0  0  0
   40.5828   22.0272   42.9414 C   0  0  0  0  0  0  0  0  0  0  0  0
   39.6628   21.8473   42.4231 H   0  0  0  0  0  0  0  0  0  0  0  0
   41.4719   20.9789   43.0605 C   0  0  0  0  0  0  0  0  0  0  0  0
   41.2160   20.0195   42.6321 H   0  0  0  0  0  0  0  0  0  0  0  0
   42.6667   21.1742   43.7217 C   0  0  0  0  0  0  0  0  0  0  0  0
   43.3814   20.3712   43.8297 H   0  0  0  0  0  0  0  0  0  0  0  0
   42.9216   22.4264   44.2410 C   0  0  0  0  0  0  0  0  0  0  0  0
   43.8880   22.5256   44.7574 H   0  0  0  0  0  0  0  0  0  0  0  0
   42.0811   23.5165   44.1595 C   0  0  0  0  0  0  0  0  0  0  0  0
   42.4580   24.7421   44.7317 N   0  0  0  0  0  0  0  0  0  0  0  0
   43.3838   24.7717   45.2061 H   0  0  0  0  0  0  0  0  0  0  0  0
  2  1  2  0
  3  2  1  0
  4  3  2  0
  4  5  1  0
  5  6  2  0
  6  1  1  0
  7  8  1  0
  7  3  1  0
  9  8  1  0
 10 11  1  0
 10  9  1  0
 11 16  1  1
 11  7  1  0
 12 13  1  0
 12 14  1  0
 12 11  1  0
 15 12  1  0
 16 17  1  0
  1 18  1  0
  2 19  1  0
  5 20  1  0
  8 21  1  0
  8 22  1  0
  9 23  1  0
  9 24  1  0
 10 25  1  0
 10 26  1  0
 16 27  1  0
 16 28  1  0
 29 30  2  0
 30 31  1  0
 30 32  1  0
 32 33  1  0
 32 34  2  0
 34 35  1  0
 35 36  2  0
 36 37  1  0
 35 38  1  0
 38 39  1  0
 39 40  2  0
 40 41  1  0
 40 42  1  0
 42 43  1  0
 42 44  2  0
 44 45  1  0
 44 46  1  0
 46 47  1  0
 46 48  2  0
 48 49  1  0
 49 50  1  0
 36 29  1  0
 48 39  1  0
 49 34  1  0
 17 29  1  0
M  ISO  8  18  14  19  14  20  14  21  13  22  13  23  13  24  13  25  13
M  ISO  8  26  13  27   8  28   8  31  16  33  16  37  16  41  16  43  16
M  ISO  3  45  16  47  16  50   5
M  END
>  <DihAtoms>  (1) 
15,16,28,29

>  <DihDeg>  (1) 
0.00027061001038108115

$$$$
