
     RDKit          3D

 36 39  0  0  0  0  0  0  0  0999 V2000
   37.3882   30.1278   51.0984 C   0  0  0  0  0  0  0  0  0  0  0  0
   38.2099   30.8923   50.2575 C   0  0  0  0  0  0  0  0  0  0  0  0
   37.6871   31.4441   49.0930 C   0  0  0  0  0  0  0  0  0  0  0  0
   36.3747   31.2039   48.8308 N   0  0  0  0  0  0  0  0  0  0  0  0
   35.5912   30.4587   49.6593 C   0  0  0  0  0  0  0  0  0  0  0  0
   36.1090   29.9397   50.7673 N   0  0  0  0  0  0  0  0  0  0  0  0
   33.9060   28.8445   49.1989 C   0  0  0  0  0  0  0  0  0  0  0  0
   34.6862   27.8411   49.3231 O   0  0  0  0  0  0  0  0  0  0  0  0
   34.2122   30.2340   49.3383 N   0  0  0  0  0  0  0  0  0  0  0  0
   38.0665   29.6629   52.1983 O   0  0  0  0  0  0  0  0  0  0  0  0
   39.2527   31.1154   50.4131 H   0  0  0  0  0  0  0  0  0  0  0  0
   38.2724   32.0329   48.4216 H   0  0  0  0  0  0  0  0  0  0  0  0
   32.8627   28.5888   48.9517 H   0  0  0  0  0  0  0  0  0  0  0  0
   33.4985   30.9514   49.2145 H   0  0  0  0  0  0  0  0  0  0  0  0
   37.4162   28.8852   53.1464 C   0  0  0  0  0  0  0  0  0  0  0  0
   36.7714   29.4151   54.2450 C   0  0  0  0  0  0  0  0  0  0  0  0
   36.7699   30.4875   54.3780 H   0  0  0  0  0  0  0  0  0  0  0  0
   36.1611   28.5622   55.1199 C   0  0  0  0  0  0  0  0  0  0  0  0
   35.6700   29.0652   55.9686 H   0  0  0  0  0  0  0  0  0  0  0  0
   36.1266   27.1885   55.0080 C   0  0  0  0  0  0  0  0  0  0  0  0
   36.7799   26.7027   53.9012 C   0  0  0  0  0  0  0  0  0  0  0  0
   37.3956   27.5150   53.0127 C   0  0  0  0  0  0  0  0  0  0  0  0
   37.9100   27.0919   52.1363 H   0  0  0  0  0  0  0  0  0  0  0  0
   36.8043   24.9377   53.6472 S   0  0  0  0  0  0  0  0  0  0  0  0
   35.9092   24.2239   54.9956 C   0  0  0  0  0  0  0  0  0  0  0  0
   35.7660   22.8718   55.0607 C   0  0  0  0  0  0  0  0  0  0  0  0
   36.1872   22.2199   54.3059 H   0  0  0  0  0  0  0  0  0  0  0  0
   35.0834   22.2482   56.0793 C   0  0  0  0  0  0  0  0  0  0  0  0
   34.9808   21.1731   56.1129 H   0  0  0  0  0  0  0  0  0  0  0  0
   34.5328   23.0448   57.0593 C   0  0  0  0  0  0  0  0  0  0  0  0
   33.9881   22.5969   57.8783 H   0  0  0  0  0  0  0  0  0  0  0  0
   34.6952   24.4151   56.9657 C   0  0  0  0  0  0  0  0  0  0  0  0
   34.2378   24.9820   57.7683 H   0  0  0  0  0  0  0  0  0  0  0  0
   35.3767   25.0531   55.9505 C   0  0  0  0  0  0  0  0  0  0  0  0
   35.4499   26.4438   56.0024 N   0  0  0  0  0  0  0  0  0  0  0  0
   35.0032   26.9686   56.7828 H   0  0  0  0  0  0  0  0  0  0  0  0
  1 10  1  0
  2  1  2  0
  3  2  1  0
  4  3  2  0
  4  5  1  0
  5  6  2  0
  6  1  1  0
  7  8  2  0
  7  9  1  0
  9  5  1  0
  2 11  1  0
  3 12  1  0
  7 13  1  0
  9 14  1  0
 15 16  2  0
 16 17  1  0
 16 18  1  0
 18 19  1  0
 18 20  2  0
 20 21  1  0
 21 22  2  0
 22 23  1  0
 21 24  1  0
 24 25  1  0
 25 26  2  0
 26 27  1  0
 26 28  1  0
 28 29  1  0
 28 30  2  0
 30 31  1  0
 30 32  1  0
 32 33  1  0
 32 34  2  0
 34 35  1  0
 35 36  1  0
 22 15  1  0
 34 25  1  0
 35 20  1  0
 10 15  1  0
M  ISO  8  11  14  12  14  13   6  17  16  19  16  23  16  27  16  29  16
M  ISO  3  31  16  33  16  36   5
M  END
>  <DihAtoms>  (1) 
0,9,14,15

>  <DihDeg>  (1) 
-90.00236205717641

$$$$
