
     RDKit          3D

 36 39  0  0  0  0  0  0  0  0999 V2000
   37.3882   30.1278   51.0984 C   0  0  0  0  0  0  0  0  0  0  0  0
   38.2099   30.8923   50.2575 C   0  0  0  0  0  0  0  0  0  0  0  0
   37.6871   31.4441   49.0930 C   0  0  0  0  0  0  0  0  0  0  0  0
   36.3747   31.2039   48.8308 N   0  0  0  0  0  0  0  0  0  0  0  0
   35.5912   30.4587   49.6593 C   0  0  0  0  0  0  0  0  0  0  0  0
   36.1090   29.9397   50.7673 N   0  0  0  0  0  0  0  0  0  0  0  0
   33.9060   28.8445   49.1989 C   0  0  0  0  0  0  0  0  0  0  0  0
   34.6862   27.8411   49.3231 O   0  0  0  0  0  0  0  0  0  0  0  0
   34.2122   30.2340   49.3383 N   0  0  0  0  0  0  0  0  0  0  0  0
   38.0665   29.6629   52.1983 O   0  0  0  0  0  0  0  0  0  0  0  0
   39.2527   31.1154   50.4131 H   0  0  0  0  0  0  0  0  0  0  0  0
   38.2724   32.0329   48.4216 H   0  0  0  0  0  0  0  0  0  0  0  0
   32.8627   28.5888   48.9517 H   0  0  0  0  0  0  0  0  0  0  0  0
   33.4985   30.9514   49.2145 H   0  0  0  0  0  0  0  0  0  0  0  0
   37.4162   28.8852   53.1464 C   0  0  0  0  0  0  0  0  0  0  0  0
   37.9310   28.6370   54.4021 C   0  0  0  0  0  0  0  0  0  0  0  0
   38.8870   29.0669   54.6649 H   0  0  0  0  0  0  0  0  0  0  0  0
   37.2111   27.8576   55.2621 C   0  0  0  0  0  0  0  0  0  0  0  0
   37.6918   27.7086   56.2425 H   0  0  0  0  0  0  0  0  0  0  0  0
   35.9890   27.2807   54.9892 C   0  0  0  0  0  0  0  0  0  0  0  0
   35.5129   27.5527   53.7294 C   0  0  0  0  0  0  0  0  0  0  0  0
   36.1963   28.3196   52.8501 C   0  0  0  0  0  0  0  0  0  0  0  0
   35.7853   28.5175   51.8483 H   0  0  0  0  0  0  0  0  0  0  0  0
   33.9382   26.8607   53.2587 S   0  0  0  0  0  0  0  0  0  0  0  0
   33.3610   25.9336   54.6502 C   0  0  0  0  0  0  0  0  0  0  0  0
   32.1653   25.2876   54.5726 C   0  0  0  0  0  0  0  0  0  0  0  0
   31.5565   25.3268   53.6782 H   0  0  0  0  0  0  0  0  0  0  0  0
   31.6545   24.5488   55.6145 C   0  0  0  0  0  0  0  0  0  0  0  0
   30.7030   24.0433   55.5331 H   0  0  0  0  0  0  0  0  0  0  0  0
   32.4008   24.4751   56.7702 C   0  0  0  0  0  0  0  0  0  0  0  0
   32.0375   23.9055   57.6138 H   0  0  0  0  0  0  0  0  0  0  0  0
   33.6114   25.1421   56.8187 C   0  0  0  0  0  0  0  0  0  0  0  0
   34.1469   25.0428   57.7558 H   0  0  0  0  0  0  0  0  0  0  0  0
   34.1351   25.8860   55.7821 C   0  0  0  0  0  0  0  0  0  0  0  0
   35.3698   26.4974   55.9915 N   0  0  0  0  0  0  0  0  0  0  0  0
   35.8671   26.3887   56.8997 H   0  0  0  0  0  0  0  0  0  0  0  0
  1 10  1  0
  2  1  2  0
  3  2  1  0
  4  3  2  0
  4  5  1  0
  5  6  2  0
  6  1  1  0
  7  8  2  0
  7  9  1  0
  9  5  1  0
  2 11  1  0
  3 12  1  0
  7 13  1  0
  9 14  1  0
 15 16  2  0
 16 17  1  0
 16 18  1  0
 18 19  1  0
 18 20  2  0
 20 21  1  0
 21 22  2  0
 22 23  1  0
 21 24  1  0
 24 25  1  0
 25 26  2  0
 26 27  1  0
 26 28  1  0
 28 29  1  0
 28 30  2  0
 30 31  1  0
 30 32  1  0
 32 33  1  0
 32 34  2  0
 34 35  1  0
 35 36  1  0
 22 15  1  0
 34 25  1  0
 35 20  1  0
 10 15  1  0
M  ISO  8  11  14  12  14  13   6  17  16  19  16  23  16  27  16  29  16
M  ISO  3  31  16  33  16  36   5
M  END
>  <DihAtoms>  (1) 
0,9,14,15

>  <DihDeg>  (1) 
-90.00236205717641

$$$$
