
     RDKit          3D

 36 39  0  0  0  0  0  0  0  0999 V2000
   37.3882   30.1278   51.0984 C   0  0  0  0  0  0  0  0  0  0  0  0
   38.2099   30.8923   50.2575 C   0  0  0  0  0  0  0  0  0  0  0  0
   37.6871   31.4441   49.0930 C   0  0  0  0  0  0  0  0  0  0  0  0
   36.3747   31.2039   48.8308 N   0  0  0  0  0  0  0  0  0  0  0  0
   35.5912   30.4587   49.6593 C   0  0  0  0  0  0  0  0  0  0  0  0
   36.1090   29.9397   50.7673 N   0  0  0  0  0  0  0  0  0  0  0  0
   33.9060   28.8445   49.1989 C   0  0  0  0  0  0  0  0  0  0  0  0
   34.6862   27.8411   49.3231 O   0  0  0  0  0  0  0  0  0  0  0  0
   34.2122   30.2340   49.3383 N   0  0  0  0  0  0  0  0  0  0  0  0
   38.0665   29.6629   52.1983 O   0  0  0  0  0  0  0  0  0  0  0  0
   39.2527   31.1154   50.4131 H   0  0  0  0  0  0  0  0  0  0  0  0
   38.2724   32.0329   48.4216 H   0  0  0  0  0  0  0  0  0  0  0  0
   32.8627   28.5888   48.9517 H   0  0  0  0  0  0  0  0  0  0  0  0
   33.4985   30.9514   49.2145 H   0  0  0  0  0  0  0  0  0  0  0  0
   37.4162   28.8852   53.1464 C   0  0  0  0  0  0  0  0  0  0  0  0
   36.8254   27.6733   52.8533 C   0  0  0  0  0  0  0  0  0  0  0  0
   36.8686   27.3077   51.8374 H   0  0  0  0  0  0  0  0  0  0  0  0
   36.2099   26.9851   53.8597 C   0  0  0  0  0  0  0  0  0  0  0  0
   35.7642   26.0285   53.5423 H   0  0  0  0  0  0  0  0  0  0  0  0
   36.1200   27.3952   55.1730 C   0  0  0  0  0  0  0  0  0  0  0  0
   36.7206   28.6056   55.4215 C   0  0  0  0  0  0  0  0  0  0  0  0
   37.3395   29.3163   54.4518 C   0  0  0  0  0  0  0  0  0  0  0  0
   37.8108   30.2831   54.6859 H   0  0  0  0  0  0  0  0  0  0  0  0
   36.6703   29.2425   57.0864 S   0  0  0  0  0  0  0  0  0  0  0  0
   35.7901   28.0513   58.0534 C   0  0  0  0  0  0  0  0  0  0  0  0
   35.5977   28.2799   59.3814 C   0  0  0  0  0  0  0  0  0  0  0  0
   35.9708   29.1751   59.8626 H   0  0  0  0  0  0  0  0  0  0  0  0
   34.9232   27.3984   60.1939 C   0  0  0  0  0  0  0  0  0  0  0  0
   34.7810   27.5983   61.2462 H   0  0  0  0  0  0  0  0  0  0  0  0
   34.4330   26.2470   59.6175 C   0  0  0  0  0  0  0  0  0  0  0  0
   33.8967   25.5266   60.2188 H   0  0  0  0  0  0  0  0  0  0  0  0
   34.6444   26.0429   58.2660 C   0  0  0  0  0  0  0  0  0  0  0  0
   34.2332   25.1185   57.8771 H   0  0  0  0  0  0  0  0  0  0  0  0
   35.3185   26.9179   57.4402 C   0  0  0  0  0  0  0  0  0  0  0  0
   35.4460   26.5640   56.0983 N   0  0  0  0  0  0  0  0  0  0  0  0
   35.0432   25.6710   55.7459 H   0  0  0  0  0  0  0  0  0  0  0  0
  1 10  1  0
  2  1  2  0
  3  2  1  0
  4  3  2  0
  4  5  1  0
  5  6  2  0
  6  1  1  0
  7  8  2  0
  7  9  1  0
  9  5  1  0
  2 11  1  0
  3 12  1  0
  7 13  1  0
  9 14  1  0
 15 16  2  0
 16 17  1  0
 16 18  1  0
 18 19  1  0
 18 20  2  0
 20 21  1  0
 21 22  2  0
 22 23  1  0
 21 24  1  0
 24 25  1  0
 25 26  2  0
 26 27  1  0
 26 28  1  0
 28 29  1  0
 28 30  2  0
 30 31  1  0
 30 32  1  0
 32 33  1  0
 32 34  2  0
 34 35  1  0
 35 36  1  0
 22 15  1  0
 34 25  1  0
 35 20  1  0
 10 15  1  0
M  ISO  8  11  14  12  14  13   6  17  16  19  16  23  16  27  16  29  16
M  ISO  3  31  16  33  16  36   5
M  END
>  <DihAtoms>  (1) 
0,9,14,15

>  <DihDeg>  (1) 
-90.00236205717641

$$$$
