
     RDKit          3D

 36 39  0  0  0  0  0  0  0  0999 V2000
   36.7848   29.6775   51.1306 C   0  0  0  0  0  0  0  0  0  0  0  0
   37.2990   30.0650   49.8921 C   0  0  0  0  0  0  0  0  0  0  0  0
   36.5519   29.8620   48.7456 C   0  0  0  0  0  0  0  0  0  0  0  0
   35.3215   29.2781   48.9003 N   0  0  0  0  0  0  0  0  0  0  0  0
   34.8366   28.9093   50.0967 C   0  0  0  0  0  0  0  0  0  0  0  0
   35.5577   29.1057   51.1985 N   0  0  0  0  0  0  0  0  0  0  0  0
   38.6342   32.0671   49.5077 C   0  0  0  0  0  0  0  0  0  0  0  0
   37.8044   33.0367   49.4432 O   0  0  0  0  0  0  0  0  0  0  0  0
   38.5420   30.6620   49.6772 N   0  0  0  0  0  0  0  0  0  0  0  0
   37.6619   29.9555   52.1522 O   0  0  0  0  0  0  0  0  0  0  0  0
   36.8667   30.1277   47.7540 H   0  0  0  0  0  0  0  0  0  0  0  0
   33.8653   28.4521   50.1879 H   0  0  0  0  0  0  0  0  0  0  0  0
   39.4223   32.8015   49.3758 H   0  0  0  0  0  0  0  0  0  0  0  0
   39.5229   30.2764   49.6042 H   0  0  0  0  0  0  0  0  0  0  0  0
   37.2950   29.6282   53.4512 C   0  0  0  0  0  0  0  0  0  0  0  0
   37.3335   28.2957   53.8355 C   0  0  0  0  0  0  0  0  0  0  0  0
   37.6477   27.5524   53.1127 H   0  0  0  0  0  0  0  0  0  0  0  0
   36.9713   27.9567   55.1238 C   0  0  0  0  0  0  0  0  0  0  0  0
   37.0312   26.8883   55.3388 H   0  0  0  0  0  0  0  0  0  0  0  0
   36.5657   28.8706   56.0738 C   0  0  0  0  0  0  0  0  0  0  0  0
   36.5302   30.1880   55.6857 C   0  0  0  0  0  0  0  0  0  0  0  0
   36.8847   30.5257   54.4227 C   0  0  0  0  0  0  0  0  0  0  0  0
   36.8518   31.5779   54.1272 H   0  0  0  0  0  0  0  0  0  0  0  0
   36.0164   31.3936   56.8713 S   0  0  0  0  0  0  0  0  0  0  0  0
   35.6536   30.5041   58.3703 C   0  0  0  0  0  0  0  0  0  0  0  0
   35.2347   31.2882   59.4119 C   0  0  0  0  0  0  0  0  0  0  0  0
   35.1209   32.3484   59.3725 H   0  0  0  0  0  0  0  0  0  0  0  0
   34.9307   30.6603   60.6238 C   0  0  0  0  0  0  0  0  0  0  0  0
   34.5945   31.1801   61.5015 H   0  0  0  0  0  0  0  0  0  0  0  0
   35.0632   29.2907   60.7214 C   0  0  0  0  0  0  0  0  0  0  0  0
   34.8322   28.7894   61.6510 H   0  0  0  0  0  0  0  0  0  0  0  0
   35.4929   28.5922   59.6124 C   0  0  0  0  0  0  0  0  0  0  0  0
   35.5749   27.5046   59.7643 H   0  0  0  0  0  0  0  0  0  0  0  0
   35.8092   29.1464   58.3895 C   0  0  0  0  0  0  0  0  0  0  0  0
   36.2337   28.3318   57.3413 N   0  0  0  0  0  0  0  0  0  0  0  0
   36.2975   27.3084   57.5270 H   0  0  0  0  0  0  0  0  0  0  0  0
  1  6  1  0
  1 10  1  0
  2  1  2  0
  3  4  2  0
  3  2  1  0
  4  5  1  0
  5  6  2  0
  7  9  1  0
  8  7  2  0
  9  2  1  0
  3 11  1  0
  5 12  1  0
  7 13  1  0
  9 14  1  0
 15 16  2  0
 16 17  1  0
 16 18  1  0
 18 19  1  0
 18 20  2  0
 20 21  1  0
 21 22  2  0
 22 23  1  0
 21 24  1  0
 24 25  1  0
 25 26  2  0
 26 27  1  0
 26 28  1  0
 28 29  1  0
 28 30  2  0
 30 31  1  0
 30 32  1  0
 32 33  1  0
 32 34  2  0
 34 35  1  0
 35 36  1  0
 22 15  1  0
 34 25  1  0
 35 20  1  0
 10 15  1  0
M  ISO  8  11  14  12  14  13   6  17  16  19  16  23  16  27  16  29  16
M  ISO  3  31  16  33  16  36   5
M  END
>  <DihAtoms>  (1) 
0,9,14,15

>  <DihDeg>  (1) 
90.00010047932486

$$$$
