
     RDKit          3D

 36 39  0  0  0  0  0  0  0  0999 V2000
   37.3882   30.1278   51.0984 C   0  0  0  0  0  0  0  0  0  0  0  0
   38.2099   30.8923   50.2575 C   0  0  0  0  0  0  0  0  0  0  0  0
   37.6871   31.4441   49.0930 C   0  0  0  0  0  0  0  0  0  0  0  0
   36.3747   31.2039   48.8308 N   0  0  0  0  0  0  0  0  0  0  0  0
   35.5912   30.4587   49.6593 C   0  0  0  0  0  0  0  0  0  0  0  0
   36.1090   29.9397   50.7673 N   0  0  0  0  0  0  0  0  0  0  0  0
   33.9060   28.8445   49.1989 C   0  0  0  0  0  0  0  0  0  0  0  0
   34.6862   27.8411   49.3231 O   0  0  0  0  0  0  0  0  0  0  0  0
   34.2122   30.2340   49.3383 N   0  0  0  0  0  0  0  0  0  0  0  0
   38.0665   29.6629   52.1983 O   0  0  0  0  0  0  0  0  0  0  0  0
   39.2527   31.1154   50.4131 H   0  0  0  0  0  0  0  0  0  0  0  0
   38.2724   32.0329   48.4216 H   0  0  0  0  0  0  0  0  0  0  0  0
   32.8627   28.5888   48.9517 H   0  0  0  0  0  0  0  0  0  0  0  0
   33.4985   30.9514   49.2145 H   0  0  0  0  0  0  0  0  0  0  0  0
   37.4162   28.8852   53.1464 C   0  0  0  0  0  0  0  0  0  0  0  0
   36.0702   29.0027   53.4258 C   0  0  0  0  0  0  0  0  0  0  0  0
   35.4898   29.7345   52.8824 H   0  0  0  0  0  0  0  0  0  0  0  0
   35.5262   28.1888   54.3781 C   0  0  0  0  0  0  0  0  0  0  0  0
   34.4475   28.3461   54.5403 H   0  0  0  0  0  0  0  0  0  0  0  0
   36.2097   27.2375   55.1052 C   0  0  0  0  0  0  0  0  0  0  0  0
   37.5458   27.1534   54.7962 C   0  0  0  0  0  0  0  0  0  0  0  0
   38.1206   27.9416   53.8599 C   0  0  0  0  0  0  0  0  0  0  0  0
   39.1946   27.8476   53.6373 H   0  0  0  0  0  0  0  0  0  0  0  0
   38.5371   25.9572   55.6720 S   0  0  0  0  0  0  0  0  0  0  0  0
   37.4498   25.1303   56.7958 C   0  0  0  0  0  0  0  0  0  0  0  0
   37.9429   24.1526   57.6044 C   0  0  0  0  0  0  0  0  0  0  0  0
   38.9868   23.8670   57.5772 H   0  0  0  0  0  0  0  0  0  0  0  0
   37.1564   23.4679   58.5017 C   0  0  0  0  0  0  0  0  0  0  0  0
   37.5671   22.6947   59.1350 H   0  0  0  0  0  0  0  0  0  0  0  0
   35.8217   23.8032   58.5654 C   0  0  0  0  0  0  0  0  0  0  0  0
   35.1672   23.2908   59.2563 H   0  0  0  0  0  0  0  0  0  0  0  0
   35.3503   24.8007   57.7313 C   0  0  0  0  0  0  0  0  0  0  0  0
   34.2926   25.0145   57.8325 H   0  0  0  0  0  0  0  0  0  0  0  0
   36.1272   25.4948   56.8276 C   0  0  0  0  0  0  0  0  0  0  0  0
   35.4982   26.4723   56.0589 N   0  0  0  0  0  0  0  0  0  0  0  0
   34.4807   26.6615   56.1725 H   0  0  0  0  0  0  0  0  0  0  0  0
  1 10  1  0
  2  1  2  0
  3  2  1  0
  4  3  2  0
  4  5  1  0
  5  6  2  0
  6  1  1  0
  7  8  2  0
  7  9  1  0
  9  5  1  0
  2 11  1  0
  3 12  1  0
  7 13  1  0
  9 14  1  0
 15 16  2  0
 16 17  1  0
 16 18  1  0
 18 19  1  0
 18 20  2  0
 20 21  1  0
 21 22  2  0
 22 23  1  0
 21 24  1  0
 24 25  1  0
 25 26  2  0
 26 27  1  0
 26 28  1  0
 28 29  1  0
 28 30  2  0
 30 31  1  0
 30 32  1  0
 32 33  1  0
 32 34  2  0
 34 35  1  0
 35 36  1  0
 22 15  1  0
 34 25  1  0
 35 20  1  0
 10 15  1  0
M  ISO  8  11  14  12  14  13   6  17  16  19  16  23  16  27  16  29  16
M  ISO  3  31  16  33  16  36   5
M  END
>  <DihAtoms>  (1) 
0,9,14,15

>  <DihDeg>  (1) 
-90.00236205717641

$$$$
