
     RDKit          3D

 50 54  0  0  0  0  0  0  0  0999 V2000
   37.0595   30.0643   48.9402 C   0  0  0  0  0  0  0  0  0  0  0  0
   38.0398   30.7111   48.1472 C   0  0  0  0  0  0  0  0  0  0  0  0
   37.6901   31.0191   46.8153 C   0  0  0  0  0  0  0  0  0  0  0  0
   36.4596   30.6806   46.3918 N   0  0  0  0  0  0  0  0  0  0  0  0
   35.5435   30.0617   47.1762 C   0  0  0  0  0  0  0  0  0  0  0  0
   35.8606   29.7589   48.4546 N   0  0  0  0  0  0  0  0  0  0  0  0
   38.6046   31.6578   45.9694 N   0  0  0  0  0  0  0  0  0  0  0  0
   39.6559   32.5802   46.4092 C   0  0  0  0  0  0  0  0  0  0  0  0
   40.2153   33.2062   45.1764 C   0  0  0  0  0  0  0  0  0  0  0  0
   39.1564   32.9537   44.1634 C   0  0  0  0  0  0  0  0  0  0  0  0
   38.7164   31.5600   44.5472 C   0  0  2  0  0  0  0  0  0  0  0  0
   37.5325   31.1225   43.7814 C   0  0  0  0  0  0  0  0  0  0  0  0
   36.5533   32.0831   43.9561 F   0  0  0  0  0  0  0  0  0  0  0  0
   36.9831   29.9329   44.1641 F   0  0  0  0  0  0  0  0  0  0  0  0
   37.8720   31.1685   42.4451 F   0  0  0  0  0  0  0  0  0  0  0  0
   39.8155   30.5927   44.2681 C   0  0  0  0  0  0  0  0  0  0  0  0
   39.4838   29.5087   44.7272 O   0  0  0  0  0  0  0  0  0  0  0  0
   37.2805   29.8093   49.9627 H   0  0  0  0  0  0  0  0  0  0  0  0
   39.0055   30.9579   48.5360 H   0  0  0  0  0  0  0  0  0  0  0  0
   34.6082   29.8684   46.6626 H   0  0  0  0  0  0  0  0  0  0  0  0
   39.1351   33.3144   47.0679 H   0  0  0  0  0  0  0  0  0  0  0  0
   40.4189   32.0505   47.0221 H   0  0  0  0  0  0  0  0  0  0  0  0
   41.2376   32.9481   44.9075 H   0  0  0  0  0  0  0  0  0  0  0  0
   40.2243   34.3080   45.3545 H   0  0  0  0  0  0  0  0  0  0  0  0
   39.5078   32.9944   43.1177 H   0  0  0  0  0  0  0  0  0  0  0  0
   38.3019   33.6321   44.3842 H   0  0  0  0  0  0  0  0  0  0  0  0
   39.9372   30.6174   43.1408 H   0  0  0  0  0  0  0  0  0  0  0  0
   40.8022   30.9733   44.6217 H   0  0  0  0  0  0  0  0  0  0  0  0
   40.1897   28.3066   44.7062 C   0  0  0  0  0  0  0  0  0  0  0  0
   39.6650   27.1866   44.0928 C   0  0  0  0  0  0  0  0  0  0  0  0
   38.6928   27.2755   43.6321 H   0  0  0  0  0  0  0  0  0  0  0  0
   40.3790   26.0166   44.0859 C   0  0  0  0  0  0  0  0  0  0  0  0
   39.8753   25.1863   43.5734 H   0  0  0  0  0  0  0  0  0  0  0  0
   41.6213   25.8750   44.6656 C   0  0  0  0  0  0  0  0  0  0  0  0
   42.1339   26.9901   45.2716 C   0  0  0  0  0  0  0  0  0  0  0  0
   41.4404   28.1461   45.2843 C   0  0  0  0  0  0  0  0  0  0  0  0
   41.8764   29.0134   45.7744 H   0  0  0  0  0  0  0  0  0  0  0  0
   43.7368   26.8516   46.0334 S   0  0  0  0  0  0  0  0  0  0  0  0
   44.2787   25.1732   45.7813 C   0  0  0  0  0  0  0  0  0  0  0  0
   45.5077   24.8605   46.3011 C   0  0  0  0  0  0  0  0  0  0  0  0
   46.1209   25.5627   46.8285 H   0  0  0  0  0  0  0  0  0  0  0  0
   45.9879   23.5770   46.1413 C   0  0  0  0  0  0  0  0  0  0  0  0
   46.9567   23.3222   46.5485 H   0  0  0  0  0  0  0  0  0  0  0  0
   45.2251   22.6460   45.4672 C   0  0  0  0  0  0  0  0  0  0  0  0
   45.5763   21.6339   45.3275 H   0  0  0  0  0  0  0  0  0  0  0  0
   43.9996   23.0466   44.9767 C   0  0  0  0  0  0  0  0  0  0  0  0
   43.4342   22.2645   44.4484 H   0  0  0  0  0  0  0  0  0  0  0  0
   43.4586   24.3090   45.0994 C   0  0  0  0  0  0  0  0  0  0  0  0
   42.1962   24.5915   44.5535 N   0  0  0  0  0  0  0  0  0  0  0  0
   41.7119   23.8099   44.0660 H   0  0  0  0  0  0  0  0  0  0  0  0
  2  1  2  0
  3  2  1  0
  4  3  2  0
  4  5  1  0
  5  6  2  0
  6  1  1  0
  7  8  1  0
  7  3  1  0
  9  8  1  0
 10 11  1  0
 10  9  1  0
 11 16  1  1
 11  7  1  0
 12 13  1  0
 12 14  1  0
 12 11  1  0
 15 12  1  0
 16 17  1  0
  1 18  1  0
  2 19  1  0
  5 20  1  0
  8 21  1  0
  8 22  1  0
  9 23  1  0
  9 24  1  0
 10 25  1  0
 10 26  1  0
 16 27  1  0
 16 28  1  0
 29 30  2  0
 30 31  1  0
 30 32  1  0
 32 33  1  0
 32 34  2  0
 34 35  1  0
 35 36  2  0
 36 37  1  0
 35 38  1  0
 38 39  1  0
 39 40  2  0
 40 41  1  0
 40 42  1  0
 42 43  1  0
 42 44  2  0
 44 45  1  0
 44 46  1  0
 46 47  1  0
 46 48  2  0
 48 49  1  0
 49 50  1  0
 36 29  1  0
 48 39  1  0
 49 34  1  0
 17 29  1  0
M  ISO  8  18  14  19  14  20  14  21  13  22  13  23  13  24  13  25  13
M  ISO  8  26  13  27   8  28   8  31  16  33  16  37  16  41  16  43  16
M  ISO  3  45  16  47  16  50   5
M  END
>  <DihAtoms>  (1) 
15,16,28,29

>  <DihDeg>  (1) 
0.00027061001038108115

$$$$
