
     RDKit          3D

 36 39  0  0  0  0  0  0  0  0999 V2000
   36.7848   29.6775   51.1306 C   0  0  0  0  0  0  0  0  0  0  0  0
   37.2990   30.0650   49.8921 C   0  0  0  0  0  0  0  0  0  0  0  0
   36.5519   29.8620   48.7456 C   0  0  0  0  0  0  0  0  0  0  0  0
   35.3215   29.2781   48.9003 N   0  0  0  0  0  0  0  0  0  0  0  0
   34.8366   28.9093   50.0967 C   0  0  0  0  0  0  0  0  0  0  0  0
   35.5577   29.1057   51.1985 N   0  0  0  0  0  0  0  0  0  0  0  0
   38.6342   32.0671   49.5077 C   0  0  0  0  0  0  0  0  0  0  0  0
   37.8044   33.0367   49.4432 O   0  0  0  0  0  0  0  0  0  0  0  0
   38.5420   30.6620   49.6772 N   0  0  0  0  0  0  0  0  0  0  0  0
   37.6619   29.9555   52.1522 O   0  0  0  0  0  0  0  0  0  0  0  0
   36.8667   30.1277   47.7540 H   0  0  0  0  0  0  0  0  0  0  0  0
   33.8653   28.4521   50.1879 H   0  0  0  0  0  0  0  0  0  0  0  0
   39.4223   32.8015   49.3758 H   0  0  0  0  0  0  0  0  0  0  0  0
   39.5229   30.2764   49.6042 H   0  0  0  0  0  0  0  0  0  0  0  0
   37.2950   29.6282   53.4512 C   0  0  0  0  0  0  0  0  0  0  0  0
   36.6143   30.5724   54.2061 C   0  0  0  0  0  0  0  0  0  0  0  0
   36.3900   31.5342   53.7607 H   0  0  0  0  0  0  0  0  0  0  0  0
   36.2438   30.2600   55.4986 C   0  0  0  0  0  0  0  0  0  0  0  0
   35.7134   31.0603   56.0178 H   0  0  0  0  0  0  0  0  0  0  0  0
   36.5095   29.0490   56.1028 C   0  0  0  0  0  0  0  0  0  0  0  0
   37.1839   28.1192   55.3490 C   0  0  0  0  0  0  0  0  0  0  0  0
   37.5495   28.4210   54.0802 C   0  0  0  0  0  0  0  0  0  0  0  0
   38.0857   27.6718   53.4915 H   0  0  0  0  0  0  0  0  0  0  0  0
   37.5455   26.5530   56.0836 S   0  0  0  0  0  0  0  0  0  0  0  0
   36.8854   26.6066   57.7362 C   0  0  0  0  0  0  0  0  0  0  0  0
   37.0759   25.4624   58.4641 C   0  0  0  0  0  0  0  0  0  0  0  0
   37.5733   24.5875   58.1097 H   0  0  0  0  0  0  0  0  0  0  0  0
   36.5843   25.4289   59.7727 C   0  0  0  0  0  0  0  0  0  0  0  0
   36.6797   24.5835   60.4283 H   0  0  0  0  0  0  0  0  0  0  0  0
   35.9339   26.5374   60.2736 C   0  0  0  0  0  0  0  0  0  0  0  0
   35.5479   26.5283   61.2834 H   0  0  0  0  0  0  0  0  0  0  0  0
   35.7942   27.6408   59.4578 C   0  0  0  0  0  0  0  0  0  0  0  0
   35.2655   28.4866   59.9243 H   0  0  0  0  0  0  0  0  0  0  0  0
   36.2535   27.7415   58.1610 C   0  0  0  0  0  0  0  0  0  0  0  0
   36.0499   28.9145   57.4362 N   0  0  0  0  0  0  0  0  0  0  0  0
   35.5453   29.6905   57.9147 H   0  0  0  0  0  0  0  0  0  0  0  0
  1  6  1  0
  1 10  1  0
  2  1  2  0
  3  4  2  0
  3  2  1  0
  4  5  1  0
  5  6  2  0
  7  9  1  0
  8  7  2  0
  9  2  1  0
  3 11  1  0
  5 12  1  0
  7 13  1  0
  9 14  1  0
 15 16  2  0
 16 17  1  0
 16 18  1  0
 18 19  1  0
 18 20  2  0
 20 21  1  0
 21 22  2  0
 22 23  1  0
 21 24  1  0
 24 25  1  0
 25 26  2  0
 26 27  1  0
 26 28  1  0
 28 29  1  0
 28 30  2  0
 30 31  1  0
 30 32  1  0
 32 33  1  0
 32 34  2  0
 34 35  1  0
 35 36  1  0
 22 15  1  0
 34 25  1  0
 35 20  1  0
 10 15  1  0
M  ISO  8  11  14  12  14  13   6  17  16  19  16  23  16  27  16  29  16
M  ISO  3  31  16  33  16  36   5
M  END
>  <DihAtoms>  (1) 
0,9,14,15

>  <DihDeg>  (1) 
90.00010047932486

$$$$
