
     RDKit          3D

 38 41  0  0  0  0  0  0  0  0999 V2000
   37.0444   29.4048   51.1669 C   0  0  0  0  0  0  0  0  0  0  0  0
   37.6847   30.0125   50.0901 C   0  0  0  0  0  0  0  0  0  0  0  0
   36.9118   30.4826   49.0584 C   0  0  0  0  0  0  0  0  0  0  0  0
   35.5536   30.3217   49.1578 N   0  0  0  0  0  0  0  0  0  0  0  0
   34.9701   29.7367   50.1999 C   0  0  0  0  0  0  0  0  0  0  0  0
   35.7258   29.2693   51.2232 N   0  0  0  0  0  0  0  0  0  0  0  0
   37.4392   31.1583   47.8347 C   0  0  0  0  0  0  0  0  0  0  0  0
   38.7565   31.8501   48.1627 C   0  0  0  0  0  0  0  0  0  0  0  0
   38.4670   33.3671   49.0833 S   0  0  0  0  0  0  0  0  0  0  0  0
   37.6981   29.0401   51.9747 H   0  0  0  0  0  0  0  0  0  0  0  0
   38.7575   30.1154   50.0562 H   0  0  0  0  0  0  0  0  0  0  0  0
   33.8796   29.6309   50.2346 H   0  0  0  0  0  0  0  0  0  0  0  0
   37.5023   30.5131   46.9579 H   0  0  0  0  0  0  0  0  0  0  0  0
   36.6983   31.9942   47.6587 H   0  0  0  0  0  0  0  0  0  0  0  0
   39.5267   31.1940   48.5604 H   0  0  0  0  0  0  0  0  0  0  0  0
   39.1614   32.1683   47.1466 H   0  0  0  0  0  0  0  0  0  0  0  0
   37.6965   34.5788   48.0319 C   0  0  0  0  0  0  0  0  0  0  0  0
   36.5947   35.3624   48.2860 C   0  0  0  0  0  0  0  0  0  0  0  0
   36.1276   35.2099   49.2476 H   0  0  0  0  0  0  0  0  0  0  0  0
   36.1182   36.2697   47.3685 C   0  0  0  0  0  0  0  0  0  0  0  0
   35.2447   36.8220   47.6972 H   0  0  0  0  0  0  0  0  0  0  0  0
   36.7038   36.4599   46.1342 C   0  0  0  0  0  0  0  0  0  0  0  0
   37.8059   35.6926   45.8482 C   0  0  0  0  0  0  0  0  0  0  0  0
   38.2688   34.7936   46.7729 C   0  0  0  0  0  0  0  0  0  0  0  0
   39.1563   34.2178   46.4667 H   0  0  0  0  0  0  0  0  0  0  0  0
   38.5977   35.8972   44.2725 S   0  0  0  0  0  0  0  0  0  0  0  0
   37.6894   37.1396   43.3971 C   0  0  0  0  0  0  0  0  0  0  0  0
   38.0779   37.4956   42.1563 C   0  0  0  0  0  0  0  0  0  0  0  0
   38.9501   37.0310   41.6698 H   0  0  0  0  0  0  0  0  0  0  0  0
   37.4320   38.4540   41.3990 C   0  0  0  0  0  0  0  0  0  0  0  0
   37.7045   38.7637   40.4193 H   0  0  0  0  0  0  0  0  0  0  0  0
   36.3418   39.0456   41.9871 C   0  0  0  0  0  0  0  0  0  0  0  0
   35.8007   39.7943   41.4503 H   0  0  0  0  0  0  0  0  0  0  0  0
   35.9625   38.6664   43.2564 C   0  0  0  0  0  0  0  0  0  0  0  0
   35.0788   39.1896   43.6533 H   0  0  0  0  0  0  0  0  0  0  0  0
   36.6053   37.7041   44.0256 C   0  0  0  0  0  0  0  0  0  0  0  0
   36.1003   37.4283   45.2960 N   0  0  0  0  0  0  0  0  0  0  0  0
   35.2620   37.9498   45.6274 H   0  0  0  0  0  0  0  0  0  0  0  0
  1  6  2  0
  2  1  1  0
  3  4  1  0
  3  2  2  0
  4  5  2  0
  5  6  1  0
  7  8  1  0
  7  3  1  0
  8  9  1  0
  1 10  1  0
  2 11  1  0
  5 12  1  0
  7 13  1  0
  7 14  1  0
  8 15  1  0
  8 16  1  0
 17 18  2  0
 18 19  1  0
 18 20  1  0
 20 21  1  0
 20 22  2  0
 22 23  1  0
 23 24  2  0
 24 25  1  0
 23 26  1  0
 26 27  1  0
 27 28  2  0
 28 29  1  0
 28 30  1  0
 30 31  1  0
 30 32  2  0
 32 33  1  0
 32 34  1  0
 34 35  1  0
 34 36  2  0
 36 37  1  0
 37 38  1  0
 24 17  1  0
 36 27  1  0
 37 22  1  0
  9 17  1  0
M  ISO  8  10  14  11  14  12  14  13   8  14   8  15   8  16   8  19  16
M  ISO  7  21  16  25  16  29  16  31  16  33  16  35  16  38   5
M  END
>  <DihAtoms>  (1) 
7,8,16,17

>  <DihDeg>  (1) 
-3.0279643733903185

$$$$
