
     RDKit          3D

 36 39  0  0  0  0  0  0  0  0999 V2000
   36.7848   29.6775   51.1306 C   0  0  0  0  0  0  0  0  0  0  0  0
   37.2990   30.0650   49.8921 C   0  0  0  0  0  0  0  0  0  0  0  0
   36.5519   29.8620   48.7456 C   0  0  0  0  0  0  0  0  0  0  0  0
   35.3215   29.2781   48.9003 N   0  0  0  0  0  0  0  0  0  0  0  0
   34.8366   28.9093   50.0967 C   0  0  0  0  0  0  0  0  0  0  0  0
   35.5577   29.1057   51.1985 N   0  0  0  0  0  0  0  0  0  0  0  0
   38.6342   32.0671   49.5077 C   0  0  0  0  0  0  0  0  0  0  0  0
   37.8044   33.0367   49.4432 O   0  0  0  0  0  0  0  0  0  0  0  0
   38.5420   30.6620   49.6772 N   0  0  0  0  0  0  0  0  0  0  0  0
   37.6619   29.9555   52.1522 O   0  0  0  0  0  0  0  0  0  0  0  0
   36.8667   30.1277   47.7540 H   0  0  0  0  0  0  0  0  0  0  0  0
   33.8653   28.4521   50.1879 H   0  0  0  0  0  0  0  0  0  0  0  0
   39.4223   32.8015   49.3758 H   0  0  0  0  0  0  0  0  0  0  0  0
   39.5229   30.2764   49.6042 H   0  0  0  0  0  0  0  0  0  0  0  0
   37.2950   29.6282   53.4512 C   0  0  0  0  0  0  0  0  0  0  0  0
   38.0138   30.1791   54.5022 C   0  0  0  0  0  0  0  0  0  0  0  0
   38.8375   30.8462   54.2787 H   0  0  0  0  0  0  0  0  0  0  0  0
   37.6596   29.8620   55.7982 C   0  0  0  0  0  0  0  0  0  0  0  0
   38.2779   30.3395   56.5605 H   0  0  0  0  0  0  0  0  0  0  0  0
   36.6191   29.0181   56.1260 C   0  0  0  0  0  0  0  0  0  0  0  0
   35.9121   28.4765   55.0799 C   0  0  0  0  0  0  0  0  0  0  0  0
   36.2558   28.7846   53.8064 C   0  0  0  0  0  0  0  0  0  0  0  0
   35.6847   28.3466   52.9834 H   0  0  0  0  0  0  0  0  0  0  0  0
   34.5700   27.3893   55.4539 S   0  0  0  0  0  0  0  0  0  0  0  0
   34.4894   27.2797   57.2290 C   0  0  0  0  0  0  0  0  0  0  0  0
   33.4946   26.4684   57.7060 C   0  0  0  0  0  0  0  0  0  0  0  0
   32.8025   25.9279   57.0999 H   0  0  0  0  0  0  0  0  0  0  0  0
   33.3683   26.3321   59.0919 C   0  0  0  0  0  0  0  0  0  0  0  0
   32.6244   25.7224   59.5699 H   0  0  0  0  0  0  0  0  0  0  0  0
   34.2413   27.0126   59.9153 C   0  0  0  0  0  0  0  0  0  0  0  0
   34.1576   26.9182   60.9890 H   0  0  0  0  0  0  0  0  0  0  0  0
   35.2092   27.8047   59.3339 C   0  0  0  0  0  0  0  0  0  0  0  0
   35.8689   28.3165   60.0519 H   0  0  0  0  0  0  0  0  0  0  0  0
   35.3898   27.9840   57.9782 C   0  0  0  0  0  0  0  0  0  0  0  0
   36.4080   28.8137   57.5120 N   0  0  0  0  0  0  0  0  0  0  0  0
   37.0095   29.2788   58.2245 H   0  0  0  0  0  0  0  0  0  0  0  0
  1  6  1  0
  1 10  1  0
  2  1  2  0
  3  4  2  0
  3  2  1  0
  4  5  1  0
  5  6  2  0
  7  9  1  0
  8  7  2  0
  9  2  1  0
  3 11  1  0
  5 12  1  0
  7 13  1  0
  9 14  1  0
 15 16  2  0
 16 17  1  0
 16 18  1  0
 18 19  1  0
 18 20  2  0
 20 21  1  0
 21 22  2  0
 22 23  1  0
 21 24  1  0
 24 25  1  0
 25 26  2  0
 26 27  1  0
 26 28  1  0
 28 29  1  0
 28 30  2  0
 30 31  1  0
 30 32  1  0
 32 33  1  0
 32 34  2  0
 34 35  1  0
 35 36  1  0
 22 15  1  0
 34 25  1  0
 35 20  1  0
 10 15  1  0
M  ISO  8  11  14  12  14  13   6  17  16  19  16  23  16  27  16  29  16
M  ISO  3  31  16  33  16  36   5
M  END
>  <DihAtoms>  (1) 
0,9,14,15

>  <DihDeg>  (1) 
90.00010047932486

$$$$
