
     RDKit          3D

 36 39  0  0  0  0  0  0  0  0999 V2000
   37.3882   30.1278   51.0984 C   0  0  0  0  0  0  0  0  0  0  0  0
   38.2099   30.8923   50.2575 C   0  0  0  0  0  0  0  0  0  0  0  0
   37.6871   31.4441   49.0930 C   0  0  0  0  0  0  0  0  0  0  0  0
   36.3747   31.2039   48.8308 N   0  0  0  0  0  0  0  0  0  0  0  0
   35.5912   30.4587   49.6593 C   0  0  0  0  0  0  0  0  0  0  0  0
   36.1090   29.9397   50.7673 N   0  0  0  0  0  0  0  0  0  0  0  0
   33.9060   28.8445   49.1989 C   0  0  0  0  0  0  0  0  0  0  0  0
   34.6862   27.8411   49.3231 O   0  0  0  0  0  0  0  0  0  0  0  0
   34.2122   30.2340   49.3383 N   0  0  0  0  0  0  0  0  0  0  0  0
   38.0665   29.6629   52.1983 O   0  0  0  0  0  0  0  0  0  0  0  0
   39.2527   31.1154   50.4131 H   0  0  0  0  0  0  0  0  0  0  0  0
   38.2724   32.0329   48.4216 H   0  0  0  0  0  0  0  0  0  0  0  0
   32.8627   28.5888   48.9517 H   0  0  0  0  0  0  0  0  0  0  0  0
   33.4985   30.9514   49.2145 H   0  0  0  0  0  0  0  0  0  0  0  0
   37.4162   28.8852   53.1464 C   0  0  0  0  0  0  0  0  0  0  0  0
   36.0847   28.5360   53.0529 C   0  0  0  0  0  0  0  0  0  0  0  0
   35.5164   28.8825   52.2017 H   0  0  0  0  0  0  0  0  0  0  0  0
   35.5393   27.7662   54.0405 C   0  0  0  0  0  0  0  0  0  0  0  0
   34.4729   27.5325   53.8902 H   0  0  0  0  0  0  0  0  0  0  0  0
   36.2079   27.2929   55.1494 C   0  0  0  0  0  0  0  0  0  0  0  0
   37.5299   27.6633   55.2036 C   0  0  0  0  0  0  0  0  0  0  0  0
   38.1056   28.4242   54.2455 C   0  0  0  0  0  0  0  0  0  0  0  0
   39.1679   28.7027   54.3204 H   0  0  0  0  0  0  0  0  0  0  0  0
   38.5011   27.1107   56.5934 S   0  0  0  0  0  0  0  0  0  0  0  0
   37.4178   26.1559   57.6151 C   0  0  0  0  0  0  0  0  0  0  0  0
   37.8976   25.6017   58.7621 C   0  0  0  0  0  0  0  0  0  0  0  0
   38.9287   25.7307   59.0661 H   0  0  0  0  0  0  0  0  0  0  0  0
   37.1134   24.8479   59.6041 C   0  0  0  0  0  0  0  0  0  0  0  0
   37.5134   24.4163   60.5103 H   0  0  0  0  0  0  0  0  0  0  0  0
   35.7949   24.6612   59.2509 C   0  0  0  0  0  0  0  0  0  0  0  0
   35.1427   24.0758   59.8834 H   0  0  0  0  0  0  0  0  0  0  0  0
   35.3366   25.2368   58.0797 C   0  0  0  0  0  0  0  0  0  0  0  0
   34.2913   25.0510   57.8616 H   0  0  0  0  0  0  0  0  0  0  0  0
   36.1116   25.9944   57.2267 C   0  0  0  0  0  0  0  0  0  0  0  0
   35.4972   26.5046   56.0847 N   0  0  0  0  0  0  0  0  0  0  0  0
   34.4914   26.3138   55.8946 H   0  0  0  0  0  0  0  0  0  0  0  0
  1 10  1  0
  2  1  2  0
  3  2  1  0
  4  3  2  0
  4  5  1  0
  5  6  2  0
  6  1  1  0
  7  8  2  0
  7  9  1  0
  9  5  1  0
  2 11  1  0
  3 12  1  0
  7 13  1  0
  9 14  1  0
 15 16  2  0
 16 17  1  0
 16 18  1  0
 18 19  1  0
 18 20  2  0
 20 21  1  0
 21 22  2  0
 22 23  1  0
 21 24  1  0
 24 25  1  0
 25 26  2  0
 26 27  1  0
 26 28  1  0
 28 29  1  0
 28 30  2  0
 30 31  1  0
 30 32  1  0
 32 33  1  0
 32 34  2  0
 34 35  1  0
 35 36  1  0
 22 15  1  0
 34 25  1  0
 35 20  1  0
 10 15  1  0
M  ISO  8  11  14  12  14  13   6  17  16  19  16  23  16  27  16  29  16
M  ISO  3  31  16  33  16  36   5
M  END
>  <DihAtoms>  (1) 
0,9,14,15

>  <DihDeg>  (1) 
-90.00236205717641

$$$$
