
     RDKit          3D

 36 39  0  0  0  0  0  0  0  0999 V2000
   36.7848   29.6775   51.1306 C   0  0  0  0  0  0  0  0  0  0  0  0
   37.2990   30.0650   49.8921 C   0  0  0  0  0  0  0  0  0  0  0  0
   36.5519   29.8620   48.7456 C   0  0  0  0  0  0  0  0  0  0  0  0
   35.3215   29.2781   48.9003 N   0  0  0  0  0  0  0  0  0  0  0  0
   34.8366   28.9093   50.0967 C   0  0  0  0  0  0  0  0  0  0  0  0
   35.5577   29.1057   51.1985 N   0  0  0  0  0  0  0  0  0  0  0  0
   38.6342   32.0671   49.5077 C   0  0  0  0  0  0  0  0  0  0  0  0
   37.8044   33.0367   49.4432 O   0  0  0  0  0  0  0  0  0  0  0  0
   38.5420   30.6620   49.6772 N   0  0  0  0  0  0  0  0  0  0  0  0
   37.6619   29.9555   52.1522 O   0  0  0  0  0  0  0  0  0  0  0  0
   36.8667   30.1277   47.7540 H   0  0  0  0  0  0  0  0  0  0  0  0
   33.8653   28.4521   50.1879 H   0  0  0  0  0  0  0  0  0  0  0  0
   39.4223   32.8015   49.3758 H   0  0  0  0  0  0  0  0  0  0  0  0
   39.5229   30.2764   49.6042 H   0  0  0  0  0  0  0  0  0  0  0  0
   37.2950   29.6282   53.4512 C   0  0  0  0  0  0  0  0  0  0  0  0
   36.0588   29.0347   53.6617 C   0  0  0  0  0  0  0  0  0  0  0  0
   35.4185   28.8449   52.8087 H   0  0  0  0  0  0  0  0  0  0  0  0
   35.6818   28.7043   54.9479 C   0  0  0  0  0  0  0  0  0  0  0  0
   34.6955   28.2425   55.0203 H   0  0  0  0  0  0  0  0  0  0  0  0
   36.4659   28.9285   56.0602 C   0  0  0  0  0  0  0  0  0  0  0  0
   37.6885   29.5166   55.8437 C   0  0  0  0  0  0  0  0  0  0  0  0
   38.0630   29.8426   54.5834 C   0  0  0  0  0  0  0  0  0  0  0  0
   39.0387   30.3101   54.4254 H   0  0  0  0  0  0  0  0  0  0  0  0
   38.7264   29.8226   57.2409 S   0  0  0  0  0  0  0  0  0  0  0  0
   37.8359   29.2394   58.6680 C   0  0  0  0  0  0  0  0  0  0  0  0
   38.4967   29.3977   59.8570 C   0  0  0  0  0  0  0  0  0  0  0  0
   39.4663   29.8298   59.9652 H   0  0  0  0  0  0  0  0  0  0  0  0
   37.8600   28.9628   61.0234 C   0  0  0  0  0  0  0  0  0  0  0  0
   38.2882   29.0397   62.0055 H   0  0  0  0  0  0  0  0  0  0  0  0
   36.6050   28.3975   60.9319 C   0  0  0  0  0  0  0  0  0  0  0  0
   36.0987   28.0561   61.8240 H   0  0  0  0  0  0  0  0  0  0  0  0
   36.0259   28.2837   59.6852 C   0  0  0  0  0  0  0  0  0  0  0  0
   35.0254   27.8237   59.6895 H   0  0  0  0  0  0  0  0  0  0  0  0
   36.5959   28.6906   58.4969 C   0  0  0  0  0  0  0  0  0  0  0  0
   35.9076   28.5210   57.2969 N   0  0  0  0  0  0  0  0  0  0  0  0
   34.9639   28.0817   57.3452 H   0  0  0  0  0  0  0  0  0  0  0  0
  1  6  1  0
  1 10  1  0
  2  1  2  0
  3  4  2  0
  3  2  1  0
  4  5  1  0
  5  6  2  0
  7  9  1  0
  8  7  2  0
  9  2  1  0
  3 11  1  0
  5 12  1  0
  7 13  1  0
  9 14  1  0
 15 16  2  0
 16 17  1  0
 16 18  1  0
 18 19  1  0
 18 20  2  0
 20 21  1  0
 21 22  2  0
 22 23  1  0
 21 24  1  0
 24 25  1  0
 25 26  2  0
 26 27  1  0
 26 28  1  0
 28 29  1  0
 28 30  2  0
 30 31  1  0
 30 32  1  0
 32 33  1  0
 32 34  2  0
 34 35  1  0
 35 36  1  0
 22 15  1  0
 34 25  1  0
 35 20  1  0
 10 15  1  0
M  ISO  8  11  14  12  14  13   6  17  16  19  16  23  16  27  16  29  16
M  ISO  3  31  16  33  16  36   5
M  END
>  <DihAtoms>  (1) 
0,9,14,15

>  <DihDeg>  (1) 
90.00010047932486

$$$$
