
     RDKit          3D

 47 51  0  0  1  0  0  0  0  0999 V2000
   35.2590   29.5410   47.9440 C   0  0  0  0  0  0  0  0  0  0  0  0
   35.2020   29.9790   46.6220 C   0  0  0  0  0  0  0  0  0  0  0  0
   34.0700   29.6600   45.8880 C   0  0  0  0  0  0  0  0  0  0  0  0
   33.0870   28.9370   46.5190 N   0  0  0  0  0  0  0  0  0  0  0  0
   33.1730   28.5310   47.7940 C   0  0  0  0  0  0  0  0  0  0  0  0
   34.2650   28.8370   48.5090 N   0  0  0  0  0  0  0  0  0  0  0  0
   36.4420   29.8820   48.6910 N   0  0  0  0  0  0  0  0  0  0  0  0
   37.5620   30.6390   48.2350 C   0  0  0  0  0  0  0  0  0  0  0  0
   38.0760   31.2870   49.5210 C   0  0  2  0  0  0  0  0  0  0  0  0
   37.0970   30.8920   50.6010 C   0  0  0  0  0  0  0  0  0  0  0  0
   36.7220   29.5150   50.0560 C   0  0  0  0  0  0  0  0  0  0  0  0
   38.2520   32.7710   49.3980 C   0  0  0  0  0  0  0  0  0  0  0  0
   37.0960   33.3380   49.8970 F   0  0  0  0  0  0  0  0  0  0  0  0
   38.3040   33.0610   48.0560 F   0  0  0  0  0  0  0  0  0  0  0  0
   39.3640   33.2440   50.0270 F   0  0  0  0  0  0  0  0  0  0  0  0
   31.8730   27.5940   48.5730 S   0  0  0  0  0  0  0  0  0  0  0  0
   30.3590   27.7120   47.6390 C   0  0  0  0  0  0  0  0  0  0  0  0
   29.3690   28.6430   47.9360 C   0  0  0  0  0  0  0  0  0  0  0  0
   28.2220   28.6650   47.1570 C   0  0  0  0  0  0  0  0  0  0  0  0
   27.9870   27.8190   46.0930 C   0  0  0  0  0  0  0  0  0  0  0  0
   28.9840   26.9180   45.8340 C   0  0  0  0  0  0  0  0  0  0  0  0
   30.1130   26.8740   46.5770 C   0  0  0  0  0  0  0  0  0  0  0  0
   28.7580   25.7950   44.4820 S   0  0  0  0  0  0  0  0  0  0  0  0
   27.1720   26.1680   43.7690 C   0  0  0  0  0  0  0  0  0  0  0  0
   26.7620   25.4300   42.6980 C   0  0  0  0  0  0  0  0  0  0  0  0
   25.5410   25.6620   42.0900 C   0  0  0  0  0  0  0  0  0  0  0  0
   24.7460   26.6660   42.6020 C   0  0  0  0  0  0  0  0  0  0  0  0
   25.2220   27.3720   43.6860 C   0  0  0  0  0  0  0  0  0  0  0  0
   26.4290   27.1770   44.3220 C   0  0  0  0  0  0  0  0  0  0  0  0
   26.7750   27.9810   45.4200 N   0  0  0  0  0  0  0  0  0  0  0  0
   36.0255   30.5569   46.1771 H   0  0  0  0  0  0  0  0  0  0  0  0
   33.9629   29.9742   44.8393 H   0  0  0  0  0  0  0  0  0  0  0  0
   38.3258   29.9865   47.7869 H   0  0  0  0  0  0  0  0  0  0  0  0
   37.3066   31.3673   47.4512 H   0  0  0  0  0  0  0  0  0  0  0  0
   39.0883   30.9317   49.7638 H   0  0  0  0  0  0  0  0  0  0  0  0
   37.5713   30.8328   51.5917 H   0  0  0  0  0  0  0  0  0  0  0  0
   36.2616   31.5868   50.7725 H   0  0  0  0  0  0  0  0  0  0  0  0
   35.8380   29.0983   50.5608 H   0  0  0  0  0  0  0  0  0  0  0  0
   37.4816   28.7305   50.1889 H   0  0  0  0  0  0  0  0  0  0  0  0
   29.4935   29.3473   48.7717 H   0  0  0  0  0  0  0  0  0  0  0  0
   27.4479   29.4065   47.4039 H   0  0  0  0  0  0  0  0  0  0  0  0
   30.8769   26.1263   46.3174 H   0  0  0  0  0  0  0  0  0  0  0  0
   27.4150   24.6345   42.3098 H   0  0  0  0  0  0  0  0  0  0  0  0
   25.2147   25.0647   41.2258 H   0  0  0  0  0  0  0  0  0  0  0  0
   23.7651   26.8956   42.1602 H   0  0  0  0  0  0  0  0  0  0  0  0
   24.5753   28.1688   44.0821 H   0  0  0  0  0  0  0  0  0  0  0  0
   26.1181   28.7084   45.7366 H   0  0  0  0  0  0  0  0  0  0  0  0
  1  6  1  0
  1  7  1  0
  2  1  2  0
  3  4  2  0
  3  2  1  0
  4  5  1  0
  5  6  2  0
  5 16  1  0
  7 11  1  0
  8  7  1  0
  8  9  1  0
  9 10  1  0
 11 10  1  0
 12  9  1  0
 12 13  1  0
 12 15  1  0
 14 12  1  0
 17 18  2  0
 17 16  1  0
 19 18  1  0
 20 19  2  0
 21 20  1  0
 21 22  2  0
 22 17  1  0
 23 21  1  0
 24 29  2  0
 24 23  1  0
 25 24  1  0
 26 27  1  0
 26 25  2  0
 27 28  2  0
 28 29  1  0
 29 30  1  0
 30 20  1  0
  2 31  1  0
  3 32  1  0
  8 33  1  0
  8 34  1  0
  9 35  1  1
 10 36  1  0
 10 37  1  0
 11 38  1  0
 11 39  1  0
 18 40  1  0
 19 41  1  0
 22 42  1  0
 25 43  1  0
 26 44  1  0
 27 45  1  0
 28 46  1  0
 30 47  1  0
M  ISO  8  31  14  32  14  33  13  34  13  35  13  36  13  37  13  38  13
M  ISO  8  39  13  40  14  41  14  42  14  43  14  44  14  45  14  46  14
M  END
>  <minimizedAffinity>  (1) 
-7.09677935

>  <minimizedRMSD>  (1) 
1.21551168

$$$$
