
     RDKit          3D

 36 39  0  0  0  0  0  0  0  0999 V2000
   36.7848   29.6775   51.1306 C   0  0  0  0  0  0  0  0  0  0  0  0
   37.2990   30.0650   49.8921 C   0  0  0  0  0  0  0  0  0  0  0  0
   36.5519   29.8620   48.7456 C   0  0  0  0  0  0  0  0  0  0  0  0
   35.3215   29.2781   48.9003 N   0  0  0  0  0  0  0  0  0  0  0  0
   34.8366   28.9093   50.0967 C   0  0  0  0  0  0  0  0  0  0  0  0
   35.5577   29.1057   51.1985 N   0  0  0  0  0  0  0  0  0  0  0  0
   38.6342   32.0671   49.5077 C   0  0  0  0  0  0  0  0  0  0  0  0
   37.8044   33.0367   49.4432 O   0  0  0  0  0  0  0  0  0  0  0  0
   38.5420   30.6620   49.6772 N   0  0  0  0  0  0  0  0  0  0  0  0
   37.6619   29.9555   52.1522 O   0  0  0  0  0  0  0  0  0  0  0  0
   36.8667   30.1277   47.7540 H   0  0  0  0  0  0  0  0  0  0  0  0
   33.8653   28.4521   50.1879 H   0  0  0  0  0  0  0  0  0  0  0  0
   39.4223   32.8015   49.3758 H   0  0  0  0  0  0  0  0  0  0  0  0
   39.5229   30.2764   49.6042 H   0  0  0  0  0  0  0  0  0  0  0  0
   37.2950   29.6282   53.4512 C   0  0  0  0  0  0  0  0  0  0  0  0
   37.6252   28.3713   53.9370 C   0  0  0  0  0  0  0  0  0  0  0  0
   38.1579   27.6847   53.2901 H   0  0  0  0  0  0  0  0  0  0  0  0
   37.2664   28.0332   55.2264 C   0  0  0  0  0  0  0  0  0  0  0  0
   37.5658   27.0269   55.5247 H   0  0  0  0  0  0  0  0  0  0  0  0
   36.5886   28.8765   56.0817 C   0  0  0  0  0  0  0  0  0  0  0  0
   36.2651   30.1193   55.5935 C   0  0  0  0  0  0  0  0  0  0  0  0
   36.6150   30.4558   54.3289 C   0  0  0  0  0  0  0  0  0  0  0  0
   36.3513   31.4481   53.9531 H   0  0  0  0  0  0  0  0  0  0  0  0
   35.3961   31.2328   56.6556 S   0  0  0  0  0  0  0  0  0  0  0  0
   35.1542   30.3746   58.1966 C   0  0  0  0  0  0  0  0  0  0  0  0
   34.4882   31.0946   59.1523 C   0  0  0  0  0  0  0  0  0  0  0  0
   34.1265   32.0905   59.0266 H   0  0  0  0  0  0  0  0  0  0  0  0
   34.2604   30.4864   60.3906 C   0  0  0  0  0  0  0  0  0  0  0  0
   33.7492   30.9608   61.2075 H   0  0  0  0  0  0  0  0  0  0  0  0
   34.7104   29.1991   60.5987 C   0  0  0  0  0  0  0  0  0  0  0  0
   34.5425   28.7141   61.5502 H   0  0  0  0  0  0  0  0  0  0  0  0
   35.3710   28.5605   59.5700 C   0  0  0  0  0  0  0  0  0  0  0  0
   35.7007   27.5371   59.8080 H   0  0  0  0  0  0  0  0  0  0  0  0
   35.6292   29.0997   58.3269 C   0  0  0  0  0  0  0  0  0  0  0  0
   36.3084   28.3511   57.3673 N   0  0  0  0  0  0  0  0  0  0  0  0
   36.6027   27.3875   57.6331 H   0  0  0  0  0  0  0  0  0  0  0  0
  1  6  1  0
  1 10  1  0
  2  1  2  0
  3  4  2  0
  3  2  1  0
  4  5  1  0
  5  6  2  0
  7  9  1  0
  8  7  2  0
  9  2  1  0
  3 11  1  0
  5 12  1  0
  7 13  1  0
  9 14  1  0
 15 16  2  0
 16 17  1  0
 16 18  1  0
 18 19  1  0
 18 20  2  0
 20 21  1  0
 21 22  2  0
 22 23  1  0
 21 24  1  0
 24 25  1  0
 25 26  2  0
 26 27  1  0
 26 28  1  0
 28 29  1  0
 28 30  2  0
 30 31  1  0
 30 32  1  0
 32 33  1  0
 32 34  2  0
 34 35  1  0
 35 36  1  0
 22 15  1  0
 34 25  1  0
 35 20  1  0
 10 15  1  0
M  ISO  8  11  14  12  14  13   6  17  16  19  16  23  16  27  16  29  16
M  ISO  3  31  16  33  16  36   5
M  END
>  <DihAtoms>  (1) 
0,9,14,15

>  <DihDeg>  (1) 
90.00010047932486

$$$$
