
     RDKit          3D

 36 39  0  0  0  0  0  0  0  0999 V2000
   36.7848   29.6775   51.1306 C   0  0  0  0  0  0  0  0  0  0  0  0
   37.2990   30.0650   49.8921 C   0  0  0  0  0  0  0  0  0  0  0  0
   36.5519   29.8620   48.7456 C   0  0  0  0  0  0  0  0  0  0  0  0
   35.3215   29.2781   48.9003 N   0  0  0  0  0  0  0  0  0  0  0  0
   34.8366   28.9093   50.0967 C   0  0  0  0  0  0  0  0  0  0  0  0
   35.5577   29.1057   51.1985 N   0  0  0  0  0  0  0  0  0  0  0  0
   38.6342   32.0671   49.5077 C   0  0  0  0  0  0  0  0  0  0  0  0
   37.8044   33.0367   49.4432 O   0  0  0  0  0  0  0  0  0  0  0  0
   38.5420   30.6620   49.6772 N   0  0  0  0  0  0  0  0  0  0  0  0
   37.6619   29.9555   52.1522 O   0  0  0  0  0  0  0  0  0  0  0  0
   36.8667   30.1277   47.7540 H   0  0  0  0  0  0  0  0  0  0  0  0
   33.8653   28.4521   50.1879 H   0  0  0  0  0  0  0  0  0  0  0  0
   39.4223   32.8015   49.3758 H   0  0  0  0  0  0  0  0  0  0  0  0
   39.5229   30.2764   49.6042 H   0  0  0  0  0  0  0  0  0  0  0  0
   37.2950   29.6282   53.4512 C   0  0  0  0  0  0  0  0  0  0  0  0
   36.7270   28.3845   53.6866 C   0  0  0  0  0  0  0  0  0  0  0  0
   36.5871   27.7078   52.8522 H   0  0  0  0  0  0  0  0  0  0  0  0
   36.3577   28.0466   54.9731 C   0  0  0  0  0  0  0  0  0  0  0  0
   35.9199   27.0511   55.0659 H   0  0  0  0  0  0  0  0  0  0  0  0
   36.5182   28.8776   56.0621 C   0  0  0  0  0  0  0  0  0  0  0  0
   37.0813   30.1074   55.8210 C   0  0  0  0  0  0  0  0  0  0  0  0
   37.4453   30.4436   54.5603 C   0  0  0  0  0  0  0  0  0  0  0  0
   37.8923   31.4255   54.3826 H   0  0  0  0  0  0  0  0  0  0  0  0
   37.3057   31.2048   57.1879 S   0  0  0  0  0  0  0  0  0  0  0  0
   36.6919   30.3522   58.6253 C   0  0  0  0  0  0  0  0  0  0  0  0
   36.7866   31.0612   59.7931 C   0  0  0  0  0  0  0  0  0  0  0  0
   37.1883   32.0458   59.8801 H   0  0  0  0  0  0  0  0  0  0  0  0
   36.3243   30.4565   60.9660 C   0  0  0  0  0  0  0  0  0  0  0  0
   36.3517   30.9231   61.9331 H   0  0  0  0  0  0  0  0  0  0  0  0
   35.7967   29.1835   60.9016 C   0  0  0  0  0  0  0  0  0  0  0  0
   35.4346   28.7015   61.7990 H   0  0  0  0  0  0  0  0  0  0  0  0
   35.7464   28.5553   59.6747 C   0  0  0  0  0  0  0  0  0  0  0  0
   35.3133   27.5431   59.7001 H   0  0  0  0  0  0  0  0  0  0  0  0
   36.1835   29.0917   58.4814 C   0  0  0  0  0  0  0  0  0  0  0  0
   36.0785   28.3546   57.3032 N   0  0  0  0  0  0  0  0  0  0  0  0
   35.6630   27.4014   57.3712 H   0  0  0  0  0  0  0  0  0  0  0  0
  1  6  1  0
  1 10  1  0
  2  1  2  0
  3  4  2  0
  3  2  1  0
  4  5  1  0
  5  6  2  0
  7  9  1  0
  8  7  2  0
  9  2  1  0
  3 11  1  0
  5 12  1  0
  7 13  1  0
  9 14  1  0
 15 16  2  0
 16 17  1  0
 16 18  1  0
 18 19  1  0
 18 20  2  0
 20 21  1  0
 21 22  2  0
 22 23  1  0
 21 24  1  0
 24 25  1  0
 25 26  2  0
 26 27  1  0
 26 28  1  0
 28 29  1  0
 28 30  2  0
 30 31  1  0
 30 32  1  0
 32 33  1  0
 32 34  2  0
 34 35  1  0
 35 36  1  0
 22 15  1  0
 34 25  1  0
 35 20  1  0
 10 15  1  0
M  ISO  8  11  14  12  14  13   6  17  16  19  16  23  16  27  16  29  16
M  ISO  3  31  16  33  16  36   5
M  END
>  <DihAtoms>  (1) 
0,9,14,15

>  <DihDeg>  (1) 
90.00010047932486

$$$$
