
     RDKit          3D

 36 39  0  0  0  0  0  0  0  0999 V2000
   37.3882   30.1278   51.0984 C   0  0  0  0  0  0  0  0  0  0  0  0
   38.2099   30.8923   50.2575 C   0  0  0  0  0  0  0  0  0  0  0  0
   37.6871   31.4441   49.0930 C   0  0  0  0  0  0  0  0  0  0  0  0
   36.3747   31.2039   48.8308 N   0  0  0  0  0  0  0  0  0  0  0  0
   35.5912   30.4587   49.6593 C   0  0  0  0  0  0  0  0  0  0  0  0
   36.1090   29.9397   50.7673 N   0  0  0  0  0  0  0  0  0  0  0  0
   33.9060   28.8445   49.1989 C   0  0  0  0  0  0  0  0  0  0  0  0
   34.6862   27.8411   49.3231 O   0  0  0  0  0  0  0  0  0  0  0  0
   34.2122   30.2340   49.3383 N   0  0  0  0  0  0  0  0  0  0  0  0
   38.0665   29.6629   52.1983 O   0  0  0  0  0  0  0  0  0  0  0  0
   39.2527   31.1154   50.4131 H   0  0  0  0  0  0  0  0  0  0  0  0
   38.2724   32.0329   48.4216 H   0  0  0  0  0  0  0  0  0  0  0  0
   32.8627   28.5888   48.9517 H   0  0  0  0  0  0  0  0  0  0  0  0
   33.4985   30.9514   49.2145 H   0  0  0  0  0  0  0  0  0  0  0  0
   37.4162   28.8852   53.1464 C   0  0  0  0  0  0  0  0  0  0  0  0
   38.0816   28.1435   54.1006 C   0  0  0  0  0  0  0  0  0  0  0  0
   39.1619   28.1661   54.1145 H   0  0  0  0  0  0  0  0  0  0  0  0
   37.3474   27.4108   54.9891 C   0  0  0  0  0  0  0  0  0  0  0  0
   37.9544   26.8482   55.7169 H   0  0  0  0  0  0  0  0  0  0  0  0
   35.9711   27.3392   55.0250 C   0  0  0  0  0  0  0  0  0  0  0  0
   35.3483   28.0918   54.0587 C   0  0  0  0  0  0  0  0  0  0  0  0
   36.0405   28.8299   53.1619 C   0  0  0  0  0  0  0  0  0  0  0  0
   35.5093   29.4215   52.4006 H   0  0  0  0  0  0  0  0  0  0  0  0
   33.5659   28.0802   54.0037 S   0  0  0  0  0  0  0  0  0  0  0  0
   33.0299   27.0179   55.3125 C   0  0  0  0  0  0  0  0  0  0  0  0
   31.6976   26.8197   55.5085 C   0  0  0  0  0  0  0  0  0  0  0  0
   30.9550   27.2972   54.8819 H   0  0  0  0  0  0  0  0  0  0  0  0
   31.2090   26.0078   56.5058 C   0  0  0  0  0  0  0  0  0  0  0  0
   30.1473   25.8635   56.6450 H   0  0  0  0  0  0  0  0  0  0  0  0
   32.1238   25.3823   57.3244 C   0  0  0  0  0  0  0  0  0  0  0  0
   31.7841   24.7354   58.1207 H   0  0  0  0  0  0  0  0  0  0  0  0
   33.4706   25.6032   57.1004 C   0  0  0  0  0  0  0  0  0  0  0  0
   34.1350   25.0814   57.7794 H   0  0  0  0  0  0  0  0  0  0  0  0
   33.9738   26.4143   56.1048 C   0  0  0  0  0  0  0  0  0  0  0  0
   35.3594   26.5315   56.0122 N   0  0  0  0  0  0  0  0  0  0  0  0
   35.9792   26.0211   56.6751 H   0  0  0  0  0  0  0  0  0  0  0  0
  1 10  1  0
  2  1  2  0
  3  2  1  0
  4  3  2  0
  4  5  1  0
  5  6  2  0
  6  1  1  0
  7  8  2  0
  7  9  1  0
  9  5  1  0
  2 11  1  0
  3 12  1  0
  7 13  1  0
  9 14  1  0
 15 16  2  0
 16 17  1  0
 16 18  1  0
 18 19  1  0
 18 20  2  0
 20 21  1  0
 21 22  2  0
 22 23  1  0
 21 24  1  0
 24 25  1  0
 25 26  2  0
 26 27  1  0
 26 28  1  0
 28 29  1  0
 28 30  2  0
 30 31  1  0
 30 32  1  0
 32 33  1  0
 32 34  2  0
 34 35  1  0
 35 36  1  0
 22 15  1  0
 34 25  1  0
 35 20  1  0
 10 15  1  0
M  ISO  8  11  14  12  14  13   6  17  16  19  16  23  16  27  16  29  16
M  ISO  3  31  16  33  16  36   5
M  END
>  <DihAtoms>  (1) 
0,9,14,15

>  <DihDeg>  (1) 
-90.00236205717641

$$$$
