
     RDKit          3D

 36 39  0  0  0  0  0  0  0  0999 V2000
   37.3882   30.1278   51.0984 C   0  0  0  0  0  0  0  0  0  0  0  0
   38.2099   30.8923   50.2575 C   0  0  0  0  0  0  0  0  0  0  0  0
   37.6871   31.4441   49.0930 C   0  0  0  0  0  0  0  0  0  0  0  0
   36.3747   31.2039   48.8308 N   0  0  0  0  0  0  0  0  0  0  0  0
   35.5912   30.4587   49.6593 C   0  0  0  0  0  0  0  0  0  0  0  0
   36.1090   29.9397   50.7673 N   0  0  0  0  0  0  0  0  0  0  0  0
   33.9060   28.8445   49.1989 C   0  0  0  0  0  0  0  0  0  0  0  0
   34.6862   27.8411   49.3231 O   0  0  0  0  0  0  0  0  0  0  0  0
   34.2122   30.2340   49.3383 N   0  0  0  0  0  0  0  0  0  0  0  0
   38.0665   29.6629   52.1983 O   0  0  0  0  0  0  0  0  0  0  0  0
   39.2527   31.1154   50.4131 H   0  0  0  0  0  0  0  0  0  0  0  0
   38.2724   32.0329   48.4216 H   0  0  0  0  0  0  0  0  0  0  0  0
   32.8627   28.5888   48.9517 H   0  0  0  0  0  0  0  0  0  0  0  0
   33.4985   30.9514   49.2145 H   0  0  0  0  0  0  0  0  0  0  0  0
   37.4162   28.8852   53.1464 C   0  0  0  0  0  0  0  0  0  0  0  0
   37.3531   27.5086   53.0801 C   0  0  0  0  0  0  0  0  0  0  0  0
   37.8320   27.0069   52.2514 H   0  0  0  0  0  0  0  0  0  0  0  0
   36.6877   26.8359   54.0651 C   0  0  0  0  0  0  0  0  0  0  0  0
   36.6842   25.7412   53.9377 H   0  0  0  0  0  0  0  0  0  0  0  0
   36.0574   27.4146   55.1460 C   0  0  0  0  0  0  0  0  0  0  0  0
   36.1441   28.7856   55.1736 C   0  0  0  0  0  0  0  0  0  0  0  0
   36.7938   29.4866   54.2172 C   0  0  0  0  0  0  0  0  0  0  0  0
   36.8439   30.5850   54.2704 H   0  0  0  0  0  0  0  0  0  0  0  0
   35.3661   29.6497   56.5259 S   0  0  0  0  0  0  0  0  0  0  0  0
   34.6305   28.4133   57.5550 C   0  0  0  0  0  0  0  0  0  0  0  0
   33.9592   28.7914   58.6772 C   0  0  0  0  0  0  0  0  0  0  0  0
   33.8637   29.8329   58.9569 H   0  0  0  0  0  0  0  0  0  0  0  0
   33.3629   27.8855   59.5233 C   0  0  0  0  0  0  0  0  0  0  0  0
   32.8344   28.2060   60.4095 H   0  0  0  0  0  0  0  0  0  0  0  0
   33.4629   26.5498   59.2005 C   0  0  0  0  0  0  0  0  0  0  0  0
   33.0091   25.8036   59.8372 H   0  0  0  0  0  0  0  0  0  0  0  0
   34.1512   26.1968   58.0540 C   0  0  0  0  0  0  0  0  0  0  0  0
   34.1919   25.1313   57.8593 H   0  0  0  0  0  0  0  0  0  0  0  0
   34.7536   27.0942   57.1974 C   0  0  0  0  0  0  0  0  0  0  0  0
   35.4096   26.5754   56.0827 N   0  0  0  0  0  0  0  0  0  0  0  0
   35.4363   25.5482   55.9148 H   0  0  0  0  0  0  0  0  0  0  0  0
  1 10  1  0
  2  1  2  0
  3  2  1  0
  4  3  2  0
  4  5  1  0
  5  6  2  0
  6  1  1  0
  7  8  2  0
  7  9  1  0
  9  5  1  0
  2 11  1  0
  3 12  1  0
  7 13  1  0
  9 14  1  0
 15 16  2  0
 16 17  1  0
 16 18  1  0
 18 19  1  0
 18 20  2  0
 20 21  1  0
 21 22  2  0
 22 23  1  0
 21 24  1  0
 24 25  1  0
 25 26  2  0
 26 27  1  0
 26 28  1  0
 28 29  1  0
 28 30  2  0
 30 31  1  0
 30 32  1  0
 32 33  1  0
 32 34  2  0
 34 35  1  0
 35 36  1  0
 22 15  1  0
 34 25  1  0
 35 20  1  0
 10 15  1  0
M  ISO  8  11  14  12  14  13   6  17  16  19  16  23  16  27  16  29  16
M  ISO  3  31  16  33  16  36   5
M  END
>  <DihAtoms>  (1) 
0,9,14,15

>  <DihDeg>  (1) 
-90.00236205717641

$$$$
