
     RDKit          3D

 36 39  0  0  0  0  0  0  0  0999 V2000
   36.7848   29.6775   51.1306 C   0  0  0  0  0  0  0  0  0  0  0  0
   37.2990   30.0650   49.8921 C   0  0  0  0  0  0  0  0  0  0  0  0
   36.5519   29.8620   48.7456 C   0  0  0  0  0  0  0  0  0  0  0  0
   35.3215   29.2781   48.9003 N   0  0  0  0  0  0  0  0  0  0  0  0
   34.8366   28.9093   50.0967 C   0  0  0  0  0  0  0  0  0  0  0  0
   35.5577   29.1057   51.1985 N   0  0  0  0  0  0  0  0  0  0  0  0
   38.6342   32.0671   49.5077 C   0  0  0  0  0  0  0  0  0  0  0  0
   37.8044   33.0367   49.4432 O   0  0  0  0  0  0  0  0  0  0  0  0
   38.5420   30.6620   49.6772 N   0  0  0  0  0  0  0  0  0  0  0  0
   37.6619   29.9555   52.1522 O   0  0  0  0  0  0  0  0  0  0  0  0
   36.8667   30.1277   47.7540 H   0  0  0  0  0  0  0  0  0  0  0  0
   33.8653   28.4521   50.1879 H   0  0  0  0  0  0  0  0  0  0  0  0
   39.4223   32.8015   49.3758 H   0  0  0  0  0  0  0  0  0  0  0  0
   39.5229   30.2764   49.6042 H   0  0  0  0  0  0  0  0  0  0  0  0
   37.2950   29.6282   53.4512 C   0  0  0  0  0  0  0  0  0  0  0  0
   36.0121   29.9409   53.8769 C   0  0  0  0  0  0  0  0  0  0  0  0
   35.3369   30.4298   53.1850 H   0  0  0  0  0  0  0  0  0  0  0  0
   35.6346   29.6211   55.1656 C   0  0  0  0  0  0  0  0  0  0  0  0
   34.6100   29.9031   55.4145 H   0  0  0  0  0  0  0  0  0  0  0  0
   36.4623   28.9995   56.0770 C   0  0  0  0  0  0  0  0  0  0  0  0
   37.7310   28.6931   55.6482 C   0  0  0  0  0  0  0  0  0  0  0  0
   38.1062   29.0048   54.3845 C   0  0  0  0  0  0  0  0  0  0  0  0
   39.1188   28.7552   54.0563 H   0  0  0  0  0  0  0  0  0  0  0  0
   38.8258   27.8957   56.7835 S   0  0  0  0  0  0  0  0  0  0  0  0
   37.9161   27.6879   58.2997 C   0  0  0  0  0  0  0  0  0  0  0  0
   38.6166   27.0787   59.3065 C   0  0  0  0  0  0  0  0  0  0  0  0
   39.6258   26.7405   59.2319 H   0  0  0  0  0  0  0  0  0  0  0  0
   37.9677   26.8803   60.5291 C   0  0  0  0  0  0  0  0  0  0  0  0
   38.4241   26.4137   61.3822 H   0  0  0  0  0  0  0  0  0  0  0  0
   36.6619   27.3015   60.6718 C   0  0  0  0  0  0  0  0  0  0  0  0
   36.1456   27.1559   61.6104 H   0  0  0  0  0  0  0  0  0  0  0  0
   36.0457   27.9049   59.5954 C   0  0  0  0  0  0  0  0  0  0  0  0
   35.0056   28.2145   59.7823 H   0  0  0  0  0  0  0  0  0  0  0  0
   36.6249   28.1314   58.3642 C   0  0  0  0  0  0  0  0  0  0  0  0
   35.8957   28.7529   57.3520 N   0  0  0  0  0  0  0  0  0  0  0  0
   34.9152   29.0299   57.5703 H   0  0  0  0  0  0  0  0  0  0  0  0
  1  6  1  0
  1 10  1  0
  2  1  2  0
  3  4  2  0
  3  2  1  0
  4  5  1  0
  5  6  2  0
  7  9  1  0
  8  7  2  0
  9  2  1  0
  3 11  1  0
  5 12  1  0
  7 13  1  0
  9 14  1  0
 15 16  2  0
 16 17  1  0
 16 18  1  0
 18 19  1  0
 18 20  2  0
 20 21  1  0
 21 22  2  0
 22 23  1  0
 21 24  1  0
 24 25  1  0
 25 26  2  0
 26 27  1  0
 26 28  1  0
 28 29  1  0
 28 30  2  0
 30 31  1  0
 30 32  1  0
 32 33  1  0
 32 34  2  0
 34 35  1  0
 35 36  1  0
 22 15  1  0
 34 25  1  0
 35 20  1  0
 10 15  1  0
M  ISO  8  11  14  12  14  13   6  17  16  19  16  23  16  27  16  29  16
M  ISO  3  31  16  33  16  36   5
M  END
>  <DihAtoms>  (1) 
0,9,14,15

>  <DihDeg>  (1) 
90.00010047932486

$$$$
