
     RDKit          3D

 55 59  0  0  0  0  0  0  0  0999 V2000
   36.8812   30.2865   49.3021 C   0  0  0  0  0  0  0  0  0  0  0  0
   37.8735   30.8720   48.5056 C   0  0  0  0  0  0  0  0  0  0  0  0
   37.5741   31.0331   47.1442 C   0  0  0  0  0  0  0  0  0  0  0  0
   36.3822   30.6280   46.6877 N   0  0  0  0  0  0  0  0  0  0  0  0
   35.4559   30.0687   47.4922 C   0  0  0  0  0  0  0  0  0  0  0  0
   35.7025   29.9004   48.7817 N   0  0  0  0  0  0  0  0  0  0  0  0
   38.5096   31.6098   46.2842 N   0  0  0  0  0  0  0  0  0  0  0  0
   39.5318   32.6305   46.6493 C   0  0  0  0  0  0  0  0  0  0  0  0
   40.1564   33.1302   45.4178 C   0  0  0  0  0  0  0  0  0  0  0  0
   39.1829   32.7332   44.3742 C   0  0  0  0  0  0  0  0  0  0  0  0
   38.7338   31.4000   44.8878 C   0  0  2  0  0  0  0  0  0  0  0  0
   37.5729   30.8680   44.0994 C   0  0  0  0  0  0  0  0  0  0  0  0
   36.4766   31.6521   44.3996 F   0  0  0  0  0  0  0  0  0  0  0  0
   37.2127   29.5817   44.3773 F   0  0  0  0  0  0  0  0  0  0  0  0
   37.8596   31.0781   42.7776 F   0  0  0  0  0  0  0  0  0  0  0  0
   39.8010   30.4200   44.7869 C   0  0  2  0  0  0  0  0  0  0  0  0
   40.7972   30.6975   45.8535 O   0  0  0  0  0  0  0  0  0  0  0  0
   40.4681   30.6478   43.7581 O   0  0  0  0  0  0  0  0  0  0  0  0
   41.0257   30.0408   42.6955 C   0  0  0  0  0  0  0  0  0  0  0  0
   40.7260   30.5390   41.6210 O   0  0  0  0  0  0  0  0  0  0  0  0
   41.8793   28.9887   42.2484 N   0  0  0  0  0  0  0  0  0  0  0  0
   37.1814   30.1918   50.3496 H   0  0  0  0  0  0  0  0  0  0  0  0
   38.8360   31.1989   48.8753 H   0  0  0  0  0  0  0  0  0  0  0  0
   34.4841   29.7309   47.1555 H   0  0  0  0  0  0  0  0  0  0  0  0
   38.8550   33.4463   47.0662 H   0  0  0  0  0  0  0  0  0  0  0  0
   40.1405   32.3564   47.4950 H   0  0  0  0  0  0  0  0  0  0  0  0
   40.1365   34.2627   45.4221 H   0  0  0  0  0  0  0  0  0  0  0  0
   41.2092   32.9029   45.2329 H   0  0  0  0  0  0  0  0  0  0  0  0
   39.6264   32.6499   43.3541 H   0  0  0  0  0  0  0  0  0  0  0  0
   38.3514   33.4392   44.3192 H   0  0  0  0  0  0  0  0  0  0  0  0
   39.4307   29.4210   45.0980 H   0  0  0  0  0  0  0  0  0  0  0  0
   42.9185   29.1316   42.2116 H   0  0  0  0  0  0  0  0  0  0  0  0
   41.5844   28.0384   41.9345 H   0  0  0  0  0  0  0  0  0  0  0  0
   41.1433   29.7713   46.7905 C   0  0  0  0  0  0  0  0  0  0  0  0
   42.0095   29.7482   47.8589 C   0  0  0  0  0  0  0  0  0  0  0  0
   42.5517   30.6616   48.0125 H   0  0  0  0  0  0  0  0  0  0  0  0
   42.1585   28.6393   48.6581 C   0  0  0  0  0  0  0  0  0  0  0  0
   42.8886   28.7761   49.4715 H   0  0  0  0  0  0  0  0  0  0  0  0
   41.4554   27.4722   48.4515 C   0  0  0  0  0  0  0  0  0  0  0  0
   40.5808   27.4571   47.3941 C   0  0  0  0  0  0  0  0  0  0  0  0
   40.4496   28.5620   46.6187 C   0  0  0  0  0  0  0  0  0  0  0  0
   39.7165   28.4113   45.8095 H   0  0  0  0  0  0  0  0  0  0  0  0
   39.6665   25.9512   47.1188 S   0  0  0  0  0  0  0  0  0  0  0  0
   40.1691   24.8034   48.3705 C   0  0  0  0  0  0  0  0  0  0  0  0
   39.5756   23.5716   48.3334 C   0  0  0  0  0  0  0  0  0  0  0  0
   38.8400   23.2941   47.5916 H   0  0  0  0  0  0  0  0  0  0  0  0
   39.9141   22.6236   49.2738 C   0  0  0  0  0  0  0  0  0  0  0  0
   39.4878   21.6320   49.3067 H   0  0  0  0  0  0  0  0  0  0  0  0
   40.8490   22.9455   50.2337 C   0  0  0  0  0  0  0  0  0  0  0  0
   41.1192   22.2222   50.9657 H   0  0  0  0  0  0  0  0  0  0  0  0
   41.4015   24.2041   50.2059 C   0  0  0  0  0  0  0  0  0  0  0  0
   42.1365   24.3947   50.9954 H   0  0  0  0  0  0  0  0  0  0  0  0
   41.1064   25.1966   49.2936 C   0  0  0  0  0  0  0  0  0  0  0  0
   41.7434   26.4420   49.3762 N   0  0  0  0  0  0  0  0  0  0  0  0
   42.4315   26.5622   50.1476 H   0  0  0  0  0  0  0  0  0  0  0  0
  2  1  2  0
  3  2  1  0
  4  3  2  0
  4  5  1  0
  5  6  2  0
  6  1  1  0
  7  8  1  0
  7  3  1  0
  9  8  1  0
 10 11  1  0
 10  9  1  0
 11 12  1  6
 11  7  1  0
 12 14  1  0
 12 13  1  0
 15 12  1  0
 16 11  1  0
 16 17  1  0
 18 16  1  0
 19 18  1  0
 20 19  2  0
 21 19  1  0
  1 22  1  0
  2 23  1  0
  5 24  1  0
  8 25  1  0
  8 26  1  0
  9 27  1  0
  9 28  1  0
 10 29  1  0
 10 30  1  0
 16 31  1  6
 21 32  1  0
 21 33  1  0
 34 35  2  0
 35 36  1  0
 35 37  1  0
 37 38  1  0
 37 39  2  0
 39 40  1  0
 40 41  2  0
 41 42  1  0
 40 43  1  0
 43 44  1  0
 44 45  2  0
 45 46  1  0
 45 47  1  0
 47 48  1  0
 47 49  2  0
 49 50  1  0
 49 51  1  0
 51 52  1  0
 51 53  2  0
 53 54  1  0
 54 55  1  0
 41 34  1  0
 53 44  1  0
 54 39  1  0
 17 34  1  0
M  ISO  8  22  14  23  14  24  14  25  13  26  13  27  13  28  13  29  13
M  ISO  8  30  13  31   8  36  16  38  16  42  16  46  16  48  16  50  16
M  ISO  2  52  16  55   5
M  END
>  <DihAtoms>  (1) 
15,16,33,34

>  <DihDeg>  (1) 
-0.1914497776598031

$$$$
