
     RDKit          3D

 38 41  0  0  0  0  0  0  0  0999 V2000
   37.0444   29.4048   51.1669 C   0  0  0  0  0  0  0  0  0  0  0  0
   37.6847   30.0125   50.0901 C   0  0  0  0  0  0  0  0  0  0  0  0
   36.9118   30.4826   49.0584 C   0  0  0  0  0  0  0  0  0  0  0  0
   35.5536   30.3217   49.1578 N   0  0  0  0  0  0  0  0  0  0  0  0
   34.9701   29.7367   50.1999 C   0  0  0  0  0  0  0  0  0  0  0  0
   35.7258   29.2693   51.2232 N   0  0  0  0  0  0  0  0  0  0  0  0
   37.4392   31.1583   47.8347 C   0  0  0  0  0  0  0  0  0  0  0  0
   38.7565   31.8501   48.1627 C   0  0  0  0  0  0  0  0  0  0  0  0
   38.4670   33.3671   49.0833 S   0  0  0  0  0  0  0  0  0  0  0  0
   37.6981   29.0401   51.9747 H   0  0  0  0  0  0  0  0  0  0  0  0
   38.7575   30.1154   50.0562 H   0  0  0  0  0  0  0  0  0  0  0  0
   33.8796   29.6309   50.2346 H   0  0  0  0  0  0  0  0  0  0  0  0
   37.5023   30.5131   46.9579 H   0  0  0  0  0  0  0  0  0  0  0  0
   36.6983   31.9942   47.6587 H   0  0  0  0  0  0  0  0  0  0  0  0
   39.5267   31.1940   48.5604 H   0  0  0  0  0  0  0  0  0  0  0  0
   39.1614   32.1683   47.1466 H   0  0  0  0  0  0  0  0  0  0  0  0
   37.6965   34.5788   48.0319 C   0  0  0  0  0  0  0  0  0  0  0  0
   37.8639   34.7766   46.6808 C   0  0  0  0  0  0  0  0  0  0  0  0
   38.5687   34.1160   46.1981 H   0  0  0  0  0  0  0  0  0  0  0  0
   37.1844   35.7586   45.9982 C   0  0  0  0  0  0  0  0  0  0  0  0
   37.4091   35.8044   44.9382 H   0  0  0  0  0  0  0  0  0  0  0  0
   36.2921   36.6127   46.6121 C   0  0  0  0  0  0  0  0  0  0  0  0
   36.1022   36.4428   47.9613 C   0  0  0  0  0  0  0  0  0  0  0  0
   36.7861   35.4596   48.6270 C   0  0  0  0  0  0  0  0  0  0  0  0
   36.5775   35.3888   49.7061 H   0  0  0  0  0  0  0  0  0  0  0  0
   34.9646   37.5163   48.8009 S   0  0  0  0  0  0  0  0  0  0  0  0
   34.3115   38.6262   47.5859 C   0  0  0  0  0  0  0  0  0  0  0  0
   33.4134   39.5612   47.9552 C   0  0  0  0  0  0  0  0  0  0  0  0
   33.0737   39.6538   48.9989 H   0  0  0  0  0  0  0  0  0  0  0  0
   32.8501   40.4682   47.0780 C   0  0  0  0  0  0  0  0  0  0  0  0
   32.1404   41.2195   47.3270 H   0  0  0  0  0  0  0  0  0  0  0  0
   33.2601   40.3699   45.7717 C   0  0  0  0  0  0  0  0  0  0  0  0
   32.8598   41.0445   45.0464 H   0  0  0  0  0  0  0  0  0  0  0  0
   34.1791   39.4065   45.4164 C   0  0  0  0  0  0  0  0  0  0  0  0
   34.4534   39.3966   44.3501 H   0  0  0  0  0  0  0  0  0  0  0  0
   34.7510   38.4905   46.2908 C   0  0  0  0  0  0  0  0  0  0  0  0
   35.6696   37.5740   45.7796 N   0  0  0  0  0  0  0  0  0  0  0  0
   35.8968   37.6040   44.7637 H   0  0  0  0  0  0  0  0  0  0  0  0
  1  6  2  0
  2  1  1  0
  3  4  1  0
  3  2  2  0
  4  5  2  0
  5  6  1  0
  7  8  1  0
  7  3  1  0
  8  9  1  0
  1 10  1  0
  2 11  1  0
  5 12  1  0
  7 13  1  0
  7 14  1  0
  8 15  1  0
  8 16  1  0
 17 18  2  0
 18 19  1  0
 18 20  1  0
 20 21  1  0
 20 22  2  0
 22 23  1  0
 23 24  2  0
 24 25  1  0
 23 26  1  0
 26 27  1  0
 27 28  2  0
 28 29  1  0
 28 30  1  0
 30 31  1  0
 30 32  2  0
 32 33  1  0
 32 34  1  0
 34 35  1  0
 34 36  2  0
 36 37  1  0
 37 38  1  0
 24 17  1  0
 36 27  1  0
 37 22  1  0
  9 17  1  0
M  ISO  8  10  14  11  14  12  14  13   8  14   8  15   8  16   8  19  16
M  ISO  7  21  16  25  16  29  16  31  16  33  16  35  16  38   5
M  END
>  <DihAtoms>  (1) 
7,8,16,17

>  <DihDeg>  (1) 
-3.0279643733903185

$$$$
