
     RDKit          3D

 36 39  0  0  0  0  0  0  0  0999 V2000
   36.7848   29.6775   51.1306 C   0  0  0  0  0  0  0  0  0  0  0  0
   37.2990   30.0650   49.8921 C   0  0  0  0  0  0  0  0  0  0  0  0
   36.5519   29.8620   48.7456 C   0  0  0  0  0  0  0  0  0  0  0  0
   35.3215   29.2781   48.9003 N   0  0  0  0  0  0  0  0  0  0  0  0
   34.8366   28.9093   50.0967 C   0  0  0  0  0  0  0  0  0  0  0  0
   35.5577   29.1057   51.1985 N   0  0  0  0  0  0  0  0  0  0  0  0
   38.6342   32.0671   49.5077 C   0  0  0  0  0  0  0  0  0  0  0  0
   37.8044   33.0367   49.4432 O   0  0  0  0  0  0  0  0  0  0  0  0
   38.5420   30.6620   49.6772 N   0  0  0  0  0  0  0  0  0  0  0  0
   37.6619   29.9555   52.1522 O   0  0  0  0  0  0  0  0  0  0  0  0
   36.8667   30.1277   47.7540 H   0  0  0  0  0  0  0  0  0  0  0  0
   33.8653   28.4521   50.1879 H   0  0  0  0  0  0  0  0  0  0  0  0
   39.4223   32.8015   49.3758 H   0  0  0  0  0  0  0  0  0  0  0  0
   39.5229   30.2764   49.6042 H   0  0  0  0  0  0  0  0  0  0  0  0
   37.2950   29.6282   53.4512 C   0  0  0  0  0  0  0  0  0  0  0  0
   37.2125   30.6436   54.3930 C   0  0  0  0  0  0  0  0  0  0  0  0
   37.4362   31.6587   54.0876 H   0  0  0  0  0  0  0  0  0  0  0  0
   36.8490   30.3320   55.6877 C   0  0  0  0  0  0  0  0  0  0  0  0
   36.8096   31.1907   56.3602 H   0  0  0  0  0  0  0  0  0  0  0  0
   36.5563   29.0546   56.1175 C   0  0  0  0  0  0  0  0  0  0  0  0
   36.6403   28.0545   55.1792 C   0  0  0  0  0  0  0  0  0  0  0  0
   36.9965   28.3552   53.9074 C   0  0  0  0  0  0  0  0  0  0  0  0
   37.0594   27.5496   53.1708 H   0  0  0  0  0  0  0  0  0  0  0  0
   36.2737   26.4017   55.6862 S   0  0  0  0  0  0  0  0  0  0  0  0
   35.8613   26.4846   57.4162 C   0  0  0  0  0  0  0  0  0  0  0  0
   35.5452   25.2800   57.9858 C   0  0  0  0  0  0  0  0  0  0  0  0
   35.5341   24.3447   57.4725 H   0  0  0  0  0  0  0  0  0  0  0  0
   35.2097   25.2650   59.3431 C   0  0  0  0  0  0  0  0  0  0  0  0
   34.9464   24.3769   59.8867 H   0  0  0  0  0  0  0  0  0  0  0  0
   35.2105   26.4511   60.0476 C   0  0  0  0  0  0  0  0  0  0  0  0
   34.9537   26.4572   61.0977 H   0  0  0  0  0  0  0  0  0  0  0  0
   35.5442   27.6108   59.3796 C   0  0  0  0  0  0  0  0  0  0  0  0
   35.5235   28.5171   60.0049 H   0  0  0  0  0  0  0  0  0  0  0  0
   35.8843   27.6975   58.0457 C   0  0  0  0  0  0  0  0  0  0  0  0
   36.2030   28.9326   57.4841 N   0  0  0  0  0  0  0  0  0  0  0  0
   36.1712   29.7649   58.1102 H   0  0  0  0  0  0  0  0  0  0  0  0
  1  6  1  0
  1 10  1  0
  2  1  2  0
  3  4  2  0
  3  2  1  0
  4  5  1  0
  5  6  2  0
  7  9  1  0
  8  7  2  0
  9  2  1  0
  3 11  1  0
  5 12  1  0
  7 13  1  0
  9 14  1  0
 15 16  2  0
 16 17  1  0
 16 18  1  0
 18 19  1  0
 18 20  2  0
 20 21  1  0
 21 22  2  0
 22 23  1  0
 21 24  1  0
 24 25  1  0
 25 26  2  0
 26 27  1  0
 26 28  1  0
 28 29  1  0
 28 30  2  0
 30 31  1  0
 30 32  1  0
 32 33  1  0
 32 34  2  0
 34 35  1  0
 35 36  1  0
 22 15  1  0
 34 25  1  0
 35 20  1  0
 10 15  1  0
M  ISO  8  11  14  12  14  13   6  17  16  19  16  23  16  27  16  29  16
M  ISO  3  31  16  33  16  36   5
M  END
>  <DihAtoms>  (1) 
0,9,14,15

>  <DihDeg>  (1) 
90.00010047932486

$$$$
