
     RDKit          3D

 36 39  0  0  0  0  0  0  0  0999 V2000
   36.7848   29.6775   51.1306 C   0  0  0  0  0  0  0  0  0  0  0  0
   37.2990   30.0650   49.8921 C   0  0  0  0  0  0  0  0  0  0  0  0
   36.5519   29.8620   48.7456 C   0  0  0  0  0  0  0  0  0  0  0  0
   35.3215   29.2781   48.9003 N   0  0  0  0  0  0  0  0  0  0  0  0
   34.8366   28.9093   50.0967 C   0  0  0  0  0  0  0  0  0  0  0  0
   35.5577   29.1057   51.1985 N   0  0  0  0  0  0  0  0  0  0  0  0
   38.6342   32.0671   49.5077 C   0  0  0  0  0  0  0  0  0  0  0  0
   37.8044   33.0367   49.4432 O   0  0  0  0  0  0  0  0  0  0  0  0
   38.5420   30.6620   49.6772 N   0  0  0  0  0  0  0  0  0  0  0  0
   37.6619   29.9555   52.1522 O   0  0  0  0  0  0  0  0  0  0  0  0
   36.8667   30.1277   47.7540 H   0  0  0  0  0  0  0  0  0  0  0  0
   33.8653   28.4521   50.1879 H   0  0  0  0  0  0  0  0  0  0  0  0
   39.4223   32.8015   49.3758 H   0  0  0  0  0  0  0  0  0  0  0  0
   39.5229   30.2764   49.6042 H   0  0  0  0  0  0  0  0  0  0  0  0
   37.2950   29.6282   53.4512 C   0  0  0  0  0  0  0  0  0  0  0  0
   36.9061   30.6481   54.3076 C   0  0  0  0  0  0  0  0  0  0  0  0
   36.9004   31.6665   53.9382 H   0  0  0  0  0  0  0  0  0  0  0  0
   36.5390   30.3365   55.6013 C   0  0  0  0  0  0  0  0  0  0  0  0
   36.2482   31.1989   56.2037 H   0  0  0  0  0  0  0  0  0  0  0  0
   36.5323   29.0549   56.1108 C   0  0  0  0  0  0  0  0  0  0  0  0
   36.9187   28.0504   55.2568 C   0  0  0  0  0  0  0  0  0  0  0  0
   37.2798   28.3511   53.9863 C   0  0  0  0  0  0  0  0  0  0  0  0
   37.5851   27.5419   53.3174 H   0  0  0  0  0  0  0  0  0  0  0  0
   36.9251   26.3922   55.8678 S   0  0  0  0  0  0  0  0  0  0  0  0
   36.3858   26.4770   57.5624 C   0  0  0  0  0  0  0  0  0  0  0  0
   36.3292   25.2686   58.2044 C   0  0  0  0  0  0  0  0  0  0  0  0
   36.5785   24.3295   57.7637 H   0  0  0  0  0  0  0  0  0  0  0  0
   35.9138   25.2549   59.5394 C   0  0  0  0  0  0  0  0  0  0  0  0
   35.8341   24.3640   60.1342 H   0  0  0  0  0  0  0  0  0  0  0  0
   35.5810   26.4458   60.1509 C   0  0  0  0  0  0  0  0  0  0  0  0
   35.2580   26.4529   61.1826 H   0  0  0  0  0  0  0  0  0  0  0  0
   35.6723   27.6090   59.4154 C   0  0  0  0  0  0  0  0  0  0  0  0
   35.3914   28.5191   59.9681 H   0  0  0  0  0  0  0  0  0  0  0  0
   36.0734   27.6948   58.0984 C   0  0  0  0  0  0  0  0  0  0  0  0
   36.1246   28.9338   57.4622 N   0  0  0  0  0  0  0  0  0  0  0  0
   35.8506   29.7697   58.0209 H   0  0  0  0  0  0  0  0  0  0  0  0
  1  6  1  0
  1 10  1  0
  2  1  2  0
  3  4  2  0
  3  2  1  0
  4  5  1  0
  5  6  2  0
  7  9  1  0
  8  7  2  0
  9  2  1  0
  3 11  1  0
  5 12  1  0
  7 13  1  0
  9 14  1  0
 15 16  2  0
 16 17  1  0
 16 18  1  0
 18 19  1  0
 18 20  2  0
 20 21  1  0
 21 22  2  0
 22 23  1  0
 21 24  1  0
 24 25  1  0
 25 26  2  0
 26 27  1  0
 26 28  1  0
 28 29  1  0
 28 30  2  0
 30 31  1  0
 30 32  1  0
 32 33  1  0
 32 34  2  0
 34 35  1  0
 35 36  1  0
 22 15  1  0
 34 25  1  0
 35 20  1  0
 10 15  1  0
M  ISO  8  11  14  12  14  13   6  17  16  19  16  23  16  27  16  29  16
M  ISO  3  31  16  33  16  36   5
M  END
>  <DihAtoms>  (1) 
0,9,14,15

>  <DihDeg>  (1) 
90.00010047932486

$$$$
