
     RDKit          3D

 42 46  0  0  0  0  0  0  0  0999 V2000
   37.7693   31.0561   47.4201 C   0  0  0  0  0  0  0  0  0  0  0  0
   37.0207   30.7313   46.3230 C   0  0  0  0  0  0  0  0  0  0  0  0
   37.3061   31.2157   45.0557 C   0  0  0  0  0  0  0  0  0  0  0  0
   38.3580   32.0380   44.8865 N   0  0  0  0  0  0  0  0  0  0  0  0
   39.0781   32.3457   45.9634 C   0  0  0  0  0  0  0  0  0  0  0  0
   38.8122   31.8852   47.1871 N   0  0  0  0  0  0  0  0  0  0  0  0
   37.6947   30.3864   51.1250 C   0  0  0  0  0  0  0  0  0  0  0  0
   38.0901   30.9692   49.9155 C   0  0  0  0  0  0  0  0  0  0  0  0
   37.4676   30.5451   48.7545 C   0  0  0  0  0  0  0  0  0  0  0  0
   36.5104   29.5890   48.8571 N   0  0  0  0  0  0  0  0  0  0  0  0
   36.1524   29.0476   50.0380 C   0  0  0  0  0  0  0  0  0  0  0  0
   36.7447   29.4452   51.1792 N   0  0  0  0  0  0  0  0  0  0  0  0
   40.2532   33.2574   45.8068 C   0  0  0  0  0  0  0  0  0  0  0  0
   40.3949   33.9873   46.9866 F   0  0  0  0  0  0  0  0  0  0  0  0
   41.4135   32.5363   45.5419 F   0  0  0  0  0  0  0  0  0  0  0  0
   40.0811   34.1523   44.8037 F   0  0  0  0  0  0  0  0  0  0  0  0
   36.1726   30.0750   46.4285 H   0  0  0  0  0  0  0  0  0  0  0  0
   36.6875   30.9382   44.1919 H   0  0  0  0  0  0  0  0  0  0  0  0
   38.1809   30.7188   52.0247 H   0  0  0  0  0  0  0  0  0  0  0  0
   38.8422   31.7227   49.8199 H   0  0  0  0  0  0  0  0  0  0  0  0
   35.1176   28.0228   50.0952 C   0  0  0  0  0  0  0  0  0  0  0  0
   33.7891   28.3538   50.2576 C   0  0  0  0  0  0  0  0  0  0  0  0
   33.4996   29.3837   50.3449 H   0  0  0  0  0  0  0  0  0  0  0  0
   32.8767   27.3203   50.3010 C   0  0  0  0  0  0  0  0  0  0  0  0
   31.8360   27.6561   50.4325 H   0  0  0  0  0  0  0  0  0  0  0  0
   33.1926   25.9833   50.1943 C   0  0  0  0  0  0  0  0  0  0  0  0
   34.5238   25.6982   50.0339 C   0  0  0  0  0  0  0  0  0  0  0  0
   35.4381   26.6878   49.9880 C   0  0  0  0  0  0  0  0  0  0  0  0
   36.4977   26.4167   49.8580 H   0  0  0  0  0  0  0  0  0  0  0  0
   34.9989   23.9877   49.8897 S   0  0  0  0  0  0  0  0  0  0  0  0
   33.4991   23.0343   50.0014 C   0  0  0  0  0  0  0  0  0  0  0  0
   33.6239   21.6828   49.9147 C   0  0  0  0  0  0  0  0  0  0  0  0
   34.5801   21.1989   49.7844 H   0  0  0  0  0  0  0  0  0  0  0  0
   32.5111   20.8778   49.9923 C   0  0  0  0  0  0  0  0  0  0  0  0
   32.5203   19.7980   49.9328 H   0  0  0  0  0  0  0  0  0  0  0  0
   31.2761   21.4691   50.1587 C   0  0  0  0  0  0  0  0  0  0  0  0
   30.3781   20.8711   50.2241 H   0  0  0  0  0  0  0  0  0  0  0  0
   31.2252   22.8451   50.2386 C   0  0  0  0  0  0  0  0  0  0  0  0
   30.2146   23.2612   50.3711 H   0  0  0  0  0  0  0  0  0  0  0  0
   32.3076   23.6961   50.1669 C   0  0  0  0  0  0  0  0  0  0  0  0
   32.1122   25.0778   50.2629 N   0  0  0  0  0  0  0  0  0  0  0  0
   31.1375   25.4176   50.3874 H   0  0  0  0  0  0  0  0  0  0  0  0
  1  9  1  0
  2  1  2  0
  3  2  1  0
  4  3  2  0
  4  5  1  0
  5  6  2  0
  6  1  1  0
  7 12  2  0
  8  7  1  0
  9 10  1  0
  9  8  2  0
 10 11  2  0
 11 12  1  0
 13  5  1  0
 13 14  1  0
 15 13  1  0
 16 13  1  0
  2 17  1  0
  3 18  1  0
  7 19  1  0
  8 20  1  0
 21 22  2  0
 22 23  1  0
 22 24  1  0
 24 25  1  0
 24 26  2  0
 26 27  1  0
 27 28  2  0
 28 29  1  0
 27 30  1  0
 30 31  1  0
 31 32  2  0
 32 33  1  0
 32 34  1  0
 34 35  1  0
 34 36  2  0
 36 37  1  0
 36 38  1  0
 38 39  1  0
 38 40  2  0
 40 41  1  0
 41 42  1  0
 28 21  1  0
 40 31  1  0
 41 26  1  0
 11 21  1  0
M  ISO  8  17  14  18  14  19  14  20  14  23  16  25  16  29  16  33  16
M  ISO  4  35  16  37  16  39  16  42   5
M  END
>  <DihAtoms>  (1) 
9,10,20,21

>  <DihDeg>  (1) 
0.0041686346653647755

$$$$
