
     RDKit          3D

 42 46  0  0  0  0  0  0  0  0999 V2000
   37.7693   31.0561   47.4201 C   0  0  0  0  0  0  0  0  0  0  0  0
   37.0207   30.7313   46.3230 C   0  0  0  0  0  0  0  0  0  0  0  0
   37.3061   31.2157   45.0557 C   0  0  0  0  0  0  0  0  0  0  0  0
   38.3580   32.0380   44.8865 N   0  0  0  0  0  0  0  0  0  0  0  0
   39.0781   32.3457   45.9634 C   0  0  0  0  0  0  0  0  0  0  0  0
   38.8122   31.8852   47.1871 N   0  0  0  0  0  0  0  0  0  0  0  0
   37.6947   30.3864   51.1250 C   0  0  0  0  0  0  0  0  0  0  0  0
   38.0901   30.9692   49.9155 C   0  0  0  0  0  0  0  0  0  0  0  0
   37.4676   30.5451   48.7545 C   0  0  0  0  0  0  0  0  0  0  0  0
   36.5104   29.5890   48.8571 N   0  0  0  0  0  0  0  0  0  0  0  0
   36.1524   29.0476   50.0380 C   0  0  0  0  0  0  0  0  0  0  0  0
   36.7447   29.4452   51.1792 N   0  0  0  0  0  0  0  0  0  0  0  0
   40.2532   33.2574   45.8068 C   0  0  0  0  0  0  0  0  0  0  0  0
   40.3949   33.9873   46.9866 F   0  0  0  0  0  0  0  0  0  0  0  0
   41.4135   32.5363   45.5419 F   0  0  0  0  0  0  0  0  0  0  0  0
   40.0811   34.1523   44.8037 F   0  0  0  0  0  0  0  0  0  0  0  0
   36.1726   30.0750   46.4285 H   0  0  0  0  0  0  0  0  0  0  0  0
   36.6875   30.9382   44.1919 H   0  0  0  0  0  0  0  0  0  0  0  0
   38.1809   30.7188   52.0247 H   0  0  0  0  0  0  0  0  0  0  0  0
   38.8422   31.7227   49.8199 H   0  0  0  0  0  0  0  0  0  0  0  0
   35.1176   28.0228   50.0952 C   0  0  0  0  0  0  0  0  0  0  0  0
   34.9083   27.1560   49.0437 C   0  0  0  0  0  0  0  0  0  0  0  0
   35.5135   27.2282   48.1602 H   0  0  0  0  0  0  0  0  0  0  0  0
   33.9076   26.2170   49.1829 C   0  0  0  0  0  0  0  0  0  0  0  0
   33.7955   25.5588   48.3069 H   0  0  0  0  0  0  0  0  0  0  0  0
   33.1022   26.0801   50.2926 C   0  0  0  0  0  0  0  0  0  0  0  0
   33.3437   26.9613   51.3144 C   0  0  0  0  0  0  0  0  0  0  0  0
   34.3152   27.8897   51.2064 C   0  0  0  0  0  0  0  0  0  0  0  0
   34.4773   28.5791   52.0500 H   0  0  0  0  0  0  0  0  0  0  0  0
   32.3366   26.8373   52.7783 S   0  0  0  0  0  0  0  0  0  0  0  0
   31.1982   25.4970   52.4977 C   0  0  0  0  0  0  0  0  0  0  0  0
   30.3205   25.2184   53.4986 C   0  0  0  0  0  0  0  0  0  0  0  0
   30.3043   25.7754   54.4233 H   0  0  0  0  0  0  0  0  0  0  0  0
   29.4096   24.1974   53.3572 C   0  0  0  0  0  0  0  0  0  0  0  0
   28.6788   23.9097   54.1006 H   0  0  0  0  0  0  0  0  0  0  0  0
   29.4076   23.4689   52.1859 C   0  0  0  0  0  0  0  0  0  0  0  0
   28.7077   22.6590   52.0364 H   0  0  0  0  0  0  0  0  0  0  0  0
   30.3262   23.8073   51.2142 C   0  0  0  0  0  0  0  0  0  0  0  0
   30.2786   23.1927   50.3021 H   0  0  0  0  0  0  0  0  0  0  0  0
   31.2585   24.8191   51.3053 C   0  0  0  0  0  0  0  0  0  0  0  0
   32.1336   25.0549   50.2400 N   0  0  0  0  0  0  0  0  0  0  0  0
   32.0459   24.4454   49.4023 H   0  0  0  0  0  0  0  0  0  0  0  0
  1  9  1  0
  2  1  2  0
  3  2  1  0
  4  3  2  0
  4  5  1  0
  5  6  2  0
  6  1  1  0
  7 12  2  0
  8  7  1  0
  9 10  1  0
  9  8  2  0
 10 11  2  0
 11 12  1  0
 13  5  1  0
 13 14  1  0
 15 13  1  0
 16 13  1  0
  2 17  1  0
  3 18  1  0
  7 19  1  0
  8 20  1  0
 21 22  2  0
 22 23  1  0
 22 24  1  0
 24 25  1  0
 24 26  2  0
 26 27  1  0
 27 28  2  0
 28 29  1  0
 27 30  1  0
 30 31  1  0
 31 32  2  0
 32 33  1  0
 32 34  1  0
 34 35  1  0
 34 36  2  0
 36 37  1  0
 36 38  1  0
 38 39  1  0
 38 40  2  0
 40 41  1  0
 41 42  1  0
 28 21  1  0
 40 31  1  0
 41 26  1  0
 11 21  1  0
M  ISO  8  17  14  18  14  19  14  20  14  23  16  25  16  29  16  33  16
M  ISO  4  35  16  37  16  39  16  42   5
M  END
>  <DihAtoms>  (1) 
9,10,20,21

>  <DihDeg>  (1) 
0.0041686346653647755

$$$$
