
     RDKit          3D

 59 65  0  0  0  0  0  0  0  0999 V2000
   32.7050   28.2120   47.4388 N   0  0  0  0  0  0  0  0  0  0  0  0
   33.3039   27.7572   48.6453 C   0  0  0  0  0  0  0  0  0  0  0  0
   34.4755   28.5172   49.1393 C   0  0  0  0  0  0  0  0  0  0  0  0
   35.4177   29.0029   48.1313 C   0  0  0  0  0  0  0  0  0  0  0  0
   34.7162   29.4085   46.8215 C   0  0  0  0  0  0  0  0  0  0  0  0
   33.7533   28.2717   46.4496 C   0  0  0  0  0  0  0  0  0  0  0  0
   35.9470   30.7318   49.7860 C   0  0  0  0  0  0  0  0  0  0  0  0
   36.1954   30.2029   48.5331 C   0  0  0  0  0  0  0  0  0  0  0  0
   37.0920   30.7338   47.6448 C   0  0  0  0  0  0  0  0  0  0  0  0
   37.7921   31.8721   48.0270 C   0  0  0  0  0  0  0  0  0  0  0  0
   37.5466   32.4015   49.2724 C   0  0  0  0  0  0  0  0  0  0  0  0
   36.6375   31.8658   50.1783 C   0  0  0  0  0  0  0  0  0  0  0  0
   38.3437   33.5453   49.4794 O   0  0  0  0  0  0  0  0  0  0  0  0
   39.3131   33.4969   48.4418 C   0  0  0  0  0  0  0  0  0  0  0  0
   38.7584   32.6895   47.4363 O   0  0  0  0  0  0  0  0  0  0  0  0
   31.3426   28.5528   47.2008 C   0  0  0  0  0  0  0  0  0  0  0  0
   30.8768   29.3506   46.1593 C   0  0  0  0  0  0  0  0  0  0  0  0
   29.5016   29.5617   46.0946 C   0  0  0  0  0  0  0  0  0  0  0  0
   28.6851   28.9871   47.0389 N   0  0  0  0  0  0  0  0  0  0  0  0
   29.1888   28.2328   48.0138 C   0  0  0  0  0  0  0  0  0  0  0  0
   30.4896   28.0139   48.1017 N   0  0  0  0  0  0  0  0  0  0  0  0
   33.6485   26.6973   48.4756 H   0  0  0  0  0  0  0  0  0  0  0  0
   32.5651   27.6691   49.4734 H   0  0  0  0  0  0  0  0  0  0  0  0
   33.9800   29.4437   49.5848 H   0  0  0  0  0  0  0  0  0  0  0  0
   34.9522   27.9957   49.9659 H   0  0  0  0  0  0  0  0  0  0  0  0
   36.1004   28.1775   47.7927 H   0  0  0  0  0  0  0  0  0  0  0  0
   34.1812   30.3607   46.9871 H   0  0  0  0  0  0  0  0  0  0  0  0
   35.4653   29.4950   46.0143 H   0  0  0  0  0  0  0  0  0  0  0  0
   34.3465   27.3601   46.3458 H   0  0  0  0  0  0  0  0  0  0  0  0
   33.3541   28.5460   45.4523 H   0  0  0  0  0  0  0  0  0  0  0  0
   35.2810   30.3994   50.5691 H   0  0  0  0  0  0  0  0  0  0  0  0
   37.2591   30.2998   46.6874 H   0  0  0  0  0  0  0  0  0  0  0  0
   36.4953   32.3478   51.1600 H   0  0  0  0  0  0  0  0  0  0  0  0
   39.3903   34.5344   48.0332 H   0  0  0  0  0  0  0  0  0  0  0  0
   40.3008   33.1644   48.7910 H   0  0  0  0  0  0  0  0  0  0  0  0
   31.6154   29.7412   45.4865 H   0  0  0  0  0  0  0  0  0  0  0  0
   29.1591   30.1788   45.2858 H   0  0  0  0  0  0  0  0  0  0  0  0
   28.2615   27.6516   48.9867 C   0  0  0  0  0  0  0  0  0  0  0  0
   28.3571   26.3351   49.3849 C   0  0  0  0  0  0  0  0  0  0  0  0
   29.1282   25.6937   48.9832 H   0  0  0  0  0  0  0  0  0  0  0  0
   27.4340   25.8836   50.3075 C   0  0  0  0  0  0  0  0  0  0  0  0
   27.5552   24.8436   50.5845 H   0  0  0  0  0  0  0  0  0  0  0  0
   26.4208   26.6308   50.8698 C   0  0  0  0  0  0  0  0  0  0  0  0
   26.3808   27.9317   50.4314 C   0  0  0  0  0  0  0  0  0  0  0  0
   27.2629   28.4375   49.5230 C   0  0  0  0  0  0  0  0  0  0  0  0
   27.1903   29.4732   49.2076 H   0  0  0  0  0  0  0  0  0  0  0  0
   25.1180   29.0103   51.0790 S   0  0  0  0  0  0  0  0  0  0  0  0
   24.1659   28.0231   52.2191 C   0  0  0  0  0  0  0  0  0  0  0  0
   23.1458   28.6722   52.8225 C   0  0  0  0  0  0  0  0  0  0  0  0
   22.8899   29.7128   52.6559 H   0  0  0  0  0  0  0  0  0  0  0  0
   22.3442   27.9787   53.7326 C   0  0  0  0  0  0  0  0  0  0  0  0
   21.5282   28.4631   54.2278 H   0  0  0  0  0  0  0  0  0  0  0  0
   22.6527   26.6525   53.9594 C   0  0  0  0  0  0  0  0  0  0  0  0
   22.0407   26.0790   54.6701 H   0  0  0  0  0  0  0  0  0  0  0  0
   23.7211   26.0502   53.2993 C   0  0  0  0  0  0  0  0  0  0  0  0
   23.8746   25.0059   53.5514 H   0  0  0  0  0  0  0  0  0  0  0  0
   24.5175   26.7273   52.3995 C   0  0  0  0  0  0  0  0  0  0  0  0
   25.5653   26.0279   51.7914 N   0  0  0  0  0  0  0  0  0  0  0  0
   25.7171   25.0252   52.0298 H   0  0  0  0  0  0  0  0  0  0  0  0
  1  2  1  0
  2  3  1  0
  4  8  1  0
  4  3  1  0
  5  4  1  0
  6  5  1  0
  6  1  1  0
  7 12  2  0
  8  7  1  0
  9 10  1  0
  9  8  2  0
 10 11  2  0
 11 13  1  0
 11 12  1  0
 14 13  1  0
 15 10  1  0
 15 14  1  0
 16  1  1  0
 16 21  1  0
 17 16  2  0
 18 17  1  0
 18 19  2  0
 19 20  1  0
 20 21  2  0
  2 22  1  0
  2 23  1  0
  3 24  1  0
  3 25  1  0
  4 26  1  0
  5 27  1  0
  5 28  1  0
  6 29  1  0
  6 30  1  0
  7 31  1  0
  9 32  1  0
 12 33  1  0
 14 34  1  0
 14 35  1  0
 17 36  1  0
 18 37  1  0
 38 39  2  0
 39 40  1  0
 39 41  1  0
 41 42  1  0
 41 43  2  0
 43 44  1  0
 44 45  2  0
 45 46  1  0
 44 47  1  0
 47 48  1  0
 48 49  2  0
 49 50  1  0
 49 51  1  0
 51 52  1  0
 51 53  2  0
 53 54  1  0
 53 55  1  0
 55 56  1  0
 55 57  2  0
 57 58  1  0
 58 59  1  0
 45 38  1  0
 57 48  1  0
 58 43  1  0
 20 38  1  0
M  ISO  8  22  13  23  13  24  13  25  13  26  13  27  13  28  13  29  13
M  ISO  8  30  13  31  14  32  14  33  14  34  13  35  13  36  14  37  14
M  ISO  8  40  16  42  16  46  16  50  16  52  16  54  16  56  16  59   5
M  END
>  <DihAtoms>  (1) 
18,19,37,38

>  <DihDeg>  (1) 
0.013126768708232006

$$$$
