
     RDKit          3D

 60 66  0  0  0  0  0  0  0  0999 V2000
   34.3349   29.7651   46.0797 N   0  0  0  0  0  0  0  0  0  0  0  0
   33.0160   29.9785   45.5255 C   0  0  0  0  0  0  0  0  0  0  0  0
   32.9904   29.8502   44.0410 C   0  0  0  0  0  0  0  0  0  0  0  0
   34.0574   28.9924   43.5989 N   0  0  0  0  0  0  0  0  0  0  0  0
   35.3136   29.7157   43.8233 C   0  0  0  0  0  0  0  0  0  0  0  0
   35.6038   29.6125   45.2837 C   0  0  1  0  0  0  0  0  0  0  0  0
   37.2440   31.5169   44.8948 C   0  0  0  0  0  0  0  0  0  0  0  0
   36.6420   30.5451   45.7307 C   0  0  0  0  0  0  0  0  0  0  0  0
   36.9648   30.4850   47.0635 C   0  0  0  0  0  0  0  0  0  0  0  0
   37.8732   31.3956   47.5470 C   0  0  0  0  0  0  0  0  0  0  0  0
   38.4748   32.3713   46.6952 C   0  0  0  0  0  0  0  0  0  0  0  0
   38.1655   32.4527   45.3190 C   0  0  0  0  0  0  0  0  0  0  0  0
   39.3767   33.1871   47.4169 O   0  0  0  0  0  0  0  0  0  0  0  0
   39.0757   32.9693   48.7604 C   0  0  0  0  0  0  0  0  0  0  0  0
   38.4436   31.6776   48.7856 O   0  0  0  0  0  0  0  0  0  0  0  0
   34.7016   28.3773   48.0738 C   0  0  0  0  0  0  0  0  0  0  0  0
   34.4552   29.6641   47.4962 C   0  0  0  0  0  0  0  0  0  0  0  0
   34.3782   30.7382   48.3363 C   0  0  0  0  0  0  0  0  0  0  0  0
   34.5517   30.4997   49.6870 N   0  0  0  0  0  0  0  0  0  0  0  0
   34.7806   29.3020   50.1915 C   0  0  0  0  0  0  0  0  0  0  0  0
   34.8570   28.2407   49.4109 N   0  0  0  0  0  0  0  0  0  0  0  0
   34.9412   29.1720   51.5981 N   0  0  0  0  0  0  0  0  0  0  0  0
   32.3981   29.1230   45.9210 H   0  0  0  0  0  0  0  0  0  0  0  0
   32.5204   30.8961   45.8326 H   0  0  0  0  0  0  0  0  0  0  0  0
   32.0156   29.5388   43.6362 H   0  0  0  0  0  0  0  0  0  0  0  0
   33.2117   30.8709   43.6293 H   0  0  0  0  0  0  0  0  0  0  0  0
   34.0334   28.0929   44.1212 H   0  0  0  0  0  0  0  0  0  0  0  0
   35.0970   30.7549   43.5000 H   0  0  0  0  0  0  0  0  0  0  0  0
   36.0898   29.2009   43.2529 H   0  0  0  0  0  0  0  0  0  0  0  0
   35.9069   28.5774   45.5320 H   0  0  0  0  0  0  0  0  0  0  0  0
   36.9486   31.5077   43.8562 H   0  0  0  0  0  0  0  0  0  0  0  0
   36.7586   29.8456   47.8807 H   0  0  0  0  0  0  0  0  0  0  0  0
   38.6102   33.1749   44.6801 H   0  0  0  0  0  0  0  0  0  0  0  0
   40.0099   32.8355   49.3728 H   0  0  0  0  0  0  0  0  0  0  0  0
   38.4070   33.7526   49.1801 H   0  0  0  0  0  0  0  0  0  0  0  0
   34.7561   27.5408   47.4054 H   0  0  0  0  0  0  0  0  0  0  0  0
   35.8154   29.5233   52.0467 H   0  0  0  0  0  0  0  0  0  0  0  0
   34.2504   28.7463   52.2516 H   0  0  0  0  0  0  0  0  0  0  0  0
   34.0439   32.1119   48.0281 C   0  0  0  0  0  0  0  0  0  0  0  0
   33.1582   33.0416   48.4825 C   0  0  0  0  0  0  0  0  0  0  0  0
   32.5170   32.7028   49.2430 H   0  0  0  0  0  0  0  0  0  0  0  0
   33.0664   34.3265   48.0143 C   0  0  0  0  0  0  0  0  0  0  0  0
   32.2937   34.9510   48.4920 H   0  0  0  0  0  0  0  0  0  0  0  0
   33.8854   34.8027   47.0147 C   0  0  0  0  0  0  0  0  0  0  0  0
   34.8035   33.9315   46.5030 C   0  0  0  0  0  0  0  0  0  0  0  0
   34.8498   32.6716   47.0046 C   0  0  0  0  0  0  0  0  0  0  0  0
   35.6292   32.0539   46.5171 H   0  0  0  0  0  0  0  0  0  0  0  0
   35.8850   34.5034   45.2074 S   0  0  0  0  0  0  0  0  0  0  0  0
   35.4329   36.1946   44.9125 C   0  0  0  0  0  0  0  0  0  0  0  0
   36.1553   36.8332   43.9361 C   0  0  0  0  0  0  0  0  0  0  0  0
   36.9571   36.3595   43.3648 H   0  0  0  0  0  0  0  0  0  0  0  0
   35.8741   38.1502   43.6377 C   0  0  0  0  0  0  0  0  0  0  0  0
   36.3916   38.7287   42.8858 H   0  0  0  0  0  0  0  0  0  0  0  0
   34.8702   38.7935   44.3312 C   0  0  0  0  0  0  0  0  0  0  0  0
   34.6272   39.8255   44.1193 H   0  0  0  0  0  0  0  0  0  0  0  0
   34.1934   38.0780   45.2968 C   0  0  0  0  0  0  0  0  0  0  0  0
   33.4071   38.6434   45.8133 H   0  0  0  0  0  0  0  0  0  0  0  0
   34.4258   36.7599   45.6429 C   0  0  0  0  0  0  0  0  0  0  0  0
   33.6811   36.1316   46.6365 N   0  0  0  0  0  0  0  0  0  0  0  0
   32.9495   36.7224   47.0891 H   0  0  0  0  0  0  0  0  0  0  0  0
  1 17  1  0
  2  1  1  0
  3  2  1  0
  4  5  1  0
  4  3  1  0
  5  6  1  0
  6  8  1  0
  6  1  1  0
  7 12  2  0
  7  8  1  0
  8  9  2  0
  9 10  1  0
 10 15  1  0
 11 13  1  0
 11 10  2  0
 12 11  1  0
 13 14  1  0
 14 15  1  0
 16 21  2  0
 17 16  1  0
 17 18  2  0
 18 19  1  0
 19 20  2  0
 20 22  1  0
 21 20  1  0
  2 23  1  0
  2 24  1  0
  3 25  1  0
  3 26  1  0
  4 27  1  0
  5 28  1  0
  5 29  1  0
  6 30  1  6
  7 31  1  0
  9 32  1  0
 12 33  1  0
 14 34  1  0
 14 35  1  0
 16 36  1  0
 22 37  1  0
 22 38  1  0
 39 40  2  0
 40 41  1  0
 40 42  1  0
 42 43  1  0
 42 44  2  0
 44 45  1  0
 45 46  2  0
 46 47  1  0
 45 48  1  0
 48 49  1  0
 49 50  2  0
 50 51  1  0
 50 52  1  0
 52 53  1  0
 52 54  2  0
 54 55  1  0
 54 56  1  0
 56 57  1  0
 56 58  2  0
 58 59  1  0
 59 60  1  0
 46 39  1  0
 58 49  1  0
 59 44  1  0
 18 39  1  0
M  ISO  8  23  13  24  13  25  13  26  13  27   5  28  13  29  13  30  13
M  ISO  8  31  14  32  14  33  14  34  13  35  13  36  14  41  16  43  16
M  ISO  6  47  16  51  16  53  16  55  16  57  16  60   5
M  END
>  <DihAtoms>  (1) 
16,17,38,39

>  <DihDeg>  (1) 
-52.96723757371216

$$$$
