
     RDKit          3D

 34 37  0  0  0  0  0  0  0  0999 V2000
   35.0230   29.6040   48.0400 C   0  0  0  0  0  0  0  0  0  0  0  0
   35.0170   29.9110   46.6820 C   0  0  0  0  0  0  0  0  0  0  0  0
   33.9100   29.4840   45.9490 C   0  0  0  0  0  0  0  0  0  0  0  0
   32.8360   28.7900   46.4640 C   0  0  0  0  0  0  0  0  0  0  0  0
   32.9140   28.5260   47.8000 C   0  0  0  0  0  0  0  0  0  0  0  0
   33.9680   28.9180   48.5600 C   0  0  0  0  0  0  0  0  0  0  0  0
   31.5900   27.6340   48.5890 S   0  0  0  0  0  0  0  0  0  0  0  0
   30.4000   27.2880   47.3070 C   0  0  0  0  0  0  0  0  0  0  0  0
   29.2760   26.6140   47.6190 C   0  0  0  0  0  0  0  0  0  0  0  0
   28.3050   26.3040   46.6920 C   0  0  0  0  0  0  0  0  0  0  0  0
   28.5340   26.7220   45.4000 C   0  0  0  0  0  0  0  0  0  0  0  0
   29.6880   27.4090   45.1090 C   0  0  0  0  0  0  0  0  0  0  0  0
   30.6640   27.7220   46.0310 C   0  0  0  0  0  0  0  0  0  0  0  0
   31.8050   28.4350   45.5940 N   0  0  0  0  0  0  0  0  0  0  0  0
   37.5890   29.5750   50.6380 C   0  0  0  0  0  0  0  0  0  0  0  0
   38.2840   30.7930   50.4340 C   0  0  0  0  0  0  0  0  0  0  0  0
   37.8390   31.6180   49.3780 C   0  0  0  0  0  0  0  0  0  0  0  0
   36.7760   31.1910   48.6260 N   0  0  0  0  0  0  0  0  0  0  0  0
   36.1480   30.0200   48.8610 C   0  0  0  0  0  0  0  0  0  0  0  0
   36.5620   29.2260   49.8650 N   0  0  0  0  0  0  0  0  0  0  0  0
   38.5350   32.8990   49.1280 C   0  0  0  0  0  0  0  0  0  0  0  0
   39.3890   33.0820   50.1860 F   0  0  0  0  0  0  0  0  0  0  0  0
   39.2640   32.8910   47.9600 F   0  0  0  0  0  0  0  0  0  0  0  0
   37.6460   33.9750   49.1020 F   0  0  0  0  0  0  0  0  0  0  0  0
   35.8439   30.4626   46.2109 H   0  0  0  0  0  0  0  0  0  0  0  0
   33.8925   29.7197   44.8747 H   0  0  0  0  0  0  0  0  0  0  0  0
   33.9700   28.6732   49.6324 H   0  0  0  0  0  0  0  0  0  0  0  0
   29.1267   26.2967   48.6616 H   0  0  0  0  0  0  0  0  0  0  0  0
   27.3949   25.7518   46.9693 H   0  0  0  0  0  0  0  0  0  0  0  0
   27.8004   26.5081   44.6087 H   0  0  0  0  0  0  0  0  0  0  0  0
   29.8437   27.7314   44.0689 H   0  0  0  0  0  0  0  0  0  0  0  0
   31.8768   28.7006   44.6014 H   0  0  0  0  0  0  0  0  0  0  0  0
   37.9040   28.9043   51.4510 H   0  0  0  0  0  0  0  0  0  0  0  0
   39.1330   31.0831   51.0705 H   0  0  0  0  0  0  0  0  0  0  0  0
  1  6  1  0
  1 19  1  0
  2  1  2  0
  3  4  2  0
  3  2  1  0
  4  5  1  0
  5  6  2  0
  5  7  1  0
  8  9  2  0
  8  7  1  0
 10  9  1  0
 11 10  2  0
 12 11  1  0
 12 13  2  0
 13  8  1  0
 14 13  1  0
 14  4  1  0
 16 15  2  0
 17 16  1  0
 18 19  1  0
 18 17  2  0
 19 20  2  0
 20 15  1  0
 21 17  1  0
 21 22  1  0
 23 21  1  0
 24 21  1  0
  2 25  1  0
  3 26  1  0
  6 27  1  0
  9 28  1  0
 10 29  1  0
 11 30  1  0
 12 31  1  0
 14 32  1  0
 15 33  1  0
 16 34  1  0
M  ISO  8  25  14  26  14  27  14  28  14  29  14  30  14  31  14  33  14
M  ISO  1  34  14
M  END
>  <minimizedAffinity>  (1) 
-6.69515514

>  <minimizedRMSD>  (1) 
2.05070567

$$$$
