
     RDKit          3D

 55 60  0  0  0  0  0  0  0  0999 V2000
   34.6266   30.0509   45.6610 N   0  0  0  0  0  0  0  0  0  0  0  0
   35.0315   30.0749   47.0639 C   0  0  0  0  0  0  0  0  0  0  0  0
   36.2711   30.8055   47.3281 C   0  0  2  0  0  0  0  0  0  0  0  0
   37.3292   30.4982   46.3257 N   0  0  0  0  0  0  0  0  0  0  0  0
   36.7526   30.7747   44.9965 C   0  0  0  0  0  0  0  0  0  0  0  0
   35.7252   29.6707   44.8403 C   0  0  0  0  0  0  0  0  0  0  0  0
   33.3105   30.3556   45.2409 C   0  0  0  0  0  0  0  0  0  0  0  0
   33.0471   31.0577   44.0670 C   0  0  0  0  0  0  0  0  0  0  0  0
   31.7264   31.3095   43.7196 C   0  0  0  0  0  0  0  0  0  0  0  0
   30.7265   30.8495   44.5596 N   0  0  0  0  0  0  0  0  0  0  0  0
   31.0391   30.1682   45.6958 C   0  0  0  0  0  0  0  0  0  0  0  0
   32.2922   29.9239   46.0343 N   0  0  0  0  0  0  0  0  0  0  0  0
   38.2456   32.7238   48.4439 Cl  0  0  0  0  0  0  0  0  0  0  0  0
   37.6632   31.2974   49.3067 C   0  0  0  0  0  0  0  0  0  0  0  0
   36.7720   30.4875   48.6548 C   0  0  0  0  0  0  0  0  0  0  0  0
   36.2167   29.3201   49.2073 C   0  0  0  0  0  0  0  0  0  0  0  0
   36.6422   29.0130   50.5072 C   0  0  0  0  0  0  0  0  0  0  0  0
   37.5552   29.8346   51.1786 C   0  0  0  0  0  0  0  0  0  0  0  0
   38.0450   30.9542   50.5718 C   0  0  0  0  0  0  0  0  0  0  0  0
   35.2757   28.9662   47.2039 H   0  0  0  0  0  0  0  0  0  0  0  0
   34.1965   30.4088   47.6757 H   0  0  0  0  0  0  0  0  0  0  0  0
   36.2234   31.9014   47.1944 H   0  0  0  0  0  0  0  0  0  0  0  0
   38.0955   31.1563   46.4504 H   0  0  0  0  0  0  0  0  0  0  0  0
   37.5233   30.7772   44.2231 H   0  0  0  0  0  0  0  0  0  0  0  0
   36.1986   31.7412   45.0479 H   0  0  0  0  0  0  0  0  0  0  0  0
   36.2204   28.7289   45.1570 H   0  0  0  0  0  0  0  0  0  0  0  0
   35.4626   29.5338   43.7639 H   0  0  0  0  0  0  0  0  0  0  0  0
   33.8818   31.3850   43.4623 H   0  0  0  0  0  0  0  0  0  0  0  0
   31.4945   31.8523   42.8134 H   0  0  0  0  0  0  0  0  0  0  0  0
   30.1945   29.8473   46.2912 H   0  0  0  0  0  0  0  0  0  0  0  0
   35.5341   28.5508   48.9454 H   0  0  0  0  0  0  0  0  0  0  0  0
   36.3549   28.1732   51.1278 H   0  0  0  0  0  0  0  0  0  0  0  0
   37.9201   29.6448   52.1852 H   0  0  0  0  0  0  0  0  0  0  0  0
   38.9912   31.8226   51.2457 C   0  0  0  0  0  0  0  0  0  0  0  0
   39.2728   31.8392   52.5946 C   0  0  0  0  0  0  0  0  0  0  0  0
   38.7341   31.1373   53.2130 H   0  0  0  0  0  0  0  0  0  0  0  0
   40.2051   32.7304   53.0779 C   0  0  0  0  0  0  0  0  0  0  0  0
   40.3526   32.6593   54.1629 H   0  0  0  0  0  0  0  0  0  0  0  0
   40.8887   33.6230   52.2936 C   0  0  0  0  0  0  0  0  0  0  0  0
   40.5962   33.5920   50.9585 C   0  0  0  0  0  0  0  0  0  0  0  0
   39.6767   32.7191   50.4534 C   0  0  0  0  0  0  0  0  0  0  0  0
   39.5039   32.7593   49.3866 H   0  0  0  0  0  0  0  0  0  0  0  0
   41.4524   34.7285   49.8896 S   0  0  0  0  0  0  0  0  0  0  0  0
   42.5506   35.6815   50.9195 C   0  0  0  0  0  0  0  0  0  0  0  0
   43.3223   36.6297   50.3175 C   0  0  0  0  0  0  0  0  0  0  0  0
   43.2629   36.7909   49.2485 H   0  0  0  0  0  0  0  0  0  0  0  0
   44.1900   37.3986   51.0549 C   0  0  0  0  0  0  0  0  0  0  0  0
   44.7800   38.1365   50.5330 H   0  0  0  0  0  0  0  0  0  0  0  0
   44.2507   37.1779   52.4131 C   0  0  0  0  0  0  0  0  0  0  0  0
   44.9247   37.7777   52.9744 H   0  0  0  0  0  0  0  0  0  0  0  0
   43.4498   36.2101   52.9607 C   0  0  0  0  0  0  0  0  0  0  0  0
   43.5652   36.1075   54.0336 H   0  0  0  0  0  0  0  0  0  0  0  0
   42.5654   35.4144   52.2653 C   0  0  0  0  0  0  0  0  0  0  0  0
   41.8029   34.4542   52.9707 N   0  0  0  0  0  0  0  0  0  0  0  0
   41.9461   34.3927   53.9894 H   0  0  0  0  0  0  0  0  0  0  0  0
  1  2  1  0
  2  3  1  0
  3 15  1  0
  4  3  1  0
  5  4  1  0
  6  5  1  0
  6  1  1  0
  7  1  1  0
  7 12  1  0
  8  7  2  0
  9  8  1  0
  9 10  2  0
 10 11  1  0
 11 12  2  0
 13 14  1  0
 14 19  2  0
 15 16  2  0
 15 14  1  0
 16 17  1  0
 17 18  2  0
 19 18  1  0
  2 20  1  0
  2 21  1  0
  3 22  1  1
  4 23  1  0
  5 24  1  0
  5 25  1  0
  6 26  1  0
  6 27  1  0
  8 28  1  0
  9 29  1  0
 11 30  1  0
 16 31  1  0
 17 32  1  0
 18 33  1  0
 34 35  2  0
 35 36  1  0
 35 37  1  0
 37 38  1  0
 37 39  2  0
 39 40  1  0
 40 41  2  0
 41 42  1  0
 40 43  1  0
 43 44  1  0
 44 45  2  0
 45 46  1  0
 45 47  1  0
 47 48  1  0
 47 49  2  0
 49 50  1  0
 49 51  1  0
 51 52  1  0
 51 53  2  0
 53 54  1  0
 54 55  1  0
 41 34  1  0
 53 44  1  0
 54 39  1  0
 19 34  1  0
M  ISO  8  20  13  21  13  22  13  23   5  24  13  25  13  26  13  27  13
M  ISO  8  28  14  29  14  30  14  31  14  32  14  33  14  36  16  38  16
M  ISO  6  42  16  46  16  48  16  50  16  52  16  55   5
M  END
>  <DihAtoms>  (1) 
13,18,33,34

>  <DihDeg>  (1) 
-45.7102875665229

$$$$
