
     RDKit          3D

 21 22  0  0  0  0  0  0  0  0999 V2000
   37.3276   30.2330   51.4255 C   0  0  0  0  0  0  0  0  0  0  0  0
   38.0630   30.7250   50.3445 C   0  0  0  0  0  0  0  0  0  0  0  0
   37.7024   30.3762   49.0409 C   0  0  0  0  0  0  0  0  0  0  0  0
   36.6218   29.5516   48.8962 N   0  0  0  0  0  0  0  0  0  0  0  0
   35.9267   29.0892   49.9626 C   0  0  0  0  0  0  0  0  0  0  0  0
   36.2881   29.4360   51.2215 N   0  0  0  0  0  0  0  0  0  0  0  0
   34.8624   28.2640   49.5977 O   0  0  0  0  0  0  0  0  0  0  0  0
   37.5352   30.4507   52.4629 H   0  0  0  0  0  0  0  0  0  0  0  0
   38.9025   31.3715   50.5574 H   0  0  0  0  0  0  0  0  0  0  0  0
   38.2491   30.7401   48.2069 H   0  0  0  0  0  0  0  0  0  0  0  0
   33.6630   25.5694   48.9311 Cl  0  0  0  0  0  0  0  0  0  0  0  0
   33.5183   26.5163   50.3978 C   0  0  0  0  0  0  0  0  0  0  0  0
   34.0969   27.7468   50.6347 C   0  0  0  0  0  0  0  0  0  0  0  0
   33.8808   28.3593   51.8501 C   0  0  0  0  0  0  0  0  0  0  0  0
   34.3516   29.3251   51.9999 H   0  0  0  0  0  0  0  0  0  0  0  0
   33.1013   27.7689   52.8284 C   0  0  0  0  0  0  0  0  0  0  0  0
   32.9430   28.2747   53.7882 H   0  0  0  0  0  0  0  0  0  0  0  0
   32.5190   26.5368   52.5977 C   0  0  0  0  0  0  0  0  0  0  0  0
   32.7302   25.9125   51.3789 C   0  0  0  0  0  0  0  0  0  0  0  0
   31.9135   26.1021   53.3867 H   0  0  0  0  0  0  0  0  0  0  0  0
   32.2380   24.9557   51.2863 H   0  0  0  0  0  0  0  0  0  0  0  0
  2  1  2  0
  3  2  1  0
  4  3  2  0
  4  5  1  0
  5  6  2  0
  6  1  1  0
  7  5  1  0
  1  8  1  0
  2  9  1  0
  3 10  1  0
 11 12  1  0
 12 13  2  0
 13 14  1  0
 14 15  1  0
 14 16  2  0
 16 17  1  0
 16 18  1  0
 18 19  2  0
 19 12  1  0
 18 20  1  0
 19 21  1  0
  7 13  1  0
M  ISO  5   8  14   9  14  10  14  15  15  17  16
M  END
>  <DihAtoms>  (1) 
4,6,12,11

>  <DihDeg>  (1) 
59.99974097910802

$$$$
