
     RDKit          3D

 21 22  0  0  0  0  0  0  0  0999 V2000
   37.3276   30.2330   51.4255 C   0  0  0  0  0  0  0  0  0  0  0  0
   38.0630   30.7250   50.3445 C   0  0  0  0  0  0  0  0  0  0  0  0
   37.7024   30.3762   49.0409 C   0  0  0  0  0  0  0  0  0  0  0  0
   36.6218   29.5516   48.8962 N   0  0  0  0  0  0  0  0  0  0  0  0
   35.9267   29.0892   49.9626 C   0  0  0  0  0  0  0  0  0  0  0  0
   36.2881   29.4360   51.2215 N   0  0  0  0  0  0  0  0  0  0  0  0
   34.8624   28.2640   49.5977 O   0  0  0  0  0  0  0  0  0  0  0  0
   37.5352   30.4507   52.4629 H   0  0  0  0  0  0  0  0  0  0  0  0
   38.9025   31.3715   50.5574 H   0  0  0  0  0  0  0  0  0  0  0  0
   38.2491   30.7401   48.2069 H   0  0  0  0  0  0  0  0  0  0  0  0
   31.8921   28.4645   49.0678 Cl  0  0  0  0  0  0  0  0  0  0  0  0
   32.7293   27.8061   50.4586 C   0  0  0  0  0  0  0  0  0  0  0  0
   34.0969   27.7468   50.6347 C   0  0  0  0  0  0  0  0  0  0  0  0
   34.5937   27.1937   51.7950 C   0  0  0  0  0  0  0  0  0  0  0  0
   35.6732   27.1644   51.8978 H   0  0  0  0  0  0  0  0  0  0  0  0
   33.7543   26.7013   52.7780 C   0  0  0  0  0  0  0  0  0  0  0  0
   34.1719   26.2655   53.6933 H   0  0  0  0  0  0  0  0  0  0  0  0
   32.3838   26.7576   52.6079 C   0  0  0  0  0  0  0  0  0  0  0  0
   31.8741   27.3118   51.4448 C   0  0  0  0  0  0  0  0  0  0  0  0
   31.7543   26.3623   53.3989 H   0  0  0  0  0  0  0  0  0  0  0  0
   30.7952   27.3142   51.3975 H   0  0  0  0  0  0  0  0  0  0  0  0
  2  1  2  0
  3  2  1  0
  4  3  2  0
  4  5  1  0
  5  6  2  0
  6  1  1  0
  7  5  1  0
  1  8  1  0
  2  9  1  0
  3 10  1  0
 11 12  1  0
 12 13  2  0
 13 14  1  0
 14 15  1  0
 14 16  2  0
 16 17  1  0
 16 18  1  0
 18 19  2  0
 19 12  1  0
 18 20  1  0
 19 21  1  0
  7 13  1  0
M  ISO  5   8  14   9  14  10  14  15  15  17  16
M  END
>  <DihAtoms>  (1) 
4,6,12,11

>  <DihDeg>  (1) 
59.99974097910802

$$$$
