
     RDKit          3D

 39 41  0  0  1  0  0  0  0  0999 V2000
   33.2580   27.2720   45.8420 C   0  0  1  0  0  0  0  0  0  0  0  0
   33.9160   27.4470   47.2300 C   0  0  2  0  0  0  0  0  0  0  0  0
   33.7310   26.2350   47.8160 O   0  0  0  0  0  0  0  0  0  0  0  0
   34.0820   25.3170   46.8360 C   0  0  0  0  0  0  0  0  0  0  0  0
   33.6710   25.8770   45.5000 C   0  0  2  0  0  0  0  0  0  0  0  0
   31.8960   27.4840   45.9250 O   0  0  0  0  0  0  0  0  0  0  0  0
   33.2670   28.5090   47.7870 O   0  0  0  0  0  0  0  0  0  0  0  0
   35.3370   29.8000   46.7810 O   0  0  0  0  0  0  0  0  0  0  0  0
   34.0700   29.9760   47.6080 P   0  0  1  0  0  0  0  0  0  0  0  0
   33.1140   31.0560   46.7240 O   0  0  0  0  0  0  0  0  0  0  0  0
   34.3590   30.5710   49.1820 O   0  0  0  0  0  0  0  0  0  0  0  0
   35.6030   30.4690   49.7890 C   0  0  0  0  0  0  0  0  0  0  0  0
   35.9640   29.4560   50.6980 C   0  0  0  0  0  0  0  0  0  0  0  0
   37.2470   29.4820   51.2230 C   0  0  0  0  0  0  0  0  0  0  0  0
   38.0970   30.4850   50.8350 N   0  0  0  0  0  0  0  0  0  0  0  0
   37.7200   31.4480   49.9570 C   0  0  0  0  0  0  0  0  0  0  0  0
   36.4640   31.4450   49.4240 N   0  0  0  0  0  0  0  0  0  0  0  0
   34.7200   25.8720   44.6130 O   0  0  0  0  0  0  0  0  0  0  0  0
   33.6060   25.3670   41.9340 Cl  0  0  0  0  0  0  0  0  0  0  0  0
   34.9150   24.4830   42.7350 C   0  0  0  0  0  0  0  0  0  0  0  0
   35.3480   24.8240   44.0070 C   0  0  0  0  0  0  0  0  0  0  0  0
   36.3750   24.0740   44.5440 C   0  0  0  0  0  0  0  0  0  0  0  0
   36.9810   23.0230   43.8940 C   0  0  0  0  0  0  0  0  0  0  0  0
   36.5620   22.6700   42.6280 C   0  0  0  0  0  0  0  0  0  0  0  0
   35.5340   23.4140   42.0780 C   0  0  0  0  0  0  0  0  0  0  0  0
   33.5623   27.9854   45.0619 H   0  0  0  0  0  0  0  0  0  0  0  0
   34.9891   27.6810   47.2901 H   0  0  0  0  0  0  0  0  0  0  0  0
   35.1694   25.1520   46.8523 H   0  0  0  0  0  0  0  0  0  0  0  0
   33.5785   24.3559   47.0170 H   0  0  0  0  0  0  0  0  0  0  0  0
   32.8774   25.2946   45.0090 H   0  0  0  0  0  0  0  0  0  0  0  0
   31.6260   27.5260   46.8765 H   0  0  0  0  0  0  0  0  0  0  0  0
   32.6042   31.6319   47.3474 H   0  0  0  0  0  0  0  0  0  0  0  0
   35.2505   28.6687   50.9827 H   0  0  0  0  0  0  0  0  0  0  0  0
   37.5764   28.7127   51.9370 H   0  0  0  0  0  0  0  0  0  0  0  0
   38.4320   32.2369   49.6728 H   0  0  0  0  0  0  0  0  0  0  0  0
   36.7306   24.3320   45.5525 H   0  0  0  0  0  0  0  0  0  0  0  0
   37.7954   22.4672   44.3816 H   0  0  0  0  0  0  0  0  0  0  0  0
   37.0243   21.8351   42.0810 H   0  0  0  0  0  0  0  0  0  0  0  0
   35.1839   23.1509   41.0689 H   0  0  0  0  0  0  0  0  0  0  0  0
  1  6  1  0
  1  2  1  0
  2  7  1  0
  2  3  1  0
  4  3  1  0
  5  1  1  0
  5  4  1  0
  9  8  2  0
  9  7  1  0
  9 11  1  0
 10  9  1  0
 11 12  1  0
 12 13  2  0
 13 14  1  0
 15 14  2  0
 16 15  1  0
 17 12  1  0
 17 16  2  0
 18  5  1  0
 19 20  1  0
 20 21  2  0
 21 22  1  0
 21 18  1  0
 23 22  2  0
 24 23  1  0
 25 24  2  0
 25 20  1  0
  1 26  1  6
  2 27  1  6
  4 28  1  0
  4 29  1  0
  5 30  1  6
  6 31  1  0
 10 32  1  0
 13 33  1  0
 14 34  1  0
 16 35  1  0
 22 36  1  0
 23 37  1  0
 24 38  1  0
 25 39  1  0
M  ISO  8  26  13  27  13  28  13  29  13  30  13  31   3  32   3  33  14
M  ISO  6  34  14  35  14  36  14  37  14  38  14  39  14
M  END
>  <minimizedAffinity>  (1) 
-4.19777679

>  <minimizedRMSD>  (1) 
1.52006364

$$$$
