
     RDKit          3D

 27 28  0  0  0  0  0  0  0  0999 V2000
   37.3228   30.2161   51.4209 C   0  0  0  0  0  0  0  0  0  0  0  0
   38.0445   30.6603   50.3032 C   0  0  0  0  0  0  0  0  0  0  0  0
   37.6184   30.2866   49.0358 C   0  0  0  0  0  0  0  0  0  0  0  0
   36.5018   29.4953   48.9702 N   0  0  0  0  0  0  0  0  0  0  0  0
   35.8296   29.0846   50.0659 C   0  0  0  0  0  0  0  0  0  0  0  0
   36.2567   29.4565   51.2873 N   0  0  0  0  0  0  0  0  0  0  0  0
   34.7469   28.3027   49.7507 O   0  0  0  0  0  0  0  0  0  0  0  0
   34.2071   28.3867   48.4584 C   0  0  0  0  0  0  0  0  0  0  0  0
   33.8272   27.0421   47.9095 C   0  0  0  0  0  0  0  0  0  0  0  0
   37.7031   30.5402   52.3788 H   0  0  0  0  0  0  0  0  0  0  0  0
   38.9260   31.2860   50.3745 H   0  0  0  0  0  0  0  0  0  0  0  0
   38.1277   30.5930   48.1311 H   0  0  0  0  0  0  0  0  0  0  0  0
   33.3829   29.1184   48.4114 H   0  0  0  0  0  0  0  0  0  0  0  0
   34.9811   28.7911   47.7487 H   0  0  0  0  0  0  0  0  0  0  0  0
   34.7493   26.3896   47.8912 H   0  0  0  0  0  0  0  0  0  0  0  0
   33.4654   27.0961   46.8631 H   0  0  0  0  0  0  0  0  0  0  0  0
   34.6510   25.5890   50.5118 Cl  0  0  0  0  0  0  0  0  0  0  0  0
   33.0192   25.6285   49.8767 C   0  0  0  0  0  0  0  0  0  0  0  0
   32.8202   26.3147   48.6984 C   0  0  0  0  0  0  0  0  0  0  0  0
   31.4954   26.2867   48.2605 C   0  0  0  0  0  0  0  0  0  0  0  0
   31.2762   26.8191   47.3216 H   0  0  0  0  0  0  0  0  0  0  0  0
   30.4337   25.6634   48.8784 C   0  0  0  0  0  0  0  0  0  0  0  0
   29.4520   25.7049   48.4530 H   0  0  0  0  0  0  0  0  0  0  0  0
   30.7530   25.0017   50.0617 C   0  0  0  0  0  0  0  0  0  0  0  0
   32.0359   24.9699   50.5803 C   0  0  0  0  0  0  0  0  0  0  0  0
   29.9332   24.4971   50.5765 H   0  0  0  0  0  0  0  0  0  0  0  0
   32.2744   24.4528   51.5021 H   0  0  0  0  0  0  0  0  0  0  0  0
  2  1  2  0
  3  2  1  0
  4  3  2  0
  4  5  1  0
  5  6  2  0
  6  1  1  0
  7  5  1  0
  8  7  1  0
  9  8  1  0
  1 10  1  0
  2 11  1  0
  3 12  1  0
  8 13  1  0
  8 14  1  0
  9 15  1  0
  9 16  1  0
 17 18  1  0
 18 19  2  0
 19 20  1  0
 20 21  1  0
 20 22  2  0
 22 23  1  0
 22 24  1  0
 24 25  2  0
 25 18  1  0
 24 26  1  0
 25 27  1  0
  9 19  1  0
M  ISO  8  10  14  11  14  12  14  13   8  14   8  15   8  16   8  21  15
M  ISO  1  23  16
M  END
>  <DihAtoms>  (1) 
7,8,18,17

>  <DihDeg>  (1) 
-77.39391319180044

$$$$
