
     RDKit          3D

 27 28  0  0  0  0  0  0  0  0999 V2000
   37.3228   30.2161   51.4209 C   0  0  0  0  0  0  0  0  0  0  0  0
   38.0445   30.6603   50.3032 C   0  0  0  0  0  0  0  0  0  0  0  0
   37.6184   30.2866   49.0358 C   0  0  0  0  0  0  0  0  0  0  0  0
   36.5018   29.4953   48.9702 N   0  0  0  0  0  0  0  0  0  0  0  0
   35.8296   29.0846   50.0659 C   0  0  0  0  0  0  0  0  0  0  0  0
   36.2567   29.4565   51.2873 N   0  0  0  0  0  0  0  0  0  0  0  0
   34.7469   28.3027   49.7507 O   0  0  0  0  0  0  0  0  0  0  0  0
   34.2071   28.3867   48.4584 C   0  0  0  0  0  0  0  0  0  0  0  0
   33.8272   27.0421   47.9095 C   0  0  0  0  0  0  0  0  0  0  0  0
   37.7031   30.5402   52.3788 H   0  0  0  0  0  0  0  0  0  0  0  0
   38.9260   31.2860   50.3745 H   0  0  0  0  0  0  0  0  0  0  0  0
   38.1277   30.5930   48.1311 H   0  0  0  0  0  0  0  0  0  0  0  0
   33.3829   29.1184   48.4114 H   0  0  0  0  0  0  0  0  0  0  0  0
   34.9811   28.7911   47.7487 H   0  0  0  0  0  0  0  0  0  0  0  0
   34.7493   26.3896   47.8912 H   0  0  0  0  0  0  0  0  0  0  0  0
   33.4654   27.0961   46.8631 H   0  0  0  0  0  0  0  0  0  0  0  0
   33.2693   27.8574   50.8397 Cl  0  0  0  0  0  0  0  0  0  0  0  0
   32.4482   26.5561   50.0031 C   0  0  0  0  0  0  0  0  0  0  0  0
   32.8202   26.3147   48.6984 C   0  0  0  0  0  0  0  0  0  0  0  0
   32.1238   25.2566   48.1128 C   0  0  0  0  0  0  0  0  0  0  0  0
   32.3799   25.0169   47.0687 H   0  0  0  0  0  0  0  0  0  0  0  0
   31.1505   24.4806   48.7027 C   0  0  0  0  0  0  0  0  0  0  0  0
   30.6777   23.6888   48.1587 H   0  0  0  0  0  0  0  0  0  0  0  0
   30.8565   24.8157   50.0223 C   0  0  0  0  0  0  0  0  0  0  0  0
   31.4905   25.8472   50.6930 C   0  0  0  0  0  0  0  0  0  0  0  0
   30.0888   24.2194   50.5190 H   0  0  0  0  0  0  0  0  0  0  0  0
   31.2544   26.1008   51.7196 H   0  0  0  0  0  0  0  0  0  0  0  0
  2  1  2  0
  3  2  1  0
  4  3  2  0
  4  5  1  0
  5  6  2  0
  6  1  1  0
  7  5  1  0
  8  7  1  0
  9  8  1  0
  1 10  1  0
  2 11  1  0
  3 12  1  0
  8 13  1  0
  8 14  1  0
  9 15  1  0
  9 16  1  0
 17 18  1  0
 18 19  2  0
 19 20  1  0
 20 21  1  0
 20 22  2  0
 22 23  1  0
 22 24  1  0
 24 25  2  0
 25 18  1  0
 24 26  1  0
 25 27  1  0
  9 19  1  0
M  ISO  8  10  14  11  14  12  14  13   8  14   8  15   8  16   8  21  15
M  ISO  1  23  16
M  END
>  <DihAtoms>  (1) 
7,8,18,17

>  <DihDeg>  (1) 
-77.39391319180044

$$$$
