
     RDKit          3D

 38 40  0  0  1  0  0  0  0  0999 V2000
   36.8870   31.2930   49.0050 C   0  0  0  0  0  0  0  0  0  0  0  0
   37.2080   32.4410   49.7330 C   0  0  0  0  0  0  0  0  0  0  0  0
   38.1230   33.3300   49.1770 C   0  0  0  0  0  0  0  0  0  0  0  0
   38.6490   33.0240   47.9540 N   0  0  0  0  0  0  0  0  0  0  0  0
   38.3080   31.8960   47.2820 C   0  0  0  0  0  0  0  0  0  0  0  0
   37.4320   31.0470   47.8180 N   0  0  0  0  0  0  0  0  0  0  0  0
   38.9180   31.6730   46.0110 N   0  0  0  0  0  0  0  0  0  0  0  0
   40.1490   30.9450   45.9390 C   0  0  0  0  0  0  0  0  0  0  0  0
   41.0290   31.7720   44.9770 C   0  0  0  0  0  0  0  0  0  0  0  0
   40.3930   31.5760   43.6290 C   0  0  0  0  0  0  0  0  0  0  0  0
   39.0650   32.2640   43.6070 C   0  0  0  0  0  0  0  0  0  0  0  0
   38.2730   32.1910   44.8510 C   0  0  1  0  0  0  0  0  0  0  0  0
   36.5310   33.1420   42.5510 Cl  0  0  0  0  0  0  0  0  0  0  0  0
   36.1180   31.8000   43.6250 C   0  0  0  0  0  0  0  0  0  0  0  0
   36.9930   31.4560   44.6410 C   0  0  0  0  0  0  0  0  0  0  0  0
   36.6200   30.4020   45.4500 C   0  0  0  0  0  0  0  0  0  0  0  0
   35.4410   29.7080   45.2740 C   0  0  0  0  0  0  0  0  0  0  0  0
   34.5740   30.0500   44.2650 C   0  0  0  0  0  0  0  0  0  0  0  0
   34.9570   31.1170   43.4520 C   0  0  0  0  0  0  0  0  0  0  0  0
   35.9010   30.3220   49.5910 C   0  0  0  0  0  0  0  0  0  0  0  0
   34.6320   30.9060   49.6350 F   0  0  0  0  0  0  0  0  0  0  0  0
   35.9530   29.1640   48.8860 F   0  0  0  0  0  0  0  0  0  0  0  0
   36.2820   30.1210   50.9290 F   0  0  0  0  0  0  0  0  0  0  0  0
   36.7520   32.6362   50.7148 H   0  0  0  0  0  0  0  0  0  0  0  0
   38.4135   34.2499   49.7056 H   0  0  0  0  0  0  0  0  0  0  0  0
   40.6178   30.8741   46.9316 H   0  0  0  0  0  0  0  0  0  0  0  0
   40.0049   29.9114   45.5913 H   0  0  0  0  0  0  0  0  0  0  0  0
   41.0226   32.8350   45.2598 H   0  0  0  0  0  0  0  0  0  0  0  0
   42.0823   31.4553   44.9944 H   0  0  0  0  0  0  0  0  0  0  0  0
   41.0418   32.0036   42.8504 H   0  0  0  0  0  0  0  0  0  0  0  0
   40.2557   30.5015   43.4379 H   0  0  0  0  0  0  0  0  0  0  0  0
   39.2410   33.3265   43.3829 H   0  0  0  0  0  0  0  0  0  0  0  0
   38.4710   31.7338   42.8480 H   0  0  0  0  0  0  0  0  0  0  0  0
   38.1010   33.2544   45.0739 H   0  0  0  0  0  0  0  0  0  0  0  0
   37.2906   30.1030   46.2690 H   0  0  0  0  0  0  0  0  0  0  0  0
   35.1931   28.8740   45.9471 H   0  0  0  0  0  0  0  0  0  0  0  0
   33.6281   29.5113   44.1065 H   0  0  0  0  0  0  0  0  0  0  0  0
   34.2877   31.4191   42.6330 H   0  0  0  0  0  0  0  0  0  0  0  0
  1 20  1  0
  1  2  2  0
  3  2  1  0
  4  3  2  0
  5  6  2  0
  5  4  1  0
  6  1  1  0
  7  5  1  0
  8  7  1  0
  9  8  1  0
 10  9  1  0
 11 10  1  0
 11 12  1  0
 12  7  1  0
 13 14  1  0
 14 15  2  0
 15 12  1  0
 15 16  1  0
 17 16  2  0
 18 17  1  0
 19 14  1  0
 19 18  2  0
 20 21  1  0
 20 23  1  0
 22 20  1  0
  2 24  1  0
  3 25  1  0
  8 26  1  0
  8 27  1  0
  9 28  1  0
  9 29  1  0
 10 30  1  0
 10 31  1  0
 11 32  1  0
 11 33  1  0
 12 34  1  1
 16 35  1  0
 17 36  1  0
 18 37  1  0
 19 38  1  0
M  ISO  8  24  14  25  14  26  13  27  13  28  13  29  13  30  13  31  13
M  ISO  7  32  13  33  13  34  13  35  14  36  14  37  14  38  14
M  END
>  <minimizedAffinity>  (1) 
-6.44846392

>  <minimizedRMSD>  (1) 
0.540840566

$$$$
