
     RDKit          3D

 34 36  0  0  0  0  0  0  0  0999 V2000
   37.0400   30.8240   47.8810 C   0  0  0  0  0  0  0  0  0  0  0  0
   37.4780   31.8980   48.6320 C   0  0  0  0  0  0  0  0  0  0  0  0
   38.5170   32.6820   48.1500 C   0  0  0  0  0  0  0  0  0  0  0  0
   39.0930   32.3720   46.9250 C   0  0  0  0  0  0  0  0  0  0  0  0
   38.6290   31.2960   46.2100 C   0  0  0  0  0  0  0  0  0  0  0  0
   37.6230   30.5630   46.7090 N   0  0  0  0  0  0  0  0  0  0  0  0
   35.0270   28.9140   50.4230 C   0  0  0  0  0  0  0  0  0  0  0  0
   36.1130   29.6100   49.8240 C   0  0  0  0  0  0  0  0  0  0  0  0
   35.9460   30.1040   48.5280 C   0  0  0  0  0  0  0  0  0  0  0  0
   34.7470   29.8890   47.9110 N   0  0  0  0  0  0  0  0  0  0  0  0
   33.7340   29.2160   48.5260 C   0  0  0  0  0  0  0  0  0  0  0  0
   33.8730   28.7360   49.7630 N   0  0  0  0  0  0  0  0  0  0  0  0
   32.5960   29.1240   47.6830 N   0  0  0  0  0  0  0  0  0  0  0  0
   37.3710   29.7820   50.5980 C   0  0  0  0  0  0  0  0  0  0  0  0
   38.4840   29.6530   49.7930 F   0  0  0  0  0  0  0  0  0  0  0  0
   37.3750   31.0440   51.1420 F   0  0  0  0  0  0  0  0  0  0  0  0
   37.4860   28.8870   51.6380 F   0  0  0  0  0  0  0  0  0  0  0  0
   39.8020   33.5480   44.7040 Cl  0  0  0  0  0  0  0  0  0  0  0  0
   39.7810   31.8810   44.1090 C   0  0  0  0  0  0  0  0  0  0  0  0
   39.1980   30.9270   44.9190 C   0  0  0  0  0  0  0  0  0  0  0  0
   39.2180   29.6540   44.3930 C   0  0  0  0  0  0  0  0  0  0  0  0
   39.7690   29.3570   43.1680 C   0  0  0  0  0  0  0  0  0  0  0  0
   40.3390   30.3440   42.3960 C   0  0  0  0  0  0  0  0  0  0  0  0
   40.3390   31.6300   42.8860 C   0  0  0  0  0  0  0  0  0  0  0  0
   37.0090   32.1288   49.5999 H   0  0  0  0  0  0  0  0  0  0  0  0
   38.8808   33.5410   48.7330 H   0  0  0  0  0  0  0  0  0  0  0  0
   39.9164   32.9852   46.5299 H   0  0  0  0  0  0  0  0  0  0  0  0
   35.1350   28.5158   51.4427 H   0  0  0  0  0  0  0  0  0  0  0  0
   31.7484   28.6408   48.0130 H   0  0  0  0  0  0  0  0  0  0  0  0
   32.6177   29.5405   46.7412 H   0  0  0  0  0  0  0  0  0  0  0  0
   38.7727   28.8370   44.9797 H   0  0  0  0  0  0  0  0  0  0  0  0
   39.7540   28.3200   42.8015 H   0  0  0  0  0  0  0  0  0  0  0  0
   40.7815   30.1116   41.4161 H   0  0  0  0  0  0  0  0  0  0  0  0
   40.7834   32.4478   42.2998 H   0  0  0  0  0  0  0  0  0  0  0  0
  1  9  1  0
  1  2  2  0
  3  2  1  0
  4  3  2  0
  5  6  2  0
  5  4  1  0
  6  1  1  0
  8  7  2  0
  8 14  1  0
  9  8  1  0
 10 11  1  0
 10  9  2  0
 11 12  2  0
 12  7  1  0
 13 11  1  0
 14 16  1  0
 14 17  1  0
 15 14  1  0
 19 18  1  0
 19 20  2  0
 20  5  1  0
 21 20  1  0
 22 21  2  0
 23 24  2  0
 23 22  1  0
 24 19  1  0
  2 25  1  0
  3 26  1  0
  4 27  1  0
  7 28  1  0
 13 29  1  0
 13 30  1  0
 21 31  1  0
 22 32  1  0
 23 33  1  0
 24 34  1  0
M  ISO  8  25  14  26  14  27  14  28  14  31  14  32  14  33  14  34  14
M  END
>  <minimizedAffinity>  (1) 
-7.13303566

>  <minimizedRMSD>  (1) 
1.73394787

$$$$
