
     RDKit          3D

 23 24  0  0  0  0  0  0  0  0999 V2000
   38.3065   31.2329   50.1234 C   0  0  0  0  0  0  0  0  0  0  0  0
   38.2863   31.6061   48.7582 C   0  0  0  0  0  0  0  0  0  0  0  0
   37.1966   31.2228   47.9915 C   0  0  0  0  0  0  0  0  0  0  0  0
   36.2230   30.5111   48.6165 N   0  0  0  0  0  0  0  0  0  0  0  0
   36.2621   30.1695   49.9057 C   0  0  0  0  0  0  0  0  0  0  0  0
   37.3012   30.5320   50.6494 N   0  0  0  0  0  0  0  0  0  0  0  0
   35.1285   29.3889   50.4416 C   0  0  0  0  0  0  0  0  0  0  0  0
   35.2576   29.1257   51.8027 F   0  0  0  0  0  0  0  0  0  0  0  0
   33.9281   30.0589   50.2945 F   0  0  0  0  0  0  0  0  0  0  0  0
   34.9590   28.1641   49.8203 F   0  0  0  0  0  0  0  0  0  0  0  0
   39.1399   31.5134   50.7548 H   0  0  0  0  0  0  0  0  0  0  0  0
   39.0820   32.1666   48.3210 H   0  0  0  0  0  0  0  0  0  0  0  0
   36.9790   28.8563   46.0960 Cl  0  0  0  0  0  0  0  0  0  0  0  0
   36.9575   30.5399   45.6555 C   0  0  0  0  0  0  0  0  0  0  0  0
   37.0616   31.5469   46.5787 C   0  0  0  0  0  0  0  0  0  0  0  0
   37.0296   32.8316   46.0843 C   0  0  0  0  0  0  0  0  0  0  0  0
   37.1074   33.6692   46.7629 H   0  0  0  0  0  0  0  0  0  0  0  0
   36.9010   33.1114   44.7418 C   0  0  0  0  0  0  0  0  0  0  0  0
   36.8807   34.1424   44.3998 H   0  0  0  0  0  0  0  0  0  0  0  0
   36.7967   32.0902   43.8180 C   0  0  0  0  0  0  0  0  0  0  0  0
   36.8259   30.7746   44.2884 C   0  0  0  0  0  0  0  0  0  0  0  0
   36.6978   32.3712   42.7779 H   0  0  0  0  0  0  0  0  0  0  0  0
   36.7434   30.0005   43.5532 H   0  0  0  0  0  0  0  0  0  0  0  0
  1  6  2  0
  2  1  1  0
  3  4  1  0
  3  2  2  0
  4  5  2  0
  5  7  1  0
  5  6  1  0
  7  8  1  0
  9  7  1  0
 10  7  1  0
  1 11  1  0
  2 12  1  0
 13 14  1  0
 14 15  2  0
 15 16  1  0
 16 17  1  0
 16 18  2  0
 18 19  1  0
 18 20  1  0
 20 21  2  0
 21 14  1  0
 20 22  1  0
 21 23  1  0
  3 15  1  0
M  ISO  4  11  14  12  14  17  15  19  16
M  END
>  <DihAtoms>  (1) 
3,2,14,13

>  <DihDeg>  (1) 
0.0049961559325213765

$$$$
