
     RDKit          3D

 44 47  0  0  0  0  0  0  0  0999 V2000
   34.1840   28.4480   48.1330 C   0  0  0  0  0  0  0  0  0  0  0  0
   34.0690   27.1060   48.0510 C   0  0  0  0  0  0  0  0  0  0  0  0
   33.1110   26.5360   47.3150 C   0  0  0  0  0  0  0  0  0  0  0  0
   32.2440   27.3370   46.6440 N   0  0  0  0  0  0  0  0  0  0  0  0
   32.3570   28.6560   46.7250 C   0  0  0  0  0  0  0  0  0  0  0  0
   33.3190   29.2240   47.4640 N   0  0  0  0  0  0  0  0  0  0  0  0
   30.0560   29.4170   46.3310 C   0  0  0  0  0  0  0  0  0  0  0  0
   31.3990   29.3980   45.9470 C   0  0  0  0  0  0  0  0  0  0  0  0
   31.8950   30.0330   44.8190 C   0  0  0  0  0  0  0  0  0  0  0  0
   31.0170   30.7320   44.0110 C   0  0  0  0  0  0  0  0  0  0  0  0
   29.6740   30.8030   44.3110 C   0  0  0  0  0  0  0  0  0  0  0  0
   29.2830   30.1480   45.4400 C   0  0  0  0  0  0  0  0  0  0  0  0
   29.4450   28.6890   47.7030 S   0  0  0  0  0  0  0  0  0  0  0  0
   28.8690   27.4190   46.9880 O   0  0  0  0  0  0  0  0  0  0  0  0
   28.2920   29.5370   48.1780 O   0  0  0  0  0  0  0  0  0  0  0  0
   29.5950   27.7980   49.0180 C   0  0  0  0  0  0  0  0  0  0  0  0
   28.7110   26.7710   49.4120 F   0  0  0  0  0  0  0  0  0  0  0  0
   29.1970   28.5920   50.2010 F   0  0  0  0  0  0  0  0  0  0  0  0
   30.8510   27.6340   49.6660 F   0  0  0  0  0  0  0  0  0  0  0  0
   36.2660   29.6070   50.9210 C   0  0  0  0  0  0  0  0  0  0  0  0
   37.2500   30.3700   50.2640 C   0  0  0  0  0  0  0  0  0  0  0  0
   37.1730   30.4700   48.8840 C   0  0  0  0  0  0  0  0  0  0  0  0
   36.1550   29.8220   48.2790 N   0  0  0  0  0  0  0  0  0  0  0  0
   35.2200   29.0930   48.9220 C   0  0  0  0  0  0  0  0  0  0  0  0
   35.2910   28.9960   50.2480 N   0  0  0  0  0  0  0  0  0  0  0  0
   38.0890   33.4250   49.4120 Cl  0  0  0  0  0  0  0  0  0  0  0  0
   38.5820   32.4390   48.0630 C   0  0  0  0  0  0  0  0  0  0  0  0
   38.0670   31.1710   48.0050 C   0  0  0  0  0  0  0  0  0  0  0  0
   38.5180   30.5150   46.8620 C   0  0  0  0  0  0  0  0  0  0  0  0
   39.3600   31.0620   45.9260 C   0  0  0  0  0  0  0  0  0  0  0  0
   39.8260   32.3480   46.0740 C   0  0  0  0  0  0  0  0  0  0  0  0
   39.4140   33.0300   47.1730 C   0  0  0  0  0  0  0  0  0  0  0  0
   34.7777   26.4692   48.6008 H   0  0  0  0  0  0  0  0  0  0  0  0
   33.0263   25.4410   47.2538 H   0  0  0  0  0  0  0  0  0  0  0  0
   32.9656   29.9819   44.5716 H   0  0  0  0  0  0  0  0  0  0  0  0
   31.3975   31.2404   43.1128 H   0  0  0  0  0  0  0  0  0  0  0  0
   28.9622   31.3539   43.6787 H   0  0  0  0  0  0  0  0  0  0  0  0
   28.2104   30.2065   45.6770 H   0  0  0  0  0  0  0  0  0  0  0  0
   36.3026   29.5128   52.0163 H   0  0  0  0  0  0  0  0  0  0  0  0
   38.0523   30.8696   50.8267 H   0  0  0  0  0  0  0  0  0  0  0  0
   38.1743   29.4831   46.6974 H   0  0  0  0  0  0  0  0  0  0  0  0
   39.6643   30.4680   45.0516 H   0  0  0  0  0  0  0  0  0  0  0  0
   40.5020   32.8030   45.3351 H   0  0  0  0  0  0  0  0  0  0  0  0
   39.7558   34.0621   47.3405 H   0  0  0  0  0  0  0  0  0  0  0  0
  1 24  1  0
  2  1  2  0
  3  2  1  0
  4  5  1  0
  4  3  2  0
  5  6  2  0
  6  1  1  0
  7 13  1  0
  8  7  2  0
  8  5  1  0
  9  8  1  0
 10 11  1  0
 10  9  2  0
 11 12  2  0
 12  7  1  0
 13 15  2  0
 13 16  1  0
 14 13  2  0
 16 17  1  0
 16 19  1  0
 16 18  1  0
 21 20  2  0
 22 21  1  0
 23 22  2  0
 23 24  1  0
 24 25  2  0
 25 20  1  0
 27 26  1  0
 28 27  2  0
 28 22  1  0
 29 28  1  0
 30 31  1  0
 30 29  2  0
 31 32  2  0
 32 27  1  0
  2 33  1  0
  3 34  1  0
  9 35  1  0
 10 36  1  0
 11 37  1  0
 12 38  1  0
 20 39  1  0
 21 40  1  0
 29 41  1  0
 30 42  1  0
 31 43  1  0
 32 44  1  0
M  END
>  <minimizedAffinity>  (1) 
-7.37954807

>  <minimizedRMSD>  (1) 
2.52354598

$$$$
