
     RDKit          3D

 42 45  0  0  1  0  0  0  0  0999 V2000
   32.1610   27.8030   48.6600 N   0  0  0  0  0  0  0  0  0  0  0  0
   32.8530   26.9640   47.6960 C   0  0  0  0  0  0  0  0  0  0  0  0
   34.2270   27.5630   47.6470 C   0  0  0  0  0  0  0  0  0  0  0  0
   34.1230   28.8950   48.5050 C   0  0  1  0  0  0  0  0  0  0  0  0
   33.1650   28.4570   49.5260 C   0  0  0  0  0  0  0  0  0  0  0  0
   35.9550   30.2910   46.8450 F   0  0  0  0  0  0  0  0  0  0  0  0
   36.2410   29.9700   48.1230 C   0  0  0  0  0  0  0  0  0  0  0  0
   35.4640   29.2400   48.9870 C   0  0  0  0  0  0  0  0  0  0  0  0
   35.9550   28.9790   50.2790 C   0  0  0  0  0  0  0  0  0  0  0  0
   37.1870   29.4390   50.6900 C   0  0  0  0  0  0  0  0  0  0  0  0
   37.9650   30.1790   49.8010 C   0  0  0  0  0  0  0  0  0  0  0  0
   37.4790   30.4410   48.5110 C   0  0  0  0  0  0  0  0  0  0  0  0
   37.7580   33.2030   49.4740 Cl  0  0  0  0  0  0  0  0  0  0  0  0
   38.5580   32.5350   48.0450 C   0  0  0  0  0  0  0  0  0  0  0  0
   38.3700   31.2210   47.6630 C   0  0  0  0  0  0  0  0  0  0  0  0
   39.0260   30.7670   46.5360 C   0  0  0  0  0  0  0  0  0  0  0  0
   39.8510   31.6270   45.8170 C   0  0  0  0  0  0  0  0  0  0  0  0
   40.0080   32.9410   46.2420 C   0  0  0  0  0  0  0  0  0  0  0  0
   39.3590   33.4240   47.3740 C   0  0  0  0  0  0  0  0  0  0  0  0
   30.7680   27.9970   48.7800 C   0  0  0  0  0  0  0  0  0  0  0  0
   30.0840   28.2720   47.5870 C   0  0  0  0  0  0  0  0  0  0  0  0
   28.6980   28.4870   47.6400 C   0  0  0  0  0  0  0  0  0  0  0  0
   28.1100   28.4090   48.8890 N   0  0  0  0  0  0  0  0  0  0  0  0
   28.8030   28.1420   50.0050 C   0  0  0  0  0  0  0  0  0  0  0  0
   30.1270   27.9400   49.9330 N   0  0  0  0  0  0  0  0  0  0  0  0
   32.8899   25.9189   48.0370 H   0  0  0  0  0  0  0  0  0  0  0  0
   32.3585   26.9362   46.7138 H   0  0  0  0  0  0  0  0  0  0  0  0
   34.9647   26.8758   48.0871 H   0  0  0  0  0  0  0  0  0  0  0  0
   34.5566   27.7593   46.6161 H   0  0  0  0  0  0  0  0  0  0  0  0
   33.7883   29.8182   48.0093 H   0  0  0  0  0  0  0  0  0  0  0  0
   32.7380   29.3069   50.0785 H   0  0  0  0  0  0  0  0  0  0  0  0
   33.5855   27.8187   50.3171 H   0  0  0  0  0  0  0  0  0  0  0  0
   35.3403   28.3933   50.9784 H   0  0  0  0  0  0  0  0  0  0  0  0
   37.5516   29.2253   51.7056 H   0  0  0  0  0  0  0  0  0  0  0  0
   38.9522   30.5546   50.1083 H   0  0  0  0  0  0  0  0  0  0  0  0
   38.8966   29.7256   46.2064 H   0  0  0  0  0  0  0  0  0  0  0  0
   40.3752   31.2692   44.9185 H   0  0  0  0  0  0  0  0  0  0  0  0
   40.6614   33.6156   45.6693 H   0  0  0  0  0  0  0  0  0  0  0  0
   39.4816   34.4633   47.7129 H   0  0  0  0  0  0  0  0  0  0  0  0
   30.6228   28.3183   46.6291 H   0  0  0  0  0  0  0  0  0  0  0  0
   28.1108   28.7059   46.7360 H   0  0  0  0  0  0  0  0  0  0  0  0
   28.2881   28.0888   50.9756 H   0  0  0  0  0  0  0  0  0  0  0  0
  1 20  1  0
  1  5  1  0
  2  1  1  0
  3  2  1  0
  3  4  1  0
  4  8  1  0
  4  5  1  0
  6  7  1  0
  7 12  2  0
  7  8  1  0
  8  9  2  0
  9 10  1  0
 11 10  2  0
 12 11  1  0
 14 13  1  0
 15 14  2  0
 15 12  1  0
 16 15  1  0
 17 18  1  0
 17 16  2  0
 18 19  2  0
 19 14  1  0
 20 25  2  0
 21 22  2  0
 21 20  1  0
 22 23  1  0
 23 24  2  0
 25 24  1  0
  2 26  1  0
  2 27  1  0
  3 28  1  0
  3 29  1  0
  4 30  1  6
  5 31  1  0
  5 32  1  0
  9 33  1  0
 10 34  1  0
 11 35  1  0
 16 36  1  0
 17 37  1  0
 18 38  1  0
 19 39  1  0
 21 40  1  0
 22 41  1  0
 24 42  1  0
M  ISO  8  26  13  27  13  28  13  29  13  30  13  31  13  32  13  33  14
M  ISO  8  34  14  35  14  36  14  37  14  38  14  39  14  40  14  41  14
M  ISO  1  42  14
M  END
>  <minimizedAffinity>  (1) 
-7.75723553

>  <minimizedRMSD>  (1) 
3.61615944

$$$$
