
     RDKit          3D

 47 51  0  0  0  0  0  0  0  0999 V2000
   39.2170   31.9320   44.9440 C   0  0  0  0  0  0  0  0  0  0  0  0
   38.1320   32.5720   45.0820 O   0  0  0  0  0  0  0  0  0  0  0  0
   39.9320   31.6550   46.1460 N   0  0  0  0  0  0  0  0  0  0  0  0
   39.0720   32.2350   42.5630 C   0  0  0  0  0  0  0  0  0  0  0  0
   39.6360   31.5440   43.6140 C   0  0  0  0  0  0  0  0  0  0  0  0
   40.5560   30.5270   43.4330 C   0  0  0  0  0  0  0  0  0  0  0  0
   40.9280   30.1870   42.1440 C   0  0  0  0  0  0  0  0  0  0  0  0
   41.7860   29.2580   41.6770 N   0  0  0  0  0  0  0  0  0  0  0  0
   41.7630   29.3620   40.3450 C   0  0  0  0  0  0  0  0  0  0  0  0
   40.9080   30.3380   39.9720 N   0  0  0  0  0  0  0  0  0  0  0  0
   40.3640   30.8790   41.0930 C   0  0  0  0  0  0  0  0  0  0  0  0
   39.4500   31.8890   41.2710 C   0  0  0  0  0  0  0  0  0  0  0  0
   36.7360   33.2370   41.5840 Cl  0  0  0  0  0  0  0  0  0  0  0  0
   37.6470   33.2880   40.1140 C   0  0  0  0  0  0  0  0  0  0  0  0
   38.8510   32.6230   40.1570 C   0  0  0  0  0  0  0  0  0  0  0  0
   39.6660   32.5990   39.0260 C   0  0  0  0  0  0  0  0  0  0  0  0
   39.2740   33.2440   37.8520 C   0  0  0  0  0  0  0  0  0  0  0  0
   38.0610   33.9090   37.8240 C   0  0  0  0  0  0  0  0  0  0  0  0
   37.2620   33.9230   38.9580 C   0  0  0  0  0  0  0  0  0  0  0  0
   38.0950   30.1570   47.4920 F   0  0  0  0  0  0  0  0  0  0  0  0
   38.3720   31.4000   47.9930 C   0  0  0  0  0  0  0  0  0  0  0  0
   37.7250   31.8290   49.1240 C   0  0  0  0  0  0  0  0  0  0  0  0
   38.0490   33.0770   49.5650 C   0  0  0  0  0  0  0  0  0  0  0  0
   38.9610   33.8930   48.9470 C   0  0  0  0  0  0  0  0  0  0  0  0
   39.5950   33.4290   47.8060 C   0  0  0  0  0  0  0  0  0  0  0  0
   39.2980   32.1710   47.3220 C   0  0  0  0  0  0  0  0  0  0  0  0
   36.0960   29.3520   51.4660 C   0  0  0  0  0  0  0  0  0  0  0  0
   37.0540   30.2030   50.8870 C   0  0  0  0  0  0  0  0  0  0  0  0
   36.7580   30.9320   49.7570 C   0  0  0  0  0  0  0  0  0  0  0  0
   35.4990   30.7920   49.2250 N   0  0  0  0  0  0  0  0  0  0  0  0
   34.5990   29.9760   49.7910 C   0  0  0  0  0  0  0  0  0  0  0  0
   34.8770   29.2700   50.8800 N   0  0  0  0  0  0  0  0  0  0  0  0
   40.8200   31.1334   46.1666 H   0  0  0  0  0  0  0  0  0  0  0  0
   38.3425   33.0386   42.7420 H   0  0  0  0  0  0  0  0  0  0  0  0
   40.9840   29.9983   44.2975 H   0  0  0  0  0  0  0  0  0  0  0  0
   42.3474   28.5994   42.2355 H   0  0  0  0  0  0  0  0  0  0  0  0
   42.3540   28.7432   39.6538 H   0  0  0  0  0  0  0  0  0  0  0  0
   40.6278   32.0663   39.0593 H   0  0  0  0  0  0  0  0  0  0  0  0
   39.9200   33.2240   36.9619 H   0  0  0  0  0  0  0  0  0  0  0  0
   37.7324   34.4231   36.9087 H   0  0  0  0  0  0  0  0  0  0  0  0
   36.2991   34.4541   38.9311 H   0  0  0  0  0  0  0  0  0  0  0  0
   37.5492   33.4519   50.4704 H   0  0  0  0  0  0  0  0  0  0  0  0
   39.1841   34.8928   49.3478 H   0  0  0  0  0  0  0  0  0  0  0  0
   40.3319   34.0604   47.2880 H   0  0  0  0  0  0  0  0  0  0  0  0
   36.3296   28.7692   52.3692 H   0  0  0  0  0  0  0  0  0  0  0  0
   38.0518   30.2874   51.3422 H   0  0  0  0  0  0  0  0  0  0  0  0
   33.5998   29.8887   49.3394 H   0  0  0  0  0  0  0  0  0  0  0  0
  1  2  2  0
  1  3  1  0
  3 26  1  0
  4  5  2  0
  5  1  1  0
  6  5  1  0
  7  6  2  0
  8  7  1  0
  9  8  1  0
 10  9  2  0
 10 11  1  0
 11 12  2  0
 11  7  1  0
 12  4  1  0
 14 15  2  0
 14 13  1  0
 15 12  1  0
 16 15  1  0
 17 16  2  0
 18 17  1  0
 18 19  2  0
 19 14  1  0
 20 21  1  0
 21 22  2  0
 22 23  1  0
 22 29  1  0
 24 23  2  0
 25 24  1  0
 26 25  2  0
 26 21  1  0
 28 27  2  0
 29 28  1  0
 30 29  2  0
 30 31  1  0
 31 32  2  0
 32 27  1  0
  3 33  1  0
  4 34  1  0
  6 35  1  0
  8 36  1  0
  9 37  1  0
 16 38  1  0
 17 39  1  0
 18 40  1  0
 19 41  1  0
 23 42  1  0
 24 43  1  0
 25 44  1  0
 27 45  1  0
 28 46  1  0
 31 47  1  0
M  END
>  <minimizedAffinity>  (1) 
-7.53836346

>  <minimizedRMSD>  (1) 
0.189986959

$$$$
