
     RDKit          3D

 27 29  0  0  1  0  0  0  0  0999 V2000
   37.1950   29.9540   47.7230 C   0  0  1  0  0  0  0  0  0  0  0  0
   36.2370   30.4010   46.7430 C   0  0  0  0  0  0  0  0  0  0  0  0
   37.2500   31.4330   47.2610 C   0  0  2  0  0  0  0  0  0  0  0  0
   37.5770   30.0950   51.4370 C   0  0  0  0  0  0  0  0  0  0  0  0
   37.8920   30.2450   50.0810 C   0  0  0  0  0  0  0  0  0  0  0  0
   36.9180   29.8400   49.1690 C   0  0  0  0  0  0  0  0  0  0  0  0
   35.7330   29.3280   49.6510 N   0  0  0  0  0  0  0  0  0  0  0  0
   35.4770   29.2030   50.9680 C   0  0  0  0  0  0  0  0  0  0  0  0
   36.4100   29.5920   51.8800 N   0  0  0  0  0  0  0  0  0  0  0  0
   39.0540   33.3520   48.5790 Cl  0  0  0  0  0  0  0  0  0  0  0  0
   39.2230   32.6910   46.9530 C   0  0  0  0  0  0  0  0  0  0  0  0
   38.3560   31.7810   46.3440 C   0  0  0  0  0  0  0  0  0  0  0  0
   38.6350   31.3630   45.0600 C   0  0  0  0  0  0  0  0  0  0  0  0
   39.7490   31.8430   44.4080 C   0  0  0  0  0  0  0  0  0  0  0  0
   40.6060   32.7430   45.0080 C   0  0  0  0  0  0  0  0  0  0  0  0
   40.3540   33.1800   46.2940 C   0  0  0  0  0  0  0  0  0  0  0  0
   37.8186   29.0478   47.7219 H   0  0  0  0  0  0  0  0  0  0  0  0
   35.1773   30.4932   47.0231 H   0  0  0  0  0  0  0  0  0  0  0  0
   35.9526   30.0496   45.7402 H   0  0  0  0  0  0  0  0  0  0  0  0
   37.2120   32.4262   47.7322 H   0  0  0  0  0  0  0  0  0  0  0  0
   38.3249   30.4055   52.1815 H   0  0  0  0  0  0  0  0  0  0  0  0
   38.8563   30.6601   49.7527 H   0  0  0  0  0  0  0  0  0  0  0  0
   34.5161   28.7875   51.3056 H   0  0  0  0  0  0  0  0  0  0  0  0
   37.9685   30.6469   44.5570 H   0  0  0  0  0  0  0  0  0  0  0  0
   39.9608   31.5008   43.3843 H   0  0  0  0  0  0  0  0  0  0  0  0
   41.4878   33.1116   44.4634 H   0  0  0  0  0  0  0  0  0  0  0  0
   41.0277   33.8959   46.7875 H   0  0  0  0  0  0  0  0  0  0  0  0
  1  6  1  0
  2  3  1  0
  2  1  1  0
  3  1  1  0
  4  9  2  0
  5  4  1  0
  6  7  1  0
  6  5  2  0
  7  8  2  0
  8  9  1  0
 11 10  1  0
 12 11  2  0
 12  3  1  0
 13 12  1  0
 14 15  1  0
 14 13  2  0
 15 16  2  0
 16 11  1  0
  1 17  1  6
  2 18  1  0
  2 19  1  0
  3 20  1  1
  4 21  1  0
  5 22  1  0
  8 23  1  0
 13 24  1  0
 14 25  1  0
 15 26  1  0
 16 27  1  0
M  ISO  8  17  13  18  13  19  13  20  13  21  14  22  14  23  14  24  14
M  ISO  3  25  14  26  14  27  14
M  END
>  <minimizedAffinity>  (1) 
-5.17459011

>  <minimizedRMSD>  (1) 
2.0317564

$$$$
