
     RDKit          3D

 42 46  0  0  0  0  0  0  0  0999 V2000
   35.4980   29.5450   49.6440 C   0  0  0  0  0  0  0  0  0  0  0  0
   36.5280   29.1750   50.4850 C   0  0  0  0  0  0  0  0  0  0  0  0
   37.6650   29.6800   49.8560 C   0  0  0  0  0  0  0  0  0  0  0  0
   37.2870   30.3180   48.6930 C   0  0  0  0  0  0  0  0  0  0  0  0
   35.9810   30.2130   48.6040 O   0  0  0  0  0  0  0  0  0  0  0  0
   38.5920   32.2600   47.9860 C   0  0  0  0  0  0  0  0  0  0  0  0
   38.1550   30.9800   47.7420 C   0  0  0  0  0  0  0  0  0  0  0  0
   38.5340   30.2940   46.5830 C   0  0  0  0  0  0  0  0  0  0  0  0
   39.3620   30.8980   45.6560 C   0  0  0  0  0  0  0  0  0  0  0  0
   39.8940   30.5180   44.4740 N   0  0  0  0  0  0  0  0  0  0  0  0
   40.6230   31.5300   44.0230 N   0  0  0  0  0  0  0  0  0  0  0  0
   40.5660   32.5520   44.8990 C   0  0  0  0  0  0  0  0  0  0  0  0
   39.7650   32.1790   45.9550 C   0  0  0  0  0  0  0  0  0  0  0  0
   39.4360   32.9120   47.0690 C   0  0  0  0  0  0  0  0  0  0  0  0
   34.1030   29.2380   49.8810 C   0  0  0  0  0  0  0  0  0  0  0  0
   33.5350   29.7760   50.8590 O   0  0  0  0  0  0  0  0  0  0  0  0
   31.3940   27.2660   48.4500 C   0  0  0  0  0  0  0  0  0  0  0  0
   32.0020   26.6330   47.3810 C   0  0  0  0  0  0  0  0  0  0  0  0
   33.3400   26.8640   47.1260 C   0  0  0  0  0  0  0  0  0  0  0  0
   33.9920   27.7080   47.9490 N   0  0  0  0  0  0  0  0  0  0  0  0
   33.3880   28.3200   48.9890 C   0  0  0  0  0  0  0  0  0  0  0  0
   32.0910   28.0900   49.2280 N   0  0  0  0  0  0  0  0  0  0  0  0
   34.2370   24.0900   47.6350 Cl  0  0  0  0  0  0  0  0  0  0  0  0
   34.5030   24.9400   46.1520 C   0  0  0  0  0  0  0  0  0  0  0  0
   34.0440   26.2290   46.0200 C   0  0  0  0  0  0  0  0  0  0  0  0
   34.2970   26.8300   44.8060 C   0  0  0  0  0  0  0  0  0  0  0  0
   34.9630   26.2010   43.7830 C   0  0  0  0  0  0  0  0  0  0  0  0
   35.4080   24.9080   43.9540 C   0  0  0  0  0  0  0  0  0  0  0  0
   35.1820   24.2610   45.1470 C   0  0  0  0  0  0  0  0  0  0  0  0
   36.4663   28.6139   51.4291 H   0  0  0  0  0  0  0  0  0  0  0  0
   38.6962   29.5851   50.2270 H   0  0  0  0  0  0  0  0  0  0  0  0
   38.2796   32.7781   48.9047 H   0  0  0  0  0  0  0  0  0  0  0  0
   38.1716   29.2701   46.4090 H   0  0  0  0  0  0  0  0  0  0  0  0
   39.7584   29.6093   44.0085 H   0  0  0  0  0  0  0  0  0  0  0  0
   41.0740   33.5215   44.7891 H   0  0  0  0  0  0  0  0  0  0  0  0
   39.8059   33.9350   47.2322 H   0  0  0  0  0  0  0  0  0  0  0  0
   30.3287   27.0872   48.6580 H   0  0  0  0  0  0  0  0  0  0  0  0
   31.4249   25.9512   46.7391 H   0  0  0  0  0  0  0  0  0  0  0  0
   33.9492   27.8617   44.6491 H   0  0  0  0  0  0  0  0  0  0  0  0
   35.1402   26.7261   42.8328 H   0  0  0  0  0  0  0  0  0  0  0  0
   35.9416   24.3954   43.1401 H   0  0  0  0  0  0  0  0  0  0  0  0
   35.5309   23.2294   45.3020 H   0  0  0  0  0  0  0  0  0  0  0  0
  1 15  1  0
  1  2  2  0
  3  2  1  0
  4  3  2  0
  5  4  1  0
  5  1  1  0
  7  6  2  0
  7  4  1  0
  8  7  1  0
  9 13  1  0
  9  8  2  0
 10  9  1  0
 11 10  1  0
 11 12  2  0
 12 13  1  0
 13 14  2  0
 14  6  1  0
 15 16  2  0
 17 22  2  0
 18 17  1  0
 19 18  2  0
 19 20  1  0
 20 21  2  0
 21 22  1  0
 21 15  1  0
 24 23  1  0
 25 24  2  0
 25 19  1  0
 26 25  1  0
 27 28  1  0
 27 26  2  0
 28 29  2  0
 29 24  1  0
  2 30  1  0
  3 31  1  0
  6 32  1  0
  8 33  1  0
 10 34  1  0
 12 35  1  0
 14 36  1  0
 17 37  1  0
 18 38  1  0
 26 39  1  0
 27 40  1  0
 28 41  1  0
 29 42  1  0
M  ISO  8  30  14  31  14  32  14  33  14  34   9  35  14  36  14  37  14
M  ISO  5  38  14  39  14  40  14  41  14  42  14
M  END
>  <minimizedAffinity>  (1) 
-6.85948944

>  <minimizedRMSD>  (1) 
1.00342214

$$$$
