
     RDKit          3D

 43 45  0  0  0  0  0  0  0  0999 V2000
   35.4765   30.3398   47.7407 C   0  0  0  0  0  0  0  0  0  0  0  0
   32.8052   27.9762   48.8371 C   0  0  0  0  0  0  0  0  0  0  0  0
   33.9588   28.7584   48.8742 C   0  0  0  0  0  0  0  0  0  0  0  0
   34.2921   29.4942   47.7744 C   0  0  0  0  0  0  0  0  0  0  0  0
   33.4744   29.4351   46.6703 N   0  0  0  0  0  0  0  0  0  0  0  0
   32.3775   28.6741   46.6733 C   0  0  0  0  0  0  0  0  0  0  0  0
   32.0213   27.9378   47.7388 N   0  0  0  0  0  0  0  0  0  0  0  0
   36.5572   29.8545   48.6678 C   0  0  0  0  0  0  0  0  0  0  0  0
   37.1981   31.2516   49.6097 S   0  0  0  0  0  0  0  0  0  0  0  0
   38.5170   32.1360   48.7976 C   0  0  2  0  0  0  0  0  0  0  0  0
   38.9165   33.3276   49.5612 C   0  0  0  0  0  0  0  0  0  0  0  0
   39.4938   34.3559   48.6221 C   0  0  0  0  0  0  0  0  0  0  0  0
   40.2785   33.6905   47.5231 C   0  0  0  0  0  0  0  0  0  0  0  0
   39.4052   32.8982   46.6121 C   0  0  0  0  0  0  0  0  0  0  0  0
   38.2138   32.3760   47.3706 C   0  0  2  0  0  0  0  0  0  0  0  0
   35.1296   31.3322   48.1095 H   0  0  0  0  0  0  0  0  0  0  0  0
   35.8120   30.3671   46.6813 H   0  0  0  0  0  0  0  0  0  0  0  0
   32.4828   27.3698   49.6706 H   0  0  0  0  0  0  0  0  0  0  0  0
   34.4738   28.6930   49.8171 H   0  0  0  0  0  0  0  0  0  0  0  0
   31.7904   28.6883   45.7575 H   0  0  0  0  0  0  0  0  0  0  0  0
   37.4084   29.4726   48.0102 H   0  0  0  0  0  0  0  0  0  0  0  0
   36.3241   29.0271   49.3158 H   0  0  0  0  0  0  0  0  0  0  0  0
   39.3850   31.4008   48.7703 H   0  0  0  0  0  0  0  0  0  0  0  0
   39.7532   33.0039   50.2617 H   0  0  0  0  0  0  0  0  0  0  0  0
   38.1866   33.7667   50.2563 H   0  0  0  0  0  0  0  0  0  0  0  0
   40.2917   34.8978   49.2235 H   0  0  0  0  0  0  0  0  0  0  0  0
   38.8291   35.1549   48.3125 H   0  0  0  0  0  0  0  0  0  0  0  0
   40.8864   34.4510   47.0206 H   0  0  0  0  0  0  0  0  0  0  0  0
   40.9992   32.9941   48.0341 H   0  0  0  0  0  0  0  0  0  0  0  0
   39.1028   33.5823   45.7660 H   0  0  0  0  0  0  0  0  0  0  0  0
   40.0500   32.0803   46.1833 H   0  0  0  0  0  0  0  0  0  0  0  0
   38.0841   31.3298   46.9416 H   0  0  0  0  0  0  0  0  0  0  0  0
   35.9027   31.8133   49.1081 Cl  0  0  0  0  0  0  0  0  0  0  0  0
   35.9129   32.9533   47.7494 C   0  0  0  0  0  0  0  0  0  0  0  0
   37.0695   33.1467   46.9661 C   0  0  0  0  0  0  0  0  0  0  0  0
   36.8436   34.0536   45.9852 C   0  0  0  0  0  0  0  0  0  0  0  0
   37.7086   34.2402   45.3496 H   0  0  0  0  0  0  0  0  0  0  0  0
   35.7101   34.7451   45.6952 C   0  0  0  0  0  0  0  0  0  0  0  0
   35.6665   35.4362   44.8863 H   0  0  0  0  0  0  0  0  0  0  0  0
   34.6201   34.5082   46.4994 C   0  0  0  0  0  0  0  0  0  0  0  0
   34.7279   33.6033   47.5341 C   0  0  0  0  0  0  0  0  0  0  0  0
   33.7004   35.0378   46.3022 H   0  0  0  0  0  0  0  0  0  0  0  0
   33.8484   33.4387   48.1511 H   0  0  0  0  0  0  0  0  0  0  0  0
  1  4  1  0
  1  8  1  0
  2  3  2  0
  4  3  1  0
  5  6  1  0
  5  4  2  0
  6  7  2  0
  7  2  1  0
  8  9  1  0
 10 11  1  0
 10  9  1  0
 12 11  1  0
 13 12  1  0
 14 15  1  0
 14 13  1  0
 15 10  1  0
  1 16  1  0
  1 17  1  0
  2 18  1  0
  3 19  1  0
  6 20  1  0
  8 21  1  0
  8 22  1  0
 10 23  1  6
 11 24  1  0
 11 25  1  0
 12 26  1  0
 12 27  1  0
 13 28  1  0
 13 29  1  0
 14 30  1  0
 14 31  1  0
 15 32  1  6
 33 34  1  0
 34 35  2  0
 35 36  1  0
 36 37  1  0
 36 38  2  0
 38 39  1  0
 38 40  1  0
 40 41  2  0
 41 34  1  0
 40 42  1  0
 41 43  1  0
 15 35  1  0
M  ISO  8  16   8  17   8  18  14  19  14  20  14  21   8  22   8  23  13
M  ISO  8  24  13  25  13  26  13  27  13  28  13  29  13  30  13  31  13
M  ISO  3  32  13  37  15  39  16
M  END
>  <DihAtoms>  (1) 
13,14,34,33

>  <DihDeg>  (1) 
70.80417683590619

$$$$
