
     RDKit          3D

 30 32  0  0  0  0  0  0  0  0999 V2000
   37.9763   33.1694   49.4270 C   0  0  0  0  0  0  0  0  0  0  0  0
   39.0185   33.1593   48.4700 C   0  0  0  0  0  0  0  0  0  0  0  0
   39.0248   32.1235   47.5445 C   0  0  0  0  0  0  0  0  0  0  0  0
   38.0321   31.1685   47.5994 N   0  0  0  0  0  0  0  0  0  0  0  0
   37.0540   31.2313   48.5449 C   0  0  0  0  0  0  0  0  0  0  0  0
   37.0318   32.2253   49.4478 N   0  0  0  0  0  0  0  0  0  0  0  0
   37.2719   29.3504   51.0475 Br  0  0  0  0  0  0  0  0  0  0  0  0
   35.9536   29.3146   49.6590 C   0  0  0  0  0  0  0  0  0  0  0  0
   35.9966   30.2229   48.6114 C   0  0  0  0  0  0  0  0  0  0  0  0
   35.0140   30.1274   47.6595 C   0  0  0  0  0  0  0  0  0  0  0  0
   33.9961   29.1790   47.6967 C   0  0  0  0  0  0  0  0  0  0  0  0
   33.9966   28.3040   48.7513 C   0  0  0  0  0  0  0  0  0  0  0  0
   34.9717   28.3756   49.7240 C   0  0  0  0  0  0  0  0  0  0  0  0
   37.9952   33.9868   50.1356 H   0  0  0  0  0  0  0  0  0  0  0  0
   39.7693   33.9370   48.4777 H   0  0  0  0  0  0  0  0  0  0  0  0
   39.8043   32.0787   46.7957 H   0  0  0  0  0  0  0  0  0  0  0  0
   35.0777   30.8584   46.8480 H   0  0  0  0  0  0  0  0  0  0  0  0
   33.2364   27.5419   48.8441 H   0  0  0  0  0  0  0  0  0  0  0  0
   34.9429   27.6717   50.5407 H   0  0  0  0  0  0  0  0  0  0  0  0
   34.5702   30.7256   45.1258 Cl  0  0  0  0  0  0  0  0  0  0  0  0
   33.1379   29.7985   45.4480 C   0  0  0  0  0  0  0  0  0  0  0  0
   32.9846   29.1397   46.6457 C   0  0  0  0  0  0  0  0  0  0  0  0
   31.8133   28.4105   46.8491 C   0  0  0  0  0  0  0  0  0  0  0  0
   31.6909   27.8843   47.8059 H   0  0  0  0  0  0  0  0  0  0  0  0
   30.8071   28.3179   45.9146 C   0  0  0  0  0  0  0  0  0  0  0  0
   29.9022   27.7518   46.0772 H   0  0  0  0  0  0  0  0  0  0  0  0
   31.0155   28.9996   44.7309 C   0  0  0  0  0  0  0  0  0  0  0  0
   32.1482   29.7398   44.4610 C   0  0  0  0  0  0  0  0  0  0  0  0
   30.2846   28.9963   43.9188 H   0  0  0  0  0  0  0  0  0  0  0  0
   32.3077   30.2734   43.5306 H   0  0  0  0  0  0  0  0  0  0  0  0
  1  6  2  0
  2  1  1  0
  3  4  1  0
  3  2  2  0
  4  5  2  0
  5  9  1  0
  5  6  1  0
  8 13  2  0
  8  7  1  0
  9  8  1  0
 10 11  1  0
 10  9  2  0
 11 12  2  0
 12 13  1  0
  1 14  1  0
  2 15  1  0
  3 16  1  0
 10 17  1  0
 12 18  1  0
 13 19  1  0
 20 21  1  0
 21 22  2  0
 22 23  1  0
 23 24  1  0
 23 25  2  0
 25 26  1  0
 25 27  1  0
 27 28  2  0
 28 21  1  0
 27 29  1  0
 28 30  1  0
 11 22  1  0
M  ISO  8  14  14  15  14  16  14  17  14  18  14  19  14  24  15  26  16
M  END
>  <DihAtoms>  (1) 
9,10,21,20

>  <DihDeg>  (1) 
134.95774366686283

$$$$
