
     RDKit          3D

 36 38  0  0  0  0  0  0  0  0999 V2000
   34.6530   29.6140   48.9290 C   0  0  0  0  0  0  0  0  0  0  0  0
   34.2540   30.3320   47.7910 C   0  0  0  0  0  0  0  0  0  0  0  0
   33.4880   29.6720   46.8430 C   0  0  0  0  0  0  0  0  0  0  0  0
   33.1570   28.3500   47.0670 N   0  0  0  0  0  0  0  0  0  0  0  0
   33.5570   27.6850   48.1760 C   0  0  0  0  0  0  0  0  0  0  0  0
   34.2980   28.3160   49.0920 N   0  0  0  0  0  0  0  0  0  0  0  0
   35.4730   30.3500   49.9390 C   0  0  0  0  0  0  0  0  0  0  0  0
   36.4650   31.2530   49.2360 C   0  0  0  0  0  0  0  0  0  0  0  0
   37.8810   30.7720   49.3730 C   0  0  0  0  0  0  0  0  0  0  0  0
   38.2810   30.6070   50.8210 C   0  0  0  0  0  0  0  0  0  0  0  0
   37.2590   29.8910   51.6400 C   0  0  0  0  0  0  0  0  0  0  0  0
   36.1070   29.3430   50.8250 C   0  0  0  0  0  0  0  0  0  0  0  0
   35.2710   29.3670   44.4070 Cl  0  0  0  0  0  0  0  0  0  0  0  0
   33.7320   30.2070   44.4530 C   0  0  0  0  0  0  0  0  0  0  0  0
   33.0030   30.2850   45.6170 C   0  0  0  0  0  0  0  0  0  0  0  0
   31.8360   30.9660   45.4960 C   0  0  0  0  0  0  0  0  0  0  0  0
   31.3720   31.5490   44.3310 C   0  0  0  0  0  0  0  0  0  0  0  0
   32.1210   31.4520   43.1950 C   0  0  0  0  0  0  0  0  0  0  0  0
   33.3160   30.7700   43.2670 C   0  0  0  0  0  0  0  0  0  0  0  0
   34.5402   31.3855   47.6557 H   0  0  0  0  0  0  0  0  0  0  0  0
   33.2741   26.6321   48.3224 H   0  0  0  0  0  0  0  0  0  0  0  0
   34.8575   31.0130   50.5648 H   0  0  0  0  0  0  0  0  0  0  0  0
   36.3920   32.2615   49.6692 H   0  0  0  0  0  0  0  0  0  0  0  0
   36.2150   31.2527   48.1648 H   0  0  0  0  0  0  0  0  0  0  0  0
   37.9780   29.8016   48.8642 H   0  0  0  0  0  0  0  0  0  0  0  0
   38.5427   31.5246   48.9195 H   0  0  0  0  0  0  0  0  0  0  0  0
   39.2211   30.0372   50.8604 H   0  0  0  0  0  0  0  0  0  0  0  0
   38.3886   31.6161   51.2454 H   0  0  0  0  0  0  0  0  0  0  0  0
   37.7508   29.0526   52.1551 H   0  0  0  0  0  0  0  0  0  0  0  0
   36.8374   30.6238   52.3437 H   0  0  0  0  0  0  0  0  0  0  0  0
   35.3432   28.9591   51.5172 H   0  0  0  0  0  0  0  0  0  0  0  0
   36.5176   28.5557   50.1757 H   0  0  0  0  0  0  0  0  0  0  0  0
   31.2096   31.0620   46.3951 H   0  0  0  0  0  0  0  0  0  0  0  0
   30.4110   32.0842   44.3205 H   0  0  0  0  0  0  0  0  0  0  0  0
   31.7816   31.9040   42.2513 H   0  0  0  0  0  0  0  0  0  0  0  0
   33.9437   30.6743   42.3687 H   0  0  0  0  0  0  0  0  0  0  0  0
  1  6  1  0
  1  7  1  0
  2  1  2  0
  3  4  2  0
  3  2  1  0
  4  5  1  0
  5  6  2  0
  7 12  1  0
  8  9  1  0
  8  7  1  0
  9 10  1  0
 10 11  1  0
 12 11  1  0
 13 14  1  0
 14 15  2  0
 15  3  1  0
 16 15  1  0
 17 16  2  0
 18 19  2  0
 18 17  1  0
 19 14  1  0
  2 20  1  0
  5 21  1  0
  7 22  1  0
  8 23  1  0
  8 24  1  0
  9 25  1  0
  9 26  1  0
 10 27  1  0
 10 28  1  0
 11 29  1  0
 11 30  1  0
 12 31  1  0
 12 32  1  0
 16 33  1  0
 17 34  1  0
 18 35  1  0
 19 36  1  0
M  ISO  8  20  14  21  14  22  13  23  13  24  13  25  13  26  13  27  13
M  ISO  8  28  13  29  13  30  13  31  13  32  13  33  14  34  14  35  14
M  ISO  1  36  14
M  END
>  <minimizedAffinity>  (1) 
-5.44721985

>  <minimizedRMSD>  (1) 
1.11137867

$$$$
