
     RDKit          3D

 32 34  0  0  1  0  0  0  0  0999 V2000
   37.9510   31.2970   49.6880 C   0  0  0  0  0  0  0  0  0  0  0  0
   38.2960   32.6300   49.8670 C   0  0  0  0  0  0  0  0  0  0  0  0
   38.8110   33.2760   48.7530 C   0  0  0  0  0  0  0  0  0  0  0  0
   38.9540   32.6020   47.5650 N   0  0  0  0  0  0  0  0  0  0  0  0
   38.6000   31.3020   47.4450 C   0  0  0  0  0  0  0  0  0  0  0  0
   38.0950   30.6320   48.5040 N   0  0  0  0  0  0  0  0  0  0  0  0
   36.4710   30.3800   45.4140 Cl  0  0  0  0  0  0  0  0  0  0  0  0
   38.1460   30.6230   45.0170 C   0  0  0  0  0  0  0  0  0  0  0  0
   38.9160   31.0360   46.0670 C   0  0  0  0  0  0  0  0  0  0  0  0
   40.2640   31.2700   45.8540 C   0  0  0  0  0  0  0  0  0  0  0  0
   40.7930   31.0790   44.5760 C   0  0  0  0  0  0  0  0  0  0  0  0
   39.9400   30.6600   43.5700 C   0  0  0  0  0  0  0  0  0  0  0  0
   38.5980   30.4140   43.7350 C   0  0  0  0  0  0  0  0  0  0  0  0
   37.3820   30.5870   50.8770 C   0  0  1  0  0  0  0  0  0  0  0  0
   36.3310   29.5810   50.7440 C   0  0  2  0  0  0  0  0  0  0  0  0
   37.7350   29.0820   50.8740 C   0  0  0  0  0  0  0  0  0  0  0  0
   35.6890   29.4930   49.5140 O   0  0  0  0  0  0  0  0  0  0  0  0
   34.4690   29.9650   49.1470 C   0  0  0  0  0  0  0  0  0  0  0  0
   34.2880   30.4640   48.0000 O   0  0  0  0  0  0  0  0  0  0  0  0
   33.5820   29.7850   50.2130 N   0  0  0  0  0  0  0  0  0  0  0  0
   38.1688   33.1418   50.8323 H   0  0  0  0  0  0  0  0  0  0  0  0
   39.1064   34.3334   48.8213 H   0  0  0  0  0  0  0  0  0  0  0  0
   40.9095   31.6019   46.6805 H   0  0  0  0  0  0  0  0  0  0  0  0
   41.8596   31.2569   44.3741 H   0  0  0  0  0  0  0  0  0  0  0  0
   40.3666   30.5134   42.5667 H   0  0  0  0  0  0  0  0  0  0  0  0
   37.9444   30.0801   42.9157 H   0  0  0  0  0  0  0  0  0  0  0  0
   37.4641   31.4659   51.5333 H   0  0  0  0  0  0  0  0  0  0  0  0
   35.4041   29.3550   51.2916 H   0  0  0  0  0  0  0  0  0  0  0  0
   38.0665   28.5857   51.7980 H   0  0  0  0  0  0  0  0  0  0  0  0
   38.3997   28.4247   50.2942 H   0  0  0  0  0  0  0  0  0  0  0  0
   32.6006   30.0843   50.1225 H   0  0  0  0  0  0  0  0  0  0  0  0
   33.9101   29.3531   51.0886 H   0  0  0  0  0  0  0  0  0  0  0  0
  1  2  2  0
  1 14  1  0
  3  2  1  0
  4  3  2  0
  5  4  1  0
  5  6  2  0
  6  1  1  0
  8  7  1  0
  8  9  2  0
  9  5  1  0
 10  9  1  0
 11 10  2  0
 12 13  2  0
 12 11  1  0
 13  8  1  0
 15 16  1  0
 15 14  1  0
 16 14  1  0
 17 15  1  0
 18 17  1  0
 18 20  1  0
 19 18  2  0
  2 21  1  0
  3 22  1  0
 10 23  1  0
 11 24  1  0
 12 25  1  0
 13 26  1  0
 14 27  1  1
 15 28  1  1
 16 29  1  0
 16 30  1  0
 20 31  1  0
 20 32  1  0
M  ISO  8  21  14  22  14  23  14  24  14  25  14  26  14  27  13  28  13
M  ISO  2  29  13  30  13
M  END
>  <minimizedAffinity>  (1) 
-6.22861385

>  <minimizedRMSD>  (1) 
1.68619263

$$$$
