
     RDKit          3D

 37 40  0  0  0  0  0  0  0  0999 V2000
   38.4236   31.3015   48.2610 Br  0  0  0  0  0  0  0  0  0  0  0  0
   37.2239   30.7922   46.8583 C   0  0  0  0  0  0  0  0  0  0  0  0
   36.0377   30.1627   47.1619 C   0  0  0  0  0  0  0  0  0  0  0  0
   35.1917   29.8206   46.1026 C   0  0  0  0  0  0  0  0  0  0  0  0
   35.5635   30.1182   44.8067 C   0  0  0  0  0  0  0  0  0  0  0  0
   36.7625   30.7542   44.4972 C   0  0  0  0  0  0  0  0  0  0  0  0
   37.5807   31.0833   45.5432 C   0  0  0  0  0  0  0  0  0  0  0  0
   36.3724   29.0894   50.7615 C   0  0  0  0  0  0  0  0  0  0  0  0
   36.6764   29.3307   49.4123 C   0  0  0  0  0  0  0  0  0  0  0  0
   35.7463   29.8965   48.5660 C   0  0  0  0  0  0  0  0  0  0  0  0
   34.5291   30.2033   49.1080 N   0  0  0  0  0  0  0  0  0  0  0  0
   34.2394   29.9693   50.4065 C   0  0  0  0  0  0  0  0  0  0  0  0
   35.1417   29.4217   51.2261 N   0  0  0  0  0  0  0  0  0  0  0  0
   38.8634   31.7568   45.2942 C   0  0  0  0  0  0  0  0  0  0  0  0
   39.0151   33.0657   44.8718 C   0  0  0  0  0  0  0  0  0  0  0  0
   40.3207   33.3556   44.7589 N   0  0  0  0  0  0  0  0  0  0  0  0
   40.9996   32.2333   45.1086 C   0  0  0  0  0  0  0  0  0  0  0  0
   40.1241   31.2670   45.4312 N   0  0  0  0  0  0  0  0  0  0  0  0
   34.2638   29.3270   46.3566 H   0  0  0  0  0  0  0  0  0  0  0  0
   34.8542   29.8205   44.0516 H   0  0  0  0  0  0  0  0  0  0  0  0
   36.9919   30.9558   43.4794 H   0  0  0  0  0  0  0  0  0  0  0  0
   37.1073   28.6431   51.4311 H   0  0  0  0  0  0  0  0  0  0  0  0
   37.6506   29.0311   49.1244 H   0  0  0  0  0  0  0  0  0  0  0  0
   33.2642   30.2305   50.7811 H   0  0  0  0  0  0  0  0  0  0  0  0
   38.2073   33.7801   44.6549 H   0  0  0  0  0  0  0  0  0  0  0  0
   40.7241   34.2685   44.4598 H   0  0  0  0  0  0  0  0  0  0  0  0
   41.9412   29.8394   46.5909 Cl  0  0  0  0  0  0  0  0  0  0  0  0
   43.0405   30.9693   45.8060 C   0  0  0  0  0  0  0  0  0  0  0  0
   42.4503   32.0495   45.1462 C   0  0  0  0  0  0  0  0  0  0  0  0
   43.2851   32.9723   44.5085 C   0  0  0  0  0  0  0  0  0  0  0  0
   42.8665   33.8391   43.9762 H   0  0  0  0  0  0  0  0  0  0  0  0
   44.6619   32.8318   44.5225 C   0  0  0  0  0  0  0  0  0  0  0  0
   45.3578   33.5029   44.0539 H   0  0  0  0  0  0  0  0  0  0  0  0
   45.2049   31.7541   45.1833 C   0  0  0  0  0  0  0  0  0  0  0  0
   44.4126   30.8234   45.8236 C   0  0  0  0  0  0  0  0  0  0  0  0
   46.2595   31.5277   45.2700 H   0  0  0  0  0  0  0  0  0  0  0  0
   44.7420   29.9472   46.3670 H   0  0  0  0  0  0  0  0  0  0  0  0
  2  3  2  0
  2  1  1  0
  3 10  1  0
  4  3  1  0
  5  4  2  0
  6  5  1  0
  6  7  2  0
  7  2  1  0
  8 13  2  0
  9  8  1  0
 10 11  1  0
 10  9  2  0
 11 12  2  0
 12 13  1  0
 14 18  1  0
 14  7  1  0
 15 14  2  0
 16 15  1  0
 16 17  1  0
 17 18  2  0
  4 19  1  0
  5 20  1  0
  6 21  1  0
  8 22  1  0
  9 23  1  0
 12 24  1  0
 15 25  1  0
 16 26  1  0
 27 28  1  0
 28 29  2  0
 29 30  1  0
 30 31  1  0
 30 32  2  0
 32 33  1  0
 32 34  1  0
 34 35  2  0
 35 28  1  0
 34 36  1  0
 35 37  1  0
 17 29  1  0
M  ISO  8  19  14  20  14  21  14  22  14  23  14  24  14  25  14  26   9
M  ISO  2  31  15  33  16
M  END
>  <DihAtoms>  (1) 
15,16,28,27

>  <DihDeg>  (1) 
179.99973572952146

$$$$
