
     RDKit          3D

 30 32  0  0  0  0  0  0  0  0999 V2000
   37.9819   33.1715   49.4331 C   0  0  0  0  0  0  0  0  0  0  0  0
   39.0162   33.1694   48.4740 C   0  0  0  0  0  0  0  0  0  0  0  0
   39.0143   32.1233   47.5364 C   0  0  0  0  0  0  0  0  0  0  0  0
   38.0268   31.1737   47.5977 N   0  0  0  0  0  0  0  0  0  0  0  0
   37.0480   31.2199   48.5451 C   0  0  0  0  0  0  0  0  0  0  0  0
   37.0493   32.2190   49.4411 N   0  0  0  0  0  0  0  0  0  0  0  0
   37.2658   29.3494   51.0555 Br  0  0  0  0  0  0  0  0  0  0  0  0
   35.9577   29.3160   49.6665 C   0  0  0  0  0  0  0  0  0  0  0  0
   35.9958   30.2147   48.6164 C   0  0  0  0  0  0  0  0  0  0  0  0
   35.0138   30.1302   47.6458 C   0  0  0  0  0  0  0  0  0  0  0  0
   34.0033   29.1833   47.6919 C   0  0  0  0  0  0  0  0  0  0  0  0
   33.9935   28.3031   48.7503 C   0  0  0  0  0  0  0  0  0  0  0  0
   34.9717   28.3774   49.7291 C   0  0  0  0  0  0  0  0  0  0  0  0
   38.0299   33.9973   50.1303 H   0  0  0  0  0  0  0  0  0  0  0  0
   39.8101   33.8995   48.3947 H   0  0  0  0  0  0  0  0  0  0  0  0
   39.7402   31.9929   46.7474 H   0  0  0  0  0  0  0  0  0  0  0  0
   35.0959   30.8591   46.8501 H   0  0  0  0  0  0  0  0  0  0  0  0
   33.2842   29.1990   46.8870 H   0  0  0  0  0  0  0  0  0  0  0  0
   33.1925   27.5764   48.7578 H   0  0  0  0  0  0  0  0  0  0  0  0
   36.6597   29.1066   52.0634 Cl  0  0  0  0  0  0  0  0  0  0  0  0
   35.6241   27.6912   51.9117 C   0  0  0  0  0  0  0  0  0  0  0  0
   34.8479   27.3887   50.7950 C   0  0  0  0  0  0  0  0  0  0  0  0
   34.0772   26.2338   50.8164 C   0  0  0  0  0  0  0  0  0  0  0  0
   33.5111   26.0798   49.9139 H   0  0  0  0  0  0  0  0  0  0  0  0
   34.1034   25.4287   51.9325 C   0  0  0  0  0  0  0  0  0  0  0  0
   33.4820   24.5333   51.9026 H   0  0  0  0  0  0  0  0  0  0  0  0
   34.8643   25.7130   53.0434 C   0  0  0  0  0  0  0  0  0  0  0  0
   35.6434   26.8736   53.0308 C   0  0  0  0  0  0  0  0  0  0  0  0
   34.8509   25.0380   53.9101 H   0  0  0  0  0  0  0  0  0  0  0  0
   36.2210   27.0577   53.9161 H   0  0  0  0  0  0  0  0  0  0  0  0
  1  6  2  0
  2  1  1  0
  3  4  1  0
  3  2  2  0
  4  5  2  0
  5  9  1  0
  5  6  1  0
  8 13  2  0
  8  7  1  0
  9  8  1  0
 10 11  1  0
 10  9  2  0
 11 12  2  0
 12 13  1  0
  1 14  1  0
  2 15  1  0
  3 16  1  0
 10 17  1  0
 11 18  1  0
 12 19  1  0
 20 21  1  0
 21 22  2  0
 22 23  1  0
 23 24  1  0
 23 25  2  0
 25 26  1  0
 25 27  1  0
 27 28  2  0
 28 21  1  0
 27 29  1  0
 28 30  1  0
 13 22  1  0
M  ISO  8  14  14  15  14  16  14  17  14  18  14  19  14  24  15  26  16
M  END
>  <DihAtoms>  (1) 
7,12,21,20

>  <DihDeg>  (1) 
-90.00073996137904

$$$$
