
     RDKit          3D

 34 36  0  0  0  0  0  0  0  0999 V2000
   37.4689   31.4366   49.3830 C   0  0  0  0  0  0  0  0  0  0  0  0
   37.8667   32.7205   49.7022 C   0  0  0  0  0  0  0  0  0  0  0  0
   38.6797   33.3307   48.7559 C   0  0  0  0  0  0  0  0  0  0  0  0
   39.0290   32.6638   47.6106 N   0  0  0  0  0  0  0  0  0  0  0  0
   38.6132   31.4091   47.3456 C   0  0  0  0  0  0  0  0  0  0  0  0
   37.8131   30.7807   48.2567 N   0  0  0  0  0  0  0  0  0  0  0  0
   36.5577   30.7283   50.3523 C   0  0  0  0  0  0  0  0  0  0  0  0
   36.4971   29.3098   50.4727 C   0  0  0  0  0  0  0  0  0  0  0  0
   37.3414   30.0502   51.4975 C   0  0  0  0  0  0  0  0  0  0  0  0
   38.9782   30.7155   46.1213 C   0  0  0  0  0  0  0  0  0  0  0  0
   41.0339   31.5228   44.9979 C   0  0  0  0  0  0  0  0  0  0  0  0
   40.4748   32.3220   44.1981 O   0  0  0  0  0  0  0  0  0  0  0  0
   40.4254   30.7492   46.0053 N   0  0  0  0  0  0  0  0  0  0  0  0
   37.5617   33.2001   50.6195 H   0  0  0  0  0  0  0  0  0  0  0  0
   39.0396   34.3458   48.9294 H   0  0  0  0  0  0  0  0  0  0  0  0
   35.6937   31.3623   50.7080 H   0  0  0  0  0  0  0  0  0  0  0  0
   35.5672   28.8112   50.7859 H   0  0  0  0  0  0  0  0  0  0  0  0
   37.1238   28.6686   49.7991 H   0  0  0  0  0  0  0  0  0  0  0  0
   36.8918   30.1866   52.4932 H   0  0  0  0  0  0  0  0  0  0  0  0
   38.4280   30.0190   51.4354 H   0  0  0  0  0  0  0  0  0  0  0  0
   38.5266   31.2360   45.2633 H   0  0  0  0  0  0  0  0  0  0  0  0
   38.7025   29.6462   46.1760 H   0  0  0  0  0  0  0  0  0  0  0  0
   41.0479   30.2155   46.6474 H   0  0  0  0  0  0  0  0  0  0  0  0
   42.5568   28.8941   44.6844 Cl  0  0  0  0  0  0  0  0  0  0  0  0
   43.3077   30.4677   44.5086 C   0  0  0  0  0  0  0  0  0  0  0  0
   42.4616   31.5431   44.6851 C   0  0  0  0  0  0  0  0  0  0  0  0
   42.9439   32.8503   44.5697 C   0  0  0  0  0  0  0  0  0  0  0  0
   42.3644   33.7564   44.6893 H   0  0  0  0  0  0  0  0  0  0  0  0
   44.2983   33.0364   44.2723 C   0  0  0  0  0  0  0  0  0  0  0  0
   44.7450   34.0315   44.1670 H   0  0  0  0  0  0  0  0  0  0  0  0
   45.1517   31.9626   44.0941 C   0  0  0  0  0  0  0  0  0  0  0  0
   44.6393   30.6872   44.2159 C   0  0  0  0  0  0  0  0  0  0  0  0
   46.2090   32.0938   43.8622 H   0  0  0  0  0  0  0  0  0  0  0  0
   45.2263   29.7860   44.0944 H   0  0  0  0  0  0  0  0  0  0  0  0
  1  2  2  0
  1  7  1  0
  3  2  1  0
  4  3  2  0
  5  4  1  0
  5  6  2  0
  6  1  1  0
  7  8  1  0
  7  9  1  0
  8  9  1  0
 10  5  1  0
 11 13  1  0
 12 11  2  0
 13 10  1  0
  2 14  1  0
  3 15  1  0
  7 16  1  0
  8 17  1  0
  8 18  1  0
  9 19  1  0
  9 20  1  0
 10 21  1  0
 10 22  1  0
 13 23  1  0
 24 25  1  0
 25 26  2  0
 26 27  1  0
 27 28  1  0
 27 29  2  0
 29 30  1  0
 29 31  1  0
 31 32  2  0
 32 25  1  0
 31 33  1  0
 32 34  1  0
 11 26  1  0
M  ISO  8  14  14  15  14  16  13  17  13  18  13  19  13  20  13  21   8
M  ISO  3  22   8  28  15  30  16
M  END
>  <DihAtoms>  (1) 
12,10,25,24

>  <DihDeg>  (1) 
-117.21265830138948

$$$$
