
     RDKit          3D

 40 42  0  0  1  0  0  0  0  0999 V2000
   34.1810   30.0600   44.1720 C   0  0  1  0  0  0  0  0  0  0  0  0
   33.4120   31.2870   44.0210 C   0  0  0  0  0  0  0  0  0  0  0  0
   33.3820   31.6500   42.5670 C   0  0  0  0  0  0  0  0  0  0  0  0
   34.7160   31.4710   41.9380 C   0  0  0  0  0  0  0  0  0  0  0  0
   35.8610   31.3920   42.8740 C   0  0  0  0  0  0  0  0  0  0  0  0
   35.6610   30.4120   44.0300 C   0  0  1  0  0  0  0  0  0  0  0  0
   33.8890   27.2870   46.6260 C   0  0  0  0  0  0  0  0  0  0  0  0
   34.0400   27.9640   45.3840 C   0  0  0  0  0  0  0  0  0  0  0  0
   34.0510   29.3520   45.4520 C   0  0  0  0  0  0  0  0  0  0  0  0
   33.9200   29.9990   46.6730 N   0  0  0  0  0  0  0  0  0  0  0  0
   33.7810   29.3100   47.8140 C   0  0  0  0  0  0  0  0  0  0  0  0
   33.7630   27.9560   47.8060 N   0  0  0  0  0  0  0  0  0  0  0  0
   37.5300   30.7960   45.8660 C   0  0  0  0  0  0  0  0  0  0  0  0
   38.3020   30.1070   45.1550 O   0  0  0  0  0  0  0  0  0  0  0  0
   36.2590   30.9310   45.2290 N   0  0  0  0  0  0  0  0  0  0  0  0
   39.6940   32.8790   45.9360 Cl  0  0  0  0  0  0  0  0  0  0  0  0
   38.7060   32.4160   47.3240 C   0  0  0  0  0  0  0  0  0  0  0  0
   37.7310   31.4330   47.1610 C   0  0  0  0  0  0  0  0  0  0  0  0
   36.9800   31.1030   48.2870 C   0  0  0  0  0  0  0  0  0  0  0  0
   37.1730   31.7090   49.5180 C   0  0  0  0  0  0  0  0  0  0  0  0
   38.1550   32.6910   49.6560 C   0  0  0  0  0  0  0  0  0  0  0  0
   38.9300   33.0490   48.5490 C   0  0  0  0  0  0  0  0  0  0  0  0
   33.7793   29.3854   43.4016 H   0  0  0  0  0  0  0  0  0  0  0  0
   32.3863   31.1300   44.3861 H   0  0  0  0  0  0  0  0  0  0  0  0
   33.8745   32.0973   44.6036 H   0  0  0  0  0  0  0  0  0  0  0  0
   32.6538   31.0062   42.0520 H   0  0  0  0  0  0  0  0  0  0  0  0
   33.0962   32.7086   42.4794 H   0  0  0  0  0  0  0  0  0  0  0  0
   34.6920   30.5394   41.3537 H   0  0  0  0  0  0  0  0  0  0  0  0
   34.8855   32.3730   41.3317 H   0  0  0  0  0  0  0  0  0  0  0  0
   36.7494   31.0784   42.3061 H   0  0  0  0  0  0  0  0  0  0  0  0
   35.9712   32.3904   43.3224 H   0  0  0  0  0  0  0  0  0  0  0  0
   36.1786   29.4644   43.8199 H   0  0  0  0  0  0  0  0  0  0  0  0
   33.8735   26.1871   46.6338 H   0  0  0  0  0  0  0  0  0  0  0  0
   34.1415   27.4237   44.4312 H   0  0  0  0  0  0  0  0  0  0  0  0
   33.6805   29.8500   48.7670 H   0  0  0  0  0  0  0  0  0  0  0  0
   35.6199   31.5457   45.7529 H   0  0  0  0  0  0  0  0  0  0  0  0
   36.2025   30.3303   48.1951 H   0  0  0  0  0  0  0  0  0  0  0  0
   36.5561   31.4179   50.3810 H   0  0  0  0  0  0  0  0  0  0  0  0
   38.3179   33.1794   50.6281 H   0  0  0  0  0  0  0  0  0  0  0  0
   39.7081   33.8211   48.6416 H   0  0  0  0  0  0  0  0  0  0  0  0
  1  9  1  0
  2  1  1  0
  3  2  1  0
  4  3  1  0
  4  5  1  0
  5  6  1  0
  6  1  1  0
  6 15  1  0
  7 12  2  0
  8  9  2  0
  8  7  1  0
  9 10  1  0
 10 11  2  0
 12 11  1  0
 13 18  1  0
 14 13  2  0
 15 13  1  0
 16 17  1  0
 17 22  2  0
 18 17  1  0
 18 19  2  0
 19 20  1  0
 20 21  2  0
 22 21  1  0
  1 23  1  6
  2 24  1  0
  2 25  1  0
  3 26  1  0
  3 27  1  0
  4 28  1  0
  4 29  1  0
  5 30  1  0
  5 31  1  0
  6 32  1  6
  7 33  1  0
  8 34  1  0
 11 35  1  0
 15 36  1  0
 19 37  1  0
 20 38  1  0
 21 39  1  0
 22 40  1  0
M  ISO  8  23  13  24  13  25  13  26  13  27  13  28  13  29  13  30  13
M  ISO  8  31  13  32  13  33  14  34  14  35  14  37  14  38  14  39  14
M  ISO  1  40  14
M  END
>  <minimizedAffinity>  (1) 
-5.19248295

>  <minimizedRMSD>  (1) 
4.76032257

$$$$
