
     RDKit          3D

 34 36  0  0  1  0  0  0  0  0999 V2000
   36.3160   29.9790   48.9880 N   0  0  0  0  0  0  0  0  0  0  0  0
   36.9940   31.1570   48.5780 C   0  0  1  0  0  0  0  0  0  0  0  0
   37.5840   31.7230   49.8620 C   0  0  0  0  0  0  0  0  0  0  0  0
   37.1740   30.6990   50.9450 C   0  0  0  0  0  0  0  0  0  0  0  0
   37.0480   29.4620   50.1090 C   0  0  0  0  0  0  0  0  0  0  0  0
   35.1450   29.4250   48.4130 C   0  0  0  0  0  0  0  0  0  0  0  0
   34.4740   30.1710   47.4320 C   0  0  0  0  0  0  0  0  0  0  0  0
   33.3420   29.6620   46.7960 C   0  0  0  0  0  0  0  0  0  0  0  0
   32.9560   28.4060   47.2030 N   0  0  0  0  0  0  0  0  0  0  0  0
   33.6220   27.7090   48.1530 C   0  0  0  0  0  0  0  0  0  0  0  0
   34.7390   28.2060   48.7840 N   0  0  0  0  0  0  0  0  0  0  0  0
   37.8410   31.1180   47.4320 C   0  0  0  0  0  0  0  0  0  0  0  0
   38.2330   30.0150   47.0660 O   0  0  0  0  0  0  0  0  0  0  0  0
   36.6670   31.1390   44.5440 Cl  0  0  0  0  0  0  0  0  0  0  0  0
   38.0900   32.0210   45.1150 C   0  0  0  0  0  0  0  0  0  0  0  0
   38.5190   31.9140   46.4190 C   0  0  0  0  0  0  0  0  0  0  0  0
   39.6340   32.6640   46.6820 C   0  0  0  0  0  0  0  0  0  0  0  0
   40.3170   33.4610   45.8170 C   0  0  0  0  0  0  0  0  0  0  0  0
   39.8340   33.5200   44.5290 C   0  0  0  0  0  0  0  0  0  0  0  0
   38.7300   32.8160   44.1530 C   0  0  0  0  0  0  0  0  0  0  0  0
   36.2766   31.8476   48.1107 H   0  0  0  0  0  0  0  0  0  0  0  0
   38.6790   31.7980   49.7893 H   0  0  0  0  0  0  0  0  0  0  0  0
   37.2237   32.7388   50.0817 H   0  0  0  0  0  0  0  0  0  0  0  0
   37.9496   30.5910   51.7175 H   0  0  0  0  0  0  0  0  0  0  0  0
   36.2701   30.9656   51.5124 H   0  0  0  0  0  0  0  0  0  0  0  0
   36.4869   28.6735   50.6320 H   0  0  0  0  0  0  0  0  0  0  0  0
   38.0041   28.9829   49.8513 H   0  0  0  0  0  0  0  0  0  0  0  0
   34.8457   31.1702   47.1611 H   0  0  0  0  0  0  0  0  0  0  0  0
   32.7967   30.2248   46.0240 H   0  0  0  0  0  0  0  0  0  0  0  0
   33.2571   26.7091   48.4306 H   0  0  0  0  0  0  0  0  0  0  0  0
   40.0216   32.6165   47.7103 H   0  0  0  0  0  0  0  0  0  0  0  0
   41.2067   34.0275   46.1294 H   0  0  0  0  0  0  0  0  0  0  0  0
   40.3502   34.1485   43.7884 H   0  0  0  0  0  0  0  0  0  0  0  0
   38.3505   32.8697   43.1219 H   0  0  0  0  0  0  0  0  0  0  0  0
  1  5  1  0
  2  1  1  0
  2  3  1  0
  3  4  1  0
  5  4  1  0
  6 11  1  0
  6  1  1  0
  7  6  2  0
  8  9  2  0
  8  7  1  0
  9 10  1  0
 10 11  2  0
 12  2  1  0
 13 12  2  0
 14 15  1  0
 15 16  2  0
 16 17  1  0
 16 12  1  0
 18 17  2  0
 19 18  1  0
 20 19  2  0
 20 15  1  0
  2 21  1  6
  3 22  1  0
  3 23  1  0
  4 24  1  0
  4 25  1  0
  5 26  1  0
  5 27  1  0
  7 28  1  0
  8 29  1  0
 10 30  1  0
 17 31  1  0
 18 32  1  0
 19 33  1  0
 20 34  1  0
M  ISO  8  21  13  22  13  23  13  24  13  25  13  26  13  27  13  28  14
M  ISO  6  29  14  30  14  31  14  32  14  33  14  34  14
M  END
>  <minimizedAffinity>  (1) 
-5.76432419

>  <minimizedRMSD>  (1) 
2.28607512

$$$$
