
     RDKit          3D

 33 35  0  0  0  0  0  0  0  0999 V2000
   35.9870   30.3910   45.3990 C   0  0  0  0  0  0  0  0  0  0  0  0
   34.6760   30.0730   45.7170 C   0  0  0  0  0  0  0  0  0  0  0  0
   34.5950   29.9080   47.0740 C   0  0  0  0  0  0  0  0  0  0  0  0
   35.8240   30.1210   47.5500 N   0  0  0  0  0  0  0  0  0  0  0  0
   36.6330   30.4030   46.5690 N   0  0  0  0  0  0  0  0  0  0  0  0
   38.0340   32.0020   47.9180 Cl  0  0  0  0  0  0  0  0  0  0  0  0
   37.3360   30.9460   49.1350 C   0  0  0  0  0  0  0  0  0  0  0  0
   36.2840   30.0720   48.8980 C   0  0  0  0  0  0  0  0  0  0  0  0
   35.8250   29.2930   49.9410 C   0  0  0  0  0  0  0  0  0  0  0  0
   36.4150   29.4000   51.1830 C   0  0  0  0  0  0  0  0  0  0  0  0
   37.4620   30.2720   51.4160 C   0  0  0  0  0  0  0  0  0  0  0  0
   37.9190   31.0450   50.3820 C   0  0  0  0  0  0  0  0  0  0  0  0
   36.3940   30.6220   43.9970 C   0  0  0  0  0  0  0  0  0  0  0  0
   37.8150   30.2890   43.7470 C   0  0  0  0  0  0  0  0  0  0  0  0
   38.8340   31.1480   44.2810 C   0  0  0  0  0  0  0  0  0  0  0  0
   38.7710   32.5040   44.1210 C   0  0  0  0  0  0  0  0  0  0  0  0
   39.7820   33.3420   44.6480 C   0  0  0  0  0  0  0  0  0  0  0  0
   40.8040   32.6870   45.3140 N   0  0  0  0  0  0  0  0  0  0  0  0
   40.8240   31.3430   45.4470 C   0  0  0  0  0  0  0  0  0  0  0  0
   39.8360   30.5780   44.9280 N   0  0  0  0  0  0  0  0  0  0  0  0
   33.8451   29.9709   45.0034 H   0  0  0  0  0  0  0  0  0  0  0  0
   33.6972   29.6514   47.6554 H   0  0  0  0  0  0  0  0  0  0  0  0
   34.9933   28.5908   49.7825 H   0  0  0  0  0  0  0  0  0  0  0  0
   36.0431   28.7758   52.0089 H   0  0  0  0  0  0  0  0  0  0  0  0
   37.9197   30.3437   52.4137 H   0  0  0  0  0  0  0  0  0  0  0  0
   38.7514   31.7453   50.5455 H   0  0  0  0  0  0  0  0  0  0  0  0
   35.7671   29.9988   43.3423 H   0  0  0  0  0  0  0  0  0  0  0  0
   36.2646   31.6942   43.7882 H   0  0  0  0  0  0  0  0  0  0  0  0
   37.9890   29.2853   44.1620 H   0  0  0  0  0  0  0  0  0  0  0  0
   37.9238   30.3950   42.6575 H   0  0  0  0  0  0  0  0  0  0  0  0
   37.9250   32.9487   43.5765 H   0  0  0  0  0  0  0  0  0  0  0  0
   39.7577   34.4361   44.5365 H   0  0  0  0  0  0  0  0  0  0  0  0
   41.6552   30.8636   45.9848 H   0  0  0  0  0  0  0  0  0  0  0  0
  1  2  1  0
  1  5  2  0
  2  3  2  0
  3  4  1  0
  4  8  1  0
  5  4  1  0
  6  7  1  0
  7 12  2  0
  8  7  1  0
  8  9  2  0
  9 10  1  0
 10 11  2  0
 12 11  1  0
 13  1  1  0
 14 13  1  0
 14 15  1  0
 15 20  1  0
 16 15  2  0
 16 17  1  0
 17 18  2  0
 18 19  1  0
 20 19  2  0
  2 21  1  0
  3 22  1  0
  9 23  1  0
 10 24  1  0
 11 25  1  0
 12 26  1  0
 13 27  1  0
 13 28  1  0
 14 29  1  0
 14 30  1  0
 16 31  1  0
 17 32  1  0
 19 33  1  0
M  ISO  8  21  14  22  14  23  14  24  14  25  14  26  14  27   8  28   8
M  ISO  5  29   8  30   8  31  14  32  14  33  14
M  END
>  <minimizedAffinity>  (1) 
-5.85455132

>  <minimizedRMSD>  (1) 
3.76893425

$$$$
