
     RDKit          3D

 30 32  0  0  0  0  0  0  0  0999 V2000
   37.5544   31.6573   48.9405 C   0  0  0  0  0  0  0  0  0  0  0  0
   38.1927   32.7222   49.4938 C   0  0  0  0  0  0  0  0  0  0  0  0
   39.0725   33.5428   48.7974 C   0  0  0  0  0  0  0  0  0  0  0  0
   39.3511   33.3189   47.4862 C   0  0  0  0  0  0  0  0  0  0  0  0
   38.6939   32.2369   46.9498 C   0  0  0  0  0  0  0  0  0  0  0  0
   37.8485   31.4580   47.6405 N   0  0  0  0  0  0  0  0  0  0  0  0
   36.9520   30.1767   50.8732 C   0  0  0  0  0  0  0  0  0  0  0  0
   36.6397   30.7969   49.6482 C   0  0  0  0  0  0  0  0  0  0  0  0
   35.3936   30.5589   49.1132 C   0  0  0  0  0  0  0  0  0  0  0  0
   34.5183   29.7470   49.7718 N   0  0  0  0  0  0  0  0  0  0  0  0
   34.8602   29.1698   50.9496 C   0  0  0  0  0  0  0  0  0  0  0  0
   36.0798   29.3808   51.5085 N   0  0  0  0  0  0  0  0  0  0  0  0
   40.2102   34.0886   46.7383 O   0  0  0  0  0  0  0  0  0  0  0  0
   38.0170   32.9636   50.5466 H   0  0  0  0  0  0  0  0  0  0  0  0
   39.5504   34.3866   49.3166 H   0  0  0  0  0  0  0  0  0  0  0  0
   38.8120   31.9235   45.9232 H   0  0  0  0  0  0  0  0  0  0  0  0
   37.9332   30.3696   51.2858 H   0  0  0  0  0  0  0  0  0  0  0  0
   35.0689   30.9871   48.1873 H   0  0  0  0  0  0  0  0  0  0  0  0
   34.1123   28.5388   51.4117 H   0  0  0  0  0  0  0  0  0  0  0  0
   37.7786   33.0867   45.2167 Cl  0  0  0  0  0  0  0  0  0  0  0  0
   39.4022   33.5159   44.6551 C   0  0  0  0  0  0  0  0  0  0  0  0
   40.4814   33.9784   45.4143 C   0  0  0  0  0  0  0  0  0  0  0  0
   41.6438   34.2522   44.7233 C   0  0  0  0  0  0  0  0  0  0  0  0
   42.4387   34.6089   45.3885 H   0  0  0  0  0  0  0  0  0  0  0  0
   41.7952   34.1003   43.3729 C   0  0  0  0  0  0  0  0  0  0  0  0
   42.7579   34.3453   42.9227 H   0  0  0  0  0  0  0  0  0  0  0  0
   40.7330   33.6458   42.6327 C   0  0  0  0  0  0  0  0  0  0  0  0
   39.5470   33.3567   43.2721 C   0  0  0  0  0  0  0  0  0  0  0  0
   40.8714   33.5303   41.5571 H   0  0  0  0  0  0  0  0  0  0  0  0
   38.7691   33.0054   42.6056 H   0  0  0  0  0  0  0  0  0  0  0  0
  1  2  2  0
  1  8  1  0
  3  2  1  0
  4  3  2  0
  5  4  1  0
  5  6  2  0
  6  1  1  0
  7 12  2  0
  8  7  1  0
  9  8  2  0
  9 10  1  0
 10 11  2  0
 11 12  1  0
 13  4  1  0
  2 14  1  0
  3 15  1  0
  5 16  1  0
  7 17  1  0
  9 18  1  0
 11 19  1  0
 20 21  1  0
 21 22  2  0
 22 23  1  0
 23 24  1  0
 23 25  2  0
 25 26  1  0
 25 27  1  0
 27 28  2  0
 28 21  1  0
 27 29  1  0
 28 30  1  0
 13 22  1  0
M  ISO  8  14  14  15  14  16  14  17  14  18  14  19  14  24  15  26  16
M  END
>  <DihAtoms>  (1) 
3,12,21,20

>  <DihDeg>  (1) 
61.48986082231503

$$$$
