
     RDKit          3D

 42 46  0  0  0  0  0  0  0  0999 V2000
   36.2430   30.3120   46.2690 C   0  0  0  0  0  0  0  0  0  0  0  0
   36.7810   30.8040   47.4050 C   0  0  0  0  0  0  0  0  0  0  0  0
   36.1720   30.5550   48.6390 C   0  0  0  0  0  0  0  0  0  0  0  0
   35.0090   29.7920   48.6440 C   0  0  0  0  0  0  0  0  0  0  0  0
   34.4620   29.2890   47.4680 C   0  0  0  0  0  0  0  0  0  0  0  0
   35.1160   29.5770   46.3120 N   0  0  0  0  0  0  0  0  0  0  0  0
   36.8930   30.5740   44.9270 C   0  0  0  0  0  0  0  0  0  0  0  0
   36.5850   29.6700   43.8020 C   0  0  0  0  0  0  0  0  0  0  0  0
   36.0010   31.0660   43.8160 C   0  0  0  0  0  0  0  0  0  0  0  0
   39.5110   33.1930   45.0020 C   0  0  0  0  0  0  0  0  0  0  0  0
   40.6510   32.4650   45.3670 C   0  0  0  0  0  0  0  0  0  0  0  0
   40.5120   31.0740   45.5850 C   0  0  0  0  0  0  0  0  0  0  0  0
   39.2940   30.5020   45.4350 N   0  0  0  0  0  0  0  0  0  0  0  0
   38.2010   31.2470   45.0770 C   0  0  0  0  0  0  0  0  0  0  0  0
   38.3040   32.5800   44.8630 N   0  0  0  0  0  0  0  0  0  0  0  0
   33.2470   28.4860   47.4240 C   0  0  0  0  0  0  0  0  0  0  0  0
   32.8790   27.4700   46.6020 N   0  0  0  0  0  0  0  0  0  0  0  0
   31.6450   27.0430   46.9660 C   0  0  0  0  0  0  0  0  0  0  0  0
   31.2370   27.8040   48.0280 N   0  0  0  0  0  0  0  0  0  0  0  0
   32.2110   28.6630   48.2900 N   0  0  0  0  0  0  0  0  0  0  0  0
   29.0680   29.4480   46.7580 Cl  0  0  0  0  0  0  0  0  0  0  0  0
   28.9860   28.4890   48.2150 C   0  0  0  0  0  0  0  0  0  0  0  0
   30.0260   27.7430   48.7600 C   0  0  0  0  0  0  0  0  0  0  0  0
   29.8130   27.0300   49.9200 C   0  0  0  0  0  0  0  0  0  0  0  0
   28.5830   27.0490   50.5450 C   0  0  0  0  0  0  0  0  0  0  0  0
   27.5280   27.7820   50.0250 C   0  0  0  0  0  0  0  0  0  0  0  0
   27.7570   28.4970   48.8530 C   0  0  0  0  0  0  0  0  0  0  0  0
   37.7023   31.4033   47.3599 H   0  0  0  0  0  0  0  0  0  0  0  0
   36.5980   30.9490   49.5735 H   0  0  0  0  0  0  0  0  0  0  0  0
   34.5096   29.5812   49.6012 H   0  0  0  0  0  0  0  0  0  0  0  0
   35.9307   28.8001   43.9607 H   0  0  0  0  0  0  0  0  0  0  0  0
   37.1872   29.0895   43.0876 H   0  0  0  0  0  0  0  0  0  0  0  0
   36.3647   31.8259   43.1087 H   0  0  0  0  0  0  0  0  0  0  0  0
   34.9910   31.4968   43.7505 H   0  0  0  0  0  0  0  0  0  0  0  0
   39.5927   34.2756   44.8252 H   0  0  0  0  0  0  0  0  0  0  0  0
   41.6263   32.9608   45.4808 H   0  0  0  0  0  0  0  0  0  0  0  0
   41.3819   30.4653   45.8725 H   0  0  0  0  0  0  0  0  0  0  0  0
   31.0740   26.2306   46.4928 H   0  0  0  0  0  0  0  0  0  0  0  0
   30.6334   26.4387   50.3528 H   0  0  0  0  0  0  0  0  0  0  0  0
   28.4375   26.4731   51.4708 H   0  0  0  0  0  0  0  0  0  0  0  0
   26.5459   27.7981   50.5202 H   0  0  0  0  0  0  0  0  0  0  0  0
   26.9358   29.0870   48.4199 H   0  0  0  0  0  0  0  0  0  0  0  0
  1  6  1  0
  1  2  2  0
  2  3  1  0
  3  4  2  0
  5  4  1  0
  6  5  2  0
  7 14  1  0
  7  1  1  0
  8  9  1  0
  8  7  1  0
  9  7  1  0
 10 11  2  0
 11 12  1  0
 13 12  2  0
 14 13  1  0
 15 10  1  0
 15 14  2  0
 16  5  1  0
 16 20  2  0
 17 18  2  0
 17 16  1  0
 18 19  1  0
 19 20  1  0
 19 23  1  0
 21 22  1  0
 22 23  2  0
 22 27  1  0
 23 24  1  0
 24 25  2  0
 26 25  1  0
 27 26  2  0
  2 28  1  0
  3 29  1  0
  4 30  1  0
  8 31  1  0
  8 32  1  0
  9 33  1  0
  9 34  1  0
 10 35  1  0
 11 36  1  0
 12 37  1  0
 18 38  1  0
 24 39  1  0
 25 40  1  0
 26 41  1  0
 27 42  1  0
M  ISO  8  28  14  29  14  30  14  31  13  32  13  33  13  34  13  35  14
M  ISO  7  36  14  37  14  38  14  39  14  40  14  41  14  42  14
M  END
>  <minimizedAffinity>  (1) 
-6.12355232

>  <minimizedRMSD>  (1) 
1.43222904

$$$$
