
     RDKit          3D

 37 40  0  0  0  0  0  0  0  0999 V2000
   33.8405   28.7923   48.2682 C   0  0  0  0  0  0  0  0  0  0  0  0
   34.4296   28.4443   49.4323 C   0  0  0  0  0  0  0  0  0  0  0  0
   35.6986   28.8070   49.8262 C   0  0  0  0  0  0  0  0  0  0  0  0
   36.4544   29.5854   48.9918 C   0  0  0  0  0  0  0  0  0  0  0  0
   35.8597   29.9494   47.7924 C   0  0  0  0  0  0  0  0  0  0  0  0
   34.6107   29.5603   47.4658 N   0  0  0  0  0  0  0  0  0  0  0  0
   31.6463   27.6359   48.6866 C   0  0  0  0  0  0  0  0  0  0  0  0
   32.5160   28.3983   47.8865 C   0  0  0  0  0  0  0  0  0  0  0  0
   32.0215   28.7770   46.6473 C   0  0  0  0  0  0  0  0  0  0  0  0
   30.7608   28.4055   46.2768 N   0  0  0  0  0  0  0  0  0  0  0  0
   29.9830   27.6737   47.0964 C   0  0  0  0  0  0  0  0  0  0  0  0
   30.4155   27.2782   48.3143 N   0  0  0  0  0  0  0  0  0  0  0  0
   37.7525   30.0446   49.2272 O   0  0  0  0  0  0  0  0  0  0  0  0
   38.1655   31.2916   48.7707 C   0  0  0  0  0  0  0  0  0  0  0  0
   37.8846   32.3297   49.6714 C   0  0  0  0  0  0  0  0  0  0  0  0
   38.3376   33.5212   49.1155 C   0  0  0  0  0  0  0  0  0  0  0  0
   38.8639   33.1722   47.9276 N   0  0  0  0  0  0  0  0  0  0  0  0
   38.7663   31.8822   47.7240 N   0  0  0  0  0  0  0  0  0  0  0  0
   33.9080   27.8258   50.1627 H   0  0  0  0  0  0  0  0  0  0  0  0
   36.1623   28.5223   50.7629 H   0  0  0  0  0  0  0  0  0  0  0  0
   36.3916   30.5664   47.0739 H   0  0  0  0  0  0  0  0  0  0  0  0
   31.9977   27.3276   49.6488 H   0  0  0  0  0  0  0  0  0  0  0  0
   32.6037   29.3655   45.9488 H   0  0  0  0  0  0  0  0  0  0  0  0
   28.9906   27.4031   46.7592 H   0  0  0  0  0  0  0  0  0  0  0  0
   37.4132   32.4042   50.6609 H   0  0  0  0  0  0  0  0  0  0  0  0
   38.3216   34.5442   49.4683 H   0  0  0  0  0  0  0  0  0  0  0  0
   39.8958   35.7739   48.9409 Cl  0  0  0  0  0  0  0  0  0  0  0  0
   39.9950   35.2391   47.2761 C   0  0  0  0  0  0  0  0  0  0  0  0
   39.4721   33.9994   46.9398 C   0  0  0  0  0  0  0  0  0  0  0  0
   39.5644   33.6043   45.6208 C   0  0  0  0  0  0  0  0  0  0  0  0
   39.1662   32.6373   45.3131 H   0  0  0  0  0  0  0  0  0  0  0  0
   40.1378   34.3497   44.6119 C   0  0  0  0  0  0  0  0  0  0  0  0
   40.1933   34.0098   43.5894 H   0  0  0  0  0  0  0  0  0  0  0  0
   40.6518   35.5911   44.9942 C   0  0  0  0  0  0  0  0  0  0  0  0
   40.5876   36.0378   46.2974 C   0  0  0  0  0  0  0  0  0  0  0  0
   41.1177   36.2353   44.2611 H   0  0  0  0  0  0  0  0  0  0  0  0
   40.9845   36.9998   46.6002 H   0  0  0  0  0  0  0  0  0  0  0  0
  1  2  2  0
  2  3  1  0
  4 13  1  0
  4  3  2  0
  5  4  1  0
  6  5  2  0
  6  1  1  0
  8  1  1  0
  8  7  2  0
  9  8  1  0
 10  9  2  0
 10 11  1  0
 11 12  2  0
 12  7  1  0
 14 13  1  0
 14 15  1  0
 16 15  2  0
 17 16  1  0
 18 17  1  0
 18 14  2  0
  2 19  1  0
  3 20  1  0
  5 21  1  0
  7 22  1  0
  9 23  1  0
 11 24  1  0
 15 25  1  0
 16 26  1  0
 27 28  1  0
 28 29  2  0
 29 30  1  0
 30 31  1  0
 30 32  2  0
 32 33  1  0
 32 34  1  0
 34 35  2  0
 35 28  1  0
 34 36  1  0
 35 37  1  0
 17 29  1  0
M  ISO  8  19  14  20  14  21  14  22  14  23  14  24  14  25  14  26  14
M  ISO  2  31  15  33  16
M  END
>  <DihAtoms>  (1) 
15,16,28,27

>  <DihDeg>  (1) 
-83.16070843376052

$$$$
