
     RDKit          3D

 34 37  0  0  0  0  0  0  0  0999 V2000
   36.8601   30.5504   46.9108 C   0  0  0  0  0  0  0  0  0  0  0  0
   37.5230   31.0381   48.0258 C   0  0  0  0  0  0  0  0  0  0  0  0
   38.5146   31.9964   47.9020 C   0  0  0  0  0  0  0  0  0  0  0  0
   38.7922   32.4267   46.5978 C   0  0  0  0  0  0  0  0  0  0  0  0
   39.7287   33.3630   46.2359 N   0  0  0  0  0  0  0  0  0  0  0  0
   39.6413   33.4501   44.9028 C   0  0  0  0  0  0  0  0  0  0  0  0
   38.7159   32.6314   44.4261 N   0  0  0  0  0  0  0  0  0  0  0  0
   38.1563   31.9667   45.4662 C   0  0  0  0  0  0  0  0  0  0  0  0
   37.1709   31.0079   45.6404 C   0  0  0  0  0  0  0  0  0  0  0  0
   37.3758   30.0696   51.6562 C   0  0  0  0  0  0  0  0  0  0  0  0
   37.8728   30.6337   50.4850 C   0  0  0  0  0  0  0  0  0  0  0  0
   37.1369   30.5057   49.3212 C   0  0  0  0  0  0  0  0  0  0  0  0
   35.9662   29.8277   49.4137 N   0  0  0  0  0  0  0  0  0  0  0  0
   35.4924   29.2836   50.5561 C   0  0  0  0  0  0  0  0  0  0  0  0
   36.2037   29.4120   51.6615 N   0  0  0  0  0  0  0  0  0  0  0  0
   40.4451   34.3093   44.1566 O   0  0  0  0  0  0  0  0  0  0  0  0
   36.0877   29.8022   47.0211 H   0  0  0  0  0  0  0  0  0  0  0  0
   39.0349   32.3821   48.7543 H   0  0  0  0  0  0  0  0  0  0  0  0
   40.3798   33.9008   46.8711 H   0  0  0  0  0  0  0  0  0  0  0  0
   36.6648   30.6395   44.7574 H   0  0  0  0  0  0  0  0  0  0  0  0
   38.0417   30.2350   52.5058 H   0  0  0  0  0  0  0  0  0  0  0  0
   38.8085   31.1769   50.4061 H   0  0  0  0  0  0  0  0  0  0  0  0
   34.5498   28.7531   50.5670 H   0  0  0  0  0  0  0  0  0  0  0  0
   37.6906   33.6858   43.0880 Cl  0  0  0  0  0  0  0  0  0  0  0  0
   39.0981   34.0670   42.1153 C   0  0  0  0  0  0  0  0  0  0  0  0
   40.2764   34.3253   42.7760 C   0  0  0  0  0  0  0  0  0  0  0  0
   41.4294   34.6331   42.0850 C   0  0  0  0  0  0  0  0  0  0  0  0
   42.4070   34.8514   42.5376 H   0  0  0  0  0  0  0  0  0  0  0  0
   41.4349   34.6913   40.7053 C   0  0  0  0  0  0  0  0  0  0  0  0
   42.2983   34.9250   40.1107 H   0  0  0  0  0  0  0  0  0  0  0  0
   40.2520   34.4321   40.0368 C   0  0  0  0  0  0  0  0  0  0  0  0
   39.1123   34.1271   40.7376 C   0  0  0  0  0  0  0  0  0  0  0  0
   40.2386   34.4732   38.9625 H   0  0  0  0  0  0  0  0  0  0  0  0
   38.1673   33.9182   40.2506 H   0  0  0  0  0  0  0  0  0  0  0  0
  1  2  2  0
  2 12  1  0
  3  2  1  0
  4  3  2  0
  5  4  1  0
  6  5  1  0
  7  6  2  0
  7  8  1  0
  8  9  2  0
  8  4  1  0
  9  1  1  0
 10 15  2  0
 11 10  1  0
 12 13  1  0
 12 11  2  0
 13 14  2  0
 14 15  1  0
 16  6  1  0
  1 17  1  0
  3 18  1  0
  5 19  1  0
  9 20  1  0
 10 21  1  0
 11 22  1  0
 14 23  1  0
 24 25  1  0
 25 26  2  0
 26 27  1  0
 27 28  1  0
 27 29  2  0
 29 30  1  0
 29 31  1  0
 31 32  2  0
 32 25  1  0
 31 33  1  0
 32 34  1  0
 16 26  1  0
M  ISO  8  17  14  18  14  19   9  20  14  21  14  22  14  23  14  28  15
M  ISO  1  30  16
M  END
>  <DihAtoms>  (1) 
5,15,25,24

>  <DihDeg>  (1) 
-60.0010992277738

$$$$
