
     RDKit          3D

 43 46  0  0  1  0  0  0  0  0999 V2000
   39.7650   31.4710   41.7800 C   0  0  2  0  0  0  0  0  0  0  0  0
   39.4030   32.5740   42.8000 C   0  0  1  0  0  0  0  0  0  0  0  0
   38.1630   33.0940   42.1510 C   0  0  0  0  0  0  0  0  0  0  0  0
   38.3520   33.0390   40.7920 O   0  0  0  0  0  0  0  0  0  0  0  0
   39.4520   32.2920   40.5070 C   0  0  0  0  0  0  0  0  0  0  0  0
   38.2260   31.2190   45.9200 C   0  0  0  0  0  0  0  0  0  0  0  0
   39.5650   31.0120   46.0610 C   0  0  0  0  0  0  0  0  0  0  0  0
   40.1230   31.5100   44.8870 C   0  0  0  0  0  0  0  0  0  0  0  0
   39.1480   31.9860   44.0960 N   0  0  0  0  0  0  0  0  0  0  0  0
   37.9840   31.8100   44.7260 N   0  0  0  0  0  0  0  0  0  0  0  0
   36.3960   30.6110   49.1320 C   0  0  0  0  0  0  0  0  0  0  0  0
   37.4030   30.9570   48.2540 C   0  0  0  0  0  0  0  0  0  0  0  0
   37.1990   30.8670   46.8890 C   0  0  0  0  0  0  0  0  0  0  0  0
   35.9950   30.4340   46.4650 N   0  0  0  0  0  0  0  0  0  0  0  0
   35.0160   30.0970   47.3500 C   0  0  0  0  0  0  0  0  0  0  0  0
   35.1970   30.1780   48.6550 N   0  0  0  0  0  0  0  0  0  0  0  0
   36.7700   30.7610   50.4700 O   0  0  0  0  0  0  0  0  0  0  0  0
   36.8340   29.6840   51.3740 C   0  0  0  0  0  0  0  0  0  0  0  0
   35.5820   29.1870   51.6980 F   0  0  0  0  0  0  0  0  0  0  0  0
   37.5110   30.1080   52.4930 F   0  0  0  0  0  0  0  0  0  0  0  0
   37.5840   28.6820   50.7870 F   0  0  0  0  0  0  0  0  0  0  0  0
   38.8370   30.4930   41.9200 O   0  0  0  0  0  0  0  0  0  0  0  0
   41.5050   28.8450   41.9840 Cl  0  0  0  0  0  0  0  0  0  0  0  0
   39.9120   28.2250   42.2880 C   0  0  0  0  0  0  0  0  0  0  0  0
   38.9230   29.1650   42.1950 C   0  0  0  0  0  0  0  0  0  0  0  0
   37.6210   28.6980   42.4360 C   0  0  0  0  0  0  0  0  0  0  0  0
   37.3600   27.3570   42.7520 C   0  0  0  0  0  0  0  0  0  0  0  0
   38.4060   26.4630   42.8300 C   0  0  0  0  0  0  0  0  0  0  0  0
   39.6850   26.9040   42.5960 C   0  0  0  0  0  0  0  0  0  0  0  0
   40.7607   31.0065   41.8330 H   0  0  0  0  0  0  0  0  0  0  0  0
   40.1685   33.3391   42.9965 H   0  0  0  0  0  0  0  0  0  0  0  0
   37.3015   32.4720   42.4355 H   0  0  0  0  0  0  0  0  0  0  0  0
   37.9627   34.1269   42.4720 H   0  0  0  0  0  0  0  0  0  0  0  0
   39.2461   31.6191   39.6615 H   0  0  0  0  0  0  0  0  0  0  0  0
   40.3034   32.9283   40.2238 H   0  0  0  0  0  0  0  0  0  0  0  0
   40.0886   30.5535   46.9128 H   0  0  0  0  0  0  0  0  0  0  0  0
   41.1960   31.5131   44.6449 H   0  0  0  0  0  0  0  0  0  0  0  0
   38.3717   31.3057   48.6413 H   0  0  0  0  0  0  0  0  0  0  0  0
   34.0464   29.7472   46.9660 H   0  0  0  0  0  0  0  0  0  0  0  0
   36.7806   29.4052   42.3751 H   0  0  0  0  0  0  0  0  0  0  0  0
   36.3288   27.0213   42.9361 H   0  0  0  0  0  0  0  0  0  0  0  0
   38.2182   25.4077   43.0770 H   0  0  0  0  0  0  0  0  0  0  0  0
   40.5285   26.2004   42.6549 H   0  0  0  0  0  0  0  0  0  0  0  0
  1 22  1  0
  1  2  1  0
  2  9  1  0
  3  2  1  0
  4  3  1  0
  5  4  1  0
  5  1  1  0
  6  7  1  0
  6 13  1  0
  8  7  2  0
  9 10  1  0
  9  8  1  0
 10  6  2  0
 11 17  1  0
 12 11  2  0
 13 12  1  0
 14 13  2  0
 14 15  1  0
 15 16  2  0
 16 11  1  0
 17 18  1  0
 18 19  1  0
 18 20  1  0
 21 18  1  0
 22 25  1  0
 23 24  1  0
 24 29  2  0
 25 24  1  0
 25 26  2  0
 26 27  1  0
 27 28  2  0
 29 28  1  0
  1 30  1  6
  2 31  1  1
  3 32  1  0
  3 33  1  0
  5 34  1  0
  5 35  1  0
  7 36  1  0
  8 37  1  0
 12 38  1  0
 15 39  1  0
 26 40  1  0
 27 41  1  0
 28 42  1  0
 29 43  1  0
M  ISO  8  30  13  31  13  32  13  33  13  34  13  35  13  36  14  37  14
M  ISO  6  38  14  39  14  40  14  41  14  42  14  43  14
M  END
>  <minimizedAffinity>  (1) 
-6.52201939

>  <minimizedRMSD>  (1) 
0.702760458

$$$$
