
     RDKit          3D

 37 39  0  0  0  0  0  0  0  0999 V2000
   36.7364   31.8187   50.2317 Cl  0  0  0  0  0  0  0  0  0  0  0  0
   37.3895   31.7293   48.6295 C   0  0  0  0  0  0  0  0  0  0  0  0
   36.7322   30.8576   47.8137 C   0  0  0  0  0  0  0  0  0  0  0  0
   37.1730   30.7301   46.4753 C   0  0  0  0  0  0  0  0  0  0  0  0
   38.2338   31.4585   45.9952 C   0  0  0  0  0  0  0  0  0  0  0  0
   38.8689   32.3282   46.8587 C   0  0  0  0  0  0  0  0  0  0  0  0
   40.2092   33.2829   46.2670 Cl  0  0  0  0  0  0  0  0  0  0  0  0
   38.4436   32.4543   48.1631 C   0  0  0  0  0  0  0  0  0  0  0  0
   35.7745   28.9912   49.1099 C   0  0  0  0  0  0  0  0  0  0  0  0
   35.5988   29.9774   48.0954 C   0  0  0  0  0  0  0  0  0  0  0  0
   34.3792   30.0260   47.4543 C   0  0  0  0  0  0  0  0  0  0  0  0
   33.4183   29.1333   47.8259 N   0  0  0  0  0  0  0  0  0  0  0  0
   33.6145   28.2171   48.7845 C   0  0  0  0  0  0  0  0  0  0  0  0
   34.7993   28.1412   49.4344 N   0  0  0  0  0  0  0  0  0  0  0  0
   39.1360   33.3397   49.0963 C   0  0  0  0  0  0  0  0  0  0  0  0
   39.3407   34.5936   48.9231 O   0  0  0  0  0  0  0  0  0  0  0  0
   36.7214   30.0706   45.7546 H   0  0  0  0  0  0  0  0  0  0  0  0
   38.5831   31.3734   44.9746 H   0  0  0  0  0  0  0  0  0  0  0  0
   36.7259   28.9112   49.6496 H   0  0  0  0  0  0  0  0  0  0  0  0
   34.2500   30.7760   46.6851 H   0  0  0  0  0  0  0  0  0  0  0  0
   32.7345   27.6206   48.9167 H   0  0  0  0  0  0  0  0  0  0  0  0
   39.6761   32.8326   50.3537 N   0  0  0  0  0  0  0  0  0  0  0  0
   40.9929   32.7463   51.0026 C   0  0  0  0  0  0  0  0  0  0  0  0
   40.9029   33.1957   52.4447 C   0  0  0  0  0  0  0  0  0  0  0  0
   40.1775   32.1814   53.2982 C   0  0  0  0  0  0  0  0  0  0  0  0
   40.9310   31.5739   53.8168 H   0  0  0  0  0  0  0  0  0  0  0  0
   39.3804   31.3226   52.3041 C   0  0  0  0  0  0  0  0  0  0  0  0
   38.7659   32.2434   51.3150 C   0  0  0  0  0  0  0  0  0  0  0  0
   41.3600   31.7064   51.0385 H   0  0  0  0  0  0  0  0  0  0  0  0
   41.6492   33.4406   50.4784 H   0  0  0  0  0  0  0  0  0  0  0  0
   41.8850   33.3936   52.8908 H   0  0  0  0  0  0  0  0  0  0  0  0
   40.2985   34.1246   52.4540 H   0  0  0  0  0  0  0  0  0  0  0  0
   39.4920   32.6902   53.9935 H   0  0  0  0  0  0  0  0  0  0  0  0
   40.0010   30.5217   51.9088 H   0  0  0  0  0  0  0  0  0  0  0  0
   38.5287   30.8321   52.8458 H   0  0  0  0  0  0  0  0  0  0  0  0
   38.3833   33.1295   51.9053 H   0  0  0  0  0  0  0  0  0  0  0  0
   37.8623   31.8298   50.8178 H   0  0  0  0  0  0  0  0  0  0  0  0
  2  1  1  0
  3 10  1  0
  3  2  2  0
  4  3  1  0
  5  4  2  0
  5  6  1  0
  6  8  2  0
  7  6  1  0
  8  2  1  0
  8 15  1  0
  9 14  2  0
 10  9  1  0
 11 12  1  0
 11 10  2  0
 12 13  2  0
 13 14  1  0
 16 15  2  0
  4 17  1  0
  5 18  1  0
  9 19  1  0
 11 20  1  0
 13 21  1  0
 22 23  1  0
 23 24  1  0
 24 25  1  0
 25 26  1  0
 25 27  1  0
 27 28  1  0
 28 22  1  0
 23 29  1  0
 23 30  1  0
 24 31  1  0
 24 32  1  0
 25 33  1  0
 27 34  1  0
 27 35  1  0
 28 36  1  0
 28 37  1  0
 15 22  1  0
M  ISO  6  17  14  18  14  19  14  20  14  21  14  26  15
M  END
>  <DihAtoms>  (1) 
7,14,21,22

>  <DihDeg>  (1) 
0.1895222467306587

$$$$
