
     RDKit          3D

 42 44  0  0  0  0  0  0  0  0999 V2000
   38.0250   31.8430   47.4480 C   0  0  0  0  0  0  0  0  0  0  0  0
   38.5580   32.6960   48.3740 C   0  0  0  0  0  0  0  0  0  0  0  0
   38.0750   32.7450   49.6790 C   0  0  0  0  0  0  0  0  0  0  0  0
   36.9860   31.8620   50.0300 C   0  0  0  0  0  0  0  0  0  0  0  0
   36.4990   31.0360   49.0610 C   0  0  0  0  0  0  0  0  0  0  0  0
   36.9670   30.9940   47.8060 C   0  0  0  0  0  0  0  0  0  0  0  0
   39.9020   31.2100   46.0040 C   0  0  0  0  0  0  0  0  0  0  0  0
   38.6480   31.8800   46.1400 C   0  0  0  0  0  0  0  0  0  0  0  0
   38.1770   32.4810   45.0010 C   0  0  0  0  0  0  0  0  0  0  0  0
   38.8730   32.4240   43.8540 N   0  0  0  0  0  0  0  0  0  0  0  0
   40.0360   31.7990   43.7380 C   0  0  0  0  0  0  0  0  0  0  0  0
   40.5440   31.1940   44.8200 N   0  0  0  0  0  0  0  0  0  0  0  0
   34.9430   30.0280   47.0740 C   0  0  0  0  0  0  0  0  0  0  0  0
   34.4200   30.5690   48.0990 O   0  0  0  0  0  0  0  0  0  0  0  0
   36.4080   30.1630   46.8660 N   0  0  0  0  0  0  0  0  0  0  0  0
   34.2190   29.2920   46.0860 O   0  0  0  0  0  0  0  0  0  0  0  0
   32.8380   29.3100   46.1370 C   0  0  0  0  0  0  0  0  0  0  0  0
   32.3200   30.4070   45.8090 O   0  0  0  0  0  0  0  0  0  0  0  0
   31.8030   28.3680   46.4900 N   0  0  0  0  0  0  0  0  0  0  0  0
   30.4320   28.7360   46.7650 C   0  0  0  0  0  0  0  0  0  0  0  0
   29.9180   28.1760   48.0530 C   0  0  0  0  0  0  0  0  0  0  0  0
   30.9540   27.4280   48.8440 C   0  0  0  0  0  0  0  0  0  0  0  0
   31.8020   26.4920   48.0450 C   0  0  0  0  0  0  0  0  0  0  0  0
   31.9590   26.9510   46.6250 C   0  0  0  0  0  0  0  0  0  0  0  0
   39.3864   33.3580   48.0817 H   0  0  0  0  0  0  0  0  0  0  0  0
   38.5084   33.4337   50.4191 H   0  0  0  0  0  0  0  0  0  0  0  0
   36.5639   31.8566   51.0458 H   0  0  0  0  0  0  0  0  0  0  0  0
   35.6707   30.3623   49.3256 H   0  0  0  0  0  0  0  0  0  0  0  0
   40.3470   30.7031   46.8729 H   0  0  0  0  0  0  0  0  0  0  0  0
   37.2166   33.0167   45.0272 H   0  0  0  0  0  0  0  0  0  0  0  0
   40.5709   31.7776   42.7771 H   0  0  0  0  0  0  0  0  0  0  0  0
   36.9353   29.6948   46.1153 H   0  0  0  0  0  0  0  0  0  0  0  0
   30.3670   29.8331   46.8103 H   0  0  0  0  0  0  0  0  0  0  0  0
   29.8133   28.3181   45.9572 H   0  0  0  0  0  0  0  0  0  0  0  0
   29.5449   29.0077   48.6687 H   0  0  0  0  0  0  0  0  0  0  0  0
   29.1276   27.4552   47.7968 H   0  0  0  0  0  0  0  0  0  0  0  0
   31.6160   28.1647   49.3225 H   0  0  0  0  0  0  0  0  0  0  0  0
   30.4021   26.8057   49.5638 H   0  0  0  0  0  0  0  0  0  0  0  0
   32.7968   26.4288   48.5101 H   0  0  0  0  0  0  0  0  0  0  0  0
   31.3063   25.5101   48.0325 H   0  0  0  0  0  0  0  0  0  0  0  0
   31.1994   26.4512   46.0060 H   0  0  0  0  0  0  0  0  0  0  0  0
   32.9774   26.6927   46.2992 H   0  0  0  0  0  0  0  0  0  0  0  0
  1  6  1  0
  1  2  2  0
  2  3  1  0
  3  4  2  0
  5  4  1  0
  6  5  2  0
  7  8  2  0
  8  1  1  0
  9  8  1  0
 10  9  2  0
 11 10  1  0
 11 12  2  0
 12  7  1  0
 13 14  2  0
 15 13  1  0
 15  6  1  0
 16 17  1  0
 16 13  1  0
 17 19  1  0
 18 17  2  0
 19 24  1  0
 19 20  1  0
 20 21  1  0
 21 22  1  0
 23 22  1  0
 24 23  1  0
  2 25  1  0
  3 26  1  0
  4 27  1  0
  5 28  1  0
  7 29  1  0
  9 30  1  0
 11 31  1  0
 15 32  1  0
 20 33  1  0
 20 34  1  0
 21 35  1  0
 21 36  1  0
 22 37  1  0
 22 38  1  0
 23 39  1  0
 23 40  1  0
 24 41  1  0
 24 42  1  0
M  ISO  8  25  14  26  14  27  14  28  14  29  14  30  14  31  14  33  13
M  ISO  8  34  13  35  13  36  13  37  13  38  13  39  13  40  13  41  13
M  ISO  1  42  13
M  END
>  <minimizedAffinity>  (1) 
-6.23800135

>  <minimizedRMSD>  (1) 
1.20205581

$$$$
