
     RDKit          3D

 37 39  0  0  0  0  0  0  0  0999 V2000
   36.7364   31.8187   50.2317 Cl  0  0  0  0  0  0  0  0  0  0  0  0
   37.3895   31.7293   48.6295 C   0  0  0  0  0  0  0  0  0  0  0  0
   36.7322   30.8576   47.8137 C   0  0  0  0  0  0  0  0  0  0  0  0
   37.1730   30.7301   46.4753 C   0  0  0  0  0  0  0  0  0  0  0  0
   38.2338   31.4585   45.9952 C   0  0  0  0  0  0  0  0  0  0  0  0
   38.8689   32.3282   46.8587 C   0  0  0  0  0  0  0  0  0  0  0  0
   40.2092   33.2829   46.2670 Cl  0  0  0  0  0  0  0  0  0  0  0  0
   38.4436   32.4543   48.1631 C   0  0  0  0  0  0  0  0  0  0  0  0
   35.7745   28.9912   49.1099 C   0  0  0  0  0  0  0  0  0  0  0  0
   35.5988   29.9774   48.0954 C   0  0  0  0  0  0  0  0  0  0  0  0
   34.3792   30.0260   47.4543 C   0  0  0  0  0  0  0  0  0  0  0  0
   33.4183   29.1333   47.8259 N   0  0  0  0  0  0  0  0  0  0  0  0
   33.6145   28.2171   48.7845 C   0  0  0  0  0  0  0  0  0  0  0  0
   34.7993   28.1412   49.4344 N   0  0  0  0  0  0  0  0  0  0  0  0
   39.1360   33.3397   49.0963 C   0  0  0  0  0  0  0  0  0  0  0  0
   39.3407   34.5936   48.9231 O   0  0  0  0  0  0  0  0  0  0  0  0
   36.7214   30.0706   45.7546 H   0  0  0  0  0  0  0  0  0  0  0  0
   38.5831   31.3734   44.9746 H   0  0  0  0  0  0  0  0  0  0  0  0
   36.7259   28.9112   49.6496 H   0  0  0  0  0  0  0  0  0  0  0  0
   34.2500   30.7760   46.6851 H   0  0  0  0  0  0  0  0  0  0  0  0
   32.7345   27.6206   48.9167 H   0  0  0  0  0  0  0  0  0  0  0  0
   39.6761   32.8326   50.3537 N   0  0  0  0  0  0  0  0  0  0  0  0
   40.7942   33.1550   51.2527 C   0  0  0  0  0  0  0  0  0  0  0  0
   40.3245   33.1895   52.6906 C   0  0  0  0  0  0  0  0  0  0  0  0
   40.0255   31.8026   53.2107 C   0  0  0  0  0  0  0  0  0  0  0  0
   40.8961   31.4615   53.7865 H   0  0  0  0  0  0  0  0  0  0  0  0
   39.8355   30.9390   51.9539 C   0  0  0  0  0  0  0  0  0  0  0  0
   39.0092   31.7199   50.9994 C   0  0  0  0  0  0  0  0  0  0  0  0
   41.5802   32.3813   51.2161 H   0  0  0  0  0  0  0  0  0  0  0  0
   41.1323   34.1569   50.9892 H   0  0  0  0  0  0  0  0  0  0  0  0
   41.0458   33.6697   53.3627 H   0  0  0  0  0  0  0  0  0  0  0  0
   39.3725   33.7569   52.7035 H   0  0  0  0  0  0  0  0  0  0  0  0
   39.1002   31.8113   53.8073 H   0  0  0  0  0  0  0  0  0  0  0  0
   40.7950   30.5781   51.5905 H   0  0  0  0  0  0  0  0  0  0  0  0
   39.2311   30.0322   52.2215 H   0  0  0  0  0  0  0  0  0  0  0  0
   38.1965   32.2106   51.6149 H   0  0  0  0  0  0  0  0  0  0  0  0
   38.4605   31.0933   50.2638 H   0  0  0  0  0  0  0  0  0  0  0  0
  2  1  1  0
  3 10  1  0
  3  2  2  0
  4  3  1  0
  5  4  2  0
  5  6  1  0
  6  8  2  0
  7  6  1  0
  8  2  1  0
  8 15  1  0
  9 14  2  0
 10  9  1  0
 11 12  1  0
 11 10  2  0
 12 13  2  0
 13 14  1  0
 16 15  2  0
  4 17  1  0
  5 18  1  0
  9 19  1  0
 11 20  1  0
 13 21  1  0
 22 23  1  0
 23 24  1  0
 24 25  1  0
 25 26  1  0
 25 27  1  0
 27 28  1  0
 28 22  1  0
 23 29  1  0
 23 30  1  0
 24 31  1  0
 24 32  1  0
 25 33  1  0
 27 34  1  0
 27 35  1  0
 28 36  1  0
 28 37  1  0
 15 22  1  0
M  ISO  6  17  14  18  14  19  14  20  14  21  14  26  15
M  END
>  <DihAtoms>  (1) 
7,14,21,22

>  <DihDeg>  (1) 
0.1895222467306587

$$$$
