
     RDKit          3D

 27 28  0  0  0  0  0  0  0  0999 V2000
   37.2668   30.1815   51.4184 C   0  0  0  0  0  0  0  0  0  0  0  0
   38.0967   30.7586   50.4469 C   0  0  0  0  0  0  0  0  0  0  0  0
   37.8081   30.4987   49.1100 C   0  0  0  0  0  0  0  0  0  0  0  0
   36.7392   29.7011   48.8255 N   0  0  0  0  0  0  0  0  0  0  0  0
   35.9646   29.1645   49.7922 C   0  0  0  0  0  0  0  0  0  0  0  0
   36.2213   29.3990   51.0765 N   0  0  0  0  0  0  0  0  0  0  0  0
   34.8268   28.3157   49.4982 C   0  0  0  0  0  0  0  0  0  0  0  0
   33.6265   28.7139   49.5512 O   0  0  0  0  0  0  0  0  0  0  0  0
   37.4998   30.3904   52.4719 H   0  0  0  0  0  0  0  0  0  0  0  0
   38.9169   31.3751   50.7884 H   0  0  0  0  0  0  0  0  0  0  0  0
   38.4379   30.9360   48.3530 H   0  0  0  0  0  0  0  0  0  0  0  0
   34.8598   26.9457   49.1152 N   0  0  0  0  0  0  0  0  0  0  0  0
   34.8127   25.9889   50.2053 C   0  0  0  0  0  0  0  0  0  0  0  0
   36.1288   25.2139   50.0723 C   0  0  0  0  0  0  0  0  0  0  0  0
   35.9402   24.3638   48.8377 C   0  0  0  0  0  0  0  0  0  0  0  0
   36.8463   23.7325   48.7238 H   0  0  0  0  0  0  0  0  0  0  0  0
   35.8200   25.2228   47.6087 C   0  0  0  0  0  0  0  0  0  0  0  0
   34.9339   26.4181   47.7806 C   0  0  0  0  0  0  0  0  0  0  0  0
   34.7541   26.4301   51.1958 H   0  0  0  0  0  0  0  0  0  0  0  0
   34.0099   25.2321   50.0119 H   0  0  0  0  0  0  0  0  0  0  0  0
   36.3713   24.6108   50.9422 H   0  0  0  0  0  0  0  0  0  0  0  0
   36.9566   25.9246   49.8374 H   0  0  0  0  0  0  0  0  0  0  0  0
   35.0930   23.6624   48.9517 H   0  0  0  0  0  0  0  0  0  0  0  0
   36.8308   25.4558   47.2122 H   0  0  0  0  0  0  0  0  0  0  0  0
   35.3340   24.5777   46.8216 H   0  0  0  0  0  0  0  0  0  0  0  0
   33.8902   26.2286   47.4338 H   0  0  0  0  0  0  0  0  0  0  0  0
   35.3394   27.2230   47.1261 H   0  0  0  0  0  0  0  0  0  0  0  0
  2  1  2  0
  3  2  1  0
  4  3  2  0
  4  5  1  0
  5  6  2  0
  6  1  1  0
  7  8  2  0
  7  5  1  0
  1  9  1  0
  2 10  1  0
  3 11  1  0
 12 13  1  0
 13 14  1  0
 14 15  1  0
 15 16  1  0
 15 17  1  0
 17 18  1  0
 18 12  1  0
 13 19  1  0
 13 20  1  0
 14 21  1  0
 14 22  1  0
 15 23  1  0
 17 24  1  0
 17 25  1  0
 18 26  1  0
 18 27  1  0
  7 12  1  0
M  ISO  4   9  14  10  14  11  14  16  15
M  END
>  <DihAtoms>  (1) 
7,6,11,12

>  <DihDeg>  (1) 
-0.00045810759305365477

$$$$
