
     RDKit          3D

 27 28  0  0  0  0  0  0  0  0999 V2000
   37.2668   30.1815   51.4184 C   0  0  0  0  0  0  0  0  0  0  0  0
   38.0967   30.7586   50.4469 C   0  0  0  0  0  0  0  0  0  0  0  0
   37.8081   30.4987   49.1100 C   0  0  0  0  0  0  0  0  0  0  0  0
   36.7392   29.7011   48.8255 N   0  0  0  0  0  0  0  0  0  0  0  0
   35.9646   29.1645   49.7922 C   0  0  0  0  0  0  0  0  0  0  0  0
   36.2213   29.3990   51.0765 N   0  0  0  0  0  0  0  0  0  0  0  0
   34.8268   28.3157   49.4982 C   0  0  0  0  0  0  0  0  0  0  0  0
   33.6265   28.7139   49.5512 O   0  0  0  0  0  0  0  0  0  0  0  0
   37.4998   30.3904   52.4719 H   0  0  0  0  0  0  0  0  0  0  0  0
   38.9169   31.3751   50.7884 H   0  0  0  0  0  0  0  0  0  0  0  0
   38.4379   30.9360   48.3530 H   0  0  0  0  0  0  0  0  0  0  0  0
   34.8598   26.9457   49.1152 N   0  0  0  0  0  0  0  0  0  0  0  0
   33.9065   26.0835   49.7889 C   0  0  0  0  0  0  0  0  0  0  0  0
   34.7857   25.0580   50.5140 C   0  0  0  0  0  0  0  0  0  0  0  0
   35.3388   24.1897   49.4084 C   0  0  0  0  0  0  0  0  0  0  0  0
   35.9414   23.3868   49.8823 H   0  0  0  0  0  0  0  0  0  0  0  0
   36.2507   24.9810   48.5109 C   0  0  0  0  0  0  0  0  0  0  0  0
   35.7263   26.3354   48.1448 C   0  0  0  0  0  0  0  0  0  0  0  0
   33.2700   26.5858   50.5112 H   0  0  0  0  0  0  0  0  0  0  0  0
   33.3317   25.4894   49.0331 H   0  0  0  0  0  0  0  0  0  0  0  0
   34.2525   24.4718   51.2566 H   0  0  0  0  0  0  0  0  0  0  0  0
   35.6621   25.5766   50.9706 H   0  0  0  0  0  0  0  0  0  0  0  0
   34.5329   23.6770   48.8514 H   0  0  0  0  0  0  0  0  0  0  0  0
   37.2791   24.9864   48.9299 H   0  0  0  0  0  0  0  0  0  0  0  0
   36.3257   24.3985   47.5481 H   0  0  0  0  0  0  0  0  0  0  0  0
   35.1900   26.3347   47.1661 H   0  0  0  0  0  0  0  0  0  0  0  0
   36.6078   27.0043   48.0177 H   0  0  0  0  0  0  0  0  0  0  0  0
  2  1  2  0
  3  2  1  0
  4  3  2  0
  4  5  1  0
  5  6  2  0
  6  1  1  0
  7  8  2  0
  7  5  1  0
  1  9  1  0
  2 10  1  0
  3 11  1  0
 12 13  1  0
 13 14  1  0
 14 15  1  0
 15 16  1  0
 15 17  1  0
 17 18  1  0
 18 12  1  0
 13 19  1  0
 13 20  1  0
 14 21  1  0
 14 22  1  0
 15 23  1  0
 17 24  1  0
 17 25  1  0
 18 26  1  0
 18 27  1  0
  7 12  1  0
M  ISO  4   9  14  10  14  11  14  16  15
M  END
>  <DihAtoms>  (1) 
7,6,11,12

>  <DihDeg>  (1) 
-0.00045810759305365477

$$$$
