
     RDKit          3D

 27 28  0  0  0  0  0  0  0  0999 V2000
   37.2668   30.1815   51.4184 C   0  0  0  0  0  0  0  0  0  0  0  0
   38.0967   30.7586   50.4469 C   0  0  0  0  0  0  0  0  0  0  0  0
   37.8081   30.4987   49.1100 C   0  0  0  0  0  0  0  0  0  0  0  0
   36.7392   29.7011   48.8255 N   0  0  0  0  0  0  0  0  0  0  0  0
   35.9646   29.1645   49.7922 C   0  0  0  0  0  0  0  0  0  0  0  0
   36.2213   29.3990   51.0765 N   0  0  0  0  0  0  0  0  0  0  0  0
   34.8268   28.3157   49.4982 C   0  0  0  0  0  0  0  0  0  0  0  0
   33.6265   28.7139   49.5512 O   0  0  0  0  0  0  0  0  0  0  0  0
   37.4998   30.3904   52.4719 H   0  0  0  0  0  0  0  0  0  0  0  0
   38.9169   31.3751   50.7884 H   0  0  0  0  0  0  0  0  0  0  0  0
   38.4379   30.9360   48.3530 H   0  0  0  0  0  0  0  0  0  0  0  0
   34.8598   26.9457   49.1152 N   0  0  0  0  0  0  0  0  0  0  0  0
   33.5958   26.2387   49.2071 C   0  0  0  0  0  0  0  0  0  0  0  0
   33.8727   25.1190   50.2172 C   0  0  0  0  0  0  0  0  0  0  0  0
   34.7707   24.1576   49.4745 C   0  0  0  0  0  0  0  0  0  0  0  0
   34.9583   23.2905   50.1419 H   0  0  0  0  0  0  0  0  0  0  0  0
   36.0974   24.7949   49.1634 C   0  0  0  0  0  0  0  0  0  0  0  0
   35.9979   26.1997   48.6535 C   0  0  0  0  0  0  0  0  0  0  0  0
   32.7623   26.8403   49.5570 H   0  0  0  0  0  0  0  0  0  0  0  0
   33.3843   25.7120   48.2414 H   0  0  0  0  0  0  0  0  0  0  0  0
   32.9756   24.6291   50.5841 H   0  0  0  0  0  0  0  0  0  0  0  0
   34.4798   25.5225   51.0622 H   0  0  0  0  0  0  0  0  0  0  0  0
   34.2737   23.7478   48.5757 H   0  0  0  0  0  0  0  0  0  0  0  0
   36.7866   24.6685   50.0248 H   0  0  0  0  0  0  0  0  0  0  0  0
   36.5499   24.1855   48.3293 H   0  0  0  0  0  0  0  0  0  0  0  0
   36.0054   26.2502   47.5387 H   0  0  0  0  0  0  0  0  0  0  0  0
   36.9107   26.7378   48.9969 H   0  0  0  0  0  0  0  0  0  0  0  0
  2  1  2  0
  3  2  1  0
  4  3  2  0
  4  5  1  0
  5  6  2  0
  6  1  1  0
  7  8  2  0
  7  5  1  0
  1  9  1  0
  2 10  1  0
  3 11  1  0
 12 13  1  0
 13 14  1  0
 14 15  1  0
 15 16  1  0
 15 17  1  0
 17 18  1  0
 18 12  1  0
 13 19  1  0
 13 20  1  0
 14 21  1  0
 14 22  1  0
 15 23  1  0
 17 24  1  0
 17 25  1  0
 18 26  1  0
 18 27  1  0
  7 12  1  0
M  ISO  4   9  14  10  14  11  14  16  15
M  END
>  <DihAtoms>  (1) 
7,6,11,12

>  <DihDeg>  (1) 
-0.00045810759305365477

$$$$
