
     RDKit          3D

 27 28  0  0  0  0  0  0  0  0999 V2000
   37.2668   30.1815   51.4184 C   0  0  0  0  0  0  0  0  0  0  0  0
   38.0967   30.7586   50.4469 C   0  0  0  0  0  0  0  0  0  0  0  0
   37.8081   30.4987   49.1100 C   0  0  0  0  0  0  0  0  0  0  0  0
   36.7392   29.7011   48.8255 N   0  0  0  0  0  0  0  0  0  0  0  0
   35.9646   29.1645   49.7922 C   0  0  0  0  0  0  0  0  0  0  0  0
   36.2213   29.3990   51.0765 N   0  0  0  0  0  0  0  0  0  0  0  0
   34.8268   28.3157   49.4982 C   0  0  0  0  0  0  0  0  0  0  0  0
   33.6265   28.7139   49.5512 O   0  0  0  0  0  0  0  0  0  0  0  0
   37.4998   30.3904   52.4719 H   0  0  0  0  0  0  0  0  0  0  0  0
   38.9169   31.3751   50.7884 H   0  0  0  0  0  0  0  0  0  0  0  0
   38.4379   30.9360   48.3530 H   0  0  0  0  0  0  0  0  0  0  0  0
   34.8598   26.9457   49.1152 N   0  0  0  0  0  0  0  0  0  0  0  0
   33.7731   26.5081   48.2586 C   0  0  0  0  0  0  0  0  0  0  0  0
   33.0737   25.4180   49.0789 C   0  0  0  0  0  0  0  0  0  0  0  0
   34.0391   24.2561   49.0590 C   0  0  0  0  0  0  0  0  0  0  0  0
   33.5568   23.4104   49.5925 H   0  0  0  0  0  0  0  0  0  0  0  0
   35.3069   24.6001   49.7921 C   0  0  0  0  0  0  0  0  0  0  0  0
   35.8428   25.9641   49.4829 C   0  0  0  0  0  0  0  0  0  0  0  0
   33.0554   27.2818   48.0031 H   0  0  0  0  0  0  0  0  0  0  0  0
   34.1859   25.9769   47.3631 H   0  0  0  0  0  0  0  0  0  0  0  0
   32.0987   25.1370   48.6918 H   0  0  0  0  0  0  0  0  0  0  0  0
   33.0003   25.7436   50.1439 H   0  0  0  0  0  0  0  0  0  0  0  0
   34.2258   23.8994   48.0291 H   0  0  0  0  0  0  0  0  0  0  0  0
   35.1831   24.3919   50.8758 H   0  0  0  0  0  0  0  0  0  0  0  0
   36.0843   23.8650   49.4356 H   0  0  0  0  0  0  0  0  0  0  0  0
   36.6184   25.9457   48.6806 H   0  0  0  0  0  0  0  0  0  0  0  0
   36.3529   26.3315   50.4024 H   0  0  0  0  0  0  0  0  0  0  0  0
  2  1  2  0
  3  2  1  0
  4  3  2  0
  4  5  1  0
  5  6  2  0
  6  1  1  0
  7  8  2  0
  7  5  1  0
  1  9  1  0
  2 10  1  0
  3 11  1  0
 12 13  1  0
 13 14  1  0
 14 15  1  0
 15 16  1  0
 15 17  1  0
 17 18  1  0
 18 12  1  0
 13 19  1  0
 13 20  1  0
 14 21  1  0
 14 22  1  0
 15 23  1  0
 17 24  1  0
 17 25  1  0
 18 26  1  0
 18 27  1  0
  7 12  1  0
M  ISO  4   9  14  10  14  11  14  16  15
M  END
>  <DihAtoms>  (1) 
7,6,11,12

>  <DihDeg>  (1) 
-0.00045810759305365477

$$$$
