
     RDKit          3D

 27 28  0  0  0  0  0  0  0  0999 V2000
   37.2668   30.1815   51.4184 C   0  0  0  0  0  0  0  0  0  0  0  0
   38.0967   30.7586   50.4469 C   0  0  0  0  0  0  0  0  0  0  0  0
   37.8081   30.4987   49.1100 C   0  0  0  0  0  0  0  0  0  0  0  0
   36.7392   29.7011   48.8255 N   0  0  0  0  0  0  0  0  0  0  0  0
   35.9646   29.1645   49.7922 C   0  0  0  0  0  0  0  0  0  0  0  0
   36.2213   29.3990   51.0765 N   0  0  0  0  0  0  0  0  0  0  0  0
   34.8268   28.3157   49.4982 C   0  0  0  0  0  0  0  0  0  0  0  0
   33.6265   28.7139   49.5512 O   0  0  0  0  0  0  0  0  0  0  0  0
   37.4998   30.3904   52.4719 H   0  0  0  0  0  0  0  0  0  0  0  0
   38.9169   31.3751   50.7884 H   0  0  0  0  0  0  0  0  0  0  0  0
   38.4379   30.9360   48.3530 H   0  0  0  0  0  0  0  0  0  0  0  0
   34.8598   26.9457   49.1152 N   0  0  0  0  0  0  0  0  0  0  0  0
   36.1529   26.4459   48.6860 C   0  0  0  0  0  0  0  0  0  0  0  0
   35.9137   26.0009   47.2384 C   0  0  0  0  0  0  0  0  0  0  0  0
   35.0689   24.7548   47.3640 C   0  0  0  0  0  0  0  0  0  0  0  0
   34.9118   24.3519   46.3415 H   0  0  0  0  0  0  0  0  0  0  0  0
   33.7190   25.0786   47.9437 C   0  0  0  0  0  0  0  0  0  0  0  0
   33.7620   26.0185   49.1091 C   0  0  0  0  0  0  0  0  0  0  0  0
   36.9542   27.1783   48.7090 H   0  0  0  0  0  0  0  0  0  0  0  0
   36.3998   25.5051   49.2413 H   0  0  0  0  0  0  0  0  0  0  0  0
   36.8271   25.8128   46.6820 H   0  0  0  0  0  0  0  0  0  0  0  0
   35.2787   26.7564   46.7174 H   0  0  0  0  0  0  0  0  0  0  0  0
   35.5948   23.9612   47.9263 H   0  0  0  0  0  0  0  0  0  0  0  0
   33.0254   25.3863   47.1330 H   0  0  0  0  0  0  0  0  0  0  0  0
   33.3046   24.1056   48.3354 H   0  0  0  0  0  0  0  0  0  0  0  0
   33.7662   25.4834   50.0885 H   0  0  0  0  0  0  0  0  0  0  0  0
   32.8218   26.6152   49.0831 H   0  0  0  0  0  0  0  0  0  0  0  0
  2  1  2  0
  3  2  1  0
  4  3  2  0
  4  5  1  0
  5  6  2  0
  6  1  1  0
  7  8  2  0
  7  5  1  0
  1  9  1  0
  2 10  1  0
  3 11  1  0
 12 13  1  0
 13 14  1  0
 14 15  1  0
 15 16  1  0
 15 17  1  0
 17 18  1  0
 18 12  1  0
 13 19  1  0
 13 20  1  0
 14 21  1  0
 14 22  1  0
 15 23  1  0
 17 24  1  0
 17 25  1  0
 18 26  1  0
 18 27  1  0
  7 12  1  0
M  ISO  4   9  14  10  14  11  14  16  15
M  END
>  <DihAtoms>  (1) 
7,6,11,12

>  <DihDeg>  (1) 
-0.00045810759305365477

$$$$
