
     RDKit          3D

 27 28  0  0  0  0  0  0  0  0999 V2000
   37.2668   30.1815   51.4184 C   0  0  0  0  0  0  0  0  0  0  0  0
   38.0967   30.7586   50.4469 C   0  0  0  0  0  0  0  0  0  0  0  0
   37.8081   30.4987   49.1100 C   0  0  0  0  0  0  0  0  0  0  0  0
   36.7392   29.7011   48.8255 N   0  0  0  0  0  0  0  0  0  0  0  0
   35.9646   29.1645   49.7922 C   0  0  0  0  0  0  0  0  0  0  0  0
   36.2213   29.3990   51.0765 N   0  0  0  0  0  0  0  0  0  0  0  0
   34.8268   28.3157   49.4982 C   0  0  0  0  0  0  0  0  0  0  0  0
   33.6265   28.7139   49.5512 O   0  0  0  0  0  0  0  0  0  0  0  0
   37.4998   30.3904   52.4719 H   0  0  0  0  0  0  0  0  0  0  0  0
   38.9169   31.3751   50.7884 H   0  0  0  0  0  0  0  0  0  0  0  0
   38.4379   30.9360   48.3530 H   0  0  0  0  0  0  0  0  0  0  0  0
   34.8598   26.9457   49.1152 N   0  0  0  0  0  0  0  0  0  0  0  0
   35.7550   26.1013   49.8844 C   0  0  0  0  0  0  0  0  0  0  0  0
   36.7481   25.5725   48.8429 C   0  0  0  0  0  0  0  0  0  0  0  0
   35.9438   24.5919   48.0219 C   0  0  0  0  0  0  0  0  0  0  0  0
   36.6316   24.1301   47.2829 H   0  0  0  0  0  0  0  0  0  0  0  0
   34.8552   25.2971   47.2599 C   0  0  0  0  0  0  0  0  0  0  0  0
   34.1099   26.3198   48.0612 C   0  0  0  0  0  0  0  0  0  0  0  0
   36.2992   26.6138   50.6720 H   0  0  0  0  0  0  0  0  0  0  0  0
   35.2049   25.1953   50.2465 H   0  0  0  0  0  0  0  0  0  0  0  0
   37.6290   25.1071   49.2751 H   0  0  0  0  0  0  0  0  0  0  0  0
   37.0342   26.3984   48.1490 H   0  0  0  0  0  0  0  0  0  0  0  0
   35.5601   23.7604   48.6416 H   0  0  0  0  0  0  0  0  0  0  0  0
   35.2550   25.6743   46.2950 H   0  0  0  0  0  0  0  0  0  0  0  0
   34.1041   24.5038   46.9801 H   0  0  0  0  0  0  0  0  0  0  0  0
   33.1736   25.9105   48.5098 H   0  0  0  0  0  0  0  0  0  0  0  0
   33.7938   27.1216   47.3556 H   0  0  0  0  0  0  0  0  0  0  0  0
  2  1  2  0
  3  2  1  0
  4  3  2  0
  4  5  1  0
  5  6  2  0
  6  1  1  0
  7  8  2  0
  7  5  1  0
  1  9  1  0
  2 10  1  0
  3 11  1  0
 12 13  1  0
 13 14  1  0
 14 15  1  0
 15 16  1  0
 15 17  1  0
 17 18  1  0
 18 12  1  0
 13 19  1  0
 13 20  1  0
 14 21  1  0
 14 22  1  0
 15 23  1  0
 17 24  1  0
 17 25  1  0
 18 26  1  0
 18 27  1  0
  7 12  1  0
M  ISO  4   9  14  10  14  11  14  16  15
M  END
>  <DihAtoms>  (1) 
7,6,11,12

>  <DihDeg>  (1) 
-0.00045810759305365477

$$$$
