
     RDKit          3D

 27 28  0  0  0  0  0  0  0  0999 V2000
   37.2668   30.1815   51.4184 C   0  0  0  0  0  0  0  0  0  0  0  0
   38.0967   30.7586   50.4469 C   0  0  0  0  0  0  0  0  0  0  0  0
   37.8081   30.4987   49.1100 C   0  0  0  0  0  0  0  0  0  0  0  0
   36.7392   29.7011   48.8255 N   0  0  0  0  0  0  0  0  0  0  0  0
   35.9646   29.1645   49.7922 C   0  0  0  0  0  0  0  0  0  0  0  0
   36.2213   29.3990   51.0765 N   0  0  0  0  0  0  0  0  0  0  0  0
   34.8268   28.3157   49.4982 C   0  0  0  0  0  0  0  0  0  0  0  0
   33.6265   28.7139   49.5512 O   0  0  0  0  0  0  0  0  0  0  0  0
   37.4998   30.3904   52.4719 H   0  0  0  0  0  0  0  0  0  0  0  0
   38.9169   31.3751   50.7884 H   0  0  0  0  0  0  0  0  0  0  0  0
   38.4379   30.9360   48.3530 H   0  0  0  0  0  0  0  0  0  0  0  0
   34.8598   26.9457   49.1152 N   0  0  0  0  0  0  0  0  0  0  0  0
   34.4765   25.9977   50.1450 C   0  0  0  0  0  0  0  0  0  0  0  0
   35.7276   25.1315   50.3323 C   0  0  0  0  0  0  0  0  0  0  0  0
   35.7947   24.2933   49.0772 C   0  0  0  0  0  0  0  0  0  0  0  0
   36.6548   23.5995   49.1831 H   0  0  0  0  0  0  0  0  0  0  0  0
   36.0444   25.1552   47.8698 C   0  0  0  0  0  0  0  0  0  0  0  0
   35.2279   26.4104   47.8334 C   0  0  0  0  0  0  0  0  0  0  0  0
   34.2033   26.4447   51.0960 H   0  0  0  0  0  0  0  0  0  0  0  0
   33.6971   25.2988   49.7465 H   0  0  0  0  0  0  0  0  0  0  0  0
   35.7032   24.5153   51.2262 H   0  0  0  0  0  0  0  0  0  0  0  0
   36.6347   25.7815   50.3215 H   0  0  0  0  0  0  0  0  0  0  0  0
   34.8996   23.6537   48.9663 H   0  0  0  0  0  0  0  0  0  0  0  0
   37.1356   25.3153   47.7410 H   0  0  0  0  0  0  0  0  0  0  0  0
   35.7267   24.5437   46.9770 H   0  0  0  0  0  0  0  0  0  0  0  0
   34.2932   26.2939   47.2349 H   0  0  0  0  0  0  0  0  0  0  0  0
   35.8383   27.1829   47.3125 H   0  0  0  0  0  0  0  0  0  0  0  0
  2  1  2  0
  3  2  1  0
  4  3  2  0
  4  5  1  0
  5  6  2  0
  6  1  1  0
  7  8  2  0
  7  5  1  0
  1  9  1  0
  2 10  1  0
  3 11  1  0
 12 13  1  0
 13 14  1  0
 14 15  1  0
 15 16  1  0
 15 17  1  0
 17 18  1  0
 18 12  1  0
 13 19  1  0
 13 20  1  0
 14 21  1  0
 14 22  1  0
 15 23  1  0
 17 24  1  0
 17 25  1  0
 18 26  1  0
 18 27  1  0
  7 12  1  0
M  ISO  4   9  14  10  14  11  14  16  15
M  END
>  <DihAtoms>  (1) 
7,6,11,12

>  <DihDeg>  (1) 
-0.00045810759305365477

$$$$
