
     RDKit          3D

 27 28  0  0  0  0  0  0  0  0999 V2000
   37.2668   30.1815   51.4184 C   0  0  0  0  0  0  0  0  0  0  0  0
   38.0967   30.7586   50.4469 C   0  0  0  0  0  0  0  0  0  0  0  0
   37.8081   30.4987   49.1100 C   0  0  0  0  0  0  0  0  0  0  0  0
   36.7392   29.7011   48.8255 N   0  0  0  0  0  0  0  0  0  0  0  0
   35.9646   29.1645   49.7922 C   0  0  0  0  0  0  0  0  0  0  0  0
   36.2213   29.3990   51.0765 N   0  0  0  0  0  0  0  0  0  0  0  0
   34.8268   28.3157   49.4982 C   0  0  0  0  0  0  0  0  0  0  0  0
   33.6265   28.7139   49.5512 O   0  0  0  0  0  0  0  0  0  0  0  0
   37.4998   30.3904   52.4719 H   0  0  0  0  0  0  0  0  0  0  0  0
   38.9169   31.3751   50.7884 H   0  0  0  0  0  0  0  0  0  0  0  0
   38.4379   30.9360   48.3530 H   0  0  0  0  0  0  0  0  0  0  0  0
   34.8598   26.9457   49.1152 N   0  0  0  0  0  0  0  0  0  0  0  0
   36.1210   26.2630   49.3376 C   0  0  0  0  0  0  0  0  0  0  0  0
   36.5533   25.8218   47.9344 C   0  0  0  0  0  0  0  0  0  0  0  0
   35.5971   24.7069   47.5806 C   0  0  0  0  0  0  0  0  0  0  0  0
   35.9011   24.3059   46.5910 H   0  0  0  0  0  0  0  0  0  0  0  0
   34.1910   25.2267   47.4546 C   0  0  0  0  0  0  0  0  0  0  0  0
   33.7899   26.1784   48.5393 C   0  0  0  0  0  0  0  0  0  0  0  0
   36.9003   26.8785   49.7767 H   0  0  0  0  0  0  0  0  0  0  0  0
   35.9432   25.3102   49.8990 H   0  0  0  0  0  0  0  0  0  0  0  0
   37.5880   25.4969   47.8773 H   0  0  0  0  0  0  0  0  0  0  0  0
   36.3540   26.6452   47.2079 H   0  0  0  0  0  0  0  0  0  0  0  0
   35.6770   23.8617   48.2891 H   0  0  0  0  0  0  0  0  0  0  0  0
   34.0217   25.6081   46.4255 H   0  0  0  0  0  0  0  0  0  0  0  0
   33.5151   24.3293   47.5534 H   0  0  0  0  0  0  0  0  0  0  0  0
   33.2509   25.6707   49.3742 H   0  0  0  0  0  0  0  0  0  0  0  0
   33.0667   26.8981   48.0924 H   0  0  0  0  0  0  0  0  0  0  0  0
  2  1  2  0
  3  2  1  0
  4  3  2  0
  4  5  1  0
  5  6  2  0
  6  1  1  0
  7  8  2  0
  7  5  1  0
  1  9  1  0
  2 10  1  0
  3 11  1  0
 12 13  1  0
 13 14  1  0
 14 15  1  0
 15 16  1  0
 15 17  1  0
 17 18  1  0
 18 12  1  0
 13 19  1  0
 13 20  1  0
 14 21  1  0
 14 22  1  0
 15 23  1  0
 17 24  1  0
 17 25  1  0
 18 26  1  0
 18 27  1  0
  7 12  1  0
M  ISO  4   9  14  10  14  11  14  16  15
M  END
>  <DihAtoms>  (1) 
7,6,11,12

>  <DihDeg>  (1) 
-0.00045810759305365477

$$$$
