
     RDKit          3D

 27 28  0  0  0  0  0  0  0  0999 V2000
   37.2668   30.1815   51.4184 C   0  0  0  0  0  0  0  0  0  0  0  0
   38.0967   30.7586   50.4469 C   0  0  0  0  0  0  0  0  0  0  0  0
   37.8081   30.4987   49.1100 C   0  0  0  0  0  0  0  0  0  0  0  0
   36.7392   29.7011   48.8255 N   0  0  0  0  0  0  0  0  0  0  0  0
   35.9646   29.1645   49.7922 C   0  0  0  0  0  0  0  0  0  0  0  0
   36.2213   29.3990   51.0765 N   0  0  0  0  0  0  0  0  0  0  0  0
   34.8268   28.3157   49.4982 C   0  0  0  0  0  0  0  0  0  0  0  0
   33.6265   28.7139   49.5512 O   0  0  0  0  0  0  0  0  0  0  0  0
   37.4998   30.3904   52.4719 H   0  0  0  0  0  0  0  0  0  0  0  0
   38.9169   31.3751   50.7884 H   0  0  0  0  0  0  0  0  0  0  0  0
   38.4379   30.9360   48.3530 H   0  0  0  0  0  0  0  0  0  0  0  0
   34.8598   26.9457   49.1152 N   0  0  0  0  0  0  0  0  0  0  0  0
   35.9755   26.1765   49.6344 C   0  0  0  0  0  0  0  0  0  0  0  0
   36.7127   25.7020   48.3767 C   0  0  0  0  0  0  0  0  0  0  0  0
   35.8005   24.6563   47.7794 C   0  0  0  0  0  0  0  0  0  0  0  0
   36.3133   24.2320   46.8909 H   0  0  0  0  0  0  0  0  0  0  0  0
   34.5095   25.2733   47.3151 C   0  0  0  0  0  0  0  0  0  0  0  0
   33.9171   26.2541   48.2798 C   0  0  0  0  0  0  0  0  0  0  0  0
   36.6612   26.7369   50.2629 H   0  0  0  0  0  0  0  0  0  0  0  0
   35.5981   25.2402   50.1197 H   0  0  0  0  0  0  0  0  0  0  0  0
   37.7040   25.3049   48.5742 H   0  0  0  0  0  0  0  0  0  0  0  0
   36.7581   26.5353   47.6357 H   0  0  0  0  0  0  0  0  0  0  0  0
   35.6427   23.8095   48.4729 H   0  0  0  0  0  0  0  0  0  0  0  0
   34.6289   25.6628   46.2820 H   0  0  0  0  0  0  0  0  0  0  0  0
   33.7702   24.4261   47.2291 H   0  0  0  0  0  0  0  0  0  0  0  0
   33.1532   25.7879   48.9465 H   0  0  0  0  0  0  0  0  0  0  0  0
   33.3796   27.0216   47.6775 H   0  0  0  0  0  0  0  0  0  0  0  0
  2  1  2  0
  3  2  1  0
  4  3  2  0
  4  5  1  0
  5  6  2  0
  6  1  1  0
  7  8  2  0
  7  5  1  0
  1  9  1  0
  2 10  1  0
  3 11  1  0
 12 13  1  0
 13 14  1  0
 14 15  1  0
 15 16  1  0
 15 17  1  0
 17 18  1  0
 18 12  1  0
 13 19  1  0
 13 20  1  0
 14 21  1  0
 14 22  1  0
 15 23  1  0
 17 24  1  0
 17 25  1  0
 18 26  1  0
 18 27  1  0
  7 12  1  0
M  ISO  4   9  14  10  14  11  14  16  15
M  END
>  <DihAtoms>  (1) 
7,6,11,12

>  <DihDeg>  (1) 
-0.00045810759305365477

$$$$
