
     RDKit          3D

 27 28  0  0  0  0  0  0  0  0999 V2000
   37.2668   30.1815   51.4184 C   0  0  0  0  0  0  0  0  0  0  0  0
   38.0967   30.7586   50.4469 C   0  0  0  0  0  0  0  0  0  0  0  0
   37.8081   30.4987   49.1100 C   0  0  0  0  0  0  0  0  0  0  0  0
   36.7392   29.7011   48.8255 N   0  0  0  0  0  0  0  0  0  0  0  0
   35.9646   29.1645   49.7922 C   0  0  0  0  0  0  0  0  0  0  0  0
   36.2213   29.3990   51.0765 N   0  0  0  0  0  0  0  0  0  0  0  0
   34.8268   28.3157   49.4982 C   0  0  0  0  0  0  0  0  0  0  0  0
   33.6265   28.7139   49.5512 O   0  0  0  0  0  0  0  0  0  0  0  0
   37.4998   30.3904   52.4719 H   0  0  0  0  0  0  0  0  0  0  0  0
   38.9169   31.3751   50.7884 H   0  0  0  0  0  0  0  0  0  0  0  0
   38.4379   30.9360   48.3530 H   0  0  0  0  0  0  0  0  0  0  0  0
   34.8598   26.9457   49.1152 N   0  0  0  0  0  0  0  0  0  0  0  0
   34.1674   26.0300   50.0029 C   0  0  0  0  0  0  0  0  0  0  0  0
   35.2695   25.0784   50.4830 C   0  0  0  0  0  0  0  0  0  0  0  0
   35.5896   24.2340   49.2718 C   0  0  0  0  0  0  0  0  0  0  0  0
   36.3462   23.4816   49.5782 H   0  0  0  0  0  0  0  0  0  0  0  0
   36.1913   25.0727   48.1775 C   0  0  0  0  0  0  0  0  0  0  0  0
   35.4982   26.3822   47.9576 C   0  0  0  0  0  0  0  0  0  0  0  0
   33.6971   26.4978   50.8625 H   0  0  0  0  0  0  0  0  0  0  0  0
   33.4658   25.3865   49.4127 H   0  0  0  0  0  0  0  0  0  0  0  0
   34.9805   24.4679   51.3334 H   0  0  0  0  0  0  0  0  0  0  0  0
   36.1932   25.6628   50.7080 H   0  0  0  0  0  0  0  0  0  0  0  0
   34.7085   23.6587   48.9320 H   0  0  0  0  0  0  0  0  0  0  0  0
   37.2885   25.1552   48.3268 H   0  0  0  0  0  0  0  0  0  0  0  0
   36.0650   24.4826   47.2248 H   0  0  0  0  0  0  0  0  0  0  0  0
   34.7365   26.3301   47.1436 H   0  0  0  0  0  0  0  0  0  0  0  0
   36.2709   27.1083   47.6166 H   0  0  0  0  0  0  0  0  0  0  0  0
  2  1  2  0
  3  2  1  0
  4  3  2  0
  4  5  1  0
  5  6  2  0
  6  1  1  0
  7  8  2  0
  7  5  1  0
  1  9  1  0
  2 10  1  0
  3 11  1  0
 12 13  1  0
 13 14  1  0
 14 15  1  0
 15 16  1  0
 15 17  1  0
 17 18  1  0
 18 12  1  0
 13 19  1  0
 13 20  1  0
 14 21  1  0
 14 22  1  0
 15 23  1  0
 17 24  1  0
 17 25  1  0
 18 26  1  0
 18 27  1  0
  7 12  1  0
M  ISO  4   9  14  10  14  11  14  16  15
M  END
>  <DihAtoms>  (1) 
7,6,11,12

>  <DihDeg>  (1) 
-0.00045810759305365477

$$$$
