
     RDKit          3D

 27 28  0  0  0  0  0  0  0  0999 V2000
   37.2668   30.1815   51.4184 C   0  0  0  0  0  0  0  0  0  0  0  0
   38.0967   30.7586   50.4469 C   0  0  0  0  0  0  0  0  0  0  0  0
   37.8081   30.4987   49.1100 C   0  0  0  0  0  0  0  0  0  0  0  0
   36.7392   29.7011   48.8255 N   0  0  0  0  0  0  0  0  0  0  0  0
   35.9646   29.1645   49.7922 C   0  0  0  0  0  0  0  0  0  0  0  0
   36.2213   29.3990   51.0765 N   0  0  0  0  0  0  0  0  0  0  0  0
   34.8268   28.3157   49.4982 C   0  0  0  0  0  0  0  0  0  0  0  0
   33.6265   28.7139   49.5512 O   0  0  0  0  0  0  0  0  0  0  0  0
   37.4998   30.3904   52.4719 H   0  0  0  0  0  0  0  0  0  0  0  0
   38.9169   31.3751   50.7884 H   0  0  0  0  0  0  0  0  0  0  0  0
   38.4379   30.9360   48.3530 H   0  0  0  0  0  0  0  0  0  0  0  0
   34.8598   26.9457   49.1152 N   0  0  0  0  0  0  0  0  0  0  0  0
   34.5956   26.6804   47.7131 C   0  0  0  0  0  0  0  0  0  0  0  0
   33.3405   25.8001   47.7350 C   0  0  0  0  0  0  0  0  0  0  0  0
   33.8234   24.4718   48.2687 C   0  0  0  0  0  0  0  0  0  0  0  0
   32.9627   23.7709   48.2518 H   0  0  0  0  0  0  0  0  0  0  0  0
   34.2828   24.6025   49.6952 C   0  0  0  0  0  0  0  0  0  0  0  0
   35.1237   25.8135   49.9598 C   0  0  0  0  0  0  0  0  0  0  0  0
   34.4045   27.5636   47.1111 H   0  0  0  0  0  0  0  0  0  0  0  0
   35.4012   26.0260   47.2921 H   0  0  0  0  0  0  0  0  0  0  0  0
   32.8636   25.6940   46.7651 H   0  0  0  0  0  0  0  0  0  0  0  0
   32.6215   26.1966   48.4909 H   0  0  0  0  0  0  0  0  0  0  0  0
   34.5929   24.0247   47.6126 H   0  0  0  0  0  0  0  0  0  0  0  0
   33.4173   24.4876   50.3813 H   0  0  0  0  0  0  0  0  0  0  0  0
   34.9409   23.7088   49.8957 H   0  0  0  0  0  0  0  0  0  0  0  0
   36.2165   25.5950   49.9004 H   0  0  0  0  0  0  0  0  0  0  0  0
   34.9243   26.1272   51.0098 H   0  0  0  0  0  0  0  0  0  0  0  0
  2  1  2  0
  3  2  1  0
  4  3  2  0
  4  5  1  0
  5  6  2  0
  6  1  1  0
  7  8  2  0
  7  5  1  0
  1  9  1  0
  2 10  1  0
  3 11  1  0
 12 13  1  0
 13 14  1  0
 14 15  1  0
 15 16  1  0
 15 17  1  0
 17 18  1  0
 18 12  1  0
 13 19  1  0
 13 20  1  0
 14 21  1  0
 14 22  1  0
 15 23  1  0
 17 24  1  0
 17 25  1  0
 18 26  1  0
 18 27  1  0
  7 12  1  0
M  ISO  4   9  14  10  14  11  14  16  15
M  END
>  <DihAtoms>  (1) 
7,6,11,12

>  <DihDeg>  (1) 
-0.00045810759305365477

$$$$
