
     RDKit          3D

 27 28  0  0  0  0  0  0  0  0999 V2000
   37.2668   30.1815   51.4184 C   0  0  0  0  0  0  0  0  0  0  0  0
   38.0967   30.7586   50.4469 C   0  0  0  0  0  0  0  0  0  0  0  0
   37.8081   30.4987   49.1100 C   0  0  0  0  0  0  0  0  0  0  0  0
   36.7392   29.7011   48.8255 N   0  0  0  0  0  0  0  0  0  0  0  0
   35.9646   29.1645   49.7922 C   0  0  0  0  0  0  0  0  0  0  0  0
   36.2213   29.3990   51.0765 N   0  0  0  0  0  0  0  0  0  0  0  0
   34.8268   28.3157   49.4982 C   0  0  0  0  0  0  0  0  0  0  0  0
   33.6265   28.7139   49.5512 O   0  0  0  0  0  0  0  0  0  0  0  0
   37.4998   30.3904   52.4719 H   0  0  0  0  0  0  0  0  0  0  0  0
   38.9169   31.3751   50.7884 H   0  0  0  0  0  0  0  0  0  0  0  0
   38.4379   30.9360   48.3530 H   0  0  0  0  0  0  0  0  0  0  0  0
   34.8598   26.9457   49.1152 N   0  0  0  0  0  0  0  0  0  0  0  0
   33.7115   26.1547   49.5174 C   0  0  0  0  0  0  0  0  0  0  0  0
   34.3093   25.0719   50.4234 C   0  0  0  0  0  0  0  0  0  0  0  0
   35.0595   24.1637   49.4775 C   0  0  0  0  0  0  0  0  0  0  0  0
   35.4680   23.3217   50.0746 H   0  0  0  0  0  0  0  0  0  0  0  0
   36.2187   24.8862   48.8472 C   0  0  0  0  0  0  0  0  0  0  0  0
   35.8968   26.2731   48.3822 C   0  0  0  0  0  0  0  0  0  0  0  0
   32.9512   26.7026   50.0659 H   0  0  0  0  0  0  0  0  0  0  0  0
   33.3038   25.6004   48.6336 H   0  0  0  0  0  0  0  0  0  0  0  0
   33.5686   24.5268   51.0010 H   0  0  0  0  0  0  0  0  0  0  0  0
   35.0777   25.5287   51.0915 H   0  0  0  0  0  0  0  0  0  0  0  0
   34.3846   23.7074   48.7299 H   0  0  0  0  0  0  0  0  0  0  0  0
   37.1079   24.8204   49.5091 H   0  0  0  0  0  0  0  0  0  0  0  0
   36.4911   24.2971   47.9248 H   0  0  0  0  0  0  0  0  0  0  0  0
   35.6228   26.3075   47.3008 H   0  0  0  0  0  0  0  0  0  0  0  0
   36.8261   26.8779   48.4885 H   0  0  0  0  0  0  0  0  0  0  0  0
  2  1  2  0
  3  2  1  0
  4  3  2  0
  4  5  1  0
  5  6  2  0
  6  1  1  0
  7  8  2  0
  7  5  1  0
  1  9  1  0
  2 10  1  0
  3 11  1  0
 12 13  1  0
 13 14  1  0
 14 15  1  0
 15 16  1  0
 15 17  1  0
 17 18  1  0
 18 12  1  0
 13 19  1  0
 13 20  1  0
 14 21  1  0
 14 22  1  0
 15 23  1  0
 17 24  1  0
 17 25  1  0
 18 26  1  0
 18 27  1  0
  7 12  1  0
M  ISO  4   9  14  10  14  11  14  16  15
M  END
>  <DihAtoms>  (1) 
7,6,11,12

>  <DihDeg>  (1) 
-0.00045810759305365477

$$$$
