
     RDKit          3D

 27 28  0  0  0  0  0  0  0  0999 V2000
   37.2668   30.1815   51.4184 C   0  0  0  0  0  0  0  0  0  0  0  0
   38.0967   30.7586   50.4469 C   0  0  0  0  0  0  0  0  0  0  0  0
   37.8081   30.4987   49.1100 C   0  0  0  0  0  0  0  0  0  0  0  0
   36.7392   29.7011   48.8255 N   0  0  0  0  0  0  0  0  0  0  0  0
   35.9646   29.1645   49.7922 C   0  0  0  0  0  0  0  0  0  0  0  0
   36.2213   29.3990   51.0765 N   0  0  0  0  0  0  0  0  0  0  0  0
   34.8268   28.3157   49.4982 C   0  0  0  0  0  0  0  0  0  0  0  0
   33.6265   28.7139   49.5512 O   0  0  0  0  0  0  0  0  0  0  0  0
   37.4998   30.3904   52.4719 H   0  0  0  0  0  0  0  0  0  0  0  0
   38.9169   31.3751   50.7884 H   0  0  0  0  0  0  0  0  0  0  0  0
   38.4379   30.9360   48.3530 H   0  0  0  0  0  0  0  0  0  0  0  0
   34.8598   26.9457   49.1152 N   0  0  0  0  0  0  0  0  0  0  0  0
   35.4745   26.0426   50.0705 C   0  0  0  0  0  0  0  0  0  0  0  0
   36.6571   25.4421   49.3013 C   0  0  0  0  0  0  0  0  0  0  0  0
   36.0174   24.5183   48.2915 C   0  0  0  0  0  0  0  0  0  0  0  0
   36.8342   24.0072   47.7401 H   0  0  0  0  0  0  0  0  0  0  0  0
   35.2045   25.2963   47.2930 C   0  0  0  0  0  0  0  0  0  0  0  0
   34.3552   26.3712   47.8985 C   0  0  0  0  0  0  0  0  0  0  0  0
   35.8390   26.5176   50.9763 H   0  0  0  0  0  0  0  0  0  0  0  0
   34.7904   25.1786   50.2707 H   0  0  0  0  0  0  0  0  0  0  0  0
   37.3681   24.9171   49.9323 H   0  0  0  0  0  0  0  0  0  0  0  0
   37.1634   26.2439   48.7128 H   0  0  0  0  0  0  0  0  0  0  0  0
   35.4349   23.7176   48.7837 H   0  0  0  0  0  0  0  0  0  0  0  0
   35.8573   25.6416   46.4637 H   0  0  0  0  0  0  0  0  0  0  0  0
   34.4940   24.5570   46.8232 H   0  0  0  0  0  0  0  0  0  0  0  0
   33.3107   26.0301   48.0937 H   0  0  0  0  0  0  0  0  0  0  0  0
   34.2811   27.1913   47.1484 H   0  0  0  0  0  0  0  0  0  0  0  0
  2  1  2  0
  3  2  1  0
  4  3  2  0
  4  5  1  0
  5  6  2  0
  6  1  1  0
  7  8  2  0
  7  5  1  0
  1  9  1  0
  2 10  1  0
  3 11  1  0
 12 13  1  0
 13 14  1  0
 14 15  1  0
 15 16  1  0
 15 17  1  0
 17 18  1  0
 18 12  1  0
 13 19  1  0
 13 20  1  0
 14 21  1  0
 14 22  1  0
 15 23  1  0
 17 24  1  0
 17 25  1  0
 18 26  1  0
 18 27  1  0
  7 12  1  0
M  ISO  4   9  14  10  14  11  14  16  15
M  END
>  <DihAtoms>  (1) 
7,6,11,12

>  <DihDeg>  (1) 
-0.00045810759305365477

$$$$
