
     RDKit          3D

 27 28  0  0  0  0  0  0  0  0999 V2000
   37.2668   30.1815   51.4184 C   0  0  0  0  0  0  0  0  0  0  0  0
   38.0967   30.7586   50.4469 C   0  0  0  0  0  0  0  0  0  0  0  0
   37.8081   30.4987   49.1100 C   0  0  0  0  0  0  0  0  0  0  0  0
   36.7392   29.7011   48.8255 N   0  0  0  0  0  0  0  0  0  0  0  0
   35.9646   29.1645   49.7922 C   0  0  0  0  0  0  0  0  0  0  0  0
   36.2213   29.3990   51.0765 N   0  0  0  0  0  0  0  0  0  0  0  0
   34.8268   28.3157   49.4982 C   0  0  0  0  0  0  0  0  0  0  0  0
   33.6265   28.7139   49.5512 O   0  0  0  0  0  0  0  0  0  0  0  0
   37.4998   30.3904   52.4719 H   0  0  0  0  0  0  0  0  0  0  0  0
   38.9169   31.3751   50.7884 H   0  0  0  0  0  0  0  0  0  0  0  0
   38.4379   30.9360   48.3530 H   0  0  0  0  0  0  0  0  0  0  0  0
   34.8598   26.9457   49.1152 N   0  0  0  0  0  0  0  0  0  0  0  0
   33.5672   26.3297   48.8790 C   0  0  0  0  0  0  0  0  0  0  0  0
   33.5056   25.1962   49.9095 C   0  0  0  0  0  0  0  0  0  0  0  0
   34.4920   24.1718   49.3996 C   0  0  0  0  0  0  0  0  0  0  0  0
   34.4471   23.2956   50.0798 H   0  0  0  0  0  0  0  0  0  0  0  0
   35.8950   24.7132   49.4381 C   0  0  0  0  0  0  0  0  0  0  0  0
   36.0229   26.1201   48.9404 C   0  0  0  0  0  0  0  0  0  0  0  0
   32.7163   26.9895   49.0193 H   0  0  0  0  0  0  0  0  0  0  0  0
   33.5674   25.8165   47.8834 H   0  0  0  0  0  0  0  0  0  0  0  0
   32.5138   24.7717   50.0342 H   0  0  0  0  0  0  0  0  0  0  0  0
   33.9091   25.5583   50.8850 H   0  0  0  0  0  0  0  0  0  0  0  0
   34.2079   23.7955   48.3994 H   0  0  0  0  0  0  0  0  0  0  0  0
   36.3373   24.5410   50.4420 H   0  0  0  0  0  0  0  0  0  0  0  0
   36.4982   24.0711   48.7340 H   0  0  0  0  0  0  0  0  0  0  0  0
   36.3116   26.1668   47.8634 H   0  0  0  0  0  0  0  0  0  0  0  0
   36.8561   26.5936   49.5081 H   0  0  0  0  0  0  0  0  0  0  0  0
  2  1  2  0
  3  2  1  0
  4  3  2  0
  4  5  1  0
  5  6  2  0
  6  1  1  0
  7  8  2  0
  7  5  1  0
  1  9  1  0
  2 10  1  0
  3 11  1  0
 12 13  1  0
 13 14  1  0
 14 15  1  0
 15 16  1  0
 15 17  1  0
 17 18  1  0
 18 12  1  0
 13 19  1  0
 13 20  1  0
 14 21  1  0
 14 22  1  0
 15 23  1  0
 17 24  1  0
 17 25  1  0
 18 26  1  0
 18 27  1  0
  7 12  1  0
M  ISO  4   9  14  10  14  11  14  16  15
M  END
>  <DihAtoms>  (1) 
7,6,11,12

>  <DihDeg>  (1) 
-0.00045810759305365477

$$$$
