
     RDKit          3D

 47 49  0  0  0  0  0  0  0  0999 V2000
   37.0793   30.9476   49.0290 C   0  0  0  0  0  0  0  0  0  0  0  0
   36.8129   31.8796   50.0323 C   0  0  0  0  0  0  0  0  0  0  0  0
   37.4254   33.1224   50.0608 C   0  0  0  0  0  0  0  0  0  0  0  0
   38.3370   33.4611   49.0599 C   0  0  0  0  0  0  0  0  0  0  0  0
   38.5903   32.5418   48.0830 C   0  0  0  0  0  0  0  0  0  0  0  0
   37.9589   31.3078   48.0878 C   0  0  0  0  0  0  0  0  0  0  0  0
   36.4656   29.6371   49.0180 C   0  0  1  0  0  0  0  0  0  0  0  0
   36.8655   28.9006   49.9935 O   0  0  0  0  0  0  0  0  0  0  0  0
   33.6126   30.1463   46.8266 C   0  0  0  0  0  0  0  0  0  0  0  0
   32.9544   28.9363   46.8422 C   0  0  0  0  0  0  0  0  0  0  0  0
   33.4488   27.9400   47.6612 C   0  0  0  0  0  0  0  0  0  0  0  0
   34.5704   28.1843   48.4252 N   0  0  0  0  0  0  0  0  0  0  0  0
   35.1559   29.3624   48.3634 C   0  0  0  0  0  0  0  0  0  0  0  0
   34.6835   30.3504   47.5686 N   0  0  0  0  0  0  0  0  0  0  0  0
   38.3426   30.4220   47.0145 C   0  0  0  0  0  0  0  0  0  0  0  0
   38.8229   30.8353   45.8375 C   0  0  0  0  0  0  0  0  0  0  0  0
   39.2834   30.0194   44.6880 C   0  0  0  0  0  0  0  0  0  0  0  0
   39.1838   30.9918   43.1823 S   0  0  0  0  0  0  0  0  0  0  0  0
   36.1024   31.6377   50.8289 H   0  0  0  0  0  0  0  0  0  0  0  0
   37.1668   33.7844   50.8682 H   0  0  0  0  0  0  0  0  0  0  0  0
   38.7517   34.4405   49.1715 H   0  0  0  0  0  0  0  0  0  0  0  0
   39.3184   32.9507   47.3806 H   0  0  0  0  0  0  0  0  0  0  0  0
   37.0075   29.0566   48.1753 H   0  0  0  0  0  0  0  0  0  0  0  0
   36.2971   28.5518   50.6937 H   0  0  0  0  0  0  0  0  0  0  0  0
   33.1949   30.8867   46.1821 H   0  0  0  0  0  0  0  0  0  0  0  0
   32.0720   28.6735   46.2708 H   0  0  0  0  0  0  0  0  0  0  0  0
   33.0090   26.9399   47.7594 H   0  0  0  0  0  0  0  0  0  0  0  0
   38.3581   29.3270   46.8950 H   0  0  0  0  0  0  0  0  0  0  0  0
   38.9222   31.9310   45.6964 H   0  0  0  0  0  0  0  0  0  0  0  0
   38.7130   29.0573   44.6194 H   0  0  0  0  0  0  0  0  0  0  0  0
   40.3431   29.7057   44.8278 H   0  0  0  0  0  0  0  0  0  0  0  0
   40.5722   29.6334   39.4051 H   0  0  0  0  0  0  0  0  0  0  0  0
   40.6466   28.6787   39.7910 N   0  0  0  0  0  0  0  0  0  0  0  0
   39.3401   28.1949   40.1954 C   0  0  0  0  0  0  0  0  0  0  0  0
   38.7795   28.9534   41.3835 C   0  0  0  0  0  0  0  0  0  0  0  0
   39.7289   30.0876   41.7098 C   0  0  0  0  0  0  0  0  0  0  0  0
   41.0779   29.4727   42.0431 C   0  0  0  0  0  0  0  0  0  0  0  0
   41.5755   28.6201   40.9094 C   0  0  0  0  0  0  0  0  0  0  0  0
   38.6743   28.3241   39.2999 H   0  0  0  0  0  0  0  0  0  0  0  0
   39.3734   27.1315   40.4431 H   0  0  0  0  0  0  0  0  0  0  0  0
   37.7706   29.3562   41.1252 H   0  0  0  0  0  0  0  0  0  0  0  0
   38.6714   28.3189   42.2832 H   0  0  0  0  0  0  0  0  0  0  0  0
   39.8073   30.8150   40.8809 H   0  0  0  0  0  0  0  0  0  0  0  0
   40.8951   28.8618   42.9727 H   0  0  0  0  0  0  0  0  0  0  0  0
   41.7601   30.2967   42.3205 H   0  0  0  0  0  0  0  0  0  0  0  0
   42.5675   28.9544   40.5952 H   0  0  0  0  0  0  0  0  0  0  0  0
   41.5861   27.5453   41.2204 H   0  0  0  0  0  0  0  0  0  0  0  0
  1  7  1  0
  1  2  2  0
  2  3  1  0
  4  3  2  0
  5  6  2  0
  5  4  1  0
  6  1  1  0
  7  8  1  0
  9 10  2  0
  9 14  1  0
 10 11  1  0
 11 12  2  0
 13 12  1  0
 13  7  1  0
 14 13  2  0
 15  6  1  0
 16 15  2  0
 17 16  1  0
 18 17  1  0
  2 19  1  0
  3 20  1  0
  4 21  1  0
  5 22  1  0
  7 23  1  6
  8 24  1  0
  9 25  1  0
 10 26  1  0
 11 27  1  0
 15 28  1  0
 16 29  1  0
 17 30  1  0
 17 31  1  0
 32 33  1  0
 33 34  1  0
 34 35  1  0
 35 36  1  0
 36 37  1  0
 37 38  1  0
 38 33  1  0
 34 39  1  0
 34 40  1  0
 35 41  1  0
 35 42  1  0
 36 43  1  0
 37 44  1  0
 37 45  1  0
 38 46  1  0
 38 47  1  0
 18 36  1  0
M  ISO  8  19  14  20  14  21  14  22  14  23   8  24   3  25  14  26  14
M  ISO  4  27  14  30   8  31   8  32   5
M  END
>  <DihAtoms>  (1) 
16,17,35,34

>  <DihDeg>  (1) 
67.1920161423905

$$$$
