
     RDKit          3D

 26 27  0  0  0  0  0  0  0  0999 V2000
   37.5290   30.0900   51.4180 C   0  0  0  0  0  0  0  0  0  0  0  0
   38.0710   31.0790   50.5740 C   0  0  0  0  0  0  0  0  0  0  0  0
   37.3410   31.4450   49.4330 C   0  0  0  0  0  0  0  0  0  0  0  0
   36.1560   30.8290   49.2030 N   0  0  0  0  0  0  0  0  0  0  0  0
   35.6620   29.8930   50.0180 C   0  0  0  0  0  0  0  0  0  0  0  0
   36.3410   29.5260   51.1160 N   0  0  0  0  0  0  0  0  0  0  0  0
   34.1040   29.0730   49.7290 S   0  0  0  0  0  0  0  0  0  0  0  0
   32.6430   27.5150   45.8200 N   0  0  0  0  0  0  0  0  0  0  0  0
   32.8080   26.5250   46.8430 C   0  0  0  0  0  0  0  0  0  0  0  0
   32.9390   27.2420   48.1720 C   0  0  0  0  0  0  0  0  0  0  0  0
   34.1550   28.1720   48.1500 C   0  0  0  0  0  0  0  0  0  0  0  0
   33.9500   29.1330   46.9890 C   0  0  0  0  0  0  0  0  0  0  0  0
   33.8420   28.3040   45.7270 C   0  0  0  0  0  0  0  0  0  0  0  0
   38.0732   29.7781   52.3216 H   0  0  0  0  0  0  0  0  0  0  0  0
   39.0381   31.5505   50.8027 H   0  0  0  0  0  0  0  0  0  0  0  0
   37.7209   32.2125   48.7427 H   0  0  0  0  0  0  0  0  0  0  0  0
   32.4649   27.0514   44.9176 H   0  0  0  0  0  0  0  0  0  0  0  0
   31.9326   25.8592   46.8628 H   0  0  0  0  0  0  0  0  0  0  0  0
   33.7040   25.9180   46.6464 H   0  0  0  0  0  0  0  0  0  0  0  0
   32.0309   27.8346   48.3568 H   0  0  0  0  0  0  0  0  0  0  0  0
   33.0691   26.4978   48.9715 H   0  0  0  0  0  0  0  0  0  0  0  0
   35.1159   27.6501   48.0303 H   0  0  0  0  0  0  0  0  0  0  0  0
   33.0265   29.7115   47.1387 H   0  0  0  0  0  0  0  0  0  0  0  0
   34.7897   29.8400   46.9179 H   0  0  0  0  0  0  0  0  0  0  0  0
   34.7177   27.6445   45.6365 H   0  0  0  0  0  0  0  0  0  0  0  0
   33.8053   28.9555   44.8415 H   0  0  0  0  0  0  0  0  0  0  0  0
  2  1  2  0
  3  2  1  0
  4  3  2  0
  4  5  1  0
  5  6  2  0
  6  1  1  0
  7  5  1  0
  8  9  1  0
  9 10  1  0
 11 10  1  0
 11  7  1  0
 12 11  1  0
 13  8  1  0
 13 12  1  0
  1 14  1  0
  2 15  1  0
  3 16  1  0
  8 17  1  0
  9 18  1  0
  9 19  1  0
 10 20  1  0
 10 21  1  0
 11 22  1  0
 12 23  1  0
 12 24  1  0
 13 25  1  0
 13 26  1  0
M  ISO  8  14  14  15  14  16  14  17   5  18  13  19  13  20  13  21  13
M  ISO  5  22  13  23  13  24  13  25  13  26  13
M  END
>  <minimizedAffinity>  (1) 
-3.68320251

>  <minimizedRMSD>  (1) 
2.42246342

$$$$
