
     RDKit          3D

 35 37  0  0  0  0  0  0  0  0999 V2000
   37.5633   31.6516   48.9286 C   0  0  0  0  0  0  0  0  0  0  0  0
   38.2003   32.7153   49.4843 C   0  0  0  0  0  0  0  0  0  0  0  0
   39.0714   33.5590   48.8469 C   0  0  0  0  0  0  0  0  0  0  0  0
   39.3539   33.3478   47.5315 C   0  0  0  0  0  0  0  0  0  0  0  0
   38.7000   32.2532   46.9554 C   0  0  0  0  0  0  0  0  0  0  0  0
   37.8465   31.4500   47.6335 N   0  0  0  0  0  0  0  0  0  0  0  0
   36.9403   30.1731   50.8694 C   0  0  0  0  0  0  0  0  0  0  0  0
   36.6529   30.7934   49.6488 C   0  0  0  0  0  0  0  0  0  0  0  0
   35.3970   30.5585   49.1009 C   0  0  0  0  0  0  0  0  0  0  0  0
   34.5246   29.7471   49.7734 N   0  0  0  0  0  0  0  0  0  0  0  0
   34.8637   29.1742   50.9552 C   0  0  0  0  0  0  0  0  0  0  0  0
   36.0663   29.3835   51.5052 N   0  0  0  0  0  0  0  0  0  0  0  0
   40.1869   34.0482   46.6780 O   0  0  0  0  0  0  0  0  0  0  0  0
   38.0273   32.9558   50.5437 H   0  0  0  0  0  0  0  0  0  0  0  0
   39.5769   34.4052   49.2920 H   0  0  0  0  0  0  0  0  0  0  0  0
   38.8086   31.9356   45.9091 H   0  0  0  0  0  0  0  0  0  0  0  0
   37.9309   30.3942   51.2432 H   0  0  0  0  0  0  0  0  0  0  0  0
   35.1292   31.0168   48.1581 H   0  0  0  0  0  0  0  0  0  0  0  0
   34.0780   28.5625   51.3676 H   0  0  0  0  0  0  0  0  0  0  0  0
   43.7503   37.2863   48.3256 H   0  0  0  0  0  0  0  0  0  0  0  0
   43.2532   36.3872   48.1329 N   0  0  0  0  0  0  0  0  0  0  0  0
   41.9849   36.4097   48.8007 C   0  0  0  0  0  0  0  0  0  0  0  0
   41.2852   35.0967   48.5059 C   0  0  0  0  0  0  0  0  0  0  0  0
   40.9383   35.1635   47.0138 C   0  0  0  0  0  0  0  0  0  0  0  0
   42.2581   35.1251   46.2783 C   0  0  0  0  0  0  0  0  0  0  0  0
   43.1784   36.2412   46.7109 C   0  0  0  0  0  0  0  0  0  0  0  0
   41.3295   37.2173   48.4173 H   0  0  0  0  0  0  0  0  0  0  0  0
   42.1928   36.4944   49.8853 H   0  0  0  0  0  0  0  0  0  0  0  0
   40.3684   34.9547   49.1024 H   0  0  0  0  0  0  0  0  0  0  0  0
   41.9838   34.2301   48.6300 H   0  0  0  0  0  0  0  0  0  0  0  0
   40.3854   36.0823   46.8494 H   0  0  0  0  0  0  0  0  0  0  0  0
   42.0516   35.2662   45.2006 H   0  0  0  0  0  0  0  0  0  0  0  0
   42.7198   34.1431   46.4068 H   0  0  0  0  0  0  0  0  0  0  0  0
   42.9290   37.2043   46.2127 H   0  0  0  0  0  0  0  0  0  0  0  0
   44.1974   35.9632   46.3446 H   0  0  0  0  0  0  0  0  0  0  0  0
  1  2  2  0
  1  8  1  0
  3  2  1  0
  4  3  2  0
  5  4  1  0
  5  6  2  0
  6  1  1  0
  7 12  2  0
  8  7  1  0
  9  8  2  0
  9 10  1  0
 10 11  2  0
 11 12  1  0
 13  4  1  0
  2 14  1  0
  3 15  1  0
  5 16  1  0
  7 17  1  0
  9 18  1  0
 11 19  1  0
 20 21  1  0
 21 22  1  0
 22 23  1  0
 23 24  1  0
 24 25  1  0
 25 26  1  0
 26 21  1  0
 22 27  1  0
 22 28  1  0
 23 29  1  0
 23 30  1  0
 24 31  1  0
 25 32  1  0
 25 33  1  0
 26 34  1  0
 26 35  1  0
 13 24  1  0
M  ISO  7  14  14  15  14  16  14  17  14  18  14  19  14  20   5
M  END
>  <DihAtoms>  (1) 
3,12,23,22

>  <DihDeg>  (1) 
118.42153974363141

$$$$
