
     RDKit          3D

 35 37  0  0  0  0  0  0  0  0999 V2000
   37.5633   31.6516   48.9286 C   0  0  0  0  0  0  0  0  0  0  0  0
   38.2003   32.7153   49.4843 C   0  0  0  0  0  0  0  0  0  0  0  0
   39.0714   33.5590   48.8469 C   0  0  0  0  0  0  0  0  0  0  0  0
   39.3539   33.3478   47.5315 C   0  0  0  0  0  0  0  0  0  0  0  0
   38.7000   32.2532   46.9554 C   0  0  0  0  0  0  0  0  0  0  0  0
   37.8465   31.4500   47.6335 N   0  0  0  0  0  0  0  0  0  0  0  0
   36.9403   30.1731   50.8694 C   0  0  0  0  0  0  0  0  0  0  0  0
   36.6529   30.7934   49.6488 C   0  0  0  0  0  0  0  0  0  0  0  0
   35.3970   30.5585   49.1009 C   0  0  0  0  0  0  0  0  0  0  0  0
   34.5246   29.7471   49.7734 N   0  0  0  0  0  0  0  0  0  0  0  0
   34.8637   29.1742   50.9552 C   0  0  0  0  0  0  0  0  0  0  0  0
   36.0663   29.3835   51.5052 N   0  0  0  0  0  0  0  0  0  0  0  0
   40.1869   34.0482   46.6780 O   0  0  0  0  0  0  0  0  0  0  0  0
   38.0273   32.9558   50.5437 H   0  0  0  0  0  0  0  0  0  0  0  0
   39.5769   34.4052   49.2920 H   0  0  0  0  0  0  0  0  0  0  0  0
   38.8086   31.9356   45.9091 H   0  0  0  0  0  0  0  0  0  0  0  0
   37.9309   30.3942   51.2432 H   0  0  0  0  0  0  0  0  0  0  0  0
   35.1292   31.0168   48.1581 H   0  0  0  0  0  0  0  0  0  0  0  0
   34.0780   28.5625   51.3676 H   0  0  0  0  0  0  0  0  0  0  0  0
   42.5698   37.8590   49.0648 H   0  0  0  0  0  0  0  0  0  0  0  0
   41.9628   37.0218   48.9126 N   0  0  0  0  0  0  0  0  0  0  0  0
   40.9167   37.3713   47.9968 C   0  0  0  0  0  0  0  0  0  0  0  0
   40.0520   36.1420   47.7936 C   0  0  0  0  0  0  0  0  0  0  0  0
   40.9383   35.1635   47.0138 C   0  0  0  0  0  0  0  0  0  0  0  0
   42.0460   34.7616   47.9602 C   0  0  0  0  0  0  0  0  0  0  0  0
   42.8125   35.9573   48.4727 C   0  0  0  0  0  0  0  0  0  0  0  0
   41.3151   37.6532   47.0015 H   0  0  0  0  0  0  0  0  0  0  0  0
   40.3257   38.1771   48.4744 H   0  0  0  0  0  0  0  0  0  0  0  0
   39.1303   36.3538   47.2260 H   0  0  0  0  0  0  0  0  0  0  0  0
   39.8176   35.6471   48.7706 H   0  0  0  0  0  0  0  0  0  0  0  0
   41.2986   35.6830   46.1322 H   0  0  0  0  0  0  0  0  0  0  0  0
   42.7589   34.1274   47.4003 H   0  0  0  0  0  0  0  0  0  0  0  0
   41.6314   34.1632   48.7752 H   0  0  0  0  0  0  0  0  0  0  0  0
   43.5691   36.3136   47.7388 H   0  0  0  0  0  0  0  0  0  0  0  0
   43.3923   35.5981   49.3585 H   0  0  0  0  0  0  0  0  0  0  0  0
  1  2  2  0
  1  8  1  0
  3  2  1  0
  4  3  2  0
  5  4  1  0
  5  6  2  0
  6  1  1  0
  7 12  2  0
  8  7  1  0
  9  8  2  0
  9 10  1  0
 10 11  2  0
 11 12  1  0
 13  4  1  0
  2 14  1  0
  3 15  1  0
  5 16  1  0
  7 17  1  0
  9 18  1  0
 11 19  1  0
 20 21  1  0
 21 22  1  0
 22 23  1  0
 23 24  1  0
 24 25  1  0
 25 26  1  0
 26 21  1  0
 22 27  1  0
 22 28  1  0
 23 29  1  0
 23 30  1  0
 24 31  1  0
 25 32  1  0
 25 33  1  0
 26 34  1  0
 26 35  1  0
 13 24  1  0
M  ISO  7  14  14  15  14  16  14  17  14  18  14  19  14  20   5
M  END
>  <DihAtoms>  (1) 
3,12,23,22

>  <DihDeg>  (1) 
118.42153974363141

$$$$
