
     RDKit          3D

 35 37  0  0  0  0  0  0  0  0999 V2000
   37.5633   31.6516   48.9286 C   0  0  0  0  0  0  0  0  0  0  0  0
   38.2003   32.7153   49.4843 C   0  0  0  0  0  0  0  0  0  0  0  0
   39.0714   33.5590   48.8469 C   0  0  0  0  0  0  0  0  0  0  0  0
   39.3539   33.3478   47.5315 C   0  0  0  0  0  0  0  0  0  0  0  0
   38.7000   32.2532   46.9554 C   0  0  0  0  0  0  0  0  0  0  0  0
   37.8465   31.4500   47.6335 N   0  0  0  0  0  0  0  0  0  0  0  0
   36.9403   30.1731   50.8694 C   0  0  0  0  0  0  0  0  0  0  0  0
   36.6529   30.7934   49.6488 C   0  0  0  0  0  0  0  0  0  0  0  0
   35.3970   30.5585   49.1009 C   0  0  0  0  0  0  0  0  0  0  0  0
   34.5246   29.7471   49.7734 N   0  0  0  0  0  0  0  0  0  0  0  0
   34.8637   29.1742   50.9552 C   0  0  0  0  0  0  0  0  0  0  0  0
   36.0663   29.3835   51.5052 N   0  0  0  0  0  0  0  0  0  0  0  0
   40.1869   34.0482   46.6780 O   0  0  0  0  0  0  0  0  0  0  0  0
   38.0273   32.9558   50.5437 H   0  0  0  0  0  0  0  0  0  0  0  0
   39.5769   34.4052   49.2920 H   0  0  0  0  0  0  0  0  0  0  0  0
   38.8086   31.9356   45.9091 H   0  0  0  0  0  0  0  0  0  0  0  0
   37.9309   30.3942   51.2432 H   0  0  0  0  0  0  0  0  0  0  0  0
   35.1292   31.0168   48.1581 H   0  0  0  0  0  0  0  0  0  0  0  0
   34.0780   28.5625   51.3676 H   0  0  0  0  0  0  0  0  0  0  0  0
   43.3608   37.3995   48.8210 H   0  0  0  0  0  0  0  0  0  0  0  0
   42.8234   36.5168   48.6641 N   0  0  0  0  0  0  0  0  0  0  0  0
   41.4222   36.8162   48.7096 C   0  0  0  0  0  0  0  0  0  0  0  0
   40.6663   35.5215   48.4797 C   0  0  0  0  0  0  0  0  0  0  0  0
   40.9383   35.1635   47.0138 C   0  0  0  0  0  0  0  0  0  0  0  0
   42.4093   34.8256   46.9347 C   0  0  0  0  0  0  0  0  0  0  0  0
   43.2765   35.9599   47.4258 C   0  0  0  0  0  0  0  0  0  0  0  0
   41.1213   37.5128   47.9016 H   0  0  0  0  0  0  0  0  0  0  0  0
   41.2084   37.2062   49.7240 H   0  0  0  0  0  0  0  0  0  0  0  0
   39.5813   35.6210   48.6509 H   0  0  0  0  0  0  0  0  0  0  0  0
   41.0955   34.6889   49.0938 H   0  0  0  0  0  0  0  0  0  0  0  0
   40.6659   36.0247   46.4129 H   0  0  0  0  0  0  0  0  0  0  0  0
   42.6623   34.6528   45.8716 H   0  0  0  0  0  0  0  0  0  0  0  0
   42.6015   33.8992   47.4813 H   0  0  0  0  0  0  0  0  0  0  0  0
   43.4153   36.7451   46.6498 H   0  0  0  0  0  0  0  0  0  0  0  0
   44.2901   35.5223   47.6016 H   0  0  0  0  0  0  0  0  0  0  0  0
  1  2  2  0
  1  8  1  0
  3  2  1  0
  4  3  2  0
  5  4  1  0
  5  6  2  0
  6  1  1  0
  7 12  2  0
  8  7  1  0
  9  8  2  0
  9 10  1  0
 10 11  2  0
 11 12  1  0
 13  4  1  0
  2 14  1  0
  3 15  1  0
  5 16  1  0
  7 17  1  0
  9 18  1  0
 11 19  1  0
 20 21  1  0
 21 22  1  0
 22 23  1  0
 23 24  1  0
 24 25  1  0
 25 26  1  0
 26 21  1  0
 22 27  1  0
 22 28  1  0
 23 29  1  0
 23 30  1  0
 24 31  1  0
 25 32  1  0
 25 33  1  0
 26 34  1  0
 26 35  1  0
 13 24  1  0
M  ISO  7  14  14  15  14  16  14  17  14  18  14  19  14  20   5
M  END
>  <DihAtoms>  (1) 
3,12,23,22

>  <DihDeg>  (1) 
118.42153974363141

$$$$
