
     RDKit          3D

 26 27  0  0  0  0  0  0  0  0999 V2000
   37.3279   30.2333   51.4271 C   0  0  0  0  0  0  0  0  0  0  0  0
   38.0708   30.7312   50.3505 C   0  0  0  0  0  0  0  0  0  0  0  0
   37.7039   30.3772   49.0399 C   0  0  0  0  0  0  0  0  0  0  0  0
   36.6136   29.5453   48.8939 N   0  0  0  0  0  0  0  0  0  0  0  0
   35.9216   29.0858   49.9712 C   0  0  0  0  0  0  0  0  0  0  0  0
   36.2903   29.4372   51.2130 N   0  0  0  0  0  0  0  0  0  0  0  0
   34.8640   28.2649   49.5935 O   0  0  0  0  0  0  0  0  0  0  0  0
   37.5693   30.4759   52.4535 H   0  0  0  0  0  0  0  0  0  0  0  0
   38.9032   31.3693   50.5111 H   0  0  0  0  0  0  0  0  0  0  0  0
   38.2447   30.7348   48.1740 H   0  0  0  0  0  0  0  0  0  0  0  0
   30.6967   26.5408   51.9166 H   0  0  0  0  0  0  0  0  0  0  0  0
   31.7050   26.7999   51.8218 N   0  0  0  0  0  0  0  0  0  0  0  0
   31.7467   28.1896   51.4891 C   0  0  0  0  0  0  0  0  0  0  0  0
   33.0939   28.7104   51.1103 C   0  0  0  0  0  0  0  0  0  0  0  0
   34.0226   27.6862   50.5599 C   0  0  0  0  0  0  0  0  0  0  0  0
   33.2755   26.5416   49.9351 C   0  0  0  0  0  0  0  0  0  0  0  0
   32.2845   25.9083   50.8694 C   0  0  0  0  0  0  0  0  0  0  0  0
   30.9671   28.4840   50.7535 H   0  0  0  0  0  0  0  0  0  0  0  0
   31.4622   28.7404   52.4334 H   0  0  0  0  0  0  0  0  0  0  0  0
   32.9456   29.5225   50.3462 H   0  0  0  0  0  0  0  0  0  0  0  0
   33.6240   29.2351   51.9508 H   0  0  0  0  0  0  0  0  0  0  0  0
   34.6036   27.2565   51.4081 H   0  0  0  0  0  0  0  0  0  0  0  0
   34.0418   25.8023   49.6063 H   0  0  0  0  0  0  0  0  0  0  0  0
   32.7552   26.8948   49.0198 H   0  0  0  0  0  0  0  0  0  0  0  0
   32.8547   25.1459   51.4688 H   0  0  0  0  0  0  0  0  0  0  0  0
   31.5437   25.3209   50.2860 H   0  0  0  0  0  0  0  0  0  0  0  0
  2  1  2  0
  3  2  1  0
  4  3  2  0
  4  5  1  0
  5  6  2  0
  6  1  1  0
  7  5  1  0
  1  8  1  0
  2  9  1  0
  3 10  1  0
 11 12  1  0
 12 13  1  0
 13 14  1  0
 14 15  1  0
 15 16  1  0
 16 17  1  0
 17 12  1  0
 13 18  1  0
 13 19  1  0
 14 20  1  0
 14 21  1  0
 15 22  1  0
 16 23  1  0
 16 24  1  0
 17 25  1  0
 17 26  1  0
  7 15  1  0
M  ISO  4   8  14   9  14  10  14  11   5
M  END
>  <DihAtoms>  (1) 
4,6,14,13

>  <DihDeg>  (1) 
120.04885550730879

$$$$
