
     RDKit          3D

 26 27  0  0  0  0  0  0  0  0999 V2000
   37.3279   30.2333   51.4271 C   0  0  0  0  0  0  0  0  0  0  0  0
   38.0708   30.7312   50.3505 C   0  0  0  0  0  0  0  0  0  0  0  0
   37.7039   30.3772   49.0399 C   0  0  0  0  0  0  0  0  0  0  0  0
   36.6136   29.5453   48.8939 N   0  0  0  0  0  0  0  0  0  0  0  0
   35.9216   29.0858   49.9712 C   0  0  0  0  0  0  0  0  0  0  0  0
   36.2903   29.4372   51.2130 N   0  0  0  0  0  0  0  0  0  0  0  0
   34.8640   28.2649   49.5935 O   0  0  0  0  0  0  0  0  0  0  0  0
   37.5693   30.4759   52.4535 H   0  0  0  0  0  0  0  0  0  0  0  0
   38.9032   31.3693   50.5111 H   0  0  0  0  0  0  0  0  0  0  0  0
   38.2447   30.7348   48.1740 H   0  0  0  0  0  0  0  0  0  0  0  0
   32.4404   27.4398   53.9731 H   0  0  0  0  0  0  0  0  0  0  0  0
   32.7526   27.2379   52.9961 N   0  0  0  0  0  0  0  0  0  0  0  0
   34.1815   27.2004   53.0166 C   0  0  0  0  0  0  0  0  0  0  0  0
   34.8327   27.1253   51.6750 C   0  0  0  0  0  0  0  0  0  0  0  0
   34.0226   27.6862   50.5599 C   0  0  0  0  0  0  0  0  0  0  0  0
   33.0534   28.7253   51.0494 C   0  0  0  0  0  0  0  0  0  0  0  0
   32.1621   28.2240   52.1495 C   0  0  0  0  0  0  0  0  0  0  0  0
   34.6282   27.9974   53.6496 H   0  0  0  0  0  0  0  0  0  0  0  0
   34.4563   26.2391   53.5423 H   0  0  0  0  0  0  0  0  0  0  0  0
   35.8097   27.6793   51.7362 H   0  0  0  0  0  0  0  0  0  0  0  0
   35.1397   26.0842   51.3837 H   0  0  0  0  0  0  0  0  0  0  0  0
   33.4086   26.8611   50.1310 H   0  0  0  0  0  0  0  0  0  0  0  0
   32.4543   29.0440   50.1653 H   0  0  0  0  0  0  0  0  0  0  0  0
   33.6132   29.6187   51.3980 H   0  0  0  0  0  0  0  0  0  0  0  0
   31.2916   27.7178   51.6479 H   0  0  0  0  0  0  0  0  0  0  0  0
   31.7199   29.0857   52.6937 H   0  0  0  0  0  0  0  0  0  0  0  0
  2  1  2  0
  3  2  1  0
  4  3  2  0
  4  5  1  0
  5  6  2  0
  6  1  1  0
  7  5  1  0
  1  8  1  0
  2  9  1  0
  3 10  1  0
 11 12  1  0
 12 13  1  0
 13 14  1  0
 14 15  1  0
 15 16  1  0
 16 17  1  0
 17 12  1  0
 13 18  1  0
 13 19  1  0
 14 20  1  0
 14 21  1  0
 15 22  1  0
 16 23  1  0
 16 24  1  0
 17 25  1  0
 17 26  1  0
  7 15  1  0
M  ISO  4   8  14   9  14  10  14  11   5
M  END
>  <DihAtoms>  (1) 
4,6,14,13

>  <DihDeg>  (1) 
120.04885550730879

$$$$
