
     RDKit          3D

 26 27  0  0  0  0  0  0  0  0999 V2000
   37.3279   30.2333   51.4271 C   0  0  0  0  0  0  0  0  0  0  0  0
   38.0708   30.7312   50.3505 C   0  0  0  0  0  0  0  0  0  0  0  0
   37.7039   30.3772   49.0399 C   0  0  0  0  0  0  0  0  0  0  0  0
   36.6136   29.5453   48.8939 N   0  0  0  0  0  0  0  0  0  0  0  0
   35.9216   29.0858   49.9712 C   0  0  0  0  0  0  0  0  0  0  0  0
   36.2903   29.4372   51.2130 N   0  0  0  0  0  0  0  0  0  0  0  0
   34.8640   28.2649   49.5935 O   0  0  0  0  0  0  0  0  0  0  0  0
   37.5693   30.4759   52.4535 H   0  0  0  0  0  0  0  0  0  0  0  0
   38.9032   31.3693   50.5111 H   0  0  0  0  0  0  0  0  0  0  0  0
   38.2447   30.7348   48.1740 H   0  0  0  0  0  0  0  0  0  0  0  0
   33.0685   25.0687   53.1001 H   0  0  0  0  0  0  0  0  0  0  0  0
   33.0492   25.8802   52.4413 N   0  0  0  0  0  0  0  0  0  0  0  0
   33.2846   25.3571   51.1319 C   0  0  0  0  0  0  0  0  0  0  0  0
   33.4977   26.3834   50.0684 C   0  0  0  0  0  0  0  0  0  0  0  0
   34.0226   27.6862   50.5599 C   0  0  0  0  0  0  0  0  0  0  0  0
   34.7897   27.5246   51.8421 C   0  0  0  0  0  0  0  0  0  0  0  0
   33.9981   26.8351   52.9163 C   0  0  0  0  0  0  0  0  0  0  0  0
   34.0706   24.5713   51.1125 H   0  0  0  0  0  0  0  0  0  0  0  0
   32.3378   24.8126   50.8436 H   0  0  0  0  0  0  0  0  0  0  0  0
   34.2176   25.9553   49.3176 H   0  0  0  0  0  0  0  0  0  0  0  0
   32.5777   26.5943   49.4586 H   0  0  0  0  0  0  0  0  0  0  0  0
   33.1527   28.3417   50.7947 H   0  0  0  0  0  0  0  0  0  0  0  0
   35.0914   28.5479   52.1643 H   0  0  0  0  0  0  0  0  0  0  0  0
   35.7255   26.9601   51.6450 H   0  0  0  0  0  0  0  0  0  0  0  0
   33.3982   27.6347   53.4323 H   0  0  0  0  0  0  0  0  0  0  0  0
   34.6870   26.4439   53.6951 H   0  0  0  0  0  0  0  0  0  0  0  0
  2  1  2  0
  3  2  1  0
  4  3  2  0
  4  5  1  0
  5  6  2  0
  6  1  1  0
  7  5  1  0
  1  8  1  0
  2  9  1  0
  3 10  1  0
 11 12  1  0
 12 13  1  0
 13 14  1  0
 14 15  1  0
 15 16  1  0
 16 17  1  0
 17 12  1  0
 13 18  1  0
 13 19  1  0
 14 20  1  0
 14 21  1  0
 15 22  1  0
 16 23  1  0
 16 24  1  0
 17 25  1  0
 17 26  1  0
  7 15  1  0
M  ISO  4   8  14   9  14  10  14  11   5
M  END
>  <DihAtoms>  (1) 
4,6,14,13

>  <DihDeg>  (1) 
120.04885550730879

$$$$
