
     RDKit          3D

 26 27  0  0  0  0  0  0  0  0999 V2000
   37.3279   30.2333   51.4271 C   0  0  0  0  0  0  0  0  0  0  0  0
   38.0708   30.7312   50.3505 C   0  0  0  0  0  0  0  0  0  0  0  0
   37.7039   30.3772   49.0399 C   0  0  0  0  0  0  0  0  0  0  0  0
   36.6136   29.5453   48.8939 N   0  0  0  0  0  0  0  0  0  0  0  0
   35.9216   29.0858   49.9712 C   0  0  0  0  0  0  0  0  0  0  0  0
   36.2903   29.4372   51.2130 N   0  0  0  0  0  0  0  0  0  0  0  0
   34.8640   28.2649   49.5935 O   0  0  0  0  0  0  0  0  0  0  0  0
   37.5693   30.4759   52.4535 H   0  0  0  0  0  0  0  0  0  0  0  0
   38.9032   31.3693   50.5111 H   0  0  0  0  0  0  0  0  0  0  0  0
   38.2447   30.7348   48.1740 H   0  0  0  0  0  0  0  0  0  0  0  0
   32.5474   24.8000   52.4855 H   0  0  0  0  0  0  0  0  0  0  0  0
   32.7361   25.7493   52.0904 N   0  0  0  0  0  0  0  0  0  0  0  0
   32.5569   25.6527   50.6754 C   0  0  0  0  0  0  0  0  0  0  0  0
   32.9781   26.8571   49.8996 C   0  0  0  0  0  0  0  0  0  0  0  0
   34.0226   27.6862   50.5599 C   0  0  0  0  0  0  0  0  0  0  0  0
   34.8561   26.8720   51.5091 C   0  0  0  0  0  0  0  0  0  0  0  0
   34.0347   26.1430   52.5337 C   0  0  0  0  0  0  0  0  0  0  0  0
   32.9764   24.7168   50.2469 H   0  0  0  0  0  0  0  0  0  0  0  0
   31.4430   25.5601   50.5122 H   0  0  0  0  0  0  0  0  0  0  0  0
   33.3616   26.5061   48.9022 H   0  0  0  0  0  0  0  0  0  0  0  0
   32.1247   27.5360   49.6280 H   0  0  0  0  0  0  0  0  0  0  0  0
   33.5098   28.4599   51.1764 H   0  0  0  0  0  0  0  0  0  0  0  0
   35.5659   27.5791   51.9972 H   0  0  0  0  0  0  0  0  0  0  0  0
   35.4691   26.1460   50.9343 H   0  0  0  0  0  0  0  0  0  0  0  0
   33.8653   26.8661   53.3787 H   0  0  0  0  0  0  0  0  0  0  0  0
   34.6343   25.3188   52.9755 H   0  0  0  0  0  0  0  0  0  0  0  0
  2  1  2  0
  3  2  1  0
  4  3  2  0
  4  5  1  0
  5  6  2  0
  6  1  1  0
  7  5  1  0
  1  8  1  0
  2  9  1  0
  3 10  1  0
 11 12  1  0
 12 13  1  0
 13 14  1  0
 14 15  1  0
 15 16  1  0
 16 17  1  0
 17 12  1  0
 13 18  1  0
 13 19  1  0
 14 20  1  0
 14 21  1  0
 15 22  1  0
 16 23  1  0
 16 24  1  0
 17 25  1  0
 17 26  1  0
  7 15  1  0
M  ISO  4   8  14   9  14  10  14  11   5
M  END
>  <DihAtoms>  (1) 
4,6,14,13

>  <DihDeg>  (1) 
120.04885550730879

$$$$
