
     RDKit          3D

 26 27  0  0  0  0  0  0  0  0999 V2000
   37.3279   30.2333   51.4271 C   0  0  0  0  0  0  0  0  0  0  0  0
   38.0708   30.7312   50.3505 C   0  0  0  0  0  0  0  0  0  0  0  0
   37.7039   30.3772   49.0399 C   0  0  0  0  0  0  0  0  0  0  0  0
   36.6136   29.5453   48.8939 N   0  0  0  0  0  0  0  0  0  0  0  0
   35.9216   29.0858   49.9712 C   0  0  0  0  0  0  0  0  0  0  0  0
   36.2903   29.4372   51.2130 N   0  0  0  0  0  0  0  0  0  0  0  0
   34.8640   28.2649   49.5935 O   0  0  0  0  0  0  0  0  0  0  0  0
   37.5693   30.4759   52.4535 H   0  0  0  0  0  0  0  0  0  0  0  0
   38.9032   31.3693   50.5111 H   0  0  0  0  0  0  0  0  0  0  0  0
   38.2447   30.7348   48.1740 H   0  0  0  0  0  0  0  0  0  0  0  0
   31.4351   27.7781   53.3005 H   0  0  0  0  0  0  0  0  0  0  0  0
   32.1743   27.4671   52.6299 N   0  0  0  0  0  0  0  0  0  0  0  0
   33.3417   28.2433   52.9099 C   0  0  0  0  0  0  0  0  0  0  0  0
   34.4537   28.0934   51.9247 C   0  0  0  0  0  0  0  0  0  0  0  0
   34.0226   27.6862   50.5599 C   0  0  0  0  0  0  0  0  0  0  0  0
   32.6041   28.0981   50.2826 C   0  0  0  0  0  0  0  0  0  0  0  0
   31.6351   27.5956   51.3144 C   0  0  0  0  0  0  0  0  0  0  0  0
   33.1140   29.3112   53.1180 H   0  0  0  0  0  0  0  0  0  0  0  0
   33.7464   27.8481   53.8877 H   0  0  0  0  0  0  0  0  0  0  0  0
   34.9925   29.0788   51.8627 H   0  0  0  0  0  0  0  0  0  0  0  0
   35.2537   27.3778   52.2576 H   0  0  0  0  0  0  0  0  0  0  0  0
   34.0421   26.5732   50.5100 H   0  0  0  0  0  0  0  0  0  0  0  0
   32.3495   27.7040   49.2717 H   0  0  0  0  0  0  0  0  0  0  0  0
   32.5454   29.2053   50.2207 H   0  0  0  0  0  0  0  0  0  0  0  0
   31.3442   26.5560   50.9980 H   0  0  0  0  0  0  0  0  0  0  0  0
   30.6954   28.1860   51.2631 H   0  0  0  0  0  0  0  0  0  0  0  0
  2  1  2  0
  3  2  1  0
  4  3  2  0
  4  5  1  0
  5  6  2  0
  6  1  1  0
  7  5  1  0
  1  8  1  0
  2  9  1  0
  3 10  1  0
 11 12  1  0
 12 13  1  0
 13 14  1  0
 14 15  1  0
 15 16  1  0
 16 17  1  0
 17 12  1  0
 13 18  1  0
 13 19  1  0
 14 20  1  0
 14 21  1  0
 15 22  1  0
 16 23  1  0
 16 24  1  0
 17 25  1  0
 17 26  1  0
  7 15  1  0
M  ISO  4   8  14   9  14  10  14  11   5
M  END
>  <DihAtoms>  (1) 
4,6,14,13

>  <DihDeg>  (1) 
120.04885550730879

$$$$
