
     RDKit          3D

 36 38  0  0  0  0  0  0  0  0999 V2000
   35.8110   29.2470   49.2920 C   0  0  0  0  0  0  0  0  0  0  0  0
   35.9620   30.2140   48.2720 C   0  0  0  0  0  0  0  0  0  0  0  0
   35.1940   30.0550   47.1270 C   0  0  0  0  0  0  0  0  0  0  0  0
   34.3480   28.9980   47.0370 N   0  0  0  0  0  0  0  0  0  0  0  0
   34.2270   28.1030   48.0160 C   0  0  0  0  0  0  0  0  0  0  0  0
   34.9560   28.2160   49.1540 N   0  0  0  0  0  0  0  0  0  0  0  0
   36.8850   31.2750   48.4930 N   0  0  0  0  0  0  0  0  0  0  0  0
   36.9250   31.9590   49.6410 C   0  0  0  0  0  0  0  0  0  0  0  0
   37.8540   32.9870   49.7940 C   0  0  0  0  0  0  0  0  0  0  0  0
   38.6630   33.2010   48.7180 C   0  0  0  0  0  0  0  0  0  0  0  0
   39.5110   34.1380   48.8560 O   0  0  0  0  0  0  0  0  0  0  0  0
   38.6500   32.5370   47.5610 N   0  0  0  0  0  0  0  0  0  0  0  0
   37.7250   31.5500   47.4730 C   0  0  0  0  0  0  0  0  0  0  0  0
   37.7040   30.9090   46.3710 O   0  0  0  0  0  0  0  0  0  0  0  0
   33.3530   27.0140   47.9220 O   0  0  0  0  0  0  0  0  0  0  0  0
   29.5590   28.4500   48.5540 N   0  0  0  0  0  0  0  0  0  0  0  0
   30.5370   27.7690   49.3680 C   0  0  0  0  0  0  0  0  0  0  0  0
   31.0700   26.6000   48.5350 C   0  0  0  0  0  0  0  0  0  0  0  0
   32.0390   27.1050   47.4830 C   0  0  0  0  0  0  0  0  0  0  0  0
   31.5820   28.5050   47.1400 C   0  0  0  0  0  0  0  0  0  0  0  0
   30.0540   28.4970   47.2010 C   0  0  0  0  0  0  0  0  0  0  0  0
   36.4025   29.3384   50.2149 H   0  0  0  0  0  0  0  0  0  0  0  0
   35.2703   30.7780   46.3015 H   0  0  0  0  0  0  0  0  0  0  0  0
   36.2307   31.7127   50.4579 H   0  0  0  0  0  0  0  0  0  0  0  0
   37.9288   33.5822   50.7160 H   0  0  0  0  0  0  0  0  0  0  0  0
   39.2962   32.7583   46.7901 H   0  0  0  0  0  0  0  0  0  0  0  0
   28.6656   27.9382   48.5809 H   0  0  0  0  0  0  0  0  0  0  0  0
   31.3574   28.4544   49.6269 H   0  0  0  0  0  0  0  0  0  0  0  0
   30.0890   27.4122   50.3071 H   0  0  0  0  0  0  0  0  0  0  0  0
   31.5887   25.8898   49.1957 H   0  0  0  0  0  0  0  0  0  0  0  0
   30.2263   26.1011   48.0357 H   0  0  0  0  0  0  0  0  0  0  0  0
   32.0328   26.4905   46.5707 H   0  0  0  0  0  0  0  0  0  0  0  0
   31.9194   28.7767   46.1289 H   0  0  0  0  0  0  0  0  0  0  0  0
   32.0017   29.2408   47.8418 H   0  0  0  0  0  0  0  0  0  0  0  0
   29.6763   29.4103   46.7180 H   0  0  0  0  0  0  0  0  0  0  0  0
   29.7021   27.5926   46.6832 H   0  0  0  0  0  0  0  0  0  0  0  0
  2  7  1  0
  2  1  2  0
  3  2  1  0
  4  3  2  0
  4  5  1  0
  5  6  2  0
  6  1  1  0
  7  8  1  0
  8  9  2  0
 10 11  2  0
 10  9  1  0
 12 10  1  0
 13 12  1  0
 13  7  1  0
 14 13  2  0
 15  5  1  0
 16 17  1  0
 18 17  1  0
 19 15  1  0
 19 18  1  0
 20 21  1  0
 20 19  1  0
 21 16  1  0
  1 22  1  0
  3 23  1  0
  8 24  1  0
  9 25  1  0
 12 26  1  0
 16 27  1  0
 17 28  1  0
 17 29  1  0
 18 30  1  0
 18 31  1  0
 19 32  1  0
 20 33  1  0
 20 34  1  0
 21 35  1  0
 21 36  1  0
M  ISO  8  22  14  23  14  24  14  25  14  26   9  27   5  28  13  29  13
M  ISO  7  30  13  31  13  32  13  33  13  34  13  35  13  36  13
M  END
>  <minimizedAffinity>  (1) 
-5.81348562

>  <minimizedRMSD>  (1) 
0.536577106

$$$$
