
     RDKit          3D

 26 27  0  0  0  0  0  0  0  0999 V2000
   37.3279   30.2333   51.4271 C   0  0  0  0  0  0  0  0  0  0  0  0
   38.0708   30.7312   50.3505 C   0  0  0  0  0  0  0  0  0  0  0  0
   37.7039   30.3772   49.0399 C   0  0  0  0  0  0  0  0  0  0  0  0
   36.6136   29.5453   48.8939 N   0  0  0  0  0  0  0  0  0  0  0  0
   35.9216   29.0858   49.9712 C   0  0  0  0  0  0  0  0  0  0  0  0
   36.2903   29.4372   51.2130 N   0  0  0  0  0  0  0  0  0  0  0  0
   34.8640   28.2649   49.5935 O   0  0  0  0  0  0  0  0  0  0  0  0
   37.5693   30.4759   52.4535 H   0  0  0  0  0  0  0  0  0  0  0  0
   38.9032   31.3693   50.5111 H   0  0  0  0  0  0  0  0  0  0  0  0
   38.2447   30.7348   48.1740 H   0  0  0  0  0  0  0  0  0  0  0  0
   30.9140   27.5095   52.6859 H   0  0  0  0  0  0  0  0  0  0  0  0
   31.8613   27.3362   52.2790 N   0  0  0  0  0  0  0  0  0  0  0  0
   32.6140   28.5389   52.4534 C   0  0  0  0  0  0  0  0  0  0  0  0
   33.9340   28.5671   51.7559 C   0  0  0  0  0  0  0  0  0  0  0  0
   34.0226   27.6862   50.5599 C   0  0  0  0  0  0  0  0  0  0  0  0
   32.6705   27.4455   49.9496 C   0  0  0  0  0  0  0  0  0  0  0  0
   31.6717   26.9036   50.9318 C   0  0  0  0  0  0  0  0  0  0  0  0
   32.0199   29.4566   52.2525 H   0  0  0  0  0  0  0  0  0  0  0  0
   32.8516   28.5956   53.5563 H   0  0  0  0  0  0  0  0  0  0  0  0
   34.1366   29.6296   51.4473 H   0  0  0  0  0  0  0  0  0  0  0  0
   34.8007   28.3195   52.4271 H   0  0  0  0  0  0  0  0  0  0  0  0
   34.3992   26.6913   50.8917 H   0  0  0  0  0  0  0  0  0  0  0  0
   32.8240   26.7352   49.1046 H   0  0  0  0  0  0  0  0  0  0  0  0
   32.2890   28.3912   49.5100 H   0  0  0  0  0  0  0  0  0  0  0  0
   31.8113   25.7873   50.9445 H   0  0  0  0  0  0  0  0  0  0  0  0
   30.6428   27.0609   50.5435 H   0  0  0  0  0  0  0  0  0  0  0  0
  2  1  2  0
  3  2  1  0
  4  3  2  0
  4  5  1  0
  5  6  2  0
  6  1  1  0
  7  5  1  0
  1  8  1  0
  2  9  1  0
  3 10  1  0
 11 12  1  0
 12 13  1  0
 13 14  1  0
 14 15  1  0
 15 16  1  0
 16 17  1  0
 17 12  1  0
 13 18  1  0
 13 19  1  0
 14 20  1  0
 14 21  1  0
 15 22  1  0
 16 23  1  0
 16 24  1  0
 17 25  1  0
 17 26  1  0
  7 15  1  0
M  ISO  4   8  14   9  14  10  14  11   5
M  END
>  <DihAtoms>  (1) 
4,6,14,13

>  <DihDeg>  (1) 
120.04885550730879

$$$$
