
     RDKit          3D

 26 27  0  0  0  0  0  0  0  0999 V2000
   37.3279   30.2333   51.4271 C   0  0  0  0  0  0  0  0  0  0  0  0
   38.0708   30.7312   50.3505 C   0  0  0  0  0  0  0  0  0  0  0  0
   37.7039   30.3772   49.0399 C   0  0  0  0  0  0  0  0  0  0  0  0
   36.6136   29.5453   48.8939 N   0  0  0  0  0  0  0  0  0  0  0  0
   35.9216   29.0858   49.9712 C   0  0  0  0  0  0  0  0  0  0  0  0
   36.2903   29.4372   51.2130 N   0  0  0  0  0  0  0  0  0  0  0  0
   34.8640   28.2649   49.5935 O   0  0  0  0  0  0  0  0  0  0  0  0
   37.5693   30.4759   52.4535 H   0  0  0  0  0  0  0  0  0  0  0  0
   38.9032   31.3693   50.5111 H   0  0  0  0  0  0  0  0  0  0  0  0
   38.2447   30.7348   48.1740 H   0  0  0  0  0  0  0  0  0  0  0  0
   31.5422   25.1383   51.8129 H   0  0  0  0  0  0  0  0  0  0  0  0
   32.1579   25.9785   51.7242 N   0  0  0  0  0  0  0  0  0  0  0  0
   31.7171   26.6956   50.5687 C   0  0  0  0  0  0  0  0  0  0  0  0
   32.5990   27.8252   50.1494 C   0  0  0  0  0  0  0  0  0  0  0  0
   34.0226   27.6862   50.5599 C   0  0  0  0  0  0  0  0  0  0  0  0
   34.4068   26.2448   50.7423 C   0  0  0  0  0  0  0  0  0  0  0  0
   33.5077   25.5146   51.6986 C   0  0  0  0  0  0  0  0  0  0  0  0
   31.4623   26.0305   49.7153 H   0  0  0  0  0  0  0  0  0  0  0  0
   30.7331   27.1691   50.8576 H   0  0  0  0  0  0  0  0  0  0  0  0
   32.5445   27.9056   49.0287 H   0  0  0  0  0  0  0  0  0  0  0  0
   32.2388   28.8296   50.5019 H   0  0  0  0  0  0  0  0  0  0  0  0
   34.1432   28.1719   51.5555 H   0  0  0  0  0  0  0  0  0  0  0  0
   35.4611   26.2391   51.1036 H   0  0  0  0  0  0  0  0  0  0  0  0
   34.4013   25.7326   49.7571 H   0  0  0  0  0  0  0  0  0  0  0  0
   33.9179   25.7043   52.7288 H   0  0  0  0  0  0  0  0  0  0  0  0
   33.6099   24.4191   51.5449 H   0  0  0  0  0  0  0  0  0  0  0  0
  2  1  2  0
  3  2  1  0
  4  3  2  0
  4  5  1  0
  5  6  2  0
  6  1  1  0
  7  5  1  0
  1  8  1  0
  2  9  1  0
  3 10  1  0
 11 12  1  0
 12 13  1  0
 13 14  1  0
 14 15  1  0
 15 16  1  0
 16 17  1  0
 17 12  1  0
 13 18  1  0
 13 19  1  0
 14 20  1  0
 14 21  1  0
 15 22  1  0
 16 23  1  0
 16 24  1  0
 17 25  1  0
 17 26  1  0
  7 15  1  0
M  ISO  4   8  14   9  14  10  14  11   5
M  END
>  <DihAtoms>  (1) 
4,6,14,13

>  <DihDeg>  (1) 
120.04885550730879

$$$$
