
     RDKit          3D

 26 27  0  0  0  0  0  0  0  0999 V2000
   37.3279   30.2333   51.4271 C   0  0  0  0  0  0  0  0  0  0  0  0
   38.0708   30.7312   50.3505 C   0  0  0  0  0  0  0  0  0  0  0  0
   37.7039   30.3772   49.0399 C   0  0  0  0  0  0  0  0  0  0  0  0
   36.6136   29.5453   48.8939 N   0  0  0  0  0  0  0  0  0  0  0  0
   35.9216   29.0858   49.9712 C   0  0  0  0  0  0  0  0  0  0  0  0
   36.2903   29.4372   51.2130 N   0  0  0  0  0  0  0  0  0  0  0  0
   34.8640   28.2649   49.5935 O   0  0  0  0  0  0  0  0  0  0  0  0
   37.5693   30.4759   52.4535 H   0  0  0  0  0  0  0  0  0  0  0  0
   38.9032   31.3693   50.5111 H   0  0  0  0  0  0  0  0  0  0  0  0
   38.2447   30.7348   48.1740 H   0  0  0  0  0  0  0  0  0  0  0  0
   32.8367   24.8866   52.7893 H   0  0  0  0  0  0  0  0  0  0  0  0
   32.9081   25.7868   52.2625 N   0  0  0  0  0  0  0  0  0  0  0  0
   32.9198   25.4540   50.8723 C   0  0  0  0  0  0  0  0  0  0  0  0
   33.2210   26.5901   49.9513 C   0  0  0  0  0  0  0  0  0  0  0  0
   34.0226   27.6862   50.5599 C   0  0  0  0  0  0  0  0  0  0  0  0
   34.8615   27.1882   51.7031 C   0  0  0  0  0  0  0  0  0  0  0  0
   34.0581   26.4756   52.7532 C   0  0  0  0  0  0  0  0  0  0  0  0
   33.5404   24.5605   50.6443 H   0  0  0  0  0  0  0  0  0  0  0  0
   31.8656   25.1328   50.6242 H   0  0  0  0  0  0  0  0  0  0  0  0
   33.7760   26.1756   49.0650 H   0  0  0  0  0  0  0  0  0  0  0  0
   32.3040   27.0514   49.4939 H   0  0  0  0  0  0  0  0  0  0  0  0
   33.3155   28.4320   50.9906 H   0  0  0  0  0  0  0  0  0  0  0  0
   35.3770   28.0784   52.1318 H   0  0  0  0  0  0  0  0  0  0  0  0
   35.6534   26.5135   51.3148 H   0  0  0  0  0  0  0  0  0  0  0  0
   33.6680   27.2694   53.4485 H   0  0  0  0  0  0  0  0  0  0  0  0
   34.7311   25.8506   53.3782 H   0  0  0  0  0  0  0  0  0  0  0  0
  2  1  2  0
  3  2  1  0
  4  3  2  0
  4  5  1  0
  5  6  2  0
  6  1  1  0
  7  5  1  0
  1  8  1  0
  2  9  1  0
  3 10  1  0
 11 12  1  0
 12 13  1  0
 13 14  1  0
 14 15  1  0
 15 16  1  0
 16 17  1  0
 17 12  1  0
 13 18  1  0
 13 19  1  0
 14 20  1  0
 14 21  1  0
 15 22  1  0
 16 23  1  0
 16 24  1  0
 17 25  1  0
 17 26  1  0
  7 15  1  0
M  ISO  4   8  14   9  14  10  14  11   5
M  END
>  <DihAtoms>  (1) 
4,6,14,13

>  <DihDeg>  (1) 
120.04885550730879

$$$$
