
     RDKit          3D

 26 27  0  0  0  0  0  0  0  0999 V2000
   37.3279   30.2333   51.4271 C   0  0  0  0  0  0  0  0  0  0  0  0
   38.0708   30.7312   50.3505 C   0  0  0  0  0  0  0  0  0  0  0  0
   37.7039   30.3772   49.0399 C   0  0  0  0  0  0  0  0  0  0  0  0
   36.6136   29.5453   48.8939 N   0  0  0  0  0  0  0  0  0  0  0  0
   35.9216   29.0858   49.9712 C   0  0  0  0  0  0  0  0  0  0  0  0
   36.2903   29.4372   51.2130 N   0  0  0  0  0  0  0  0  0  0  0  0
   34.8640   28.2649   49.5935 O   0  0  0  0  0  0  0  0  0  0  0  0
   37.5693   30.4759   52.4535 H   0  0  0  0  0  0  0  0  0  0  0  0
   38.9032   31.3693   50.5111 H   0  0  0  0  0  0  0  0  0  0  0  0
   38.2447   30.7348   48.1740 H   0  0  0  0  0  0  0  0  0  0  0  0
   33.2268   25.3340   53.3968 H   0  0  0  0  0  0  0  0  0  0  0  0
   33.1498   26.0232   52.6146 N   0  0  0  0  0  0  0  0  0  0  0  0
   33.6266   25.3686   51.4365 C   0  0  0  0  0  0  0  0  0  0  0  0
   33.7893   26.2511   50.2431 C   0  0  0  0  0  0  0  0  0  0  0  0
   34.0226   27.6862   50.5599 C   0  0  0  0  0  0  0  0  0  0  0  0
   34.6458   27.8583   51.9166 C   0  0  0  0  0  0  0  0  0  0  0  0
   33.8589   27.1969   53.0117 C   0  0  0  0  0  0  0  0  0  0  0  0
   34.5309   24.7487   51.6195 H   0  0  0  0  0  0  0  0  0  0  0  0
   32.8276   24.6213   51.1554 H   0  0  0  0  0  0  0  0  0  0  0  0
   34.6565   25.8601   49.6427 H   0  0  0  0  0  0  0  0  0  0  0  0
   32.9272   26.1961   49.5243 H   0  0  0  0  0  0  0  0  0  0  0  0
   33.0323   28.1952   50.6022 H   0  0  0  0  0  0  0  0  0  0  0  0
   34.7286   28.9557   52.0925 H   0  0  0  0  0  0  0  0  0  0  0  0
   35.6805   27.4555   51.9025 H   0  0  0  0  0  0  0  0  0  0  0  0
   33.0743   27.9371   53.3314 H   0  0  0  0  0  0  0  0  0  0  0  0
   34.5051   27.0582   53.9046 H   0  0  0  0  0  0  0  0  0  0  0  0
  2  1  2  0
  3  2  1  0
  4  3  2  0
  4  5  1  0
  5  6  2  0
  6  1  1  0
  7  5  1  0
  1  8  1  0
  2  9  1  0
  3 10  1  0
 11 12  1  0
 12 13  1  0
 13 14  1  0
 14 15  1  0
 15 16  1  0
 16 17  1  0
 17 12  1  0
 13 18  1  0
 13 19  1  0
 14 20  1  0
 14 21  1  0
 15 22  1  0
 16 23  1  0
 16 24  1  0
 17 25  1  0
 17 26  1  0
  7 15  1  0
M  ISO  4   8  14   9  14  10  14  11   5
M  END
>  <DihAtoms>  (1) 
4,6,14,13

>  <DihDeg>  (1) 
120.04885550730879

$$$$
