
     RDKit          3D

 26 27  0  0  0  0  0  0  0  0999 V2000
   37.3279   30.2333   51.4271 C   0  0  0  0  0  0  0  0  0  0  0  0
   38.0708   30.7312   50.3505 C   0  0  0  0  0  0  0  0  0  0  0  0
   37.7039   30.3772   49.0399 C   0  0  0  0  0  0  0  0  0  0  0  0
   36.6136   29.5453   48.8939 N   0  0  0  0  0  0  0  0  0  0  0  0
   35.9216   29.0858   49.9712 C   0  0  0  0  0  0  0  0  0  0  0  0
   36.2903   29.4372   51.2130 N   0  0  0  0  0  0  0  0  0  0  0  0
   34.8640   28.2649   49.5935 O   0  0  0  0  0  0  0  0  0  0  0  0
   37.5693   30.4759   52.4535 H   0  0  0  0  0  0  0  0  0  0  0  0
   38.9032   31.3693   50.5111 H   0  0  0  0  0  0  0  0  0  0  0  0
   38.2447   30.7348   48.1740 H   0  0  0  0  0  0  0  0  0  0  0  0
   30.7557   27.2442   52.3892 H   0  0  0  0  0  0  0  0  0  0  0  0
   31.7606   27.1931   52.1057 N   0  0  0  0  0  0  0  0  0  0  0  0
   32.2720   28.5274   52.1487 C   0  0  0  0  0  0  0  0  0  0  0  0
   33.6425   28.6994   51.5813 C   0  0  0  0  0  0  0  0  0  0  0  0
   34.0226   27.6862   50.5599 C   0  0  0  0  0  0  0  0  0  0  0  0
   32.8144   27.1118   49.8751 C   0  0  0  0  0  0  0  0  0  0  0  0
   31.8110   26.5418   50.8364 C   0  0  0  0  0  0  0  0  0  0  0  0
   31.5596   29.2793   51.7455 H   0  0  0  0  0  0  0  0  0  0  0  0
   32.3618   28.7870   53.2445 H   0  0  0  0  0  0  0  0  0  0  0  0
   33.6977   29.7248   51.1222 H   0  0  0  0  0  0  0  0  0  0  0  0
   34.4513   28.7177   52.3613 H   0  0  0  0  0  0  0  0  0  0  0  0
   34.5196   26.8378   51.0843 H   0  0  0  0  0  0  0  0  0  0  0  0
   33.1868   26.3274   49.1763 H   0  0  0  0  0  0  0  0  0  0  0  0
   32.3340   27.8958   49.2525 H   0  0  0  0  0  0  0  0  0  0  0  0
   32.1352   25.4850   51.0454 H   0  0  0  0  0  0  0  0  0  0  0  0
   30.8247   26.4466   50.3340 H   0  0  0  0  0  0  0  0  0  0  0  0
  2  1  2  0
  3  2  1  0
  4  3  2  0
  4  5  1  0
  5  6  2  0
  6  1  1  0
  7  5  1  0
  1  8  1  0
  2  9  1  0
  3 10  1  0
 11 12  1  0
 12 13  1  0
 13 14  1  0
 14 15  1  0
 15 16  1  0
 16 17  1  0
 17 12  1  0
 13 18  1  0
 13 19  1  0
 14 20  1  0
 14 21  1  0
 15 22  1  0
 16 23  1  0
 16 24  1  0
 17 25  1  0
 17 26  1  0
  7 15  1  0
M  ISO  4   8  14   9  14  10  14  11   5
M  END
>  <DihAtoms>  (1) 
4,6,14,13

>  <DihDeg>  (1) 
120.04885550730879

$$$$
