
     RDKit          3D

 52 54  0  0  0  0  0  0  0  0999 V2000
   34.6740   29.3860   48.7430 C   0  0  0  0  0  0  0  0  0  0  0  0
   37.4350   30.4460   48.4920 Cl  0  0  0  0  0  0  0  0  0  0  0  0
   36.3110   30.2870   47.1290 C   0  0  0  0  0  0  0  0  0  0  0  0
   36.7150   30.6610   45.8960 C   0  0  0  0  0  0  0  0  0  0  0  0
   35.8570   30.5440   44.8330 C   0  0  0  0  0  0  0  0  0  0  0  0
   34.5880   30.0360   45.0620 C   0  0  0  0  0  0  0  0  0  0  0  0
   34.2340   29.6670   46.3670 C   0  0  0  0  0  0  0  0  0  0  0  0
   35.0680   29.7780   47.4220 C   0  0  0  0  0  0  0  0  0  0  0  0
   39.7150   32.8030   46.0270 C   0  0  0  0  0  0  0  0  0  0  0  0
   40.5950   32.0890   45.1560 C   0  0  0  0  0  0  0  0  0  0  0  0
   40.1210   30.8970   44.5590 C   0  0  0  0  0  0  0  0  0  0  0  0
   38.8570   30.4740   44.8280 N   0  0  0  0  0  0  0  0  0  0  0  0
   38.0500   31.1960   45.6720 C   0  0  0  0  0  0  0  0  0  0  0  0
   38.4810   32.3300   46.2500 N   0  0  0  0  0  0  0  0  0  0  0  0
   41.0160   30.2380   43.7240 N   0  0  0  0  0  0  0  0  0  0  0  0
   34.0320   28.0770   48.9510 C   0  0  0  0  0  0  0  0  0  0  0  0
   32.7090   28.2220   49.2950 O   0  0  0  0  0  0  0  0  0  0  0  0
   32.5160   26.5150   47.2960 O   0  0  0  0  0  0  0  0  0  0  0  0
   31.7220   27.4170   48.1920 P   0  0  2  0  0  0  0  0  0  0  0  0
   30.9290   28.6330   47.2750 O   0  0  0  0  0  0  0  0  0  0  0  0
   28.9040   28.1100   43.6490 N   0  0  0  0  0  0  0  0  0  0  0  0
   30.3320   27.8610   43.7240 C   0  0  0  0  0  0  0  0  0  0  0  0
   30.9380   28.5730   44.9280 C   0  0  0  0  0  0  0  0  0  0  0  0
   30.2520   28.1420   46.1920 C   0  0  0  0  0  0  0  0  0  0  0  0
   28.8280   28.6950   46.0500 C   0  0  0  0  0  0  0  0  0  0  0  0
   28.2100   27.9170   44.8830 C   0  0  0  0  0  0  0  0  0  0  0  0
   30.5270   26.5470   48.9550 O   0  0  0  0  0  0  0  0  0  0  0  0
   29.7790   27.3420   49.7920 C   0  0  0  0  0  0  0  0  0  0  0  0
   29.3330   26.6470   50.9260 F   0  0  0  0  0  0  0  0  0  0  0  0
   30.5360   28.3970   50.2810 F   0  0  0  0  0  0  0  0  0  0  0  0
   28.6800   27.8570   49.1520 F   0  0  0  0  0  0  0  0  0  0  0  0
   33.9696   30.1489   49.1061 H   0  0  0  0  0  0  0  0  0  0  0  0
   35.6295   29.2927   49.2800 H   0  0  0  0  0  0  0  0  0  0  0  0
   36.1685   30.8462   43.8222 H   0  0  0  0  0  0  0  0  0  0  0  0
   33.8717   29.9244   44.2347 H   0  0  0  0  0  0  0  0  0  0  0  0
   33.2243   29.2663   46.5401 H   0  0  0  0  0  0  0  0  0  0  0  0
   40.0479   33.7333   46.5105 H   0  0  0  0  0  0  0  0  0  0  0  0
   41.6124   32.4560   44.9554 H   0  0  0  0  0  0  0  0  0  0  0  0
   41.9584   30.6247   43.5714 H   0  0  0  0  0  0  0  0  0  0  0  0
   40.7368   29.3630   43.2579 H   0  0  0  0  0  0  0  0  0  0  0  0
   34.0992   27.4925   48.0216 H   0  0  0  0  0  0  0  0  0  0  0  0
   34.5511   27.5606   49.7719 H   0  0  0  0  0  0  0  0  0  0  0  0
   28.7615   29.0844   43.3473 H   0  0  0  0  0  0  0  0  0  0  0  0
   30.5059   26.7790   43.8186 H   0  0  0  0  0  0  0  0  0  0  0  0
   30.8074   28.2441   42.8090 H   0  0  0  0  0  0  0  0  0  0  0  0
   32.0079   28.3261   44.9942 H   0  0  0  0  0  0  0  0  0  0  0  0
   30.8070   29.6581   44.8035 H   0  0  0  0  0  0  0  0  0  0  0  0
   30.2266   27.0532   46.3467 H   0  0  0  0  0  0  0  0  0  0  0  0
   28.2545   28.5258   46.9733 H   0  0  0  0  0  0  0  0  0  0  0  0
   28.8242   29.7800   45.8690 H   0  0  0  0  0  0  0  0  0  0  0  0
   27.1689   28.2479   44.7543 H   0  0  0  0  0  0  0  0  0  0  0  0
   28.2752   26.8474   45.1315 H   0  0  0  0  0  0  0  0  0  0  0  0
  1 16  1  0
  3  8  2  0
  3  2  1  0
  4  3  1  0
  5  6  1  0
  5  4  2  0
  6  7  2  0
  7  8  1  0
  8  1  1  0
  9 14  2  0
 10  9  1  0
 11 12  1  0
 11 10  2  0
 12 13  2  0
 13  4  1  0
 13 14  1  0
 15 11  1  0
 16 17  1  0
 19 18  2  0
 19 27  1  0
 19 17  1  0
 20 19  1  0
 21 22  1  0
 21 26  1  0
 22 23  1  0
 23 24  1  0
 24 20  1  0
 25 24  1  0
 26 25  1  0
 27 28  1  0
 28 30  1  0
 28 29  1  0
 31 28  1  0
  1 32  1  0
  1 33  1  0
  5 34  1  0
  6 35  1  0
  7 36  1  0
  9 37  1  0
 10 38  1  0
 15 39  1  0
 15 40  1  0
 16 41  1  0
 16 42  1  0
 21 43  1  0
 22 44  1  0
 22 45  1  0
 23 46  1  0
 23 47  1  0
 24 48  1  0
 25 49  1  0
 25 50  1  0
 26 51  1  0
 26 52  1  0
M  ISO  8  32   8  33   8  34  14  35  14  36  14  37  14  38  14  41   8
M  ISO  8  42   8  43   5  44  13  45  13  46  13  47  13  48  13  49  13
M  ISO  3  50  13  51  13  52  13
M  END
>  <minimizedAffinity>  (1) 
-5.70572233

>  <minimizedRMSD>  (1) 
0.921227098

$$$$
