
     RDKit          3D

 26 27  0  0  0  0  0  0  0  0999 V2000
   37.3279   30.2333   51.4271 C   0  0  0  0  0  0  0  0  0  0  0  0
   38.0708   30.7312   50.3505 C   0  0  0  0  0  0  0  0  0  0  0  0
   37.7039   30.3772   49.0399 C   0  0  0  0  0  0  0  0  0  0  0  0
   36.6136   29.5453   48.8939 N   0  0  0  0  0  0  0  0  0  0  0  0
   35.9216   29.0858   49.9712 C   0  0  0  0  0  0  0  0  0  0  0  0
   36.2903   29.4372   51.2130 N   0  0  0  0  0  0  0  0  0  0  0  0
   34.8640   28.2649   49.5935 O   0  0  0  0  0  0  0  0  0  0  0  0
   37.5693   30.4759   52.4535 H   0  0  0  0  0  0  0  0  0  0  0  0
   38.9032   31.3693   50.5111 H   0  0  0  0  0  0  0  0  0  0  0  0
   38.2447   30.7348   48.1740 H   0  0  0  0  0  0  0  0  0  0  0  0
   33.3009   25.6644   53.6592 H   0  0  0  0  0  0  0  0  0  0  0  0
   33.2031   26.2061   52.7705 N   0  0  0  0  0  0  0  0  0  0  0  0
   33.9224   25.4877   51.7654 C   0  0  0  0  0  0  0  0  0  0  0  0
   34.0759   26.2022   50.4633 C   0  0  0  0  0  0  0  0  0  0  0  0
   34.0226   27.6862   50.5599 C   0  0  0  0  0  0  0  0  0  0  0  0
   34.4394   28.1666   51.9216 C   0  0  0  0  0  0  0  0  0  0  0  0
   33.6498   27.5363   53.0330 C   0  0  0  0  0  0  0  0  0  0  0  0
   34.8900   25.0804   52.1307 H   0  0  0  0  0  0  0  0  0  0  0  0
   33.3014   24.5719   51.5384 H   0  0  0  0  0  0  0  0  0  0  0  0
   35.0627   25.8967   50.0183 H   0  0  0  0  0  0  0  0  0  0  0  0
   33.3285   25.8838   49.6868 H   0  0  0  0  0  0  0  0  0  0  0  0
   32.9625   28.0025   50.4260 H   0  0  0  0  0  0  0  0  0  0  0  0
   34.3132   29.2739   51.9214 H   0  0  0  0  0  0  0  0  0  0  0  0
   35.5215   27.9659   52.0697 H   0  0  0  0  0  0  0  0  0  0  0  0
   32.7184   28.1559   53.1525 H   0  0  0  0  0  0  0  0  0  0  0  0
   34.1978   27.6517   53.9925 H   0  0  0  0  0  0  0  0  0  0  0  0
  2  1  2  0
  3  2  1  0
  4  3  2  0
  4  5  1  0
  5  6  2  0
  6  1  1  0
  7  5  1  0
  1  8  1  0
  2  9  1  0
  3 10  1  0
 11 12  1  0
 12 13  1  0
 13 14  1  0
 14 15  1  0
 15 16  1  0
 16 17  1  0
 17 12  1  0
 13 18  1  0
 13 19  1  0
 14 20  1  0
 14 21  1  0
 15 22  1  0
 16 23  1  0
 16 24  1  0
 17 25  1  0
 17 26  1  0
  7 15  1  0
M  ISO  4   8  14   9  14  10  14  11   5
M  END
>  <DihAtoms>  (1) 
4,6,14,13

>  <DihDeg>  (1) 
120.04885550730879

$$$$
