
     RDKit          3D

 35 37  0  0  0  0  0  0  0  0999 V2000
   38.9190   30.8600   45.7120 C   0  0  0  0  0  0  0  0  0  0  0  0
   40.0540   31.6170   45.8800 C   0  0  0  0  0  0  0  0  0  0  0  0
   40.8890   31.4460   44.7580 C   0  0  0  0  0  0  0  0  0  0  0  0
   40.2040   30.5750   43.9490 N   0  0  0  0  0  0  0  0  0  0  0  0
   39.0650   30.2440   44.5150 N   0  0  0  0  0  0  0  0  0  0  0  0
   37.7860   30.7310   46.6160 C   0  0  0  0  0  0  0  0  0  0  0  0
   38.0240   30.9860   47.9990 C   0  0  0  0  0  0  0  0  0  0  0  0
   36.9490   30.8670   48.8870 C   0  0  0  0  0  0  0  0  0  0  0  0
   35.7390   30.5150   48.3770 N   0  0  0  0  0  0  0  0  0  0  0  0
   35.5490   30.2810   47.0580 C   0  0  0  0  0  0  0  0  0  0  0  0
   36.5770   30.3930   46.1990 N   0  0  0  0  0  0  0  0  0  0  0  0
   37.1790   31.1270   50.3220 C   0  0  0  0  0  0  0  0  0  0  0  0
   36.6670   32.3860   50.5690 F   0  0  0  0  0  0  0  0  0  0  0  0
   36.5210   30.2150   51.1410 F   0  0  0  0  0  0  0  0  0  0  0  0
   38.5310   31.1380   50.6480 F   0  0  0  0  0  0  0  0  0  0  0  0
   41.0580   29.2110   40.2220 N   0  0  0  0  0  0  0  0  0  0  0  0
   40.0390   30.2590   40.2680 C   0  0  0  0  0  0  0  0  0  0  0  0
   40.2720   31.0380   41.5640 C   0  0  0  0  0  0  0  0  0  0  0  0
   40.7140   30.1230   42.6680 C   0  0  0  0  0  0  0  0  0  0  0  0
   40.1800   28.7190   42.4470 C   0  0  0  0  0  0  0  0  0  0  0  0
   40.6480   28.1630   41.1300 C   0  0  0  0  0  0  0  0  0  0  0  0
   40.2747   32.2533   46.7497 H   0  0  0  0  0  0  0  0  0  0  0  0
   41.8701   31.9074   44.5723 H   0  0  0  0  0  0  0  0  0  0  0  0
   39.0248   31.2684   48.3576 H   0  0  0  0  0  0  0  0  0  0  0  0
   34.5522   29.9988   46.6881 H   0  0  0  0  0  0  0  0  0  0  0  0
   41.1343   28.8370   39.2653 H   0  0  0  0  0  0  0  0  0  0  0  0
   40.1418   30.9268   39.4000 H   0  0  0  0  0  0  0  0  0  0  0  0
   39.0266   29.8297   40.2395 H   0  0  0  0  0  0  0  0  0  0  0  0
   41.0494   31.7972   41.3928 H   0  0  0  0  0  0  0  0  0  0  0  0
   39.3267   31.5155   41.8612 H   0  0  0  0  0  0  0  0  0  0  0  0
   41.8140   30.1267   42.6663 H   0  0  0  0  0  0  0  0  0  0  0  0
   40.5356   28.0674   43.2588 H   0  0  0  0  0  0  0  0  0  0  0  0
   39.0808   28.7605   42.4381 H   0  0  0  0  0  0  0  0  0  0  0  0
   39.8257   27.5949   40.6706 H   0  0  0  0  0  0  0  0  0  0  0  0
   41.5165   27.5154   41.3206 H   0  0  0  0  0  0  0  0  0  0  0  0
  1  2  1  0
  1  6  1  0
  3  2  2  0
  4  5  1  0
  4  3  1  0
  5  1  2  0
  6  7  2  0
  7  8  1  0
  8 12  1  0
  9  8  2  0
 10  9  1  0
 11  6  1  0
 11 10  2  0
 12 13  1  0
 12 15  1  0
 12 14  1  0
 16 17  1  0
 16 21  1  0
 17 18  1  0
 18 19  1  0
 19  4  1  0
 20 19  1  0
 21 20  1  0
  2 22  1  0
  3 23  1  0
  7 24  1  0
 10 25  1  0
 16 26  1  0
 17 27  1  0
 17 28  1  0
 18 29  1  0
 18 30  1  0
 19 31  1  0
 20 32  1  0
 20 33  1  0
 21 34  1  0
 21 35  1  0
M  ISO  8  22  14  23  14  24  14  25  14  26   5  27  13  28  13  29  13
M  ISO  6  30  13  31  13  32  13  33  13  34  13  35  13
M  END
>  <minimizedAffinity>  (1) 
-5.95133352

>  <minimizedRMSD>  (1) 
0.855639696

$$$$
