
     RDKit          3D

 41 43  0  0  0  0  0  0  0  0999 V2000
   37.9351   31.5681   49.8551 C   0  0  0  0  0  0  0  0  0  0  0  0
   37.9278   31.5981   48.4553 C   0  0  0  0  0  0  0  0  0  0  0  0
   37.0847   30.8164   47.7764 C   0  0  0  0  0  0  0  0  0  0  0  0
   36.2327   30.0150   48.4989 N   0  0  0  0  0  0  0  0  0  0  0  0
   36.2319   29.9975   49.8468 C   0  0  0  0  0  0  0  0  0  0  0  0
   37.0903   30.7712   50.5109 N   0  0  0  0  0  0  0  0  0  0  0  0
   38.2363   31.2625   45.7017 C   0  0  0  0  0  0  0  0  0  0  0  0
   37.0852   30.8108   46.3311 C   0  0  0  0  0  0  0  0  0  0  0  0
   35.9965   30.4294   45.6314 C   0  0  0  0  0  0  0  0  0  0  0  0
   35.9497   30.4660   44.2692 C   0  0  0  0  0  0  0  0  0  0  0  0
   37.0207   30.9022   43.5555 C   0  0  0  0  0  0  0  0  0  0  0  0
   38.1074   31.2792   44.2805 C   0  0  0  0  0  0  0  0  0  0  0  0
   39.6966   31.7293   46.3866 S   0  0  0  0  0  0  0  0  0  0  0  0
   40.0199   33.1284   45.9024 O   0  0  0  0  0  0  0  0  0  0  0  0
   40.6085   30.7793   45.5355 O   0  0  0  0  0  0  0  0  0  0  0  0
   35.1549   29.2151   50.4948 C   0  0  0  0  0  0  0  0  0  0  0  0
   35.3444   29.0984   51.8548 F   0  0  0  0  0  0  0  0  0  0  0  0
   33.8944   29.8986   50.3892 F   0  0  0  0  0  0  0  0  0  0  0  0
   34.9148   28.0244   49.9548 F   0  0  0  0  0  0  0  0  0  0  0  0
   38.6024   32.1696   50.4387 H   0  0  0  0  0  0  0  0  0  0  0  0
   38.4343   32.3191   47.9106 H   0  0  0  0  0  0  0  0  0  0  0  0
   35.1314   30.0806   46.2246 H   0  0  0  0  0  0  0  0  0  0  0  0
   35.0449   30.1339   43.8348 H   0  0  0  0  0  0  0  0  0  0  0  0
   37.0298   30.9537   42.4864 H   0  0  0  0  0  0  0  0  0  0  0  0
   38.9795   31.6354   43.6985 H   0  0  0  0  0  0  0  0  0  0  0  0
   42.3638   30.9296   50.6242 H   0  0  0  0  0  0  0  0  0  0  0  0
   42.8108   31.1191   49.7035 N   0  0  0  0  0  0  0  0  0  0  0  0
   42.4303   30.0633   48.8025 C   0  0  0  0  0  0  0  0  0  0  0  0
   40.9972   30.1868   48.3343 C   0  0  0  0  0  0  0  0  0  0  0  0
   40.7993   31.5225   47.5846 C   0  0  0  0  0  0  0  0  0  0  0  0
   41.9749   32.4533   47.8141 C   0  0  0  0  0  0  0  0  0  0  0  0
   42.5392   32.4324   49.1871 C   0  0  0  0  0  0  0  0  0  0  0  0
   42.5535   29.0922   49.2705 H   0  0  0  0  0  0  0  0  0  0  0  0
   43.0808   30.1415   47.9089 H   0  0  0  0  0  0  0  0  0  0  0  0
   40.3964   30.0634   49.2896 H   0  0  0  0  0  0  0  0  0  0  0  0
   40.7042   29.2840   47.8314 H   0  0  0  0  0  0  0  0  0  0  0  0
   40.2743   31.8941   48.5703 H   0  0  0  0  0  0  0  0  0  0  0  0
   41.5810   33.4998   47.6439 H   0  0  0  0  0  0  0  0  0  0  0  0
   42.7916   32.3602   47.1048 H   0  0  0  0  0  0  0  0  0  0  0  0
   41.8346   32.9301   49.8875 H   0  0  0  0  0  0  0  0  0  0  0  0
   43.4896   32.9837   49.1609 H   0  0  0  0  0  0  0  0  0  0  0  0
  1  6  2  0
  2  1  1  0
  3  2  2  0
  3  4  1  0
  4  5  2  0
  5 16  1  0
  5  6  1  0
  7  8  1  0
  7 13  1  0
  8  3  1  0
  9  8  2  0
 10  9  1  0
 11 12  1  0
 11 10  2  0
 12  7  2  0
 14 13  2  0
 15 13  2  0
 16 17  1  0
 18 16  1  0
 19 16  1  0
  1 20  1  0
  2 21  1  0
  9 22  1  0
 10 23  1  0
 11 24  1  0
 12 25  1  0
 26 27  1  0
 27 28  1  0
 28 29  1  0
 29 30  1  0
 30 31  1  0
 31 32  1  0
 32 27  1  0
 28 33  1  0
 28 34  1  0
 29 35  1  0
 29 36  1  0
 30 37  1  0
 31 38  1  0
 31 39  1  0
 32 40  1  0
 32 41  1  0
 13 30  1  0
M  ISO  7  20  14  21  14  22  14  23  14  24  14  25  14  26   5
M  END
>  <DihAtoms>  (1) 
6,12,29,28

>  <DihDeg>  (1) 
-108.13989888763436

$$$$
