
     RDKit          3D

 36 38  0  0  0  0  0  0  0  0999 V2000
   37.0610   30.6110   46.7970 Cl  0  0  0  0  0  0  0  0  0  0  0  0
   37.9040   31.8480   47.6990 C   0  0  0  0  0  0  0  0  0  0  0  0
   37.7490   31.8900   49.0620 C   0  0  0  0  0  0  0  0  0  0  0  0
   38.4450   32.8900   49.7300 C   0  0  0  0  0  0  0  0  0  0  0  0
   39.2420   33.7710   49.0070 C   0  0  0  0  0  0  0  0  0  0  0  0
   39.3590   33.6820   47.6410 C   0  0  0  0  0  0  0  0  0  0  0  0
   38.6810   32.7050   46.9620 C   0  0  0  0  0  0  0  0  0  0  0  0
   37.4160   30.2680   50.9340 C   0  0  0  0  0  0  0  0  0  0  0  0
   36.9090   30.9590   49.8260 C   0  0  0  0  0  0  0  0  0  0  0  0
   35.5920   30.7350   49.4750 C   0  0  0  0  0  0  0  0  0  0  0  0
   34.8550   29.8690   50.2070 N   0  0  0  0  0  0  0  0  0  0  0  0
   35.3700   29.2190   51.2690 C   0  0  0  0  0  0  0  0  0  0  0  0
   36.6470   29.4140   51.6350 N   0  0  0  0  0  0  0  0  0  0  0  0
   38.8050   32.6270   45.6060 O   0  0  0  0  0  0  0  0  0  0  0  0
   40.0700   30.4600   44.3020 N   0  0  0  0  0  0  0  0  0  0  0  0
   41.0220   30.8320   45.3430 C   0  0  0  0  0  0  0  0  0  0  0  0
   41.1900   32.3420   45.3710 C   0  0  0  0  0  0  0  0  0  0  0  0
   39.9170   33.0200   44.8810 C   0  0  0  0  0  0  0  0  0  0  0  0
   39.7820   32.7110   43.3950 C   0  0  0  0  0  0  0  0  0  0  0  0
   40.2040   31.3060   43.1430 C   0  0  0  0  0  0  0  0  0  0  0  0
   38.3662   32.9842   50.8231 H   0  0  0  0  0  0  0  0  0  0  0  0
   39.7925   34.5588   49.5422 H   0  0  0  0  0  0  0  0  0  0  0  0
   39.9954   34.3934   47.0943 H   0  0  0  0  0  0  0  0  0  0  0  0
   38.4616   30.4261   51.2368 H   0  0  0  0  0  0  0  0  0  0  0  0
   35.1488   31.2537   48.6122 H   0  0  0  0  0  0  0  0  0  0  0  0
   34.7389   28.5228   51.8409 H   0  0  0  0  0  0  0  0  0  0  0  0
   40.2403   29.4826   44.0254 H   0  0  0  0  0  0  0  0  0  0  0  0
   40.6489   30.4879   46.3189 H   0  0  0  0  0  0  0  0  0  0  0  0
   41.9938   30.3623   45.1312 H   0  0  0  0  0  0  0  0  0  0  0  0
   41.4011   32.6655   46.4010 H   0  0  0  0  0  0  0  0  0  0  0  0
   42.0243   32.6235   44.7116 H   0  0  0  0  0  0  0  0  0  0  0  0
   39.9825   34.1075   45.0326 H   0  0  0  0  0  0  0  0  0  0  0  0
   38.7341   32.8406   43.0867 H   0  0  0  0  0  0  0  0  0  0  0  0
   40.4200   33.3960   42.8173 H   0  0  0  0  0  0  0  0  0  0  0  0
   39.5828   30.8933   42.3344 H   0  0  0  0  0  0  0  0  0  0  0  0
   41.2701   31.3267   42.8729 H   0  0  0  0  0  0  0  0  0  0  0  0
  1  2  1  0
  2  3  2  0
  3  4  1  0
  3  9  1  0
  5  4  2  0
  6  5  1  0
  7  6  2  0
  7  2  1  0
  8 13  2  0
  9  8  1  0
 10  9  2  0
 10 11  1  0
 11 12  2  0
 12 13  1  0
 14  7  1  0
 15 16  1  0
 16 17  1  0
 18 17  1  0
 18 14  1  0
 19 18  1  0
 20 19  1  0
 20 15  1  0
  4 21  1  0
  5 22  1  0
  6 23  1  0
  8 24  1  0
 10 25  1  0
 12 26  1  0
 15 27  1  0
 16 28  1  0
 16 29  1  0
 17 30  1  0
 17 31  1  0
 18 32  1  0
 19 33  1  0
 19 34  1  0
 20 35  1  0
 20 36  1  0
M  ISO  8  21  14  22  14  23  14  24  14  25  14  26  14  27   5  28  13
M  ISO  8  29  13  30  13  31  13  32  13  33  13  34  13  35  13  36  13
M  END
>  <minimizedAffinity>  (1) 
-6.13447618

>  <minimizedRMSD>  (1) 
2.04824638

$$$$
