
     RDKit          3D

 41 43  0  0  0  0  0  0  0  0999 V2000
   37.9351   31.5681   49.8551 C   0  0  0  0  0  0  0  0  0  0  0  0
   37.9278   31.5981   48.4553 C   0  0  0  0  0  0  0  0  0  0  0  0
   37.0847   30.8164   47.7764 C   0  0  0  0  0  0  0  0  0  0  0  0
   36.2327   30.0150   48.4989 N   0  0  0  0  0  0  0  0  0  0  0  0
   36.2319   29.9975   49.8468 C   0  0  0  0  0  0  0  0  0  0  0  0
   37.0903   30.7712   50.5109 N   0  0  0  0  0  0  0  0  0  0  0  0
   38.2363   31.2625   45.7017 C   0  0  0  0  0  0  0  0  0  0  0  0
   37.0852   30.8108   46.3311 C   0  0  0  0  0  0  0  0  0  0  0  0
   35.9965   30.4294   45.6314 C   0  0  0  0  0  0  0  0  0  0  0  0
   35.9497   30.4660   44.2692 C   0  0  0  0  0  0  0  0  0  0  0  0
   37.0207   30.9022   43.5555 C   0  0  0  0  0  0  0  0  0  0  0  0
   38.1074   31.2792   44.2805 C   0  0  0  0  0  0  0  0  0  0  0  0
   39.6966   31.7293   46.3866 S   0  0  0  0  0  0  0  0  0  0  0  0
   40.0199   33.1284   45.9024 O   0  0  0  0  0  0  0  0  0  0  0  0
   40.6085   30.7793   45.5355 O   0  0  0  0  0  0  0  0  0  0  0  0
   35.1549   29.2151   50.4948 C   0  0  0  0  0  0  0  0  0  0  0  0
   35.3444   29.0984   51.8548 F   0  0  0  0  0  0  0  0  0  0  0  0
   33.8944   29.8986   50.3892 F   0  0  0  0  0  0  0  0  0  0  0  0
   34.9148   28.0244   49.9548 F   0  0  0  0  0  0  0  0  0  0  0  0
   38.6024   32.1696   50.4387 H   0  0  0  0  0  0  0  0  0  0  0  0
   38.4343   32.3191   47.9106 H   0  0  0  0  0  0  0  0  0  0  0  0
   35.1314   30.0806   46.2246 H   0  0  0  0  0  0  0  0  0  0  0  0
   35.0449   30.1339   43.8348 H   0  0  0  0  0  0  0  0  0  0  0  0
   37.0298   30.9537   42.4864 H   0  0  0  0  0  0  0  0  0  0  0  0
   38.9795   31.6354   43.6985 H   0  0  0  0  0  0  0  0  0  0  0  0
   43.7182   31.0338   49.3955 H   0  0  0  0  0  0  0  0  0  0  0  0
   42.7582   31.1933   49.7647 N   0  0  0  0  0  0  0  0  0  0  0  0
   42.3240   32.4912   49.3194 C   0  0  0  0  0  0  0  0  0  0  0  0
   41.9567   32.5095   47.8521 C   0  0  0  0  0  0  0  0  0  0  0  0
   40.7993   31.5225   47.5846 C   0  0  0  0  0  0  0  0  0  0  0  0
   40.5900   30.5975   48.7686 C   0  0  0  0  0  0  0  0  0  0  0  0
   41.8320   30.1428   49.4429 C   0  0  0  0  0  0  0  0  0  0  0  0
   43.0953   33.2357   49.4871 H   0  0  0  0  0  0  0  0  0  0  0  0
   41.4128   32.7496   49.8944 H   0  0  0  0  0  0  0  0  0  0  0  0
   42.9375   32.2725   47.3319 H   0  0  0  0  0  0  0  0  0  0  0  0
   41.8321   33.5252   47.5254 H   0  0  0  0  0  0  0  0  0  0  0  0
   41.6266   30.8138   47.1390 H   0  0  0  0  0  0  0  0  0  0  0  0
   40.0905   29.6709   48.3549 H   0  0  0  0  0  0  0  0  0  0  0  0
   39.8982   30.9545   49.5254 H   0  0  0  0  0  0  0  0  0  0  0  0
   42.3628   29.4133   48.7943 H   0  0  0  0  0  0  0  0  0  0  0  0
   41.5370   29.6581   50.3841 H   0  0  0  0  0  0  0  0  0  0  0  0
  1  6  2  0
  2  1  1  0
  3  2  2  0
  3  4  1  0
  4  5  2  0
  5 16  1  0
  5  6  1  0
  7  8  1  0
  7 13  1  0
  8  3  1  0
  9  8  2  0
 10  9  1  0
 11 12  1  0
 11 10  2  0
 12  7  2  0
 14 13  2  0
 15 13  2  0
 16 17  1  0
 18 16  1  0
 19 16  1  0
  1 20  1  0
  2 21  1  0
  9 22  1  0
 10 23  1  0
 11 24  1  0
 12 25  1  0
 26 27  1  0
 27 28  1  0
 28 29  1  0
 29 30  1  0
 30 31  1  0
 31 32  1  0
 32 27  1  0
 28 33  1  0
 28 34  1  0
 29 35  1  0
 29 36  1  0
 30 37  1  0
 31 38  1  0
 31 39  1  0
 32 40  1  0
 32 41  1  0
 13 30  1  0
M  ISO  7  20  14  21  14  22  14  23  14  24  14  25  14  26   5
M  END
>  <DihAtoms>  (1) 
6,12,29,28

>  <DihDeg>  (1) 
-108.13989888763436

$$$$
