
     RDKit          3D

 39 42  0  0  0  0  0  0  0  0999 V2000
   36.8469   30.5507   46.9054 C   0  0  0  0  0  0  0  0  0  0  0  0
   37.5149   31.0359   48.0252 C   0  0  0  0  0  0  0  0  0  0  0  0
   38.5136   31.9939   47.8991 C   0  0  0  0  0  0  0  0  0  0  0  0
   38.7930   32.4249   46.6024 C   0  0  0  0  0  0  0  0  0  0  0  0
   39.7305   33.3573   46.2276 N   0  0  0  0  0  0  0  0  0  0  0  0
   39.6416   33.4459   44.8931 C   0  0  0  0  0  0  0  0  0  0  0  0
   38.7069   32.6254   44.4221 N   0  0  0  0  0  0  0  0  0  0  0  0
   38.1605   31.9748   45.4700 C   0  0  0  0  0  0  0  0  0  0  0  0
   37.1638   31.0138   45.6337 C   0  0  0  0  0  0  0  0  0  0  0  0
   37.3870   30.0865   51.6675 C   0  0  0  0  0  0  0  0  0  0  0  0
   37.8486   30.6369   50.4806 C   0  0  0  0  0  0  0  0  0  0  0  0
   37.1256   30.5020   49.3163 C   0  0  0  0  0  0  0  0  0  0  0  0
   35.9543   29.8109   49.3945 N   0  0  0  0  0  0  0  0  0  0  0  0
   35.5151   29.2781   50.5620 C   0  0  0  0  0  0  0  0  0  0  0  0
   36.2251   29.4177   51.6761 N   0  0  0  0  0  0  0  0  0  0  0  0
   40.4686   34.3175   44.1825 O   0  0  0  0  0  0  0  0  0  0  0  0
   36.0675   29.8049   46.9891 H   0  0  0  0  0  0  0  0  0  0  0  0
   39.0286   32.3679   48.7630 H   0  0  0  0  0  0  0  0  0  0  0  0
   40.3790   33.8837   46.8864 H   0  0  0  0  0  0  0  0  0  0  0  0
   36.6631   30.6565   44.7455 H   0  0  0  0  0  0  0  0  0  0  0  0
   37.9618   30.1975   52.5775 H   0  0  0  0  0  0  0  0  0  0  0  0
   38.7817   31.1842   50.4312 H   0  0  0  0  0  0  0  0  0  0  0  0
   34.5727   28.7246   50.6146 H   0  0  0  0  0  0  0  0  0  0  0  0
   41.4991   33.1302   39.4114 H   0  0  0  0  0  0  0  0  0  0  0  0
   41.7808   33.3562   40.3747 N   0  0  0  0  0  0  0  0  0  0  0  0
   41.6619   34.7620   40.6956 C   0  0  0  0  0  0  0  0  0  0  0  0
   41.7409   34.9203   42.2161 C   0  0  0  0  0  0  0  0  0  0  0  0
   40.4238   34.4567   42.7785 C   0  0  0  0  0  0  0  0  0  0  0  0
   40.0201   33.1994   42.0783 C   0  0  0  0  0  0  0  0  0  0  0  0
   41.1741   32.5099   41.3734 C   0  0  0  0  0  0  0  0  0  0  0  0
   40.6927   35.1953   40.3889 H   0  0  0  0  0  0  0  0  0  0  0  0
   42.4628   35.3681   40.2238 H   0  0  0  0  0  0  0  0  0  0  0  0
   41.8502   35.9874   42.4498 H   0  0  0  0  0  0  0  0  0  0  0  0
   42.6007   34.3691   42.6363 H   0  0  0  0  0  0  0  0  0  0  0  0
   39.6898   35.2557   42.5621 H   0  0  0  0  0  0  0  0  0  0  0  0
   39.6880   32.4678   42.8658 H   0  0  0  0  0  0  0  0  0  0  0  0
   39.1480   33.3227   41.4065 H   0  0  0  0  0  0  0  0  0  0  0  0
   41.8937   32.1317   42.1140 H   0  0  0  0  0  0  0  0  0  0  0  0
   40.7312   31.6430   40.8375 H   0  0  0  0  0  0  0  0  0  0  0  0
  1  2  2  0
  2 12  1  0
  3  2  1  0
  4  3  2  0
  5  4  1  0
  6  5  1  0
  7  6  2  0
  7  8  1  0
  8  9  2  0
  8  4  1  0
  9  1  1  0
 10 15  2  0
 11 10  1  0
 12 13  1  0
 12 11  2  0
 13 14  2  0
 14 15  1  0
 16  6  1  0
  1 17  1  0
  3 18  1  0
  5 19  1  0
  9 20  1  0
 10 21  1  0
 11 22  1  0
 14 23  1  0
 24 25  1  0
 25 26  1  0
 26 27  1  0
 27 28  1  0
 28 29  1  0
 29 30  1  0
 30 25  1  0
 26 31  1  0
 26 32  1  0
 27 33  1  0
 27 34  1  0
 28 35  1  0
 29 36  1  0
 29 37  1  0
 30 38  1  0
 30 39  1  0
 16 28  1  0
M  ISO  8  17  14  18  14  19   9  20  14  21  14  22  14  23  14  24   5
M  END
>  <DihAtoms>  (1) 
5,15,27,26

>  <DihDeg>  (1) 
116.20423171175159

$$$$
