
     RDKit          3D

 42 45  0  0  0  0  0  0  0  0999 V2000
   33.8284   28.8010   48.2707 C   0  0  0  0  0  0  0  0  0  0  0  0
   34.4274   28.4331   49.4462 C   0  0  0  0  0  0  0  0  0  0  0  0
   35.7014   28.7998   49.8216 C   0  0  0  0  0  0  0  0  0  0  0  0
   36.4542   29.5817   48.9986 C   0  0  0  0  0  0  0  0  0  0  0  0
   35.8474   29.9616   47.7953 C   0  0  0  0  0  0  0  0  0  0  0  0
   34.5974   29.5792   47.4687 N   0  0  0  0  0  0  0  0  0  0  0  0
   31.6524   27.6508   48.6909 C   0  0  0  0  0  0  0  0  0  0  0  0
   32.5083   28.4105   47.8816 C   0  0  0  0  0  0  0  0  0  0  0  0
   32.0323   28.7745   46.6517 C   0  0  0  0  0  0  0  0  0  0  0  0
   30.7700   28.3924   46.2662 N   0  0  0  0  0  0  0  0  0  0  0  0
   29.9850   27.6527   47.0988 C   0  0  0  0  0  0  0  0  0  0  0  0
   30.4180   27.2792   48.3095 N   0  0  0  0  0  0  0  0  0  0  0  0
   37.7483   30.0443   49.2126 O   0  0  0  0  0  0  0  0  0  0  0  0
   38.1625   31.3000   48.7721 C   0  0  0  0  0  0  0  0  0  0  0  0
   37.8854   32.3179   49.6774 C   0  0  0  0  0  0  0  0  0  0  0  0
   38.3503   33.5008   49.1086 C   0  0  0  0  0  0  0  0  0  0  0  0
   38.8758   33.1793   47.9206 N   0  0  0  0  0  0  0  0  0  0  0  0
   38.7628   31.8901   47.7298 N   0  0  0  0  0  0  0  0  0  0  0  0
   33.8967   27.8121   50.1552 H   0  0  0  0  0  0  0  0  0  0  0  0
   36.1701   28.5066   50.7511 H   0  0  0  0  0  0  0  0  0  0  0  0
   36.3219   30.5800   47.0450 H   0  0  0  0  0  0  0  0  0  0  0  0
   31.9770   27.3458   49.6525 H   0  0  0  0  0  0  0  0  0  0  0  0
   32.6228   29.3658   45.9514 H   0  0  0  0  0  0  0  0  0  0  0  0
   29.0223   27.4371   46.6422 H   0  0  0  0  0  0  0  0  0  0  0  0
   37.4171   32.3951   50.6672 H   0  0  0  0  0  0  0  0  0  0  0  0
   38.3280   34.5214   49.4898 H   0  0  0  0  0  0  0  0  0  0  0  0
   41.9841   36.7172   47.6707 H   0  0  0  0  0  0  0  0  0  0  0  0
   41.5739   36.1436   46.8807 N   0  0  0  0  0  0  0  0  0  0  0  0
   40.1793   36.4154   46.7526 C   0  0  0  0  0  0  0  0  0  0  0  0
   39.2965   35.4992   47.5337 C   0  0  0  0  0  0  0  0  0  0  0  0
   39.4775   34.0959   46.9825 C   0  0  0  0  0  0  0  0  0  0  0  0
   40.9050   33.7761   46.6652 C   0  0  0  0  0  0  0  0  0  0  0  0
   41.8958   34.7802   47.1666 C   0  0  0  0  0  0  0  0  0  0  0  0
   39.8813   36.4225   45.6970 H   0  0  0  0  0  0  0  0  0  0  0  0
   40.0165   37.4614   47.1319 H   0  0  0  0  0  0  0  0  0  0  0  0
   39.5053   35.5564   48.6172 H   0  0  0  0  0  0  0  0  0  0  0  0
   38.2461   35.7799   47.3534 H   0  0  0  0  0  0  0  0  0  0  0  0
   38.9353   34.0925   46.0082 H   0  0  0  0  0  0  0  0  0  0  0  0
   41.1490   32.8071   47.1682 H   0  0  0  0  0  0  0  0  0  0  0  0
   41.1026   33.6120   45.5881 H   0  0  0  0  0  0  0  0  0  0  0  0
   42.8629   34.5740   46.6207 H   0  0  0  0  0  0  0  0  0  0  0  0
   42.1620   34.5869   48.2368 H   0  0  0  0  0  0  0  0  0  0  0  0
  1  2  2  0
  2  3  1  0
  4 13  1  0
  4  3  2  0
  5  4  1  0
  6  5  2  0
  6  1  1  0
  8  1  1  0
  8  7  2  0
  9  8  1  0
 10  9  2  0
 10 11  1  0
 11 12  2  0
 12  7  1  0
 14 13  1  0
 14 15  1  0
 16 15  2  0
 17 16  1  0
 18 17  1  0
 18 14  2  0
  2 19  1  0
  3 20  1  0
  5 21  1  0
  7 22  1  0
  9 23  1  0
 11 24  1  0
 15 25  1  0
 16 26  1  0
 27 28  1  0
 28 29  1  0
 29 30  1  0
 30 31  1  0
 31 32  1  0
 32 33  1  0
 33 28  1  0
 29 34  1  0
 29 35  1  0
 30 36  1  0
 30 37  1  0
 31 38  1  0
 32 39  1  0
 32 40  1  0
 33 41  1  0
 33 42  1  0
 17 31  1  0
M  ISO  8  19  14  20  14  21  14  22  14  23  14  24  14  25  14  26  14
M  ISO  1  27   5
M  END
>  <DihAtoms>  (1) 
15,16,30,29

>  <DihDeg>  (1) 
-49.84387462361573

$$$$
