
     RDKit          3D

 42 45  0  0  0  0  0  0  0  0999 V2000
   33.8284   28.8010   48.2707 C   0  0  0  0  0  0  0  0  0  0  0  0
   34.4274   28.4331   49.4462 C   0  0  0  0  0  0  0  0  0  0  0  0
   35.7014   28.7998   49.8216 C   0  0  0  0  0  0  0  0  0  0  0  0
   36.4542   29.5817   48.9986 C   0  0  0  0  0  0  0  0  0  0  0  0
   35.8474   29.9616   47.7953 C   0  0  0  0  0  0  0  0  0  0  0  0
   34.5974   29.5792   47.4687 N   0  0  0  0  0  0  0  0  0  0  0  0
   31.6524   27.6508   48.6909 C   0  0  0  0  0  0  0  0  0  0  0  0
   32.5083   28.4105   47.8816 C   0  0  0  0  0  0  0  0  0  0  0  0
   32.0323   28.7745   46.6517 C   0  0  0  0  0  0  0  0  0  0  0  0
   30.7700   28.3924   46.2662 N   0  0  0  0  0  0  0  0  0  0  0  0
   29.9850   27.6527   47.0988 C   0  0  0  0  0  0  0  0  0  0  0  0
   30.4180   27.2792   48.3095 N   0  0  0  0  0  0  0  0  0  0  0  0
   37.7483   30.0443   49.2126 O   0  0  0  0  0  0  0  0  0  0  0  0
   38.1625   31.3000   48.7721 C   0  0  0  0  0  0  0  0  0  0  0  0
   37.8854   32.3179   49.6774 C   0  0  0  0  0  0  0  0  0  0  0  0
   38.3503   33.5008   49.1086 C   0  0  0  0  0  0  0  0  0  0  0  0
   38.8758   33.1793   47.9206 N   0  0  0  0  0  0  0  0  0  0  0  0
   38.7628   31.8901   47.7298 N   0  0  0  0  0  0  0  0  0  0  0  0
   33.8967   27.8121   50.1552 H   0  0  0  0  0  0  0  0  0  0  0  0
   36.1701   28.5066   50.7511 H   0  0  0  0  0  0  0  0  0  0  0  0
   36.3219   30.5800   47.0450 H   0  0  0  0  0  0  0  0  0  0  0  0
   31.9770   27.3458   49.6525 H   0  0  0  0  0  0  0  0  0  0  0  0
   32.6228   29.3658   45.9514 H   0  0  0  0  0  0  0  0  0  0  0  0
   29.0223   27.4371   46.6422 H   0  0  0  0  0  0  0  0  0  0  0  0
   37.4171   32.3951   50.6672 H   0  0  0  0  0  0  0  0  0  0  0  0
   38.3280   34.5214   49.4898 H   0  0  0  0  0  0  0  0  0  0  0  0
   40.7041   37.5169   47.6310 H   0  0  0  0  0  0  0  0  0  0  0  0
   40.7849   36.7202   46.9380 N   0  0  0  0  0  0  0  0  0  0  0  0
   39.5113   36.4478   46.3559 C   0  0  0  0  0  0  0  0  0  0  0  0
   38.7151   35.4062   47.0699 C   0  0  0  0  0  0  0  0  0  0  0  0
   39.4775   34.0959   46.9825 C   0  0  0  0  0  0  0  0  0  0  0  0
   40.9519   34.2677   47.1757 C   0  0  0  0  0  0  0  0  0  0  0  0
   41.3648   35.6256   47.6520 C   0  0  0  0  0  0  0  0  0  0  0  0
   39.6179   36.1853   45.2963 H   0  0  0  0  0  0  0  0  0  0  0  0
   38.9295   37.4096   46.3841 H   0  0  0  0  0  0  0  0  0  0  0  0
   38.5007   35.7001   48.1133 H   0  0  0  0  0  0  0  0  0  0  0  0
   37.7635   35.2581   46.5341 H   0  0  0  0  0  0  0  0  0  0  0  0
   39.3411   33.7481   45.9320 H   0  0  0  0  0  0  0  0  0  0  0  0
   41.2714   33.5412   47.9640 H   0  0  0  0  0  0  0  0  0  0  0  0
   41.5563   34.0230   46.2807 H   0  0  0  0  0  0  0  0  0  0  0  0
   42.4778   35.7009   47.4748 H   0  0  0  0  0  0  0  0  0  0  0  0
   41.2788   35.7076   48.7654 H   0  0  0  0  0  0  0  0  0  0  0  0
  1  2  2  0
  2  3  1  0
  4 13  1  0
  4  3  2  0
  5  4  1  0
  6  5  2  0
  6  1  1  0
  8  1  1  0
  8  7  2  0
  9  8  1  0
 10  9  2  0
 10 11  1  0
 11 12  2  0
 12  7  1  0
 14 13  1  0
 14 15  1  0
 16 15  2  0
 17 16  1  0
 18 17  1  0
 18 14  2  0
  2 19  1  0
  3 20  1  0
  5 21  1  0
  7 22  1  0
  9 23  1  0
 11 24  1  0
 15 25  1  0
 16 26  1  0
 27 28  1  0
 28 29  1  0
 29 30  1  0
 30 31  1  0
 31 32  1  0
 32 33  1  0
 33 28  1  0
 29 34  1  0
 29 35  1  0
 30 36  1  0
 30 37  1  0
 31 38  1  0
 32 39  1  0
 32 40  1  0
 33 41  1  0
 33 42  1  0
 17 31  1  0
M  ISO  8  19  14  20  14  21  14  22  14  23  14  24  14  25  14  26  14
M  ISO  1  27   5
M  END
>  <DihAtoms>  (1) 
15,16,30,29

>  <DihDeg>  (1) 
-49.84387462361573

$$$$
