
     RDKit          3D

 42 45  0  0  0  0  0  0  0  0999 V2000
   33.8284   28.8010   48.2707 C   0  0  0  0  0  0  0  0  0  0  0  0
   34.4274   28.4331   49.4462 C   0  0  0  0  0  0  0  0  0  0  0  0
   35.7014   28.7998   49.8216 C   0  0  0  0  0  0  0  0  0  0  0  0
   36.4542   29.5817   48.9986 C   0  0  0  0  0  0  0  0  0  0  0  0
   35.8474   29.9616   47.7953 C   0  0  0  0  0  0  0  0  0  0  0  0
   34.5974   29.5792   47.4687 N   0  0  0  0  0  0  0  0  0  0  0  0
   31.6524   27.6508   48.6909 C   0  0  0  0  0  0  0  0  0  0  0  0
   32.5083   28.4105   47.8816 C   0  0  0  0  0  0  0  0  0  0  0  0
   32.0323   28.7745   46.6517 C   0  0  0  0  0  0  0  0  0  0  0  0
   30.7700   28.3924   46.2662 N   0  0  0  0  0  0  0  0  0  0  0  0
   29.9850   27.6527   47.0988 C   0  0  0  0  0  0  0  0  0  0  0  0
   30.4180   27.2792   48.3095 N   0  0  0  0  0  0  0  0  0  0  0  0
   37.7483   30.0443   49.2126 O   0  0  0  0  0  0  0  0  0  0  0  0
   38.1625   31.3000   48.7721 C   0  0  0  0  0  0  0  0  0  0  0  0
   37.8854   32.3179   49.6774 C   0  0  0  0  0  0  0  0  0  0  0  0
   38.3503   33.5008   49.1086 C   0  0  0  0  0  0  0  0  0  0  0  0
   38.8758   33.1793   47.9206 N   0  0  0  0  0  0  0  0  0  0  0  0
   38.7628   31.8901   47.7298 N   0  0  0  0  0  0  0  0  0  0  0  0
   33.8967   27.8121   50.1552 H   0  0  0  0  0  0  0  0  0  0  0  0
   36.1701   28.5066   50.7511 H   0  0  0  0  0  0  0  0  0  0  0  0
   36.3219   30.5800   47.0450 H   0  0  0  0  0  0  0  0  0  0  0  0
   31.9770   27.3458   49.6525 H   0  0  0  0  0  0  0  0  0  0  0  0
   32.6228   29.3658   45.9514 H   0  0  0  0  0  0  0  0  0  0  0  0
   29.0223   27.4371   46.6422 H   0  0  0  0  0  0  0  0  0  0  0  0
   37.4171   32.3951   50.6672 H   0  0  0  0  0  0  0  0  0  0  0  0
   38.3280   34.5214   49.4898 H   0  0  0  0  0  0  0  0  0  0  0  0
   42.0849   33.3756   44.4703 H   0  0  0  0  0  0  0  0  0  0  0  0
   41.3347   34.0825   44.7133 N   0  0  0  0  0  0  0  0  0  0  0  0
   41.6168   34.6791   45.9781 C   0  0  0  0  0  0  0  0  0  0  0  0
   40.9839   33.9903   47.1417 C   0  0  0  0  0  0  0  0  0  0  0  0
   39.4775   34.0959   46.9825 C   0  0  0  0  0  0  0  0  0  0  0  0
   39.0266   33.8885   45.5702 C   0  0  0  0  0  0  0  0  0  0  0  0
   40.0889   33.3843   44.6437 C   0  0  0  0  0  0  0  0  0  0  0  0
   41.3481   35.7425   45.9734 H   0  0  0  0  0  0  0  0  0  0  0  0
   42.7321   34.6377   46.1147 H   0  0  0  0  0  0  0  0  0  0  0  0
   41.3256   32.9434   47.2316 H   0  0  0  0  0  0  0  0  0  0  0  0
   41.2466   34.5359   48.0625 H   0  0  0  0  0  0  0  0  0  0  0  0
   39.2306   35.1536   47.2344 H   0  0  0  0  0  0  0  0  0  0  0  0
   38.2223   33.1112   45.5882 H   0  0  0  0  0  0  0  0  0  0  0  0
   38.5676   34.7832   45.1066 H   0  0  0  0  0  0  0  0  0  0  0  0
   39.7034   33.5517   43.5953 H   0  0  0  0  0  0  0  0  0  0  0  0
   40.1838   32.2703   44.7045 H   0  0  0  0  0  0  0  0  0  0  0  0
  1  2  2  0
  2  3  1  0
  4 13  1  0
  4  3  2  0
  5  4  1  0
  6  5  2  0
  6  1  1  0
  8  1  1  0
  8  7  2  0
  9  8  1  0
 10  9  2  0
 10 11  1  0
 11 12  2  0
 12  7  1  0
 14 13  1  0
 14 15  1  0
 16 15  2  0
 17 16  1  0
 18 17  1  0
 18 14  2  0
  2 19  1  0
  3 20  1  0
  5 21  1  0
  7 22  1  0
  9 23  1  0
 11 24  1  0
 15 25  1  0
 16 26  1  0
 27 28  1  0
 28 29  1  0
 29 30  1  0
 30 31  1  0
 31 32  1  0
 32 33  1  0
 33 28  1  0
 29 34  1  0
 29 35  1  0
 30 36  1  0
 30 37  1  0
 31 38  1  0
 32 39  1  0
 32 40  1  0
 33 41  1  0
 33 42  1  0
 17 31  1  0
M  ISO  8  19  14  20  14  21  14  22  14  23  14  24  14  25  14  26  14
M  ISO  1  27   5
M  END
>  <DihAtoms>  (1) 
15,16,30,29

>  <DihDeg>  (1) 
-49.84387462361573

$$$$
