
     RDKit          3D

 41 43  0  0  0  0  0  0  0  0999 V2000
   38.0687   31.2596   48.3783 C   0  0  0  0  0  0  0  0  0  0  0  0
   38.2490   32.0201   49.5386 C   0  0  0  0  0  0  0  0  0  0  0  0
   38.9310   33.2303   49.4423 C   0  0  0  0  0  0  0  0  0  0  0  0
   39.3885   33.6107   48.2159 N   0  0  0  0  0  0  0  0  0  0  0  0
   39.2050   32.8637   47.1074 C   0  0  0  0  0  0  0  0  0  0  0  0
   38.5547   31.7138   47.2106 N   0  0  0  0  0  0  0  0  0  0  0  0
   40.6402   32.3713   45.2831 C   0  0  0  0  0  0  0  0  0  0  0  0
   41.0496   31.2714   45.7614 O   0  0  0  0  0  0  0  0  0  0  0  0
   39.7004   33.3008   45.8461 N   0  0  0  0  0  0  0  0  0  0  0  0
   37.3804   30.0808   48.5891 O   0  0  0  0  0  0  0  0  0  0  0  0
   36.2211   29.3165   51.1645 O   0  0  0  0  0  0  0  0  0  0  0  0
   35.6481   29.2642   50.0585 C   0  0  0  0  0  0  0  0  0  0  0  0
   36.0064   30.1565   48.9493 C   0  0  2  0  0  0  0  0  0  0  0  0
   35.1642   29.5776   47.7986 C   0  0  0  0  0  0  0  0  0  0  0  0
   33.9843   28.9813   48.5311 C   0  0  0  0  0  0  0  0  0  0  0  0
   34.5913   28.3564   49.7173 N   0  0  0  0  0  0  0  0  0  0  0  0
   37.8890   31.7248   50.5147 H   0  0  0  0  0  0  0  0  0  0  0  0
   39.0832   33.8365   50.3256 H   0  0  0  0  0  0  0  0  0  0  0  0
   41.1198   32.5403   44.3263 H   0  0  0  0  0  0  0  0  0  0  0  0
   39.4947   34.1491   45.2980 H   0  0  0  0  0  0  0  0  0  0  0  0
   35.7075   31.1849   49.1550 H   0  0  0  0  0  0  0  0  0  0  0  0
   35.7194   28.8559   47.1974 H   0  0  0  0  0  0  0  0  0  0  0  0
   34.8005   30.4542   47.2253 H   0  0  0  0  0  0  0  0  0  0  0  0
   33.4269   28.2677   47.9182 H   0  0  0  0  0  0  0  0  0  0  0  0
   33.3505   29.8332   48.8780 H   0  0  0  0  0  0  0  0  0  0  0  0
   33.9453   25.7190   53.7249 H   0  0  0  0  0  0  0  0  0  0  0  0
   33.9737   25.4544   52.7362 N   0  0  0  0  0  0  0  0  0  0  0  0
   35.2663   25.5536   52.1170 C   0  0  0  0  0  0  0  0  0  0  0  0
   35.4865   26.8104   51.3554 C   0  0  0  0  0  0  0  0  0  0  0  0
   34.3202   27.1625   50.4601 C   0  0  0  0  0  0  0  0  0  0  0  0
   33.0854   27.2426   51.2930 C   0  0  0  0  0  0  0  0  0  0  0  0
   32.8862   25.8871   51.9243 C   0  0  0  0  0  0  0  0  0  0  0  0
   35.4928   24.6421   51.5186 H   0  0  0  0  0  0  0  0  0  0  0  0
   36.0229   25.5280   52.9544 H   0  0  0  0  0  0  0  0  0  0  0  0
   36.4078   26.7005   50.7474 H   0  0  0  0  0  0  0  0  0  0  0  0
   35.6057   27.6597   52.0813 H   0  0  0  0  0  0  0  0  0  0  0  0
   34.1593   26.3332   49.7267 H   0  0  0  0  0  0  0  0  0  0  0  0
   32.2192   27.3939   50.6023 H   0  0  0  0  0  0  0  0  0  0  0  0
   33.0702   28.0613   52.0109 H   0  0  0  0  0  0  0  0  0  0  0  0
   32.6675   25.1655   51.1133 H   0  0  0  0  0  0  0  0  0  0  0  0
   31.9864   25.9353   52.5905 H   0  0  0  0  0  0  0  0  0  0  0  0
  1 10  1  0
  1  2  2  0
  3  2  1  0
  4  3  2  0
  5  6  2  0
  5  4  1  0
  6  1  1  0
  7  8  2  0
  7  9  1  0
  9  5  1  0
 12 11  2  0
 13 10  1  0
 13 12  1  0
 14 15  1  0
 14 13  1  0
 15 16  1  0
 16 12  1  0
  2 17  1  0
  3 18  1  0
  7 19  1  0
  9 20  1  0
 13 21  1  1
 14 22  1  0
 14 23  1  0
 15 24  1  0
 15 25  1  0
 26 27  1  0
 27 28  1  0
 28 29  1  0
 29 30  1  0
 30 31  1  0
 31 32  1  0
 32 27  1  0
 28 33  1  0
 28 34  1  0
 29 35  1  0
 29 36  1  0
 30 37  1  0
 31 38  1  0
 31 39  1  0
 32 40  1  0
 32 41  1  0
 16 30  1  0
M  ISO  8  17  14  18  14  19   6  21  13  22  13  23  13  24  13  25  13
M  ISO  1  26   5
M  END
>  <DihAtoms>  (1) 
14,15,29,28

>  <DihDeg>  (1) 
119.25867403055298

$$$$
