
     RDKit          3D

 43 45  0  0  0  0  0  0  0  0999 V2000
   38.0590   31.7437   48.9991 Br  0  0  0  0  0  0  0  0  0  0  0  0
   36.8631   31.0008   47.7023 C   0  0  0  0  0  0  0  0  0  0  0  0
   37.2096   30.9465   46.3784 C   0  0  0  0  0  0  0  0  0  0  0  0
   36.3092   30.4043   45.4889 C   0  0  0  0  0  0  0  0  0  0  0  0
   35.0864   29.9211   45.8841 C   0  0  0  0  0  0  0  0  0  0  0  0
   34.7639   29.9900   47.2329 C   0  0  0  0  0  0  0  0  0  0  0  0
   35.6686   30.5363   48.1372 C   0  0  0  0  0  0  0  0  0  0  0  0
   39.7133   33.2172   44.9838 C   0  0  0  0  0  0  0  0  0  0  0  0
   40.9166   32.4511   45.0121 C   0  0  0  0  0  0  0  0  0  0  0  0
   40.8332   31.1619   45.5171 C   0  0  0  0  0  0  0  0  0  0  0  0
   39.6260   30.6795   45.9607 N   0  0  0  0  0  0  0  0  0  0  0  0
   38.5080   31.4547   45.9099 C   0  0  0  0  0  0  0  0  0  0  0  0
   38.5721   32.7110   45.4216 N   0  0  0  0  0  0  0  0  0  0  0  0
   35.1949   30.5467   49.5535 C   0  0  0  0  0  0  0  0  0  0  0  0
   34.2775   29.4213   49.8785 C   0  0  0  0  0  0  0  0  0  0  0  0
   35.0735   28.2156   50.0389 N   0  0  0  0  0  0  0  0  0  0  0  0
   36.6318   30.3844   44.4555 H   0  0  0  0  0  0  0  0  0  0  0  0
   34.4728   29.5226   45.1068 H   0  0  0  0  0  0  0  0  0  0  0  0
   33.7823   29.5801   47.3976 H   0  0  0  0  0  0  0  0  0  0  0  0
   39.7335   34.2123   44.6062 H   0  0  0  0  0  0  0  0  0  0  0  0
   41.8523   32.8828   44.6487 H   0  0  0  0  0  0  0  0  0  0  0  0
   41.7332   30.5336   45.5585 H   0  0  0  0  0  0  0  0  0  0  0  0
   34.6834   31.5273   49.7058 H   0  0  0  0  0  0  0  0  0  0  0  0
   36.0534   30.5249   50.2620 H   0  0  0  0  0  0  0  0  0  0  0  0
   33.9155   29.6380   50.9348 H   0  0  0  0  0  0  0  0  0  0  0  0
   33.3736   29.3151   49.2989 H   0  0  0  0  0  0  0  0  0  0  0  0
   34.5162   27.3463   49.9349 H   0  0  0  0  0  0  0  0  0  0  0  0
   34.3578   28.9870   54.5935 H   0  0  0  0  0  0  0  0  0  0  0  0
   34.4396   28.6833   53.6259 N   0  0  0  0  0  0  0  0  0  0  0  0
   34.7234   27.3626   53.2854 C   0  0  0  0  0  0  0  0  0  0  0  0
   35.6595   27.1227   52.1498 C   0  0  0  0  0  0  0  0  0  0  0  0
   35.8785   28.2614   51.2287 C   0  0  0  0  0  0  0  0  0  0  0  0
   35.7163   29.6145   51.8838 C   0  0  0  0  0  0  0  0  0  0  0  0
   34.3631   29.6738   52.6150 C   0  0  0  0  0  0  0  0  0  0  0  0
   35.1902   26.8702   54.1919 H   0  0  0  0  0  0  0  0  0  0  0  0
   33.7634   26.8105   53.1494 H   0  0  0  0  0  0  0  0  0  0  0  0
   35.2444   26.2572   51.5514 H   0  0  0  0  0  0  0  0  0  0  0  0
   36.6448   26.7204   52.5077 H   0  0  0  0  0  0  0  0  0  0  0  0
   36.9543   28.2408   50.8879 H   0  0  0  0  0  0  0  0  0  0  0  0
   36.5501   29.8575   52.5669 H   0  0  0  0  0  0  0  0  0  0  0  0
   35.6834   30.3805   51.0866 H   0  0  0  0  0  0  0  0  0  0  0  0
   34.3046   30.6722   53.0550 H   0  0  0  0  0  0  0  0  0  0  0  0
   33.5740   29.5310   51.8526 H   0  0  0  0  0  0  0  0  0  0  0  0
  2  7  2  0
  2  1  1  0
  3  2  1  0
  4  5  1  0
  4  3  2  0
  5  6  2  0
  6  7  1  0
  7 14  1  0
  8  9  2  0
  8 13  1  0
  9 10  1  0
 10 11  2  0
 12 11  1  0
 12  3  1  0
 13 12  2  0
 14 15  1  0
 15 16  1  0
  4 17  1  0
  5 18  1  0
  6 19  1  0
  8 20  1  0
  9 21  1  0
 10 22  1  0
 14 23  1  0
 14 24  1  0
 15 25  1  0
 15 26  1  0
 16 27  1  0
 28 29  1  0
 29 30  1  0
 30 31  1  0
 31 32  1  0
 32 33  1  0
 33 34  1  0
 34 29  1  0
 30 35  1  0
 30 36  1  0
 31 37  1  0
 31 38  1  0
 32 39  1  0
 33 40  1  0
 33 41  1  0
 34 42  1  0
 34 43  1  0
 16 32  1  0
M  ISO  8  17  14  18  14  19  14  20  14  21  14  22  14  23   8  24   8
M  ISO  4  25   8  26   8  27   5  28   5
M  END
>  <DihAtoms>  (1) 
14,15,31,30

>  <DihDeg>  (1) 
-116.0081667222803

$$$$
