
     RDKit          3D

 46 49  0  0  0  0  0  0  0  0999 V2000
   38.0038   32.6115   49.4934 C   0  0  0  0  0  0  0  0  0  0  0  0
   38.7381   32.8710   48.3438 C   0  0  0  0  0  0  0  0  0  0  0  0
   38.3777   32.1532   47.1923 C   0  0  0  0  0  0  0  0  0  0  0  0
   37.3509   31.2605   47.2608 N   0  0  0  0  0  0  0  0  0  0  0  0
   36.6680   31.0477   48.4132 C   0  0  0  0  0  0  0  0  0  0  0  0
   37.0046   31.7250   49.5083 N   0  0  0  0  0  0  0  0  0  0  0  0
   39.0685   32.3299   45.9147 C   0  0  0  0  0  0  0  0  0  0  0  0
   40.3900   32.0077   45.6928 C   0  0  0  0  0  0  0  0  0  0  0  0
   40.7337   32.2867   44.4140 N   0  0  0  0  0  0  0  0  0  0  0  0
   39.6426   32.7816   43.8268 C   0  0  0  0  0  0  0  0  0  0  0  0
   38.6610   32.8005   44.7334 N   0  0  0  0  0  0  0  0  0  0  0  0
   38.0845   33.1114   41.9867 C   0  0  0  0  0  0  0  0  0  0  0  0
   37.1910   32.6043   42.6805 O   0  0  0  0  0  0  0  0  0  0  0  0
   39.4009   33.2451   42.5056 N   0  0  0  0  0  0  0  0  0  0  0  0
   36.9228   28.9262   50.4507 Cl  0  0  0  0  0  0  0  0  0  0  0  0
   35.5967   29.0396   49.3361 C   0  0  0  0  0  0  0  0  0  0  0  0
   35.5814   30.0805   48.4204 C   0  0  0  0  0  0  0  0  0  0  0  0
   34.5562   30.1979   47.5328 C   0  0  0  0  0  0  0  0  0  0  0  0
   33.5043   29.3058   47.5015 C   0  0  0  0  0  0  0  0  0  0  0  0
   33.5143   28.2624   48.4152 C   0  0  0  0  0  0  0  0  0  0  0  0
   32.2214   27.0665   48.4630 Cl  0  0  0  0  0  0  0  0  0  0  0  0
   34.5456   28.1608   49.2938 C   0  0  0  0  0  0  0  0  0  0  0  0
   38.2526   33.1454   50.3999 H   0  0  0  0  0  0  0  0  0  0  0  0
   39.5448   33.5694   48.2812 H   0  0  0  0  0  0  0  0  0  0  0  0
   41.0754   31.5850   46.4383 H   0  0  0  0  0  0  0  0  0  0  0  0
   41.6399   32.1641   43.9312 H   0  0  0  0  0  0  0  0  0  0  0  0
   37.8833   33.4747   40.9433 H   0  0  0  0  0  0  0  0  0  0  0  0
   40.1956   33.6561   41.9891 H   0  0  0  0  0  0  0  0  0  0  0  0
   34.5098   30.9975   46.8029 H   0  0  0  0  0  0  0  0  0  0  0  0
   32.6742   29.3641   46.8147 H   0  0  0  0  0  0  0  0  0  0  0  0
   34.6345   27.1082   50.2760 N   0  0  0  0  0  0  0  0  0  0  0  0
   35.2683   27.2271   51.5556 C   0  0  0  0  0  0  0  0  0  0  0  0
   34.3015   26.9298   52.6491 C   0  0  0  0  0  0  0  0  0  0  0  0
   33.1727   26.0252   52.3020 C   0  0  0  0  0  0  0  0  0  0  0  0
   32.1734   26.5520   52.2941 H   0  0  0  0  0  0  0  0  0  0  0  0
   33.3670   25.1717   51.0940 C   0  0  0  0  0  0  0  0  0  0  0  0
   34.0338   25.8325   49.9361 C   0  0  0  0  0  0  0  0  0  0  0  0
   35.7272   28.2325   51.7102 H   0  0  0  0  0  0  0  0  0  0  0  0
   36.1399   26.5171   51.6641 H   0  0  0  0  0  0  0  0  0  0  0  0
   33.8495   27.9175   52.9592 H   0  0  0  0  0  0  0  0  0  0  0  0
   34.8385   26.6020   53.5871 H   0  0  0  0  0  0  0  0  0  0  0  0
   33.0444   25.3039   53.1631 H   0  0  0  0  0  0  0  0  0  0  0  0
   33.8107   24.1750   51.3682 H   0  0  0  0  0  0  0  0  0  0  0  0
   32.3301   24.8943   50.7426 H   0  0  0  0  0  0  0  0  0  0  0  0
   34.8930   25.1625   49.6383 H   0  0  0  0  0  0  0  0  0  0  0  0
   33.4012   25.9092   49.0380 H   0  0  0  0  0  0  0  0  0  0  0  0
  1  6  2  0
  2  1  1  0
  3  4  1  0
  3  2  2  0
  4  5  2  0
  5 17  1  0
  5  6  1  0
  7  3  1  0
  8  7  2  0
  9  8  1  0
 10  9  1  0
 10 11  2  0
 11  7  1  0
 12 14  1  0
 12 13  2  0
 14 10  1  0
 16 15  1  0
 17 16  2  0
 18 17  1  0
 19 18  2  0
 19 20  1  0
 20 21  1  0
 20 22  2  0
 22 16  1  0
  1 23  1  0
  2 24  1  0
  8 25  1  0
  9 26  1  0
 12 27  1  0
 14 28  1  0
 18 29  1  0
 19 30  1  0
 31 32  1  0
 32 33  1  0
 33 34  1  0
 34 35  1  0
 34 36  1  0
 36 37  1  0
 37 31  1  0
 32 38  1  0
 32 39  1  0
 33 40  1  0
 33 41  1  0
 34 42  1  0
 36 43  1  0
 36 44  1  0
 37 45  1  0
 37 46  1  0
 22 31  1  0
M  ISO  8  23  14  24  14  25  14  26   9  27   6  29  14  30  14  35  15
M  END
>  <DihAtoms>  (1) 
19,21,30,31

>  <DihDeg>  (1) 
-89.999849819155

$$$$
