
     RDKit          3D

 34 36  0  0  0  0  0  0  0  0999 V2000
   37.5156   30.4324   50.9237 C   0  0  0  0  0  0  0  0  0  0  0  0
   37.2064   31.0568   49.7165 C   0  0  0  0  0  0  0  0  0  0  0  0
   35.9754   30.7778   49.1463 C   0  0  0  0  0  0  0  0  0  0  0  0
   35.1223   29.9173   49.7735 N   0  0  0  0  0  0  0  0  0  0  0  0
   35.4705   29.3338   50.9496 C   0  0  0  0  0  0  0  0  0  0  0  0
   36.6627   29.5858   51.5297 N   0  0  0  0  0  0  0  0  0  0  0  0
   38.0812   31.9754   49.0179 C   0  0  0  0  0  0  0  0  0  0  0  0
   38.5436   33.1494   49.5912 C   0  0  0  0  0  0  0  0  0  0  0  0
   39.3820   34.0322   48.9253 C   0  0  0  0  0  0  0  0  0  0  0  0
   39.7943   33.7665   47.6395 C   0  0  0  0  0  0  0  0  0  0  0  0
   39.3161   32.5973   47.1081 C   0  0  0  0  0  0  0  0  0  0  0  0
   38.5049   31.7433   47.7527 N   0  0  0  0  0  0  0  0  0  0  0  0
   38.4734   30.6478   51.3699 H   0  0  0  0  0  0  0  0  0  0  0  0
   35.6086   31.1978   48.2055 H   0  0  0  0  0  0  0  0  0  0  0  0
   34.7451   28.6621   51.3910 H   0  0  0  0  0  0  0  0  0  0  0  0
   38.2293   33.3740   50.6017 H   0  0  0  0  0  0  0  0  0  0  0  0
   39.6813   34.9155   49.4652 H   0  0  0  0  0  0  0  0  0  0  0  0
   39.5995   32.3236   46.0998 H   0  0  0  0  0  0  0  0  0  0  0  0
   40.6548   34.6682   46.9502 N   0  0  0  0  0  0  0  0  0  0  0  0
   41.0441   34.3236   45.5992 C   0  0  0  0  0  0  0  0  0  0  0  0
   41.7182   35.5210   44.9271 C   0  0  0  0  0  0  0  0  0  0  0  0
   42.7780   36.0056   45.8656 C   0  0  0  0  0  0  0  0  0  0  0  0
   43.3718   35.1574   46.2216 H   0  0  0  0  0  0  0  0  0  0  0  0
   42.0857   36.6901   47.0186 C   0  0  0  0  0  0  0  0  0  0  0  0
   41.0553   35.8475   47.6785 C   0  0  0  0  0  0  0  0  0  0  0  0
   41.7932   33.5202   45.6477 H   0  0  0  0  0  0  0  0  0  0  0  0
   40.1526   34.0050   44.9832 H   0  0  0  0  0  0  0  0  0  0  0  0
   42.1315   35.1650   43.9558 H   0  0  0  0  0  0  0  0  0  0  0  0
   40.9607   36.3176   44.7338 H   0  0  0  0  0  0  0  0  0  0  0  0
   43.3531   36.7841   45.3281 H   0  0  0  0  0  0  0  0  0  0  0  0
   42.8044   37.0352   47.7945 H   0  0  0  0  0  0  0  0  0  0  0  0
   41.6521   37.6385   46.5963 H   0  0  0  0  0  0  0  0  0  0  0  0
   40.1727   36.4881   47.8820 H   0  0  0  0  0  0  0  0  0  0  0  0
   41.4164   35.4973   48.6852 H   0  0  0  0  0  0  0  0  0  0  0  0
  1  6  2  0
  2  1  1  0
  3  2  2  0
  3  4  1  0
  4  5  2  0
  5  6  1  0
  7  8  2  0
  7  2  1  0
  9  8  1  0
 10  9  2  0
 11 10  1  0
 11 12  2  0
 12  7  1  0
  1 13  1  0
  3 14  1  0
  5 15  1  0
  8 16  1  0
  9 17  1  0
 11 18  1  0
 19 20  1  0
 20 21  1  0
 21 22  1  0
 22 23  1  0
 22 24  1  0
 24 25  1  0
 25 19  1  0
 20 26  1  0
 20 27  1  0
 21 28  1  0
 21 29  1  0
 22 30  1  0
 24 31  1  0
 24 32  1  0
 25 33  1  0
 25 34  1  0
 10 19  1  0
M  ISO  7  13  14  14  14  15  14  16  14  17  14  18  14  23  15
M  END
>  <DihAtoms>  (1) 
8,9,18,19

>  <DihDeg>  (1) 
0.1357938150726828

$$$$
