
     RDKit          3D

 51 54  0  0  1  0  0  0  0  0999 V2000
   35.3300   30.3430   49.9100 C   0  0  2  0  0  0  0  0  0  0  0  0
   36.2270   31.2140   49.1120 C   0  0  0  0  0  0  0  0  0  0  0  0
   37.6960   30.7720   49.1950 C   0  0  2  0  0  0  0  0  0  0  0  0
   38.2240   30.6820   50.5550 C   0  0  0  0  0  0  0  0  0  0  0  0
   37.2150   30.1370   51.5630 C   0  0  0  0  0  0  0  0  0  0  0  0
   36.0740   29.4380   50.8690 C   0  0  0  0  0  0  0  0  0  0  0  0
   37.9750   30.2400   46.3060 Cl  0  0  0  0  0  0  0  0  0  0  0  0
   38.6510   31.6660   47.0730 C   0  0  0  0  0  0  0  0  0  0  0  0
   38.4240   31.8270   48.4250 C   0  0  0  0  0  0  0  0  0  0  0  0
   38.9730   32.9890   48.9320 C   0  0  0  0  0  0  0  0  0  0  0  0
   39.6750   33.8860   48.1540 C   0  0  0  0  0  0  0  0  0  0  0  0
   39.8600   33.6480   46.7980 C   0  0  0  0  0  0  0  0  0  0  0  0
   39.3260   32.4940   46.2430 C   0  0  0  0  0  0  0  0  0  0  0  0
   39.5160   32.2510   44.8520 N   0  0  0  0  0  0  0  0  0  0  0  0
   38.6260   32.8060   43.8630 C   0  0  0  0  0  0  0  0  0  0  0  0
   38.5670   31.9690   42.6070 C   0  0  0  0  0  0  0  0  0  0  0  0
   40.0310   31.7480   42.2020 C   0  0  0  0  0  0  0  0  0  0  0  0
   40.5920   30.7710   43.2180 C   0  0  0  0  0  0  0  0  0  0  0  0
   40.6500   31.4250   44.5780 C   0  0  0  0  0  0  0  0  0  0  0  0
   34.4630   29.4910   49.0830 C   0  0  0  0  0  0  0  0  0  0  0  0
   34.6470   29.6230   47.7050 C   0  0  0  0  0  0  0  0  0  0  0  0
   33.8580   28.8220   46.8670 C   0  0  0  0  0  0  0  0  0  0  0  0
   32.9410   27.9480   47.4420 N   0  0  0  0  0  0  0  0  0  0  0  0
   32.8000   27.8580   48.7780 C   0  0  0  0  0  0  0  0  0  0  0  0
   33.5640   28.6310   49.5550 N   0  0  0  0  0  0  0  0  0  0  0  0
   34.7158   31.0585   50.4764 H   0  0  0  0  0  0  0  0  0  0  0  0
   36.1460   32.2444   49.4885 H   0  0  0  0  0  0  0  0  0  0  0  0
   35.9141   31.1444   48.0597 H   0  0  0  0  0  0  0  0  0  0  0  0
   37.8143   29.7524   48.7994 H   0  0  0  0  0  0  0  0  0  0  0  0
   39.1006   30.0176   50.5453 H   0  0  0  0  0  0  0  0  0  0  0  0
   38.4798   31.7038   50.8720 H   0  0  0  0  0  0  0  0  0  0  0  0
   37.7223   29.4224   52.2279 H   0  0  0  0  0  0  0  0  0  0  0  0
   36.8076   30.9810   52.1390 H   0  0  0  0  0  0  0  0  0  0  0  0
   35.3677   29.0760   51.6307 H   0  0  0  0  0  0  0  0  0  0  0  0
   36.4994   28.6105   50.2822 H   0  0  0  0  0  0  0  0  0  0  0  0
   38.8448   33.2083   50.0023 H   0  0  0  0  0  0  0  0  0  0  0  0
   40.0912   34.7961   48.6105 H   0  0  0  0  0  0  0  0  0  0  0  0
   40.4198   34.3616   46.1755 H   0  0  0  0  0  0  0  0  0  0  0  0
   37.6155   32.8694   44.2930 H   0  0  0  0  0  0  0  0  0  0  0  0
   39.0095   33.7992   43.5864 H   0  0  0  0  0  0  0  0  0  0  0  0
   38.0727   31.0070   42.8073 H   0  0  0  0  0  0  0  0  0  0  0  0
   37.9900   32.4621   41.8109 H   0  0  0  0  0  0  0  0  0  0  0  0
   40.0893   31.3240   41.1887 H   0  0  0  0  0  0  0  0  0  0  0  0
   40.5966   32.6913   42.1888 H   0  0  0  0  0  0  0  0  0  0  0  0
   39.9446   29.8830   43.2670 H   0  0  0  0  0  0  0  0  0  0  0  0
   41.6065   30.4734   42.9143 H   0  0  0  0  0  0  0  0  0  0  0  0
   40.7021   30.6368   45.3435 H   0  0  0  0  0  0  0  0  0  0  0  0
   41.5388   32.0729   44.5927 H   0  0  0  0  0  0  0  0  0  0  0  0
   35.3831   30.3287   47.2925 H   0  0  0  0  0  0  0  0  0  0  0  0
   33.9624   28.8837   45.7737 H   0  0  0  0  0  0  0  0  0  0  0  0
   32.0713   27.1628   49.2203 H   0  0  0  0  0  0  0  0  0  0  0  0
  1  6  1  0
  2  3  1  0
  2  1  1  0
  3  4  1  0
  4  5  1  0
  6  5  1  0
  7  8  1  0
  8  9  2  0
  9 10  1  0
  9  3  1  0
 11 10  2  0
 12 11  1  0
 13 12  2  0
 13  8  1  0
 14 13  1  0
 15 14  1  0
 16 15  1  0
 17 16  1  0
 17 18  1  0
 18 19  1  0
 19 14  1  0
 20 25  1  0
 20  1  1  0
 21 20  2  0
 22 23  2  0
 22 21  1  0
 23 24  1  0
 24 25  2  0
  1 26  1  1
  2 27  1  0
  2 28  1  0
  3 29  1  6
  4 30  1  0
  4 31  1  0
  5 32  1  0
  5 33  1  0
  6 34  1  0
  6 35  1  0
 10 36  1  0
 11 37  1  0
 12 38  1  0
 15 39  1  0
 15 40  1  0
 16 41  1  0
 16 42  1  0
 17 43  1  0
 17 44  1  0
 18 45  1  0
 18 46  1  0
 19 47  1  0
 19 48  1  0
 21 49  1  0
 22 50  1  0
 24 51  1  0
M  ISO  8  26  13  27  13  28  13  29  13  30  13  31  13  32  13  33  13
M  ISO  8  34  13  35  13  36  14  37  14  38  14  39  13  40  13  41  13
M  ISO  8  42  13  43  13  44  13  45  13  46  13  47  13  48  13  49  14
M  ISO  2  50  14  51  14
M  END
>  <minimizedAffinity>  (1) 
-7.6969018

>  <minimizedRMSD>  (1) 
1.14149117

$$$$
