
     RDKit          3D

 28 29  0  0  0  0  0  0  0  0999 V2000
   36.6790   29.8660   49.5840 C   0  0  0  0  0  0  0  0  0  0  0  0
   37.7680   30.4460   48.9180 C   0  0  0  0  0  0  0  0  0  0  0  0
   37.6260   30.7780   47.5730 C   0  0  0  0  0  0  0  0  0  0  0  0
   36.4310   30.5200   46.9780 N   0  0  0  0  0  0  0  0  0  0  0  0
   35.4000   29.9600   47.6440 C   0  0  0  0  0  0  0  0  0  0  0  0
   35.5180   29.6320   48.9430 N   0  0  0  0  0  0  0  0  0  0  0  0
   38.7070   31.3680   46.8610 N   0  0  0  0  0  0  0  0  0  0  0  0
   39.2060   30.6430   45.7070 C   0  0  0  0  0  0  0  0  0  0  0  0
   40.4690   31.2660   45.1580 C   0  0  0  0  0  0  0  0  0  0  0  0
   40.1490   32.7460   44.9920 C   0  0  0  0  0  0  0  0  0  0  0  0
   40.1110   33.3440   46.3750 C   0  0  0  0  0  0  0  0  0  0  0  0
   39.2220   32.6380   47.3370 C   0  0  0  0  0  0  0  0  0  0  0  0
   36.8260   29.5080   51.0290 C   0  0  0  0  0  0  0  0  0  0  0  0
   35.6030   29.1590   51.5580 F   0  0  0  0  0  0  0  0  0  0  0  0
   37.7820   28.5210   51.1180 F   0  0  0  0  0  0  0  0  0  0  0  0
   37.2430   30.6630   51.6900 F   0  0  0  0  0  0  0  0  0  0  0  0
   38.7141   30.6347   49.4465 H   0  0  0  0  0  0  0  0  0  0  0  0
   34.4524   29.7696   47.1188 H   0  0  0  0  0  0  0  0  0  0  0  0
   39.4200   29.6055   46.0032 H   0  0  0  0  0  0  0  0  0  0  0  0
   38.4370   30.6783   44.9213 H   0  0  0  0  0  0  0  0  0  0  0  0
   41.3034   31.1289   45.8616 H   0  0  0  0  0  0  0  0  0  0  0  0
   40.7743   30.8037   44.2077 H   0  0  0  0  0  0  0  0  0  0  0  0
   40.9279   33.2361   44.3893 H   0  0  0  0  0  0  0  0  0  0  0  0
   39.1873   32.8853   44.4765 H   0  0  0  0  0  0  0  0  0  0  0  0
   41.1331   33.3313   46.7813 H   0  0  0  0  0  0  0  0  0  0  0  0
   39.7008   34.3584   46.2621 H   0  0  0  0  0  0  0  0  0  0  0  0
   38.3671   33.2936   47.5593 H   0  0  0  0  0  0  0  0  0  0  0  0
   39.8350   32.4144   48.2226 H   0  0  0  0  0  0  0  0  0  0  0  0
  1 13  1  0
  2  1  2  0
  3  2  1  0
  4  3  2  0
  4  5  1  0
  5  6  2  0
  6  1  1  0
  7 12  1  0
  7  3  1  0
  8  7  1  0
  9  8  1  0
 10  9  1  0
 10 11  1  0
 11 12  1  0
 13 15  1  0
 13 14  1  0
 13 16  1  0
  2 17  1  0
  5 18  1  0
  8 19  1  0
  8 20  1  0
  9 21  1  0
  9 22  1  0
 10 23  1  0
 10 24  1  0
 11 25  1  0
 11 26  1  0
 12 27  1  0
 12 28  1  0
M  ISO  8  17  14  18  14  19  13  20  13  21  13  22  13  23  13  24  13
M  ISO  4  25  13  26  13  27  13  28  13
M  END
>  <minimizedAffinity>  (1) 
-6.27576876

>  <minimizedRMSD>  (1) 
2.48619843

$$$$
