
     RDKit          3D

 34 36  0  0  0  0  0  0  0  0999 V2000
   37.5156   30.4324   50.9237 C   0  0  0  0  0  0  0  0  0  0  0  0
   37.2064   31.0568   49.7165 C   0  0  0  0  0  0  0  0  0  0  0  0
   35.9754   30.7778   49.1463 C   0  0  0  0  0  0  0  0  0  0  0  0
   35.1223   29.9173   49.7735 N   0  0  0  0  0  0  0  0  0  0  0  0
   35.4705   29.3338   50.9496 C   0  0  0  0  0  0  0  0  0  0  0  0
   36.6627   29.5858   51.5297 N   0  0  0  0  0  0  0  0  0  0  0  0
   38.0812   31.9754   49.0179 C   0  0  0  0  0  0  0  0  0  0  0  0
   38.5436   33.1494   49.5912 C   0  0  0  0  0  0  0  0  0  0  0  0
   39.3820   34.0322   48.9253 C   0  0  0  0  0  0  0  0  0  0  0  0
   39.7943   33.7665   47.6395 C   0  0  0  0  0  0  0  0  0  0  0  0
   39.3161   32.5973   47.1081 C   0  0  0  0  0  0  0  0  0  0  0  0
   38.5049   31.7433   47.7527 N   0  0  0  0  0  0  0  0  0  0  0  0
   38.4734   30.6478   51.3699 H   0  0  0  0  0  0  0  0  0  0  0  0
   35.6086   31.1978   48.2055 H   0  0  0  0  0  0  0  0  0  0  0  0
   34.7451   28.6621   51.3910 H   0  0  0  0  0  0  0  0  0  0  0  0
   38.2293   33.3740   50.6017 H   0  0  0  0  0  0  0  0  0  0  0  0
   39.6813   34.9155   49.4652 H   0  0  0  0  0  0  0  0  0  0  0  0
   39.5995   32.3236   46.0998 H   0  0  0  0  0  0  0  0  0  0  0  0
   40.6548   34.6682   46.9502 N   0  0  0  0  0  0  0  0  0  0  0  0
   40.0687   35.5002   45.9207 C   0  0  0  0  0  0  0  0  0  0  0  0
   41.0594   36.5866   45.4987 C   0  0  0  0  0  0  0  0  0  0  0  0
   42.3548   35.9002   45.1995 C   0  0  0  0  0  0  0  0  0  0  0  0
   42.1727   35.0309   44.5593 H   0  0  0  0  0  0  0  0  0  0  0  0
   42.9576   35.4734   46.5154 C   0  0  0  0  0  0  0  0  0  0  0  0
   42.0399   34.6597   47.3538 C   0  0  0  0  0  0  0  0  0  0  0  0
   39.8811   34.8765   45.0349 H   0  0  0  0  0  0  0  0  0  0  0  0
   39.1143   35.9865   46.2792 H   0  0  0  0  0  0  0  0  0  0  0  0
   40.6274   37.1001   44.6095 H   0  0  0  0  0  0  0  0  0  0  0  0
   41.1803   37.3255   46.3264 H   0  0  0  0  0  0  0  0  0  0  0  0
   43.0317   36.6629   44.7683 H   0  0  0  0  0  0  0  0  0  0  0  0
   43.9035   34.9041   46.3787 H   0  0  0  0  0  0  0  0  0  0  0  0
   43.2736   36.4227   47.0301 H   0  0  0  0  0  0  0  0  0  0  0  0
   42.1341   35.0132   48.4012 H   0  0  0  0  0  0  0  0  0  0  0  0
   42.3656   33.5825   47.3653 H   0  0  0  0  0  0  0  0  0  0  0  0
  1  6  2  0
  2  1  1  0
  3  2  2  0
  3  4  1  0
  4  5  2  0
  5  6  1  0
  7  8  2  0
  7  2  1  0
  9  8  1  0
 10  9  2  0
 11 10  1  0
 11 12  2  0
 12  7  1  0
  1 13  1  0
  3 14  1  0
  5 15  1  0
  8 16  1  0
  9 17  1  0
 11 18  1  0
 19 20  1  0
 20 21  1  0
 21 22  1  0
 22 23  1  0
 22 24  1  0
 24 25  1  0
 25 19  1  0
 20 26  1  0
 20 27  1  0
 21 28  1  0
 21 29  1  0
 22 30  1  0
 24 31  1  0
 24 32  1  0
 25 33  1  0
 25 34  1  0
 10 19  1  0
M  ISO  7  13  14  14  14  15  14  16  14  17  14  18  14  23  15
M  END
>  <DihAtoms>  (1) 
8,9,18,19

>  <DihDeg>  (1) 
0.1357938150726828

$$$$
