
     RDKit          3D

 41 43  0  0  1  0  0  0  0  0999 V2000
   35.5570   30.0150   49.8070 C   0  0  2  0  0  0  0  0  0  0  0  0
   35.8990   31.3420   49.1720 C   0  0  0  0  0  0  0  0  0  0  0  0
   37.3540   31.5150   48.8710 C   0  0  1  0  0  0  0  0  0  0  0  0
   38.2340   31.2480   50.0450 C   0  0  0  0  0  0  0  0  0  0  0  0
   37.8060   30.0820   50.8870 C   0  0  0  0  0  0  0  0  0  0  0  0
   36.7640   29.2370   50.2020 C   0  0  0  0  0  0  0  0  0  0  0  0
   34.7740   29.1840   48.8440 C   0  0  0  0  0  0  0  0  0  0  0  0
   34.1130   29.8740   47.8130 C   0  0  0  0  0  0  0  0  0  0  0  0
   33.3740   29.1120   46.9150 C   0  0  0  0  0  0  0  0  0  0  0  0
   33.3170   27.7430   47.0660 N   0  0  0  0  0  0  0  0  0  0  0  0
   33.9770   27.1130   48.0870 C   0  0  0  0  0  0  0  0  0  0  0  0
   34.6930   27.8450   48.9570 N   0  0  0  0  0  0  0  0  0  0  0  0
   37.6850   30.9090   47.6580 N   0  0  0  0  0  0  0  0  0  0  0  0
   36.8170   31.0780   46.5580 C   0  0  0  0  0  0  0  0  0  0  0  0
   37.4130   31.7180   45.3280 C   0  0  0  0  0  0  0  0  0  0  0  0
   38.8280   31.3550   45.0490 C   0  0  0  0  0  0  0  0  0  0  0  0
   39.6380   31.5330   46.3120 C   0  0  0  0  0  0  0  0  0  0  0  0
   39.0010   30.5700   47.3240 C   0  0  0  0  0  0  0  0  0  0  0  0
   34.9762   30.2417   50.7133 H   0  0  0  0  0  0  0  0  0  0  0  0
   35.3380   31.4295   48.2299 H   0  0  0  0  0  0  0  0  0  0  0  0
   35.6294   32.1219   49.8993 H   0  0  0  0  0  0  0  0  0  0  0  0
   37.5666   32.5801   48.6965 H   0  0  0  0  0  0  0  0  0  0  0  0
   39.2509   31.0505   49.6750 H   0  0  0  0  0  0  0  0  0  0  0  0
   38.1777   32.1381   50.6889 H   0  0  0  0  0  0  0  0  0  0  0  0
   38.6857   29.4566   51.0992 H   0  0  0  0  0  0  0  0  0  0  0  0
   37.3637   30.4786   51.8128 H   0  0  0  0  0  0  0  0  0  0  0  0
   36.4556   28.4347   50.8884 H   0  0  0  0  0  0  0  0  0  0  0  0
   37.2152   28.8368   49.2821 H   0  0  0  0  0  0  0  0  0  0  0  0
   34.1775   30.9682   47.7208 H   0  0  0  0  0  0  0  0  0  0  0  0
   32.8372   29.5994   46.0878 H   0  0  0  0  0  0  0  0  0  0  0  0
   33.9216   26.0196   48.1938 H   0  0  0  0  0  0  0  0  0  0  0  0
   36.4426   30.0844   46.2708 H   0  0  0  0  0  0  0  0  0  0  0  0
   36.0385   31.7744   46.9030 H   0  0  0  0  0  0  0  0  0  0  0  0
   36.8071   31.4178   44.4604 H   0  0  0  0  0  0  0  0  0  0  0  0
   37.4065   32.8022   45.5139 H   0  0  0  0  0  0  0  0  0  0  0  0
   38.8822   30.3066   44.7204 H   0  0  0  0  0  0  0  0  0  0  0  0
   39.2289   32.0024   44.2552 H   0  0  0  0  0  0  0  0  0  0  0  0
   40.6917   31.2703   46.1370 H   0  0  0  0  0  0  0  0  0  0  0  0
   39.6306   32.5740   46.6673 H   0  0  0  0  0  0  0  0  0  0  0  0
   39.0020   29.5585   46.8918 H   0  0  0  0  0  0  0  0  0  0  0  0
   39.5964   30.6269   48.2472 H   0  0  0  0  0  0  0  0  0  0  0  0
  1  6  1  0
  2  1  1  0
  3  2  1  0
  3  4  1  0
  4  5  1  0
  6  5  1  0
  7 12  1  0
  7  1  1  0
  8  7  2  0
  9 10  2  0
  9  8  1  0
 10 11  1  0
 11 12  2  0
 13  3  1  0
 14 13  1  0
 15 14  1  0
 16 15  1  0
 16 17  1  0
 17 18  1  0
 18 13  1  0
  1 19  1  1
  2 20  1  0
  2 21  1  0
  3 22  1  6
  4 23  1  0
  4 24  1  0
  5 25  1  0
  5 26  1  0
  6 27  1  0
  6 28  1  0
  8 29  1  0
  9 30  1  0
 11 31  1  0
 14 32  1  0
 14 33  1  0
 15 34  1  0
 15 35  1  0
 16 36  1  0
 16 37  1  0
 17 38  1  0
 17 39  1  0
 18 40  1  0
 18 41  1  0
M  ISO  8  19  13  20  13  21  13  22  13  23  13  24  13  25  13  26  13
M  ISO  8  27  13  28  13  29  14  30  14  31  14  32  13  33  13  34  13
M  ISO  7  35  13  36  13  37  13  38  13  39  13  40  13  41  13
M  END
>  <minimizedAffinity>  (1) 
-4.63156223

>  <minimizedRMSD>  (1) 
1.25849771

$$$$
