
     RDKit          3D

 41 43  0  0  0  0  0  0  0  0999 V2000
   35.4540   30.4030   49.9420 C   0  0  0  0  0  0  0  0  0  0  0  0
   36.4570   31.2310   49.1650 C   0  0  0  0  0  0  0  0  0  0  0  0
   37.8590   30.7100   49.3000 C   0  0  0  0  0  0  0  0  0  0  0  0
   38.2960   30.5900   50.7330 C   0  0  0  0  0  0  0  0  0  0  0  0
   37.2500   29.9950   51.6260 C   0  0  0  0  0  0  0  0  0  0  0  0
   36.0910   29.4060   50.8470 C   0  0  0  0  0  0  0  0  0  0  0  0
   34.5710   29.6640   48.9950 C   0  0  0  0  0  0  0  0  0  0  0  0
   34.2610   30.3080   47.7850 C   0  0  0  0  0  0  0  0  0  0  0  0
   33.4310   29.6320   46.8990 C   0  0  0  0  0  0  0  0  0  0  0  0
   32.9570   28.3920   47.2310 N   0  0  0  0  0  0  0  0  0  0  0  0
   33.2790   27.7930   48.4210 C   0  0  0  0  0  0  0  0  0  0  0  0
   34.0820   28.4420   49.2830 N   0  0  0  0  0  0  0  0  0  0  0  0
   33.0720   30.2180   45.6540 N   0  0  0  0  0  0  0  0  0  0  0  0
   34.0170   30.2730   44.5790 C   0  0  0  0  0  0  0  0  0  0  0  0
   33.3220   30.5810   43.2680 C   0  0  0  0  0  0  0  0  0  0  0  0
   32.5040   31.8470   43.3370 C   0  0  0  0  0  0  0  0  0  0  0  0
   31.7650   32.0200   44.6320 C   0  0  0  0  0  0  0  0  0  0  0  0
   31.7400   30.7620   45.4760 C   0  0  0  0  0  0  0  0  0  0  0  0
   34.8842   31.1115   50.5612 H   0  0  0  0  0  0  0  0  0  0  0  0
   36.4270   32.2648   49.5398 H   0  0  0  0  0  0  0  0  0  0  0  0
   36.1816   31.1788   48.1013 H   0  0  0  0  0  0  0  0  0  0  0  0
   37.9122   29.7163   48.8312 H   0  0  0  0  0  0  0  0  0  0  0  0
   38.5301   31.4282   48.8063 H   0  0  0  0  0  0  0  0  0  0  0  0
   39.1917   29.9526   50.7723 H   0  0  0  0  0  0  0  0  0  0  0  0
   38.4942   31.6084   51.0986 H   0  0  0  0  0  0  0  0  0  0  0  0
   37.7115   29.1987   52.2285 H   0  0  0  0  0  0  0  0  0  0  0  0
   36.8523   30.8014   52.2597 H   0  0  0  0  0  0  0  0  0  0  0  0
   35.3358   29.0406   51.5585 H   0  0  0  0  0  0  0  0  0  0  0  0
   36.4844   28.5890   50.2243 H   0  0  0  0  0  0  0  0  0  0  0  0
   34.6589   31.3060   47.5490 H   0  0  0  0  0  0  0  0  0  0  0  0
   32.8862   26.7955   48.6676 H   0  0  0  0  0  0  0  0  0  0  0  0
   34.7567   31.0597   44.7888 H   0  0  0  0  0  0  0  0  0  0  0  0
   34.5127   29.2947   44.4944 H   0  0  0  0  0  0  0  0  0  0  0  0
   32.6559   29.7428   43.0153 H   0  0  0  0  0  0  0  0  0  0  0  0
   34.0978   30.7230   42.5012 H   0  0  0  0  0  0  0  0  0  0  0  0
   33.1803   32.7046   43.2062 H   0  0  0  0  0  0  0  0  0  0  0  0
   31.7468   31.7834   42.5416 H   0  0  0  0  0  0  0  0  0  0  0  0
   32.2531   32.8190   45.2093 H   0  0  0  0  0  0  0  0  0  0  0  0
   30.7226   32.2685   44.3836 H   0  0  0  0  0  0  0  0  0  0  0  0
   31.3163   31.0012   46.4625 H   0  0  0  0  0  0  0  0  0  0  0  0
   31.1253   30.0104   44.9591 H   0  0  0  0  0  0  0  0  0  0  0  0
  1  6  1  0
  2  3  1  0
  2  1  1  0
  3  4  1  0
  4  5  1  0
  6  5  1  0
  7 12  1  0
  7  1  1  0
  8  7  2  0
  9 10  2  0
  9  8  1  0
 10 11  1  0
 11 12  2  0
 13  9  1  0
 14 13  1  0
 15 16  1  0
 15 14  1  0
 16 17  1  0
 17 18  1  0
 18 13  1  0
  1 19  1  0
  2 20  1  0
  2 21  1  0
  3 22  1  0
  3 23  1  0
  4 24  1  0
  4 25  1  0
  5 26  1  0
  5 27  1  0
  6 28  1  0
  6 29  1  0
  8 30  1  0
 11 31  1  0
 14 32  1  0
 14 33  1  0
 15 34  1  0
 15 35  1  0
 16 36  1  0
 16 37  1  0
 17 38  1  0
 17 39  1  0
 18 40  1  0
 18 41  1  0
M  ISO  8  19  13  20  13  21  13  22  13  23  13  24  13  25  13  26  13
M  ISO  8  27  13  28  13  29  13  30  14  31  14  32  13  33  13  34  13
M  ISO  7  35  13  36  13  37  13  38  13  39  13  40  13  41  13
M  END
>  <minimizedAffinity>  (1) 
-5.65861511

>  <minimizedRMSD>  (1) 
0.505711257

$$$$
