
     RDKit          3D

 31 32  0  0  0  0  0  0  0  0999 V2000
   34.8720   28.2890   49.4400 C   0  0  0  0  0  0  0  0  0  0  0  0
   37.3410   30.2440   51.4110 C   0  0  0  0  0  0  0  0  0  0  0  0
   38.1410   30.8110   50.4270 C   0  0  0  0  0  0  0  0  0  0  0  0
   37.8200   30.5140   49.0680 C   0  0  0  0  0  0  0  0  0  0  0  0
   36.7540   29.6990   48.8580 N   0  0  0  0  0  0  0  0  0  0  0  0
   36.0070   29.1720   49.8530 C   0  0  0  0  0  0  0  0  0  0  0  0
   36.2910   29.4400   51.1500 N   0  0  0  0  0  0  0  0  0  0  0  0
   34.4210   28.6370   48.0470 C   0  0  0  0  0  0  0  0  0  0  0  0
   33.0190   28.5270   47.8480 N   0  0  0  0  0  0  0  0  0  0  0  0
   32.5570   28.9640   46.5680 C   0  0  0  0  0  0  0  0  0  0  0  0
   31.0740   28.9980   46.4640 C   0  0  0  0  0  0  0  0  0  0  0  0
   30.3840   27.8240   47.1020 C   0  0  0  0  0  0  0  0  0  0  0  0
   30.9330   27.6480   48.5250 C   0  0  0  0  0  0  0  0  0  0  0  0
   32.4080   27.3400   48.3410 C   0  0  0  0  0  0  0  0  0  0  0  0
   35.2012   27.2397   49.4635 H   0  0  0  0  0  0  0  0  0  0  0  0
   34.0325   28.4357   50.1355 H   0  0  0  0  0  0  0  0  0  0  0  0
   37.5777   30.4635   52.4626 H   0  0  0  0  0  0  0  0  0  0  0  0
   38.9885   31.4632   50.6848 H   0  0  0  0  0  0  0  0  0  0  0  0
   38.4066   30.9246   48.2329 H   0  0  0  0  0  0  0  0  0  0  0  0
   34.7197   29.6744   47.8360 H   0  0  0  0  0  0  0  0  0  0  0  0
   34.8959   27.9125   47.3691 H   0  0  0  0  0  0  0  0  0  0  0  0
   32.9443   29.9768   46.3830 H   0  0  0  0  0  0  0  0  0  0  0  0
   32.9217   28.2414   45.8232 H   0  0  0  0  0  0  0  0  0  0  0  0
   30.7150   29.9161   46.9521 H   0  0  0  0  0  0  0  0  0  0  0  0
   30.8315   28.9625   45.3916 H   0  0  0  0  0  0  0  0  0  0  0  0
   29.3003   28.0083   47.1429 H   0  0  0  0  0  0  0  0  0  0  0  0
   30.5683   26.9137   46.5126 H   0  0  0  0  0  0  0  0  0  0  0  0
   30.8005   28.5716   49.1076 H   0  0  0  0  0  0  0  0  0  0  0  0
   30.4097   26.8516   49.0745 H   0  0  0  0  0  0  0  0  0  0  0  0
   32.5362   26.5203   47.6187 H   0  0  0  0  0  0  0  0  0  0  0  0
   32.8664   27.0259   49.2903 H   0  0  0  0  0  0  0  0  0  0  0  0
  1  6  1  0
  3  2  2  0
  4  3  1  0
  5  4  2  0
  5  6  1  0
  6  7  2  0
  7  2  1  0
  8  1  1  0
  9  8  1  0
  9 14  1  0
 10  9  1  0
 11 10  1  0
 11 12  1  0
 12 13  1  0
 14 13  1  0
  1 15  1  0
  1 16  1  0
  2 17  1  0
  3 18  1  0
  4 19  1  0
  8 20  1  0
  8 21  1  0
 10 22  1  0
 10 23  1  0
 11 24  1  0
 11 25  1  0
 12 26  1  0
 12 27  1  0
 13 28  1  0
 13 29  1  0
 14 30  1  0
 14 31  1  0
M  ISO  8  15   8  16   8  17  14  18  14  19  14  20   8  21   8  22  13
M  ISO  8  23  13  24  13  25  13  26  13  27  13  28  13  29  13  30  13
M  ISO  1  31  13
M  END
>  <minimizedAffinity>  (1) 
-4.27717209

>  <minimizedRMSD>  (1) 
1.20610178

$$$$
