
     RDKit          3D

 41 43  0  0  0  0  0  0  0  0999 V2000
   39.7570   31.1970   46.2020 C   0  0  0  0  0  0  0  0  0  0  0  0
   39.7250   31.5650   44.8220 C   0  0  0  0  0  0  0  0  0  0  0  0
   39.1230   32.7230   44.4480 C   0  0  0  0  0  0  0  0  0  0  0  0
   39.0560   33.1410   43.1080 C   0  0  0  0  0  0  0  0  0  0  0  0
   39.6560   32.2740   42.2030 N   0  0  0  0  0  0  0  0  0  0  0  0
   40.2440   31.1350   42.6040 C   0  0  0  0  0  0  0  0  0  0  0  0
   40.2690   30.8000   43.9040 N   0  0  0  0  0  0  0  0  0  0  0  0
   40.8520   30.2600   41.6660 N   0  0  0  0  0  0  0  0  0  0  0  0
   40.8950   30.5030   40.2580 C   0  0  0  0  0  0  0  0  0  0  0  0
   41.1370   29.2620   39.4430 C   0  0  0  0  0  0  0  0  0  0  0  0
   40.5880   28.0120   40.0340 C   0  0  0  0  0  0  0  0  0  0  0  0
   40.6370   27.9110   41.5190 C   0  0  0  0  0  0  0  0  0  0  0  0
   41.4950   29.0230   42.0590 C   0  0  0  0  0  0  0  0  0  0  0  0
   39.0190   31.9590   47.2110 C   0  0  0  0  0  0  0  0  0  0  0  0
   38.1660   31.1640   48.1150 C   0  0  0  0  0  0  0  0  0  0  0  0
   36.9860   30.6060   47.6480 C   0  0  0  0  0  0  0  0  0  0  0  0
   36.4080   29.9340   48.6920 C   0  0  0  0  0  0  0  0  0  0  0  0
   37.2170   30.0810   49.7540 N   0  0  0  0  0  0  0  0  0  0  0  0
   38.2550   30.8150   49.3940 N   0  0  0  0  0  0  0  0  0  0  0  0
   37.0180   29.5410   51.0970 C   0  0  0  0  0  0  0  0  0  0  0  0
   37.8180   28.4500   51.2990 F   0  0  0  0  0  0  0  0  0  0  0  0
   35.7100   29.1950   51.3370 F   0  0  0  0  0  0  0  0  0  0  0  0
   37.3960   30.4850   52.0500 F   0  0  0  0  0  0  0  0  0  0  0  0
   40.8139   31.2209   46.5058 H   0  0  0  0  0  0  0  0  0  0  0  0
   39.2320   30.2304   46.2027 H   0  0  0  0  0  0  0  0  0  0  0  0
   38.6704   33.3583   45.2235 H   0  0  0  0  0  0  0  0  0  0  0  0
   38.5684   34.0779   42.8007 H   0  0  0  0  0  0  0  0  0  0  0  0
   39.9335   30.9398   39.9504 H   0  0  0  0  0  0  0  0  0  0  0  0
   41.7398   31.1825   40.0722 H   0  0  0  0  0  0  0  0  0  0  0  0
   42.2234   29.1365   39.3247 H   0  0  0  0  0  0  0  0  0  0  0  0
   40.6114   29.4106   38.4882 H   0  0  0  0  0  0  0  0  0  0  0  0
   39.5351   27.9294   39.7264 H   0  0  0  0  0  0  0  0  0  0  0  0
   41.2328   27.2022   39.6621 H   0  0  0  0  0  0  0  0  0  0  0  0
   39.6197   27.9986   41.9281 H   0  0  0  0  0  0  0  0  0  0  0  0
   41.0619   26.9393   41.8110 H   0  0  0  0  0  0  0  0  0  0  0  0
   42.5063   28.9664   41.6300 H   0  0  0  0  0  0  0  0  0  0  0  0
   41.5965   28.9549   43.1522 H   0  0  0  0  0  0  0  0  0  0  0  0
   39.7510   32.5016   47.8272 H   0  0  0  0  0  0  0  0  0  0  0  0
   38.3348   32.6138   46.6515 H   0  0  0  0  0  0  0  0  0  0  0  0
   36.5871   30.6880   46.6262 H   0  0  0  0  0  0  0  0  0  0  0  0
   35.4592   29.3781   48.6657 H   0  0  0  0  0  0  0  0  0  0  0  0
  1 14  1  0
  2  1  1  0
  3  2  2  0
  4  3  1  0
  5  6  1  0
  5  4  2  0
  6  7  2  0
  7  2  1  0
  8 13  1  0
  8  6  1  0
  9  8  1  0
 10 11  1  0
 10  9  1  0
 11 12  1  0
 12 13  1  0
 14 15  1  0
 15 19  2  0
 16 15  1  0
 16 17  2  0
 17 18  1  0
 18 20  1  0
 19 18  1  0
 20 21  1  0
 20 22  1  0
 20 23  1  0
  1 24  1  0
  1 25  1  0
  3 26  1  0
  4 27  1  0
  9 28  1  0
  9 29  1  0
 10 30  1  0
 10 31  1  0
 11 32  1  0
 11 33  1  0
 12 34  1  0
 12 35  1  0
 13 36  1  0
 13 37  1  0
 14 38  1  0
 14 39  1  0
 16 40  1  0
 17 41  1  0
M  ISO  8  24   8  25   8  26  14  27  14  28  13  29  13  30  13  31  13
M  ISO  8  32  13  33  13  34  13  35  13  36  13  37  13  38   8  39   8
M  ISO  2  40  14  41  14
M  END
>  <minimizedAffinity>  (1) 
-6.3718152

>  <minimizedRMSD>  (1) 
0.495424598

$$$$
