
     RDKit          3D

 52 57  0  0  1  0  0  0  0  0999 V2000
   30.6990   27.4010   46.8510 C   0  0  1  0  0  0  0  0  0  0  0  0
   30.9700   26.9520   45.3680 C   0  0  0  0  0  0  0  0  0  0  0  0
   31.2490   28.3370   45.8730 C   0  0  2  0  0  0  0  0  0  0  0  0
   27.4080   28.4190   47.8820 C   0  0  0  0  0  0  0  0  0  0  0  0
   27.2220   27.0620   47.7630 C   0  0  0  0  0  0  0  0  0  0  0  0
   28.4370   26.4840   47.3580 C   0  0  0  0  0  0  0  0  0  0  0  0
   29.3070   27.4930   47.2440 N   0  0  0  0  0  0  0  0  0  0  0  0
   28.6700   28.5950   47.5580 N   0  0  0  0  0  0  0  0  0  0  0  0
   25.2050   28.9070   48.9740 C   0  0  0  0  0  0  0  0  0  0  0  0
   26.3720   29.3260   48.2800 C   0  0  0  0  0  0  0  0  0  0  0  0
   26.4650   30.6730   48.0010 C   0  0  0  0  0  0  0  0  0  0  0  0
   25.4680   31.5170   48.3900 N   0  0  0  0  0  0  0  0  0  0  0  0
   24.3760   31.0580   49.0520 C   0  0  0  0  0  0  0  0  0  0  0  0
   24.2290   29.7350   49.3550 N   0  0  0  0  0  0  0  0  0  0  0  0
   32.6730   28.7970   45.9930 C   0  0  0  0  0  0  0  0  0  0  0  0
   33.6300   28.7300   45.0070 C   0  0  0  0  0  0  0  0  0  0  0  0
   34.7770   29.2620   45.5020 N   0  0  0  0  0  0  0  0  0  0  0  0
   34.5650   29.6630   46.7750 C   0  0  0  0  0  0  0  0  0  0  0  0
   33.2850   29.3740   47.0600 N   0  0  0  0  0  0  0  0  0  0  0  0
   35.5530   30.3020   47.6870 C   0  0  0  0  0  0  0  0  0  0  0  0
   35.3010   30.3950   49.0790 C   0  0  0  0  0  0  0  0  0  0  0  0
   36.8060   31.2400   49.6900 S   0  0  0  0  0  0  0  0  0  0  0  0
   37.5200   31.3180   47.9210 C   0  0  0  0  0  0  0  0  0  0  0  0
   36.7020   30.8170   47.3240 N   0  0  0  0  0  0  0  0  0  0  0  0
   38.8050   31.9620   47.9760 N   0  0  0  0  0  0  0  0  0  0  0  0
   39.1510   32.5880   49.2570 C   0  0  0  0  0  0  0  0  0  0  0  0
   39.0240   34.0900   48.9810 C   0  0  0  0  0  0  0  0  0  0  0  0
   40.0850   34.4150   47.9730 C   0  0  0  0  0  0  0  0  0  0  0  0
   39.9320   33.6250   46.7180 C   0  0  0  0  0  0  0  0  0  0  0  0
   39.8400   32.1230   46.9770 C   0  0  0  0  0  0  0  0  0  0  0  0
   31.0084   27.0864   47.8586 H   0  0  0  0  0  0  0  0  0  0  0  0
   30.1333   26.7666   44.6785 H   0  0  0  0  0  0  0  0  0  0  0  0
   31.5418   26.1560   44.8686 H   0  0  0  0  0  0  0  0  0  0  0  0
   30.9408   29.3403   45.5437 H   0  0  0  0  0  0  0  0  0  0  0  0
   26.2829   26.5214   47.9524 H   0  0  0  0  0  0  0  0  0  0  0  0
   28.6328   25.4176   47.1724 H   0  0  0  0  0  0  0  0  0  0  0  0
   25.0994   27.8381   49.2113 H   0  0  0  0  0  0  0  0  0  0  0  0
   27.3420   31.0657   47.4656 H   0  0  0  0  0  0  0  0  0  0  0  0
   23.5912   31.7683   49.3514 H   0  0  0  0  0  0  0  0  0  0  0  0
   33.4907   28.3183   43.9965 H   0  0  0  0  0  0  0  0  0  0  0  0
   35.6663   29.3464   44.9893 H   0  0  0  0  0  0  0  0  0  0  0  0
   34.4251   30.0481   49.6469 H   0  0  0  0  0  0  0  0  0  0  0  0
   38.4522   32.2750   50.0467 H   0  0  0  0  0  0  0  0  0  0  0  0
   40.1539   32.3053   49.6095 H   0  0  0  0  0  0  0  0  0  0  0  0
   38.0279   34.3215   48.5758 H   0  0  0  0  0  0  0  0  0  0  0  0
   39.1468   34.6809   49.9007 H   0  0  0  0  0  0  0  0  0  0  0  0
   40.0238   35.4854   47.7272 H   0  0  0  0  0  0  0  0  0  0  0  0
   41.0595   34.1602   48.4151 H   0  0  0  0  0  0  0  0  0  0  0  0
   40.8009   33.8185   46.0718 H   0  0  0  0  0  0  0  0  0  0  0  0
   38.9925   33.9386   46.2394 H   0  0  0  0  0  0  0  0  0  0  0  0
   39.5685   31.5902   46.0537 H   0  0  0  0  0  0  0  0  0  0  0  0
   40.8010   31.7093   47.3168 H   0  0  0  0  0  0  0  0  0  0  0  0
  1  7  1  0
  2  3  1  0
  2  1  1  0
  3 15  1  0
  3  1  1  0
  4 10  1  0
  5  4  1  0
  6  5  2  0
  7  6  1  0
  7  8  1  0
  8  4  2  0
  9 14  2  0
 10  9  1  0
 11 10  2  0
 11 12  1  0
 12 13  2  0
 13 14  1  0
 15 19  1  0
 16 17  1  0
 16 15  2  0
 17 18  1  0
 18 19  2  0
 18 20  1  0
 20 21  2  0
 21 22  1  0
 23 25  1  0
 23 22  1  0
 24 20  1  0
 24 23  2  0
 25 26  1  0
 27 26  1  0
 28 27  1  0
 29 30  1  0
 29 28  1  0
 30 25  1  0
  1 31  1  1
  2 32  1  0
  2 33  1  0
  3 34  1  6
  5 35  1  0
  6 36  1  0
  9 37  1  0
 11 38  1  0
 13 39  1  0
 16 40  1  0
 17 41  1  0
 21 42  1  0
 26 43  1  0
 26 44  1  0
 27 45  1  0
 27 46  1  0
 28 47  1  0
 28 48  1  0
 29 49  1  0
 29 50  1  0
 30 51  1  0
 30 52  1  0
M  ISO  8  31  13  32  13  33  13  34  13  35  14  36  14  37  14  38  14
M  ISO  8  39  14  40  14  41   9  42  14  43  13  44  13  45  13  46  13
M  ISO  6  47  13  48  13  49  13  50  13  51  13  52  13
M  END
>  <minimizedAffinity>  (1) 
-6.09788322

>  <minimizedRMSD>  (1) 
1.74203086

$$$$
