
     RDKit          3D

 44 46  0  0  0  0  0  0  0  0999 V2000
   37.5740   30.8158   49.5035 C   0  0  0  0  0  0  0  0  0  0  0  0
   37.4767   32.1336   49.9173 C   0  0  0  0  0  0  0  0  0  0  0  0
   37.9094   33.1289   49.0093 C   0  0  0  0  0  0  0  0  0  0  0  0
   38.3879   32.7120   47.7988 N   0  0  0  0  0  0  0  0  0  0  0  0
   38.4584   31.4247   47.4537 C   0  0  0  0  0  0  0  0  0  0  0  0
   38.0515   30.4834   48.3069 N   0  0  0  0  0  0  0  0  0  0  0  0
   38.9788   31.1159   46.1582 N   0  0  0  0  0  0  0  0  0  0  0  0
   40.3915   30.8771   46.0149 C   0  0  0  0  0  0  0  0  0  0  0  0
   40.9281   31.5310   44.7618 C   0  0  0  0  0  0  0  0  0  0  0  0
   40.1044   31.2913   43.6198 N   0  0  0  0  0  0  0  0  0  0  0  0
   38.9405   30.4934   43.8608 C   0  0  0  0  0  0  0  0  0  0  0  0
   38.0857   31.0457   45.0011 C   0  0  2  0  0  0  0  0  0  0  0  0
   37.1176   29.7506   50.4592 C   0  0  0  0  0  0  0  0  0  0  0  0
   35.8165   29.3614   50.1380 F   0  0  0  0  0  0  0  0  0  0  0  0
   38.0126   28.7345   50.4326 F   0  0  0  0  0  0  0  0  0  0  0  0
   37.0232   30.3504   51.7245 F   0  0  0  0  0  0  0  0  0  0  0  0
   37.4670   32.3068   44.6528 C   0  0  0  0  0  0  0  0  0  0  0  0
   37.4665   32.6826   43.4849 O   0  0  0  0  0  0  0  0  0  0  0  0
   37.0968   32.4268   50.8732 H   0  0  0  0  0  0  0  0  0  0  0  0
   37.8636   34.1816   49.2627 H   0  0  0  0  0  0  0  0  0  0  0  0
   40.9276   31.3859   46.8636 H   0  0  0  0  0  0  0  0  0  0  0  0
   40.6588   29.8072   46.1020 H   0  0  0  0  0  0  0  0  0  0  0  0
   41.9332   31.0922   44.5457 H   0  0  0  0  0  0  0  0  0  0  0  0
   40.9948   32.6279   44.9366 H   0  0  0  0  0  0  0  0  0  0  0  0
   40.6045   30.8884   42.8190 H   0  0  0  0  0  0  0  0  0  0  0  0
   38.3890   30.4029   42.9126 H   0  0  0  0  0  0  0  0  0  0  0  0
   39.2650   29.4846   44.1840 H   0  0  0  0  0  0  0  0  0  0  0  0
   37.3206   30.2852   45.2256 H   0  0  0  0  0  0  0  0  0  0  0  0
   36.8575   33.5425   44.3287 N   0  0  0  0  0  0  0  0  0  0  0  0
   35.5973   34.1400   44.6982 C   0  0  0  0  0  0  0  0  0  0  0  0
   35.9378   35.3198   45.6220 C   0  0  0  0  0  0  0  0  0  0  0  0
   36.5121   36.3656   44.6743 C   0  0  0  0  0  0  0  0  0  0  0  0
   35.6620   36.7419   44.0490 H   0  0  0  0  0  0  0  0  0  0  0  0
   37.6634   35.8469   43.8874 C   0  0  0  0  0  0  0  0  0  0  0  0
   37.5924   34.4300   43.4558 C   0  0  0  0  0  0  0  0  0  0  0  0
   35.0970   34.6029   43.8132 H   0  0  0  0  0  0  0  0  0  0  0  0
   34.8607   33.4862   45.1609 H   0  0  0  0  0  0  0  0  0  0  0  0
   36.7037   34.9830   46.3339 H   0  0  0  0  0  0  0  0  0  0  0  0
   35.0473   35.7574   46.0840 H   0  0  0  0  0  0  0  0  0  0  0  0
   36.8309   37.2197   45.3008 H   0  0  0  0  0  0  0  0  0  0  0  0
   38.6104   36.1011   44.4307 H   0  0  0  0  0  0  0  0  0  0  0  0
   37.7256   36.4720   42.9525 H   0  0  0  0  0  0  0  0  0  0  0  0
   37.1236   34.3443   42.4330 H   0  0  0  0  0  0  0  0  0  0  0  0
   38.6286   34.0657   43.3186 H   0  0  0  0  0  0  0  0  0  0  0  0
  1  2  2  0
  1 13  1  0
  3  2  1  0
  4  3  2  0
  5  4  1  0
  5  6  2  0
  6  1  1  0
  7  5  1  0
  8  7  1  0
  9  8  1  0
 10 11  1  0
 10  9  1  0
 11 12  1  0
 12  7  1  0
 13 16  1  0
 14 13  1  0
 15 13  1  0
 17 12  1  0
 18 17  2  0
  2 19  1  0
  3 20  1  0
  8 21  1  0
  8 22  1  0
  9 23  1  0
  9 24  1  0
 10 25  1  0
 11 26  1  0
 11 27  1  0
 12 28  1  1
 29 30  1  0
 30 31  1  0
 31 32  1  0
 32 33  1  0
 32 34  1  0
 34 35  1  0
 35 29  1  0
 30 36  1  0
 30 37  1  0
 31 38  1  0
 31 39  1  0
 32 40  1  0
 34 41  1  0
 34 42  1  0
 35 43  1  0
 35 44  1  0
 17 29  1  0
M  ISO  8  19  14  20  14  21  13  22  13  23  13  24  13  25   5  26  13
M  ISO  3  27  13  28  13  33  15
M  END
>  <DihAtoms>  (1) 
11,16,28,29

>  <DihDeg>  (1) 
179.89569088431412

$$$$
