
     RDKit          3D

 39 41  0  0  0  0  0  0  0  0999 V2000
   37.4691   31.4340   49.3868 C   0  0  0  0  0  0  0  0  0  0  0  0
   37.8661   32.7214   49.7034 C   0  0  0  0  0  0  0  0  0  0  0  0
   38.6811   33.3359   48.7538 C   0  0  0  0  0  0  0  0  0  0  0  0
   39.0292   32.6654   47.6116 N   0  0  0  0  0  0  0  0  0  0  0  0
   38.6173   31.4092   47.3455 C   0  0  0  0  0  0  0  0  0  0  0  0
   37.8210   30.7867   48.2575 N   0  0  0  0  0  0  0  0  0  0  0  0
   36.5617   30.7369   50.3609 C   0  0  0  0  0  0  0  0  0  0  0  0
   36.4770   29.3166   50.4663 C   0  0  0  0  0  0  0  0  0  0  0  0
   37.3460   30.0291   51.4909 C   0  0  0  0  0  0  0  0  0  0  0  0
   38.9793   30.7034   46.1250 C   0  0  0  0  0  0  0  0  0  0  0  0
   41.0506   31.5445   45.0092 C   0  0  0  0  0  0  0  0  0  0  0  0
   40.4545   32.2975   44.1821 O   0  0  0  0  0  0  0  0  0  0  0  0
   40.4261   30.7583   46.0061 N   0  0  0  0  0  0  0  0  0  0  0  0
   37.5463   33.1796   50.6273 H   0  0  0  0  0  0  0  0  0  0  0  0
   39.0205   34.3439   48.9519 H   0  0  0  0  0  0  0  0  0  0  0  0
   35.8173   31.4747   50.7859 H   0  0  0  0  0  0  0  0  0  0  0  0
   37.0429   28.7038   49.7358 H   0  0  0  0  0  0  0  0  0  0  0  0
   35.5377   28.8614   50.8440 H   0  0  0  0  0  0  0  0  0  0  0  0
   38.4312   29.9991   51.4330 H   0  0  0  0  0  0  0  0  0  0  0  0
   36.9590   30.1337   52.5198 H   0  0  0  0  0  0  0  0  0  0  0  0
   38.7090   29.6465   46.1780 H   0  0  0  0  0  0  0  0  0  0  0  0
   38.5111   31.1357   45.2094 H   0  0  0  0  0  0  0  0  0  0  0  0
   41.0201   30.2080   46.6677 H   0  0  0  0  0  0  0  0  0  0  0  0
   42.4597   31.5926   44.8013 N   0  0  0  0  0  0  0  0  0  0  0  0
   43.2814   32.0483   45.9059 C   0  0  0  0  0  0  0  0  0  0  0  0
   44.0176   33.3244   45.5612 C   0  0  0  0  0  0  0  0  0  0  0  0
   44.9909   32.9603   44.4530 C   0  0  0  0  0  0  0  0  0  0  0  0
   45.4481   33.9112   44.1210 H   0  0  0  0  0  0  0  0  0  0  0  0
   44.1775   32.4338   43.3120 C   0  0  0  0  0  0  0  0  0  0  0  0
   43.2979   31.2676   43.6639 C   0  0  0  0  0  0  0  0  0  0  0  0
   42.6940   32.2281   46.8185 H   0  0  0  0  0  0  0  0  0  0  0  0
   44.0691   31.2753   46.0988 H   0  0  0  0  0  0  0  0  0  0  0  0
   44.5256   33.6380   46.4948 H   0  0  0  0  0  0  0  0  0  0  0  0
   43.3399   34.1156   45.1872 H   0  0  0  0  0  0  0  0  0  0  0  0
   45.7587   32.2714   44.8170 H   0  0  0  0  0  0  0  0  0  0  0  0
   43.6168   33.2649   42.8470 H   0  0  0  0  0  0  0  0  0  0  0  0
   44.9195   32.0889   42.5411 H   0  0  0  0  0  0  0  0  0  0  0  0
   43.9369   30.3813   43.8628 H   0  0  0  0  0  0  0  0  0  0  0  0
   42.6586   31.0774   42.7714 H   0  0  0  0  0  0  0  0  0  0  0  0
  1  2  2  0
  1  7  1  0
  3  2  1  0
  4  3  2  0
  5  4  1  0
  5  6  2  0
  6  1  1  0
  7  8  1  0
  7  9  1  0
  8  9  1  0
 10  5  1  0
 11 13  1  0
 12 11  2  0
 13 10  1  0
  2 14  1  0
  3 15  1  0
  7 16  1  0
  8 17  1  0
  8 18  1  0
  9 19  1  0
  9 20  1  0
 10 21  1  0
 10 22  1  0
 13 23  1  0
 24 25  1  0
 25 26  1  0
 26 27  1  0
 27 28  1  0
 27 29  1  0
 29 30  1  0
 30 24  1  0
 25 31  1  0
 25 32  1  0
 26 33  1  0
 26 34  1  0
 27 35  1  0
 29 36  1  0
 29 37  1  0
 30 38  1  0
 30 39  1  0
 11 24  1  0
M  ISO  8  14  14  15  14  16  13  17  13  18  13  19  13  20  13  21   8
M  ISO  2  22   8  28  15
M  END
>  <DihAtoms>  (1) 
12,10,23,24

>  <DihDeg>  (1) 
179.99904912328475

$$$$
