
     RDKit          3D

 39 41  0  0  0  0  0  0  0  0999 V2000
   37.4691   31.4340   49.3868 C   0  0  0  0  0  0  0  0  0  0  0  0
   37.8661   32.7214   49.7034 C   0  0  0  0  0  0  0  0  0  0  0  0
   38.6811   33.3359   48.7538 C   0  0  0  0  0  0  0  0  0  0  0  0
   39.0292   32.6654   47.6116 N   0  0  0  0  0  0  0  0  0  0  0  0
   38.6173   31.4092   47.3455 C   0  0  0  0  0  0  0  0  0  0  0  0
   37.8210   30.7867   48.2575 N   0  0  0  0  0  0  0  0  0  0  0  0
   36.5617   30.7369   50.3609 C   0  0  0  0  0  0  0  0  0  0  0  0
   36.4770   29.3166   50.4663 C   0  0  0  0  0  0  0  0  0  0  0  0
   37.3460   30.0291   51.4909 C   0  0  0  0  0  0  0  0  0  0  0  0
   38.9793   30.7034   46.1250 C   0  0  0  0  0  0  0  0  0  0  0  0
   41.0506   31.5445   45.0092 C   0  0  0  0  0  0  0  0  0  0  0  0
   40.4545   32.2975   44.1821 O   0  0  0  0  0  0  0  0  0  0  0  0
   40.4261   30.7583   46.0061 N   0  0  0  0  0  0  0  0  0  0  0  0
   37.5463   33.1796   50.6273 H   0  0  0  0  0  0  0  0  0  0  0  0
   39.0205   34.3439   48.9519 H   0  0  0  0  0  0  0  0  0  0  0  0
   35.8173   31.4747   50.7859 H   0  0  0  0  0  0  0  0  0  0  0  0
   37.0429   28.7038   49.7358 H   0  0  0  0  0  0  0  0  0  0  0  0
   35.5377   28.8614   50.8440 H   0  0  0  0  0  0  0  0  0  0  0  0
   38.4312   29.9991   51.4330 H   0  0  0  0  0  0  0  0  0  0  0  0
   36.9590   30.1337   52.5198 H   0  0  0  0  0  0  0  0  0  0  0  0
   38.7090   29.6465   46.1780 H   0  0  0  0  0  0  0  0  0  0  0  0
   38.5111   31.1357   45.2094 H   0  0  0  0  0  0  0  0  0  0  0  0
   41.0201   30.2080   46.6677 H   0  0  0  0  0  0  0  0  0  0  0  0
   42.4597   31.5926   44.8013 N   0  0  0  0  0  0  0  0  0  0  0  0
   43.2226   30.4031   45.1269 C   0  0  0  0  0  0  0  0  0  0  0  0
   44.2091   30.6642   46.2440 C   0  0  0  0  0  0  0  0  0  0  0  0
   45.2178   31.6555   45.6890 C   0  0  0  0  0  0  0  0  0  0  0  0
   45.8718   31.9350   46.5360 H   0  0  0  0  0  0  0  0  0  0  0  0
   44.4543   32.8802   45.2914 C   0  0  0  0  0  0  0  0  0  0  0  0
   43.3465   32.6281   44.3082 C   0  0  0  0  0  0  0  0  0  0  0  0
   42.5798   29.5626   45.4277 H   0  0  0  0  0  0  0  0  0  0  0  0
   43.8328   30.1219   44.2303 H   0  0  0  0  0  0  0  0  0  0  0  0
   44.6588   29.6798   46.4819 H   0  0  0  0  0  0  0  0  0  0  0  0
   43.7298   31.1130   47.1350 H   0  0  0  0  0  0  0  0  0  0  0  0
   45.8046   31.2066   44.8822 H   0  0  0  0  0  0  0  0  0  0  0  0
   44.1066   33.4062   46.1990 H   0  0  0  0  0  0  0  0  0  0  0  0
   45.2030   33.5623   44.8036 H   0  0  0  0  0  0  0  0  0  0  0  0
   43.7904   32.3575   43.3267 H   0  0  0  0  0  0  0  0  0  0  0  0
   42.7860   33.5866   44.2158 H   0  0  0  0  0  0  0  0  0  0  0  0
  1  2  2  0
  1  7  1  0
  3  2  1  0
  4  3  2  0
  5  4  1  0
  5  6  2  0
  6  1  1  0
  7  8  1  0
  7  9  1  0
  8  9  1  0
 10  5  1  0
 11 13  1  0
 12 11  2  0
 13 10  1  0
  2 14  1  0
  3 15  1  0
  7 16  1  0
  8 17  1  0
  8 18  1  0
  9 19  1  0
  9 20  1  0
 10 21  1  0
 10 22  1  0
 13 23  1  0
 24 25  1  0
 25 26  1  0
 26 27  1  0
 27 28  1  0
 27 29  1  0
 29 30  1  0
 30 24  1  0
 25 31  1  0
 25 32  1  0
 26 33  1  0
 26 34  1  0
 27 35  1  0
 29 36  1  0
 29 37  1  0
 30 38  1  0
 30 39  1  0
 11 24  1  0
M  ISO  8  14  14  15  14  16  13  17  13  18  13  19  13  20  13  21   8
M  ISO  2  22   8  28  15
M  END
>  <DihAtoms>  (1) 
12,10,23,24

>  <DihDeg>  (1) 
179.99904912328475

$$$$
