
     RDKit          3D

 34 37  0  0  0  0  0  0  0  0999 V2000
   36.8446   30.5588   46.9071 C   0  0  0  0  0  0  0  0  0  0  0  0
   37.5064   31.0298   48.0213 C   0  0  0  0  0  0  0  0  0  0  0  0
   38.4971   31.9751   47.8826 C   0  0  0  0  0  0  0  0  0  0  0  0
   38.7854   32.4162   46.5929 C   0  0  0  0  0  0  0  0  0  0  0  0
   39.7294   33.3487   46.2174 N   0  0  0  0  0  0  0  0  0  0  0  0
   39.6439   33.4443   44.8937 C   0  0  0  0  0  0  0  0  0  0  0  0
   38.6960   32.6218   44.4125 N   0  0  0  0  0  0  0  0  0  0  0  0
   38.1523   31.9746   45.4594 C   0  0  0  0  0  0  0  0  0  0  0  0
   37.1588   31.0227   45.6290 C   0  0  0  0  0  0  0  0  0  0  0  0
   37.3947   30.1068   51.6685 C   0  0  0  0  0  0  0  0  0  0  0  0
   37.8712   30.6644   50.4862 C   0  0  0  0  0  0  0  0  0  0  0  0
   37.1288   30.5034   49.3190 C   0  0  0  0  0  0  0  0  0  0  0  0
   35.9541   29.7965   49.3946 N   0  0  0  0  0  0  0  0  0  0  0  0
   35.5152   29.2641   50.5637 C   0  0  0  0  0  0  0  0  0  0  0  0
   36.2239   29.4175   51.6793 N   0  0  0  0  0  0  0  0  0  0  0  0
   40.4942   34.3273   44.2308 O   0  0  0  0  0  0  0  0  0  0  0  0
   36.0559   29.8109   46.9830 H   0  0  0  0  0  0  0  0  0  0  0  0
   39.0089   32.3392   48.7456 H   0  0  0  0  0  0  0  0  0  0  0  0
   40.3649   33.8513   46.9076 H   0  0  0  0  0  0  0  0  0  0  0  0
   36.6514   30.6641   44.7562 H   0  0  0  0  0  0  0  0  0  0  0  0
   38.0117   30.2661   52.5302 H   0  0  0  0  0  0  0  0  0  0  0  0
   38.7793   31.2105   50.4289 H   0  0  0  0  0  0  0  0  0  0  0  0
   34.5864   28.7117   50.5958 H   0  0  0  0  0  0  0  0  0  0  0  0
   39.2911   32.6495   42.3280 F   0  0  0  0  0  0  0  0  0  0  0  0
   39.9308   33.7342   41.8830 C   0  0  0  0  0  0  0  0  0  0  0  0
   40.4951   34.5093   42.8647 C   0  0  0  0  0  0  0  0  0  0  0  0
   41.1906   35.6710   42.5131 C   0  0  0  0  0  0  0  0  0  0  0  0
   41.6818   36.3676   43.2032 H   0  0  0  0  0  0  0  0  0  0  0  0
   41.3147   36.0468   41.1760 C   0  0  0  0  0  0  0  0  0  0  0  0
   41.8472   36.9408   40.8731 H   0  0  0  0  0  0  0  0  0  0  0  0
   40.7220   35.2231   40.2171 C   0  0  0  0  0  0  0  0  0  0  0  0
   40.0343   34.0762   40.5505 C   0  0  0  0  0  0  0  0  0  0  0  0
   40.8220   35.5209   39.1772 H   0  0  0  0  0  0  0  0  0  0  0  0
   39.5746   33.4370   39.8101 H   0  0  0  0  0  0  0  0  0  0  0  0
  1  2  2  0
  2 12  1  0
  3  2  1  0
  4  3  2  0
  5  4  1  0
  6  5  1  0
  7  6  2  0
  7  8  1  0
  8  9  2  0
  8  4  1  0
  9  1  1  0
 10 15  2  0
 11 10  1  0
 12 13  1  0
 12 11  2  0
 13 14  2  0
 14 15  1  0
 16  6  1  0
  1 17  1  0
  3 18  1  0
  5 19  1  0
  9 20  1  0
 10 21  1  0
 11 22  1  0
 14 23  1  0
 24 25  1  0
 25 26  2  0
 26 27  1  0
 27 28  1  0
 27 29  2  0
 29 30  1  0
 29 31  1  0
 31 32  2  0
 32 25  1  0
 31 33  1  0
 32 34  1  0
 16 26  1  0
M  ISO  8  17  14  18  14  19   9  20  14  21  14  22  14  23  14  28  15
M  ISO  1  30  16
M  END
>  <DihAtoms>  (1) 
5,15,25,24

>  <DihDeg>  (1) 
-60.00046779667003

$$$$
