
     RDKit          3D

 21 22  0  0  0  0  0  0  0  0999 V2000
   37.3238   30.2299   51.4208 C   0  0  0  0  0  0  0  0  0  0  0  0
   38.0768   30.7357   50.3498 C   0  0  0  0  0  0  0  0  0  0  0  0
   37.7000   30.3751   49.0542 C   0  0  0  0  0  0  0  0  0  0  0  0
   36.6140   29.5448   48.8825 N   0  0  0  0  0  0  0  0  0  0  0  0
   35.9228   29.0862   49.9611 C   0  0  0  0  0  0  0  0  0  0  0  0
   36.2848   29.4329   51.2117 N   0  0  0  0  0  0  0  0  0  0  0  0
   34.8699   28.2703   49.6090 O   0  0  0  0  0  0  0  0  0  0  0  0
   37.5439   30.4567   52.4537 H   0  0  0  0  0  0  0  0  0  0  0  0
   38.9037   31.3715   50.5405 H   0  0  0  0  0  0  0  0  0  0  0  0
   38.2498   30.7399   48.1948 H   0  0  0  0  0  0  0  0  0  0  0  0
   35.9948   28.4711   52.0469 F   0  0  0  0  0  0  0  0  0  0  0  0
   34.7665   27.9043   51.8639 C   0  0  0  0  0  0  0  0  0  0  0  0
   34.1098   27.7575   50.6511 C   0  0  0  0  0  0  0  0  0  0  0  0
   32.8691   27.1673   50.5925 C   0  0  0  0  0  0  0  0  0  0  0  0
   32.4496   27.1034   49.6051 H   0  0  0  0  0  0  0  0  0  0  0  0
   32.2521   26.7092   51.7376 C   0  0  0  0  0  0  0  0  0  0  0  0
   31.2758   26.2484   51.6652 H   0  0  0  0  0  0  0  0  0  0  0  0
   32.9226   26.8646   52.9357 C   0  0  0  0  0  0  0  0  0  0  0  0
   34.1662   27.4498   53.0405 C   0  0  0  0  0  0  0  0  0  0  0  0
   32.4278   26.5007   53.8297 H   0  0  0  0  0  0  0  0  0  0  0  0
   34.6576   27.5499   54.0170 H   0  0  0  0  0  0  0  0  0  0  0  0
  2  1  2  0
  3  2  1  0
  4  3  2  0
  4  5  1  0
  5  6  2  0
  6  1  1  0
  7  5  1  0
  1  8  1  0
  2  9  1  0
  3 10  1  0
 11 12  1  0
 12 13  2  0
 13 14  1  0
 14 15  1  0
 14 16  2  0
 16 17  1  0
 16 18  1  0
 18 19  2  0
 19 12  1  0
 18 20  1  0
 19 21  1  0
  7 13  1  0
M  ISO  5   8  14   9  14  10  14  15  15  17  16
M  END
>  <DihAtoms>  (1) 
4,6,12,11

>  <DihDeg>  (1) 
-60.000113958115044

$$$$
