
     RDKit          3D

 21 22  0  0  0  0  0  0  0  0999 V2000
   37.3238   30.2299   51.4208 C   0  0  0  0  0  0  0  0  0  0  0  0
   38.0768   30.7357   50.3498 C   0  0  0  0  0  0  0  0  0  0  0  0
   37.7000   30.3751   49.0542 C   0  0  0  0  0  0  0  0  0  0  0  0
   36.6140   29.5448   48.8825 N   0  0  0  0  0  0  0  0  0  0  0  0
   35.9228   29.0862   49.9611 C   0  0  0  0  0  0  0  0  0  0  0  0
   36.2848   29.4329   51.2117 N   0  0  0  0  0  0  0  0  0  0  0  0
   34.8699   28.2703   49.6090 O   0  0  0  0  0  0  0  0  0  0  0  0
   37.5439   30.4567   52.4537 H   0  0  0  0  0  0  0  0  0  0  0  0
   38.9037   31.3715   50.5405 H   0  0  0  0  0  0  0  0  0  0  0  0
   38.2498   30.7399   48.1948 H   0  0  0  0  0  0  0  0  0  0  0  0
   32.2050   28.4002   49.2478 F   0  0  0  0  0  0  0  0  0  0  0  0
   32.7544   27.8665   50.3778 C   0  0  0  0  0  0  0  0  0  0  0  0
   34.1098   27.7575   50.6511 C   0  0  0  0  0  0  0  0  0  0  0  0
   34.5446   27.1985   51.8299 C   0  0  0  0  0  0  0  0  0  0  0  0
   35.6128   27.1624   51.9414 H   0  0  0  0  0  0  0  0  0  0  0  0
   33.6427   26.7349   52.7645 C   0  0  0  0  0  0  0  0  0  0  0  0
   34.0098   26.2991   53.6844 H   0  0  0  0  0  0  0  0  0  0  0  0
   32.2970   26.8527   52.4735 C   0  0  0  0  0  0  0  0  0  0  0  0
   31.8174   27.4056   51.3056 C   0  0  0  0  0  0  0  0  0  0  0  0
   31.5970   26.4847   53.2158 H   0  0  0  0  0  0  0  0  0  0  0  0
   30.7376   27.4764   51.1216 H   0  0  0  0  0  0  0  0  0  0  0  0
  2  1  2  0
  3  2  1  0
  4  3  2  0
  4  5  1  0
  5  6  2  0
  6  1  1  0
  7  5  1  0
  1  8  1  0
  2  9  1  0
  3 10  1  0
 11 12  1  0
 12 13  2  0
 13 14  1  0
 14 15  1  0
 14 16  2  0
 16 17  1  0
 16 18  1  0
 18 19  2  0
 19 12  1  0
 18 20  1  0
 19 21  1  0
  7 13  1  0
M  ISO  5   8  14   9  14  10  14  15  15  17  16
M  END
>  <DihAtoms>  (1) 
4,6,12,11

>  <DihDeg>  (1) 
-60.000113958115044

$$$$
