
     RDKit          3D

 43 46  0  0  0  0  0  0  0  0999 V2000
   34.0052   28.8083   48.2905 C   0  0  0  0  0  0  0  0  0  0  0  0
   34.6379   28.3552   49.4135 C   0  0  0  0  0  0  0  0  0  0  0  0
   35.8609   28.7957   49.8396 C   0  0  0  0  0  0  0  0  0  0  0  0
   36.5419   29.7439   49.1453 C   0  0  0  0  0  0  0  0  0  0  0  0
   35.9033   30.2174   47.9904 C   0  0  0  0  0  0  0  0  0  0  0  0
   34.6990   29.7663   47.5938 N   0  0  0  0  0  0  0  0  0  0  0  0
   31.9039   27.5002   48.5579 C   0  0  0  0  0  0  0  0  0  0  0  0
   32.7298   28.3661   47.8226 C   0  0  0  0  0  0  0  0  0  0  0  0
   32.2545   28.7811   46.6092 C   0  0  0  0  0  0  0  0  0  0  0  0
   31.0362   28.3573   46.1646 N   0  0  0  0  0  0  0  0  0  0  0  0
   30.2772   27.5129   46.9271 C   0  0  0  0  0  0  0  0  0  0  0  0
   30.6984   27.0752   48.1278 N   0  0  0  0  0  0  0  0  0  0  0  0
   37.7736   30.2969   49.4295 O   0  0  0  0  0  0  0  0  0  0  0  0
   38.3582   31.2732   48.6445 C   0  0  0  0  0  0  0  0  0  0  0  0
   38.4471   32.5112   49.2315 C   0  0  0  0  0  0  0  0  0  0  0  0
   39.0559   33.3605   48.3063 C   0  0  0  0  0  0  0  0  0  0  0  0
   39.3123   32.6411   47.2186 N   0  0  0  0  0  0  0  0  0  0  0  0
   38.9012   31.4319   47.4311 N   0  0  0  0  0  0  0  0  0  0  0  0
   39.9359   33.0814   45.9985 C   0  0  0  0  0  0  0  0  0  0  0  0
   40.6967   31.9462   45.3969 C   0  0  0  0  0  0  0  0  0  0  0  0
   34.1549   27.5978   50.0183 H   0  0  0  0  0  0  0  0  0  0  0  0
   36.3553   28.4265   50.7370 H   0  0  0  0  0  0  0  0  0  0  0  0
   36.3276   30.9701   47.3432 H   0  0  0  0  0  0  0  0  0  0  0  0
   32.2288   27.1413   49.5219 H   0  0  0  0  0  0  0  0  0  0  0  0
   32.8198   29.4554   45.9596 H   0  0  0  0  0  0  0  0  0  0  0  0
   29.3404   27.2678   46.4402 H   0  0  0  0  0  0  0  0  0  0  0  0
   38.1720   32.9457   50.1799 H   0  0  0  0  0  0  0  0  0  0  0  0
   39.3103   34.4118   48.3715 H   0  0  0  0  0  0  0  0  0  0  0  0
   39.2042   33.5277   45.2873 H   0  0  0  0  0  0  0  0  0  0  0  0
   40.6206   33.9134   46.2542 H   0  0  0  0  0  0  0  0  0  0  0  0
   41.2494   32.3868   44.5140 H   0  0  0  0  0  0  0  0  0  0  0  0
   41.5405   31.7331   46.1198 H   0  0  0  0  0  0  0  0  0  0  0  0
   41.7961   29.4244   46.0342 F   0  0  0  0  0  0  0  0  0  0  0  0
   40.5772   29.5665   45.4147 C   0  0  0  0  0  0  0  0  0  0  0  0
   39.9406   30.7535   45.0482 C   0  0  0  0  0  0  0  0  0  0  0  0
   38.7118   30.6241   44.4347 C   0  0  0  0  0  0  0  0  0  0  0  0
   38.2413   31.5521   44.1723 H   0  0  0  0  0  0  0  0  0  0  0  0
   38.1161   29.4126   44.1810 C   0  0  0  0  0  0  0  0  0  0  0  0
   37.1362   29.4587   43.6857 H   0  0  0  0  0  0  0  0  0  0  0  0
   38.7567   28.2560   44.5481 C   0  0  0  0  0  0  0  0  0  0  0  0
   39.9885   28.3359   45.1657 C   0  0  0  0  0  0  0  0  0  0  0  0
   38.2226   27.3331   44.3144 H   0  0  0  0  0  0  0  0  0  0  0  0
   40.4137   27.3747   45.4166 H   0  0  0  0  0  0  0  0  0  0  0  0
  1  2  2  0
  2  3  1  0
  4 13  1  0
  4  3  2  0
  5  4  1  0
  6  5  2  0
  6  1  1  0
  8  1  1  0
  8  7  2  0
  9  8  1  0
 10  9  2  0
 10 11  1  0
 11 12  2  0
 12  7  1  0
 14 15  1  0
 14 13  1  0
 16 15  2  0
 17 18  1  0
 17 16  1  0
 18 14  2  0
 19 17  1  0
 20 19  1  0
  2 21  1  0
  3 22  1  0
  5 23  1  0
  7 24  1  0
  9 25  1  0
 11 26  1  0
 15 27  1  0
 16 28  1  0
 19 29  1  0
 19 30  1  0
 20 31  1  0
 20 32  1  0
 33 34  1  0
 34 35  2  0
 35 36  1  0
 36 37  1  0
 36 38  2  0
 38 39  1  0
 38 40  1  0
 40 41  2  0
 41 34  1  0
 40 42  1  0
 41 43  1  0
 20 35  1  0
M  ISO  8  21  14  22  14  23  14  24  14  25  14  26  14  27  14  28  14
M  ISO  6  29   8  30   8  31   8  32   8  37  15  39  16
M  END
>  <DihAtoms>  (1) 
18,19,34,33

>  <DihDeg>  (1) 
73.54707890597588

$$$$
