
     RDKit          3D

 27 28  0  0  0  0  0  0  0  0999 V2000
   37.3270   30.2162   51.4023 C   0  0  0  0  0  0  0  0  0  0  0  0
   38.0502   30.6661   50.3031 C   0  0  0  0  0  0  0  0  0  0  0  0
   37.6162   30.2888   49.0389 C   0  0  0  0  0  0  0  0  0  0  0  0
   36.5057   29.5009   48.9750 N   0  0  0  0  0  0  0  0  0  0  0  0
   35.8267   29.0821   50.0680 C   0  0  0  0  0  0  0  0  0  0  0  0
   36.2476   29.4478   51.2975 N   0  0  0  0  0  0  0  0  0  0  0  0
   34.7377   28.2958   49.7504 O   0  0  0  0  0  0  0  0  0  0  0  0
   34.2208   28.3864   48.4465 C   0  0  0  0  0  0  0  0  0  0  0  0
   33.8231   27.0468   47.9202 C   0  0  0  0  0  0  0  0  0  0  0  0
   37.7137   30.5425   52.3631 H   0  0  0  0  0  0  0  0  0  0  0  0
   38.9235   31.2814   50.3075 H   0  0  0  0  0  0  0  0  0  0  0  0
   38.1104   30.5863   48.1205 H   0  0  0  0  0  0  0  0  0  0  0  0
   34.9816   28.8128   47.7516 H   0  0  0  0  0  0  0  0  0  0  0  0
   33.3748   29.1025   48.4921 H   0  0  0  0  0  0  0  0  0  0  0  0
   33.4492   27.0758   46.8968 H   0  0  0  0  0  0  0  0  0  0  0  0
   34.7420   26.3971   47.9812 H   0  0  0  0  0  0  0  0  0  0  0  0
   32.1412   28.8364   49.1395 F   0  0  0  0  0  0  0  0  0  0  0  0
   31.9852   27.4945   49.3715 C   0  0  0  0  0  0  0  0  0  0  0  0
   32.7734   26.4867   48.8154 C   0  0  0  0  0  0  0  0  0  0  0  0
   32.5031   25.1777   49.1395 C   0  0  0  0  0  0  0  0  0  0  0  0
   33.1784   24.4890   48.6466 H   0  0  0  0  0  0  0  0  0  0  0  0
   31.4848   24.8517   49.9909 C   0  0  0  0  0  0  0  0  0  0  0  0
   31.3232   23.8109   50.2051 H   0  0  0  0  0  0  0  0  0  0  0  0
   30.6957   25.8596   50.5470 C   0  0  0  0  0  0  0  0  0  0  0  0
   30.9516   27.1973   50.2310 C   0  0  0  0  0  0  0  0  0  0  0  0
   29.8993   25.6081   51.2094 H   0  0  0  0  0  0  0  0  0  0  0  0
   30.3126   27.9653   50.6839 H   0  0  0  0  0  0  0  0  0  0  0  0
  2  1  2  0
  3  2  1  0
  4  3  2  0
  4  5  1  0
  5  6  2  0
  6  1  1  0
  7  5  1  0
  8  7  1  0
  9  8  1  0
  1 10  1  0
  2 11  1  0
  3 12  1  0
  8 13  1  0
  8 14  1  0
  9 15  1  0
  9 16  1  0
 17 18  1  0
 18 19  2  0
 19 20  1  0
 20 21  1  0
 20 22  2  0
 22 23  1  0
 22 24  1  0
 24 25  2  0
 25 18  1  0
 24 26  1  0
 25 27  1  0
  9 19  1  0
M  ISO  8  10  14  11  14  12  14  13   8  14   8  15   8  16   8  21  15
M  ISO  1  23  16
M  END
>  <DihAtoms>  (1) 
7,8,18,17

>  <DihDeg>  (1) 
76.57266362767908

$$$$
