
     RDKit          3D

 30 32  0  0  0  0  0  0  0  0999 V2000
   37.3630   31.3690   49.2046 C   0  0  0  0  0  0  0  0  0  0  0  0
   37.7076   32.6647   49.6004 C   0  0  0  0  0  0  0  0  0  0  0  0
   38.5837   33.3228   48.7803 C   0  0  0  0  0  0  0  0  0  0  0  0
   39.0707   32.7139   47.6472 N   0  0  0  0  0  0  0  0  0  0  0  0
   38.7047   31.4551   47.3069 C   0  0  0  0  0  0  0  0  0  0  0  0
   37.8289   30.7544   48.0995 N   0  0  0  0  0  0  0  0  0  0  0  0
   36.3788   30.6104   50.0579 C   0  0  0  0  0  0  0  0  0  0  0  0
   36.2695   29.1741   50.0505 C   0  0  0  0  0  0  0  0  0  0  0  0
   37.0658   29.8107   51.1750 C   0  0  0  0  0  0  0  0  0  0  0  0
   39.1944   30.7971   46.1016 C   0  0  0  0  0  0  0  0  0  0  0  0
   37.2937   33.0751   50.4874 H   0  0  0  0  0  0  0  0  0  0  0  0
   38.9057   34.3372   49.0157 H   0  0  0  0  0  0  0  0  0  0  0  0
   35.5482   31.2688   50.3937 H   0  0  0  0  0  0  0  0  0  0  0  0
   35.2859   28.7227   50.2930 H   0  0  0  0  0  0  0  0  0  0  0  0
   36.8833   28.5408   49.3831 H   0  0  0  0  0  0  0  0  0  0  0  0
   38.1608   29.7268   51.1732 H   0  0  0  0  0  0  0  0  0  0  0  0
   36.5317   29.8479   52.1276 H   0  0  0  0  0  0  0  0  0  0  0  0
   39.2326   29.6801   46.2521 H   0  0  0  0  0  0  0  0  0  0  0  0
   40.2470   31.0588   45.8459 H   0  0  0  0  0  0  0  0  0  0  0  0
   38.3800   28.8295   44.1890 F   0  0  0  0  0  0  0  0  0  0  0  0
   37.9404   30.0953   43.9950 C   0  0  0  0  0  0  0  0  0  0  0  0
   38.3334   31.0395   44.9153 C   0  0  0  0  0  0  0  0  0  0  0  0
   37.8743   32.3449   44.7062 C   0  0  0  0  0  0  0  0  0  0  0  0
   38.1656   33.1298   45.4190 H   0  0  0  0  0  0  0  0  0  0  0  0
   37.0752   32.7233   43.6614 C   0  0  0  0  0  0  0  0  0  0  0  0
   36.7564   33.7503   43.5592 H   0  0  0  0  0  0  0  0  0  0  0  0
   36.6805   31.7611   42.7323 C   0  0  0  0  0  0  0  0  0  0  0  0
   37.1331   30.4841   42.9419 C   0  0  0  0  0  0  0  0  0  0  0  0
   36.0496   32.0369   41.8993 H   0  0  0  0  0  0  0  0  0  0  0  0
   36.8258   29.7183   42.2120 H   0  0  0  0  0  0  0  0  0  0  0  0
  1  2  2  0
  1  7  1  0
  3  2  1  0
  4  3  2  0
  5  4  1  0
  5  6  2  0
  6  1  1  0
  7  9  1  0
  8  7  1  0
  8  9  1  0
 10  5  1  0
  2 11  1  0
  3 12  1  0
  7 13  1  0
  8 14  1  0
  8 15  1  0
  9 16  1  0
  9 17  1  0
 10 18  1  0
 10 19  1  0
 20 21  1  0
 21 22  2  0
 22 23  1  0
 23 24  1  0
 23 25  2  0
 25 26  1  0
 25 27  1  0
 27 28  2  0
 28 21  1  0
 27 29  1  0
 28 30  1  0
 10 22  1  0
M  ISO  8  11  14  12  14  13  13  14  13  15  13  16  13  17  13  18   8
M  ISO  3  19   8  24  15  26  16
M  END
>  <DihAtoms>  (1) 
4,9,21,20

>  <DihDeg>  (1) 
-76.11504381652539

$$$$
