
     RDKit          3D

 23 24  0  0  0  0  0  0  0  0999 V2000
   38.3060   31.2304   50.1238 C   0  0  0  0  0  0  0  0  0  0  0  0
   38.2888   31.6038   48.7588 C   0  0  0  0  0  0  0  0  0  0  0  0
   37.1987   31.2235   47.9915 C   0  0  0  0  0  0  0  0  0  0  0  0
   36.2248   30.5156   48.6167 N   0  0  0  0  0  0  0  0  0  0  0  0
   36.2572   30.1715   49.9053 C   0  0  0  0  0  0  0  0  0  0  0  0
   37.2996   30.5344   50.6446 N   0  0  0  0  0  0  0  0  0  0  0  0
   35.1256   29.3903   50.4422 C   0  0  0  0  0  0  0  0  0  0  0  0
   35.2608   29.1210   51.8012 F   0  0  0  0  0  0  0  0  0  0  0  0
   33.9248   30.0600   50.2936 F   0  0  0  0  0  0  0  0  0  0  0  0
   34.9628   28.1615   49.8262 F   0  0  0  0  0  0  0  0  0  0  0  0
   39.1422   31.5127   50.7464 H   0  0  0  0  0  0  0  0  0  0  0  0
   39.0840   32.1627   48.3151 H   0  0  0  0  0  0  0  0  0  0  0  0
   36.9681   29.2254   46.0242 F   0  0  0  0  0  0  0  0  0  0  0  0
   36.9500   30.5443   45.6549 C   0  0  0  0  0  0  0  0  0  0  0  0
   37.0590   31.5444   46.5775 C   0  0  0  0  0  0  0  0  0  0  0  0
   37.0278   32.8307   46.0848 C   0  0  0  0  0  0  0  0  0  0  0  0
   37.1092   33.6691   46.7611 H   0  0  0  0  0  0  0  0  0  0  0  0
   36.8965   33.1437   44.7538 C   0  0  0  0  0  0  0  0  0  0  0  0
   36.8781   34.1719   44.4241 H   0  0  0  0  0  0  0  0  0  0  0  0
   36.7865   32.1313   43.8239 C   0  0  0  0  0  0  0  0  0  0  0  0
   36.8167   30.8288   44.3090 C   0  0  0  0  0  0  0  0  0  0  0  0
   36.6822   32.3532   42.7706 H   0  0  0  0  0  0  0  0  0  0  0  0
   36.7255   30.0715   43.5254 H   0  0  0  0  0  0  0  0  0  0  0  0
  1  6  2  0
  2  1  1  0
  3  4  1  0
  3  2  2  0
  4  5  2  0
  5  7  1  0
  5  6  1  0
  7  8  1  0
  9  7  1  0
 10  7  1  0
  1 11  1  0
  2 12  1  0
 13 14  1  0
 14 15  2  0
 15 16  1  0
 16 17  1  0
 16 18  2  0
 18 19  1  0
 18 20  1  0
 20 21  2  0
 21 14  1  0
 20 22  1  0
 21 23  1  0
  3 15  1  0
M  ISO  4  11  14  12  14  17  15  19  16
M  END
>  <DihAtoms>  (1) 
3,2,14,13

>  <DihDeg>  (1) 
0.0006040380934027728

$$$$
