
     RDKit          3D

 29 31  0  0  0  0  0  0  0  0999 V2000
   35.7780   30.1140   49.9590 C   0  0  0  0  0  0  0  0  0  0  0  0
   36.6450   29.7930   50.9930 C   0  0  0  0  0  0  0  0  0  0  0  0
   37.7630   30.5880   50.7030 C   0  0  0  0  0  0  0  0  0  0  0  0
   37.5240   31.3120   49.5650 C   0  0  0  0  0  0  0  0  0  0  0  0
   36.3330   31.0020   49.1530 O   0  0  0  0  0  0  0  0  0  0  0  0
   38.5900   31.0000   46.9250 F   0  0  0  0  0  0  0  0  0  0  0  0
   38.9060   32.1040   47.6270 C   0  0  0  0  0  0  0  0  0  0  0  0
   38.3990   32.2650   48.8970 C   0  0  0  0  0  0  0  0  0  0  0  0
   38.7960   33.4340   49.5120 C   0  0  0  0  0  0  0  0  0  0  0  0
   39.6210   34.3920   48.9580 C   0  0  0  0  0  0  0  0  0  0  0  0
   40.0970   34.1700   47.6780 C   0  0  0  0  0  0  0  0  0  0  0  0
   39.7340   33.0170   47.0120 C   0  0  0  0  0  0  0  0  0  0  0  0
   34.4400   29.5380   49.8010 C   0  0  0  0  0  0  0  0  0  0  0  0
   33.6290   29.6840   50.7490 O   0  0  0  0  0  0  0  0  0  0  0  0
   33.7940   26.7800   47.5190 C   0  0  0  0  0  0  0  0  0  0  0  0
   33.4460   27.4330   46.3320 C   0  0  0  0  0  0  0  0  0  0  0  0
   33.4280   28.8180   46.3010 C   0  0  0  0  0  0  0  0  0  0  0  0
   33.7560   29.4630   47.4430 N   0  0  0  0  0  0  0  0  0  0  0  0
   34.0890   28.8250   48.5750 C   0  0  0  0  0  0  0  0  0  0  0  0
   34.1090   27.4780   48.6170 N   0  0  0  0  0  0  0  0  0  0  0  0
   36.4940   29.0930   51.8280 H   0  0  0  0  0  0  0  0  0  0  0  0
   38.6881   30.6246   51.2970 H   0  0  0  0  0  0  0  0  0  0  0  0
   38.4235   33.6185   50.5304 H   0  0  0  0  0  0  0  0  0  0  0  0
   39.8909   35.3012   49.5153 H   0  0  0  0  0  0  0  0  0  0  0  0
   40.7582   34.9052   47.1960 H   0  0  0  0  0  0  0  0  0  0  0  0
   40.1046   32.8278   45.9937 H   0  0  0  0  0  0  0  0  0  0  0  0
   33.8090   25.6806   47.5506 H   0  0  0  0  0  0  0  0  0  0  0  0
   33.1894   26.8533   45.4330 H   0  0  0  0  0  0  0  0  0  0  0  0
   33.1587   29.3685   45.3875 H   0  0  0  0  0  0  0  0  0  0  0  0
  1  2  2  0
  3  2  1  0
  4  3  2  0
  5  4  1  0
  5  1  1  0
  6  7  1  0
  7  8  2  0
  8  9  1  0
  8  4  1  0
 10  9  2  0
 11 10  1  0
 12  7  1  0
 12 11  2  0
 13  1  1  0
 13 14  2  0
 15 20  2  0
 16 15  1  0
 17 16  2  0
 17 18  1  0
 18 19  2  0
 19 20  1  0
 19 13  1  0
  2 21  1  0
  3 22  1  0
  9 23  1  0
 10 24  1  0
 11 25  1  0
 12 26  1  0
 15 27  1  0
 16 28  1  0
 17 29  1  0
M  ISO  8  21  14  22  14  23  14  24  14  25  14  26  14  27  14  28  14
M  ISO  1  29  14
M  END
>  <minimizedAffinity>  (1) 
-6.24560308

>  <minimizedRMSD>  (1) 
2.21011329

$$$$
