
     RDKit          3D

 37 40  0  0  0  0  0  0  0  0999 V2000
   38.8230   31.1150   45.6620 C   0  0  0  0  0  0  0  0  0  0  0  0
   39.8700   31.9860   45.7840 C   0  0  0  0  0  0  0  0  0  0  0  0
   40.7060   31.9180   44.6870 C   0  0  0  0  0  0  0  0  0  0  0  0
   40.1310   30.9840   43.9110 N   0  0  0  0  0  0  0  0  0  0  0  0
   39.0310   30.5090   44.4730 N   0  0  0  0  0  0  0  0  0  0  0  0
   37.7230   30.8750   46.5920 C   0  0  0  0  0  0  0  0  0  0  0  0
   37.9780   31.1290   47.9720 C   0  0  0  0  0  0  0  0  0  0  0  0
   36.9270   30.8970   48.8600 C   0  0  0  0  0  0  0  0  0  0  0  0
   35.7400   30.4500   48.3650 N   0  0  0  0  0  0  0  0  0  0  0  0
   35.5390   30.2230   47.0520 C   0  0  0  0  0  0  0  0  0  0  0  0
   36.5400   30.4390   46.1790 N   0  0  0  0  0  0  0  0  0  0  0  0
   37.1650   31.1550   50.3120 C   0  0  0  0  0  0  0  0  0  0  0  0
   36.6530   32.3890   50.5610 F   0  0  0  0  0  0  0  0  0  0  0  0
   36.5200   30.2270   51.1210 F   0  0  0  0  0  0  0  0  0  0  0  0
   38.5260   31.1370   50.6240 F   0  0  0  0  0  0  0  0  0  0  0  0
   40.5620   30.4770   42.6090 C   0  0  0  0  0  0  0  0  0  0  0  0
   40.2710   31.1520   41.4180 C   0  0  0  0  0  0  0  0  0  0  0  0
   40.6700   30.6710   40.2430 C   0  0  0  0  0  0  0  0  0  0  0  0
   41.4050   29.4500   40.2090 C   0  0  0  0  0  0  0  0  0  0  0  0
   41.4840   29.0320   42.0150 S   0  0  0  0  0  0  0  0  0  0  0  0
   43.7910   30.2290   38.8640 F   0  0  0  0  0  0  0  0  0  0  0  0
   43.1610   29.0580   38.6180 C   0  0  0  0  0  0  0  0  0  0  0  0
   42.0120   28.5940   39.2110 C   0  0  0  0  0  0  0  0  0  0  0  0
   41.3810   27.4220   38.9660 C   0  0  0  0  0  0  0  0  0  0  0  0
   41.9280   26.5760   38.0210 C   0  0  0  0  0  0  0  0  0  0  0  0
   43.0990   26.9700   37.3680 C   0  0  0  0  0  0  0  0  0  0  0  0
   43.7100   28.1960   37.6620 C   0  0  0  0  0  0  0  0  0  0  0  0
   40.0260   32.6539   46.6440 H   0  0  0  0  0  0  0  0  0  0  0  0
   41.6243   32.4920   44.4943 H   0  0  0  0  0  0  0  0  0  0  0  0
   38.9569   31.4907   48.3199 H   0  0  0  0  0  0  0  0  0  0  0  0
   34.5624   29.8632   46.6959 H   0  0  0  0  0  0  0  0  0  0  0  0
   39.7041   32.0940   41.4536 H   0  0  0  0  0  0  0  0  0  0  0  0
   40.4361   31.2077   39.3117 H   0  0  0  0  0  0  0  0  0  0  0  0
   40.4601   27.1513   39.5033 H   0  0  0  0  0  0  0  0  0  0  0  0
   41.4518   25.6123   37.7873 H   0  0  0  0  0  0  0  0  0  0  0  0
   43.5474   26.3081   36.6124 H   0  0  0  0  0  0  0  0  0  0  0  0
   44.6317   28.4843   37.1354 H   0  0  0  0  0  0  0  0  0  0  0  0
  1  2  1  0
  1  6  1  0
  3  2  2  0
  4  5  1  0
  4  3  1  0
  5  1  2  0
  6  7  2  0
  7  8  1  0
  8 12  1  0
  9  8  2  0
 10  9  1  0
 11  6  1  0
 11 10  2  0
 12 13  1  0
 12 15  1  0
 12 14  1  0
 16  4  1  0
 17 16  2  0
 18 17  1  0
 19 18  2  0
 19 20  1  0
 20 16  1  0
 22 21  1  0
 22 23  2  0
 23 19  1  0
 24 23  1  0
 25 24  2  0
 26 27  2  0
 26 25  1  0
 27 22  1  0
  2 28  1  0
  3 29  1  0
  7 30  1  0
 10 31  1  0
 17 32  1  0
 18 33  1  0
 24 34  1  0
 25 35  1  0
 26 36  1  0
 27 37  1  0
M  ISO  8  28  14  29  14  30  14  31  14  32  14  33  14  34  14  35  14
M  ISO  2  36  14  37  14
M  END
>  <minimizedAffinity>  (1) 
-6.496346

>  <minimizedRMSD>  (1) 
0.34588325

$$$$
