
     RDKit          3D

 36 38  0  0  0  0  0  0  0  0999 V2000
   38.2680   32.3110   47.2380 C   0  0  0  0  0  0  0  0  0  0  0  0
   37.9020   32.6610   48.5120 C   0  0  0  0  0  0  0  0  0  0  0  0
   38.6520   33.5790   49.2290 C   0  0  0  0  0  0  0  0  0  0  0  0
   39.7800   34.1480   48.6520 C   0  0  0  0  0  0  0  0  0  0  0  0
   40.1430   33.7880   47.3580 C   0  0  0  0  0  0  0  0  0  0  0  0
   39.3750   32.8710   46.6710 C   0  0  0  0  0  0  0  0  0  0  0  0
   40.9840   30.6470   46.1660 F   0  0  0  0  0  0  0  0  0  0  0  0
   40.4600   31.3010   45.0970 C   0  0  0  0  0  0  0  0  0  0  0  0
   39.6550   32.4120   45.3030 C   0  0  0  0  0  0  0  0  0  0  0  0
   39.1490   33.0380   44.1840 C   0  0  0  0  0  0  0  0  0  0  0  0
   39.3920   32.6340   42.9030 C   0  0  0  0  0  0  0  0  0  0  0  0
   40.2010   31.5200   42.7630 C   0  0  0  0  0  0  0  0  0  0  0  0
   40.7570   30.8220   43.8330 C   0  0  0  0  0  0  0  0  0  0  0  0
   36.7710   30.6000   46.0200 N   0  0  0  0  0  0  0  0  0  0  0  0
   37.4320   31.3550   46.5710 C   0  0  0  0  0  0  0  0  0  0  0  0
   36.8150   32.1820   49.2110 O   0  0  0  0  0  0  0  0  0  0  0  0
   36.8580   31.1570   50.1050 C   0  0  0  0  0  0  0  0  0  0  0  0
   35.6750   30.4190   50.1060 C   0  0  0  0  0  0  0  0  0  0  0  0
   35.5230   29.3370   50.9460 C   0  0  0  0  0  0  0  0  0  0  0  0
   36.5830   29.0290   51.7700 N   0  0  0  0  0  0  0  0  0  0  0  0
   37.7190   29.7540   51.7540 C   0  0  0  0  0  0  0  0  0  0  0  0
   37.8380   30.7830   50.9420 N   0  0  0  0  0  0  0  0  0  0  0  0
   34.1880   29.6580   48.3200 C   0  0  0  0  0  0  0  0  0  0  0  0
   34.7430   28.5860   47.8520 O   0  0  0  0  0  0  0  0  0  0  0  0
   34.5600   30.6360   49.2940 N   0  0  0  0  0  0  0  0  0  0  0  0
   38.3553   33.8562   50.2513 H   0  0  0  0  0  0  0  0  0  0  0  0
   40.3817   34.8776   49.2137 H   0  0  0  0  0  0  0  0  0  0  0  0
   41.0335   34.2302   46.8875 H   0  0  0  0  0  0  0  0  0  0  0  0
   38.5083   33.9197   44.3329 H   0  0  0  0  0  0  0  0  0  0  0  0
   38.9704   33.1618   42.0348 H   0  0  0  0  0  0  0  0  0  0  0  0
   40.4183   31.1640   41.7451 H   0  0  0  0  0  0  0  0  0  0  0  0
   41.3962   29.9397   43.6816 H   0  0  0  0  0  0  0  0  0  0  0  0
   34.5958   28.7453   50.9579 H   0  0  0  0  0  0  0  0  0  0  0  0
   38.5501   29.4846   52.4223 H   0  0  0  0  0  0  0  0  0  0  0  0
   33.2077   29.8627   47.8648 H   0  0  0  0  0  0  0  0  0  0  0  0
   34.0068   31.4988   49.3966 H   0  0  0  0  0  0  0  0  0  0  0  0
  1  2  2  0
  2 16  1  0
  2  3  1  0
  4  3  2  0
  5  4  1  0
  6  1  1  0
  6  5  2  0
  8  9  2  0
  8  7  1  0
  9  6  1  0
 10  9  1  0
 11 10  2  0
 12 11  1  0
 12 13  2  0
 13  8  1  0
 14 15  3  0
 15  1  1  0
 16 17  1  0
 17 18  2  0
 17 22  1  0
 18 19  1  0
 19 20  2  0
 21 20  1  0
 22 21  2  0
 23 25  1  0
 24 23  2  0
 25 18  1  0
  3 26  1  0
  4 27  1  0
  5 28  1  0
 10 29  1  0
 11 30  1  0
 12 31  1  0
 13 32  1  0
 19 33  1  0
 21 34  1  0
 23 35  1  0
 25 36  1  0
M  ISO  8  26  14  27  14  28  14  29  14  30  14  31  14  32  14  33  14
M  ISO  2  34  14  35   6
M  END
>  <minimizedAffinity>  (1) 
-6.1310811

>  <minimizedRMSD>  (1) 
1.24134338

$$$$
