
     RDKit          3D

 44 47  0  0  1  0  0  0  0  0999 V2000
   37.2340   31.1550   48.6040 N   0  0  0  0  0  0  0  0  0  0  0  0
   37.9550   31.1280   49.8710 C   0  0  0  0  0  0  0  0  0  0  0  0
   39.0280   32.1560   49.9730 C   0  0  0  0  0  0  0  0  0  0  0  0
   38.6670   33.4150   49.1820 C   0  0  0  0  0  0  0  0  0  0  0  0
   38.6530   32.9540   47.7550 C   0  0  0  0  0  0  0  0  0  0  0  0
   37.5270   31.9960   47.4910 C   0  0  1  0  0  0  0  0  0  0  0  0
   40.1080   30.9380   46.8400 F   0  0  0  0  0  0  0  0  0  0  0  0
   39.0840   30.7300   45.9840 C   0  0  0  0  0  0  0  0  0  0  0  0
   37.8300   31.2100   46.2480 C   0  0  0  0  0  0  0  0  0  0  0  0
   36.8740   30.9160   45.2670 C   0  0  0  0  0  0  0  0  0  0  0  0
   37.1810   30.2010   44.1320 C   0  0  0  0  0  0  0  0  0  0  0  0
   38.4560   29.7450   43.9200 C   0  0  0  0  0  0  0  0  0  0  0  0
   39.4300   30.0120   44.8600 C   0  0  0  0  0  0  0  0  0  0  0  0
   36.1540   29.0310   49.1750 C   0  0  0  0  0  0  0  0  0  0  0  0
   36.1430   30.2470   48.5060 C   0  0  0  0  0  0  0  0  0  0  0  0
   35.0270   30.5320   47.7410 C   0  0  0  0  0  0  0  0  0  0  0  0
   34.0110   29.6270   47.6800 N   0  0  0  0  0  0  0  0  0  0  0  0
   34.0510   28.4630   48.3370 C   0  0  0  0  0  0  0  0  0  0  0  0
   35.1290   28.1770   49.0800 N   0  0  0  0  0  0  0  0  0  0  0  0
   32.9530   27.5200   48.2510 C   0  0  0  0  0  0  0  0  0  0  0  0
   33.1210   26.3140   47.6000 C   0  0  0  0  0  0  0  0  0  0  0  0
   32.1060   25.3900   47.4960 C   0  0  0  0  0  0  0  0  0  0  0  0
   30.9260   25.7440   48.0750 C   0  0  0  0  0  0  0  0  0  0  0  0
   30.7110   26.9530   48.7430 C   0  0  0  0  0  0  0  0  0  0  0  0
   31.7630   27.8410   48.8190 N   0  0  0  0  0  0  0  0  0  0  0  0
   37.2339   31.2972   50.6843 H   0  0  0  0  0  0  0  0  0  0  0  0
   38.4445   30.1454   49.9407 H   0  0  0  0  0  0  0  0  0  0  0  0
   39.1677   32.4247   51.0305 H   0  0  0  0  0  0  0  0  0  0  0  0
   39.9537   31.7352   49.5534 H   0  0  0  0  0  0  0  0  0  0  0  0
   37.6785   33.7944   49.4803 H   0  0  0  0  0  0  0  0  0  0  0  0
   39.3734   34.2405   49.3538 H   0  0  0  0  0  0  0  0  0  0  0  0
   38.5374   33.8293   47.0989 H   0  0  0  0  0  0  0  0  0  0  0  0
   39.6006   32.4327   47.5541 H   0  0  0  0  0  0  0  0  0  0  0  0
   36.6091   32.5811   47.3325 H   0  0  0  0  0  0  0  0  0  0  0  0
   35.8419   31.2690   45.4090 H   0  0  0  0  0  0  0  0  0  0  0  0
   36.3968   29.9938   43.3889 H   0  0  0  0  0  0  0  0  0  0  0  0
   38.6996   29.1736   43.0122 H   0  0  0  0  0  0  0  0  0  0  0  0
   40.4617   29.6589   44.7151 H   0  0  0  0  0  0  0  0  0  0  0  0
   37.0224   28.7645   49.7953 H   0  0  0  0  0  0  0  0  0  0  0  0
   34.9604   31.4801   47.1872 H   0  0  0  0  0  0  0  0  0  0  0  0
   34.0979   26.0841   47.1497 H   0  0  0  0  0  0  0  0  0  0  0  0
   32.2397   24.4284   46.9788 H   0  0  0  0  0  0  0  0  0  0  0  0
   30.0884   25.0336   48.0133 H   0  0  0  0  0  0  0  0  0  0  0  0
   29.7351   27.1880   49.1930 H   0  0  0  0  0  0  0  0  0  0  0  0
  1  2  1  0
  2  3  1  0
  4  3  1  0
  5  4  1  0
  6  5  1  0
  6  1  1  0
  8  9  2  0
  8  7  1  0
  9  6  1  0
 10  9  1  0
 11 10  2  0
 12 11  1  0
 12 13  2  0
 13  8  1  0
 15  1  1  0
 15 14  2  0
 16 15  1  0
 17 16  2  0
 17 18  1  0
 18 19  2  0
 19 14  1  0
 20 18  1  0
 20 25  1  0
 21 20  2  0
 22 21  1  0
 22 23  2  0
 23 24  1  0
 24 25  2  0
  2 26  1  0
  2 27  1  0
  3 28  1  0
  3 29  1  0
  4 30  1  0
  4 31  1  0
  5 32  1  0
  5 33  1  0
  6 34  1  6
 10 35  1  0
 11 36  1  0
 12 37  1  0
 13 38  1  0
 14 39  1  0
 16 40  1  0
 21 41  1  0
 22 42  1  0
 23 43  1  0
 24 44  1  0
M  ISO  8  26  13  27  13  28  13  29  13  30  13  31  13  32  13  33  13
M  ISO  8  34  13  35  14  36  14  37  14  38  14  39  14  40  14  41  14
M  ISO  3  42  14  43  14  44  14
M  END
>  <minimizedAffinity>  (1) 
-5.85345507

>  <minimizedRMSD>  (1) 
1.24112546

$$$$
