
     RDKit          3D

 30 32  0  0  0  0  0  0  0  0999 V2000
   38.0111   33.1010   49.4813 C   0  0  0  0  0  0  0  0  0  0  0  0
   38.9714   33.2080   48.4662 C   0  0  0  0  0  0  0  0  0  0  0  0
   38.9433   32.2241   47.4640 C   0  0  0  0  0  0  0  0  0  0  0  0
   38.0110   31.2535   47.5374 N   0  0  0  0  0  0  0  0  0  0  0  0
   37.1045   31.1738   48.5181 C   0  0  0  0  0  0  0  0  0  0  0  0
   37.1140   32.1089   49.4911 N   0  0  0  0  0  0  0  0  0  0  0  0
   36.0990   30.1331   48.6014 C   0  0  0  0  0  0  0  0  0  0  0  0
   35.2855   29.9561   47.4943 C   0  0  0  0  0  0  0  0  0  0  0  0
   34.2996   28.9809   47.5033 C   0  0  0  0  0  0  0  0  0  0  0  0
   34.1529   28.1961   48.6402 C   0  0  0  0  0  0  0  0  0  0  0  0
   34.9556   28.3623   49.7469 C   0  0  0  0  0  0  0  0  0  0  0  0
   35.9372   29.3381   49.7297 C   0  0  0  0  0  0  0  0  0  0  0  0
   37.9563   33.8102   50.2921 H   0  0  0  0  0  0  0  0  0  0  0  0
   39.6454   34.0240   48.5345 H   0  0  0  0  0  0  0  0  0  0  0  0
   39.6862   32.3140   46.6845 H   0  0  0  0  0  0  0  0  0  0  0  0
   35.4194   30.5725   46.6343 H   0  0  0  0  0  0  0  0  0  0  0  0
   33.6780   28.8553   46.6408 H   0  0  0  0  0  0  0  0  0  0  0  0
   33.3936   27.4218   48.6885 H   0  0  0  0  0  0  0  0  0  0  0  0
   34.8709   27.7710   50.6475 H   0  0  0  0  0  0  0  0  0  0  0  0
   37.0327   31.8712   50.1338 F   0  0  0  0  0  0  0  0  0  0  0  0
   37.2884   30.8378   50.9882 C   0  0  0  0  0  0  0  0  0  0  0  0
   36.8010   29.5305   50.8927 C   0  0  0  0  0  0  0  0  0  0  0  0
   37.1845   28.6196   51.8750 C   0  0  0  0  0  0  0  0  0  0  0  0
   36.7614   27.6533   51.7129 H   0  0  0  0  0  0  0  0  0  0  0  0
   38.0062   29.0182   52.8807 C   0  0  0  0  0  0  0  0  0  0  0  0
   38.2430   28.2379   53.5895 H   0  0  0  0  0  0  0  0  0  0  0  0
   38.4948   30.3044   52.9878 C   0  0  0  0  0  0  0  0  0  0  0  0
   38.1221   31.2256   52.0161 C   0  0  0  0  0  0  0  0  0  0  0  0
   39.1427   30.5407   53.8191 H   0  0  0  0  0  0  0  0  0  0  0  0
   38.5372   32.2027   52.1625 H   0  0  0  0  0  0  0  0  0  0  0  0
  1  6  2  0
  2  1  1  0
  3  4  1  0
  3  2  2  0
  4  5  2  0
  5  7  1  0
  5  6  1  0
  7 12  1  0
  8  7  2  0
  9  8  1  0
  9 10  2  0
 10 11  1  0
 12 11  2  0
  1 13  1  0
  2 14  1  0
  3 15  1  0
  8 16  1  0
  9 17  1  0
 10 18  1  0
 11 19  1  0
 20 21  1  0
 21 22  2  0
 22 23  1  0
 23 24  1  0
 23 25  2  0
 25 26  1  0
 25 27  1  0
 27 28  2  0
 28 21  1  0
 27 29  1  0
 28 30  1  0
 12 22  1  0
M  ISO  8  13  14  14  14  15  14  16  14  17  14  18  14  19  14  24  15
M  ISO  1  26  16
M  END
>  <DihAtoms>  (1) 
6,11,21,20

>  <DihDeg>  (1) 
-63.104177264263086

$$$$
