
     RDKit          3D

 37 40  0  0  0  0  0  0  0  0999 V2000
   36.9040   30.8190   47.6480 C   0  0  0  0  0  0  0  0  0  0  0  0
   37.8940   31.7010   47.7890 C   0  0  0  0  0  0  0  0  0  0  0  0
   38.4080   32.3250   46.7130 C   0  0  0  0  0  0  0  0  0  0  0  0
   37.8620   32.0070   45.4850 C   0  0  0  0  0  0  0  0  0  0  0  0
   36.5770   30.7720   45.9160 S   0  0  0  0  0  0  0  0  0  0  0  0
   40.7820   32.5640   44.8360 Cl  0  0  0  0  0  0  0  0  0  0  0  0
   39.4160   32.7160   43.7730 C   0  0  0  0  0  0  0  0  0  0  0  0
   38.1320   32.4480   44.1400 C   0  0  0  0  0  0  0  0  0  0  0  0
   37.0320   32.5550   43.3420 C   0  0  0  0  0  0  0  0  0  0  0  0
   37.2030   32.9760   42.0200 C   0  0  0  0  0  0  0  0  0  0  0  0
   38.4640   33.2620   41.5800 C   0  0  0  0  0  0  0  0  0  0  0  0
   38.7860   33.7960   39.9420 Cl  0  0  0  0  0  0  0  0  0  0  0  0
   39.5450   33.1320   42.4440 C   0  0  0  0  0  0  0  0  0  0  0  0
   35.7040   29.2740   50.8620 C   0  0  0  0  0  0  0  0  0  0  0  0
   36.4620   30.0930   49.9950 C   0  0  0  0  0  0  0  0  0  0  0  0
   36.1680   30.0050   48.6190 C   0  0  0  0  0  0  0  0  0  0  0  0
   35.2100   29.1730   48.2020 N   0  0  0  0  0  0  0  0  0  0  0  0
   34.5130   28.4110   49.0630 C   0  0  0  0  0  0  0  0  0  0  0  0
   34.7600   28.4630   50.3840 N   0  0  0  0  0  0  0  0  0  0  0  0
   31.8250   28.6110   49.8470 F   0  0  0  0  0  0  0  0  0  0  0  0
   32.1700   27.6550   48.9440 C   0  0  0  0  0  0  0  0  0  0  0  0
   33.4830   27.5280   48.5350 C   0  0  0  0  0  0  0  0  0  0  0  0
   33.8370   26.5610   47.6220 C   0  0  0  0  0  0  0  0  0  0  0  0
   32.8360   25.7420   47.1440 C   0  0  0  0  0  0  0  0  0  0  0  0
   31.5160   25.8450   47.5330 C   0  0  0  0  0  0  0  0  0  0  0  0
   31.1860   26.8220   48.4500 C   0  0  0  0  0  0  0  0  0  0  0  0
   38.2929   31.9199   48.7905 H   0  0  0  0  0  0  0  0  0  0  0  0
   39.2256   33.0549   46.8074 H   0  0  0  0  0  0  0  0  0  0  0  0
   36.0311   32.3152   43.7301 H   0  0  0  0  0  0  0  0  0  0  0  0
   36.3386   33.0750   41.3470 H   0  0  0  0  0  0  0  0  0  0  0  0
   40.5501   33.3676   42.0643 H   0  0  0  0  0  0  0  0  0  0  0  0
   35.8953   29.3060   51.9448 H   0  0  0  0  0  0  0  0  0  0  0  0
   37.2438   30.7668   50.3755 H   0  0  0  0  0  0  0  0  0  0  0  0
   34.8783   26.4459   47.2865 H   0  0  0  0  0  0  0  0  0  0  0  0
   33.1041   24.9647   46.4133 H   0  0  0  0  0  0  0  0  0  0  0  0
   30.7503   25.1690   47.1246 H   0  0  0  0  0  0  0  0  0  0  0  0
   30.1447   26.9365   48.7855 H   0  0  0  0  0  0  0  0  0  0  0  0
  1  2  2  0
  1 16  1  0
  3  2  1  0
  4  5  1  0
  4  3  2  0
  5  1  1  0
  7  8  2  0
  7  6  1  0
  8  4  1  0
  9  8  1  0
 10  9  2  0
 11 10  1  0
 11 13  2  0
 12 11  1  0
 13  7  1  0
 15 14  2  0
 16 15  1  0
 17 16  2  0
 17 18  1  0
 18 19  2  0
 19 14  1  0
 21 20  1  0
 22 21  2  0
 22 18  1  0
 23 22  1  0
 24 25  1  0
 24 23  2  0
 25 26  2  0
 26 21  1  0
  2 27  1  0
  3 28  1  0
  9 29  1  0
 10 30  1  0
 13 31  1  0
 14 32  1  0
 15 33  1  0
 23 34  1  0
 24 35  1  0
 25 36  1  0
 26 37  1  0
M  ISO  8  27  14  28  14  29  14  30  14  31  14  32  14  33  14  34  14
M  ISO  3  35  14  36  14  37  14
M  END
>  <minimizedAffinity>  (1) 
-6.30426836

>  <minimizedRMSD>  (1) 
1.70036495

$$$$
