
     RDKit          3D

 32 34  0  0  0  0  0  0  0  0999 V2000
   34.0800   28.0790   48.7120 C   0  0  0  0  0  0  0  0  0  0  0  0
   32.6700   27.6440   48.4240 C   0  0  0  0  0  0  0  0  0  0  0  0
   32.4170   26.9040   47.2050 C   0  0  0  0  0  0  0  0  0  0  0  0
   30.6580   26.6450   47.3410 S   0  0  0  0  0  0  0  0  0  0  0  0
   30.5240   27.5450   48.9750 C   0  0  0  0  0  0  0  0  0  0  0  0
   31.6470   27.8860   49.1950 N   0  0  0  0  0  0  0  0  0  0  0  0
   28.7890   29.4760   48.1850 F   0  0  0  0  0  0  0  0  0  0  0  0
   28.4090   28.7370   49.2520 C   0  0  0  0  0  0  0  0  0  0  0  0
   29.2110   27.7290   49.7410 C   0  0  0  0  0  0  0  0  0  0  0  0
   28.9890   26.8910   50.7990 C   0  0  0  0  0  0  0  0  0  0  0  0
   27.7860   27.1240   51.4320 C   0  0  0  0  0  0  0  0  0  0  0  0
   26.9000   28.1010   51.0380 C   0  0  0  0  0  0  0  0  0  0  0  0
   27.2350   28.8790   49.9610 C   0  0  0  0  0  0  0  0  0  0  0  0
   34.1910   28.8380   49.9840 C   0  0  0  0  0  0  0  0  0  0  0  0
   37.3800   30.1130   51.4010 C   0  0  0  0  0  0  0  0  0  0  0  0
   38.0820   30.5210   50.2480 C   0  0  0  0  0  0  0  0  0  0  0  0
   37.4480   30.3490   49.0110 C   0  0  0  0  0  0  0  0  0  0  0  0
   36.2030   29.8050   48.9970 N   0  0  0  0  0  0  0  0  0  0  0  0
   35.5780   29.4340   50.1270 C   0  0  0  0  0  0  0  0  0  0  0  0
   36.1560   29.5850   51.3070 N   0  0  0  0  0  0  0  0  0  0  0  0
   34.4274   28.7190   47.8875 H   0  0  0  0  0  0  0  0  0  0  0  0
   34.6970   27.1733   48.8075 H   0  0  0  0  0  0  0  0  0  0  0  0
   33.1153   26.5894   46.4154 H   0  0  0  0  0  0  0  0  0  0  0  0
   29.6978   26.1106   51.1130 H   0  0  0  0  0  0  0  0  0  0  0  0
   27.5210   26.4969   52.2960 H   0  0  0  0  0  0  0  0  0  0  0  0
   25.9505   28.2528   51.5723 H   0  0  0  0  0  0  0  0  0  0  0  0
   26.5282   29.6602   49.6445 H   0  0  0  0  0  0  0  0  0  0  0  0
   33.4467   29.6479   49.9885 H   0  0  0  0  0  0  0  0  0  0  0  0
   34.0099   28.1521   50.8247 H   0  0  0  0  0  0  0  0  0  0  0  0
   37.8459   30.2309   52.3905 H   0  0  0  0  0  0  0  0  0  0  0  0
   39.0892   30.9577   50.3175 H   0  0  0  0  0  0  0  0  0  0  0  0
   37.9448   30.6464   48.0757 H   0  0  0  0  0  0  0  0  0  0  0  0
  1 14  1  0
  2  1  1  0
  2  6  1  0
  3  4  1  0
  3  2  2  0
  4  5  1  0
  5  6  2  0
  5  9  1  0
  7  8  1  0
  8  9  2  0
  8 13  1  0
  9 10  1  0
 10 11  2  0
 12 11  1  0
 13 12  2  0
 14 19  1  0
 16 15  2  0
 17 16  1  0
 18 17  2  0
 18 19  1  0
 19 20  2  0
 20 15  1  0
  1 21  1  0
  1 22  1  0
  3 23  1  0
 10 24  1  0
 11 25  1  0
 12 26  1  0
 13 27  1  0
 14 28  1  0
 14 29  1  0
 15 30  1  0
 16 31  1  0
 17 32  1  0
M  ISO  8  21   8  22   8  23  14  24  14  25  14  26  14  27  14  28   8
M  ISO  4  29   8  30  14  31  14  32  14
M  END
>  <minimizedAffinity>  (1) 
-6.37259293

>  <minimizedRMSD>  (1) 
2.92363453

$$$$
