
     RDKit          3D

 33 36  0  0  0  0  0  0  0  0999 V2000
   37.2840   29.7580   51.3600 C   0  0  0  0  0  0  0  0  0  0  0  0
   38.1090   30.7540   50.7990 C   0  0  0  0  0  0  0  0  0  0  0  0
   37.7730   31.2100   49.5150 C   0  0  0  0  0  0  0  0  0  0  0  0
   36.6940   30.6650   48.9200 N   0  0  0  0  0  0  0  0  0  0  0  0
   35.9250   29.7220   49.4690 C   0  0  0  0  0  0  0  0  0  0  0  0
   36.2080   29.2510   50.7010 N   0  0  0  0  0  0  0  0  0  0  0  0
   34.3630   27.8900   48.9610 C   0  0  0  0  0  0  0  0  0  0  0  0
   34.7860   29.2060   48.7350 C   0  0  0  0  0  0  0  0  0  0  0  0
   34.1260   30.0020   47.8260 C   0  0  0  0  0  0  0  0  0  0  0  0
   33.0390   29.5230   47.1220 C   0  0  0  0  0  0  0  0  0  0  0  0
   32.2290   30.0750   46.1940 N   0  0  0  0  0  0  0  0  0  0  0  0
   31.3460   29.0990   45.8820 C   0  0  0  0  0  0  0  0  0  0  0  0
   31.6000   27.9850   46.5900 N   0  0  0  0  0  0  0  0  0  0  0  0
   32.6610   28.2250   47.3780 C   0  0  0  0  0  0  0  0  0  0  0  0
   33.2720   27.3890   48.2630 C   0  0  0  0  0  0  0  0  0  0  0  0
   38.7900   30.8790   46.8840 F   0  0  0  0  0  0  0  0  0  0  0  0
   39.0150   31.9970   47.5750 C   0  0  0  0  0  0  0  0  0  0  0  0
   38.5540   32.2270   48.8530 C   0  0  0  0  0  0  0  0  0  0  0  0
   38.8960   33.4360   49.3800 C   0  0  0  0  0  0  0  0  0  0  0  0
   39.6390   34.4130   48.7610 C   0  0  0  0  0  0  0  0  0  0  0  0
   40.0910   34.1610   47.4810 C   0  0  0  0  0  0  0  0  0  0  0  0
   39.7750   32.9470   46.8890 C   0  0  0  0  0  0  0  0  0  0  0  0
   37.5187   29.3780   52.3652 H   0  0  0  0  0  0  0  0  0  0  0  0
   38.9767   31.1555   51.3430 H   0  0  0  0  0  0  0  0  0  0  0  0
   34.8924   27.2564   49.6878 H   0  0  0  0  0  0  0  0  0  0  0  0
   34.4693   31.0335   47.6583 H   0  0  0  0  0  0  0  0  0  0  0  0
   32.2735   31.0291   45.8085 H   0  0  0  0  0  0  0  0  0  0  0  0
   30.5319   29.2027   45.1495 H   0  0  0  0  0  0  0  0  0  0  0  0
   32.9160   26.3598   48.4183 H   0  0  0  0  0  0  0  0  0  0  0  0
   38.5434   33.6511   50.3995 H   0  0  0  0  0  0  0  0  0  0  0  0
   39.8656   35.3626   49.2679 H   0  0  0  0  0  0  0  0  0  0  0  0
   40.6903   34.9087   46.9409 H   0  0  0  0  0  0  0  0  0  0  0  0
   40.1264   32.7304   45.8694 H   0  0  0  0  0  0  0  0  0  0  0  0
  2  1  2  0
  3  2  1  0
  4  5  1  0
  4  3  2  0
  5  6  2  0
  6  1  1  0
  8  7  2  0
  8  5  1  0
  9  8  1  0
 10 14  1  0
 10  9  2  0
 11 10  1  0
 12 11  1  0
 12 13  2  0
 13 14  1  0
 14 15  2  0
 15  7  1  0
 16 17  1  0
 17 18  2  0
 18 19  1  0
 18  3  1  0
 20 19  2  0
 21 20  1  0
 22 21  2  0
 22 17  1  0
  1 23  1  0
  2 24  1  0
  7 25  1  0
  9 26  1  0
 11 27  1  0
 12 28  1  0
 15 29  1  0
 19 30  1  0
 20 31  1  0
 21 32  1  0
 22 33  1  0
M  ISO  8  23  14  24  14  25  14  26  14  27   9  28  14  29  14  30  14
M  ISO  3  31  14  32  14  33  14
M  END
>  <minimizedAffinity>  (1) 
-7.10288382

>  <minimizedRMSD>  (1) 
0.788266838

$$$$
