
     RDKit          3D

 34 36  0  0  1  0  0  0  0  0999 V2000
   37.0360   30.8970   49.9030 C   0  0  0  0  0  0  0  0  0  0  0  0
   37.8200   32.0680   49.8930 C   0  0  0  0  0  0  0  0  0  0  0  0
   38.0970   32.6390   48.6470 C   0  0  0  0  0  0  0  0  0  0  0  0
   37.5820   32.0100   47.5660 N   0  0  0  0  0  0  0  0  0  0  0  0
   36.8410   30.9030   47.5910 C   0  0  0  0  0  0  0  0  0  0  0  0
   36.5720   30.3490   48.7790 N   0  0  0  0  0  0  0  0  0  0  0  0
   36.3750   30.3530   46.3990 N   0  0  0  0  0  0  0  0  0  0  0  0
   35.1180   29.5860   46.3540 C   0  0  0  0  0  0  0  0  0  0  0  0
   34.2040   30.1410   45.3430 C   0  0  0  0  0  0  0  0  0  0  0  0
   34.7690   31.0070   44.3860 N   0  0  0  0  0  0  0  0  0  0  0  0
   36.1330   30.9360   44.0820 C   0  0  0  0  0  0  0  0  0  0  0  0
   37.0600   30.4630   45.1490 C   0  0  1  0  0  0  0  0  0  0  0  0
   37.4880   33.0740   44.2380 F   0  0  0  0  0  0  0  0  0  0  0  0
   38.5970   32.4010   44.6860 C   0  0  0  0  0  0  0  0  0  0  0  0
   38.3700   31.0890   45.1180 C   0  0  0  0  0  0  0  0  0  0  0  0
   39.5690   30.5090   45.5500 C   0  0  0  0  0  0  0  0  0  0  0  0
   40.8080   31.1070   45.5640 C   0  0  0  0  0  0  0  0  0  0  0  0
   40.8890   32.3990   45.1130 C   0  0  0  0  0  0  0  0  0  0  0  0
   39.7880   33.0920   44.6580 C   0  0  0  0  0  0  0  0  0  0  0  0
   36.7998   30.4209   50.8661 H   0  0  0  0  0  0  0  0  0  0  0  0
   38.1977   32.5136   50.8251 H   0  0  0  0  0  0  0  0  0  0  0  0
   38.7024   33.5524   48.5509 H   0  0  0  0  0  0  0  0  0  0  0  0
   35.3429   28.5393   46.1012 H   0  0  0  0  0  0  0  0  0  0  0  0
   34.6326   29.6458   47.3393 H   0  0  0  0  0  0  0  0  0  0  0  0
   33.7524   29.2961   44.8024 H   0  0  0  0  0  0  0  0  0  0  0  0
   33.4907   30.7598   45.9071 H   0  0  0  0  0  0  0  0  0  0  0  0
   34.2613   30.8445   43.5047 H   0  0  0  0  0  0  0  0  0  0  0  0
   36.2431   30.2540   43.2260 H   0  0  0  0  0  0  0  0  0  0  0  0
   36.4304   31.9792   43.8997 H   0  0  0  0  0  0  0  0  0  0  0  0
   37.3668   29.4280   44.9376 H   0  0  0  0  0  0  0  0  0  0  0  0
   39.5150   29.4725   45.9143 H   0  0  0  0  0  0  0  0  0  0  0  0
   41.6983   30.5697   45.9228 H   0  0  0  0  0  0  0  0  0  0  0  0
   41.8679   32.9007   45.1143 H   0  0  0  0  0  0  0  0  0  0  0  0
   39.8560   34.1286   44.2963 H   0  0  0  0  0  0  0  0  0  0  0  0
  2  1  2  0
  3  2  1  0
  4  5  1  0
  4  3  2  0
  5  6  2  0
  6  1  1  0
  7  5  1  0
  8  7  1  0
  9  8  1  0
 10  9  1  0
 11 10  1  0
 11 12  1  0
 12  7  1  0
 13 14  1  0
 14 15  2  0
 15 12  1  0
 15 16  1  0
 16 17  2  0
 18 17  1  0
 19 14  1  0
 19 18  2  0
  1 20  1  0
  2 21  1  0
  3 22  1  0
  8 23  1  0
  8 24  1  0
  9 25  1  0
  9 26  1  0
 10 27  1  0
 11 28  1  0
 11 29  1  0
 12 30  1  6
 16 31  1  0
 17 32  1  0
 18 33  1  0
 19 34  1  0
M  ISO  8  20  14  21  14  22  14  23  13  24  13  25  13  26  13  27   5
M  ISO  7  28  13  29  13  30  13  31  14  32  14  33  14  34  14
M  END
>  <minimizedAffinity>  (1) 
-5.60411453

>  <minimizedRMSD>  (1) 
3.30801368

$$$$
