
     RDKit          3D

 38 40  0  0  1  0  0  0  0  0999 V2000
   35.8050   29.9350   48.7940 N   0  0  0  0  0  0  0  0  0  0  0  0
   35.2570   30.8800   49.6920 C   0  0  0  0  0  0  0  0  0  0  0  0
   36.3080   31.6990   50.3560 C   0  0  0  0  0  0  0  0  0  0  0  0
   37.3230   30.7100   50.9400 C   0  0  0  0  0  0  0  0  0  0  0  0
   38.0930   30.2180   49.7500 C   0  0  0  0  0  0  0  0  0  0  0  0
   37.2180   30.0250   48.5770 C   0  0  2  0  0  0  0  0  0  0  0  0
   39.1490   32.0110   48.6660 F   0  0  0  0  0  0  0  0  0  0  0  0
   38.5860   31.7990   47.4340 C   0  0  0  0  0  0  0  0  0  0  0  0
   37.5990   30.8030   47.3620 C   0  0  0  0  0  0  0  0  0  0  0  0
   37.0960   30.6680   46.0860 C   0  0  0  0  0  0  0  0  0  0  0  0
   37.5010   31.4080   45.0170 C   0  0  0  0  0  0  0  0  0  0  0  0
   38.4610   32.3560   45.1570 C   0  0  0  0  0  0  0  0  0  0  0  0
   39.0370   32.5790   46.3900 C   0  0  0  0  0  0  0  0  0  0  0  0
   35.3020   28.6070   48.9060 C   0  0  0  0  0  0  0  0  0  0  0  0
   33.9760   28.4890   48.2490 C   0  0  0  0  0  0  0  0  0  0  0  0
   33.8370   28.9940   46.9440 C   0  0  0  0  0  0  0  0  0  0  0  0
   32.5950   28.8880   46.3140 C   0  0  0  0  0  0  0  0  0  0  0  0
   31.5800   28.3000   46.9970 N   0  0  0  0  0  0  0  0  0  0  0  0
   31.7310   27.8250   48.2370 C   0  0  0  0  0  0  0  0  0  0  0  0
   32.9170   27.9170   48.8600 N   0  0  0  0  0  0  0  0  0  0  0  0
   34.5850   31.5496   49.1353 H   0  0  0  0  0  0  0  0  0  0  0  0
   34.7143   30.3282   50.4737 H   0  0  0  0  0  0  0  0  0  0  0  0
   36.7969   32.3574   49.6229 H   0  0  0  0  0  0  0  0  0  0  0  0
   35.8782   32.3391   51.1406 H   0  0  0  0  0  0  0  0  0  0  0  0
   37.9907   31.2140   51.6543 H   0  0  0  0  0  0  0  0  0  0  0  0
   36.8397   29.8917   51.4938 H   0  0  0  0  0  0  0  0  0  0  0  0
   38.8698   30.9550   49.4982 H   0  0  0  0  0  0  0  0  0  0  0  0
   38.5407   29.2469   50.0081 H   0  0  0  0  0  0  0  0  0  0  0  0
   37.4636   28.9787   48.3427 H   0  0  0  0  0  0  0  0  0  0  0  0
   36.3148   29.9116   45.9199 H   0  0  0  0  0  0  0  0  0  0  0  0
   37.0454   31.2354   44.0308 H   0  0  0  0  0  0  0  0  0  0  0  0
   38.7804   32.9474   44.2862 H   0  0  0  0  0  0  0  0  0  0  0  0
   39.8172   33.3410   46.5336 H   0  0  0  0  0  0  0  0  0  0  0  0
   36.0063   27.9127   48.4244 H   0  0  0  0  0  0  0  0  0  0  0  0
   35.1906   28.3606   49.9723 H   0  0  0  0  0  0  0  0  0  0  0  0
   34.6890   29.4629   46.4299 H   0  0  0  0  0  0  0  0  0  0  0  0
   32.4437   29.2701   45.2936 H   0  0  0  0  0  0  0  0  0  0  0  0
   30.8787   27.3559   48.7503 H   0  0  0  0  0  0  0  0  0  0  0  0
  1 14  1  0
  1  2  1  0
  2  3  1  0
  3  4  1  0
  5  4  1  0
  6  1  1  0
  6  5  1  0
  8  7  1  0
  9  8  2  0
  9  6  1  0
 10  9  1  0
 11 12  1  0
 11 10  2  0
 12 13  2  0
 13  8  1  0
 15 20  1  0
 15 14  1  0
 16 15  2  0
 17 16  1  0
 17 18  2  0
 18 19  1  0
 19 20  2  0
  2 21  1  0
  2 22  1  0
  3 23  1  0
  3 24  1  0
  4 25  1  0
  4 26  1  0
  5 27  1  0
  5 28  1  0
  6 29  1  6
 10 30  1  0
 11 31  1  0
 12 32  1  0
 13 33  1  0
 14 34  1  0
 14 35  1  0
 16 36  1  0
 17 37  1  0
 19 38  1  0
M  ISO  8  21  13  22  13  23  13  24  13  25  13  26  13  27  13  28  13
M  ISO  8  29  13  30  14  31  14  32  14  33  14  34   8  35   8  36  14
M  ISO  2  37  14  38  14
M  END
>  <minimizedAffinity>  (1) 
-5.76078749

>  <minimizedRMSD>  (1) 
1.47717249

$$$$
