
     RDKit          3D

 42 45  0  0  0  0  0  0  0  0999 V2000
   38.3430   32.2380   47.4180 C   0  0  0  0  0  0  0  0  0  0  0  0
   38.1510   32.1060   48.7890 C   0  0  0  0  0  0  0  0  0  0  0  0
   38.8470   33.0320   49.5530 C   0  0  0  0  0  0  0  0  0  0  0  0
   39.6620   34.0020   48.9680 C   0  0  0  0  0  0  0  0  0  0  0  0
   39.7990   34.0660   47.5950 C   0  0  0  0  0  0  0  0  0  0  0  0
   39.1270   33.1660   46.8070 C   0  0  0  0  0  0  0  0  0  0  0  0
   35.9230   31.2200   49.3220 C   0  0  0  0  0  0  0  0  0  0  0  0
   37.3170   31.1140   49.3740 C   0  0  0  0  0  0  0  0  0  0  0  0
   37.8680   29.9850   50.0270 C   0  0  0  0  0  0  0  0  0  0  0  0
   36.9940   29.0760   50.5630 N   0  0  0  0  0  0  0  0  0  0  0  0
   35.6580   29.2250   50.4860 C   0  0  0  0  0  0  0  0  0  0  0  0
   35.1230   30.2890   49.8700 N   0  0  0  0  0  0  0  0  0  0  0  0
   37.6770   31.3410   46.5550 O   0  0  0  0  0  0  0  0  0  0  0  0
   39.2730   33.2400   45.4190 O   0  0  0  0  0  0  0  0  0  0  0  0
   37.0220   32.5680   43.5260 Cl  0  0  0  0  0  0  0  0  0  0  0  0
   38.5160   31.6810   43.6360 C   0  0  0  0  0  0  0  0  0  0  0  0
   39.4280   32.1690   44.5890 C   0  0  0  0  0  0  0  0  0  0  0  0
   40.6190   31.4920   44.7020 C   0  0  0  0  0  0  0  0  0  0  0  0
   40.9500   30.3880   43.9460 C   0  0  0  0  0  0  0  0  0  0  0  0
   40.0520   29.9160   43.0160 C   0  0  0  0  0  0  0  0  0  0  0  0
   38.8530   30.5700   42.8790 C   0  0  0  0  0  0  0  0  0  0  0  0
   36.7190   28.8590   43.4660 F   0  0  0  0  0  0  0  0  0  0  0  0
   36.7560   29.3300   42.1960 C   0  0  0  0  0  0  0  0  0  0  0  0
   37.8180   30.1710   41.9310 C   0  0  0  0  0  0  0  0  0  0  0  0
   37.9700   30.7160   40.6720 C   0  0  0  0  0  0  0  0  0  0  0  0
   37.0680   30.4310   39.6680 C   0  0  0  0  0  0  0  0  0  0  0  0
   36.0120   29.5890   39.9430 C   0  0  0  0  0  0  0  0  0  0  0  0
   35.8320   29.0200   41.2090 C   0  0  0  0  0  0  0  0  0  0  0  0
   38.7538   33.0006   50.6486 H   0  0  0  0  0  0  0  0  0  0  0  0
   40.1990   34.7206   49.6046 H   0  0  0  0  0  0  0  0  0  0  0  0
   40.4417   34.8323   47.1371 H   0  0  0  0  0  0  0  0  0  0  0  0
   35.4699   32.0875   48.8198 H   0  0  0  0  0  0  0  0  0  0  0  0
   38.9563   29.8430   50.1012 H   0  0  0  0  0  0  0  0  0  0  0  0
   34.9989   28.4662   50.9329 H   0  0  0  0  0  0  0  0  0  0  0  0
   37.7978   31.4149   45.5752 H   0  0  0  0  0  0  0  0  0  0  0  0
   41.3513   31.8526   45.4394 H   0  0  0  0  0  0  0  0  0  0  0  0
   41.9209   29.8898   44.0844 H   0  0  0  0  0  0  0  0  0  0  0  0
   40.2890   29.0372   42.3983 H   0  0  0  0  0  0  0  0  0  0  0  0
   38.8192   31.3845   40.4672 H   0  0  0  0  0  0  0  0  0  0  0  0
   37.1893   30.8679   38.6658 H   0  0  0  0  0  0  0  0  0  0  0  0
   35.2907   29.3578   39.1454 H   0  0  0  0  0  0  0  0  0  0  0  0
   34.9852   28.3487   41.4146 H   0  0  0  0  0  0  0  0  0  0  0  0
  1  2  2  0
  2  8  1  0
  2  3  1  0
  4  3  2  0
  5  4  1  0
  6  1  1  0
  6  5  2  0
  7  8  2  0
  7 12  1  0
  8  9  1  0
  9 10  2  0
 11 10  1  0
 12 11  2  0
 13  1  1  0
 14  6  1  0
 15 16  1  0
 16 17  2  0
 17 18  1  0
 17 14  1  0
 19 18  2  0
 20 19  1  0
 21 20  2  0
 21 16  1  0
 23 22  1  0
 24 23  2  0
 24 21  1  0
 25 24  1  0
 26 27  1  0
 26 25  2  0
 27 28  2  0
 28 23  1  0
  3 29  1  0
  4 30  1  0
  5 31  1  0
  7 32  1  0
  9 33  1  0
 11 34  1  0
 13 35  1  0
 18 36  1  0
 19 37  1  0
 20 38  1  0
 25 39  1  0
 26 40  1  0
 27 41  1  0
 28 42  1  0
M  ISO  8  29  14  30  14  31  14  32  14  33  14  34  14  35   3  36  14
M  ISO  6  37  14  38  14  39  14  40  14  41  14  42  14
M  END
>  <minimizedAffinity>  (1) 
-5.56496

>  <minimizedRMSD>  (1) 
0.135983959

$$$$
