
     RDKit          3D

 36 38  0  0  0  0  0  0  0  0999 V2000
   34.7581   29.4335   48.7959 C   0  0  0  0  0  0  0  0  0  0  0  0
   34.2256   30.0575   47.6533 C   0  0  0  0  0  0  0  0  0  0  0  0
   33.4882   29.2411   46.7732 C   0  0  0  0  0  0  0  0  0  0  0  0
   33.3297   27.9174   47.0644 N   0  0  0  0  0  0  0  0  0  0  0  0
   33.8645   27.3498   48.1881 C   0  0  0  0  0  0  0  0  0  0  0  0
   34.5621   28.1338   49.0153 N   0  0  0  0  0  0  0  0  0  0  0  0
   35.5267   30.2773   49.7331 C   0  0  2  0  0  0  0  0  0  0  0  0
   36.4784   31.1757   48.9671 C   0  0  0  0  0  0  0  0  0  0  0  0
   37.9195   30.8050   49.1680 C   0  0  0  0  0  0  0  0  0  0  0  0
   38.3223   30.7792   50.6159 C   0  0  0  0  0  0  0  0  0  0  0  0
   37.2705   30.1571   51.5138 C   0  0  0  0  0  0  0  0  0  0  0  0
   36.2393   29.4015   50.7029 C   0  0  1  0  0  0  0  0  0  0  0  0
   34.3264   31.0822   47.3933 H   0  0  0  0  0  0  0  0  0  0  0  0
   33.0454   29.6530   45.8673 H   0  0  0  0  0  0  0  0  0  0  0  0
   33.6619   26.2933   48.2948 H   0  0  0  0  0  0  0  0  0  0  0  0
   34.7822   30.9756   50.2057 H   0  0  0  0  0  0  0  0  0  0  0  0
   36.3835   32.2342   49.2840 H   0  0  0  0  0  0  0  0  0  0  0  0
   36.3005   31.1779   47.8776 H   0  0  0  0  0  0  0  0  0  0  0  0
   38.0735   29.7589   48.7815 H   0  0  0  0  0  0  0  0  0  0  0  0
   38.5609   31.5085   48.6473 H   0  0  0  0  0  0  0  0  0  0  0  0
   38.4569   31.8374   50.9314 H   0  0  0  0  0  0  0  0  0  0  0  0
   39.3049   30.2503   50.6724 H   0  0  0  0  0  0  0  0  0  0  0  0
   36.8384   30.8752   52.2192 H   0  0  0  0  0  0  0  0  0  0  0  0
   37.8020   29.3974   52.1351 H   0  0  0  0  0  0  0  0  0  0  0  0
   36.8661   28.7032   50.0585 H   0  0  0  0  0  0  0  0  0  0  0  0
   37.1479   26.7835   51.2714 F   0  0  0  0  0  0  0  0  0  0  0  0
   35.9556   27.2848   51.7378 C   0  0  0  0  0  0  0  0  0  0  0  0
   35.4120   28.5516   51.5343 C   0  0  0  0  0  0  0  0  0  0  0  0
   34.1891   28.7749   52.1293 C   0  0  0  0  0  0  0  0  0  0  0  0
   33.7606   29.7481   51.9579 H   0  0  0  0  0  0  0  0  0  0  0  0
   33.5044   27.8564   52.8819 C   0  0  0  0  0  0  0  0  0  0  0  0
   32.5613   28.1126   53.3076 H   0  0  0  0  0  0  0  0  0  0  0  0
   34.0646   26.6294   53.0605 C   0  0  0  0  0  0  0  0  0  0  0  0
   35.2891   26.3214   52.4978 C   0  0  0  0  0  0  0  0  0  0  0  0
   33.5052   25.9198   53.6591 H   0  0  0  0  0  0  0  0  0  0  0  0
   35.6288   25.3303   52.7051 H   0  0  0  0  0  0  0  0  0  0  0  0
  1  6  1  0
  1  7  1  0
  2  1  2  0
  3  4  2  0
  3  2  1  0
  4  5  1  0
  5  6  2  0
  7 12  1  0
  8  9  1  0
  8  7  1  0
  9 10  1  0
 10 11  1  0
 12 11  1  0
  2 13  1  0
  3 14  1  0
  5 15  1  0
  7 16  1  1
  8 17  1  0
  8 18  1  0
  9 19  1  0
  9 20  1  0
 10 21  1  0
 10 22  1  0
 11 23  1  0
 11 24  1  0
 12 25  1  6
 26 27  1  0
 27 28  2  0
 28 29  1  0
 29 30  1  0
 29 31  2  0
 31 32  1  0
 31 33  1  0
 33 34  2  0
 34 27  1  0
 33 35  1  0
 34 36  1  0
 12 28  1  0
M  ISO  8  13  14  14  14  15  14  16  13  17  13  18  13  19  13  20  13
M  ISO  7  21  13  22  13  23  13  24  13  25  13  30  15  32  16
M  END
>  <DihAtoms>  (1) 
6,11,27,26

>  <DihDeg>  (1) 
-68.80378771067343

$$$$
