
     RDKit          3D

 32 34  0  0  1  0  0  0  0  0999 V2000
   36.7620   31.3430   49.1850 C   0  0  0  0  0  0  0  0  0  0  0  0
   37.0990   32.4160   49.9950 C   0  0  0  0  0  0  0  0  0  0  0  0
   38.1570   33.2090   49.4910 C   0  0  0  0  0  0  0  0  0  0  0  0
   38.7630   32.9100   48.3050 N   0  0  0  0  0  0  0  0  0  0  0  0
   38.3810   31.8470   47.5670 C   0  0  0  0  0  0  0  0  0  0  0  0
   37.3690   31.0490   48.0050 N   0  0  0  0  0  0  0  0  0  0  0  0
   40.2740   33.6880   46.4950 F   0  0  0  0  0  0  0  0  0  0  0  0
   40.0710   32.5690   45.7970 C   0  0  0  0  0  0  0  0  0  0  0  0
   39.1500   31.7100   46.3490 C   0  0  0  0  0  0  0  0  0  0  0  0
   38.8620   30.5180   45.7080 C   0  0  0  0  0  0  0  0  0  0  0  0
   39.4990   30.1860   44.5070 C   0  0  0  0  0  0  0  0  0  0  0  0
   40.4280   31.0570   43.9520 C   0  0  0  0  0  0  0  0  0  0  0  0
   40.6960   32.2350   44.6130 C   0  0  0  0  0  0  0  0  0  0  0  0
   35.6330   30.4950   49.6740 C   0  0  1  0  0  0  0  0  0  0  0  0
   34.8680   29.6300   48.7780 C   0  0  2  0  0  0  0  0  0  0  0  0
   35.9440   28.9920   49.5990 C   0  0  0  0  0  0  0  0  0  0  0  0
   35.0710   29.7930   47.4110 O   0  0  0  0  0  0  0  0  0  0  0  0
   34.1520   29.9530   46.4240 C   0  0  0  0  0  0  0  0  0  0  0  0
   34.2410   29.3540   45.3310 O   0  0  0  0  0  0  0  0  0  0  0  0
   33.1770   30.8540   46.8640 N   0  0  0  0  0  0  0  0  0  0  0  0
   36.5891   32.6320   50.9455 H   0  0  0  0  0  0  0  0  0  0  0  0
   38.4975   34.0829   50.0658 H   0  0  0  0  0  0  0  0  0  0  0  0
   38.1270   29.8264   46.1456 H   0  0  0  0  0  0  0  0  0  0  0  0
   39.2644   29.2367   44.0032 H   0  0  0  0  0  0  0  0  0  0  0  0
   40.9369   30.8119   43.0081 H   0  0  0  0  0  0  0  0  0  0  0  0
   41.4313   32.9315   44.1837 H   0  0  0  0  0  0  0  0  0  0  0  0
   35.3087   31.2432   50.4122 H   0  0  0  0  0  0  0  0  0  0  0  0
   33.7986   29.4124   48.6398 H   0  0  0  0  0  0  0  0  0  0  0  0
   35.6849   28.3276   50.4365 H   0  0  0  0  0  0  0  0  0  0  0  0
   36.8334   28.3767   49.3980 H   0  0  0  0  0  0  0  0  0  0  0  0
   32.3904   31.1032   46.2475 H   0  0  0  0  0  0  0  0  0  0  0  0
   33.2456   31.2683   47.8045 H   0  0  0  0  0  0  0  0  0  0  0  0
  1 14  1  0
  1  2  2  0
  3  2  1  0
  4  3  2  0
  5  6  2  0
  5  4  1  0
  6  1  1  0
  8  9  2  0
  8  7  1  0
  9  5  1  0
 10  9  1  0
 11 10  2  0
 12 11  1  0
 12 13  2  0
 13  8  1  0
 15 16  1  0
 15 14  1  0
 16 14  1  0
 17 15  1  0
 18 20  1  0
 18 17  1  0
 19 18  2  0
  2 21  1  0
  3 22  1  0
 10 23  1  0
 11 24  1  0
 12 25  1  0
 13 26  1  0
 14 27  1  1
 15 28  1  6
 16 29  1  0
 16 30  1  0
 20 31  1  0
 20 32  1  0
M  ISO  8  21  14  22  14  23  14  24  14  25  14  26  14  27  13  28  13
M  ISO  2  29  13  30  13
M  END
>  <minimizedAffinity>  (1) 
-6.55480766

>  <minimizedRMSD>  (1) 
2.82783914

$$$$
