
     RDKit          3D

 39 41  0  0  0  0  0  0  0  0999 V2000
   37.5699   30.8159   49.5073 C   0  0  0  0  0  0  0  0  0  0  0  0
   37.4843   32.1411   49.9230 C   0  0  0  0  0  0  0  0  0  0  0  0
   37.9252   33.1361   49.0140 C   0  0  0  0  0  0  0  0  0  0  0  0
   38.3957   32.7015   47.8088 N   0  0  0  0  0  0  0  0  0  0  0  0
   38.4601   31.4296   47.4528 C   0  0  0  0  0  0  0  0  0  0  0  0
   38.0468   30.4788   48.3017 N   0  0  0  0  0  0  0  0  0  0  0  0
   38.9745   31.1305   46.1663 N   0  0  0  0  0  0  0  0  0  0  0  0
   40.3830   30.8686   46.0043 C   0  0  0  0  0  0  0  0  0  0  0  0
   40.9233   31.5500   44.7579 C   0  0  0  0  0  0  0  0  0  0  0  0
   40.1030   31.2952   43.6221 N   0  0  0  0  0  0  0  0  0  0  0  0
   38.9355   30.4736   43.8526 C   0  0  0  0  0  0  0  0  0  0  0  0
   38.1213   31.0771   45.0043 C   0  0  2  0  0  0  0  0  0  0  0  0
   37.1077   29.7449   50.4569 C   0  0  0  0  0  0  0  0  0  0  0  0
   35.8130   29.3568   50.1368 F   0  0  0  0  0  0  0  0  0  0  0  0
   38.0068   28.7344   50.4348 F   0  0  0  0  0  0  0  0  0  0  0  0
   37.0204   30.3440   51.7253 F   0  0  0  0  0  0  0  0  0  0  0  0
   37.4579   32.3270   44.6583 C   0  0  0  0  0  0  0  0  0  0  0  0
   37.4618   32.6341   43.4707 O   0  0  0  0  0  0  0  0  0  0  0  0
   37.1062   32.4507   50.8855 H   0  0  0  0  0  0  0  0  0  0  0  0
   37.8825   34.1734   49.2804 H   0  0  0  0  0  0  0  0  0  0  0  0
   40.9391   31.3271   46.8660 H   0  0  0  0  0  0  0  0  0  0  0  0
   40.6303   29.7836   45.9223 H   0  0  0  0  0  0  0  0  0  0  0  0
   40.8664   32.6431   44.9854 H   0  0  0  0  0  0  0  0  0  0  0  0
   41.9554   31.2281   44.6089 H   0  0  0  0  0  0  0  0  0  0  0  0
   39.8796   32.1613   43.0825 H   0  0  0  0  0  0  0  0  0  0  0  0
   38.3049   30.5096   42.9653 H   0  0  0  0  0  0  0  0  0  0  0  0
   39.2156   29.4667   44.1447 H   0  0  0  0  0  0  0  0  0  0  0  0
   37.3676   30.2601   45.2364 H   0  0  0  0  0  0  0  0  0  0  0  0
   36.1217   32.9829   47.1550 F   0  0  0  0  0  0  0  0  0  0  0  0
   35.9992   33.8149   46.0961 C   0  0  0  0  0  0  0  0  0  0  0  0
   36.7027   33.5463   44.9460 C   0  0  0  0  0  0  0  0  0  0  0  0
   36.5663   34.4955   43.9114 C   0  0  0  0  0  0  0  0  0  0  0  0
   37.1293   34.2912   42.9840 H   0  0  0  0  0  0  0  0  0  0  0  0
   35.7896   35.6594   43.9572 C   0  0  0  0  0  0  0  0  0  0  0  0
   35.7308   36.3404   43.1292 H   0  0  0  0  0  0  0  0  0  0  0  0
   35.1619   35.7608   45.1708 C   0  0  0  0  0  0  0  0  0  0  0  0
   35.2063   34.9216   46.2548 C   0  0  0  0  0  0  0  0  0  0  0  0
   34.5319   36.6421   45.2866 H   0  0  0  0  0  0  0  0  0  0  0  0
   34.6559   35.1244   47.1601 H   0  0  0  0  0  0  0  0  0  0  0  0
  1  2  2  0
  1 13  1  0
  3  2  1  0
  4  3  2  0
  5  4  1  0
  5  6  2  0
  6  1  1  0
  7  5  1  0
  8  7  1  0
  9  8  1  0
 10 11  1  0
 10  9  1  0
 11 12  1  0
 12  7  1  0
 13 16  1  0
 14 13  1  0
 15 13  1  0
 17 12  1  0
 18 17  2  0
  2 19  1  0
  3 20  1  0
  8 21  1  0
  8 22  1  0
  9 23  1  0
  9 24  1  0
 10 25  1  0
 11 26  1  0
 11 27  1  0
 12 28  1  1
 29 30  1  0
 30 31  2  0
 31 32  1  0
 32 33  1  0
 32 34  2  0
 34 35  1  0
 34 36  1  0
 36 37  2  0
 37 30  1  0
 36 38  1  0
 37 39  1  0
 17 31  1  0
M  ISO  8  19  14  20  14  21  13  22  13  23  13  24  13  25   5  26  13
M  ISO  4  27  13  28  13  33  15  35  16
M  END
>  <DihAtoms>  (1) 
11,16,30,29

>  <DihDeg>  (1) 
74.34670737467926

$$$$
