
     RDKit          3D

 34 36  0  0  0  0  0  0  0  0999 V2000
   37.4675   31.4353   49.3863 C   0  0  0  0  0  0  0  0  0  0  0  0
   37.8798   32.7152   49.7038 C   0  0  0  0  0  0  0  0  0  0  0  0
   38.6824   33.3215   48.7580 C   0  0  0  0  0  0  0  0  0  0  0  0
   39.0195   32.6738   47.6108 N   0  0  0  0  0  0  0  0  0  0  0  0
   38.5990   31.4229   47.3314 C   0  0  0  0  0  0  0  0  0  0  0  0
   37.8041   30.8040   48.2548 N   0  0  0  0  0  0  0  0  0  0  0  0
   36.5611   30.7206   50.3575 C   0  0  0  0  0  0  0  0  0  0  0  0
   36.5143   29.3006   50.4743 C   0  0  0  0  0  0  0  0  0  0  0  0
   37.3515   30.0443   51.4996 C   0  0  0  0  0  0  0  0  0  0  0  0
   38.9307   30.7105   46.1041 C   0  0  0  0  0  0  0  0  0  0  0  0
   41.1232   31.5610   45.0668 C   0  0  0  0  0  0  0  0  0  0  0  0
   40.4760   32.2397   44.1916 O   0  0  0  0  0  0  0  0  0  0  0  0
   40.3699   30.7896   45.9600 N   0  0  0  0  0  0  0  0  0  0  0  0
   37.5735   33.1581   50.6243 H   0  0  0  0  0  0  0  0  0  0  0  0
   39.0386   34.3215   48.9455 H   0  0  0  0  0  0  0  0  0  0  0  0
   35.7091   31.3609   50.7100 H   0  0  0  0  0  0  0  0  0  0  0  0
   35.5802   28.7991   50.7994 H   0  0  0  0  0  0  0  0  0  0  0  0
   37.1202   28.6355   49.8243 H   0  0  0  0  0  0  0  0  0  0  0  0
   38.4457   30.0136   51.4370 H   0  0  0  0  0  0  0  0  0  0  0  0
   36.9372   30.2152   52.5044 H   0  0  0  0  0  0  0  0  0  0  0  0
   38.4428   31.2714   45.2660 H   0  0  0  0  0  0  0  0  0  0  0  0
   38.6359   29.6658   46.1541 H   0  0  0  0  0  0  0  0  0  0  0  0
   40.8533   30.1694   46.6347 H   0  0  0  0  0  0  0  0  0  0  0  0
   42.8105   33.1149   46.8448 F   0  0  0  0  0  0  0  0  0  0  0  0
   43.3894   32.4042   45.8542 C   0  0  0  0  0  0  0  0  0  0  0  0
   42.5708   31.6777   45.0224 C   0  0  0  0  0  0  0  0  0  0  0  0
   43.2893   31.0006   44.0527 C   0  0  0  0  0  0  0  0  0  0  0  0
   42.7676   30.3743   43.3117 H   0  0  0  0  0  0  0  0  0  0  0  0
   44.6528   31.0379   43.9219 C   0  0  0  0  0  0  0  0  0  0  0  0
   45.1544   30.4846   43.1410 H   0  0  0  0  0  0  0  0  0  0  0  0
   45.4009   31.7855   44.7901 C   0  0  0  0  0  0  0  0  0  0  0  0
   44.7597   32.4881   45.7826 C   0  0  0  0  0  0  0  0  0  0  0  0
   46.4677   31.7959   44.6636 H   0  0  0  0  0  0  0  0  0  0  0  0
   45.3232   33.0863   46.4820 H   0  0  0  0  0  0  0  0  0  0  0  0
  1  2  2  0
  1  7  1  0
  3  2  1  0
  4  3  2  0
  5  4  1  0
  5  6  2  0
  6  1  1  0
  7  8  1  0
  7  9  1  0
  8  9  1  0
 10  5  1  0
 11 13  1  0
 12 11  2  0
 13 10  1  0
  2 14  1  0
  3 15  1  0
  7 16  1  0
  8 17  1  0
  8 18  1  0
  9 19  1  0
  9 20  1  0
 10 21  1  0
 10 22  1  0
 13 23  1  0
 24 25  1  0
 25 26  2  0
 26 27  1  0
 27 28  1  0
 27 29  2  0
 29 30  1  0
 29 31  1  0
 31 32  2  0
 32 25  1  0
 31 33  1  0
 32 34  1  0
 11 26  1  0
M  ISO  8  14  14  15  14  16  13  17  13  18  13  19  13  20  13  21   8
M  ISO  3  22   8  28  15  30  16
M  END
>  <DihAtoms>  (1) 
12,10,25,24

>  <DihDeg>  (1) 
-1.7185035051813515

$$$$
