
     RDKit          3D

 45 48  0  0  0  0  0  0  0  0999 V2000
   35.6179   28.2427   49.6079 C   0  0  0  0  0  0  0  0  0  0  0  0
   36.5533   29.2565   49.4509 C   0  0  0  0  0  0  0  0  0  0  0  0
   36.4017   30.2823   48.5525 C   0  0  0  0  0  0  0  0  0  0  0  0
   35.2646   30.2562   47.8196 N   0  0  0  0  0  0  0  0  0  0  0  0
   34.3656   29.2854   47.9727 C   0  0  0  0  0  0  0  0  0  0  0  0
   34.5449   28.3264   48.8260 N   0  0  0  0  0  0  0  0  0  0  0  0
   36.3004   32.4403   50.5092 Cl  0  0  0  0  0  0  0  0  0  0  0  0
   37.4480   32.3582   49.2226 C   0  0  0  0  0  0  0  0  0  0  0  0
   37.4247   31.3074   48.3531 C   0  0  0  0  0  0  0  0  0  0  0  0
   38.3781   31.2979   47.3471 C   0  0  0  0  0  0  0  0  0  0  0  0
   39.3289   32.2631   47.1728 C   0  0  0  0  0  0  0  0  0  0  0  0
   39.3052   33.3336   48.1076 C   0  0  0  0  0  0  0  0  0  0  0  0
   40.5037   34.5820   47.9131 Cl  0  0  0  0  0  0  0  0  0  0  0  0
   38.3690   33.3866   49.1325 C   0  0  0  0  0  0  0  0  0  0  0  0
   32.1600   28.4455   47.1377 C   0  0  0  0  0  0  0  0  0  0  0  0
   33.1621   29.3858   47.1360 C   0  0  0  0  0  0  0  0  0  0  0  0
   33.0371   30.4298   46.2523 C   0  0  0  0  0  0  0  0  0  0  0  0
   31.9801   30.5846   45.3739 C   0  0  0  0  0  0  0  0  0  0  0  0
   30.9936   29.6428   45.3795 C   0  0  0  0  0  0  0  0  0  0  0  0
   31.0973   28.5946   46.2555 C   0  0  0  0  0  0  0  0  0  0  0  0
   32.2309   27.1289   48.2215 S   0  0  0  0  0  0  0  0  0  0  0  0
   30.8729   26.6684   48.5029 O   0  0  0  0  0  0  0  0  0  0  0  0
   32.7189   25.8735   47.5647 O   0  0  0  0  0  0  0  0  0  0  0  0
   37.7048   29.2062   50.3003 N   0  0  0  0  0  0  0  0  0  0  0  0
   35.8109   27.4597   50.3405 H   0  0  0  0  0  0  0  0  0  0  0  0
   38.3301   30.4424   46.6698 H   0  0  0  0  0  0  0  0  0  0  0  0
   40.0542   32.2246   46.3812 H   0  0  0  0  0  0  0  0  0  0  0  0
   38.3707   34.2082   49.8290 H   0  0  0  0  0  0  0  0  0  0  0  0
   33.7886   31.2237   46.1895 H   0  0  0  0  0  0  0  0  0  0  0  0
   31.8839   31.3991   44.6856 H   0  0  0  0  0  0  0  0  0  0  0  0
   30.1469   29.7299   44.7003 H   0  0  0  0  0  0  0  0  0  0  0  0
   30.2946   27.8449   46.2481 H   0  0  0  0  0  0  0  0  0  0  0  0
   37.5208   29.0056   51.3042 H   0  0  0  0  0  0  0  0  0  0  0  0
   38.6290   29.3655   49.8914 H   0  0  0  0  0  0  0  0  0  0  0  0
   34.2224   25.8583   50.0910 F   0  0  0  0  0  0  0  0  0  0  0  0
   33.3521   26.7055   50.7283 C   0  0  0  0  0  0  0  0  0  0  0  0
   32.4185   27.2472   49.9186 C   0  0  0  0  0  0  0  0  0  0  0  0
   31.5383   28.1141   50.5980 C   0  0  0  0  0  0  0  0  0  0  0  0
   30.7294   28.6296   50.0798 H   0  0  0  0  0  0  0  0  0  0  0  0
   31.6572   28.3509   51.9436 C   0  0  0  0  0  0  0  0  0  0  0  0
   30.9580   29.0323   52.4550 H   0  0  0  0  0  0  0  0  0  0  0  0
   32.6507   27.7418   52.6764 C   0  0  0  0  0  0  0  0  0  0  0  0
   33.5532   26.8818   52.0941 C   0  0  0  0  0  0  0  0  0  0  0  0
   32.7529   27.9209   53.7360 H   0  0  0  0  0  0  0  0  0  0  0  0
   34.3616   26.3592   52.5782 H   0  0  0  0  0  0  0  0  0  0  0  0
  2  1  2  0
  2 24  1  0
  3  2  1  0
  4  5  1  0
  4  3  2  0
  5  6  2  0
  6  1  1  0
  8  7  1  0
  9  3  1  0
  9  8  2  0
 10  9  1  0
 11 10  2  0
 11 12  1  0
 12 14  2  0
 13 12  1  0
 14  8  1  0
 15 16  1  0
 15 21  1  0
 16  5  1  0
 17 16  2  0
 18 17  1  0
 19 18  2  0
 19 20  1  0
 20 15  2  0
 21 22  2  0
 23 21  2  0
  1 25  1  0
 10 26  1  0
 11 27  1  0
 14 28  1  0
 17 29  1  0
 18 30  1  0
 19 31  1  0
 20 32  1  0
 24 33  1  0
 24 34  1  0
 35 36  1  0
 36 37  2  0
 37 38  1  0
 38 39  1  0
 38 40  2  0
 40 41  1  0
 40 42  1  0
 42 43  2  0
 43 36  1  0
 42 44  1  0
 43 45  1  0
 21 37  1  0
M  ISO  8  25  14  26  14  27  14  28  14  29  14  30  14  31  14  32  14
M  ISO  2  39  15  41  16
M  END
>  <DihAtoms>  (1) 
14,20,36,35

>  <DihDeg>  (1) 
41.294590283567764

$$$$
