
     RDKit          3D

 36 38  0  0  1  0  0  0  0  0999 V2000
   34.4740   29.1780   48.0560 C   0  0  0  0  0  0  0  0  0  0  0  0
   34.1340   30.1050   47.0630 C   0  0  0  0  0  0  0  0  0  0  0  0
   32.9150   29.9230   46.4050 C   0  0  0  0  0  0  0  0  0  0  0  0
   32.1460   28.8430   46.7850 N   0  0  0  0  0  0  0  0  0  0  0  0
   32.5080   27.9890   47.7310 C   0  0  0  0  0  0  0  0  0  0  0  0
   33.6730   28.1430   48.3780 N   0  0  0  0  0  0  0  0  0  0  0  0
   35.7280   29.3740   48.7260 N   0  0  0  0  0  0  0  0  0  0  0  0
   36.8640   30.1040   48.2430 C   0  0  0  0  0  0  0  0  0  0  0  0
   37.5190   30.5850   49.5290 C   0  0  2  0  0  0  0  0  0  0  0  0
   36.5980   30.1570   50.6530 C   0  0  0  0  0  0  0  0  0  0  0  0
   36.0800   28.8650   50.0340 C   0  0  0  0  0  0  0  0  0  0  0  0
   37.7730   32.0710   49.5400 C   0  0  0  0  0  0  0  0  0  0  0  0
   36.6810   32.6550   50.1500 F   0  0  0  0  0  0  0  0  0  0  0  0
   37.7520   32.4810   48.2170 F   0  0  0  0  0  0  0  0  0  0  0  0
   38.9600   32.4210   50.1090 F   0  0  0  0  0  0  0  0  0  0  0  0
   31.4630   26.6130   48.1670 S   0  0  0  0  0  0  0  0  0  0  0  0
   30.5270   28.3110   50.3510 F   0  0  0  0  0  0  0  0  0  0  0  0
   29.5400   27.8970   49.4990 C   0  0  0  0  0  0  0  0  0  0  0  0
   29.7540   27.0810   48.3870 C   0  0  0  0  0  0  0  0  0  0  0  0
   28.6950   26.7150   47.5840 C   0  0  0  0  0  0  0  0  0  0  0  0
   27.4150   27.1490   47.8670 C   0  0  0  0  0  0  0  0  0  0  0  0
   27.2100   27.9640   48.9820 C   0  0  0  0  0  0  0  0  0  0  0  0
   28.2570   28.3560   49.8190 C   0  0  0  0  0  0  0  0  0  0  0  0
   34.8002   30.9432   46.8110 H   0  0  0  0  0  0  0  0  0  0  0  0
   32.5821   30.6132   45.6158 H   0  0  0  0  0  0  0  0  0  0  0  0
   37.5415   29.4523   47.6717 H   0  0  0  0  0  0  0  0  0  0  0  0
   36.5998   30.9200   47.5543 H   0  0  0  0  0  0  0  0  0  0  0  0
   38.5190   30.1403   49.6394 H   0  0  0  0  0  0  0  0  0  0  0  0
   37.1433   29.9784   51.5915 H   0  0  0  0  0  0  0  0  0  0  0  0
   35.8312   30.8879   50.9493 H   0  0  0  0  0  0  0  0  0  0  0  0
   35.2063   28.4695   50.5728 H   0  0  0  0  0  0  0  0  0  0  0  0
   36.7825   28.0186   50.0419 H   0  0  0  0  0  0  0  0  0  0  0  0
   28.8712   26.0712   46.7096 H   0  0  0  0  0  0  0  0  0  0  0  0
   26.5709   26.8575   47.2247 H   0  0  0  0  0  0  0  0  0  0  0  0
   26.1903   28.3087   49.2086 H   0  0  0  0  0  0  0  0  0  0  0  0
   28.0806   28.9991   50.6938 H   0  0  0  0  0  0  0  0  0  0  0  0
  1  6  1  0
  1  7  1  0
  2  1  2  0
  3  4  2  0
  3  2  1  0
  4  5  1  0
  5 16  1  0
  5  6  2  0
  7 11  1  0
  8  7  1  0
  8  9  1  0
  9 12  1  0
  9 10  1  0
 11 10  1  0
 12 15  1  0
 12 13  1  0
 14 12  1  0
 16 19  1  0
 18 23  2  0
 18 17  1  0
 19 18  1  0
 20 21  1  0
 20 19  2  0
 21 22  2  0
 22 23  1  0
  2 24  1  0
  3 25  1  0
  8 26  1  0
  8 27  1  0
  9 28  1  1
 10 29  1  0
 10 30  1  0
 11 31  1  0
 11 32  1  0
 20 33  1  0
 21 34  1  0
 22 35  1  0
 23 36  1  0
M  ISO  8  24  14  25  14  26  13  27  13  28  13  29  13  30  13  31  13
M  ISO  5  32  13  33  14  34  14  35  14  36  14
M  END
>  <minimizedAffinity>  (1) 
-6.59345484

>  <minimizedRMSD>  (1) 
1.74538612

$$$$
