
 OpenBabel03272514383D

 34 38  0  0  0  0  0  0  0  0999 V2000
   37.8820   32.0410   49.3510 C   0  0  0  0  0  3  0  0  0  0  0  0
   38.3360   31.1220   50.3430 C   0  0  0  0  0  3  0  0  0  0  0  0
   37.8550   29.8050   50.2510 C   0  0  0  0  0  3  0  0  0  0  0  0
   37.0020   29.4700   49.2510 N   0  0  0  0  0  0  0  0  0  0  0  0
   36.5960   30.3890   48.3240 C   0  0  0  0  0  0  0  0  0  0  0  0
   37.0370   31.6580   48.3830 N   0  0  0  0  0  0  0  0  0  0  0  0
   35.7060   30.0620   47.2720 N   0  0  0  0  0  0  0  0  0  0  0  0
   35.9990   30.3830   45.9950 C   0  0  0  0  0  3  0  0  0  0  0  0
   34.9720   29.9460   45.2190 N   0  0  0  0  0  0  0  0  0  0  0  0
   34.0460   29.3630   45.9850 C   0  0  0  0  0  0  0  0  0  0  0  0
   32.8040   28.7320   45.8370 C   0  0  0  0  0  0  0  0  0  0  0  0
   32.3710   28.6600   44.6570 O   0  0  0  0  0  0  0  0  0  0  0  0
   32.1490   28.2480   46.9190 N   0  0  0  0  0  0  0  0  0  0  0  0
   32.6440   28.3480   48.1440 C   0  0  0  0  0  0  0  0  0  0  0  0
   31.8070   27.7770   49.1580 N   0  0  0  0  0  0  0  0  0  0  0  0
   33.8410   28.9490   48.3310 N   0  0  0  0  0  0  0  0  0  0  0  0
   34.5090   29.4350   47.2860 C   0  0  0  0  0  0  0  0  0  0  0  0
   32.1020   27.8040   50.1450 H   0  0  0  0  0  0  0  0  0  0  0  0
   30.9100   27.3410   48.9010 H   0  0  0  0  0  0  0  0  0  0  0  0
   30.8540   27.5970   46.7290 C   0  0  0  0  0  0  0  0  0  0  0  0
   30.7230   26.4380   45.9410 C   0  0  0  0  0  3  0  0  0  0  0  0
   28.9220   26.0660   46.0520 S   0  0  0  0  0  0  0  0  0  0  0  0
   28.6450   27.5640   47.1650 C   0  0  0  0  0  0  0  0  0  0  0  0
   29.6970   27.9960   47.2490 N   0  0  0  0  0  0  0  0  0  0  0  0
   27.4280   28.0850   47.7840 N   0  0  0  0  0  0  0  0  0  0  0  0
   26.7370   28.9780   47.0620 C   0  0  0  0  0  3  0  0  0  0  0  0
   25.5850   29.4350   47.7110 C   0  0  0  0  0  3  0  0  0  0  0  0
   25.2430   28.9780   48.9740 C   0  0  0  0  0  0  0  0  0  0  0  0
   24.0800   29.4430   49.6230 N   0  0  0  0  0  0  0  0  0  0  0  0
   26.0390   28.0750   49.5800 N   0  0  0  0  0  0  0  0  0  0  0  0
   27.1600   27.6070   48.9890 C   0  0  0  0  0  0  0  0  0  0  0  0
   27.9010   26.7630   49.5590 O   0  0  0  0  0  0  0  0  0  0  0  0
   23.8400   29.0930   50.5610 H   0  0  0  0  0  0  0  0  0  0  0  0
   23.4720   30.1330   49.1580 H   0  0  0  0  0  0  0  0  0  0  0  0
  1  2  1  0  0  0  0
  3  2  2  0  0  0  0
  4  3  1  0  0  0  0
  5  6  1  0  0  0  0
  5  4  2  0  0  0  0
  6  1  2  0  0  0  0
  7 17  1  0  0  0  0
  7  5  1  0  0  0  0
  8  7  1  0  0  0  0
  9 10  1  0  0  0  0
  9  8  2  0  0  0  0
 10 17  2  0  0  0  0
 11 10  1  0  0  0  0
 11 13  1  0  0  0  0
 12 11  2  0  0  0  0
 13 14  1  0  0  0  0
 14 16  2  0  0  0  0
 14 15  1  0  0  0  0
 15 18  1  0  0  0  0
 17 16  1  0  0  0  0
 19 15  1  0  0  0  0
 20 13  1  0  0  0  0
 20 24  1  0  0  0  0
 21 22  1  0  0  0  0
 21 20  2  0  0  0  0
 22 23  1  0  0  0  0
 23 24  2  0  0  0  0
 23 25  1  0  0  0  0
 25 31  1  0  0  0  0
 26 27  2  0  0  0  0
 26 25  1  0  0  0  0
 27 28  1  0  0  0  0
 28 30  2  0  0  0  0
 28 29  1  0  0  0  0
 29 33  1  0  0  0  0
 31 32  2  0  0  0  0
 31 30  1  0  0  0  0
 34 29  1  0  0  0  0
M  END
>  <minimizedAffinity>
-7.61041021

$$$$

 OpenBabel03272514383D

 34 38  0  0  0  0  0  0  0  0999 V2000
   39.7290   31.0600   44.9790 C   0  0  0  0  0  3  0  0  0  0  0  0
   39.3620   32.1240   44.1040 C   0  0  0  0  0  3  0  0  0  0  0  0
   38.0450   32.6030   44.2090 C   0  0  0  0  0  3  0  0  0  0  0  0
   37.2000   32.0490   45.1140 N   0  0  0  0  0  0  0  0  0  0  0  0
   37.6020   31.0290   45.9320 C   0  0  0  0  0  0  0  0  0  0  0  0
   38.8550   30.5470   45.8560 N   0  0  0  0  0  0  0  0  0  0  0  0
   36.7360   30.4360   46.8820 N   0  0  0  0  0  0  0  0  0  0  0  0
   37.1220   30.2820   48.1660 C   0  0  0  0  0  3  0  0  0  0  0  0
   36.0950   29.6920   48.8330 N   0  0  0  0  0  0  0  0  0  0  0  0
   35.0800   29.4730   47.9930 C   0  0  0  0  0  0  0  0  0  0  0  0
   33.7900   28.9280   48.0220 C   0  0  0  0  0  0  0  0  0  0  0  0
   33.4100   28.4970   49.1420 O   0  0  0  0  0  0  0  0  0  0  0  0
   33.0380   28.8900   46.8960 N   0  0  0  0  0  0  0  0  0  0  0  0
   33.4810   29.3560   45.7380 C   0  0  0  0  0  0  0  0  0  0  0  0
   32.5420   29.2270   44.6620 N   0  0  0  0  0  0  0  0  0  0  0  0
   34.7210   29.8910   45.6660 N   0  0  0  0  0  0  0  0  0  0  0  0
   35.4840   29.9440   46.7560 C   0  0  0  0  0  0  0  0  0  0  0  0
   32.7910   29.5600   43.7190 H   0  0  0  0  0  0  0  0  0  0  0  0
   31.6200   28.8030   44.8310 H   0  0  0  0  0  0  0  0  0  0  0  0
   31.6960   28.3130   46.9620 C   0  0  0  0  0  0  0  0  0  0  0  0
   31.4700   26.9480   46.7050 C   0  0  0  0  0  3  0  0  0  0  0  0
   29.6480   26.7840   46.9260 S   0  0  0  0  0  0  0  0  0  0  0  0
   29.4970   28.6200   47.3370 C   0  0  0  0  0  0  0  0  0  0  0  0
   30.5790   28.9710   47.2580 N   0  0  0  0  0  0  0  0  0  0  0  0
   28.3310   29.4320   47.6740 N   0  0  0  0  0  0  0  0  0  0  0  0
   27.6970   30.0080   46.6430 C   0  0  0  0  0  3  0  0  0  0  0  0
   26.5910   30.7700   47.0340 C   0  0  0  0  0  3  0  0  0  0  0  0
   26.2330   30.8850   48.3680 C   0  0  0  0  0  0  0  0  0  0  0  0
   25.1180   31.6550   48.7560 N   0  0  0  0  0  0  0  0  0  0  0  0
   26.9700   30.2460   49.2990 N   0  0  0  0  0  0  0  0  0  0  0  0
   28.0450   29.5000   48.9650 C   0  0  0  0  0  0  0  0  0  0  0  0
   28.7300   28.9050   49.8390 O   0  0  0  0  0  0  0  0  0  0  0  0
   24.8650   31.7300   49.7510 H   0  0  0  0  0  0  0  0  0  0  0  0
   24.5550   32.1420   48.0430 H   0  0  0  0  0  0  0  0  0  0  0  0
  1  6  1  0  0  0  0
  2  3  1  0  0  0  0
  2  1  2  0  0  0  0
  3  4  2  0  0  0  0
  4  5  1  0  0  0  0
  5  7  1  0  0  0  0
  6  5  2  0  0  0  0
  7  8  1  0  0  0  0
  8  9  2  0  0  0  0
 10 11  1  0  0  0  0
 10  9  1  0  0  0  0
 11 12  2  0  0  0  0
 13 20  1  0  0  0  0
 13 11  1  0  0  0  0
 14 13  1  0  0  0  0
 15 19  1  0  0  0  0
 15 14  1  0  0  0  0
 16 14  2  0  0  0  0
 16 17  1  0  0  0  0
 17  7  1  0  0  0  0
 17 10  2  0  0  0  0
 18 15  1  0  0  0  0
 20 24  1  0  0  0  0
 21 22  1  0  0  0  0
 21 20  2  0  0  0  0
 22 23  1  0  0  0  0
 23 25  1  0  0  0  0
 24 23  2  0  0  0  0
 25 31  1  0  0  0  0
 26 27  2  0  0  0  0
 26 25  1  0  0  0  0
 27 28  1  0  0  0  0
 28 29  1  0  0  0  0
 28 30  2  0  0  0  0
 29 33  1  0  0  0  0
 31 30  1  0  0  0  0
 31 32  2  0  0  0  0
 34 29  1  0  0  0  0
M  END
>  <minimizedAffinity>
-7.34180069

$$$$

 OpenBabel03272514383D

 34 38  0  0  0  0  0  0  0  0999 V2000
   25.1270   33.9570   45.7370 C   0  0  0  0  0  3  0  0  0  0  0  0
   25.0820   34.0130   44.3130 C   0  0  0  0  0  3  0  0  0  0  0  0
   25.7180   32.9690   43.6200 C   0  0  0  0  0  3  0  0  0  0  0  0
   26.3320   31.9790   44.3130 N   0  0  0  0  0  0  0  0  0  0  0  0
   26.3460   31.9700   45.6810 C   0  0  0  0  0  0  0  0  0  0  0  0
   25.7480   32.9540   46.3750 N   0  0  0  0  0  0  0  0  0  0  0  0
   26.9800   30.9460   46.4250 N   0  0  0  0  0  0  0  0  0  0  0  0
   26.3290   30.3140   47.4240 C   0  0  0  0  0  3  0  0  0  0  0  0
   27.1810   29.3930   47.9470 N   0  0  0  0  0  0  0  0  0  0  0  0
   28.3480   29.4390   47.2970 C   0  0  0  0  0  0  0  0  0  0  0  0
   29.5930   28.7980   47.3260 C   0  0  0  0  0  0  0  0  0  0  0  0
   29.7190   27.9010   48.1990 O   0  0  0  0  0  0  0  0  0  0  0  0
   30.5650   29.1540   46.4530 N   0  0  0  0  0  0  0  0  0  0  0  0
   30.3870   30.1060   45.5500 C   0  0  0  0  0  0  0  0  0  0  0  0
   31.5290   30.3390   44.7160 N   0  0  0  0  0  0  0  0  0  0  0  0
   29.1980   30.7500   45.4880 N   0  0  0  0  0  0  0  0  0  0  0  0
   28.2230   30.4230   46.3330 C   0  0  0  0  0  0  0  0  0  0  0  0
   31.4920   31.0610   43.9820 H   0  0  0  0  0  0  0  0  0  0  0  0
   32.3870   29.7860   44.8510 H   0  0  0  0  0  0  0  0  0  0  0  0
   31.8540   28.4640   46.5100 C   0  0  0  0  0  0  0  0  0  0  0  0
   32.0630   27.2410   45.8470 C   0  0  0  0  0  3  0  0  0  0  0  0
   33.8160   26.8460   46.2540 S   0  0  0  0  0  0  0  0  0  0  0  0
   33.9740   28.4290   47.2690 C   0  0  0  0  0  0  0  0  0  0  0  0
   32.9330   28.8850   47.1630 N   0  0  0  0  0  0  0  0  0  0  0  0
   35.1020   28.9790   48.0170 N   0  0  0  0  0  0  0  0  0  0  0  0
   35.1950   28.6060   49.3000 C   0  0  0  0  0  3  0  0  0  0  0  0
   36.2960   29.1660   49.9570 C   0  0  0  0  0  3  0  0  0  0  0  0
   37.1690   30.0160   49.2970 C   0  0  0  0  0  0  0  0  0  0  0  0
   38.2770   30.5780   49.9650 N   0  0  0  0  0  0  0  0  0  0  0  0
   36.9470   30.3020   47.9980 N   0  0  0  0  0  0  0  0  0  0  0  0
   35.8960   29.7830   47.3270 C   0  0  0  0  0  0  0  0  0  0  0  0
   35.6930   30.0530   46.1140 O   0  0  0  0  0  0  0  0  0  0  0  0
   38.9170   31.2080   49.4600 H   0  0  0  0  0  0  0  0  0  0  0  0
   38.4470   30.3580   50.9570 H   0  0  0  0  0  0  0  0  0  0  0  0
  1  6  1  0  0  0  0
  2  1  2  0  0  0  0
  3  2  1  0  0  0  0
  3  4  2  0  0  0  0
  4  5  1  0  0  0  0
  5  6  2  0  0  0  0
  5  7  1  0  0  0  0
  7  8  1  0  0  0  0
  8  9  2  0  0  0  0
 10 11  1  0  0  0  0
 10  9  1  0  0  0  0
 11 12  2  0  0  0  0
 13 20  1  0  0  0  0
 13 11  1  0  0  0  0
 14 13  1  0  0  0  0
 15 19  1  0  0  0  0
 15 14  1  0  0  0  0
 16 14  2  0  0  0  0
 16 17  1  0  0  0  0
 17  7  1  0  0  0  0
 17 10  2  0  0  0  0
 18 15  1  0  0  0  0
 20 24  1  0  0  0  0
 21 22  1  0  0  0  0
 21 20  2  0  0  0  0
 22 23  1  0  0  0  0
 23 25  1  0  0  0  0
 24 23  2  0  0  0  0
 25 26  1  0  0  0  0
 26 27  2  0  0  0  0
 28 27  1  0  0  0  0
 28 29  1  0  0  0  0
 29 34  1  0  0  0  0
 30 28  2  0  0  0  0
 31 30  1  0  0  0  0
 31 25  1  0  0  0  0
 32 31  2  0  0  0  0
 33 29  1  0  0  0  0
M  END
>  <minimizedAffinity>
-7.20686722

$$$$

 OpenBabel03272514383D

 34 38  0  0  0  0  0  0  0  0999 V2000
   27.3930   27.4300   51.0860 C   0  0  0  0  0  3  0  0  0  0  0  0
   28.7260   26.9640   50.8930 C   0  0  0  0  0  3  0  0  0  0  0  0
   29.5050   27.6500   49.9460 C   0  0  0  0  0  3  0  0  0  0  0  0
   28.9710   28.6990   49.2720 N   0  0  0  0  0  0  0  0  0  0  0  0
   27.6860   29.1080   49.4940 C   0  0  0  0  0  0  0  0  0  0  0  0
   26.9130   28.4730   50.3930 N   0  0  0  0  0  0  0  0  0  0  0  0
   27.1090   30.2000   48.8020 N   0  0  0  0  0  0  0  0  0  0  0  0
   26.4800   31.1880   49.4730 C   0  0  0  0  0  3  0  0  0  0  0  0
   26.0350   32.0860   48.5540 N   0  0  0  0  0  0  0  0  0  0  0  0
   26.3710   31.6780   47.3270 C   0  0  0  0  0  0  0  0  0  0  0  0
   26.2310   32.1080   46.0010 C   0  0  0  0  0  0  0  0  0  0  0  0
   25.6140   33.1930   45.8470 O   0  0  0  0  0  0  0  0  0  0  0  0
   26.7420   31.3700   44.9860 N   0  0  0  0  0  0  0  0  0  0  0  0
   27.3840   30.2310   45.1970 C   0  0  0  0  0  0  0  0  0  0  0  0
   27.8510   29.5960   43.9990 N   0  0  0  0  0  0  0  0  0  0  0  0
   27.5420   29.7810   46.4620 N   0  0  0  0  0  0  0  0  0  0  0  0
   27.0520   30.4840   47.4820 C   0  0  0  0  0  0  0  0  0  0  0  0
   28.3620   28.7040   44.0560 H   0  0  0  0  0  0  0  0  0  0  0  0
   27.6740   30.0310   43.0830 H   0  0  0  0  0  0  0  0  0  0  0  0
   26.5760   31.8480   43.6130 C   0  0  0  0  0  0  0  0  0  0  0  0
   25.4880   31.4390   42.8200 C   0  0  0  0  0  3  0  0  0  0  0  0
   25.7810   32.3260   41.2320 S   0  0  0  0  0  0  0  0  0  0  0  0
   27.3520   33.1140   41.9200 C   0  0  0  0  0  0  0  0  0  0  0  0
   27.3910   32.6840   42.9760 N   0  0  0  0  0  0  0  0  0  0  0  0
   28.3070   34.0360   41.3110 N   0  0  0  0  0  0  0  0  0  0  0  0
   29.3360   33.4740   40.6630 C   0  0  0  0  0  3  0  0  0  0  0  0
   30.2110   34.4110   40.1030 C   0  0  0  0  0  3  0  0  0  0  0  0
   29.9880   35.7720   40.2380 C   0  0  0  0  0  0  0  0  0  0  0  0
   30.8730   36.7120   39.6720 N   0  0  0  0  0  0  0  0  0  0  0  0
   28.9040   36.1920   40.9220 N   0  0  0  0  0  0  0  0  0  0  0  0
   28.0340   35.3210   41.4780 C   0  0  0  0  0  0  0  0  0  0  0  0
   27.0230   35.7180   42.1150 O   0  0  0  0  0  0  0  0  0  0  0  0
   30.6930   37.7200   39.7810 H   0  0  0  0  0  0  0  0  0  0  0  0
   31.7010   36.3900   39.1490 H   0  0  0  0  0  0  0  0  0  0  0  0
  2  1  1  0  0  0  0
  3  2  2  0  0  0  0
  4  5  2  0  0  0  0
  4  3  1  0  0  0  0
  5  6  1  0  0  0  0
  6  1  2  0  0  0  0
  7  8  1  0  0  0  0
  7  5  1  0  0  0  0
  9  8  2  0  0  0  0
 10 17  2  0  0  0  0
 10  9  1  0  0  0  0
 11 10  1  0  0  0  0
 12 11  2  0  0  0  0
 13 14  1  0  0  0  0
 13 11  1  0  0  0  0
 14 16  2  0  0  0  0
 15 18  1  0  0  0  0
 15 14  1  0  0  0  0
 16 17  1  0  0  0  0
 17  7  1  0  0  0  0
 19 15  1  0  0  0  0
 20 13  1  0  0  0  0
 21 20  2  0  0  0  0
 22 23  1  0  0  0  0
 22 21  1  0  0  0  0
 23 24  2  0  0  0  0
 24 20  1  0  0  0  0
 25 31  1  0  0  0  0
 25 23  1  0  0  0  0
 26 25  1  0  0  0  0
 27 28  1  0  0  0  0
 27 26  2  0  0  0  0
 28 30  2  0  0  0  0
 29 33  1  0  0  0  0
 29 28  1  0  0  0  0
 30 31  1  0  0  0  0
 31 32  2  0  0  0  0
 34 29  1  0  0  0  0
M  END
>  <minimizedAffinity>
-7.08154726

$$$$

 OpenBabel03272514383D

 34 38  0  0  0  0  0  0  0  0999 V2000
   38.3900   32.6350   48.5560 C   0  0  0  0  0  3  0  0  0  0  0  0
   38.6140   31.7980   49.6890 C   0  0  0  0  0  3  0  0  0  0  0  0
   38.0760   30.5010   49.6320 C   0  0  0  0  0  3  0  0  0  0  0  0
   37.3860   30.1090   48.5330 N   0  0  0  0  0  0  0  0  0  0  0  0
   37.1990   30.9500   47.4710 C   0  0  0  0  0  0  0  0  0  0  0  0
   37.6990   32.1980   47.4940 N   0  0  0  0  0  0  0  0  0  0  0  0
   36.4810   30.5610   46.3150 N   0  0  0  0  0  0  0  0  0  0  0  0
   37.0050   30.7430   45.0840 C   0  0  0  0  0  3  0  0  0  0  0  0
   36.0980   30.2780   44.1830 N   0  0  0  0  0  0  0  0  0  0  0  0
   35.0230   29.8140   44.8250 C   0  0  0  0  0  0  0  0  0  0  0  0
   33.7870   29.2280   44.5190 C   0  0  0  0  0  0  0  0  0  0  0  0
   33.5570   29.0600   43.2940 O   0  0  0  0  0  0  0  0  0  0  0  0
   32.9320   28.8820   45.5100 N   0  0  0  0  0  0  0  0  0  0  0  0
   33.2170   29.0790   46.7890 C   0  0  0  0  0  0  0  0  0  0  0  0
   32.1880   28.6480   47.6880 N   0  0  0  0  0  0  0  0  0  0  0  0
   34.4000   29.6410   47.1270 N   0  0  0  0  0  0  0  0  0  0  0  0
   35.2630   29.9920   46.1760 C   0  0  0  0  0  0  0  0  0  0  0  0
   32.3130   28.7580   48.7050 H   0  0  0  0  0  0  0  0  0  0  0  0
   31.3230   28.2290   47.3190 H   0  0  0  0  0  0  0  0  0  0  0  0
   31.6500   28.2730   45.1560 C   0  0  0  0  0  0  0  0  0  0  0  0
   31.4910   27.5330   43.9700 C   0  0  0  0  0  3  0  0  0  0  0  0
   29.7240   27.0180   44.0390 S   0  0  0  0  0  0  0  0  0  0  0  0
   29.4930   27.9040   45.6890 C   0  0  0  0  0  0  0  0  0  0  0  0
   30.5320   28.3390   45.8730 N   0  0  0  0  0  0  0  0  0  0  0  0
   28.3200   28.0350   46.5500 N   0  0  0  0  0  0  0  0  0  0  0  0
   27.5320   29.0930   46.3130 C   0  0  0  0  0  3  0  0  0  0  0  0
   26.4290   29.1580   47.1710 C   0  0  0  0  0  3  0  0  0  0  0  0
   26.2220   28.2000   48.1500 C   0  0  0  0  0  0  0  0  0  0  0  0
   25.1080   28.2710   49.0120 N   0  0  0  0  0  0  0  0  0  0  0  0
   27.1050   27.1880   48.2710 N   0  0  0  0  0  0  0  0  0  0  0  0
   28.1840   27.0870   47.4640 C   0  0  0  0  0  0  0  0  0  0  0  0
   29.0060   26.1400   47.5810 O   0  0  0  0  0  0  0  0  0  0  0  0
   24.9680   27.5510   49.7340 H   0  0  0  0  0  0  0  0  0  0  0  0
   24.4330   29.0450   48.9180 H   0  0  0  0  0  0  0  0  0  0  0  0
  1  2  1  0  0  0  0
  3  2  2  0  0  0  0
  4  3  1  0  0  0  0
  5  6  1  0  0  0  0
  5  4  2  0  0  0  0
  6  1  2  0  0  0  0
  7  5  1  0  0  0  0
  8  7  1  0  0  0  0
  9 10  1  0  0  0  0
  9  8  2  0  0  0  0
 10 17  2  0  0  0  0
 11 10  1  0  0  0  0
 11 13  1  0  0  0  0
 12 11  2  0  0  0  0
 13 14  1  0  0  0  0
 14 16  2  0  0  0  0
 14 15  1  0  0  0  0
 15 18  1  0  0  0  0
 17  7  1  0  0  0  0
 17 16  1  0  0  0  0
 19 15  1  0  0  0  0
 20 13  1  0  0  0  0
 20 24  1  0  0  0  0
 21 22  1  0  0  0  0
 21 20  2  0  0  0  0
 22 23  1  0  0  0  0
 23 24  2  0  0  0  0
 23 25  1  0  0  0  0
 25 31  1  0  0  0  0
 26 25  1  0  0  0  0
 26 27  2  0  0  0  0
 27 28  1  0  0  0  0
 28 30  2  0  0  0  0
 28 29  1  0  0  0  0
 29 33  1  0  0  0  0
 31 32  2  0  0  0  0
 31 30  1  0  0  0  0
 34 29  1  0  0  0  0
M  END
>  <minimizedAffinity>
-7.01705217

$$$$

 OpenBabel03272514383D

 34 38  0  0  0  0  0  0  0  0999 V2000
   24.7310   35.8900   46.5340 C   0  0  0  0  0  3  0  0  0  0  0  0
   24.6330   35.9920   45.1160 C   0  0  0  0  0  3  0  0  0  0  0  0
   24.9200   34.8320   44.3770 C   0  0  0  0  0  3  0  0  0  0  0  0
   25.2690   33.6930   45.0260 N   0  0  0  0  0  0  0  0  0  0  0  0
   25.3480   33.6460   46.3900 C   0  0  0  0  0  0  0  0  0  0  0  0
   25.0810   34.7390   47.1260 N   0  0  0  0  0  0  0  0  0  0  0  0
   25.7100   32.4690   47.0870 N   0  0  0  0  0  0  0  0  0  0  0  0
   24.9600   32.0150   48.1130 C   0  0  0  0  0  3  0  0  0  0  0  0
   25.5490   30.8810   48.5790 N   0  0  0  0  0  0  0  0  0  0  0  0
   26.6490   30.6210   47.8680 C   0  0  0  0  0  0  0  0  0  0  0  0
   27.6680   29.6610   47.8210 C   0  0  0  0  0  0  0  0  0  0  0  0
   27.5840   28.7410   48.6760 O   0  0  0  0  0  0  0  0  0  0  0  0
   28.6560   29.7560   46.9000 N   0  0  0  0  0  0  0  0  0  0  0  0
   28.7040   30.7440   46.0180 C   0  0  0  0  0  0  0  0  0  0  0  0
   29.8230   30.6740   45.1260 N   0  0  0  0  0  0  0  0  0  0  0  0
   27.7380   31.6920   46.0280 N   0  0  0  0  0  0  0  0  0  0  0  0
   26.7530   31.6250   46.9220 C   0  0  0  0  0  0  0  0  0  0  0  0
   29.9510   31.3960   44.4030 H   0  0  0  0  0  0  0  0  0  0  0  0
   30.5000   29.9020   45.2080 H   0  0  0  0  0  0  0  0  0  0  0  0
   29.7050   28.7370   46.8800 C   0  0  0  0  0  0  0  0  0  0  0  0
   29.4730   27.4560   46.3450 C   0  0  0  0  0  3  0  0  0  0  0  0
   31.0960   26.6150   46.5770 S   0  0  0  0  0  0  0  0  0  0  0  0
   31.8260   28.1630   47.3700 C   0  0  0  0  0  0  0  0  0  0  0  0
   30.9430   28.8850   47.3400 N   0  0  0  0  0  0  0  0  0  0  0  0
   33.1610   28.4280   47.9020 N   0  0  0  0  0  0  0  0  0  0  0  0
   33.3430   28.1480   49.2000 C   0  0  0  0  0  3  0  0  0  0  0  0
   34.6400   28.4240   49.6450 C   0  0  0  0  0  3  0  0  0  0  0  0
   35.6000   28.9360   48.7870 C   0  0  0  0  0  0  0  0  0  0  0  0
   36.9060   29.2120   49.2410 N   0  0  0  0  0  0  0  0  0  0  0  0
   35.2690   29.1690   47.5000 N   0  0  0  0  0  0  0  0  0  0  0  0
   34.0280   28.9170   47.0300 C   0  0  0  0  0  0  0  0  0  0  0  0
   33.7240   29.1360   45.8270 O   0  0  0  0  0  0  0  0  0  0  0  0
   37.6080   29.5930   48.5900 H   0  0  0  0  0  0  0  0  0  0  0  0
   37.1580   29.0330   50.2240 H   0  0  0  0  0  0  0  0  0  0  0  0
  1  6  1  0  0  0  0
  2  1  2  0  0  0  0
  3  4  2  0  0  0  0
  3  2  1  0  0  0  0
  4  5  1  0  0  0  0
  5  7  1  0  0  0  0
  5  6  2  0  0  0  0
  7  8  1  0  0  0  0
  8  9  2  0  0  0  0
 10  9  1  0  0  0  0
 11 10  1  0  0  0  0
 11 12  2  0  0  0  0
 13 11  1  0  0  0  0
 14 16  2  0  0  0  0
 14 13  1  0  0  0  0
 15 19  1  0  0  0  0
 15 14  1  0  0  0  0
 16 17  1  0  0  0  0
 17  7  1  0  0  0  0
 17 10  2  0  0  0  0
 18 15  1  0  0  0  0
 20 13  1  0  0  0  0
 20 24  1  0  0  0  0
 21 22  1  0  0  0  0
 21 20  2  0  0  0  0
 22 23  1  0  0  0  0
 23 25  1  0  0  0  0
 24 23  2  0  0  0  0
 25 26  1  0  0  0  0
 26 27  2  0  0  0  0
 28 29  1  0  0  0  0
 28 27  1  0  0  0  0
 29 34  1  0  0  0  0
 30 28  2  0  0  0  0
 31 30  1  0  0  0  0
 31 25  1  0  0  0  0
 32 31  2  0  0  0  0
 33 29  1  0  0  0  0
M  END
>  <minimizedAffinity>
-6.67983341

$$$$

 OpenBabel03272514383D

 34 38  0  0  0  0  0  0  0  0999 V2000
   37.4710   31.4070   49.6520 C   0  0  0  0  0  3  0  0  0  0  0  0
   37.2720   30.3690   50.6080 C   0  0  0  0  0  3  0  0  0  0  0  0
   36.5070   29.2660   50.1940 C   0  0  0  0  0  3  0  0  0  0  0  0
   36.0030   29.2340   48.9350 N   0  0  0  0  0  0  0  0  0  0  0  0
   36.2240   30.2560   48.0540 C   0  0  0  0  0  0  0  0  0  0  0  0
   36.9500   31.3270   48.4190 N   0  0  0  0  0  0  0  0  0  0  0  0
   35.7070   30.2430   46.7350 N   0  0  0  0  0  0  0  0  0  0  0  0
   36.5080   30.4910   45.6780 C   0  0  0  0  0  3  0  0  0  0  0  0
   35.7410   30.4090   44.5580 N   0  0  0  0  0  0  0  0  0  0  0  0
   34.4810   30.1200   44.8950 C   0  0  0  0  0  0  0  0  0  0  0  0
   33.2480   29.9050   44.2670 C   0  0  0  0  0  0  0  0  0  0  0  0
   33.2560   29.9980   43.0130 O   0  0  0  0  0  0  0  0  0  0  0  0
   32.1470   29.6190   45.0030 N   0  0  0  0  0  0  0  0  0  0  0  0
   32.1860   29.5310   46.3240 C   0  0  0  0  0  0  0  0  0  0  0  0
   30.9220   29.2200   46.9240 N   0  0  0  0  0  0  0  0  0  0  0  0
   33.3570   29.7310   46.9700 N   0  0  0  0  0  0  0  0  0  0  0  0
   34.4580   30.0140   46.2740 C   0  0  0  0  0  0  0  0  0  0  0  0
   30.8460   29.1310   47.9470 H   0  0  0  0  0  0  0  0  0  0  0  0
   30.0900   29.0870   46.3320 H   0  0  0  0  0  0  0  0  0  0  0  0
   30.8750   29.4010   44.3150 C   0  0  0  0  0  0  0  0  0  0  0  0
   30.5510   28.1550   43.7470 C   0  0  0  0  0  3  0  0  0  0  0  0
   28.8770   28.4500   43.0350 S   0  0  0  0  0  0  0  0  0  0  0  0
   28.8980   30.2390   43.6360 C   0  0  0  0  0  0  0  0  0  0  0  0
   29.9150   30.3060   44.1490 N   0  0  0  0  0  0  0  0  0  0  0  0
   27.9060   31.3030   43.5080 N   0  0  0  0  0  0  0  0  0  0  0  0
   28.0090   32.0750   42.4170 C   0  0  0  0  0  3  0  0  0  0  0  0
   27.0300   33.0730   42.3560 C   0  0  0  0  0  3  0  0  0  0  0  0
   26.0750   33.2050   43.3520 C   0  0  0  0  0  0  0  0  0  0  0  0
   25.0910   34.2120   43.2850 N   0  0  0  0  0  0  0  0  0  0  0  0
   26.0970   32.3500   44.3950 N   0  0  0  0  0  0  0  0  0  0  0  0
   27.0240   31.3730   44.4930 C   0  0  0  0  0  0  0  0  0  0  0  0
   27.0400   30.5770   45.4690 O   0  0  0  0  0  0  0  0  0  0  0  0
   24.3880   34.2960   44.0330 H   0  0  0  0  0  0  0  0  0  0  0  0
   25.0750   34.8640   42.4860 H   0  0  0  0  0  0  0  0  0  0  0  0
  1  2  1  0  0  0  0
  3  2  2  0  0  0  0
  4  3  1  0  0  0  0
  5  6  1  0  0  0  0
  5  4  2  0  0  0  0
  6  1  2  0  0  0  0
  7  5  1  0  0  0  0
  8  7  1  0  0  0  0
  9 10  1  0  0  0  0
  9  8  2  0  0  0  0
 10 17  2  0  0  0  0
 11 10  1  0  0  0  0
 11 13  1  0  0  0  0
 12 11  2  0  0  0  0
 13 14  1  0  0  0  0
 14 15  1  0  0  0  0
 14 16  2  0  0  0  0
 15 18  1  0  0  0  0
 17  7  1  0  0  0  0
 17 16  1  0  0  0  0
 19 15  1  0  0  0  0
 20 13  1  0  0  0  0
 21 20  2  0  0  0  0
 22 23  1  0  0  0  0
 22 21  1  0  0  0  0
 23 24  2  0  0  0  0
 24 20  1  0  0  0  0
 25 23  1  0  0  0  0
 25 31  1  0  0  0  0
 26 25  1  0  0  0  0
 27 26  2  0  0  0  0
 27 28  1  0  0  0  0
 28 30  2  0  0  0  0
 29 28  1  0  0  0  0
 29 33  1  0  0  0  0
 30 31  1  0  0  0  0
 31 32  2  0  0  0  0
 34 29  1  0  0  0  0
M  END
>  <minimizedAffinity>
-6.46465349

$$$$

 OpenBabel03272514383D

 34 38  0  0  0  0  0  0  0  0999 V2000
   25.1060   35.8910   46.9910 C   0  0  0  0  0  3  0  0  0  0  0  0
   24.7310   36.0550   45.6250 C   0  0  0  0  0  3  0  0  0  0  0  0
   24.7450   34.9020   44.8230 C   0  0  0  0  0  3  0  0  0  0  0  0
   25.1050   33.7120   45.3650 N   0  0  0  0  0  0  0  0  0  0  0  0
   25.4560   33.6070   46.6820 C   0  0  0  0  0  0  0  0  0  0  0  0
   25.4540   34.6910   47.4770 N   0  0  0  0  0  0  0  0  0  0  0  0
   25.8350   32.3750   47.2680 N   0  0  0  0  0  0  0  0  0  0  0  0
   25.2700   31.9550   48.4190 C   0  0  0  0  0  3  0  0  0  0  0  0
   25.8270   30.7550   48.7330 N   0  0  0  0  0  0  0  0  0  0  0  0
   26.7270   30.4210   47.8040 C   0  0  0  0  0  0  0  0  0  0  0  0
   27.6150   29.3720   47.5310 C   0  0  0  0  0  0  0  0  0  0  0  0
   27.6170   28.4330   48.3680 O   0  0  0  0  0  0  0  0  0  0  0  0
   28.3980   29.4100   46.4270 N   0  0  0  0  0  0  0  0  0  0  0  0
   28.3620   30.4210   45.5720 C   0  0  0  0  0  0  0  0  0  0  0  0
   29.2630   30.2820   44.4660 N   0  0  0  0  0  0  0  0  0  0  0  0
   27.5170   31.4540   45.7980 N   0  0  0  0  0  0  0  0  0  0  0  0
   26.7340   31.4450   46.8760 C   0  0  0  0  0  0  0  0  0  0  0  0
   29.3110   31.0160   43.7450 H   0  0  0  0  0  0  0  0  0  0  0  0
   29.8620   29.4480   44.3920 H   0  0  0  0  0  0  0  0  0  0  0  0
   29.3150   28.2990   46.1720 C   0  0  0  0  0  0  0  0  0  0  0  0
   30.5700   28.2230   46.8040 C   0  0  0  0  0  3  0  0  0  0  0  0
   31.2760   26.6610   46.1290 S   0  0  0  0  0  0  0  0  0  0  0  0
   29.7290   26.3690   45.0890 C   0  0  0  0  0  0  0  0  0  0  0  0
   29.0890   27.2750   45.3540 N   0  0  0  0  0  0  0  0  0  0  0  0
   29.3830   25.2880   44.1690 N   0  0  0  0  0  0  0  0  0  0  0  0
   29.7390   25.4690   42.8900 C   0  0  0  0  0  3  0  0  0  0  0  0
   29.3800   24.3980   42.0640 C   0  0  0  0  0  3  0  0  0  0  0  0
   28.7230   23.2880   42.5710 C   0  0  0  0  0  0  0  0  0  0  0  0
   28.3630   22.2120   41.7330 N   0  0  0  0  0  0  0  0  0  0  0  0
   28.4290   23.2470   43.8860 N   0  0  0  0  0  0  0  0  0  0  0  0
   28.7580   24.2590   44.7190 C   0  0  0  0  0  0  0  0  0  0  0  0
   28.4810   24.2160   45.9470 O   0  0  0  0  0  0  0  0  0  0  0  0
   27.8760   21.3940   42.1260 H   0  0  0  0  0  0  0  0  0  0  0  0
   28.5890   22.2440   40.7280 H   0  0  0  0  0  0  0  0  0  0  0  0
  1  6  1  0  0  0  0
  2  1  2  0  0  0  0
  3  4  2  0  0  0  0
  3  2  1  0  0  0  0
  4  5  1  0  0  0  0
  5  7  1  0  0  0  0
  5  6  2  0  0  0  0
  7  8  1  0  0  0  0
  8  9  2  0  0  0  0
 10  9  1  0  0  0  0
 11 10  1  0  0  0  0
 11 12  2  0  0  0  0
 13 11  1  0  0  0  0
 14 16  2  0  0  0  0
 14 13  1  0  0  0  0
 15 14  1  0  0  0  0
 16 17  1  0  0  0  0
 17  7  1  0  0  0  0
 17 10  2  0  0  0  0
 18 15  1  0  0  0  0
 19 15  1  0  0  0  0
 20 13  1  0  0  0  0
 20 21  2  0  0  0  0
 22 21  1  0  0  0  0
 23 24  2  0  0  0  0
 23 22  1  0  0  0  0
 24 20  1  0  0  0  0
 25 31  1  0  0  0  0
 25 23  1  0  0  0  0
 26 25  1  0  0  0  0
 27 28  1  0  0  0  0
 27 26  2  0  0  0  0
 28 30  2  0  0  0  0
 29 33  1  0  0  0  0
 29 28  1  0  0  0  0
 30 31  1  0  0  0  0
 31 32  2  0  0  0  0
 34 29  1  0  0  0  0
M  END
>  <minimizedAffinity>
-6.45409012

$$$$

 OpenBabel03272514383D

 34 38  0  0  0  0  0  0  0  0999 V2000
   39.0310   31.6590   48.9670 C   0  0  0  0  0  3  0  0  0  0  0  0
   38.6590   33.0050   49.2510 C   0  0  0  0  0  3  0  0  0  0  0  0
   37.2950   33.2490   49.4830 C   0  0  0  0  0  3  0  0  0  0  0  0
   36.4110   32.2210   49.4270 N   0  0  0  0  0  0  0  0  0  0  0  0
   36.8190   30.9460   49.1500 C   0  0  0  0  0  0  0  0  0  0  0  0
   38.1170   30.6790   48.9230 N   0  0  0  0  0  0  0  0  0  0  0  0
   35.9140   29.8590   49.0870 N   0  0  0  0  0  0  0  0  0  0  0  0
   36.1540   28.7200   49.7700 C   0  0  0  0  0  3  0  0  0  0  0  0
   35.1240   27.8690   49.5180 N   0  0  0  0  0  0  0  0  0  0  0  0
   34.2500   28.4520   48.6930 C   0  0  0  0  0  0  0  0  0  0  0  0
   33.0330   28.1510   48.0670 C   0  0  0  0  0  0  0  0  0  0  0  0
   32.5690   27.0070   48.3090 O   0  0  0  0  0  0  0  0  0  0  0  0
   32.4340   29.0620   47.2640 N   0  0  0  0  0  0  0  0  0  0  0  0
   32.9610   30.2550   47.0370 C   0  0  0  0  0  0  0  0  0  0  0  0
   32.1820   31.0800   46.1600 N   0  0  0  0  0  0  0  0  0  0  0  0
   34.1350   30.5870   47.6230 N   0  0  0  0  0  0  0  0  0  0  0  0
   34.7480   29.7130   48.4190 C   0  0  0  0  0  0  0  0  0  0  0  0
   32.5060   32.0270   45.9200 H   0  0  0  0  0  0  0  0  0  0  0  0
   31.2980   30.7240   45.7700 H   0  0  0  0  0  0  0  0  0  0  0  0
   31.1660   28.7140   46.6240 C   0  0  0  0  0  0  0  0  0  0  0  0
   31.1220   28.1690   45.3280 C   0  0  0  0  0  3  0  0  0  0  0  0
   29.3170   27.9350   45.0410 S   0  0  0  0  0  0  0  0  0  0  0  0
   28.9190   28.6240   46.7520 C   0  0  0  0  0  0  0  0  0  0  0  0
   29.9580   28.8620   47.1600 N   0  0  0  0  0  0  0  0  0  0  0  0
   27.6410   28.8250   47.4300 N   0  0  0  0  0  0  0  0  0  0  0  0
   27.0550   30.0160   47.2400 C   0  0  0  0  0  3  0  0  0  0  0  0
   25.8370   30.1420   47.9150 C   0  0  0  0  0  3  0  0  0  0  0  0
   25.3340   29.1090   48.6900 C   0  0  0  0  0  0  0  0  0  0  0  0
   24.1050   29.2430   49.3690 N   0  0  0  0  0  0  0  0  0  0  0  0
   26.0390   27.9640   48.7890 N   0  0  0  0  0  0  0  0  0  0  0  0
   27.2190   27.8000   48.1530 C   0  0  0  0  0  0  0  0  0  0  0  0
   27.8740   26.7280   48.2490 O   0  0  0  0  0  0  0  0  0  0  0  0
   23.7450   28.4660   49.9400 H   0  0  0  0  0  0  0  0  0  0  0  0
   23.5670   30.1190   49.2920 H   0  0  0  0  0  0  0  0  0  0  0  0
  1  2  1  0  0  0  0
  2  3  2  0  0  0  0
  4  3  1  0  0  0  0
  5  4  2  0  0  0  0
  6  1  2  0  0  0  0
  6  5  1  0  0  0  0
  7  5  1  0  0  0  0
  7  8  1  0  0  0  0
  9  8  2  0  0  0  0
 10  9  1  0  0  0  0
 11 12  2  0  0  0  0
 11 10  1  0  0  0  0
 13 11  1  0  0  0  0
 14 13  1  0  0  0  0
 14 16  2  0  0  0  0
 15 14  1  0  0  0  0
 16 17  1  0  0  0  0
 17 10  2  0  0  0  0
 17  7  1  0  0  0  0
 18 15  1  0  0  0  0
 19 15  1  0  0  0  0
 20 24  1  0  0  0  0
 20 13  1  0  0  0  0
 21 20  2  0  0  0  0
 22 21  1  0  0  0  0
 22 23  1  0  0  0  0
 23 24  2  0  0  0  0
 23 25  1  0  0  0  0
 25 31  1  0  0  0  0
 26 25  1  0  0  0  0
 26 27  2  0  0  0  0
 27 28  1  0  0  0  0
 28 30  2  0  0  0  0
 28 29  1  0  0  0  0
 29 33  1  0  0  0  0
 31 32  2  0  0  0  0
 31 30  1  0  0  0  0
 34 29  1  0  0  0  0
M  END
>  <minimizedAffinity>
-6.44379234

$$$$
