
 OpenBabel03272514453D

 34 39  0  0  0  0  0  0  0  0999 V2000
   33.6340   27.7630   44.7930 C   0  0  0  0  0  3  0  0  0  0  0  0
   32.3080   28.2080   44.7320 C   0  0  0  0  0  3  0  0  0  0  0  0
   31.8870   29.0750   45.7440 C   0  0  0  0  0  0  0  0  0  0  0  0
   32.8040   29.3880   46.6700 N   0  0  0  0  0  0  0  0  0  0  0  0
   34.0780   28.9620   46.7320 C   0  0  0  0  0  0  0  0  0  0  0  0
   34.4620   28.1370   45.7590 N   0  0  0  0  0  0  0  0  0  0  0  0
   30.5600   29.5940   45.7850 N   0  0  0  0  0  0  0  0  0  0  0  0
   30.1500   30.5310   44.9400 C   0  0  0  0  0  3  0  0  0  0  0  0
   28.8470   30.7790   45.2670 C   0  0  0  0  0  0  0  0  0  0  0  0
   28.4940   29.9960   46.2950 N   0  0  0  0  0  0  0  0  0  0  0  0
   29.5750   29.2480   46.6230 C   0  0  0  0  0  0  0  0  0  0  0  0
   29.6200   28.2830   47.6690 N   0  0  0  0  0  0  0  0  0  0  0  0
   30.3840   27.1510   47.6280 C   0  0  0  0  0  3  0  0  0  0  0  0
   30.1940   26.4730   48.7610 N   0  0  0  0  0  0  0  0  0  0  0  0
   29.3330   27.1420   49.5170 C   0  0  0  0  0  0  0  0  0  0  0  0
   28.7230   27.0070   50.7610 C   0  0  0  0  0  3  0  0  0  0  0  0
   27.8550   27.9000   51.2730 N   0  0  0  0  0  0  0  0  0  0  0  0
   27.5430   28.9920   50.5510 C   0  0  0  0  0  3  0  0  0  0  0  0
   28.0840   29.2200   49.3190 N   0  0  0  0  0  0  0  0  0  0  0  0
   28.9590   28.2870   48.8460 C   0  0  0  0  0  0  0  0  0  0  0  0
   34.7860   29.5040   47.8750 C   0  0  0  0  0  0  0  0  0  0  0  0
   34.3270   29.2970   49.1570 C   0  0  0  0  0  3  0  0  0  0  0  0
   34.9540   29.7850   50.2940 C   0  0  0  0  0  3  0  0  0  0  0  0
   36.1080   30.5270   50.1780 C   0  0  0  0  0  3  0  0  0  0  0  0
   36.5890   30.7510   48.9290 C   0  0  0  0  0  0  0  0  0  0  0  0
   37.7480   31.4970   48.8120 C   0  0  0  0  0  3  0  0  0  0  0  0
   38.3050   31.7720   47.5790 C   0  0  0  0  0  3  0  0  0  0  0  0
   37.6450   31.2630   46.4680 C   0  0  0  0  0  3  0  0  0  0  0  0
   36.4910   30.5250   46.6270 C   0  0  0  0  0  3  0  0  0  0  0  0
   35.9330   30.2460   47.8230 C   0  0  0  0  0  0  0  0  0  0  0  0
   27.8980   31.7440   44.6390 C   0  0  0  0  0  0  0  0  0  0  0  0
   27.1150   32.4000   45.5610 F   0  0  0  0  0  0  0  0  0  0  0  0
   27.0060   31.0610   43.7910 F   0  0  0  0  0  0  0  0  0  0  0  0
   28.5800   32.6170   43.8060 F   0  0  0  0  0  0  0  0  0  0  0  0
  1  6  1  0  0  0  0
  2  1  2  0  0  0  0
  2  3  1  0  0  0  0
  3  7  1  0  0  0  0
  3  4  2  0  0  0  0
  4  5  1  0  0  0  0
  5 21  1  0  0  0  0
  6  5  2  0  0  0  0
  7 11  1  0  0  0  0
  8  9  2  0  0  0  0
  8  7  1  0  0  0  0
  9 10  1  0  0  0  0
 10 11  2  0  0  0  0
 11 12  1  0  0  0  0
 12 20  1  0  0  0  0
 13 12  1  0  0  0  0
 13 14  2  0  0  0  0
 14 15  1  0  0  0  0
 15 16  1  0  0  0  0
 16 17  2  0  0  0  0
 18 17  1  0  0  0  0
 19 18  2  0  0  0  0
 20 19  1  0  0  0  0
 20 15  2  0  0  0  0
 21 22  1  0  0  0  0
 22 23  2  0  0  0  0
 24 23  1  0  0  0  0
 25 24  2  0  0  0  0
 26 25  1  0  0  0  0
 27 26  2  0  0  0  0
 28 29  2  0  0  0  0
 28 27  1  0  0  0  0
 29 30  1  0  0  0  0
 30 21  2  0  0  0  0
 30 25  1  0  0  0  0
 31  9  1  0  0  0  0
 31 32  1  0  0  0  0
 33 31  1  0  0  0  0
 34 31  1  0  0  0  0
M  END
>  <minimizedAffinity>
-8.2741518

$$$$

 OpenBabel03272514453D

 34 39  0  0  0  0  0  0  0  0999 V2000
   39.1680   32.6270   46.1380 C   0  0  0  0  0  3  0  0  0  0  0  0
   38.8060   32.6200   44.7860 C   0  0  0  0  0  3  0  0  0  0  0  0
   37.6620   31.8940   44.4440 C   0  0  0  0  0  0  0  0  0  0  0  0
   37.0320   31.2780   45.4540 N   0  0  0  0  0  0  0  0  0  0  0  0
   37.3780   31.2820   46.7530 C   0  0  0  0  0  0  0  0  0  0  0  0
   38.4710   31.9790   47.0610 N   0  0  0  0  0  0  0  0  0  0  0  0
   37.1960   31.8160   43.0990 N   0  0  0  0  0  0  0  0  0  0  0  0
   36.6070   32.8460   42.5030 C   0  0  0  0  0  3  0  0  0  0  0  0
   36.2990   32.4180   41.2440 C   0  0  0  0  0  0  0  0  0  0  0  0
   36.7020   31.1480   41.0990 N   0  0  0  0  0  0  0  0  0  0  0  0
   37.2670   30.7680   42.2710 C   0  0  0  0  0  0  0  0  0  0  0  0
   37.8260   29.4850   42.5360 N   0  0  0  0  0  0  0  0  0  0  0  0
   38.8840   29.2730   43.3720 C   0  0  0  0  0  3  0  0  0  0  0  0
   39.1480   27.9660   43.3950 N   0  0  0  0  0  0  0  0  0  0  0  0
   38.2890   27.3450   42.5990 C   0  0  0  0  0  0  0  0  0  0  0  0
   38.0160   26.0460   42.1810 C   0  0  0  0  0  3  0  0  0  0  0  0
   37.0270   25.7230   41.3250 N   0  0  0  0  0  0  0  0  0  0  0  0
   36.2490   26.7040   40.8320 C   0  0  0  0  0  3  0  0  0  0  0  0
   36.4320   28.0120   41.1770 N   0  0  0  0  0  0  0  0  0  0  0  0
   37.4450   28.2860   42.0470 C   0  0  0  0  0  0  0  0  0  0  0  0
   36.4660   30.5040   47.5690 C   0  0  0  0  0  0  0  0  0  0  0  0
   35.3230   29.9560   47.0310 C   0  0  0  0  0  3  0  0  0  0  0  0
   34.4100   29.2020   47.7510 C   0  0  0  0  0  3  0  0  0  0  0  0
   34.6190   28.9650   49.0910 C   0  0  0  0  0  3  0  0  0  0  0  0
   35.7360   29.4910   49.6560 C   0  0  0  0  0  0  0  0  0  0  0  0
   35.9460   29.2530   51.0030 C   0  0  0  0  0  3  0  0  0  0  0  0
   37.0560   29.7510   51.6560 C   0  0  0  0  0  3  0  0  0  0  0  0
   37.9450   30.4990   50.8950 C   0  0  0  0  0  3  0  0  0  0  0  0
   37.6980   30.7150   49.5550 C   0  0  0  0  0  3  0  0  0  0  0  0
   36.6200   30.2360   48.9000 C   0  0  0  0  0  0  0  0  0  0  0  0
   35.6260   33.1690   40.1440 C   0  0  0  0  0  0  0  0  0  0  0  0
   36.0360   34.4800   40.0650 F   0  0  0  0  0  0  0  0  0  0  0  0
   34.2380   33.2120   40.3690 F   0  0  0  0  0  0  0  0  0  0  0  0
   35.7690   32.4950   38.9420 F   0  0  0  0  0  0  0  0  0  0  0  0
  1  6  1  0  0  0  0
  2  1  2  0  0  0  0
  3  2  1  0  0  0  0
  3  4  2  0  0  0  0
  4  5  1  0  0  0  0
  5  6  2  0  0  0  0
  5 21  1  0  0  0  0
  7  3  1  0  0  0  0
  8  7  1  0  0  0  0
  9  8  2  0  0  0  0
 10  9  1  0  0  0  0
 10 11  2  0  0  0  0
 11 12  1  0  0  0  0
 11  7  1  0  0  0  0
 12 13  1  0  0  0  0
 13 14  2  0  0  0  0
 15 14  1  0  0  0  0
 16 15  1  0  0  0  0
 17 16  2  0  0  0  0
 18 19  2  0  0  0  0
 18 17  1  0  0  0  0
 19 20  1  0  0  0  0
 20 12  1  0  0  0  0
 20 15  2  0  0  0  0
 21 30  1  0  0  0  0
 22 21  2  0  0  0  0
 22 23  1  0  0  0  0
 23 24  2  0  0  0  0
 24 25  1  0  0  0  0
 25 26  1  0  0  0  0
 26 27  2  0  0  0  0
 28 27  1  0  0  0  0
 29 28  2  0  0  0  0
 30 29  1  0  0  0  0
 30 25  2  0  0  0  0
 31 33  1  0  0  0  0
 31  9  1  0  0  0  0
 32 31  1  0  0  0  0
 34 31  1  0  0  0  0
M  END
>  <minimizedAffinity>
-8.10744476

$$$$

 OpenBabel03272514453D

 34 39  0  0  0  0  0  0  0  0999 V2000
   39.0440   29.8470   44.0270 C   0  0  0  0  0  3  0  0  0  0  0  0
   37.9850   30.2790   43.2210 C   0  0  0  0  0  3  0  0  0  0  0  0
   37.0490   31.1320   43.8140 C   0  0  0  0  0  0  0  0  0  0  0  0
   37.2690   31.4440   45.0980 N   0  0  0  0  0  0  0  0  0  0  0  0
   38.2860   31.0300   45.8750 C   0  0  0  0  0  0  0  0  0  0  0  0
   39.1680   30.2190   45.2940 N   0  0  0  0  0  0  0  0  0  0  0  0
   35.9290   31.6370   43.0910 N   0  0  0  0  0  0  0  0  0  0  0  0
   36.0620   32.5780   42.1650 C   0  0  0  0  0  3  0  0  0  0  0  0
   34.8030   32.8110   41.6910 C   0  0  0  0  0  0  0  0  0  0  0  0
   33.9370   32.0140   42.3300 N   0  0  0  0  0  0  0  0  0  0  0  0
   34.6470   31.2730   43.2150 C   0  0  0  0  0  0  0  0  0  0  0  0
   34.1010   30.2970   44.0970 N   0  0  0  0  0  0  0  0  0  0  0  0
   34.7660   29.1740   44.4960 C   0  0  0  0  0  3  0  0  0  0  0  0
   33.9730   28.4830   45.3160 N   0  0  0  0  0  0  0  0  0  0  0  0
   32.8260   29.1350   45.4470 C   0  0  0  0  0  0  0  0  0  0  0  0
   31.6170   28.9810   46.1190 C   0  0  0  0  0  3  0  0  0  0  0  0
   30.5990   29.8600   46.0460 N   0  0  0  0  0  0  0  0  0  0  0  0
   30.7400   30.9560   45.2790 C   0  0  0  0  0  3  0  0  0  0  0  0
   31.8850   31.2020   44.5770 N   0  0  0  0  0  0  0  0  0  0  0  0
   32.8860   30.2830   44.6850 C   0  0  0  0  0  0  0  0  0  0  0  0
   38.2060   31.5670   47.2200 C   0  0  0  0  0  0  0  0  0  0  0  0
   38.8660   32.7260   47.5620 C   0  0  0  0  0  3  0  0  0  0  0  0
   38.8320   33.2940   48.8260 C   0  0  0  0  0  3  0  0  0  0  0  0
   38.1070   32.6940   49.8310 C   0  0  0  0  0  3  0  0  0  0  0  0
   37.4440   31.5480   49.5300 C   0  0  0  0  0  0  0  0  0  0  0  0
   36.7160   30.9450   50.5390 C   0  0  0  0  0  3  0  0  0  0  0  0
   36.0120   29.7770   50.3180 C   0  0  0  0  0  3  0  0  0  0  0  0
   36.0730   29.2440   49.0380 C   0  0  0  0  0  3  0  0  0  0  0  0
   36.8120   29.8760   48.0590 C   0  0  0  0  0  3  0  0  0  0  0  0
   37.5050   31.0170   48.2560 C   0  0  0  0  0  0  0  0  0  0  0  0
   34.3690   33.7730   40.6360 C   0  0  0  0  0  0  0  0  0  0  0  0
   33.3530   34.6010   41.0540 F   0  0  0  0  0  0  0  0  0  0  0  0
   33.8640   33.0740   39.5240 F   0  0  0  0  0  0  0  0  0  0  0  0
   35.4590   34.4750   40.1470 F   0  0  0  0  0  0  0  0  0  0  0  0
  1  6  1  0  0  0  0
  2  3  1  0  0  0  0
  2  1  2  0  0  0  0
  3  4  2  0  0  0  0
  4  5  1  0  0  0  0
  5 21  1  0  0  0  0
  6  5  2  0  0  0  0
  7 11  1  0  0  0  0
  7  3  1  0  0  0  0
  8  7  1  0  0  0  0
  9  8  2  0  0  0  0
  9 10  1  0  0  0  0
 10 11  2  0  0  0  0
 11 12  1  0  0  0  0
 12 13  1  0  0  0  0
 12 20  1  0  0  0  0
 13 14  2  0  0  0  0
 14 15  1  0  0  0  0
 15 16  1  0  0  0  0
 17 16  2  0  0  0  0
 18 17  1  0  0  0  0
 19 20  1  0  0  0  0
 19 18  2  0  0  0  0
 20 15  2  0  0  0  0
 21 22  2  0  0  0  0
 21 30  1  0  0  0  0
 22 23  1  0  0  0  0
 23 24  2  0  0  0  0
 25 24  1  0  0  0  0
 25 26  1  0  0  0  0
 27 26  2  0  0  0  0
 28 27  1  0  0  0  0
 29 30  1  0  0  0  0
 29 28  2  0  0  0  0
 30 25  2  0  0  0  0
 31 32  1  0  0  0  0
 31  9  1  0  0  0  0
 33 31  1  0  0  0  0
 34 31  1  0  0  0  0
M  END
>  <minimizedAffinity>
-7.86514425

$$$$

 OpenBabel03272514453D

 34 39  0  0  0  0  0  0  0  0999 V2000
   32.0830   25.3300   47.6900 C   0  0  0  0  0  3  0  0  0  0  0  0
   33.0090   26.3340   47.3840 C   0  0  0  0  0  3  0  0  0  0  0  0
   32.6790   27.6350   47.7730 C   0  0  0  0  0  0  0  0  0  0  0  0
   31.5030   27.7820   48.3990 N   0  0  0  0  0  0  0  0  0  0  0  0
   30.6120   26.8190   48.6940 C   0  0  0  0  0  0  0  0  0  0  0  0
   30.9430   25.5850   48.3170 N   0  0  0  0  0  0  0  0  0  0  0  0
   33.5440   28.7390   47.5150 N   0  0  0  0  0  0  0  0  0  0  0  0
   34.6670   28.9190   48.1990 C   0  0  0  0  0  3  0  0  0  0  0  0
   35.2300   30.0550   47.6910 C   0  0  0  0  0  0  0  0  0  0  0  0
   34.4460   30.5390   46.7180 N   0  0  0  0  0  0  0  0  0  0  0  0
   33.3810   29.7090   46.6080 C   0  0  0  0  0  0  0  0  0  0  0  0
   32.3070   29.8670   45.6860 N   0  0  0  0  0  0  0  0  0  0  0  0
   31.6200   28.8250   45.1310 C   0  0  0  0  0  3  0  0  0  0  0  0
   30.6850   29.3210   44.3200 N   0  0  0  0  0  0  0  0  0  0  0  0
   30.7610   30.6450   44.3440 C   0  0  0  0  0  0  0  0  0  0  0  0
   30.1160   31.7310   43.7590 C   0  0  0  0  0  3  0  0  0  0  0  0
   30.4400   33.0160   43.9980 N   0  0  0  0  0  0  0  0  0  0  0  0
   31.4470   33.2850   44.8490 C   0  0  0  0  0  3  0  0  0  0  0  0
   32.1460   32.2940   45.4760 N   0  0  0  0  0  0  0  0  0  0  0  0
   31.7780   31.0100   45.2000 C   0  0  0  0  0  0  0  0  0  0  0  0
   29.4440   27.3400   49.3790 C   0  0  0  0  0  0  0  0  0  0  0  0
   29.1190   26.9190   50.6490 C   0  0  0  0  0  3  0  0  0  0  0  0
   28.0200   27.3750   51.3600 C   0  0  0  0  0  3  0  0  0  0  0  0
   27.1750   28.3060   50.7980 C   0  0  0  0  0  3  0  0  0  0  0  0
   27.4640   28.7420   49.5460 C   0  0  0  0  0  0  0  0  0  0  0  0
   26.6150   29.6770   48.9810 C   0  0  0  0  0  3  0  0  0  0  0  0
   26.8360   30.1740   47.7110 C   0  0  0  0  0  3  0  0  0  0  0  0
   27.9490   29.6900   47.0360 C   0  0  0  0  0  3  0  0  0  0  0  0
   28.7710   28.7580   47.6350 C   0  0  0  0  0  3  0  0  0  0  0  0
   28.5700   28.2610   48.8730 C   0  0  0  0  0  0  0  0  0  0  0  0
   36.5040   30.7210   48.0910 C   0  0  0  0  0  0  0  0  0  0  0  0
   36.3280   31.6600   49.0820 F   0  0  0  0  0  0  0  0  0  0  0  0
   37.0510   31.4150   46.9960 F   0  0  0  0  0  0  0  0  0  0  0  0
   37.4600   29.7730   48.4220 F   0  0  0  0  0  0  0  0  0  0  0  0
  1  6  1  0  0  0  0
  2  1  2  0  0  0  0
  2  3  1  0  0  0  0
  3  4  2  0  0  0  0
  4  5  1  0  0  0  0
  5 21  1  0  0  0  0
  6  5  2  0  0  0  0
  7  3  1  0  0  0  0
  7  8  1  0  0  0  0
  9 31  1  0  0  0  0
  9  8  2  0  0  0  0
 10  9  1  0  0  0  0
 11 10  2  0  0  0  0
 11  7  1  0  0  0  0
 12 11  1  0  0  0  0
 13 12  1  0  0  0  0
 14 15  1  0  0  0  0
 14 13  2  0  0  0  0
 15 20  1  0  0  0  0
 16 17  1  0  0  0  0
 16 15  2  0  0  0  0
 17 18  2  0  0  0  0
 18 19  1  0  0  0  0
 20 19  2  0  0  0  0
 20 12  1  0  0  0  0
 21 22  1  0  0  0  0
 22 23  2  0  0  0  0
 24 23  1  0  0  0  0
 25 24  2  0  0  0  0
 26 25  1  0  0  0  0
 27 26  2  0  0  0  0
 28 29  2  0  0  0  0
 28 27  1  0  0  0  0
 29 30  1  0  0  0  0
 30 21  2  0  0  0  0
 30 25  1  0  0  0  0
 31 34  1  0  0  0  0
 31 32  1  0  0  0  0
 33 31  1  0  0  0  0
M  END
>  <minimizedAffinity>
-7.82057858

$$$$

 OpenBabel03272514453D

 34 39  0  0  0  0  0  0  0  0999 V2000
   31.1170   25.4680   46.3220 C   0  0  0  0  0  3  0  0  0  0  0  0
   32.1400   26.4230   46.3390 C   0  0  0  0  0  3  0  0  0  0  0  0
   31.8140   27.6880   46.8370 C   0  0  0  0  0  0  0  0  0  0  0  0
   30.5480   27.8500   47.2470 N   0  0  0  0  0  0  0  0  0  0  0  0
   29.5630   26.9350   47.2320 C   0  0  0  0  0  0  0  0  0  0  0  0
   29.8920   25.7350   46.7540 N   0  0  0  0  0  0  0  0  0  0  0  0
   32.7740   28.7390   46.9030 N   0  0  0  0  0  0  0  0  0  0  0  0
   33.7490   28.7380   47.8030 C   0  0  0  0  0  3  0  0  0  0  0  0
   34.4640   29.8790   47.5740 C   0  0  0  0  0  0  0  0  0  0  0  0
   33.9160   30.5450   46.5490 N   0  0  0  0  0  0  0  0  0  0  0  0
   32.8480   29.8260   46.1260 C   0  0  0  0  0  0  0  0  0  0  0  0
   31.9870   30.1880   45.0510 N   0  0  0  0  0  0  0  0  0  0  0  0
   31.3640   29.2850   44.2380 C   0  0  0  0  0  3  0  0  0  0  0  0
   30.6360   29.9560   43.3430 N   0  0  0  0  0  0  0  0  0  0  0  0
   30.7800   31.2550   43.5660 C   0  0  0  0  0  0  0  0  0  0  0  0
   30.3260   32.4560   43.0290 C   0  0  0  0  0  3  0  0  0  0  0  0
   30.6690   33.6690   43.5030 N   0  0  0  0  0  0  0  0  0  0  0  0
   31.5030   33.7440   44.5550 C   0  0  0  0  0  3  0  0  0  0  0  0
   32.0080   32.6270   45.1570 N   0  0  0  0  0  0  0  0  0  0  0  0
   31.6290   31.4230   44.6400 C   0  0  0  0  0  0  0  0  0  0  0  0
   28.3150   27.4600   47.7520 C   0  0  0  0  0  0  0  0  0  0  0  0
   27.3720   28.0090   46.9130 C   0  0  0  0  0  3  0  0  0  0  0  0
   26.1600   28.5280   47.3420 C   0  0  0  0  0  3  0  0  0  0  0  0
   25.8400   28.5120   48.6820 C   0  0  0  0  0  3  0  0  0  0  0  0
   26.7480   27.9780   49.5390 C   0  0  0  0  0  0  0  0  0  0  0  0
   26.4280   27.9630   50.8840 C   0  0  0  0  0  3  0  0  0  0  0  0
   27.2930   27.4380   51.8230 C   0  0  0  0  0  3  0  0  0  0  0  0
   28.4950   26.9290   51.3490 C   0  0  0  0  0  3  0  0  0  0  0  0
   28.7770   26.9640   49.9990 C   0  0  0  0  0  3  0  0  0  0  0  0
   27.9440   27.4720   49.0680 C   0  0  0  0  0  0  0  0  0  0  0  0
   35.6710   30.3810   48.2950 C   0  0  0  0  0  0  0  0  0  0  0  0
   36.4790   31.1640   47.5030 F   0  0  0  0  0  0  0  0  0  0  0  0
   36.4700   29.2990   48.7090 F   0  0  0  0  0  0  0  0  0  0  0  0
   35.3010   31.0180   49.4680 F   0  0  0  0  0  0  0  0  0  0  0  0
  1  2  2  0  0  0  0
  1  6  1  0  0  0  0
  2  3  1  0  0  0  0
  3  7  1  0  0  0  0
  3  4  2  0  0  0  0
  5  4  1  0  0  0  0
  5 21  1  0  0  0  0
  6  5  2  0  0  0  0
  7  8  1  0  0  0  0
  9  8  2  0  0  0  0
  9 31  1  0  0  0  0
 10  9  1  0  0  0  0
 11 10  2  0  0  0  0
 11  7  1  0  0  0  0
 12 11  1  0  0  0  0
 13 12  1  0  0  0  0
 14 15  1  0  0  0  0
 14 13  2  0  0  0  0
 15 20  1  0  0  0  0
 16 17  1  0  0  0  0
 16 15  2  0  0  0  0
 17 18  2  0  0  0  0
 18 19  1  0  0  0  0
 20 12  1  0  0  0  0
 20 19  2  0  0  0  0
 21 30  1  0  0  0  0
 22 23  1  0  0  0  0
 22 21  2  0  0  0  0
 23 24  2  0  0  0  0
 24 25  1  0  0  0  0
 25 26  1  0  0  0  0
 26 27  2  0  0  0  0
 28 27  1  0  0  0  0
 29 28  2  0  0  0  0
 30 25  2  0  0  0  0
 30 29  1  0  0  0  0
 31 33  1  0  0  0  0
 31 34  1  0  0  0  0
 32 31  1  0  0  0  0
M  END
>  <minimizedAffinity>
-7.77842283

$$$$

 OpenBabel03272514453D

 34 39  0  0  0  0  0  0  0  0999 V2000
   32.6070   24.5680   47.2400 C   0  0  0  0  0  3  0  0  0  0  0  0
   31.2920   24.7220   46.7870 C   0  0  0  0  0  3  0  0  0  0  0  0
   30.9310   25.9890   46.3200 C   0  0  0  0  0  0  0  0  0  0  0  0
   31.8890   26.9260   46.3580 N   0  0  0  0  0  0  0  0  0  0  0  0
   33.1530   26.7800   46.7930 C   0  0  0  0  0  0  0  0  0  0  0  0
   33.4800   25.5660   47.2340 N   0  0  0  0  0  0  0  0  0  0  0  0
   29.6190   26.2650   45.8340 N   0  0  0  0  0  0  0  0  0  0  0  0
   29.2020   25.8150   44.6570 C   0  0  0  0  0  3  0  0  0  0  0  0
   27.9200   26.2640   44.5230 C   0  0  0  0  0  0  0  0  0  0  0  0
   27.5840   26.9720   45.6100 N   0  0  0  0  0  0  0  0  0  0  0  0
   28.6580   26.9730   46.4370 C   0  0  0  0  0  0  0  0  0  0  0  0
   28.7170   27.6170   47.7060 N   0  0  0  0  0  0  0  0  0  0  0  0
   29.4490   27.1540   48.7620 C   0  0  0  0  0  3  0  0  0  0  0  0
   29.2840   27.9900   49.7880 N   0  0  0  0  0  0  0  0  0  0  0  0
   28.4690   28.9670   49.4140 C   0  0  0  0  0  0  0  0  0  0  0  0
   27.9030   30.1120   49.9650 C   0  0  0  0  0  3  0  0  0  0  0  0
   27.0760   30.9390   49.2960 N   0  0  0  0  0  0  0  0  0  0  0  0
   26.7670   30.6540   48.0180 C   0  0  0  0  0  3  0  0  0  0  0  0
   27.2680   29.5550   47.3820 N   0  0  0  0  0  0  0  0  0  0  0  0
   28.1000   28.7500   48.1030 C   0  0  0  0  0  0  0  0  0  0  0  0
   33.9160   28.0090   46.6900 C   0  0  0  0  0  0  0  0  0  0  0  0
   34.1670   28.5880   45.4660 C   0  0  0  0  0  3  0  0  0  0  0  0
   34.8870   29.7600   45.2950 C   0  0  0  0  0  3  0  0  0  0  0  0
   35.4020   30.4170   46.3900 C   0  0  0  0  0  3  0  0  0  0  0  0
   35.1750   29.8740   47.6130 C   0  0  0  0  0  0  0  0  0  0  0  0
   35.6930   30.5330   48.7140 C   0  0  0  0  0  3  0  0  0  0  0  0
   35.5080   30.0490   49.9940 C   0  0  0  0  0  3  0  0  0  0  0  0
   34.7800   28.8730   50.1180 C   0  0  0  0  0  3  0  0  0  0  0  0
   34.2820   28.2460   48.9950 C   0  0  0  0  0  3  0  0  0  0  0  0
   34.4510   28.7040   47.7380 C   0  0  0  0  0  0  0  0  0  0  0  0
   26.9730   26.0510   43.3890 C   0  0  0  0  0  0  0  0  0  0  0  0
   25.8060   26.7680   43.5250 F   0  0  0  0  0  0  0  0  0  0  0  0
   26.5890   24.6980   43.3300 F   0  0  0  0  0  0  0  0  0  0  0  0
   27.6060   26.2930   42.1810 F   0  0  0  0  0  0  0  0  0  0  0  0
  2  1  2  0  0  0  0
  3  4  2  0  0  0  0
  3  2  1  0  0  0  0
  4  5  1  0  0  0  0
  5  6  2  0  0  0  0
  6  1  1  0  0  0  0
  7  3  1  0  0  0  0
  7 11  1  0  0  0  0
  8  7  1  0  0  0  0
  9  8  2  0  0  0  0
  9 10  1  0  0  0  0
 10 11  2  0  0  0  0
 11 12  1  0  0  0  0
 12 20  1  0  0  0  0
 12 13  1  0  0  0  0
 13 14  2  0  0  0  0
 15 14  1  0  0  0  0
 15 16  1  0  0  0  0
 17 16  2  0  0  0  0
 18 17  1  0  0  0  0
 19 18  2  0  0  0  0
 19 20  1  0  0  0  0
 20 15  2  0  0  0  0
 21  5  1  0  0  0  0
 21 30  1  0  0  0  0
 22 21  2  0  0  0  0
 23 22  1  0  0  0  0
 23 24  2  0  0  0  0
 24 25  1  0  0  0  0
 25 30  2  0  0  0  0
 25 26  1  0  0  0  0
 26 27  2  0  0  0  0
 27 28  1  0  0  0  0
 29 28  2  0  0  0  0
 30 29  1  0  0  0  0
 31 32  1  0  0  0  0
 31  9  1  0  0  0  0
 33 31  1  0  0  0  0
 34 31  1  0  0  0  0
M  END
>  <minimizedAffinity>
-7.645329

$$$$

 OpenBabel03272514453D

 34 39  0  0  0  0  0  0  0  0999 V2000
   32.2670   30.5880   44.6870 C   0  0  0  0  0  3  0  0  0  0  0  0
   31.3590   29.6870   45.2550 C   0  0  0  0  0  3  0  0  0  0  0  0
   31.7870   28.9920   46.3900 C   0  0  0  0  0  0  0  0  0  0  0  0
   33.0280   29.2640   46.8140 N   0  0  0  0  0  0  0  0  0  0  0  0
   33.9040   30.1290   46.2700 C   0  0  0  0  0  0  0  0  0  0  0  0
   33.4790   30.7830   45.1890 N   0  0  0  0  0  0  0  0  0  0  0  0
   30.9480   28.0500   47.0540 N   0  0  0  0  0  0  0  0  0  0  0  0
   29.9140   28.4340   47.7930 C   0  0  0  0  0  3  0  0  0  0  0  0
   29.3500   27.2840   48.2660 C   0  0  0  0  0  0  0  0  0  0  0  0
   30.0440   26.2330   47.8100 N   0  0  0  0  0  0  0  0  0  0  0  0
   31.0540   26.7160   47.0460 C   0  0  0  0  0  0  0  0  0  0  0  0
   32.0270   25.9240   46.3720 N   0  0  0  0  0  0  0  0  0  0  0  0
   32.6040   26.2730   45.1850 C   0  0  0  0  0  3  0  0  0  0  0  0
   33.4660   25.3170   44.8380 N   0  0  0  0  0  0  0  0  0  0  0  0
   33.4520   24.3730   45.7690 C   0  0  0  0  0  0  0  0  0  0  0  0
   34.0760   23.1550   46.0200 C   0  0  0  0  0  3  0  0  0  0  0  0
   33.8360   22.3970   47.1080 N   0  0  0  0  0  0  0  0  0  0  0  0
   32.9400   22.8270   48.0150 C   0  0  0  0  0  3  0  0  0  0  0  0
   32.2710   24.0070   47.8640 N   0  0  0  0  0  0  0  0  0  0  0  0
   32.5500   24.7370   46.7470 C   0  0  0  0  0  0  0  0  0  0  0  0
   35.1600   30.1690   46.9930 C   0  0  0  0  0  0  0  0  0  0  0  0
   36.3400   30.4690   46.3490 C   0  0  0  0  0  3  0  0  0  0  0  0
   37.5740   30.5250   46.9780 C   0  0  0  0  0  3  0  0  0  0  0  0
   37.6710   30.2700   48.3270 C   0  0  0  0  0  3  0  0  0  0  0  0
   36.5280   29.9700   48.9940 C   0  0  0  0  0  0  0  0  0  0  0  0
   36.6250   29.7130   50.3500 C   0  0  0  0  0  3  0  0  0  0  0  0
   35.5110   29.4000   51.1040 C   0  0  0  0  0  3  0  0  0  0  0  0
   34.2960   29.3560   50.4340 C   0  0  0  0  0  3  0  0  0  0  0  0
   34.2410   29.6170   49.0800 C   0  0  0  0  0  3  0  0  0  0  0  0
   35.3180   29.9250   48.3280 C   0  0  0  0  0  0  0  0  0  0  0  0
   28.1570   27.1280   49.1490 C   0  0  0  0  0  0  0  0  0  0  0  0
   28.4750   26.6360   50.3940 F   0  0  0  0  0  0  0  0  0  0  0  0
   27.2590   26.2010   48.5860 F   0  0  0  0  0  0  0  0  0  0  0  0
   27.4470   28.3160   49.2130 F   0  0  0  0  0  0  0  0  0  0  0  0
  1  6  2  0  0  0  0
  1  2  1  0  0  0  0
  2  3  2  0  0  0  0
  3  4  1  0  0  0  0
  3  7  1  0  0  0  0
  5  4  2  0  0  0  0
  5 21  1  0  0  0  0
  6  5  1  0  0  0  0
  7  8  1  0  0  0  0
  8  9  2  0  0  0  0
  9 31  1  0  0  0  0
 10  9  1  0  0  0  0
 11  7  1  0  0  0  0
 11 10  2  0  0  0  0
 12 20  1  0  0  0  0
 12 11  1  0  0  0  0
 13 12  1  0  0  0  0
 14 13  2  0  0  0  0
 14 15  1  0  0  0  0
 15 16  2  0  0  0  0
 15 20  1  0  0  0  0
 16 17  1  0  0  0  0
 17 18  2  0  0  0  0
 19 18  1  0  0  0  0
 20 19  2  0  0  0  0
 21 30  1  0  0  0  0
 22 23  1  0  0  0  0
 22 21  2  0  0  0  0
 23 24  2  0  0  0  0
 24 25  1  0  0  0  0
 25 26  1  0  0  0  0
 26 27  2  0  0  0  0
 28 27  1  0  0  0  0
 29 28  2  0  0  0  0
 30 25  2  0  0  0  0
 30 29  1  0  0  0  0
 31 34  1  0  0  0  0
 31 32  1  0  0  0  0
 33 31  1  0  0  0  0
M  END
>  <minimizedAffinity>
-7.37360287

$$$$

 OpenBabel03272514453D

 34 39  0  0  0  0  0  0  0  0999 V2000
   32.3200   25.3160   47.7520 C   0  0  0  0  0  3  0  0  0  0  0  0
   33.3640   26.2300   47.5650 C   0  0  0  0  0  3  0  0  0  0  0  0
   33.0110   27.5800   47.4810 C   0  0  0  0  0  0  0  0  0  0  0  0
   31.7040   27.8550   47.5870 N   0  0  0  0  0  0  0  0  0  0  0  0
   30.6990   26.9790   47.7660 C   0  0  0  0  0  0  0  0  0  0  0  0
   31.0530   25.6970   47.8450 N   0  0  0  0  0  0  0  0  0  0  0  0
   33.9880   28.6010   47.2920 N   0  0  0  0  0  0  0  0  0  0  0  0
   34.8080   28.9720   48.2680 C   0  0  0  0  0  3  0  0  0  0  0  0
   35.5940   29.9540   47.7370 C   0  0  0  0  0  0  0  0  0  0  0  0
   35.2400   30.1610   46.4610 N   0  0  0  0  0  0  0  0  0  0  0  0
   34.2260   29.3070   46.1810 C   0  0  0  0  0  0  0  0  0  0  0  0
   33.5610   29.2040   44.9260 N   0  0  0  0  0  0  0  0  0  0  0  0
   33.0410   28.0420   44.4320 C   0  0  0  0  0  3  0  0  0  0  0  0
   32.4910   28.2980   43.2440 N   0  0  0  0  0  0  0  0  0  0  0  0
   32.6470   29.5870   42.9710 C   0  0  0  0  0  0  0  0  0  0  0  0
   32.3300   30.4760   41.9490 C   0  0  0  0  0  3  0  0  0  0  0  0
   32.6400   31.7860   41.9690 N   0  0  0  0  0  0  0  0  0  0  0  0
   33.2990   32.2820   43.0320 C   0  0  0  0  0  3  0  0  0  0  0  0
   33.6580   31.4960   44.0890 N   0  0  0  0  0  0  0  0  0  0  0  0
   33.3210   30.1770   44.0200 C   0  0  0  0  0  0  0  0  0  0  0  0
   29.4060   27.6300   47.8370 C   0  0  0  0  0  0  0  0  0  0  0  0
   28.8640   28.2540   46.7350 C   0  0  0  0  0  3  0  0  0  0  0  0
   27.6340   28.8940   46.7320 C   0  0  0  0  0  3  0  0  0  0  0  0
   26.8760   28.9330   47.8810 C   0  0  0  0  0  3  0  0  0  0  0  0
   27.3800   28.3290   48.9880 C   0  0  0  0  0  0  0  0  0  0  0  0
   26.6190   28.3690   50.1420 C   0  0  0  0  0  3  0  0  0  0  0  0
   27.0570   27.7800   51.3120 C   0  0  0  0  0  3  0  0  0  0  0  0
   28.2930   27.1500   51.2690 C   0  0  0  0  0  3  0  0  0  0  0  0
   29.0220   27.1330   50.0980 C   0  0  0  0  0  3  0  0  0  0  0  0
   28.6100   27.7020   48.9460 C   0  0  0  0  0  0  0  0  0  0  0  0
   36.6890   30.7260   48.3940 C   0  0  0  0  0  0  0  0  0  0  0  0
   37.6490   29.9180   48.9560 F   0  0  0  0  0  0  0  0  0  0  0  0
   36.1690   31.4980   49.4500 F   0  0  0  0  0  0  0  0  0  0  0  0
   37.2240   31.6500   47.5110 F   0  0  0  0  0  0  0  0  0  0  0  0
  1  6  1  0  0  0  0
  2  1  2  0  0  0  0
  3  2  1  0  0  0  0
  3  4  2  0  0  0  0
  4  5  1  0  0  0  0
  5 21  1  0  0  0  0
  5  6  2  0  0  0  0
  7  3  1  0  0  0  0
  7  8  1  0  0  0  0
  9  8  2  0  0  0  0
  9 31  1  0  0  0  0
 10  9  1  0  0  0  0
 11 10  2  0  0  0  0
 11  7  1  0  0  0  0
 12 11  1  0  0  0  0
 13 12  1  0  0  0  0
 14 13  2  0  0  0  0
 15 14  1  0  0  0  0
 15 20  1  0  0  0  0
 16 17  1  0  0  0  0
 16 15  2  0  0  0  0
 17 18  2  0  0  0  0
 18 19  1  0  0  0  0
 20 19  2  0  0  0  0
 20 12  1  0  0  0  0
 21 30  1  0  0  0  0
 22 21  2  0  0  0  0
 23 22  1  0  0  0  0
 23 24  2  0  0  0  0
 24 25  1  0  0  0  0
 25 26  1  0  0  0  0
 26 27  2  0  0  0  0
 28 27  1  0  0  0  0
 29 28  2  0  0  0  0
 30 25  2  0  0  0  0
 30 29  1  0  0  0  0
 31 32  1  0  0  0  0
 31 33  1  0  0  0  0
 34 31  1  0  0  0  0
M  END
>  <minimizedAffinity>
-7.3422513

$$$$

 OpenBabel03272514453D

 34 39  0  0  0  0  0  0  0  0999 V2000
   31.8340   26.4260   47.1290 C   0  0  0  0  0  3  0  0  0  0  0  0
   31.8240   27.4750   46.2030 C   0  0  0  0  0  3  0  0  0  0  0  0
   30.8510   28.4620   46.3790 C   0  0  0  0  0  0  0  0  0  0  0  0
   30.0260   28.2960   47.4220 N   0  0  0  0  0  0  0  0  0  0  0  0
   30.0330   27.2890   48.3130 C   0  0  0  0  0  0  0  0  0  0  0  0
   30.9670   26.3570   48.1300 N   0  0  0  0  0  0  0  0  0  0  0  0
   30.7450   29.5790   45.4980 N   0  0  0  0  0  0  0  0  0  0  0  0
   31.6250   30.5720   45.5220 C   0  0  0  0  0  3  0  0  0  0  0  0
   31.2160   31.4500   44.5600 C   0  0  0  0  0  0  0  0  0  0  0  0
   30.1070   30.9790   43.9740 N   0  0  0  0  0  0  0  0  0  0  0  0
   29.8090   29.7970   44.5680 C   0  0  0  0  0  0  0  0  0  0  0  0
   28.7000   28.9680   44.2370 N   0  0  0  0  0  0  0  0  0  0  0  0
   28.7150   27.6050   44.3260 C   0  0  0  0  0  3  0  0  0  0  0  0
   27.5220   27.1450   43.9460 N   0  0  0  0  0  0  0  0  0  0  0  0
   26.7540   28.1750   43.6180 C   0  0  0  0  0  0  0  0  0  0  0  0
   25.4590   28.3980   43.1570 C   0  0  0  0  0  3  0  0  0  0  0  0
   24.9500   29.6200   42.9080 N   0  0  0  0  0  0  0  0  0  0  0  0
   25.7260   30.7000   43.1070 C   0  0  0  0  0  3  0  0  0  0  0  0
   27.0100   30.5930   43.5560 N   0  0  0  0  0  0  0  0  0  0  0  0
   27.4790   29.3350   43.7940 C   0  0  0  0  0  0  0  0  0  0  0  0
   28.9920   27.4310   49.3140 C   0  0  0  0  0  0  0  0  0  0  0  0
   29.1970   27.0240   50.6130 C   0  0  0  0  0  3  0  0  0  0  0  0
   28.2470   27.1320   51.6180 C   0  0  0  0  0  3  0  0  0  0  0  0
   27.0110   27.6710   51.3410 C   0  0  0  0  0  3  0  0  0  0  0  0
   26.7740   28.0820   50.0690 C   0  0  0  0  0  0  0  0  0  0  0  0
   25.5320   28.6240   49.7920 C   0  0  0  0  0  3  0  0  0  0  0  0
   25.2080   29.0660   48.5240 C   0  0  0  0  0  3  0  0  0  0  0  0
   26.1890   28.9410   47.5490 C   0  0  0  0  0  3  0  0  0  0  0  0
   27.4150   28.3940   47.8670 C   0  0  0  0  0  3  0  0  0  0  0  0
   27.7490   27.9570   49.0990 C   0  0  0  0  0  0  0  0  0  0  0  0
   31.8390   32.7450   44.1570 C   0  0  0  0  0  0  0  0  0  0  0  0
   31.7660   33.7020   45.1420 F   0  0  0  0  0  0  0  0  0  0  0  0
   31.1610   33.2820   43.0470 F   0  0  0  0  0  0  0  0  0  0  0  0
   33.1360   32.5380   43.7130 F   0  0  0  0  0  0  0  0  0  0  0  0
  1  6  1  0  0  0  0
  2  3  1  0  0  0  0
  2  1  2  0  0  0  0
  3  4  2  0  0  0  0
  4  5  1  0  0  0  0
  5 21  1  0  0  0  0
  6  5  2  0  0  0  0
  7  8  1  0  0  0  0
  7  3  1  0  0  0  0
  9  8  2  0  0  0  0
 10  9  1  0  0  0  0
 10 11  2  0  0  0  0
 11  7  1  0  0  0  0
 12 13  1  0  0  0  0
 12 11  1  0  0  0  0
 14 13  2  0  0  0  0
 15 20  1  0  0  0  0
 15 14  1  0  0  0  0
 16 15  2  0  0  0  0
 17 18  2  0  0  0  0
 17 16  1  0  0  0  0
 18 19  1  0  0  0  0
 19 20  2  0  0  0  0
 20 12  1  0  0  0  0
 21 22  1  0  0  0  0
 22 23  2  0  0  0  0
 24 23  1  0  0  0  0
 25 24  2  0  0  0  0
 26 25  1  0  0  0  0
 27 26  2  0  0  0  0
 28 29  2  0  0  0  0
 28 27  1  0  0  0  0
 29 30  1  0  0  0  0
 30 21  2  0  0  0  0
 30 25  1  0  0  0  0
 31  9  1  0  0  0  0
 31 32  1  0  0  0  0
 33 31  1  0  0  0  0
 34 31  1  0  0  0  0
M  END
>  <minimizedAffinity>
-7.3302722

$$$$
