
 OpenBabel03272514353D

 29 33  0  0  0  0  0  0  0  0999 V2000
   34.9380   29.4040   44.3500 C   0  0  0  0  0  3  0  0  0  0  0  0
   33.5830   29.1840   44.5570 C   0  0  0  0  0  3  0  0  0  0  0  0
   33.1430   29.4370   45.8410 C   0  0  0  0  0  0  0  0  0  0  0  0
   34.0190   29.8540   46.7360 N   0  0  0  0  0  0  0  0  0  0  0  0
   35.3060   30.0690   46.5630 C   0  0  0  0  0  0  0  0  0  0  0  0
   35.7200   29.8270   45.3390 N   0  0  0  0  0  0  0  0  0  0  0  0
   31.7860   29.2600   46.2090 N   0  0  0  0  0  0  0  0  0  0  0  0
   30.7170   29.8130   45.6170 C   0  0  0  0  0  3  0  0  0  0  0  0
   29.5940   29.4310   46.2220 N   0  0  0  0  0  0  0  0  0  0  0  0
   29.9560   28.6190   47.2200 C   0  0  0  0  0  0  0  0  0  0  0  0
   31.2920   28.5320   47.1920 N   0  0  0  0  0  0  0  0  0  0  0  0
   36.3620   30.5190   47.4440 C   0  0  0  0  0  0  0  0  0  0  0  0
   37.4110   31.3010   47.0010 C   0  0  0  0  0  3  0  0  0  0  0  0
   38.4360   31.7530   47.7900 C   0  0  0  0  0  3  0  0  0  0  0  0
   38.4570   31.4270   49.1320 C   0  0  0  0  0  3  0  0  0  0  0  0
   37.4540   30.6640   49.6160 C   0  0  0  0  0  0  0  0  0  0  0  0
   37.4710   30.3310   50.9680 C   0  0  0  0  0  3  0  0  0  0  0  0
   36.5040   29.5670   51.5450 C   0  0  0  0  0  3  0  0  0  0  0  0
   35.4730   29.1180   50.7260 C   0  0  0  0  0  3  0  0  0  0  0  0
   35.4850   29.4630   49.4000 C   0  0  0  0  0  3  0  0  0  0  0  0
   36.4430   30.2280   48.7950 C   0  0  0  0  0  0  0  0  0  0  0  0
   29.2080   27.8790   48.2430 C   0  0  0  0  0  0  0  0  0  0  0  0
   28.2220   26.9810   48.2350 N   0  0  0  0  0  0  0  0  0  0  0  0
   27.9130   26.6340   49.4400 O   0  0  0  0  0  0  0  0  0  0  0  0
   28.6950   27.3000   50.2750 C   0  0  0  0  0  0  0  0  0  0  0  0
   29.5280   28.0990   49.5510 N   0  0  0  0  0  0  0  0  0  0  0  0
   28.6920   27.2190   51.6970 N   0  0  0  0  0  0  0  0  0  0  0  0
   29.3510   27.7890   52.2460 H   0  0  0  0  0  0  0  0  0  0  0  0
   28.0310   26.5910   52.1750 H   0  0  0  0  0  0  0  0  0  0  0  0
  1  2  2  0  0  0  0
  1  6  1  0  0  0  0
  2  3  1  0  0  0  0
  3  7  1  0  0  0  0
  3  4  2  0  0  0  0
  5  4  1  0  0  0  0
  5 12  1  0  0  0  0
  6  5  2  0  0  0  0
  7 11  1  0  0  0  0
  8  7  1  0  0  0  0
  8  9  2  0  0  0  0
  9 10  1  0  0  0  0
 10 22  1  0  0  0  0
 11 10  2  0  0  0  0
 12 21  1  0  0  0  0
 13 12  2  0  0  0  0
 13 14  1  0  0  0  0
 14 15  2  0  0  0  0
 15 16  1  0  0  0  0
 16 17  1  0  0  0  0
 17 18  2  0  0  0  0
 19 18  1  0  0  0  0
 20 19  2  0  0  0  0
 21 20  1  0  0  0  0
 21 16  2  0  0  0  0
 22 26  1  0  0  0  0
 23 22  2  0  0  0  0
 23 24  1  0  0  0  0
 24 25  1  0  0  0  0
 25 27  1  0  0  0  0
 26 25  2  0  0  0  0
 27 29  1  0  0  0  0
 27 28  1  0  0  0  0
M  END
>  <minimizedAffinity>
-8.26837349

$$$$

 OpenBabel03272514353D

 29 33  0  0  0  0  0  0  0  0999 V2000
   33.9030   26.5690   46.6980 C   0  0  0  0  0  3  0  0  0  0  0  0
   32.6060   26.8960   46.3270 C   0  0  0  0  0  3  0  0  0  0  0  0
   32.1040   28.0400   46.9140 C   0  0  0  0  0  0  0  0  0  0  0  0
   32.8750   28.7070   47.7530 N   0  0  0  0  0  0  0  0  0  0  0  0
   34.1060   28.4190   48.1190 C   0  0  0  0  0  0  0  0  0  0  0  0
   34.5800   27.3280   47.5570 N   0  0  0  0  0  0  0  0  0  0  0  0
   30.7950   28.5040   46.6370 N   0  0  0  0  0  0  0  0  0  0  0  0
   30.2780   28.7670   45.4270 C   0  0  0  0  0  3  0  0  0  0  0  0
   29.0190   29.1860   45.5340 N   0  0  0  0  0  0  0  0  0  0  0  0
   28.7280   29.1900   46.8390 C   0  0  0  0  0  0  0  0  0  0  0  0
   29.8230   28.7720   47.4880 N   0  0  0  0  0  0  0  0  0  0  0  0
   35.0490   29.0540   49.0130 C   0  0  0  0  0  0  0  0  0  0  0  0
   35.0000   28.8820   50.3820 C   0  0  0  0  0  3  0  0  0  0  0  0
   35.8660   29.4590   51.2750 C   0  0  0  0  0  3  0  0  0  0  0  0
   36.8770   30.2780   50.8100 C   0  0  0  0  0  3  0  0  0  0  0  0
   36.9690   30.4790   49.4780 C   0  0  0  0  0  0  0  0  0  0  0  0
   37.9850   31.3050   49.0040 C   0  0  0  0  0  3  0  0  0  0  0  0
   38.1560   31.5670   47.6800 C   0  0  0  0  0  3  0  0  0  0  0  0
   37.2660   30.9710   46.7920 C   0  0  0  0  0  3  0  0  0  0  0  0
   36.2760   30.1640   47.2900 C   0  0  0  0  0  3  0  0  0  0  0  0
   36.0820   29.8850   48.6140 C   0  0  0  0  0  0  0  0  0  0  0  0
   27.5280   29.5420   47.6060 C   0  0  0  0  0  0  0  0  0  0  0  0
   27.0130   30.6700   48.0980 N   0  0  0  0  0  0  0  0  0  0  0  0
   25.9030   30.4310   48.7150 O   0  0  0  0  0  0  0  0  0  0  0  0
   25.6610   29.1320   48.6430 C   0  0  0  0  0  0  0  0  0  0  0  0
   26.6700   28.5370   47.9470 N   0  0  0  0  0  0  0  0  0  0  0  0
   24.5440   28.4390   49.1890 N   0  0  0  0  0  0  0  0  0  0  0  0
   24.4610   27.4200   49.0690 H   0  0  0  0  0  0  0  0  0  0  0  0
   23.8180   28.9580   49.7040 H   0  0  0  0  0  0  0  0  0  0  0  0
  1  6  1  0  0  0  0
  2  1  2  0  0  0  0
  2  3  1  0  0  0  0
  3  4  2  0  0  0  0
  4  5  1  0  0  0  0
  5 12  1  0  0  0  0
  6  5  2  0  0  0  0
  7  3  1  0  0  0  0
  7 11  1  0  0  0  0
  8  9  2  0  0  0  0
  8  7  1  0  0  0  0
  9 10  1  0  0  0  0
 10 11  2  0  0  0  0
 10 22  1  0  0  0  0
 12 13  1  0  0  0  0
 13 14  2  0  0  0  0
 15 14  1  0  0  0  0
 16 15  2  0  0  0  0
 17 16  1  0  0  0  0
 18 17  2  0  0  0  0
 19 20  2  0  0  0  0
 19 18  1  0  0  0  0
 20 21  1  0  0  0  0
 21 12  2  0  0  0  0
 21 16  1  0  0  0  0
 22 26  1  0  0  0  0
 22 23  2  0  0  0  0
 23 24  1  0  0  0  0
 25 24  1  0  0  0  0
 25 27  1  0  0  0  0
 26 25  2  0  0  0  0
 27 29  1  0  0  0  0
 28 27  1  0  0  0  0
M  END
>  <minimizedAffinity>
-8.00122833

$$$$

 OpenBabel03272514353D

 29 33  0  0  0  0  0  0  0  0999 V2000
   32.9340   26.0600   47.4550 C   0  0  0  0  0  3  0  0  0  0  0  0
   31.5910   26.3540   47.2630 C   0  0  0  0  0  3  0  0  0  0  0  0
   31.3010   27.6990   47.1480 C   0  0  0  0  0  0  0  0  0  0  0  0
   32.2930   28.5660   47.2280 N   0  0  0  0  0  0  0  0  0  0  0  0
   33.5710   28.3120   47.4090 C   0  0  0  0  0  0  0  0  0  0  0  0
   33.8430   27.0290   47.5180 N   0  0  0  0  0  0  0  0  0  0  0  0
   29.9750   28.1580   46.9490 N   0  0  0  0  0  0  0  0  0  0  0  0
   29.1360   27.7820   45.9720 C   0  0  0  0  0  3  0  0  0  0  0  0
   27.9690   28.4130   46.0860 N   0  0  0  0  0  0  0  0  0  0  0  0
   28.0680   29.2070   47.1570 C   0  0  0  0  0  0  0  0  0  0  0  0
   29.2960   29.0340   47.6630 N   0  0  0  0  0  0  0  0  0  0  0  0
   34.7440   29.1540   47.5140 C   0  0  0  0  0  0  0  0  0  0  0  0
   35.3120   29.7700   46.4170 C   0  0  0  0  0  3  0  0  0  0  0  0
   36.4200   30.5750   46.4580 C   0  0  0  0  0  3  0  0  0  0  0  0
   37.0420   30.8150   47.6680 C   0  0  0  0  0  3  0  0  0  0  0  0
   36.5260   30.2350   48.7730 C   0  0  0  0  0  0  0  0  0  0  0  0
   37.1500   30.4710   49.9950 C   0  0  0  0  0  3  0  0  0  0  0  0
   36.7030   29.9310   51.1610 C   0  0  0  0  0  3  0  0  0  0  0  0
   35.5770   29.1170   51.0950 C   0  0  0  0  0  3  0  0  0  0  0  0
   34.9860   28.9030   49.8780 C   0  0  0  0  0  3  0  0  0  0  0  0
   35.4140   29.4330   48.6930 C   0  0  0  0  0  0  0  0  0  0  0  0
   27.1470   30.1460   47.8070 C   0  0  0  0  0  0  0  0  0  0  0  0
   26.5730   30.2340   49.0080 N   0  0  0  0  0  0  0  0  0  0  0  0
   25.8220   31.2840   49.0770 O   0  0  0  0  0  0  0  0  0  0  0  0
   25.8870   31.9150   47.9150 C   0  0  0  0  0  0  0  0  0  0  0  0
   26.7170   31.2210   47.0870 N   0  0  0  0  0  0  0  0  0  0  0  0
   25.2140   33.1170   47.5580 N   0  0  0  0  0  0  0  0  0  0  0  0
   25.3420   33.5180   46.6180 H   0  0  0  0  0  0  0  0  0  0  0  0
   24.6010   33.5860   48.2390 H   0  0  0  0  0  0  0  0  0  0  0  0
  1  6  1  0  0  0  0
  2  1  2  0  0  0  0
  3  4  2  0  0  0  0
  3  2  1  0  0  0  0
  4  5  1  0  0  0  0
  5 12  1  0  0  0  0
  5  6  2  0  0  0  0
  7  3  1  0  0  0  0
  7 11  1  0  0  0  0
  8  9  2  0  0  0  0
  8  7  1  0  0  0  0
  9 10  1  0  0  0  0
 10 11  2  0  0  0  0
 10 22  1  0  0  0  0
 12 21  1  0  0  0  0
 13 14  1  0  0  0  0
 13 12  2  0  0  0  0
 14 15  2  0  0  0  0
 15 16  1  0  0  0  0
 16 17  1  0  0  0  0
 17 18  2  0  0  0  0
 19 18  1  0  0  0  0
 20 19  2  0  0  0  0
 21 16  2  0  0  0  0
 21 20  1  0  0  0  0
 22 23  2  0  0  0  0
 23 24  1  0  0  0  0
 25 24  1  0  0  0  0
 26 22  1  0  0  0  0
 26 25  2  0  0  0  0
 27 25  1  0  0  0  0
 27 29  1  0  0  0  0
 28 27  1  0  0  0  0
M  END
>  <minimizedAffinity>
-7.9326334

$$$$

 OpenBabel03272514353D

 29 33  0  0  0  0  0  0  0  0999 V2000
   33.5160   27.1690   47.0790 C   0  0  0  0  0  3  0  0  0  0  0  0
   33.0900   27.8120   45.9240 C   0  0  0  0  0  3  0  0  0  0  0  0
   33.5250   29.1160   45.7920 C   0  0  0  0  0  0  0  0  0  0  0  0
   34.2840   29.6260   46.7430 N   0  0  0  0  0  0  0  0  0  0  0  0
   34.7010   29.0370   47.8440 C   0  0  0  0  0  0  0  0  0  0  0  0
   34.2840   27.7950   47.9660 N   0  0  0  0  0  0  0  0  0  0  0  0
   33.1750   29.9050   44.6680 N   0  0  0  0  0  0  0  0  0  0  0  0
   33.3710   29.5920   43.3780 C   0  0  0  0  0  3  0  0  0  0  0  0
   32.9200   30.5630   42.5860 N   0  0  0  0  0  0  0  0  0  0  0  0
   32.4270   31.5120   43.3880 C   0  0  0  0  0  0  0  0  0  0  0  0
   32.5940   31.0890   44.6470 N   0  0  0  0  0  0  0  0  0  0  0  0
   35.5230   29.4730   48.9510 C   0  0  0  0  0  0  0  0  0  0  0  0
   35.3110   29.0410   50.2450 C   0  0  0  0  0  3  0  0  0  0  0  0
   36.0580   29.4220   51.3300 C   0  0  0  0  0  3  0  0  0  0  0  0
   37.1110   30.2990   51.1560 C   0  0  0  0  0  3  0  0  0  0  0  0
   37.3620   30.7510   49.9090 C   0  0  0  0  0  0  0  0  0  0  0  0
   38.4210   31.6370   49.7300 C   0  0  0  0  0  3  0  0  0  0  0  0
   38.7500   32.1460   48.5110 C   0  0  0  0  0  3  0  0  0  0  0  0
   37.9780   31.7470   47.4250 C   0  0  0  0  0  3  0  0  0  0  0  0
   36.9420   30.8740   47.6350 C   0  0  0  0  0  3  0  0  0  0  0  0
   36.5910   30.3490   48.8470 C   0  0  0  0  0  0  0  0  0  0  0  0
   31.7960   32.8140   43.1440 C   0  0  0  0  0  0  0  0  0  0  0  0
   32.2130   34.0810   43.1160 N   0  0  0  0  0  0  0  0  0  0  0  0
   31.2310   34.8770   42.8480 O   0  0  0  0  0  0  0  0  0  0  0  0
   30.1380   34.1460   42.6900 C   0  0  0  0  0  0  0  0  0  0  0  0
   30.4590   32.8340   42.8710 N   0  0  0  0  0  0  0  0  0  0  0  0
   28.8320   34.6200   42.3830 N   0  0  0  0  0  0  0  0  0  0  0  0
   28.0530   33.9540   42.2840 H   0  0  0  0  0  0  0  0  0  0  0  0
   28.6650   35.6290   42.2600 H   0  0  0  0  0  0  0  0  0  0  0  0
  1  6  1  0  0  0  0
  2  1  2  0  0  0  0
  3  2  1  0  0  0  0
  3  4  2  0  0  0  0
  4  5  1  0  0  0  0
  5  6  2  0  0  0  0
  5 12  1  0  0  0  0
  7  3  1  0  0  0  0
  8  7  1  0  0  0  0
  9  8  2  0  0  0  0
  9 10  1  0  0  0  0
 10 11  2  0  0  0  0
 11  7  1  0  0  0  0
 12 13  1  0  0  0  0
 13 14  2  0  0  0  0
 15 14  1  0  0  0  0
 16 15  2  0  0  0  0
 17 16  1  0  0  0  0
 18 17  2  0  0  0  0
 19 20  2  0  0  0  0
 19 18  1  0  0  0  0
 20 21  1  0  0  0  0
 21 12  2  0  0  0  0
 21 16  1  0  0  0  0
 22 10  1  0  0  0  0
 23 22  2  0  0  0  0
 24 23  1  0  0  0  0
 25 24  1  0  0  0  0
 25 26  2  0  0  0  0
 26 22  1  0  0  0  0
 27 25  1  0  0  0  0
 28 27  1  0  0  0  0
 29 27  1  0  0  0  0
M  END
>  <minimizedAffinity>
-7.73877192

$$$$

 OpenBabel03272514353D

 29 33  0  0  0  0  0  0  0  0999 V2000
   29.6320   28.9690   45.1130 C   0  0  0  0  0  3  0  0  0  0  0  0
   30.9620   28.7250   45.4280 C   0  0  0  0  0  3  0  0  0  0  0  0
   31.2070   28.4850   46.7650 C   0  0  0  0  0  0  0  0  0  0  0  0
   30.1900   28.5060   47.6060 N   0  0  0  0  0  0  0  0  0  0  0  0
   28.9230   28.7330   47.3310 C   0  0  0  0  0  0  0  0  0  0  0  0
   28.6940   28.9620   46.0560 N   0  0  0  0  0  0  0  0  0  0  0  0
   32.5140   28.2200   47.2450 N   0  0  0  0  0  0  0  0  0  0  0  0
   33.3490   27.2650   46.8070 C   0  0  0  0  0  3  0  0  0  0  0  0
   34.4970   27.3000   47.4810 N   0  0  0  0  0  0  0  0  0  0  0  0
   34.3900   28.2970   48.3650 C   0  0  0  0  0  0  0  0  0  0  0  0
   33.1770   28.8390   48.2020 N   0  0  0  0  0  0  0  0  0  0  0  0
   27.7260   28.7840   48.1420 C   0  0  0  0  0  0  0  0  0  0  0  0
   26.5740   29.4180   47.7210 C   0  0  0  0  0  3  0  0  0  0  0  0
   25.4140   29.4970   48.4480 C   0  0  0  0  0  3  0  0  0  0  0  0
   25.3530   28.9100   49.6970 C   0  0  0  0  0  3  0  0  0  0  0  0
   26.4540   28.2770   50.1560 C   0  0  0  0  0  0  0  0  0  0  0  0
   26.3970   27.6850   51.4150 C   0  0  0  0  0  3  0  0  0  0  0  0
   27.4560   27.0260   51.9610 C   0  0  0  0  0  3  0  0  0  0  0  0
   28.6220   26.9590   51.2070 C   0  0  0  0  0  3  0  0  0  0  0  0
   28.6460   27.5510   49.9710 C   0  0  0  0  0  3  0  0  0  0  0  0
   27.5990   28.2190   49.4000 C   0  0  0  0  0  0  0  0  0  0  0  0
   35.2910   28.8430   49.3860 C   0  0  0  0  0  0  0  0  0  0  0  0
   35.2230   29.0420   50.7040 N   0  0  0  0  0  0  0  0  0  0  0  0
   36.3190   29.5690   51.1410 O   0  0  0  0  0  0  0  0  0  0  0  0
   37.1390   29.7290   50.1140 C   0  0  0  0  0  0  0  0  0  0  0  0
   36.5200   29.2800   48.9860 N   0  0  0  0  0  0  0  0  0  0  0  0
   38.4530   30.2760   50.1470 N   0  0  0  0  0  0  0  0  0  0  0  0
   39.0010   30.3520   49.2780 H   0  0  0  0  0  0  0  0  0  0  0  0
   38.8550   30.5960   51.0400 H   0  0  0  0  0  0  0  0  0  0  0  0
  1  2  2  0  0  0  0
  1  6  1  0  0  0  0
  2  3  1  0  0  0  0
  3  7  1  0  0  0  0
  3  4  2  0  0  0  0
  5  4  1  0  0  0  0
  5 12  1  0  0  0  0
  6  5  2  0  0  0  0
  7 11  1  0  0  0  0
  8  7  1  0  0  0  0
  8  9  2  0  0  0  0
  9 10  1  0  0  0  0
 10 22  1  0  0  0  0
 11 10  2  0  0  0  0
 12 21  1  0  0  0  0
 13 12  2  0  0  0  0
 13 14  1  0  0  0  0
 14 15  2  0  0  0  0
 15 16  1  0  0  0  0
 16 17  1  0  0  0  0
 17 18  2  0  0  0  0
 19 18  1  0  0  0  0
 20 19  2  0  0  0  0
 21 20  1  0  0  0  0
 21 16  2  0  0  0  0
 22 23  2  0  0  0  0
 23 24  1  0  0  0  0
 25 27  1  0  0  0  0
 25 24  1  0  0  0  0
 26 22  1  0  0  0  0
 26 25  2  0  0  0  0
 27 29  1  0  0  0  0
 28 27  1  0  0  0  0
M  END
>  <minimizedAffinity>
-7.55844879

$$$$

 OpenBabel03272514353D

 29 33  0  0  0  0  0  0  0  0999 V2000
   35.1450   29.9760   44.8010 C   0  0  0  0  0  3  0  0  0  0  0  0
   33.8200   30.1370   44.4170 C   0  0  0  0  0  3  0  0  0  0  0  0
   32.9150   30.1780   45.4580 C   0  0  0  0  0  0  0  0  0  0  0  0
   33.3690   30.0660   46.6920 N   0  0  0  0  0  0  0  0  0  0  0  0
   34.6170   29.9140   47.0800 C   0  0  0  0  0  0  0  0  0  0  0  0
   35.4770   29.8750   46.0850 N   0  0  0  0  0  0  0  0  0  0  0  0
   31.5260   30.3380   45.2290 N   0  0  0  0  0  0  0  0  0  0  0  0
   30.9370   31.3220   44.5330 C   0  0  0  0  0  3  0  0  0  0  0  0
   29.6150   31.1610   44.5170 N   0  0  0  0  0  0  0  0  0  0  0  0
   29.3580   30.0520   45.2180 C   0  0  0  0  0  0  0  0  0  0  0  0
   30.5340   29.5710   45.6400 N   0  0  0  0  0  0  0  0  0  0  0  0
   35.2430   29.7810   48.3780 C   0  0  0  0  0  0  0  0  0  0  0  0
   34.7540   28.9330   49.3510 C   0  0  0  0  0  3  0  0  0  0  0  0
   35.3050   28.7680   50.5950 C   0  0  0  0  0  3  0  0  0  0  0  0
   36.4360   29.4840   50.9380 C   0  0  0  0  0  3  0  0  0  0  0  0
   36.9550   30.3280   50.0210 C   0  0  0  0  0  0  0  0  0  0  0  0
   38.0940   31.0540   50.3630 C   0  0  0  0  0  3  0  0  0  0  0  0
   38.6870   31.9280   49.5060 C   0  0  0  0  0  3  0  0  0  0  0  0
   38.1110   32.0800   48.2500 C   0  0  0  0  0  3  0  0  0  0  0  0
   36.9900   31.3520   47.9440 C   0  0  0  0  0  3  0  0  0  0  0  0
   36.3740   30.4680   48.7850 C   0  0  0  0  0  0  0  0  0  0  0  0
   28.1220   29.3430   45.5700 C   0  0  0  0  0  0  0  0  0  0  0  0
   27.5460   28.9470   46.7060 N   0  0  0  0  0  0  0  0  0  0  0  0
   26.4300   28.3420   46.4630 O   0  0  0  0  0  0  0  0  0  0  0  0
   26.2450   28.3280   45.1520 C   0  0  0  0  0  0  0  0  0  0  0  0
   27.2980   28.9530   44.5550 N   0  0  0  0  0  0  0  0  0  0  0  0
   25.1430   27.7620   44.4510 N   0  0  0  0  0  0  0  0  0  0  0  0
   25.1070   27.8110   43.4230 H   0  0  0  0  0  0  0  0  0  0  0  0
   24.3820   27.3040   44.9720 H   0  0  0  0  0  0  0  0  0  0  0  0
  1  6  1  0  0  0  0
  2  1  2  0  0  0  0
  2  3  1  0  0  0  0
  3  4  2  0  0  0  0
  4  5  1  0  0  0  0
  5 12  1  0  0  0  0
  6  5  2  0  0  0  0
  7  3  1  0  0  0  0
  7 11  1  0  0  0  0
  8  7  1  0  0  0  0
  9  8  2  0  0  0  0
  9 10  1  0  0  0  0
 10 22  1  0  0  0  0
 10 11  2  0  0  0  0
 12 21  2  0  0  0  0
 12 13  1  0  0  0  0
 13 14  2  0  0  0  0
 14 15  1  0  0  0  0
 16 17  1  0  0  0  0
 16 15  2  0  0  0  0
 18 17  2  0  0  0  0
 19 18  1  0  0  0  0
 20 19  2  0  0  0  0
 20 21  1  0  0  0  0
 21 16  1  0  0  0  0
 22 23  2  0  0  0  0
 24 23  1  0  0  0  0
 25 24  1  0  0  0  0
 26 25  2  0  0  0  0
 26 22  1  0  0  0  0
 27 29  1  0  0  0  0
 27 25  1  0  0  0  0
 28 27  1  0  0  0  0
M  END
>  <minimizedAffinity>
-7.44778824

$$$$

 OpenBabel03272514353D

 29 33  0  0  0  0  0  0  0  0999 V2000
   33.4090   27.4700   48.5280 C   0  0  0  0  0  3  0  0  0  0  0  0
   32.6360   27.7810   47.4170 C   0  0  0  0  0  3  0  0  0  0  0  0
   33.0200   28.9220   46.7420 C   0  0  0  0  0  0  0  0  0  0  0  0
   34.0580   29.6010   47.1940 N   0  0  0  0  0  0  0  0  0  0  0  0
   34.8070   29.3270   48.2410 C   0  0  0  0  0  0  0  0  0  0  0  0
   34.4360   28.2380   48.8810 N   0  0  0  0  0  0  0  0  0  0  0  0
   32.3300   29.3710   45.5890 N   0  0  0  0  0  0  0  0  0  0  0  0
   32.0850   28.6630   44.4760 C   0  0  0  0  0  3  0  0  0  0  0  0
   31.4120   29.3960   43.5920 N   0  0  0  0  0  0  0  0  0  0  0  0
   31.2240   30.5950   44.1530 C   0  0  0  0  0  0  0  0  0  0  0  0
   31.7920   30.5540   45.3660 N   0  0  0  0  0  0  0  0  0  0  0  0
   35.9550   29.9750   48.8370 C   0  0  0  0  0  0  0  0  0  0  0  0
   36.1940   29.9520   50.1960 C   0  0  0  0  0  3  0  0  0  0  0  0
   37.2640   30.5480   50.8130 C   0  0  0  0  0  3  0  0  0  0  0  0
   38.1940   31.2300   50.0520 C   0  0  0  0  0  3  0  0  0  0  0  0
   38.0060   31.2820   48.7160 C   0  0  0  0  0  0  0  0  0  0  0  0
   38.9400   31.9700   47.9450 C   0  0  0  0  0  3  0  0  0  0  0  0
   38.8340   32.0770   46.5930 C   0  0  0  0  0  3  0  0  0  0  0  0
   37.7410   31.4650   45.9880 C   0  0  0  0  0  3  0  0  0  0  0  0
   36.8400   30.7960   46.7750 C   0  0  0  0  0  3  0  0  0  0  0  0
   36.9210   30.6740   48.1340 C   0  0  0  0  0  0  0  0  0  0  0  0
   30.5660   31.8280   43.7070 C   0  0  0  0  0  0  0  0  0  0  0  0
   29.3080   32.1980   43.4630 N   0  0  0  0  0  0  0  0  0  0  0  0
   29.2630   33.4310   43.0790 O   0  0  0  0  0  0  0  0  0  0  0  0
   30.4990   33.9030   43.0620 C   0  0  0  0  0  0  0  0  0  0  0  0
   31.3510   32.9150   43.4550 N   0  0  0  0  0  0  0  0  0  0  0  0
   30.9060   35.2190   42.7000 N   0  0  0  0  0  0  0  0  0  0  0  0
   31.9030   35.4740   42.7250 H   0  0  0  0  0  0  0  0  0  0  0  0
   30.2030   35.9140   42.4130 H   0  0  0  0  0  0  0  0  0  0  0  0
  1  6  1  0  0  0  0
  2  1  2  0  0  0  0
  3  4  2  0  0  0  0
  3  2  1  0  0  0  0
  4  5  1  0  0  0  0
  5 12  1  0  0  0  0
  5  6  2  0  0  0  0
  7  3  1  0  0  0  0
  8  7  1  0  0  0  0
  9 10  1  0  0  0  0
  9  8  2  0  0  0  0
 10 11  2  0  0  0  0
 11  7  1  0  0  0  0
 12 13  1  0  0  0  0
 13 14  2  0  0  0  0
 15 14  1  0  0  0  0
 16 15  2  0  0  0  0
 17 16  1  0  0  0  0
 18 17  2  0  0  0  0
 19 18  1  0  0  0  0
 19 20  2  0  0  0  0
 20 21  1  0  0  0  0
 21 16  1  0  0  0  0
 21 12  2  0  0  0  0
 22 10  1  0  0  0  0
 23 22  2  0  0  0  0
 24 23  1  0  0  0  0
 25 24  1  0  0  0  0
 25 26  2  0  0  0  0
 26 22  1  0  0  0  0
 27 28  1  0  0  0  0
 27 25  1  0  0  0  0
 29 27  1  0  0  0  0
M  END
>  <minimizedAffinity>
-7.38744354

$$$$

 OpenBabel03272514353D

 29 33  0  0  0  0  0  0  0  0999 V2000
   33.4220   28.6460   43.7280 C   0  0  0  0  0  3  0  0  0  0  0  0
   32.0890   28.7420   44.1060 C   0  0  0  0  0  3  0  0  0  0  0  0
   31.8760   29.3220   45.3410 C   0  0  0  0  0  0  0  0  0  0  0  0
   32.9220   29.7250   46.0360 N   0  0  0  0  0  0  0  0  0  0  0  0
   34.1920   29.6460   45.6990 C   0  0  0  0  0  0  0  0  0  0  0  0
   34.3910   29.0920   44.5220 N   0  0  0  0  0  0  0  0  0  0  0  0
   30.5710   29.4900   45.8660 N   0  0  0  0  0  0  0  0  0  0  0  0
   29.5430   30.1160   45.2730 C   0  0  0  0  0  3  0  0  0  0  0  0
   28.4630   30.0870   46.0500 N   0  0  0  0  0  0  0  0  0  0  0  0
   28.8100   29.4300   47.1620 C   0  0  0  0  0  0  0  0  0  0  0  0
   30.0950   29.0790   47.0260 N   0  0  0  0  0  0  0  0  0  0  0  0
   35.4190   30.0420   46.3560 C   0  0  0  0  0  0  0  0  0  0  0  0
   36.5170   30.5010   45.6570 C   0  0  0  0  0  3  0  0  0  0  0  0
   37.7020   30.8890   46.2270 C   0  0  0  0  0  3  0  0  0  0  0  0
   37.8460   30.8330   47.6000 C   0  0  0  0  0  3  0  0  0  0  0  0
   36.8010   30.3920   48.3310 C   0  0  0  0  0  0  0  0  0  0  0  0
   36.9420   30.3320   49.7150 C   0  0  0  0  0  3  0  0  0  0  0  0
   35.9440   29.9010   50.5340 C   0  0  0  0  0  3  0  0  0  0  0  0
   34.7510   29.5120   49.9340 C   0  0  0  0  0  3  0  0  0  0  0  0
   34.6430   29.5820   48.5690 C   0  0  0  0  0  3  0  0  0  0  0  0
   35.6290   30.0100   47.7250 C   0  0  0  0  0  0  0  0  0  0  0  0
   28.0900   29.0660   48.3870 C   0  0  0  0  0  0  0  0  0  0  0  0
   27.4000   29.7310   49.3160 N   0  0  0  0  0  0  0  0  0  0  0  0
   26.9560   28.9210   50.2190 O   0  0  0  0  0  0  0  0  0  0  0  0
   27.3460   27.6960   49.9020 C   0  0  0  0  0  0  0  0  0  0  0  0
   28.0670   27.7510   48.7470 N   0  0  0  0  0  0  0  0  0  0  0  0
   27.0750   26.5000   50.6250 N   0  0  0  0  0  0  0  0  0  0  0  0
   27.4320   25.5970   50.2800 H   0  0  0  0  0  0  0  0  0  0  0  0
   26.5210   26.5360   51.4930 H   0  0  0  0  0  0  0  0  0  0  0  0
  1  2  2  0  0  0  0
  1  6  1  0  0  0  0
  2  3  1  0  0  0  0
  3  7  1  0  0  0  0
  3  4  2  0  0  0  0
  5  4  1  0  0  0  0
  5 12  1  0  0  0  0
  6  5  2  0  0  0  0
  7 11  1  0  0  0  0
  8  7  1  0  0  0  0
  8  9  2  0  0  0  0
  9 10  1  0  0  0  0
 10 22  1  0  0  0  0
 11 10  2  0  0  0  0
 12 21  1  0  0  0  0
 13 14  1  0  0  0  0
 13 12  2  0  0  0  0
 14 15  2  0  0  0  0
 15 16  1  0  0  0  0
 16 17  1  0  0  0  0
 17 18  2  0  0  0  0
 19 18  1  0  0  0  0
 20 19  2  0  0  0  0
 21 16  2  0  0  0  0
 21 20  1  0  0  0  0
 22 26  1  0  0  0  0
 22 23  2  0  0  0  0
 23 24  1  0  0  0  0
 25 24  1  0  0  0  0
 25 27  1  0  0  0  0
 26 25  2  0  0  0  0
 27 29  1  0  0  0  0
 28 27  1  0  0  0  0
M  END
>  <minimizedAffinity>
-7.28212023

$$$$

 OpenBabel03272514353D

 29 33  0  0  0  0  0  0  0  0999 V2000
   33.4610   26.7390   45.3020 C   0  0  0  0  0  3  0  0  0  0  0  0
   32.1150   26.7120   45.6420 C   0  0  0  0  0  3  0  0  0  0  0  0
   31.7330   27.6550   46.5740 C   0  0  0  0  0  0  0  0  0  0  0  0
   32.6490   28.4770   47.0500 N   0  0  0  0  0  0  0  0  0  0  0  0
   33.9280   28.5230   46.7430 C   0  0  0  0  0  0  0  0  0  0  0  0
   34.2880   27.6220   45.8540 N   0  0  0  0  0  0  0  0  0  0  0  0
   30.3930   27.7540   47.0240 N   0  0  0  0  0  0  0  0  0  0  0  0
   29.3010   27.9080   46.2590 C   0  0  0  0  0  3  0  0  0  0  0  0
   28.2040   27.9630   47.0120 N   0  0  0  0  0  0  0  0  0  0  0  0
   28.6060   27.8430   48.2810 C   0  0  0  0  0  0  0  0  0  0  0  0
   29.9390   27.7180   48.2620 N   0  0  0  0  0  0  0  0  0  0  0  0
   35.0240   29.3600   47.1820 C   0  0  0  0  0  0  0  0  0  0  0  0
   35.7500   30.1450   46.3090 C   0  0  0  0  0  3  0  0  0  0  0  0
   36.7950   30.9550   46.6700 C   0  0  0  0  0  3  0  0  0  0  0  0
   37.1800   31.0190   47.9950 C   0  0  0  0  0  3  0  0  0  0  0  0
   36.5020   30.2690   48.8900 C   0  0  0  0  0  0  0  0  0  0  0  0
   36.8880   30.3290   50.2270 C   0  0  0  0  0  3  0  0  0  0  0  0
   36.2650   29.6100   51.2000 C   0  0  0  0  0  3  0  0  0  0  0  0
   35.2070   28.7950   50.8120 C   0  0  0  0  0  3  0  0  0  0  0  0
   34.8520   28.7580   49.4880 C   0  0  0  0  0  3  0  0  0  0  0  0
   35.4600   29.4690   48.4920 C   0  0  0  0  0  0  0  0  0  0  0  0
   27.9000   27.8270   49.5670 C   0  0  0  0  0  0  0  0  0  0  0  0
   26.9640   28.5820   50.1450 N   0  0  0  0  0  0  0  0  0  0  0  0
   26.6770   28.1300   51.3210 O   0  0  0  0  0  0  0  0  0  0  0  0
   27.4240   27.0590   51.5450 C   0  0  0  0  0  0  0  0  0  0  0  0
   28.2100   26.8390   50.4540 N   0  0  0  0  0  0  0  0  0  0  0  0
   27.4290   26.2510   52.7170 N   0  0  0  0  0  0  0  0  0  0  0  0
   28.0570   25.4370   52.7780 H   0  0  0  0  0  0  0  0  0  0  0  0
   26.8040   26.4810   53.5030 H   0  0  0  0  0  0  0  0  0  0  0  0
  1  2  2  0  0  0  0
  1  6  1  0  0  0  0
  2  3  1  0  0  0  0
  3  7  1  0  0  0  0
  3  4  2  0  0  0  0
  5  4  1  0  0  0  0
  5 12  1  0  0  0  0
  6  5  2  0  0  0  0
  7 11  1  0  0  0  0
  8  9  2  0  0  0  0
  8  7  1  0  0  0  0
  9 10  1  0  0  0  0
 10 22  1  0  0  0  0
 11 10  2  0  0  0  0
 12 21  1  0  0  0  0
 13 14  1  0  0  0  0
 13 12  2  0  0  0  0
 14 15  2  0  0  0  0
 15 16  1  0  0  0  0
 16 17  1  0  0  0  0
 17 18  2  0  0  0  0
 19 18  1  0  0  0  0
 20 19  2  0  0  0  0
 21 16  2  0  0  0  0
 21 20  1  0  0  0  0
 22 23  2  0  0  0  0
 22 26  1  0  0  0  0
 23 24  1  0  0  0  0
 24 25  1  0  0  0  0
 25 27  1  0  0  0  0
 26 25  2  0  0  0  0
 27 28  1  0  0  0  0
 27 29  1  0  0  0  0
M  END
>  <minimizedAffinity>
-7.23432398

$$$$
