
 OpenBabel03272514473D

 43 49  0  0  0  0  0  0  0  0999 V2000
   31.5590   32.1230   42.2730 C   0  0  0  0  0  0  0  0  0  0  0  0
   30.4330   32.9580   42.5110 C   0  0  0  0  0  3  0  0  0  0  0  0
   29.7750   32.7940   43.7000 C   0  0  0  0  0  3  0  0  0  0  0  0
   30.2630   31.8550   44.5210 N   0  0  0  0  0  0  0  0  0  0  0  0
   31.2850   31.0800   44.3290 C   0  0  0  0  0  0  0  0  0  0  0  0
   31.9510   31.2230   43.1670 N   0  0  0  0  0  0  0  0  0  0  0  0
   31.5860   30.1820   45.3650 N   0  0  0  0  0  0  0  0  0  0  0  0
   32.7420   30.3610   46.0580 C   0  0  0  0  0  3  0  0  0  0  0  0
   32.8430   29.3770   47.0200 C   0  0  0  0  0  0  0  0  0  0  0  0
   31.7520   28.6200   46.8990 N   0  0  0  0  0  0  0  0  0  0  0  0
   30.9690   29.1140   45.8730 C   0  0  0  0  0  0  0  0  0  0  0  0
   29.7370   28.5290   45.4550 C   0  0  0  0  0  0  0  0  0  0  0  0
   29.6310   27.7670   44.2750 C   0  0  0  0  0  3  0  0  0  0  0  0
   28.3300   27.3600   44.1140 N   0  0  0  0  0  0  0  0  0  0  0  0
   27.6290   27.8800   45.2090 C   0  0  0  0  0  3  0  0  0  0  0  0
   28.5180   28.5400   45.9380 N   0  0  0  0  0  0  0  0  0  0  0  0
   27.7660   28.9580   47.0400 C   0  0  0  0  0  0  0  0  0  0  0  0
   27.7060   28.0230   47.9930 N   0  0  0  0  0  0  0  0  0  0  0  0
   26.9640   28.2450   49.1090 C   0  0  0  0  0  3  0  0  0  0  0  0
   26.2710   29.3640   49.3260 N   0  0  0  0  0  0  0  0  0  0  0  0
   26.3020   30.3350   48.3910 C   0  0  0  0  0  0  0  0  0  0  0  0
   25.6360   31.5260   48.4840 C   0  0  0  0  0  3  0  0  0  0  0  0
   25.6990   32.4700   47.5050 C   0  0  0  0  0  3  0  0  0  0  0  0
   26.4650   32.2220   46.3690 C   0  0  0  0  0  3  0  0  0  0  0  0
   27.1560   31.0450   46.2200 C   0  0  0  0  0  3  0  0  0  0  0  0
   27.0600   30.1300   47.2320 C   0  0  0  0  0  0  0  0  0  0  0  0
   33.8560   29.1310   47.9910 N   0  0  0  0  0  0  0  0  0  0  0  0
   33.7140   28.3040   49.0550 C   0  0  0  0  0  3  0  0  0  0  0  0
   34.8210   28.2580   49.8050 N   0  0  0  0  0  0  0  0  0  0  0  0
   35.7100   29.0710   49.2220 C   0  0  0  0  0  0  0  0  0  0  0  0
   37.0240   29.4130   49.5590 C   0  0  0  0  0  0  0  0  0  0  0  0
   37.5930   28.9430   50.5660 O   0  0  0  0  0  0  0  0  0  0  0  0
   37.6330   30.2840   48.7210 N   0  0  0  0  0  0  0  0  0  0  0  0
   37.0400   30.8130   47.6160 C   0  0  0  0  0  0  0  0  0  0  0  0
   37.8600   31.7160   46.8660 N   0  0  0  0  0  0  0  0  0  0  0  0
   35.7770   30.4700   47.3130 N   0  0  0  0  0  0  0  0  0  0  0  0
   35.1090   29.6080   48.1000 C   0  0  0  0  0  0  0  0  0  0  0  0
   38.6020   30.5630   48.9310 H   0  0  0  0  0  0  0  0  0  0  0  0
   38.8210   31.9200   47.1770 H   0  0  0  0  0  0  0  0  0  0  0  0
   37.4880   32.1620   46.0150 H   0  0  0  0  0  0  0  0  0  0  0  0
   32.2890   32.2770   41.0350 N   0  0  0  0  0  0  0  0  0  0  0  0
   33.1080   31.6830   40.8430 H   0  0  0  0  0  0  0  0  0  0  0  0
   31.9910   32.9820   40.3450 H   0  0  0  0  0  0  0  0  0  0  0  0
  1  2  2  0  0  0  0
  1  6  1  0  0  0  0
  2  3  1  0  0  0  0
  3  4  2  0  0  0  0
  5  4  1  0  0  0  0
  5  7  1  0  0  0  0
  6  5  2  0  0  0  0
  7 11  1  0  0  0  0
  7  8  1  0  0  0  0
  8  9  2  0  0  0  0
  9 27  1  0  0  0  0
 10  9  1  0  0  0  0
 11 10  2  0  0  0  0
 12 11  1  0  0  0  0
 12 16  1  0  0  0  0
 13 12  2  0  0  0  0
 14 13  1  0  0  0  0
 14 15  2  0  0  0  0
 15 16  1  0  0  0  0
 16 17  1  0  0  0  0
 17 26  2  0  0  0  0
 17 18  1  0  0  0  0
 18 19  2  0  0  0  0
 19 20  1  0  0  0  0
 21 22  1  0  0  0  0
 21 20  2  0  0  0  0
 23 22  2  0  0  0  0
 24 23  1  0  0  0  0
 25 24  2  0  0  0  0
 25 26  1  0  0  0  0
 26 21  1  0  0  0  0
 27 37  1  0  0  0  0
 27 28  1  0  0  0  0
 28 29  2  0  0  0  0
 30 31  1  0  0  0  0
 30 29  1  0  0  0  0
 31 32  2  0  0  0  0
 33 38  1  0  0  0  0
 33 31  1  0  0  0  0
 34 33  1  0  0  0  0
 35 39  1  0  0  0  0
 35 34  1  0  0  0  0
 36 34  2  0  0  0  0
 36 37  1  0  0  0  0
 37 30  2  0  0  0  0
 40 35  1  0  0  0  0
 41  1  1  0  0  0  0
 42 41  1  0  0  0  0
 43 41  1  0  0  0  0
M  END
>  <minimizedAffinity>
-8.42340374

$$$$

 OpenBabel03272514473D

 43 49  0  0  0  0  0  0  0  0999 V2000
   31.1660   30.7860   42.6290 C   0  0  0  0  0  0  0  0  0  0  0  0
   29.8140   31.1340   42.8930 C   0  0  0  0  0  3  0  0  0  0  0  0
   29.3720   30.9890   44.1810 C   0  0  0  0  0  3  0  0  0  0  0  0
   30.2680   30.5290   45.0640 N   0  0  0  0  0  0  0  0  0  0  0  0
   31.5040   30.2030   44.8500 C   0  0  0  0  0  0  0  0  0  0  0  0
   31.9630   30.3380   43.5910 N   0  0  0  0  0  0  0  0  0  0  0  0
   32.2280   29.7530   45.9650 N   0  0  0  0  0  0  0  0  0  0  0  0
   33.2470   30.5250   46.4280 C   0  0  0  0  0  3  0  0  0  0  0  0
   33.8210   29.9020   47.5160 C   0  0  0  0  0  0  0  0  0  0  0  0
   33.1460   28.7670   47.7000 N   0  0  0  0  0  0  0  0  0  0  0  0
   32.1570   28.6690   46.7390 C   0  0  0  0  0  0  0  0  0  0  0  0
   31.2600   27.5660   46.6260 C   0  0  0  0  0  0  0  0  0  0  0  0
   31.4350   26.5530   45.6620 C   0  0  0  0  0  3  0  0  0  0  0  0
   30.4110   25.6450   45.7690 N   0  0  0  0  0  0  0  0  0  0  0  0
   29.5970   26.1070   46.8100 C   0  0  0  0  0  3  0  0  0  0  0  0
   30.1620   27.2210   47.2540 N   0  0  0  0  0  0  0  0  0  0  0  0
   29.3430   27.5750   48.3310 C   0  0  0  0  0  0  0  0  0  0  0  0
   29.7060   26.9630   49.4620 N   0  0  0  0  0  0  0  0  0  0  0  0
   28.9780   27.1500   50.5930 C   0  0  0  0  0  3  0  0  0  0  0  0
   27.8950   27.9250   50.6560 N   0  0  0  0  0  0  0  0  0  0  0  0
   27.4910   28.5640   49.5390 C   0  0  0  0  0  0  0  0  0  0  0  0
   26.3980   29.3820   49.4620 C   0  0  0  0  0  3  0  0  0  0  0  0
   26.0340   29.9980   48.3030 C   0  0  0  0  0  3  0  0  0  0  0  0
   26.7940   29.7910   47.1550 C   0  0  0  0  0  3  0  0  0  0  0  0
   27.9020   28.9800   47.1710 C   0  0  0  0  0  3  0  0  0  0  0  0
   28.2250   28.3860   48.3600 C   0  0  0  0  0  0  0  0  0  0  0  0
   34.9100   30.3000   48.3450 N   0  0  0  0  0  0  0  0  0  0  0  0
   34.8290   30.4730   49.6870 C   0  0  0  0  0  3  0  0  0  0  0  0
   36.0000   30.8490   50.2140 N   0  0  0  0  0  0  0  0  0  0  0  0
   36.8700   30.9250   49.1980 C   0  0  0  0  0  0  0  0  0  0  0  0
   38.2250   31.2650   49.1520 C   0  0  0  0  0  0  0  0  0  0  0  0
   38.8650   31.5760   50.1780 O   0  0  0  0  0  0  0  0  0  0  0  0
   38.7930   31.2320   47.9240 N   0  0  0  0  0  0  0  0  0  0  0  0
   38.1240   30.8970   46.7880 C   0  0  0  0  0  0  0  0  0  0  0  0
   38.9120   30.9260   45.5920 N   0  0  0  0  0  0  0  0  0  0  0  0
   36.8220   30.5740   46.8570 N   0  0  0  0  0  0  0  0  0  0  0  0
   36.1900   30.5840   48.0440 C   0  0  0  0  0  0  0  0  0  0  0  0
   39.7910   31.4750   47.8450 H   0  0  0  0  0  0  0  0  0  0  0  0
   39.9070   31.1870   45.6380 H   0  0  0  0  0  0  0  0  0  0  0  0
   38.4820   30.6860   44.6880 H   0  0  0  0  0  0  0  0  0  0  0  0
   31.6730   30.9400   41.2840 N   0  0  0  0  0  0  0  0  0  0  0  0
   32.6510   30.6940   41.0710 H   0  0  0  0  0  0  0  0  0  0  0  0
   31.0580   31.2960   40.5390 H   0  0  0  0  0  0  0  0  0  0  0  0
  1  2  2  0  0  0  0
  1  6  1  0  0  0  0
  2  3  1  0  0  0  0
  3  4  2  0  0  0  0
  5  4  1  0  0  0  0
  5  7  1  0  0  0  0
  6  5  2  0  0  0  0
  7  8  1  0  0  0  0
  7 11  1  0  0  0  0
  8  9  2  0  0  0  0
  9 10  1  0  0  0  0
  9 27  1  0  0  0  0
 11 10  2  0  0  0  0
 12 11  1  0  0  0  0
 12 16  1  0  0  0  0
 13 14  1  0  0  0  0
 13 12  2  0  0  0  0
 14 15  2  0  0  0  0
 15 16  1  0  0  0  0
 16 17  1  0  0  0  0
 17 26  2  0  0  0  0
 17 18  1  0  0  0  0
 18 19  2  0  0  0  0
 19 20  1  0  0  0  0
 21 20  2  0  0  0  0
 22 21  1  0  0  0  0
 23 22  2  0  0  0  0
 24 25  2  0  0  0  0
 24 23  1  0  0  0  0
 25 26  1  0  0  0  0
 26 21  1  0  0  0  0
 27 28  1  0  0  0  0
 28 29  2  0  0  0  0
 30 29  1  0  0  0  0
 31 30  1  0  0  0  0
 31 32  2  0  0  0  0
 33 31  1  0  0  0  0
 34 36  2  0  0  0  0
 34 33  1  0  0  0  0
 35 39  1  0  0  0  0
 35 34  1  0  0  0  0
 36 37  1  0  0  0  0
 37 27  1  0  0  0  0
 37 30  2  0  0  0  0
 38 33  1  0  0  0  0
 40 35  1  0  0  0  0
 41  1  1  0  0  0  0
 42 41  1  0  0  0  0
 43 41  1  0  0  0  0
M  END
>  <minimizedAffinity>
-8.3919239

$$$$

 OpenBabel03272514473D

 43 49  0  0  0  0  0  0  0  0999 V2000
   27.9810   26.8510   48.9600 C   0  0  0  0  0  0  0  0  0  0  0  0
   28.7780   27.0350   50.1220 C   0  0  0  0  0  3  0  0  0  0  0  0
   29.8880   27.8270   49.9990 C   0  0  0  0  0  3  0  0  0  0  0  0
   30.1090   28.3480   48.7850 N   0  0  0  0  0  0  0  0  0  0  0  0
   29.4010   28.1950   47.7100 C   0  0  0  0  0  0  0  0  0  0  0  0
   28.3030   27.4210   47.8060 N   0  0  0  0  0  0  0  0  0  0  0  0
   29.8600   28.8650   46.5650 N   0  0  0  0  0  0  0  0  0  0  0  0
   29.1080   29.8840   46.0690 C   0  0  0  0  0  3  0  0  0  0  0  0
   29.7330   30.3990   44.9520 C   0  0  0  0  0  0  0  0  0  0  0  0
   30.8510   29.6890   44.7860 N   0  0  0  0  0  0  0  0  0  0  0  0
   30.9340   28.7360   45.7840 C   0  0  0  0  0  0  0  0  0  0  0  0
   31.9920   27.7870   45.8960 C   0  0  0  0  0  0  0  0  0  0  0  0
   31.7940   26.4110   45.6640 C   0  0  0  0  0  3  0  0  0  0  0  0
   32.9750   25.7430   45.8720 N   0  0  0  0  0  0  0  0  0  0  0  0
   33.9080   26.7200   46.2380 C   0  0  0  0  0  3  0  0  0  0  0  0
   33.2590   27.8750   46.2230 N   0  0  0  0  0  0  0  0  0  0  0  0
   34.2660   28.8000   46.5180 C   0  0  0  0  0  0  0  0  0  0  0  0
   34.9340   29.1830   45.4260 N   0  0  0  0  0  0  0  0  0  0  0  0
   35.9850   30.0350   45.5430 C   0  0  0  0  0  3  0  0  0  0  0  0
   36.4100   30.5300   46.7070 N   0  0  0  0  0  0  0  0  0  0  0  0
   35.7650   30.1720   47.8360 C   0  0  0  0  0  0  0  0  0  0  0  0
   36.0980   30.6000   49.0910 C   0  0  0  0  0  3  0  0  0  0  0  0
   35.4130   30.2000   50.1990 C   0  0  0  0  0  3  0  0  0  0  0  0
   34.3390   29.3260   50.0560 C   0  0  0  0  0  3  0  0  0  0  0  0
   33.9590   28.8620   48.8210 C   0  0  0  0  0  3  0  0  0  0  0  0
   34.6780   29.2950   47.7410 C   0  0  0  0  0  0  0  0  0  0  0  0
   29.3530   31.4630   44.0850 N   0  0  0  0  0  0  0  0  0  0  0  0
   28.1610   31.5440   43.4460 C   0  0  0  0  0  3  0  0  0  0  0  0
   28.0690   32.6480   42.6960 N   0  0  0  0  0  0  0  0  0  0  0  0
   29.2250   33.3070   42.8430 C   0  0  0  0  0  0  0  0  0  0  0  0
   29.6890   34.5100   42.3020 C   0  0  0  0  0  0  0  0  0  0  0  0
   28.9960   35.1970   41.5230 O   0  0  0  0  0  0  0  0  0  0  0  0
   30.9350   34.8770   42.6820 N   0  0  0  0  0  0  0  0  0  0  0  0
   31.7140   34.1520   43.5300 C   0  0  0  0  0  0  0  0  0  0  0  0
   33.0010   34.7180   43.8010 N   0  0  0  0  0  0  0  0  0  0  0  0
   31.2470   32.9980   44.0360 N   0  0  0  0  0  0  0  0  0  0  0  0
   30.0160   32.5700   43.7040 C   0  0  0  0  0  0  0  0  0  0  0  0
   31.3170   35.7580   42.3080 H   0  0  0  0  0  0  0  0  0  0  0  0
   33.2740   35.6100   43.3650 H   0  0  0  0  0  0  0  0  0  0  0  0
   33.6540   34.2320   44.4320 H   0  0  0  0  0  0  0  0  0  0  0  0
   26.7930   26.0340   49.0550 N   0  0  0  0  0  0  0  0  0  0  0  0
   26.2000   25.8870   48.2250 H   0  0  0  0  0  0  0  0  0  0  0  0
   26.5370   25.5970   49.9530 H   0  0  0  0  0  0  0  0  0  0  0  0
  1 41  1  0  0  0  0
  1  2  1  0  0  0  0
  3  2  2  0  0  0  0
  4  3  1  0  0  0  0
  5  6  1  0  0  0  0
  5  4  2  0  0  0  0
  6  1  2  0  0  0  0
  7  5  1  0  0  0  0
  8  7  1  0  0  0  0
  9  8  2  0  0  0  0
 10  9  1  0  0  0  0
 10 11  2  0  0  0  0
 11 12  1  0  0  0  0
 11  7  1  0  0  0  0
 12 16  1  0  0  0  0
 13 14  1  0  0  0  0
 13 12  2  0  0  0  0
 14 15  2  0  0  0  0
 16 15  1  0  0  0  0
 16 17  1  0  0  0  0
 17 26  1  0  0  0  0
 18 19  1  0  0  0  0
 18 17  2  0  0  0  0
 19 20  2  0  0  0  0
 20 21  1  0  0  0  0
 21 22  1  0  0  0  0
 22 23  2  0  0  0  0
 24 23  1  0  0  0  0
 25 24  2  0  0  0  0
 26 21  2  0  0  0  0
 26 25  1  0  0  0  0
 27  9  1  0  0  0  0
 28 27  1  0  0  0  0
 29 30  1  0  0  0  0
 29 28  2  0  0  0  0
 30 37  2  0  0  0  0
 31 33  1  0  0  0  0
 31 30  1  0  0  0  0
 32 31  2  0  0  0  0
 33 34  1  0  0  0  0
 34 35  1  0  0  0  0
 34 36  2  0  0  0  0
 35 40  1  0  0  0  0
 37 36  1  0  0  0  0
 37 27  1  0  0  0  0
 38 33  1  0  0  0  0
 39 35  1  0  0  0  0
 41 43  1  0  0  0  0
 42 41  1  0  0  0  0
M  END
>  <minimizedAffinity>
-8.16391182

$$$$

 OpenBabel03272514473D

 43 49  0  0  0  0  0  0  0  0999 V2000
   27.9100   26.8140   50.1560 C   0  0  0  0  0  0  0  0  0  0  0  0
   29.0650   27.1190   50.9260 C   0  0  0  0  0  3  0  0  0  0  0  0
   30.0360   27.8740   50.3240 C   0  0  0  0  0  3  0  0  0  0  0  0
   29.7940   28.2470   49.0600 N   0  0  0  0  0  0  0  0  0  0  0  0
   28.7530   27.9820   48.3350 C   0  0  0  0  0  0  0  0  0  0  0  0
   27.7830   27.2420   48.9050 N   0  0  0  0  0  0  0  0  0  0  0  0
   28.7530   28.5080   47.0340 N   0  0  0  0  0  0  0  0  0  0  0  0
   27.8470   29.4740   46.7270 C   0  0  0  0  0  3  0  0  0  0  0  0
   28.0170   29.8450   45.4100 C   0  0  0  0  0  0  0  0  0  0  0  0
   29.0200   29.1040   44.9370 N   0  0  0  0  0  0  0  0  0  0  0  0
   29.4800   28.2720   45.9400 C   0  0  0  0  0  0  0  0  0  0  0  0
   30.5340   27.3260   45.7720 C   0  0  0  0  0  0  0  0  0  0  0  0
   30.2850   25.9640   45.5110 C   0  0  0  0  0  3  0  0  0  0  0  0
   31.4800   25.2940   45.4280 N   0  0  0  0  0  0  0  0  0  0  0  0
   32.4740   26.2570   45.6410 C   0  0  0  0  0  3  0  0  0  0  0  0
   31.8420   27.4060   45.8280 N   0  0  0  0  0  0  0  0  0  0  0  0
   32.8920   28.3200   45.9560 C   0  0  0  0  0  0  0  0  0  0  0  0
   33.3160   28.7680   44.7700 N   0  0  0  0  0  0  0  0  0  0  0  0
   34.3720   29.6200   44.7100 C   0  0  0  0  0  3  0  0  0  0  0  0
   35.0350   30.0530   45.7830 N   0  0  0  0  0  0  0  0  0  0  0  0
   34.6420   29.6280   47.0010 C   0  0  0  0  0  0  0  0  0  0  0  0
   35.2350   29.9890   48.1790 C   0  0  0  0  0  3  0  0  0  0  0  0
   34.7990   29.5220   49.3820 C   0  0  0  0  0  3  0  0  0  0  0  0
   33.7150   28.6500   49.4210 C   0  0  0  0  0  3  0  0  0  0  0  0
   33.0790   28.2520   48.2710 C   0  0  0  0  0  3  0  0  0  0  0  0
   33.5560   28.7490   47.0890 C   0  0  0  0  0  0  0  0  0  0  0  0
   27.3230   30.8080   44.6210 N   0  0  0  0  0  0  0  0  0  0  0  0
   27.2350   30.7710   43.2690 C   0  0  0  0  0  3  0  0  0  0  0  0
   26.5240   31.7970   42.7870 N   0  0  0  0  0  0  0  0  0  0  0  0
   26.1370   32.5240   43.8430 C   0  0  0  0  0  0  0  0  0  0  0  0
   25.3800   33.6960   43.9430 C   0  0  0  0  0  0  0  0  0  0  0  0
   24.9190   34.2740   42.9370 O   0  0  0  0  0  0  0  0  0  0  0  0
   25.1830   34.1560   45.2000 N   0  0  0  0  0  0  0  0  0  0  0  0
   25.6720   33.5490   46.3150 C   0  0  0  0  0  0  0  0  0  0  0  0
   25.3480   34.2000   47.5490 N   0  0  0  0  0  0  0  0  0  0  0  0
   26.3970   32.4240   46.1940 N   0  0  0  0  0  0  0  0  0  0  0  0
   26.6340   31.9070   44.9750 C   0  0  0  0  0  0  0  0  0  0  0  0
   24.6300   35.0160   45.3200 H   0  0  0  0  0  0  0  0  0  0  0  0
   24.7840   35.0620   47.5430 H   0  0  0  0  0  0  0  0  0  0  0  0
   25.6790   33.8060   48.4410 H   0  0  0  0  0  0  0  0  0  0  0  0
   26.8570   26.0320   50.7620 N   0  0  0  0  0  0  0  0  0  0  0  0
   26.0120   25.7990   50.2210 H   0  0  0  0  0  0  0  0  0  0  0  0
   26.9510   25.7070   51.7350 H   0  0  0  0  0  0  0  0  0  0  0  0
  1 41  1  0  0  0  0
  1  2  1  0  0  0  0
  3  2  2  0  0  0  0
  4  3  1  0  0  0  0
  5  6  1  0  0  0  0
  5  4  2  0  0  0  0
  6  1  2  0  0  0  0
  7  5  1  0  0  0  0
  8  7  1  0  0  0  0
  9  8  2  0  0  0  0
 10  9  1  0  0  0  0
 10 11  2  0  0  0  0
 11  7  1  0  0  0  0
 12 16  1  0  0  0  0
 12 11  1  0  0  0  0
 13 12  2  0  0  0  0
 14 13  1  0  0  0  0
 14 15  2  0  0  0  0
 15 16  1  0  0  0  0
 16 17  1  0  0  0  0
 17 26  1  0  0  0  0
 18 17  2  0  0  0  0
 19 18  1  0  0  0  0
 19 20  2  0  0  0  0
 20 21  1  0  0  0  0
 21 26  2  0  0  0  0
 21 22  1  0  0  0  0
 22 23  2  0  0  0  0
 23 24  1  0  0  0  0
 25 24  2  0  0  0  0
 26 25  1  0  0  0  0
 27 37  1  0  0  0  0
 27  9  1  0  0  0  0
 28 27  1  0  0  0  0
 29 28  2  0  0  0  0
 29 30  1  0  0  0  0
 30 31  1  0  0  0  0
 30 37  2  0  0  0  0
 31 33  1  0  0  0  0
 32 31  2  0  0  0  0
 33 38  1  0  0  0  0
 33 34  1  0  0  0  0
 34 35  1  0  0  0  0
 35 40  1  0  0  0  0
 36 34  2  0  0  0  0
 37 36  1  0  0  0  0
 39 35  1  0  0  0  0
 41 43  1  0  0  0  0
 42 41  1  0  0  0  0
M  END
>  <minimizedAffinity>
-8.09558582

$$$$

 OpenBabel03272514473D

 43 49  0  0  0  0  0  0  0  0999 V2000
   32.6890   32.4350   43.4390 C   0  0  0  0  0  0  0  0  0  0  0  0
   32.8000   31.8820   42.1340 C   0  0  0  0  0  3  0  0  0  0  0  0
   32.2330   30.6530   41.9260 C   0  0  0  0  0  3  0  0  0  0  0  0
   31.6290   30.0960   42.9840 N   0  0  0  0  0  0  0  0  0  0  0  0
   31.5140   30.5770   44.1820 C   0  0  0  0  0  0  0  0  0  0  0  0
   32.0630   31.7850   44.4120 N   0  0  0  0  0  0  0  0  0  0  0  0
   30.8180   29.7800   45.1060 N   0  0  0  0  0  0  0  0  0  0  0  0
   29.6210   30.2270   45.5710 C   0  0  0  0  0  3  0  0  0  0  0  0
   29.1140   29.3020   46.4600 C   0  0  0  0  0  0  0  0  0  0  0  0
   30.0040   28.3110   46.5210 N   0  0  0  0  0  0  0  0  0  0  0  0
   31.0650   28.6030   45.6840 C   0  0  0  0  0  0  0  0  0  0  0  0
   32.2090   27.7680   45.5230 C   0  0  0  0  0  0  0  0  0  0  0  0
   32.1210   26.4720   44.9770 C   0  0  0  0  0  3  0  0  0  0  0  0
   33.3680   25.8980   44.9720 N   0  0  0  0  0  0  0  0  0  0  0  0
   34.2310   26.8530   45.5240 C   0  0  0  0  0  3  0  0  0  0  0  0
   33.4810   27.9060   45.8110 N   0  0  0  0  0  0  0  0  0  0  0  0
   34.4170   28.8340   46.2800 C   0  0  0  0  0  0  0  0  0  0  0  0
   34.9780   29.5290   45.2850 N   0  0  0  0  0  0  0  0  0  0  0  0
   35.9540   30.4320   45.5610 C   0  0  0  0  0  3  0  0  0  0  0  0
   36.4040   30.6820   46.7920 N   0  0  0  0  0  0  0  0  0  0  0  0
   35.8660   30.0050   47.8270 C   0  0  0  0  0  0  0  0  0  0  0  0
   36.2370   30.1590   49.1340 C   0  0  0  0  0  3  0  0  0  0  0  0
   35.6620   29.4430   50.1400 C   0  0  0  0  0  3  0  0  0  0  0  0
   34.6650   28.5210   49.8340 C   0  0  0  0  0  3  0  0  0  0  0  0
   34.2510   28.3230   48.5400 C   0  0  0  0  0  3  0  0  0  0  0  0
   34.8590   29.0680   47.5680 C   0  0  0  0  0  0  0  0  0  0  0  0
   27.9020   29.3050   47.2090 N   0  0  0  0  0  0  0  0  0  0  0  0
   26.7350   29.8420   46.7790 C   0  0  0  0  0  3  0  0  0  0  0  0
   25.7580   29.7050   47.6820 N   0  0  0  0  0  0  0  0  0  0  0  0
   26.2930   29.0650   48.7300 C   0  0  0  0  0  0  0  0  0  0  0  0
   25.7490   28.6560   49.9520 C   0  0  0  0  0  0  0  0  0  0  0  0
   24.5550   28.8640   50.2470 O   0  0  0  0  0  0  0  0  0  0  0  0
   26.6050   28.0210   50.7860 N   0  0  0  0  0  0  0  0  0  0  0  0
   27.9110   27.7790   50.4930 C   0  0  0  0  0  0  0  0  0  0  0  0
   28.6430   27.0940   51.5150 N   0  0  0  0  0  0  0  0  0  0  0  0
   28.4110   28.1820   49.3130 N   0  0  0  0  0  0  0  0  0  0  0  0
   27.6190   28.8200   48.4320 C   0  0  0  0  0  0  0  0  0  0  0  0
   26.2460   27.7020   51.6970 H   0  0  0  0  0  0  0  0  0  0  0  0
   28.1730   26.8240   52.3920 H   0  0  0  0  0  0  0  0  0  0  0  0
   29.6380   26.8720   51.3750 H   0  0  0  0  0  0  0  0  0  0  0  0
   33.2620   33.7370   43.6930 N   0  0  0  0  0  0  0  0  0  0  0  0
   33.1920   34.1570   44.6310 H   0  0  0  0  0  0  0  0  0  0  0  0
   33.7410   34.2460   42.9360 H   0  0  0  0  0  0  0  0  0  0  0  0
  1 41  1  0  0  0  0
  1  6  1  0  0  0  0
  2  1  2  0  0  0  0
  3  2  1  0  0  0  0
  3  4  2  0  0  0  0
  4  5  1  0  0  0  0
  5  6  2  0  0  0  0
  5  7  1  0  0  0  0
  7  8  1  0  0  0  0
  7 11  1  0  0  0  0
  8  9  2  0  0  0  0
  9 10  1  0  0  0  0
  9 27  1  0  0  0  0
 11 10  2  0  0  0  0
 12 11  1  0  0  0  0
 12 16  1  0  0  0  0
 13 12  2  0  0  0  0
 14 13  1  0  0  0  0
 14 15  2  0  0  0  0
 15 16  1  0  0  0  0
 16 17  1  0  0  0  0
 17 26  1  0  0  0  0
 18 19  1  0  0  0  0
 18 17  2  0  0  0  0
 19 20  2  0  0  0  0
 20 21  1  0  0  0  0
 21 22  1  0  0  0  0
 22 23  2  0  0  0  0
 24 23  1  0  0  0  0
 25 24  2  0  0  0  0
 26 21  2  0  0  0  0
 26 25  1  0  0  0  0
 27 37  1  0  0  0  0
 28 27  1  0  0  0  0
 28 29  2  0  0  0  0
 29 30  1  0  0  0  0
 30 31  1  0  0  0  0
 31 32  2  0  0  0  0
 31 33  1  0  0  0  0
 33 38  1  0  0  0  0
 34 33  1  0  0  0  0
 34 35  1  0  0  0  0
 35 39  1  0  0  0  0
 36 34  2  0  0  0  0
 37 30  2  0  0  0  0
 37 36  1  0  0  0  0
 40 35  1  0  0  0  0
 41 42  1  0  0  0  0
 43 41  1  0  0  0  0
M  END
>  <minimizedAffinity>
-7.98628044

$$$$

 OpenBabel03272514473D

 43 49  0  0  0  0  0  0  0  0999 V2000
   32.9090   29.8110   46.1590 C   0  0  0  0  0  0  0  0  0  0  0  0
   33.7790   28.8180   45.6330 C   0  0  0  0  0  3  0  0  0  0  0  0
   33.2730   27.9940   44.6640 C   0  0  0  0  0  3  0  0  0  0  0  0
   31.9980   28.2110   44.3120 N   0  0  0  0  0  0  0  0  0  0  0  0
   31.1840   29.1060   44.7760 C   0  0  0  0  0  0  0  0  0  0  0  0
   31.6580   29.9300   45.7290 N   0  0  0  0  0  0  0  0  0  0  0  0
   29.8940   29.1180   44.2210 N   0  0  0  0  0  0  0  0  0  0  0  0
   29.5260   30.1880   43.4680 C   0  0  0  0  0  3  0  0  0  0  0  0
   28.2330   30.0000   43.0250 C   0  0  0  0  0  0  0  0  0  0  0  0
   27.8360   28.8230   43.5120 N   0  0  0  0  0  0  0  0  0  0  0  0
   28.8630   28.2710   44.2550 C   0  0  0  0  0  0  0  0  0  0  0  0
   28.7730   27.0240   44.9400 C   0  0  0  0  0  0  0  0  0  0  0  0
   28.5830   25.8060   44.2580 C   0  0  0  0  0  3  0  0  0  0  0  0
   28.5050   24.7840   45.1710 N   0  0  0  0  0  0  0  0  0  0  0  0
   28.6490   25.3830   46.4290 C   0  0  0  0  0  3  0  0  0  0  0  0
   28.8030   26.6790   46.2050 N   0  0  0  0  0  0  0  0  0  0  0  0
   29.0160   27.1920   47.4890 C   0  0  0  0  0  0  0  0  0  0  0  0
   30.3000   27.1210   47.8530 N   0  0  0  0  0  0  0  0  0  0  0  0
   30.6720   27.5220   49.0960 C   0  0  0  0  0  3  0  0  0  0  0  0
   29.8190   27.9960   50.0060 N   0  0  0  0  0  0  0  0  0  0  0  0
   28.5130   28.0860   49.6830 C   0  0  0  0  0  0  0  0  0  0  0  0
   27.5350   28.5470   50.5190 C   0  0  0  0  0  3  0  0  0  0  0  0
   26.2280   28.6110   50.1410 C   0  0  0  0  0  3  0  0  0  0  0  0
   25.8690   28.1940   48.8620 C   0  0  0  0  0  3  0  0  0  0  0  0
   26.8070   27.7210   47.9780 C   0  0  0  0  0  3  0  0  0  0  0  0
   28.1060   27.6780   48.4070 C   0  0  0  0  0  0  0  0  0  0  0  0
   27.4010   30.8240   42.2140 N   0  0  0  0  0  0  0  0  0  0  0  0
   27.2330   30.6660   40.8780 C   0  0  0  0  0  3  0  0  0  0  0  0
   26.3980   31.5780   40.3670 N   0  0  0  0  0  0  0  0  0  0  0  0
   26.0080   32.3520   41.3880 C   0  0  0  0  0  0  0  0  0  0  0  0
   25.1490   33.4540   41.4480 C   0  0  0  0  0  0  0  0  0  0  0  0
   24.5720   33.9000   40.4350 O   0  0  0  0  0  0  0  0  0  0  0  0
   24.9860   33.9990   42.6770 N   0  0  0  0  0  0  0  0  0  0  0  0
   25.5990   33.5350   43.7990 C   0  0  0  0  0  0  0  0  0  0  0  0
   25.2910   34.2560   44.9970 N   0  0  0  0  0  0  0  0  0  0  0  0
   26.4210   32.4760   43.7160 N   0  0  0  0  0  0  0  0  0  0  0  0
   26.6310   31.8820   42.5270 C   0  0  0  0  0  0  0  0  0  0  0  0
   24.3600   34.8120   42.7670 H   0  0  0  0  0  0  0  0  0  0  0  0
   24.6470   35.0600   44.9640 H   0  0  0  0  0  0  0  0  0  0  0  0
   25.7140   33.9720   45.8920 H   0  0  0  0  0  0  0  0  0  0  0  0
   33.4120   30.7100   47.1730 N   0  0  0  0  0  0  0  0  0  0  0  0
   32.7980   31.4370   47.5680 H   0  0  0  0  0  0  0  0  0  0  0  0
   34.3850   30.6240   47.5010 H   0  0  0  0  0  0  0  0  0  0  0  0
  1 41  1  0  0  0  0
  2  1  2  0  0  0  0
  3  2  1  0  0  0  0
  4  3  2  0  0  0  0
  4  5  1  0  0  0  0
  5  6  2  0  0  0  0
  6  1  1  0  0  0  0
  7 11  1  0  0  0  0
  7  5  1  0  0  0  0
  8  7  1  0  0  0  0
  9  8  2  0  0  0  0
  9 10  1  0  0  0  0
 10 11  2  0  0  0  0
 11 12  1  0  0  0  0
 12 16  1  0  0  0  0
 13 12  2  0  0  0  0
 13 14  1  0  0  0  0
 14 15  2  0  0  0  0
 16 15  1  0  0  0  0
 16 17  1  0  0  0  0
 17 18  2  0  0  0  0
 17 26  1  0  0  0  0
 18 19  1  0  0  0  0
 19 20  2  0  0  0  0
 21 20  1  0  0  0  0
 21 22  1  0  0  0  0
 23 22  2  0  0  0  0
 24 23  1  0  0  0  0
 25 26  1  0  0  0  0
 25 24  2  0  0  0  0
 26 21  2  0  0  0  0
 27 37  1  0  0  0  0
 27  9  1  0  0  0  0
 28 27  1  0  0  0  0
 29 28  2  0  0  0  0
 29 30  1  0  0  0  0
 30 31  1  0  0  0  0
 30 37  2  0  0  0  0
 31 33  1  0  0  0  0
 32 31  2  0  0  0  0
 33 38  1  0  0  0  0
 33 34  1  0  0  0  0
 34 35  1  0  0  0  0
 35 40  1  0  0  0  0
 36 34  2  0  0  0  0
 37 36  1  0  0  0  0
 39 35  1  0  0  0  0
 41 43  1  0  0  0  0
 41 42  1  0  0  0  0
M  END
>  <minimizedAffinity>
-7.83096552

$$$$

 OpenBabel03272514473D

 43 49  0  0  0  0  0  0  0  0999 V2000
   37.6760   29.6810   50.3640 C   0  0  0  0  0  0  0  0  0  0  0  0
   38.2420   30.9760   50.5160 C   0  0  0  0  0  3  0  0  0  0  0  0
   37.8750   31.9290   49.6040 C   0  0  0  0  0  3  0  0  0  0  0  0
   37.0140   31.5370   48.6560 N   0  0  0  0  0  0  0  0  0  0  0  0
   36.4840   30.3650   48.4930 C   0  0  0  0  0  0  0  0  0  0  0  0
   36.8290   29.4100   49.3780 N   0  0  0  0  0  0  0  0  0  0  0  0
   35.6000   30.2280   47.4120 N   0  0  0  0  0  0  0  0  0  0  0  0
   34.2840   30.0100   47.6770 C   0  0  0  0  0  3  0  0  0  0  0  0
   33.5990   29.9050   46.4850 C   0  0  0  0  0  0  0  0  0  0  0  0
   34.5030   30.0610   45.5160 N   0  0  0  0  0  0  0  0  0  0  0  0
   35.7460   30.2610   46.0860 C   0  0  0  0  0  0  0  0  0  0  0  0
   36.9480   30.4410   45.3390 C   0  0  0  0  0  0  0  0  0  0  0  0
   38.2040   30.5790   45.9610 C   0  0  0  0  0  3  0  0  0  0  0  0
   39.1670   30.7650   45.0010 N   0  0  0  0  0  0  0  0  0  0  0  0
   38.4920   30.7420   43.7740 C   0  0  0  0  0  3  0  0  0  0  0  0
   37.2130   30.5450   44.0590 N   0  0  0  0  0  0  0  0  0  0  0  0
   36.6240   30.4570   42.7940 C   0  0  0  0  0  0  0  0  0  0  0  0
   36.6840   29.2180   42.2960 N   0  0  0  0  0  0  0  0  0  0  0  0
   36.2090   28.9700   41.0480 C   0  0  0  0  0  3  0  0  0  0  0  0
   35.6720   29.9040   40.2620 N   0  0  0  0  0  0  0  0  0  0  0  0
   35.5900   31.1690   40.7230 C   0  0  0  0  0  0  0  0  0  0  0  0
   35.0680   32.2200   40.0210 C   0  0  0  0  0  3  0  0  0  0  0  0
   35.0170   33.4800   40.5360 C   0  0  0  0  0  3  0  0  0  0  0  0
   35.5090   33.7130   41.8170 C   0  0  0  0  0  3  0  0  0  0  0  0
   36.0450   32.6960   42.5690 C   0  0  0  0  0  3  0  0  0  0  0  0
   36.0720   31.4490   42.0060 C   0  0  0  0  0  0  0  0  0  0  0  0
   32.2160   29.6780   46.2270 N   0  0  0  0  0  0  0  0  0  0  0  0
   31.5440   28.5540   46.5770 C   0  0  0  0  0  3  0  0  0  0  0  0
   30.2580   28.6070   46.2140 N   0  0  0  0  0  0  0  0  0  0  0  0
   30.0790   29.7900   45.6130 C   0  0  0  0  0  0  0  0  0  0  0  0
   28.9510   30.3850   45.0380 C   0  0  0  0  0  0  0  0  0  0  0  0
   27.8410   29.8130   45.0140 O   0  0  0  0  0  0  0  0  0  0  0  0
   29.1450   31.6170   44.5130 N   0  0  0  0  0  0  0  0  0  0  0  0
   30.3410   32.2660   44.5240 C   0  0  0  0  0  0  0  0  0  0  0  0
   30.3310   33.5610   43.9150 N   0  0  0  0  0  0  0  0  0  0  0  0
   31.4110   31.6740   45.0820 N   0  0  0  0  0  0  0  0  0  0  0  0
   31.2930   30.4490   45.6240 C   0  0  0  0  0  0  0  0  0  0  0  0
   28.3400   32.0920   44.0800 H   0  0  0  0  0  0  0  0  0  0  0  0
   29.4590   33.9340   43.5110 H   0  0  0  0  0  0  0  0  0  0  0  0
   31.1950   34.1200   43.8800 H   0  0  0  0  0  0  0  0  0  0  0  0
   38.0290   28.6520   51.3160 N   0  0  0  0  0  0  0  0  0  0  0  0
   37.6300   27.7070   51.2250 H   0  0  0  0  0  0  0  0  0  0  0  0
   38.6790   28.8640   52.0860 H   0  0  0  0  0  0  0  0  0  0  0  0
  1  2  1  0  0  0  0
  1 41  1  0  0  0  0
  3  2  2  0  0  0  0
  4  3  1  0  0  0  0
  5  4  2  0  0  0  0
  5  6  1  0  0  0  0
  6  1  2  0  0  0  0
  7  8  1  0  0  0  0
  7  5  1  0  0  0  0
  9  8  2  0  0  0  0
 10 11  2  0  0  0  0
 10  9  1  0  0  0  0
 11  7  1  0  0  0  0
 12 13  2  0  0  0  0
 12 11  1  0  0  0  0
 14 13  1  0  0  0  0
 15 16  1  0  0  0  0
 15 14  2  0  0  0  0
 16 12  1  0  0  0  0
 17 16  1  0  0  0  0
 18 17  1  0  0  0  0
 19 18  2  0  0  0  0
 20 21  2  0  0  0  0
 20 19  1  0  0  0  0
 21 26  1  0  0  0  0
 22 23  2  0  0  0  0
 22 21  1  0  0  0  0
 23 24  1  0  0  0  0
 24 25  2  0  0  0  0
 26 25  1  0  0  0  0
 26 17  2  0  0  0  0
 27  9  1  0  0  0  0
 27 28  1  0  0  0  0
 29 28  2  0  0  0  0
 30 37  2  0  0  0  0
 30 29  1  0  0  0  0
 31 30  1  0  0  0  0
 32 31  2  0  0  0  0
 33 34  1  0  0  0  0
 33 31  1  0  0  0  0
 34 36  2  0  0  0  0
 35 34  1  0  0  0  0
 36 37  1  0  0  0  0
 37 27  1  0  0  0  0
 38 33  1  0  0  0  0
 39 35  1  0  0  0  0
 40 35  1  0  0  0  0
 41 43  1  0  0  0  0
 42 41  1  0  0  0  0
M  END
>  <minimizedAffinity>
-7.58226156

$$$$

 OpenBabel03272514473D

 43 49  0  0  0  0  0  0  0  0999 V2000
   32.1350   24.8050   45.9490 C   0  0  0  0  0  0  0  0  0  0  0  0
   32.1590   24.6960   44.5320 C   0  0  0  0  0  3  0  0  0  0  0  0
   32.4820   25.8230   43.8240 C   0  0  0  0  0  3  0  0  0  0  0  0
   32.7440   26.9190   44.5480 N   0  0  0  0  0  0  0  0  0  0  0  0
   32.7290   27.0460   45.8380 C   0  0  0  0  0  0  0  0  0  0  0  0
   32.4140   25.9520   46.5570 N   0  0  0  0  0  0  0  0  0  0  0  0
   33.0520   28.3170   46.3390 N   0  0  0  0  0  0  0  0  0  0  0  0
   34.2060   28.4580   47.0440 C   0  0  0  0  0  3  0  0  0  0  0  0
   34.3290   29.7720   47.4430 C   0  0  0  0  0  0  0  0  0  0  0  0
   33.2540   30.4090   46.9760 N   0  0  0  0  0  0  0  0  0  0  0  0
   32.4580   29.5100   46.2910 C   0  0  0  0  0  0  0  0  0  0  0  0
   31.2140   29.8490   45.6810 C   0  0  0  0  0  0  0  0  0  0  0  0
   31.0620   30.9920   44.8720 C   0  0  0  0  0  3  0  0  0  0  0  0
   29.7590   31.0770   44.4490 N   0  0  0  0  0  0  0  0  0  0  0  0
   29.1030   29.9720   45.0070 C   0  0  0  0  0  3  0  0  0  0  0  0
   30.0180   29.3120   45.7010 N   0  0  0  0  0  0  0  0  0  0  0  0
   29.3120   28.1940   46.1570 C   0  0  0  0  0  0  0  0  0  0  0  0
   29.3040   27.2030   45.2610 N   0  0  0  0  0  0  0  0  0  0  0  0
   28.6120   26.0640   45.5210 C   0  0  0  0  0  3  0  0  0  0  0  0
   27.9180   25.8600   46.6420 N   0  0  0  0  0  0  0  0  0  0  0  0
   27.8980   26.8320   47.5760 C   0  0  0  0  0  0  0  0  0  0  0  0
   27.2250   26.7560   48.7640 C   0  0  0  0  0  3  0  0  0  0  0  0
   27.2350   27.7730   49.6690 C   0  0  0  0  0  3  0  0  0  0  0  0
   27.9510   28.9320   49.3820 C   0  0  0  0  0  3  0  0  0  0  0  0
   28.6460   29.0660   48.2050 C   0  0  0  0  0  3  0  0  0  0  0  0
   28.6050   28.0160   47.3310 C   0  0  0  0  0  0  0  0  0  0  0  0
   35.3500   30.4210   48.1960 N   0  0  0  0  0  0  0  0  0  0  0  0
   35.2580   30.7180   49.5160 C   0  0  0  0  0  3  0  0  0  0  0  0
   36.3600   31.3260   49.9690 N   0  0  0  0  0  0  0  0  0  0  0  0
   37.1940   31.4320   48.9270 C   0  0  0  0  0  0  0  0  0  0  0  0
   38.4770   31.9760   48.8100 C   0  0  0  0  0  0  0  0  0  0  0  0
   39.0700   32.4890   49.7810 O   0  0  0  0  0  0  0  0  0  0  0  0
   39.0290   31.9060   47.5760 N   0  0  0  0  0  0  0  0  0  0  0  0
   38.4090   31.3530   46.4990 C   0  0  0  0  0  0  0  0  0  0  0  0
   39.1680   31.3810   45.2850 N   0  0  0  0  0  0  0  0  0  0  0  0
   37.1760   30.8370   46.6360 N   0  0  0  0  0  0  0  0  0  0  0  0
   36.5640   30.8710   47.8330 C   0  0  0  0  0  0  0  0  0  0  0  0
   39.9740   32.2940   47.4450 H   0  0  0  0  0  0  0  0  0  0  0  0
   40.1100   31.8000   45.2760 H   0  0  0  0  0  0  0  0  0  0  0  0
   38.7730   30.9840   44.4210 H   0  0  0  0  0  0  0  0  0  0  0  0
   31.8130   23.6330   46.7310 N   0  0  0  0  0  0  0  0  0  0  0  0
   31.7910   23.6900   47.7590 H   0  0  0  0  0  0  0  0  0  0  0  0
   31.6050   22.7410   46.2600 H   0  0  0  0  0  0  0  0  0  0  0  0
  1  6  1  0  0  0  0
  1 41  1  0  0  0  0
  2  1  2  0  0  0  0
  3  2  1  0  0  0  0
  3  4  2  0  0  0  0
  4  5  1  0  0  0  0
  5  7  1  0  0  0  0
  5  6  2  0  0  0  0
  7  8  1  0  0  0  0
  8  9  2  0  0  0  0
  9 27  1  0  0  0  0
 10  9  1  0  0  0  0
 11  7  1  0  0  0  0
 11 10  2  0  0  0  0
 12 16  1  0  0  0  0
 12 11  1  0  0  0  0
 13 12  2  0  0  0  0
 14 13  1  0  0  0  0
 14 15  2  0  0  0  0
 15 16  1  0  0  0  0
 16 17  1  0  0  0  0
 17 26  1  0  0  0  0
 18 19  1  0  0  0  0
 18 17  2  0  0  0  0
 19 20  2  0  0  0  0
 20 21  1  0  0  0  0
 21 22  1  0  0  0  0
 22 23  2  0  0  0  0
 24 23  1  0  0  0  0
 25 24  2  0  0  0  0
 26 21  2  0  0  0  0
 26 25  1  0  0  0  0
 27 28  1  0  0  0  0
 28 29  2  0  0  0  0
 30 29  1  0  0  0  0
 31 30  1  0  0  0  0
 31 32  2  0  0  0  0
 33 31  1  0  0  0  0
 34 36  2  0  0  0  0
 34 33  1  0  0  0  0
 35 34  1  0  0  0  0
 36 37  1  0  0  0  0
 37 27  1  0  0  0  0
 37 30  2  0  0  0  0
 38 33  1  0  0  0  0
 39 35  1  0  0  0  0
 40 35  1  0  0  0  0
 41 42  1  0  0  0  0
 43 41  1  0  0  0  0
M  END
>  <minimizedAffinity>
-7.50750923

$$$$

 OpenBabel03272514473D

 43 49  0  0  0  0  0  0  0  0999 V2000
   32.4250   27.7770   47.8010 C   0  0  0  0  0  0  0  0  0  0  0  0
   33.4850   28.0770   48.6980 C   0  0  0  0  0  3  0  0  0  0  0  0
   34.3300   29.0970   48.3490 C   0  0  0  0  0  3  0  0  0  0  0  0
   34.0660   29.7090   47.1870 N   0  0  0  0  0  0  0  0  0  0  0  0
   33.1080   29.4560   46.3510 C   0  0  0  0  0  0  0  0  0  0  0  0
   32.2640   28.4580   46.6720 N   0  0  0  0  0  0  0  0  0  0  0  0
   33.0580   30.2630   45.2030 N   0  0  0  0  0  0  0  0  0  0  0  0
   32.0080   31.1150   45.0590 C   0  0  0  0  0  3  0  0  0  0  0  0
   32.1520   31.8050   43.8730 C   0  0  0  0  0  0  0  0  0  0  0  0
   33.2820   31.3650   43.3160 N   0  0  0  0  0  0  0  0  0  0  0  0
   33.8470   30.4070   44.1370 C   0  0  0  0  0  0  0  0  0  0  0  0
   35.0530   29.7090   43.8360 C   0  0  0  0  0  0  0  0  0  0  0  0
   35.0510   28.4160   43.2750 C   0  0  0  0  0  3  0  0  0  0  0  0
   36.3460   27.9860   43.1230 N   0  0  0  0  0  0  0  0  0  0  0  0
   37.1520   29.0280   43.5970 C   0  0  0  0  0  3  0  0  0  0  0  0
   36.3250   29.9880   43.9870 N   0  0  0  0  0  0  0  0  0  0  0  0
   37.1980   31.0110   44.3710 C   0  0  0  0  0  0  0  0  0  0  0  0
   37.5660   31.7740   43.3360 N   0  0  0  0  0  0  0  0  0  0  0  0
   38.4590   32.7790   43.5240 C   0  0  0  0  0  3  0  0  0  0  0  0
   39.0110   33.0670   44.7040 N   0  0  0  0  0  0  0  0  0  0  0  0
   38.6700   32.3240   45.7760 C   0  0  0  0  0  0  0  0  0  0  0  0
   39.1630   32.5080   47.0380 C   0  0  0  0  0  3  0  0  0  0  0  0
   38.7860   31.7220   48.0850 C   0  0  0  0  0  3  0  0  0  0  0  0
   37.8700   30.6970   47.8700 C   0  0  0  0  0  3  0  0  0  0  0  0
   37.3400   30.4640   46.6250 C   0  0  0  0  0  3  0  0  0  0  0  0
   37.7500   31.2820   45.6080 C   0  0  0  0  0  0  0  0  0  0  0  0
   31.3270   32.7990   43.2730 N   0  0  0  0  0  0  0  0  0  0  0  0
   31.7900   33.9360   42.6980 C   0  0  0  0  0  3  0  0  0  0  0  0
   30.7990   34.6920   42.2140 N   0  0  0  0  0  0  0  0  0  0  0  0
   29.6590   34.0400   42.4750 C   0  0  0  0  0  0  0  0  0  0  0  0
   28.3220   34.3500   42.2040 C   0  0  0  0  0  0  0  0  0  0  0  0
   27.9930   35.3990   41.6130 O   0  0  0  0  0  0  0  0  0  0  0  0
   27.4160   33.4360   42.6230 N   0  0  0  0  0  0  0  0  0  0  0  0
   27.7430   32.2840   43.2680 C   0  0  0  0  0  0  0  0  0  0  0  0
   26.6310   31.4560   43.6260 N   0  0  0  0  0  0  0  0  0  0  0  0
   29.0340   32.0080   43.5180 N   0  0  0  0  0  0  0  0  0  0  0  0
   29.9910   32.8700   43.1300 C   0  0  0  0  0  0  0  0  0  0  0  0
   26.4190   33.6240   42.4430 H   0  0  0  0  0  0  0  0  0  0  0  0
   25.6720   31.7510   43.3920 H   0  0  0  0  0  0  0  0  0  0  0  0
   26.7900   30.5660   44.1180 H   0  0  0  0  0  0  0  0  0  0  0  0
   31.5040   26.7170   48.1420 N   0  0  0  0  0  0  0  0  0  0  0  0
   30.7280   26.4830   47.5060 H   0  0  0  0  0  0  0  0  0  0  0  0
   31.6240   26.1940   49.0220 H   0  0  0  0  0  0  0  0  0  0  0  0
  1 41  1  0  0  0  0
  1  2  1  0  0  0  0
  3  2  2  0  0  0  0
  4  3  1  0  0  0  0
  5  6  1  0  0  0  0
  5  4  2  0  0  0  0
  6  1  2  0  0  0  0
  7  5  1  0  0  0  0
  8  7  1  0  0  0  0
  9  8  2  0  0  0  0
 10  9  1  0  0  0  0
 10 11  2  0  0  0  0
 11  7  1  0  0  0  0
 12 16  1  0  0  0  0
 12 11  1  0  0  0  0
 13 12  2  0  0  0  0
 14 13  1  0  0  0  0
 14 15  2  0  0  0  0
 15 16  1  0  0  0  0
 16 17  1  0  0  0  0
 17 26  1  0  0  0  0
 18 19  1  0  0  0  0
 18 17  2  0  0  0  0
 19 20  2  0  0  0  0
 20 21  1  0  0  0  0
 21 22  1  0  0  0  0
 22 23  2  0  0  0  0
 24 23  1  0  0  0  0
 25 24  2  0  0  0  0
 26 21  2  0  0  0  0
 26 25  1  0  0  0  0
 27  9  1  0  0  0  0
 28 27  1  0  0  0  0
 29 30  1  0  0  0  0
 29 28  2  0  0  0  0
 30 37  2  0  0  0  0
 31 30  1  0  0  0  0
 31 33  1  0  0  0  0
 32 31  2  0  0  0  0
 33 34  1  0  0  0  0
 34 36  2  0  0  0  0
 34 35  1  0  0  0  0
 35 40  1  0  0  0  0
 37 27  1  0  0  0  0
 37 36  1  0  0  0  0
 38 33  1  0  0  0  0
 39 35  1  0  0  0  0
 41 43  1  0  0  0  0
 42 41  1  0  0  0  0
M  END
>  <minimizedAffinity>
-7.4887886

$$$$
