
 OpenBabel03272514343D

 35 41  0  0  0  0  0  0  0  0999 V2000
   34.2490   28.5100   48.2440 N   0  0  0  0  0  0  0  0  0  0  0  0
   34.4550   27.4280   47.4820 C   0  0  0  0  0  3  0  0  0  0  0  0
   33.3470   27.0830   46.8690 N   0  0  0  0  0  0  0  0  0  0  0  0
   32.3900   27.9510   47.2330 C   0  0  0  0  0  0  0  0  0  0  0  0
   32.9840   28.8150   48.0800 N   0  0  0  0  0  0  0  0  0  0  0  0
   30.9760   28.1070   46.9100 C   0  0  0  0  0  0  0  0  0  0  0  0
   30.2600   28.1830   45.7760 N   0  0  0  0  0  0  0  0  0  0  0  0
   28.9930   28.3240   46.0790 O   0  0  0  0  0  0  0  0  0  0  0  0
   28.8720   28.3400   47.3890 C   0  0  0  0  0  0  0  0  0  0  0  0
   30.0900   28.2070   47.9500 N   0  0  0  0  0  0  0  0  0  0  0  0
   27.5960   28.4830   47.9990 N   0  0  0  0  0  0  0  0  0  0  0  0
   26.9580   27.4270   48.5400 C   0  0  0  0  0  3  0  0  0  0  0  0
   25.7620   27.8320   49.0540 N   0  0  0  0  0  0  0  0  0  0  0  0
   25.6340   29.1580   48.8390 C   0  0  0  0  0  0  0  0  0  0  0  0
   24.6960   30.1620   49.0990 C   0  0  0  0  0  3  0  0  0  0  0  0
   24.9530   31.4150   48.7060 N   0  0  0  0  0  0  0  0  0  0  0  0
   26.0810   31.7790   48.0660 C   0  0  0  0  0  3  0  0  0  0  0  0
   26.9950   30.8240   47.8080 N   0  0  0  0  0  0  0  0  0  0  0  0
   26.7820   29.5370   48.1850 C   0  0  0  0  0  0  0  0  0  0  0  0
   36.2960   29.6470   51.0710 C   0  0  0  0  0  3  0  0  0  0  0  0
   35.3180   28.9110   50.4150 C   0  0  0  0  0  3  0  0  0  0  0  0
   35.2070   29.1820   49.0580 C   0  0  0  0  0  0  0  0  0  0  0  0
   36.0110   30.0810   48.5290 N   0  0  0  0  0  0  0  0  0  0  0  0
   36.9470   30.7880   49.1450 C   0  0  0  0  0  0  0  0  0  0  0  0
   37.0480   30.5280   50.4280 N   0  0  0  0  0  0  0  0  0  0  0  0
   37.8830   31.7930   48.6810 C   0  0  0  0  0  0  0  0  0  0  0  0
   38.1720   32.9270   49.4420 C   0  0  0  0  0  3  0  0  0  0  0  0
   39.0500   33.9060   49.0480 C   0  0  0  0  0  3  0  0  0  0  0  0
   39.7070   33.8090   47.8380 C   0  0  0  0  0  3  0  0  0  0  0  0
   39.4500   32.7130   47.0620 C   0  0  0  0  0  0  0  0  0  0  0  0
   40.1030   32.6040   45.8520 C   0  0  0  0  0  3  0  0  0  0  0  0
   39.9180   31.5510   45.0030 C   0  0  0  0  0  3  0  0  0  0  0  0
   39.0280   30.5700   45.4170 C   0  0  0  0  0  3  0  0  0  0  0  0
   38.3960   30.7040   46.6250 C   0  0  0  0  0  3  0  0  0  0  0  0
   38.5690   31.7460   47.4760 C   0  0  0  0  0  0  0  0  0  0  0  0
  1 22  1  0  0  0  0
  2  1  1  0  0  0  0
  3  4  1  0  0  0  0
  3  2  2  0  0  0  0
  4  5  2  0  0  0  0
  5  1  1  0  0  0  0
  6  4  1  0  0  0  0
  6 10  1  0  0  0  0
  7  8  1  0  0  0  0
  7  6  2  0  0  0  0
  8  9  1  0  0  0  0
  9 10  2  0  0  0  0
  9 11  1  0  0  0  0
 11 19  1  0  0  0  0
 11 12  1  0  0  0  0
 12 13  2  0  0  0  0
 14 13  1  0  0  0  0
 14 15  1  0  0  0  0
 16 15  2  0  0  0  0
 17 16  1  0  0  0  0
 18 17  2  0  0  0  0
 18 19  1  0  0  0  0
 19 14  2  0  0  0  0
 21 20  2  0  0  0  0
 22 21  1  0  0  0  0
 23 22  2  0  0  0  0
 23 24  1  0  0  0  0
 24 25  2  0  0  0  0
 25 20  1  0  0  0  0
 26 24  1  0  0  0  0
 26 27  1  0  0  0  0
 28 27  2  0  0  0  0
 29 28  1  0  0  0  0
 30 35  1  0  0  0  0
 30 29  2  0  0  0  0
 31 30  1  0  0  0  0
 32 33  1  0  0  0  0
 32 31  2  0  0  0  0
 33 34  2  0  0  0  0
 34 35  1  0  0  0  0
 35 26  2  0  0  0  0
M  END
>  <minimizedAffinity>
-9.36141109

$$$$

 OpenBabel03272514343D

 35 41  0  0  0  0  0  0  0  0999 V2000
   33.0630   28.5380   45.5870 N   0  0  0  0  0  0  0  0  0  0  0  0
   32.8670   27.2280   45.7830 C   0  0  0  0  0  3  0  0  0  0  0  0
   31.5880   26.9750   45.9310 N   0  0  0  0  0  0  0  0  0  0  0  0
   30.9250   28.1380   45.8320 C   0  0  0  0  0  0  0  0  0  0  0  0
   31.8680   29.0770   45.6200 N   0  0  0  0  0  0  0  0  0  0  0  0
   29.5210   28.5210   45.9060 C   0  0  0  0  0  0  0  0  0  0  0  0
   28.3660   28.0030   45.4580 N   0  0  0  0  0  0  0  0  0  0  0  0
   27.3770   28.7820   45.8200 O   0  0  0  0  0  0  0  0  0  0  0  0
   27.8680   29.7990   46.4980 C   0  0  0  0  0  0  0  0  0  0  0  0
   29.2080   29.6750   46.5750 N   0  0  0  0  0  0  0  0  0  0  0  0
   27.0120   30.8080   47.0150 N   0  0  0  0  0  0  0  0  0  0  0  0
   26.6910   30.8490   48.3230 C   0  0  0  0  0  3  0  0  0  0  0  0
   25.8630   31.9060   48.5560 N   0  0  0  0  0  0  0  0  0  0  0  0
   25.6500   32.5460   47.3860 C   0  0  0  0  0  0  0  0  0  0  0  0
   24.9350   33.6570   46.9310 C   0  0  0  0  0  3  0  0  0  0  0  0
   24.9840   33.9800   45.6330 N   0  0  0  0  0  0  0  0  0  0  0  0
   25.6950   33.2900   44.7200 C   0  0  0  0  0  3  0  0  0  0  0  0
   26.3900   32.2170   45.1420 N   0  0  0  0  0  0  0  0  0  0  0  0
   26.3730   31.8470   46.4490 C   0  0  0  0  0  0  0  0  0  0  0  0
   36.0670   30.0170   44.0830 C   0  0  0  0  0  3  0  0  0  0  0  0
   34.8490   29.3530   44.1160 C   0  0  0  0  0  3  0  0  0  0  0  0
   34.3100   29.2000   45.3850 C   0  0  0  0  0  0  0  0  0  0  0  0
   34.9770   29.6830   46.4130 N   0  0  0  0  0  0  0  0  0  0  0  0
   36.1390   30.3180   46.3940 C   0  0  0  0  0  0  0  0  0  0  0  0
   36.6450   30.4600   45.1900 N   0  0  0  0  0  0  0  0  0  0  0  0
   36.9630   30.8890   47.4410 C   0  0  0  0  0  0  0  0  0  0  0  0
   37.8780   31.9100   47.1730 C   0  0  0  0  0  3  0  0  0  0  0  0
   38.6810   32.4830   48.1280 C   0  0  0  0  0  3  0  0  0  0  0  0
   38.6180   32.0600   49.4400 C   0  0  0  0  0  3  0  0  0  0  0  0
   37.7340   31.0610   49.7420 C   0  0  0  0  0  0  0  0  0  0  0  0
   37.6600   30.6310   51.0510 C   0  0  0  0  0  3  0  0  0  0  0  0
   36.8130   29.6420   51.4590 C   0  0  0  0  0  3  0  0  0  0  0  0
   36.0080   29.0730   50.4810 C   0  0  0  0  0  3  0  0  0  0  0  0
   36.1020   29.5220   49.1910 C   0  0  0  0  0  3  0  0  0  0  0  0
   36.9400   30.5020   48.7730 C   0  0  0  0  0  0  0  0  0  0  0  0
  1  5  1  0  0  0  0
  1  2  1  0  0  0  0
  2  3  2  0  0  0  0
  4  6  1  0  0  0  0
  4  3  1  0  0  0  0
  5  4  2  0  0  0  0
  6 10  1  0  0  0  0
  7  8  1  0  0  0  0
  7  6  2  0  0  0  0
  8  9  1  0  0  0  0
  9 10  2  0  0  0  0
  9 11  1  0  0  0  0
 11 12  1  0  0  0  0
 12 13  2  0  0  0  0
 14 13  1  0  0  0  0
 15 14  1  0  0  0  0
 16 15  2  0  0  0  0
 17 18  2  0  0  0  0
 17 16  1  0  0  0  0
 18 19  1  0  0  0  0
 19 11  1  0  0  0  0
 19 14  2  0  0  0  0
 20 21  2  0  0  0  0
 20 25  1  0  0  0  0
 21 22  1  0  0  0  0
 22  1  1  0  0  0  0
 22 23  2  0  0  0  0
 24 23  1  0  0  0  0
 24 26  1  0  0  0  0
 25 24  2  0  0  0  0
 26 35  1  0  0  0  0
 27 26  2  0  0  0  0
 27 28  1  0  0  0  0
 28 29  2  0  0  0  0
 29 30  1  0  0  0  0
 30 31  1  0  0  0  0
 31 32  2  0  0  0  0
 33 32  1  0  0  0  0
 34 33  2  0  0  0  0
 35 34  1  0  0  0  0
 35 30  2  0  0  0  0
M  END
>  <minimizedAffinity>
-9.25283527

$$$$

 OpenBabel03272514343D

 35 41  0  0  0  0  0  0  0  0999 V2000
   34.0450   29.3970   44.5000 N   0  0  0  0  0  0  0  0  0  0  0  0
   33.2920   29.5840   43.4090 C   0  0  0  0  0  3  0  0  0  0  0  0
   32.1000   29.0620   43.5810 N   0  0  0  0  0  0  0  0  0  0  0  0
   32.0630   28.5180   44.8080 C   0  0  0  0  0  0  0  0  0  0  0  0
   33.2790   28.7450   45.3430 N   0  0  0  0  0  0  0  0  0  0  0  0
   31.0520   27.8050   45.5790 C   0  0  0  0  0  0  0  0  0  0  0  0
   30.2760   26.7290   45.3690 N   0  0  0  0  0  0  0  0  0  0  0  0
   29.5300   26.5260   46.4270 O   0  0  0  0  0  0  0  0  0  0  0  0
   29.8080   27.4500   47.3220 C   0  0  0  0  0  0  0  0  0  0  0  0
   30.7560   28.2730   46.8320 N   0  0  0  0  0  0  0  0  0  0  0  0
   29.1400   27.4700   48.5760 N   0  0  0  0  0  0  0  0  0  0  0  0
   29.7450   27.0350   49.6980 C   0  0  0  0  0  3  0  0  0  0  0  0
   28.8930   27.1600   50.7540 N   0  0  0  0  0  0  0  0  0  0  0  0
   27.7310   27.6790   50.3040 C   0  0  0  0  0  0  0  0  0  0  0  0
   26.4910   28.0490   50.8320 C   0  0  0  0  0  3  0  0  0  0  0  0
   25.5560   28.5510   50.0160 N   0  0  0  0  0  0  0  0  0  0  0  0
   25.7380   28.7290   48.6930 C   0  0  0  0  0  3  0  0  0  0  0  0
   26.9280   28.3770   48.1690 N   0  0  0  0  0  0  0  0  0  0  0  0
   27.9100   27.8630   48.9530 C   0  0  0  0  0  0  0  0  0  0  0  0
   37.5910   30.2100   44.0170 C   0  0  0  0  0  3  0  0  0  0  0  0
   36.3230   29.7650   43.6700 C   0  0  0  0  0  3  0  0  0  0  0  0
   35.3920   29.8190   44.6980 C   0  0  0  0  0  0  0  0  0  0  0  0
   35.7780   30.2740   45.8720 N   0  0  0  0  0  0  0  0  0  0  0  0
   36.9840   30.7010   46.2140 C   0  0  0  0  0  0  0  0  0  0  0  0
   37.8610   30.6480   45.2390 N   0  0  0  0  0  0  0  0  0  0  0  0
   37.5270   31.2180   47.4550 C   0  0  0  0  0  0  0  0  0  0  0  0
   38.3650   32.3350   47.4750 C   0  0  0  0  0  3  0  0  0  0  0  0
   38.9040   32.8620   48.6220 C   0  0  0  0  0  3  0  0  0  0  0  0
   38.6340   32.2900   49.8480 C   0  0  0  0  0  3  0  0  0  0  0  0
   37.8170   31.1930   49.8710 C   0  0  0  0  0  0  0  0  0  0  0  0
   37.5380   30.6140   51.0920 C   0  0  0  0  0  3  0  0  0  0  0  0
   36.7360   29.5170   51.2240 C   0  0  0  0  0  3  0  0  0  0  0  0
   36.1990   28.9970   50.0550 C   0  0  0  0  0  3  0  0  0  0  0  0
   36.4920   29.5950   48.8580 C   0  0  0  0  0  3  0  0  0  0  0  0
   37.2880   30.6830   48.7130 C   0  0  0  0  0  0  0  0  0  0  0  0
  1 22  1  0  0  0  0
  1  5  1  0  0  0  0
  2  3  2  0  0  0  0
  2  1  1  0  0  0  0
  3  4  1  0  0  0  0
  4  5  2  0  0  0  0
  4  6  1  0  0  0  0
  6 10  1  0  0  0  0
  7  6  2  0  0  0  0
  7  8  1  0  0  0  0
  8  9  1  0  0  0  0
  9 11  1  0  0  0  0
 10  9  2  0  0  0  0
 11 19  1  0  0  0  0
 11 12  1  0  0  0  0
 12 13  2  0  0  0  0
 14 13  1  0  0  0  0
 14 15  1  0  0  0  0
 16 15  2  0  0  0  0
 17 16  1  0  0  0  0
 18 17  2  0  0  0  0
 18 19  1  0  0  0  0
 19 14  2  0  0  0  0
 20 25  1  0  0  0  0
 21 20  2  0  0  0  0
 21 22  1  0  0  0  0
 22 23  2  0  0  0  0
 23 24  1  0  0  0  0
 24 26  1  0  0  0  0
 25 24  2  0  0  0  0
 26 27  2  0  0  0  0
 26 35  1  0  0  0  0
 27 28  1  0  0  0  0
 28 29  2  0  0  0  0
 29 30  1  0  0  0  0
 30 31  1  0  0  0  0
 31 32  2  0  0  0  0
 33 32  1  0  0  0  0
 34 33  2  0  0  0  0
 35 34  1  0  0  0  0
 35 30  2  0  0  0  0
M  END
>  <minimizedAffinity>
-9.12822914

$$$$

 OpenBabel03272514343D

 35 41  0  0  0  0  0  0  0  0999 V2000
   33.3380   28.1680   47.4560 N   0  0  0  0  0  0  0  0  0  0  0  0
   33.2710   27.0830   46.6740 C   0  0  0  0  0  3  0  0  0  0  0  0
   32.0410   26.8970   46.2550 N   0  0  0  0  0  0  0  0  0  0  0  0
   31.2800   27.8750   46.7710 C   0  0  0  0  0  0  0  0  0  0  0  0
   32.1140   28.6380   47.5040 N   0  0  0  0  0  0  0  0  0  0  0  0
   29.8660   28.2190   46.6860 C   0  0  0  0  0  0  0  0  0  0  0  0
   28.7780   27.6550   46.1380 N   0  0  0  0  0  0  0  0  0  0  0  0
   27.7370   28.4150   46.3710 O   0  0  0  0  0  0  0  0  0  0  0  0
   28.1280   29.4650   47.0630 C   0  0  0  0  0  0  0  0  0  0  0  0
   29.4550   29.3830   47.2820 N   0  0  0  0  0  0  0  0  0  0  0  0
   27.1960   30.4630   47.4560 N   0  0  0  0  0  0  0  0  0  0  0  0
   26.7400   30.5330   48.7220 C   0  0  0  0  0  3  0  0  0  0  0  0
   25.8650   31.5720   48.8340 N   0  0  0  0  0  0  0  0  0  0  0  0
   25.7590   32.1710   47.6290 C   0  0  0  0  0  0  0  0  0  0  0  0
   25.0670   33.2470   47.0660 C   0  0  0  0  0  3  0  0  0  0  0  0
   25.2420   33.5340   45.7710 N   0  0  0  0  0  0  0  0  0  0  0  0
   26.0630   32.8390   44.9590 C   0  0  0  0  0  3  0  0  0  0  0  0
   26.7370   31.7980   45.4850 N   0  0  0  0  0  0  0  0  0  0  0  0
   26.5940   31.4660   46.7940 C   0  0  0  0  0  0  0  0  0  0  0  0
   35.9070   29.0510   49.9240 C   0  0  0  0  0  3  0  0  0  0  0  0
   34.7390   28.4740   49.4460 C   0  0  0  0  0  3  0  0  0  0  0  0
   34.4980   28.6940   48.0980 C   0  0  0  0  0  0  0  0  0  0  0  0
   35.3680   29.4060   47.4120 N   0  0  0  0  0  0  0  0  0  0  0  0
   36.4850   29.9610   47.8560 C   0  0  0  0  0  0  0  0  0  0  0  0
   36.7090   29.7500   49.1330 N   0  0  0  0  0  0  0  0  0  0  0  0
   37.5120   30.7560   47.2110 C   0  0  0  0  0  0  0  0  0  0  0  0
   37.9590   30.4610   45.9220 C   0  0  0  0  0  3  0  0  0  0  0  0
   38.9280   31.1830   45.2690 C   0  0  0  0  0  3  0  0  0  0  0  0
   39.5230   32.2670   45.8800 C   0  0  0  0  0  3  0  0  0  0  0  0
   39.1120   32.5880   47.1440 C   0  0  0  0  0  0  0  0  0  0  0  0
   39.6980   33.6720   47.7650 C   0  0  0  0  0  3  0  0  0  0  0  0
   39.3610   34.0750   49.0240 C   0  0  0  0  0  3  0  0  0  0  0  0
   38.3800   33.3360   49.6710 C   0  0  0  0  0  3  0  0  0  0  0  0
   37.8150   32.2660   49.0290 C   0  0  0  0  0  3  0  0  0  0  0  0
   38.1420   31.8540   47.7790 C   0  0  0  0  0  0  0  0  0  0  0  0
  1  5  1  0  0  0  0
  1 22  1  0  0  0  0
  2  1  1  0  0  0  0
  3  2  2  0  0  0  0
  3  4  1  0  0  0  0
  4  5  2  0  0  0  0
  6  4  1  0  0  0  0
  6 10  1  0  0  0  0
  7  8  1  0  0  0  0
  7  6  2  0  0  0  0
  8  9  1  0  0  0  0
  9 10  2  0  0  0  0
  9 11  1  0  0  0  0
 11 12  1  0  0  0  0
 12 13  2  0  0  0  0
 14 13  1  0  0  0  0
 15 14  1  0  0  0  0
 16 15  2  0  0  0  0
 17 18  2  0  0  0  0
 17 16  1  0  0  0  0
 18 19  1  0  0  0  0
 19 11  1  0  0  0  0
 19 14  2  0  0  0  0
 21 20  1  0  0  0  0
 22 21  2  0  0  0  0
 23 24  2  0  0  0  0
 23 22  1  0  0  0  0
 24 25  1  0  0  0  0
 25 20  2  0  0  0  0
 26 35  1  0  0  0  0
 26 24  1  0  0  0  0
 27 26  2  0  0  0  0
 28 29  2  0  0  0  0
 28 27  1  0  0  0  0
 29 30  1  0  0  0  0
 30 31  2  0  0  0  0
 30 35  1  0  0  0  0
 31 32  1  0  0  0  0
 32 33  2  0  0  0  0
 34 33  1  0  0  0  0
 35 34  2  0  0  0  0
M  END
>  <minimizedAffinity>
-8.95410252

$$$$

 OpenBabel03272514343D

 35 41  0  0  0  0  0  0  0  0999 V2000
   30.6250   27.9410   48.9910 N   0  0  0  0  0  0  0  0  0  0  0  0
   29.9530   27.6510   50.1120 C   0  0  0  0  0  3  0  0  0  0  0  0
   28.7040   28.0420   50.0110 N   0  0  0  0  0  0  0  0  0  0  0  0
   28.5460   28.6020   48.8010 C   0  0  0  0  0  0  0  0  0  0  0  0
   29.7510   28.5210   48.2030 N   0  0  0  0  0  0  0  0  0  0  0  0
   27.4250   29.2150   48.0990 C   0  0  0  0  0  0  0  0  0  0  0  0
   26.2390   28.7870   47.6390 N   0  0  0  0  0  0  0  0  0  0  0  0
   25.6120   29.7890   47.0730 O   0  0  0  0  0  0  0  0  0  0  0  0
   26.3690   30.8620   47.1580 C   0  0  0  0  0  0  0  0  0  0  0  0
   27.5150   30.5480   47.7940 N   0  0  0  0  0  0  0  0  0  0  0  0
   25.9320   32.1030   46.6210 N   0  0  0  0  0  0  0  0  0  0  0  0
   25.4680   33.0850   47.4180 C   0  0  0  0  0  3  0  0  0  0  0  0
   25.1170   34.1610   46.6590 N   0  0  0  0  0  0  0  0  0  0  0  0
   25.3580   33.8650   45.3640 C   0  0  0  0  0  0  0  0  0  0  0  0
   25.2330   34.4900   44.1200 C   0  0  0  0  0  3  0  0  0  0  0  0
   25.5990   33.8290   43.0160 N   0  0  0  0  0  0  0  0  0  0  0  0
   26.0940   32.5750   43.0270 C   0  0  0  0  0  3  0  0  0  0  0  0
   26.2200   31.9590   44.2180 N   0  0  0  0  0  0  0  0  0  0  0  0
   25.8630   32.5860   45.3680 C   0  0  0  0  0  0  0  0  0  0  0  0
   33.7500   26.4960   47.7200 C   0  0  0  0  0  3  0  0  0  0  0  0
   32.3790   26.6290   47.8870 C   0  0  0  0  0  3  0  0  0  0  0  0
   31.9980   27.6730   48.7180 C   0  0  0  0  0  0  0  0  0  0  0  0
   32.9390   28.4220   49.2560 N   0  0  0  0  0  0  0  0  0  0  0  0
   34.2480   28.3050   49.1040 C   0  0  0  0  0  0  0  0  0  0  0  0
   34.6040   27.3160   48.3170 N   0  0  0  0  0  0  0  0  0  0  0  0
   35.3700   29.0550   49.6350 C   0  0  0  0  0  0  0  0  0  0  0  0
   35.6910   29.0220   50.9940 C   0  0  0  0  0  3  0  0  0  0  0  0
   36.7410   29.7130   51.5450 C   0  0  0  0  0  3  0  0  0  0  0  0
   37.5540   30.4990   50.7520 C   0  0  0  0  0  3  0  0  0  0  0  0
   37.2710   30.5570   49.4160 C   0  0  0  0  0  0  0  0  0  0  0  0
   38.0780   31.3380   48.6130 C   0  0  0  0  0  3  0  0  0  0  0  0
   37.8830   31.4650   47.2680 C   0  0  0  0  0  3  0  0  0  0  0  0
   36.8170   30.7590   46.7260 C   0  0  0  0  0  3  0  0  0  0  0  0
   36.0350   29.9910   47.5480 C   0  0  0  0  0  3  0  0  0  0  0  0
   36.2170   29.8580   48.8850 C   0  0  0  0  0  0  0  0  0  0  0  0
  1  2  1  0  0  0  0
  3  2  2  0  0  0  0
  4  3  1  0  0  0  0
  5  4  2  0  0  0  0
  5  1  1  0  0  0  0
  6  4  1  0  0  0  0
  7  6  2  0  0  0  0
  8  9  1  0  0  0  0
  8  7  1  0  0  0  0
  9 10  2  0  0  0  0
 10  6  1  0  0  0  0
 11  9  1  0  0  0  0
 11 12  1  0  0  0  0
 13 12  2  0  0  0  0
 14 19  1  0  0  0  0
 14 13  1  0  0  0  0
 15 14  2  0  0  0  0
 16 17  2  0  0  0  0
 16 15  1  0  0  0  0
 17 18  1  0  0  0  0
 18 19  2  0  0  0  0
 19 11  1  0  0  0  0
 20 21  2  0  0  0  0
 20 25  1  0  0  0  0
 21 22  1  0  0  0  0
 22  1  1  0  0  0  0
 22 23  2  0  0  0  0
 24 23  1  0  0  0  0
 24 26  1  0  0  0  0
 25 24  2  0  0  0  0
 26 27  1  0  0  0  0
 27 28  2  0  0  0  0
 29 28  1  0  0  0  0
 30 29  2  0  0  0  0
 31 30  1  0  0  0  0
 32 31  2  0  0  0  0
 33 32  1  0  0  0  0
 33 34  2  0  0  0  0
 34 35  1  0  0  0  0
 35 30  1  0  0  0  0
 35 26  2  0  0  0  0
M  END
>  <minimizedAffinity>
-8.94436169

$$$$

 OpenBabel03272514343D

 35 41  0  0  0  0  0  0  0  0999 V2000
   34.1830   28.7300   44.6360 N   0  0  0  0  0  0  0  0  0  0  0  0
   34.0800   27.5330   44.0450 C   0  0  0  0  0  3  0  0  0  0  0  0
   32.8550   27.0740   44.1510 N   0  0  0  0  0  0  0  0  0  0  0  0
   32.1340   27.9840   44.8250 C   0  0  0  0  0  0  0  0  0  0  0  0
   32.9860   28.9890   45.1060 N   0  0  0  0  0  0  0  0  0  0  0  0
   30.7440   28.0660   45.2580 C   0  0  0  0  0  0  0  0  0  0  0  0
   29.5870   27.5160   44.8590 N   0  0  0  0  0  0  0  0  0  0  0  0
   28.6180   27.9520   45.6260 O   0  0  0  0  0  0  0  0  0  0  0  0
   29.1250   28.7760   46.5190 C   0  0  0  0  0  0  0  0  0  0  0  0
   30.4550   28.8770   46.3250 N   0  0  0  0  0  0  0  0  0  0  0  0
   28.2930   29.4010   47.4860 N   0  0  0  0  0  0  0  0  0  0  0  0
   28.2610   28.9720   48.7620 C   0  0  0  0  0  3  0  0  0  0  0  0
   27.3880   29.7360   49.4780 N   0  0  0  0  0  0  0  0  0  0  0  0
   26.8550   30.6610   48.6520 C   0  0  0  0  0  0  0  0  0  0  0  0
   25.9370   31.7120   48.7310 C   0  0  0  0  0  3  0  0  0  0  0  0
   25.6670   32.4290   47.6340 N   0  0  0  0  0  0  0  0  0  0  0  0
   26.2360   32.2000   46.4340 C   0  0  0  0  0  3  0  0  0  0  0  0
   27.1230   31.1900   46.3410 N   0  0  0  0  0  0  0  0  0  0  0  0
   27.4320   30.4330   47.4250 C   0  0  0  0  0  0  0  0  0  0  0  0
   37.1650   30.7220   43.8520 C   0  0  0  0  0  3  0  0  0  0  0  0
   36.0530   29.9310   43.5980 C   0  0  0  0  0  3  0  0  0  0  0  0
   35.3490   29.5460   44.7300 C   0  0  0  0  0  0  0  0  0  0  0  0
   35.7810   29.9500   45.9060 N   0  0  0  0  0  0  0  0  0  0  0  0
   36.8390   30.7050   46.1610 C   0  0  0  0  0  0  0  0  0  0  0  0
   37.5020   31.0670   45.0870 N   0  0  0  0  0  0  0  0  0  0  0  0
   37.4110   31.2110   47.3930 C   0  0  0  0  0  0  0  0  0  0  0  0
   38.2590   32.3210   47.4020 C   0  0  0  0  0  3  0  0  0  0  0  0
   38.8250   32.8380   48.5400 C   0  0  0  0  0  3  0  0  0  0  0  0
   38.5730   32.2620   49.7690 C   0  0  0  0  0  3  0  0  0  0  0  0
   37.7470   31.1730   49.8030 C   0  0  0  0  0  0  0  0  0  0  0  0
   37.4870   30.5900   51.0260 C   0  0  0  0  0  3  0  0  0  0  0  0
   36.6780   29.5010   51.1690 C   0  0  0  0  0  3  0  0  0  0  0  0
   36.1130   28.9900   50.0090 C   0  0  0  0  0  3  0  0  0  0  0  0
   36.3880   29.5910   48.8090 C   0  0  0  0  0  3  0  0  0  0  0  0
   37.1920   30.6720   48.6530 C   0  0  0  0  0  0  0  0  0  0  0  0
  1 22  1  0  0  0  0
  1  5  1  0  0  0  0
  2  3  2  0  0  0  0
  2  1  1  0  0  0  0
  3  4  1  0  0  0  0
  4  5  2  0  0  0  0
  4  6  1  0  0  0  0
  6 10  1  0  0  0  0
  7  6  2  0  0  0  0
  7  8  1  0  0  0  0
  8  9  1  0  0  0  0
  9 11  1  0  0  0  0
 10  9  2  0  0  0  0
 11 12  1  0  0  0  0
 12 13  2  0  0  0  0
 14 15  1  0  0  0  0
 14 13  1  0  0  0  0
 16 15  2  0  0  0  0
 17 16  1  0  0  0  0
 18 17  2  0  0  0  0
 18 19  1  0  0  0  0
 19 11  1  0  0  0  0
 19 14  2  0  0  0  0
 20 25  1  0  0  0  0
 21 20  2  0  0  0  0
 21 22  1  0  0  0  0
 22 23  2  0  0  0  0
 23 24  1  0  0  0  0
 24 26  1  0  0  0  0
 25 24  2  0  0  0  0
 26 27  2  0  0  0  0
 26 35  1  0  0  0  0
 27 28  1  0  0  0  0
 28 29  2  0  0  0  0
 29 30  1  0  0  0  0
 30 31  1  0  0  0  0
 31 32  2  0  0  0  0
 33 32  1  0  0  0  0
 34 33  2  0  0  0  0
 35 34  1  0  0  0  0
 35 30  2  0  0  0  0
M  END
>  <minimizedAffinity>
-8.88296986

$$$$

 OpenBabel03272514343D

 35 41  0  0  0  0  0  0  0  0999 V2000
   33.0450   28.6800   46.7210 N   0  0  0  0  0  0  0  0  0  0  0  0
   33.1720   28.1150   45.5130 C   0  0  0  0  0  3  0  0  0  0  0  0
   32.0280   28.1490   44.8700 N   0  0  0  0  0  0  0  0  0  0  0  0
   31.1270   28.7460   45.6660 C   0  0  0  0  0  0  0  0  0  0  0  0
   31.7910   29.0590   46.7960 N   0  0  0  0  0  0  0  0  0  0  0  0
   29.7140   29.0790   45.5380 C   0  0  0  0  0  0  0  0  0  0  0  0
   28.6330   28.4670   45.0280 N   0  0  0  0  0  0  0  0  0  0  0  0
   27.5880   29.2420   45.1840 O   0  0  0  0  0  0  0  0  0  0  0  0
   27.9700   30.3470   45.7880 C   0  0  0  0  0  0  0  0  0  0  0  0
   29.2950   30.2870   46.0280 N   0  0  0  0  0  0  0  0  0  0  0  0
   27.0330   31.3740   46.0860 N   0  0  0  0  0  0  0  0  0  0  0  0
   26.5630   31.5490   47.3360 C   0  0  0  0  0  3  0  0  0  0  0  0
   25.6850   32.5920   47.3500 N   0  0  0  0  0  0  0  0  0  0  0  0
   25.5910   33.0870   46.0980 C   0  0  0  0  0  0  0  0  0  0  0  0
   24.9040   34.1100   45.4390 C   0  0  0  0  0  3  0  0  0  0  0  0
   25.0940   34.2860   44.1260 N   0  0  0  0  0  0  0  0  0  0  0  0
   25.9240   33.5270   43.3840 C   0  0  0  0  0  3  0  0  0  0  0  0
   26.5940   32.5360   44.0040 N   0  0  0  0  0  0  0  0  0  0  0  0
   26.4360   32.3160   45.3350 C   0  0  0  0  0  0  0  0  0  0  0  0
   35.1910   28.2510   49.6670 C   0  0  0  0  0  3  0  0  0  0  0  0
   34.1500   27.9720   48.7920 C   0  0  0  0  0  3  0  0  0  0  0  0
   34.0610   28.8340   47.7090 C   0  0  0  0  0  0  0  0  0  0  0  0
   34.9420   29.8080   47.6070 N   0  0  0  0  0  0  0  0  0  0  0  0
   35.9380   30.0830   48.4340 C   0  0  0  0  0  0  0  0  0  0  0  0
   36.0180   29.2650   49.4580 N   0  0  0  0  0  0  0  0  0  0  0  0
   36.9600   31.1120   48.4320 C   0  0  0  0  0  0  0  0  0  0  0  0
   37.0750   32.0280   49.4800 C   0  0  0  0  0  3  0  0  0  0  0  0
   38.0240   33.0180   49.5250 C   0  0  0  0  0  3  0  0  0  0  0  0
   38.9370   33.1580   48.5000 C   0  0  0  0  0  3  0  0  0  0  0  0
   38.8570   32.2800   47.4540 C   0  0  0  0  0  0  0  0  0  0  0  0
   39.7670   32.4090   46.4240 C   0  0  0  0  0  3  0  0  0  0  0  0
   39.7740   31.5860   45.3360 C   0  0  0  0  0  3  0  0  0  0  0  0
   38.8080   30.5890   45.3060 C   0  0  0  0  0  3  0  0  0  0  0  0
   37.9200   30.4850   46.3430 C   0  0  0  0  0  3  0  0  0  0  0  0
   37.9010   31.2970   47.4290 C   0  0  0  0  0  0  0  0  0  0  0  0
  1  5  1  0  0  0  0
  1 22  1  0  0  0  0
  2  1  1  0  0  0  0
  3  2  2  0  0  0  0
  3  4  1  0  0  0  0
  4  5  2  0  0  0  0
  6  4  1  0  0  0  0
  6 10  1  0  0  0  0
  7  8  1  0  0  0  0
  7  6  2  0  0  0  0
  8  9  1  0  0  0  0
  9 10  2  0  0  0  0
  9 11  1  0  0  0  0
 11 12  1  0  0  0  0
 12 13  2  0  0  0  0
 14 13  1  0  0  0  0
 15 14  1  0  0  0  0
 16 15  2  0  0  0  0
 17 18  2  0  0  0  0
 17 16  1  0  0  0  0
 18 19  1  0  0  0  0
 19 11  1  0  0  0  0
 19 14  2  0  0  0  0
 21 20  2  0  0  0  0
 22 21  1  0  0  0  0
 23 22  2  0  0  0  0
 23 24  1  0  0  0  0
 24 25  2  0  0  0  0
 25 20  1  0  0  0  0
 26 24  1  0  0  0  0
 26 27  1  0  0  0  0
 27 28  2  0  0  0  0
 29 28  1  0  0  0  0
 30 29  2  0  0  0  0
 31 30  1  0  0  0  0
 32 31  2  0  0  0  0
 33 32  1  0  0  0  0
 33 34  2  0  0  0  0
 34 35  1  0  0  0  0
 35 30  1  0  0  0  0
 35 26  2  0  0  0  0
M  END
>  <minimizedAffinity>
-8.82504368

$$$$

 OpenBabel03272514343D

 35 41  0  0  0  0  0  0  0  0999 V2000
   34.0120   28.8470   48.8600 N   0  0  0  0  0  0  0  0  0  0  0  0
   34.4690   29.3070   50.0310 C   0  0  0  0  0  3  0  0  0  0  0  0
   35.5000   30.0970   49.8410 N   0  0  0  0  0  0  0  0  0  0  0  0
   35.7300   30.1600   48.5200 C   0  0  0  0  0  0  0  0  0  0  0  0
   34.7930   29.3780   47.9500 N   0  0  0  0  0  0  0  0  0  0  0  0
   36.7070   30.8500   47.6870 C   0  0  0  0  0  0  0  0  0  0  0  0
   37.4530   31.9600   47.8110 N   0  0  0  0  0  0  0  0  0  0  0  0
   38.1760   32.1140   46.7290 O   0  0  0  0  0  0  0  0  0  0  0  0
   37.9150   31.1220   45.9030 C   0  0  0  0  0  0  0  0  0  0  0  0
   36.9990   30.3070   46.4630 N   0  0  0  0  0  0  0  0  0  0  0  0
   38.5640   31.0380   44.6420 N   0  0  0  0  0  0  0  0  0  0  0  0
   39.5730   30.1700   44.4320 C   0  0  0  0  0  3  0  0  0  0  0  0
   40.0180   30.2900   43.1490 N   0  0  0  0  0  0  0  0  0  0  0  0
   39.2880   31.2430   42.5330 C   0  0  0  0  0  0  0  0  0  0  0  0
   39.2190   31.8390   41.2700 C   0  0  0  0  0  3  0  0  0  0  0  0
   38.3110   32.7960   41.0460 N   0  0  0  0  0  0  0  0  0  0  0  0
   37.4390   33.2280   41.9770 C   0  0  0  0  0  3  0  0  0  0  0  0
   37.4910   32.6650   43.1990 N   0  0  0  0  0  0  0  0  0  0  0  0
   38.3950   31.6900   43.4780 C   0  0  0  0  0  0  0  0  0  0  0  0
   31.8580   26.0980   47.7290 C   0  0  0  0  0  3  0  0  0  0  0  0
   33.0170   26.8560   47.8300 C   0  0  0  0  0  3  0  0  0  0  0  0
   32.9090   27.9670   48.6530 C   0  0  0  0  0  0  0  0  0  0  0  0
   31.7570   28.1980   49.2490 N   0  0  0  0  0  0  0  0  0  0  0  0
   30.6470   27.4830   49.1610 C   0  0  0  0  0  0  0  0  0  0  0  0
   30.7540   26.4320   48.3810 N   0  0  0  0  0  0  0  0  0  0  0  0
   29.3340   27.6300   49.7580 C   0  0  0  0  0  0  0  0  0  0  0  0
   28.9940   26.9740   50.9430 C   0  0  0  0  0  3  0  0  0  0  0  0
   27.7660   27.0810   51.5470 C   0  0  0  0  0  3  0  0  0  0  0  0
   26.7780   27.8670   50.9890 C   0  0  0  0  0  3  0  0  0  0  0  0
   27.0720   28.5250   49.8270 C   0  0  0  0  0  0  0  0  0  0  0  0
   26.0930   29.3160   49.2610 C   0  0  0  0  0  3  0  0  0  0  0  0
   26.2830   30.0140   48.1040 C   0  0  0  0  0  3  0  0  0  0  0  0
   27.5310   29.8960   47.5050 C   0  0  0  0  0  3  0  0  0  0  0  0
   28.4830   29.1050   48.0920 C   0  0  0  0  0  3  0  0  0  0  0  0
   28.3060   28.4050   49.2400 C   0  0  0  0  0  0  0  0  0  0  0  0
  1  2  1  0  0  0  0
  3  2  2  0  0  0  0
  4  3  1  0  0  0  0
  5  4  2  0  0  0  0
  5  1  1  0  0  0  0
  6  7  2  0  0  0  0
  6  4  1  0  0  0  0
  8  7  1  0  0  0  0
  9 10  2  0  0  0  0
  9  8  1  0  0  0  0
 10  6  1  0  0  0  0
 11  9  1  0  0  0  0
 12 11  1  0  0  0  0
 13 12  2  0  0  0  0
 14 13  1  0  0  0  0
 14 19  1  0  0  0  0
 15 14  2  0  0  0  0
 16 15  1  0  0  0  0
 16 17  2  0  0  0  0
 17 18  1  0  0  0  0
 18 19  2  0  0  0  0
 19 11  1  0  0  0  0
 20 21  2  0  0  0  0
 20 25  1  0  0  0  0
 21 22  1  0  0  0  0
 22  1  1  0  0  0  0
 22 23  2  0  0  0  0
 24 23  1  0  0  0  0
 24 26  1  0  0  0  0
 25 24  2  0  0  0  0
 26 27  1  0  0  0  0
 27 28  2  0  0  0  0
 29 28  1  0  0  0  0
 30 29  2  0  0  0  0
 31 30  1  0  0  0  0
 32 31  2  0  0  0  0
 33 34  2  0  0  0  0
 33 32  1  0  0  0  0
 34 35  1  0  0  0  0
 35 26  2  0  0  0  0
 35 30  1  0  0  0  0
M  END
>  <minimizedAffinity>
-8.74461079

$$$$

 OpenBabel03272514343D

 35 41  0  0  0  0  0  0  0  0999 V2000
   32.2880   28.9770   46.3780 N   0  0  0  0  0  0  0  0  0  0  0  0
   31.9800   28.0020   47.2420 C   0  0  0  0  0  3  0  0  0  0  0  0
   30.6780   27.8910   47.3620 N   0  0  0  0  0  0  0  0  0  0  0  0
   30.1130   28.8110   46.5640 C   0  0  0  0  0  0  0  0  0  0  0  0
   31.1360   29.4600   45.9750 N   0  0  0  0  0  0  0  0  0  0  0  0
   28.7390   29.1900   46.2560 C   0  0  0  0  0  0  0  0  0  0  0  0
   27.5250   28.7000   46.5550 N   0  0  0  0  0  0  0  0  0  0  0  0
   26.6100   29.4560   46.0020 O   0  0  0  0  0  0  0  0  0  0  0  0
   27.2060   30.4310   45.3490 C   0  0  0  0  0  0  0  0  0  0  0  0
   28.5420   30.3030   45.4820 N   0  0  0  0  0  0  0  0  0  0  0  0
   26.4480   31.4080   44.6490 N   0  0  0  0  0  0  0  0  0  0  0  0
   26.2670   32.6440   45.1510 C   0  0  0  0  0  3  0  0  0  0  0  0
   25.5080   33.3790   44.2900 N   0  0  0  0  0  0  0  0  0  0  0  0
   25.1990   32.6060   43.2290 C   0  0  0  0  0  0  0  0  0  0  0  0
   24.4830   32.7270   42.0340 C   0  0  0  0  0  3  0  0  0  0  0  0
   24.4080   31.6790   41.2060 N   0  0  0  0  0  0  0  0  0  0  0  0
   24.9940   30.4900   41.4530 C   0  0  0  0  0  3  0  0  0  0  0  0
   25.6880   30.3570   42.6000 N   0  0  0  0  0  0  0  0  0  0  0  0
   25.7930   31.3910   43.4740 C   0  0  0  0  0  0  0  0  0  0  0  0
   35.2950   29.7850   44.4350 C   0  0  0  0  0  3  0  0  0  0  0  0
   33.9980   29.3430   44.6590 C   0  0  0  0  0  3  0  0  0  0  0  0
   33.5930   29.3970   45.9850 C   0  0  0  0  0  0  0  0  0  0  0  0
   34.4420   29.8490   46.8840 N   0  0  0  0  0  0  0  0  0  0  0  0
   35.6800   30.2730   46.6820 C   0  0  0  0  0  0  0  0  0  0  0  0
   36.0600   30.2200   45.4260 N   0  0  0  0  0  0  0  0  0  0  0  0
   36.7000   30.7860   47.5750 C   0  0  0  0  0  0  0  0  0  0  0  0
   37.6840   31.6710   47.1270 C   0  0  0  0  0  3  0  0  0  0  0  0
   38.6700   32.1840   47.9320 C   0  0  0  0  0  3  0  0  0  0  0  0
   38.7360   31.8350   49.2660 C   0  0  0  0  0  3  0  0  0  0  0  0
   37.7910   30.9690   49.7430 C   0  0  0  0  0  0  0  0  0  0  0  0
   37.8460   30.6140   51.0750 C   0  0  0  0  0  3  0  0  0  0  0  0
   36.9520   29.7590   51.6500 C   0  0  0  0  0  3  0  0  0  0  0  0
   35.9600   29.2490   50.8230 C   0  0  0  0  0  3  0  0  0  0  0  0
   35.9300   29.6210   49.5050 C   0  0  0  0  0  3  0  0  0  0  0  0
   36.8130   30.4680   48.9210 C   0  0  0  0  0  0  0  0  0  0  0  0
  1  2  1  0  0  0  0
  2  3  2  0  0  0  0
  4  3  1  0  0  0  0
  5  1  1  0  0  0  0
  5  4  2  0  0  0  0
  6  7  2  0  0  0  0
  6  4  1  0  0  0  0
  8  7  1  0  0  0  0
  9 10  2  0  0  0  0
  9  8  1  0  0  0  0
 10  6  1  0  0  0  0
 11 12  1  0  0  0  0
 11  9  1  0  0  0  0
 13 12  2  0  0  0  0
 14 19  1  0  0  0  0
 14 13  1  0  0  0  0
 15 14  2  0  0  0  0
 16 17  2  0  0  0  0
 16 15  1  0  0  0  0
 17 18  1  0  0  0  0
 18 19  2  0  0  0  0
 19 11  1  0  0  0  0
 20 21  2  0  0  0  0
 20 25  1  0  0  0  0
 21 22  1  0  0  0  0
 22  1  1  0  0  0  0
 22 23  2  0  0  0  0
 24 23  1  0  0  0  0
 24 26  1  0  0  0  0
 25 24  2  0  0  0  0
 26 35  1  0  0  0  0
 27 26  2  0  0  0  0
 27 28  1  0  0  0  0
 28 29  2  0  0  0  0
 29 30  1  0  0  0  0
 30 31  1  0  0  0  0
 31 32  2  0  0  0  0
 33 32  1  0  0  0  0
 34 33  2  0  0  0  0
 35 34  1  0  0  0  0
 35 30  2  0  0  0  0
M  END
>  <minimizedAffinity>
-8.70030022

$$$$
