
 OpenBabel03272514383D

 34 39  0  0  0  0  0  0  0  0999 V2000
   38.6990   33.4400   48.8200 C   0  0  0  0  0  3  0  0  0  0  0  0
   39.1680   32.8250   49.9980 C   0  0  0  0  0  3  0  0  0  0  0  0
   38.7940   31.4870   50.1830 C   0  0  0  0  0  3  0  0  0  0  0  0
   38.0250   30.8520   49.2630 N   0  0  0  0  0  0  0  0  0  0  0  0
   37.5980   31.4970   48.1390 C   0  0  0  0  0  0  0  0  0  0  0  0
   37.9360   32.7770   47.9280 N   0  0  0  0  0  0  0  0  0  0  0  0
   36.7990   30.8610   47.1660 N   0  0  0  0  0  0  0  0  0  0  0  0
   37.1420   30.9020   45.8540 C   0  0  0  0  0  3  0  0  0  0  0  0
   36.1910   30.2090   45.1600 N   0  0  0  0  0  0  0  0  0  0  0  0
   35.2730   29.7390   46.0080 C   0  0  0  0  0  0  0  0  0  0  0  0
   34.0910   28.9850   45.9690 C   0  0  0  0  0  0  0  0  0  0  0  0
   33.7430   28.6120   44.8230 O   0  0  0  0  0  0  0  0  0  0  0  0
   33.4090   28.7050   47.1060 N   0  0  0  0  0  0  0  0  0  0  0  0
   33.8320   29.1310   48.2960 C   0  0  0  0  0  0  0  0  0  0  0  0
   32.9890   28.7420   49.3830 N   0  0  0  0  0  0  0  0  0  0  0  0
   34.9700   29.8620   48.3740 N   0  0  0  0  0  0  0  0  0  0  0  0
   35.6530   30.1500   47.2820 C   0  0  0  0  0  0  0  0  0  0  0  0
   33.2280   29.0210   50.3450 H   0  0  0  0  0  0  0  0  0  0  0  0
   32.1420   28.1820   49.2040 H   0  0  0  0  0  0  0  0  0  0  0  0
   32.1820   27.9210   47.0250 C   0  0  0  0  0  0  0  0  0  0  0  0
   32.1690   26.6260   46.4940 C   0  0  0  0  0  3  0  0  0  0  0  0
   30.3820   26.1650   46.6510 S   0  0  0  0  0  0  0  0  0  0  0  0
   29.9700   27.8340   47.4190 C   0  0  0  0  0  0  0  0  0  0  0  0
   30.9890   28.2880   47.4080 N   0  0  0  0  0  0  0  0  0  0  0  0
   28.5170   27.9970   47.7680 C   0  0  0  0  0  0  0  0  0  0  0  0
   27.5800   28.3600   46.8980 N   0  0  0  0  0  0  0  0  0  0  0  0
   26.2860   28.5060   47.2080 C   0  0  0  0  0  3  0  0  0  0  0  0
   25.8910   28.2740   48.4710 N   0  0  0  0  0  0  0  0  0  0  0  0
   26.7850   27.9030   49.4000 C   0  0  0  0  0  0  0  0  0  0  0  0
   26.4100   27.6580   50.7060 C   0  0  0  0  0  3  0  0  0  0  0  0
   27.3250   27.2730   51.6810 C   0  0  0  0  0  3  0  0  0  0  0  0
   28.6550   27.1490   51.2600 C   0  0  0  0  0  3  0  0  0  0  0  0
   29.0360   27.3900   49.9640 C   0  0  0  0  0  3  0  0  0  0  0  0
   28.1050   27.7640   49.0440 C   0  0  0  0  0  0  0  0  0  0  0  0
  1  2  1  0  0  0  0
  2  3  2  0  0  0  0
  4  3  1  0  0  0  0
  5  4  2  0  0  0  0
  6  5  1  0  0  0  0
  6  1  2  0  0  0  0
  7 17  1  0  0  0  0
  7  5  1  0  0  0  0
  8  7  1  0  0  0  0
  9  8  2  0  0  0  0
  9 10  1  0  0  0  0
 10 17  2  0  0  0  0
 11 10  1  0  0  0  0
 11 13  1  0  0  0  0
 12 11  2  0  0  0  0
 13 14  1  0  0  0  0
 14 16  2  0  0  0  0
 14 15  1  0  0  0  0
 15 18  1  0  0  0  0
 17 16  1  0  0  0  0
 19 15  1  0  0  0  0
 20 13  1  0  0  0  0
 20 24  1  0  0  0  0
 21 22  1  0  0  0  0
 21 20  2  0  0  0  0
 22 23  1  0  0  0  0
 23 25  1  0  0  0  0
 24 23  2  0  0  0  0
 25 34  1  0  0  0  0
 26 27  1  0  0  0  0
 26 25  2  0  0  0  0
 27 28  2  0  0  0  0
 28 29  1  0  0  0  0
 29 30  1  0  0  0  0
 30 31  2  0  0  0  0
 32 31  1  0  0  0  0
 33 32  2  0  0  0  0
 34 29  2  0  0  0  0
 34 33  1  0  0  0  0
M  END
>  <minimizedAffinity>
-7.54726362

$$$$

 OpenBabel03272514383D

 34 39  0  0  0  0  0  0  0  0999 V2000
   26.2690   27.5260   49.2520 C   0  0  0  0  0  3  0  0  0  0  0  0
   25.5690   28.6840   48.8590 C   0  0  0  0  0  3  0  0  0  0  0  0
   26.0730   29.3530   47.7350 C   0  0  0  0  0  3  0  0  0  0  0  0
   27.1700   28.8860   47.0880 N   0  0  0  0  0  0  0  0  0  0  0  0
   27.8090   27.7580   47.5120 C   0  0  0  0  0  0  0  0  0  0  0  0
   27.3560   27.0910   48.5840 N   0  0  0  0  0  0  0  0  0  0  0  0
   28.9500   27.2500   46.8580 N   0  0  0  0  0  0  0  0  0  0  0  0
   29.0130   25.9450   46.4890 C   0  0  0  0  0  3  0  0  0  0  0  0
   30.2230   25.7490   45.8850 N   0  0  0  0  0  0  0  0  0  0  0  0
   30.9060   26.8950   45.8700 C   0  0  0  0  0  0  0  0  0  0  0  0
   32.1470   27.3770   45.4270 C   0  0  0  0  0  0  0  0  0  0  0  0
   32.8740   26.5190   44.8710 O   0  0  0  0  0  0  0  0  0  0  0  0
   32.4920   28.6740   45.6070 N   0  0  0  0  0  0  0  0  0  0  0  0
   31.6730   29.5370   46.2060 C   0  0  0  0  0  0  0  0  0  0  0  0
   32.2020   30.8620   46.3080 N   0  0  0  0  0  0  0  0  0  0  0  0
   30.4650   29.1110   46.6470 N   0  0  0  0  0  0  0  0  0  0  0  0
   30.1040   27.8520   46.4860 C   0  0  0  0  0  0  0  0  0  0  0  0
   31.6460   31.6050   46.7560 H   0  0  0  0  0  0  0  0  0  0  0  0
   33.1390   31.0730   45.9350 H   0  0  0  0  0  0  0  0  0  0  0  0
   33.7930   29.1360   45.1360 C   0  0  0  0  0  0  0  0  0  0  0  0
   34.1840   28.9970   43.7990 C   0  0  0  0  0  3  0  0  0  0  0  0
   35.8790   29.7420   43.8160 S   0  0  0  0  0  0  0  0  0  0  0  0
   35.7510   30.1110   45.6580 C   0  0  0  0  0  0  0  0  0  0  0  0
   34.7270   29.7080   45.8460 N   0  0  0  0  0  0  0  0  0  0  0  0
   36.9720   30.7750   46.2290 C   0  0  0  0  0  0  0  0  0  0  0  0
   37.9440   31.3030   45.4910 N   0  0  0  0  0  0  0  0  0  0  0  0
   39.0310   31.8950   45.9980 C   0  0  0  0  0  3  0  0  0  0  0  0
   39.1670   31.9720   47.3330 N   0  0  0  0  0  0  0  0  0  0  0  0
   38.2220   31.4600   48.1370 C   0  0  0  0  0  0  0  0  0  0  0  0
   38.3320   31.5230   49.5110 C   0  0  0  0  0  3  0  0  0  0  0  0
   37.3620   30.9970   50.3580 C   0  0  0  0  0  3  0  0  0  0  0  0
   36.2610   30.3960   49.7330 C   0  0  0  0  0  3  0  0  0  0  0  0
   36.1440   30.3300   48.3680 C   0  0  0  0  0  3  0  0  0  0  0  0
   37.1190   30.8590   47.5790 C   0  0  0  0  0  0  0  0  0  0  0  0
  2  1  1  0  0  0  0
  3  2  2  0  0  0  0
  4  5  2  0  0  0  0
  4  3  1  0  0  0  0
  5  6  1  0  0  0  0
  6  1  2  0  0  0  0
  7  5  1  0  0  0  0
  8  7  1  0  0  0  0
  9  8  2  0  0  0  0
 10  9  1  0  0  0  0
 10 17  2  0  0  0  0
 11 13  1  0  0  0  0
 11 10  1  0  0  0  0
 12 11  2  0  0  0  0
 13 14  1  0  0  0  0
 14 15  1  0  0  0  0
 14 16  2  0  0  0  0
 15 18  1  0  0  0  0
 17 16  1  0  0  0  0
 17  7  1  0  0  0  0
 19 15  1  0  0  0  0
 20 13  1  0  0  0  0
 20 24  1  0  0  0  0
 21 22  1  0  0  0  0
 21 20  2  0  0  0  0
 22 23  1  0  0  0  0
 23 24  2  0  0  0  0
 23 25  1  0  0  0  0
 25 34  1  0  0  0  0
 26 27  1  0  0  0  0
 26 25  2  0  0  0  0
 27 28  2  0  0  0  0
 28 29  1  0  0  0  0
 29 30  1  0  0  0  0
 30 31  2  0  0  0  0
 32 31  1  0  0  0  0
 33 32  2  0  0  0  0
 34 29  2  0  0  0  0
 34 33  1  0  0  0  0
M  END
>  <minimizedAffinity>
-7.43087435

$$$$

 OpenBabel03272514383D

 34 39  0  0  0  0  0  0  0  0999 V2000
   24.9580   33.9950   45.5900 C   0  0  0  0  0  3  0  0  0  0  0  0
   24.8710   34.3090   44.2190 C   0  0  0  0  0  3  0  0  0  0  0  0
   25.6480   33.5210   43.3590 C   0  0  0  0  0  3  0  0  0  0  0  0
   26.4250   32.5230   43.8500 N   0  0  0  0  0  0  0  0  0  0  0  0
   26.4710   32.2630   45.1890 C   0  0  0  0  0  0  0  0  0  0  0  0
   25.7410   32.9960   46.0420 N   0  0  0  0  0  0  0  0  0  0  0  0
   27.2690   31.2320   45.7260 N   0  0  0  0  0  0  0  0  0  0  0  0
   26.7390   30.3190   46.5790 C   0  0  0  0  0  3  0  0  0  0  0  0
   27.7390   29.4570   46.9290 N   0  0  0  0  0  0  0  0  0  0  0  0
   28.8690   29.8100   46.3150 C   0  0  0  0  0  0  0  0  0  0  0  0
   30.2020   29.3820   46.2320 C   0  0  0  0  0  0  0  0  0  0  0  0
   30.4710   28.3660   46.9200 O   0  0  0  0  0  0  0  0  0  0  0  0
   31.0970   30.0420   45.4580 N   0  0  0  0  0  0  0  0  0  0  0  0
   30.7480   31.1160   44.7510 C   0  0  0  0  0  0  0  0  0  0  0  0
   31.8200   31.6830   43.9930 N   0  0  0  0  0  0  0  0  0  0  0  0
   29.4700   31.5600   44.8030 N   0  0  0  0  0  0  0  0  0  0  0  0
   28.5780   30.9360   45.5500 C   0  0  0  0  0  0  0  0  0  0  0  0
   31.6550   32.5160   43.4110 H   0  0  0  0  0  0  0  0  0  0  0  0
   32.7580   31.2570   44.0290 H   0  0  0  0  0  0  0  0  0  0  0  0
   32.4750   29.5680   45.4020 C   0  0  0  0  0  0  0  0  0  0  0  0
   32.8370   28.4440   44.6500 C   0  0  0  0  0  3  0  0  0  0  0  0
   34.6590   28.3410   44.9660 S   0  0  0  0  0  0  0  0  0  0  0  0
   34.6000   29.8610   46.0760 C   0  0  0  0  0  0  0  0  0  0  0  0
   33.5100   30.0860   46.0070 N   0  0  0  0  0  0  0  0  0  0  0  0
   35.9360   30.2460   46.6470 C   0  0  0  0  0  0  0  0  0  0  0  0
   36.9000   30.8360   45.9490 N   0  0  0  0  0  0  0  0  0  0  0  0
   38.0900   31.1800   46.4570 C   0  0  0  0  0  3  0  0  0  0  0  0
   38.3440   30.9190   47.7500 N   0  0  0  0  0  0  0  0  0  0  0  0
   37.4140   30.3250   48.5140 C   0  0  0  0  0  0  0  0  0  0  0  0
   37.6440   30.0440   49.8450 C   0  0  0  0  0  3  0  0  0  0  0  0
   36.6900   29.4280   50.6490 C   0  0  0  0  0  3  0  0  0  0  0  0
   35.4770   29.1070   50.0270 C   0  0  0  0  0  3  0  0  0  0  0  0
   35.2400   29.3830   48.7040 C   0  0  0  0  0  3  0  0  0  0  0  0
   36.2040   29.9880   47.9560 C   0  0  0  0  0  0  0  0  0  0  0  0
  1  6  1  0  0  0  0
  2  1  2  0  0  0  0
  3  4  2  0  0  0  0
  3  2  1  0  0  0  0
  4  5  1  0  0  0  0
  5  7  1  0  0  0  0
  5  6  2  0  0  0  0
  7  8  1  0  0  0  0
  8  9  2  0  0  0  0
 10  9  1  0  0  0  0
 11 10  1  0  0  0  0
 11 12  2  0  0  0  0
 13 11  1  0  0  0  0
 14 16  2  0  0  0  0
 14 13  1  0  0  0  0
 15 19  1  0  0  0  0
 15 14  1  0  0  0  0
 16 17  1  0  0  0  0
 17  7  1  0  0  0  0
 17 10  2  0  0  0  0
 18 15  1  0  0  0  0
 20 13  1  0  0  0  0
 20 24  1  0  0  0  0
 21 22  1  0  0  0  0
 21 20  2  0  0  0  0
 22 23  1  0  0  0  0
 23 25  1  0  0  0  0
 24 23  2  0  0  0  0
 25 34  1  0  0  0  0
 26 27  1  0  0  0  0
 26 25  2  0  0  0  0
 27 28  2  0  0  0  0
 28 29  1  0  0  0  0
 29 30  1  0  0  0  0
 30 31  2  0  0  0  0
 32 31  1  0  0  0  0
 33 32  2  0  0  0  0
 34 29  2  0  0  0  0
 34 33  1  0  0  0  0
M  END
>  <minimizedAffinity>
-7.36900759

$$$$

 OpenBabel03272514383D

 34 39  0  0  0  0  0  0  0  0999 V2000
   28.5960   26.9460   50.6330 C   0  0  0  0  0  3  0  0  0  0  0  0
   27.6360   27.4480   51.5340 C   0  0  0  0  0  3  0  0  0  0  0  0
   26.5700   28.1570   50.9630 C   0  0  0  0  0  3  0  0  0  0  0  0
   26.4980   28.3310   49.6190 N   0  0  0  0  0  0  0  0  0  0  0  0
   27.4580   27.8230   48.7930 C   0  0  0  0  0  0  0  0  0  0  0  0
   28.4920   27.1390   49.3040 N   0  0  0  0  0  0  0  0  0  0  0  0
   27.4080   27.9890   47.3930 N   0  0  0  0  0  0  0  0  0  0  0  0
   27.5420   26.9220   46.5650 C   0  0  0  0  0  3  0  0  0  0  0  0
   27.4530   27.3860   45.2830 N   0  0  0  0  0  0  0  0  0  0  0  0
   27.2660   28.7070   45.2980 C   0  0  0  0  0  0  0  0  0  0  0  0
   27.1000   29.7580   44.3840 C   0  0  0  0  0  0  0  0  0  0  0  0
   27.1260   29.4130   43.1770 O   0  0  0  0  0  0  0  0  0  0  0  0
   26.9290   31.0310   44.8140 N   0  0  0  0  0  0  0  0  0  0  0  0
   26.9110   31.3320   46.1110 C   0  0  0  0  0  0  0  0  0  0  0  0
   26.7190   32.7240   46.3800 N   0  0  0  0  0  0  0  0  0  0  0  0
   27.0670   30.3440   47.0250 N   0  0  0  0  0  0  0  0  0  0  0  0
   27.2370   29.0960   46.6340 C   0  0  0  0  0  0  0  0  0  0  0  0
   26.6890   33.0610   47.3530 H   0  0  0  0  0  0  0  0  0  0  0  0
   26.6100   33.3890   45.6000 H   0  0  0  0  0  0  0  0  0  0  0  0
   26.7630   32.0970   43.8320 C   0  0  0  0  0  0  0  0  0  0  0  0
   25.4970   32.5180   43.4070 C   0  0  0  0  0  3  0  0  0  0  0  0
   25.9220   33.8510   42.1950 S   0  0  0  0  0  0  0  0  0  0  0  0
   27.7650   33.5940   42.4870 C   0  0  0  0  0  0  0  0  0  0  0  0
   27.7100   32.7730   43.2400 N   0  0  0  0  0  0  0  0  0  0  0  0
   28.6400   34.5070   41.6740 C   0  0  0  0  0  0  0  0  0  0  0  0
   28.1970   35.2670   40.6770 N   0  0  0  0  0  0  0  0  0  0  0  0
   28.9740   36.0800   39.9530 C   0  0  0  0  0  3  0  0  0  0  0  0
   30.2860   36.1480   40.2350 N   0  0  0  0  0  0  0  0  0  0  0  0
   30.7990   35.4080   41.2310 C   0  0  0  0  0  0  0  0  0  0  0  0
   32.1420   35.4550   41.5460 C   0  0  0  0  0  3  0  0  0  0  0  0
   32.6900   34.6940   42.5740 C   0  0  0  0  0  3  0  0  0  0  0  0
   31.7960   33.8740   43.2750 C   0  0  0  0  0  3  0  0  0  0  0  0
   30.4600   33.8210   42.9670 C   0  0  0  0  0  3  0  0  0  0  0  0
   29.9690   34.5840   41.9520 C   0  0  0  0  0  0  0  0  0  0  0  0
  1  2  1  0  0  0  0
  3  2  2  0  0  0  0
  4  3  1  0  0  0  0
  5  6  1  0  0  0  0
  5  4  2  0  0  0  0
  6  1  2  0  0  0  0
  7  5  1  0  0  0  0
  8  7  1  0  0  0  0
  9 10  1  0  0  0  0
  9  8  2  0  0  0  0
 10 17  2  0  0  0  0
 11 13  1  0  0  0  0
 11 10  1  0  0  0  0
 12 11  2  0  0  0  0
 13 14  1  0  0  0  0
 14 15  1  0  0  0  0
 14 16  2  0  0  0  0
 15 18  1  0  0  0  0
 17 16  1  0  0  0  0
 17  7  1  0  0  0  0
 19 15  1  0  0  0  0
 20 13  1  0  0  0  0
 21 20  2  0  0  0  0
 22 23  1  0  0  0  0
 22 21  1  0  0  0  0
 23 24  2  0  0  0  0
 24 20  1  0  0  0  0
 25 34  1  0  0  0  0
 25 23  1  0  0  0  0
 26 25  2  0  0  0  0
 27 28  2  0  0  0  0
 27 26  1  0  0  0  0
 28 29  1  0  0  0  0
 29 30  2  0  0  0  0
 29 34  1  0  0  0  0
 30 31  1  0  0  0  0
 31 32  2  0  0  0  0
 33 32  1  0  0  0  0
 34 33  2  0  0  0  0
M  END
>  <minimizedAffinity>
-7.15199614

$$$$

 OpenBabel03272514383D

 34 39  0  0  0  0  0  0  0  0999 V2000
   25.2340   35.8770   46.9660 C   0  0  0  0  0  3  0  0  0  0  0  0
   24.9060   36.0010   45.6010 C   0  0  0  0  0  3  0  0  0  0  0  0
   24.8450   34.8040   44.8740 C   0  0  0  0  0  3  0  0  0  0  0  0
   25.0920   33.6150   45.4790 N   0  0  0  0  0  0  0  0  0  0  0  0
   25.4050   33.5540   46.8050 C   0  0  0  0  0  0  0  0  0  0  0  0
   25.4730   34.6780   47.5340 N   0  0  0  0  0  0  0  0  0  0  0  0
   25.6650   32.3310   47.4600 N   0  0  0  0  0  0  0  0  0  0  0  0
   25.0300   32.0170   48.6170 C   0  0  0  0  0  3  0  0  0  0  0  0
   25.4800   30.7890   49.0100 N   0  0  0  0  0  0  0  0  0  0  0  0
   26.3730   30.3370   48.1270 C   0  0  0  0  0  0  0  0  0  0  0  0
   27.1820   29.2080   47.9310 C   0  0  0  0  0  0  0  0  0  0  0  0
   27.0760   28.3250   48.8170 O   0  0  0  0  0  0  0  0  0  0  0  0
   27.9990   29.1180   46.8540 N   0  0  0  0  0  0  0  0  0  0  0  0
   28.0660   30.0920   45.9460 C   0  0  0  0  0  0  0  0  0  0  0  0
   28.9800   29.8260   44.8790 N   0  0  0  0  0  0  0  0  0  0  0  0
   27.2990   31.1980   46.1010 N   0  0  0  0  0  0  0  0  0  0  0  0
   26.4950   31.3110   47.1410 C   0  0  0  0  0  0  0  0  0  0  0  0
   29.1050   30.5170   44.1250 H   0  0  0  0  0  0  0  0  0  0  0  0
   29.5130   28.9450   44.8640 H   0  0  0  0  0  0  0  0  0  0  0  0
   28.8280   27.9290   46.6860 C   0  0  0  0  0  0  0  0  0  0  0  0
   30.1250   27.8560   47.2070 C   0  0  0  0  0  3  0  0  0  0  0  0
   30.6530   26.1600   46.6850 S   0  0  0  0  0  0  0  0  0  0  0  0
   28.9970   25.8520   45.8430 C   0  0  0  0  0  0  0  0  0  0  0  0
   28.5040   26.8290   46.0640 N   0  0  0  0  0  0  0  0  0  0  0  0
   28.8870   24.4980   45.2000 C   0  0  0  0  0  0  0  0  0  0  0  0
   29.5720   23.4300   45.5960 N   0  0  0  0  0  0  0  0  0  0  0  0
   29.4750   22.2240   45.0240 C   0  0  0  0  0  3  0  0  0  0  0  0
   28.6390   22.0630   43.9850 N   0  0  0  0  0  0  0  0  0  0  0  0
   27.9160   23.1000   43.5340 C   0  0  0  0  0  0  0  0  0  0  0  0
   27.0490   22.9670   42.4680 C   0  0  0  0  0  3  0  0  0  0  0  0
   26.2940   24.0320   41.9890 C   0  0  0  0  0  3  0  0  0  0  0  0
   26.4650   25.2540   42.6530 C   0  0  0  0  0  3  0  0  0  0  0  0
   27.3240   25.3950   43.7120 C   0  0  0  0  0  3  0  0  0  0  0  0
   28.0430   24.3230   44.1470 C   0  0  0  0  0  0  0  0  0  0  0  0
  1  6  1  0  0  0  0
  2  1  2  0  0  0  0
  3  4  2  0  0  0  0
  3  2  1  0  0  0  0
  4  5  1  0  0  0  0
  5  7  1  0  0  0  0
  5  6  2  0  0  0  0
  7  8  1  0  0  0  0
  8  9  2  0  0  0  0
 10  9  1  0  0  0  0
 11 10  1  0  0  0  0
 11 12  2  0  0  0  0
 13 11  1  0  0  0  0
 14 16  2  0  0  0  0
 14 13  1  0  0  0  0
 15 14  1  0  0  0  0
 16 17  1  0  0  0  0
 17  7  1  0  0  0  0
 17 10  2  0  0  0  0
 18 15  1  0  0  0  0
 19 15  1  0  0  0  0
 20 13  1  0  0  0  0
 20 21  2  0  0  0  0
 22 21  1  0  0  0  0
 23 24  2  0  0  0  0
 23 22  1  0  0  0  0
 24 20  1  0  0  0  0
 25 26  1  0  0  0  0
 25 23  1  0  0  0  0
 27 26  2  0  0  0  0
 28 27  1  0  0  0  0
 29 28  2  0  0  0  0
 29 34  1  0  0  0  0
 30 29  1  0  0  0  0
 31 30  2  0  0  0  0
 31 32  1  0  0  0  0
 32 33  2  0  0  0  0
 33 34  1  0  0  0  0
 34 25  2  0  0  0  0
M  END
>  <minimizedAffinity>
-7.06053019

$$$$

 OpenBabel03272514383D

 34 39  0  0  0  0  0  0  0  0999 V2000
   25.4810   31.9680   42.4830 C   0  0  0  0  0  3  0  0  0  0  0  0
   25.6860   31.3200   41.2490 C   0  0  0  0  0  3  0  0  0  0  0  0
   26.4940   30.1760   41.2840 C   0  0  0  0  0  3  0  0  0  0  0  0
   27.0300   29.7450   42.4530 N   0  0  0  0  0  0  0  0  0  0  0  0
   26.7980   30.4120   43.6200 C   0  0  0  0  0  0  0  0  0  0  0  0
   26.0290   31.5110   43.6260 N   0  0  0  0  0  0  0  0  0  0  0  0
   27.3410   29.9850   44.8500 N   0  0  0  0  0  0  0  0  0  0  0  0
   26.5490   29.8320   45.9410 C   0  0  0  0  0  3  0  0  0  0  0  0
   27.3450   29.4160   46.9700 N   0  0  0  0  0  0  0  0  0  0  0  0
   28.6050   29.3060   46.5440 C   0  0  0  0  0  0  0  0  0  0  0  0
   29.8620   28.9480   47.0520 C   0  0  0  0  0  0  0  0  0  0  0  0
   29.8650   28.6210   48.2640 O   0  0  0  0  0  0  0  0  0  0  0  0
   30.9620   28.9660   46.2610 N   0  0  0  0  0  0  0  0  0  0  0  0
   30.8930   29.3220   44.9790 C   0  0  0  0  0  0  0  0  0  0  0  0
   32.1500   29.2820   44.2990 N   0  0  0  0  0  0  0  0  0  0  0  0
   29.6960   29.6740   44.4510 N   0  0  0  0  0  0  0  0  0  0  0  0
   28.6090   29.6670   45.1990 C   0  0  0  0  0  0  0  0  0  0  0  0
   32.2050   29.5390   43.3030 H   0  0  0  0  0  0  0  0  0  0  0  0
   33.0010   28.9960   44.8050 H   0  0  0  0  0  0  0  0  0  0  0  0
   32.2520   28.5890   46.8280 C   0  0  0  0  0  0  0  0  0  0  0  0
   32.5090   27.2880   47.2740 C   0  0  0  0  0  3  0  0  0  0  0  0
   34.2570   27.4240   47.8700 S   0  0  0  0  0  0  0  0  0  0  0  0
   34.3250   29.2470   47.4000 C   0  0  0  0  0  0  0  0  0  0  0  0
   33.2920   29.3610   46.9950 N   0  0  0  0  0  0  0  0  0  0  0  0
   35.6440   29.9010   47.7010 C   0  0  0  0  0  0  0  0  0  0  0  0
   36.4140   30.4760   46.7830 N   0  0  0  0  0  0  0  0  0  0  0  0
   37.5890   31.0590   47.0490 C   0  0  0  0  0  3  0  0  0  0  0  0
   38.0340   31.0740   48.3160 N   0  0  0  0  0  0  0  0  0  0  0  0
   37.3060   30.5120   49.2940 C   0  0  0  0  0  0  0  0  0  0  0  0
   37.7360   30.5110   50.6050 C   0  0  0  0  0  3  0  0  0  0  0  0
   36.9930   29.9310   51.6290 C   0  0  0  0  0  3  0  0  0  0  0  0
   35.7780   29.3460   51.2510 C   0  0  0  0  0  3  0  0  0  0  0  0
   35.3430   29.3430   49.9500 C   0  0  0  0  0  3  0  0  0  0  0  0
   36.1050   29.9230   48.9810 C   0  0  0  0  0  0  0  0  0  0  0  0
  1  6  1  0  0  0  0
  2  3  1  0  0  0  0
  2  1  2  0  0  0  0
  3  4  2  0  0  0  0
  4  5  1  0  0  0  0
  5  6  2  0  0  0  0
  5  7  1  0  0  0  0
  7 17  1  0  0  0  0
  7  8  1  0  0  0  0
  8  9  2  0  0  0  0
 10  9  1  0  0  0  0
 10 11  1  0  0  0  0
 11 12  2  0  0  0  0
 13 20  1  0  0  0  0
 13 11  1  0  0  0  0
 14 13  1  0  0  0  0
 15 19  1  0  0  0  0
 15 14  1  0  0  0  0
 16 14  2  0  0  0  0
 16 17  1  0  0  0  0
 17 10  2  0  0  0  0
 18 15  1  0  0  0  0
 20 24  1  0  0  0  0
 20 21  2  0  0  0  0
 21 22  1  0  0  0  0
 23 25  1  0  0  0  0
 23 22  1  0  0  0  0
 24 23  2  0  0  0  0
 25 34  1  0  0  0  0
 26 27  1  0  0  0  0
 26 25  2  0  0  0  0
 27 28  2  0  0  0  0
 28 29  1  0  0  0  0
 29 30  1  0  0  0  0
 30 31  2  0  0  0  0
 32 31  1  0  0  0  0
 33 32  2  0  0  0  0
 34 29  2  0  0  0  0
 34 33  1  0  0  0  0
M  END
>  <minimizedAffinity>
-7.00829983

$$$$

 OpenBabel03272514383D

 34 39  0  0  0  0  0  0  0  0999 V2000
   25.9070   31.7320   41.6100 C   0  0  0  0  0  3  0  0  0  0  0  0
   25.2230   32.4520   42.6100 C   0  0  0  0  0  3  0  0  0  0  0  0
   25.9750   32.7940   43.7420 C   0  0  0  0  0  3  0  0  0  0  0  0
   27.2800   32.4370   43.8380 N   0  0  0  0  0  0  0  0  0  0  0  0
   27.8930   31.7390   42.8380 C   0  0  0  0  0  0  0  0  0  0  0  0
   27.2060   31.3950   41.7390 N   0  0  0  0  0  0  0  0  0  0  0  0
   29.2490   31.3570   42.9110 N   0  0  0  0  0  0  0  0  0  0  0  0
   30.0990   31.6270   41.8890 C   0  0  0  0  0  3  0  0  0  0  0  0
   31.3280   31.1430   42.2400 N   0  0  0  0  0  0  0  0  0  0  0  0
   31.2590   30.5850   43.4510 C   0  0  0  0  0  0  0  0  0  0  0  0
   32.1040   29.9340   44.3610 C   0  0  0  0  0  0  0  0  0  0  0  0
   33.2930   29.8120   43.9780 O   0  0  0  0  0  0  0  0  0  0  0  0
   31.6320   29.4890   45.5500 N   0  0  0  0  0  0  0  0  0  0  0  0
   30.3570   29.6500   45.8990 C   0  0  0  0  0  0  0  0  0  0  0  0
   30.0370   29.1180   47.1880 N   0  0  0  0  0  0  0  0  0  0  0  0
   29.5090   30.2750   45.0470 N   0  0  0  0  0  0  0  0  0  0  0  0
   29.9410   30.7170   43.8820 C   0  0  0  0  0  0  0  0  0  0  0  0
   29.0760   29.1920   47.5510 H   0  0  0  0  0  0  0  0  0  0  0  0
   30.7680   28.6620   47.7520 H   0  0  0  0  0  0  0  0  0  0  0  0
   32.5430   28.8130   46.4690 C   0  0  0  0  0  0  0  0  0  0  0  0
   32.6350   27.4180   46.5210 C   0  0  0  0  0  3  0  0  0  0  0  0
   33.9130   27.1670   47.8370 S   0  0  0  0  0  0  0  0  0  0  0  0
   34.0940   29.0250   48.0820 C   0  0  0  0  0  0  0  0  0  0  0  0
   33.3530   29.3740   47.3250 N   0  0  0  0  0  0  0  0  0  0  0  0
   35.0990   29.4020   49.1350 C   0  0  0  0  0  0  0  0  0  0  0  0
   34.9910   29.0690   50.4170 N   0  0  0  0  0  0  0  0  0  0  0  0
   35.8850   29.4030   51.3550 C   0  0  0  0  0  3  0  0  0  0  0  0
   36.9640   30.1200   50.9990 N   0  0  0  0  0  0  0  0  0  0  0  0
   37.1350   30.4890   49.7200 C   0  0  0  0  0  0  0  0  0  0  0  0
   38.2330   31.2260   49.3220 C   0  0  0  0  0  3  0  0  0  0  0  0
   38.4240   31.6170   48.0000 C   0  0  0  0  0  3  0  0  0  0  0  0
   37.4340   31.2190   47.0920 C   0  0  0  0  0  3  0  0  0  0  0  0
   36.3410   30.4870   47.4800 C   0  0  0  0  0  3  0  0  0  0  0  0
   36.1950   30.1270   48.7850 C   0  0  0  0  0  0  0  0  0  0  0  0
  1  6  2  0  0  0  0
  1  2  1  0  0  0  0
  2  3  2  0  0  0  0
  3  4  1  0  0  0  0
  5  7  1  0  0  0  0
  5  4  2  0  0  0  0
  6  5  1  0  0  0  0
  7 17  1  0  0  0  0
  8  9  2  0  0  0  0
  8  7  1  0  0  0  0
  9 10  1  0  0  0  0
 10 17  2  0  0  0  0
 10 11  1  0  0  0  0
 11 13  1  0  0  0  0
 12 11  2  0  0  0  0
 13 14  1  0  0  0  0
 13 20  1  0  0  0  0
 14 15  1  0  0  0  0
 15 18  1  0  0  0  0
 15 19  1  0  0  0  0
 16 14  2  0  0  0  0
 17 16  1  0  0  0  0
 20 21  2  0  0  0  0
 20 24  1  0  0  0  0
 21 22  1  0  0  0  0
 22 23  1  0  0  0  0
 23 25  1  0  0  0  0
 24 23  2  0  0  0  0
 25 26  1  0  0  0  0
 26 27  2  0  0  0  0
 28 27  1  0  0  0  0
 29 28  2  0  0  0  0
 30 29  1  0  0  0  0
 31 30  2  0  0  0  0
 32 33  2  0  0  0  0
 32 31  1  0  0  0  0
 33 34  1  0  0  0  0
 34 25  2  0  0  0  0
 34 29  1  0  0  0  0
M  END
>  <minimizedAffinity>
-6.96972942

$$$$

 OpenBabel03272514383D

 34 39  0  0  0  0  0  0  0  0999 V2000
   39.1680   31.8430   43.3950 C   0  0  0  0  0  3  0  0  0  0  0  0
   38.3710   32.5680   42.4870 C   0  0  0  0  0  3  0  0  0  0  0  0
   37.0220   32.7170   42.8370 C   0  0  0  0  0  3  0  0  0  0  0  0
   36.5450   32.1830   43.9900 N   0  0  0  0  0  0  0  0  0  0  0  0
   37.3630   31.4900   44.8340 C   0  0  0  0  0  0  0  0  0  0  0  0
   38.6590   31.3270   44.5310 N   0  0  0  0  0  0  0  0  0  0  0  0
   36.8940   30.9250   46.0390 N   0  0  0  0  0  0  0  0  0  0  0  0
   37.5400   31.1580   47.2090 C   0  0  0  0  0  3  0  0  0  0  0  0
   36.8640   30.4880   48.1890 N   0  0  0  0  0  0  0  0  0  0  0  0
   35.8180   29.8520   47.6570 C   0  0  0  0  0  0  0  0  0  0  0  0
   34.7640   29.0260   48.0720 C   0  0  0  0  0  0  0  0  0  0  0  0
   34.7460   28.7760   49.3020 O   0  0  0  0  0  0  0  0  0  0  0  0
   33.8580   28.5560   47.1810 N   0  0  0  0  0  0  0  0  0  0  0  0
   33.9320   28.8580   45.8860 C   0  0  0  0  0  0  0  0  0  0  0  0
   32.8920   28.2760   45.0950 N   0  0  0  0  0  0  0  0  0  0  0  0
   34.9350   29.6550   45.4460 N   0  0  0  0  0  0  0  0  0  0  0  0
   35.8320   30.1250   46.2920 C   0  0  0  0  0  0  0  0  0  0  0  0
   32.8590   28.4490   44.0800 H   0  0  0  0  0  0  0  0  0  0  0  0
   32.1770   27.6830   45.5410 H   0  0  0  0  0  0  0  0  0  0  0  0
   32.7780   27.6950   47.6520 C   0  0  0  0  0  0  0  0  0  0  0  0
   32.7880   26.3130   47.4330 C   0  0  0  0  0  3  0  0  0  0  0  0
   31.2040   25.7860   48.2330 S   0  0  0  0  0  0  0  0  0  0  0  0
   30.8080   27.5590   48.7270 C   0  0  0  0  0  0  0  0  0  0  0  0
   31.7090   28.0640   48.3040 N   0  0  0  0  0  0  0  0  0  0  0  0
   29.5100   27.7050   49.4720 C   0  0  0  0  0  0  0  0  0  0  0  0
   29.2630   27.1430   50.6500 N   0  0  0  0  0  0  0  0  0  0  0  0
   28.1080   27.2720   51.3140 C   0  0  0  0  0  3  0  0  0  0  0  0
   27.1260   28.0120   50.7720 N   0  0  0  0  0  0  0  0  0  0  0  0
   27.3100   28.6090   49.5840 C   0  0  0  0  0  0  0  0  0  0  0  0
   26.3210   29.3750   49.0010 C   0  0  0  0  0  3  0  0  0  0  0  0
   26.4950   29.9990   47.7700 C   0  0  0  0  0  3  0  0  0  0  0  0
   27.7380   29.8050   47.1530 C   0  0  0  0  0  3  0  0  0  0  0  0
   28.7250   29.0450   47.7260 C   0  0  0  0  0  3  0  0  0  0  0  0
   28.5090   28.4530   48.9330 C   0  0  0  0  0  0  0  0  0  0  0  0
  1  6  1  0  0  0  0
  2  3  1  0  0  0  0
  2  1  2  0  0  0  0
  3  4  2  0  0  0  0
  4  5  1  0  0  0  0
  5  7  1  0  0  0  0
  6  5  2  0  0  0  0
  7 17  1  0  0  0  0
  7  8  1  0  0  0  0
  8  9  2  0  0  0  0
 10 11  1  0  0  0  0
 10  9  1  0  0  0  0
 11 12  2  0  0  0  0
 13 20  1  0  0  0  0
 13 11  1  0  0  0  0
 14 13  1  0  0  0  0
 15 19  1  0  0  0  0
 15 14  1  0  0  0  0
 16 14  2  0  0  0  0
 16 17  1  0  0  0  0
 17 10  2  0  0  0  0
 18 15  1  0  0  0  0
 20 24  1  0  0  0  0
 21 20  2  0  0  0  0
 21 22  1  0  0  0  0
 22 23  1  0  0  0  0
 23 25  1  0  0  0  0
 24 23  2  0  0  0  0
 25 26  1  0  0  0  0
 26 27  2  0  0  0  0
 28 27  1  0  0  0  0
 29 28  2  0  0  0  0
 30 29  1  0  0  0  0
 31 30  2  0  0  0  0
 32 33  2  0  0  0  0
 32 31  1  0  0  0  0
 33 34  1  0  0  0  0
 34 25  2  0  0  0  0
 34 29  1  0  0  0  0
M  END
>  <minimizedAffinity>
-6.96345425

$$$$

 OpenBabel03272514383D

 34 39  0  0  0  0  0  0  0  0999 V2000
   28.7600   35.2970   41.3030 C   0  0  0  0  0  3  0  0  0  0  0  0
   29.5200   35.1080   40.1320 C   0  0  0  0  0  3  0  0  0  0  0  0
   30.2160   33.8940   40.0420 C   0  0  0  0  0  3  0  0  0  0  0  0
   30.1400   32.9790   41.0410 N   0  0  0  0  0  0  0  0  0  0  0  0
   29.3880   33.2160   42.1540 C   0  0  0  0  0  0  0  0  0  0  0  0
   28.7080   34.3650   42.2750 N   0  0  0  0  0  0  0  0  0  0  0  0
   29.2900   32.2820   43.2070 N   0  0  0  0  0  0  0  0  0  0  0  0
   28.0780   31.9020   43.6850 C   0  0  0  0  0  3  0  0  0  0  0  0
   28.2980   31.0020   44.6890 N   0  0  0  0  0  0  0  0  0  0  0  0
   29.6110   30.8130   44.8400 C   0  0  0  0  0  0  0  0  0  0  0  0
   30.4820   30.0630   45.6440 C   0  0  0  0  0  0  0  0  0  0  0  0
   29.9150   29.3310   46.4910 O   0  0  0  0  0  0  0  0  0  0  0  0
   31.8240   30.1530   45.4840 N   0  0  0  0  0  0  0  0  0  0  0  0
   32.3650   30.9500   44.5640 C   0  0  0  0  0  0  0  0  0  0  0  0
   33.7940   30.9170   44.5370 N   0  0  0  0  0  0  0  0  0  0  0  0
   31.5570   31.6900   43.7680 N   0  0  0  0  0  0  0  0  0  0  0  0
   30.2460   31.6230   43.9030 C   0  0  0  0  0  0  0  0  0  0  0  0
   34.3100   31.4980   43.8610 H   0  0  0  0  0  0  0  0  0  0  0  0
   34.3080   30.3120   45.1940 H   0  0  0  0  0  0  0  0  0  0  0  0
   32.6970   29.3590   46.3420 C   0  0  0  0  0  0  0  0  0  0  0  0
   32.7880   27.9680   46.2150 C   0  0  0  0  0  3  0  0  0  0  0  0
   34.0130   27.5410   47.5360 S   0  0  0  0  0  0  0  0  0  0  0  0
   34.1830   29.3510   48.0290 C   0  0  0  0  0  0  0  0  0  0  0  0
   33.4720   29.7990   47.2950 N   0  0  0  0  0  0  0  0  0  0  0  0
   35.1440   29.5820   49.1610 C   0  0  0  0  0  0  0  0  0  0  0  0
   34.9550   29.1380   50.3990 N   0  0  0  0  0  0  0  0  0  0  0  0
   35.8100   29.3420   51.4080 C   0  0  0  0  0  3  0  0  0  0  0  0
   36.9360   30.0380   51.1740 N   0  0  0  0  0  0  0  0  0  0  0  0
   37.1900   30.5150   49.9460 C   0  0  0  0  0  0  0  0  0  0  0  0
   38.3370   31.2340   49.6740 C   0  0  0  0  0  3  0  0  0  0  0  0
   38.6150   31.7360   48.4060 C   0  0  0  0  0  3  0  0  0  0  0  0
   37.6590   31.4700   47.4170 C   0  0  0  0  0  3  0  0  0  0  0  0
   36.5170   30.7570   47.6790 C   0  0  0  0  0  3  0  0  0  0  0  0
   36.2880   30.2850   48.9360 C   0  0  0  0  0  0  0  0  0  0  0  0
  1  6  1  0  0  0  0
  2  1  2  0  0  0  0
  3  2  1  0  0  0  0
  3  4  2  0  0  0  0
  4  5  1  0  0  0  0
  5  6  2  0  0  0  0
  5  7  1  0  0  0  0
  7  8  1  0  0  0  0
  7 17  1  0  0  0  0
  8  9  2  0  0  0  0
  9 10  1  0  0  0  0
 10 11  1  0  0  0  0
 11 12  2  0  0  0  0
 13 11  1  0  0  0  0
 13 20  1  0  0  0  0
 14 13  1  0  0  0  0
 15 14  1  0  0  0  0
 15 19  1  0  0  0  0
 16 17  1  0  0  0  0
 16 14  2  0  0  0  0
 17 10  2  0  0  0  0
 18 15  1  0  0  0  0
 20 24  1  0  0  0  0
 21 20  2  0  0  0  0
 21 22  1  0  0  0  0
 22 23  1  0  0  0  0
 23 25  1  0  0  0  0
 24 23  2  0  0  0  0
 25 26  1  0  0  0  0
 26 27  2  0  0  0  0
 28 27  1  0  0  0  0
 29 28  2  0  0  0  0
 30 29  1  0  0  0  0
 31 30  2  0  0  0  0
 32 33  2  0  0  0  0
 32 31  1  0  0  0  0
 33 34  1  0  0  0  0
 34 25  2  0  0  0  0
 34 29  1  0  0  0  0
M  END
>  <minimizedAffinity>
-6.93713427

$$$$
