
 OpenBabel03272514423D

 34 38  0  0  0  0  0  0  0  0999 V2000
   29.9900   27.9410   46.8180 C   0  0  0  0  0  0  0  0  0  0  0  0
   29.4450   27.9660   45.6020 N   0  0  0  0  0  0  0  0  0  0  0  0
   28.4860   28.8580   45.5910 O   0  0  0  0  0  0  0  0  0  0  0  0
   28.3580   29.4330   46.7440 C   0  0  0  0  0  0  0  0  0  0  0  0
   29.2880   28.8770   47.5260 N   0  0  0  0  0  0  0  0  0  0  0  0
   27.4380   30.4430   47.1270 N   0  0  0  0  0  0  0  0  0  0  0  0
   26.9090   30.6570   48.3420 C   0  0  0  0  0  3  0  0  0  0  0  0
   26.0770   31.7080   48.3190 N   0  0  0  0  0  0  0  0  0  0  0  0
   26.0590   32.1950   47.0510 C   0  0  0  0  0  0  0  0  0  0  0  0
   25.4290   33.2320   46.3780 C   0  0  0  0  0  0  0  0  0  0  0  0
   24.6490   33.9680   47.0290 O   0  0  0  0  0  0  0  0  0  0  0  0
   25.6860   33.3890   45.0720 N   0  0  0  0  0  0  0  0  0  0  0  0
   26.5150   32.6200   44.3450 C   0  0  0  0  0  0  0  0  0  0  0  0
   26.7540   32.8310   42.9580 N   0  0  0  0  0  0  0  0  0  0  0  0
   27.1280   31.6060   45.0180 N   0  0  0  0  0  0  0  0  0  0  0  0
   26.9150   31.3900   46.3280 C   0  0  0  0  0  0  0  0  0  0  0  0
   25.2090   34.1620   44.5850 H   0  0  0  0  0  0  0  0  0  0  0  0
   27.3990   32.2120   42.4470 H   0  0  0  0  0  0  0  0  0  0  0  0
   26.2810   33.6030   42.4660 H   0  0  0  0  0  0  0  0  0  0  0  0
   31.3050   26.9850   47.4930 S   0  0  0  0  0  0  0  0  0  0  0  0
   31.6320   25.8250   46.5870 O   0  0  0  0  0  0  0  0  0  0  0  0
   30.8970   26.5110   48.8470 O   0  0  0  0  0  0  0  0  0  0  0  0
   32.6670   28.0600   47.6290 C   0  0  0  0  0  0  0  0  0  0  0  0
   33.5510   27.8370   48.6590 C   0  0  0  0  0  3  0  0  0  0  0  0
   34.6520   28.6930   48.7810 C   0  0  0  0  0  3  0  0  0  0  0  0
   34.8740   29.7470   47.9030 C   0  0  0  0  0  0  0  0  0  0  0  0
   33.9790   29.9710   46.8660 C   0  0  0  0  0  3  0  0  0  0  0  0
   32.9080   29.1130   46.7730 C   0  0  0  0  0  3  0  0  0  0  0  0
   37.0010   30.9080   47.1920 C   0  0  0  0  0  3  0  0  0  0  0  0
   36.0450   30.5600   48.1350 C   0  0  0  0  0  0  0  0  0  0  0  0
   36.2420   31.0500   49.4540 C   0  0  0  0  0  3  0  0  0  0  0  0
   37.3400   31.8210   49.7040 N   0  0  0  0  0  0  0  0  0  0  0  0
   38.2480   32.1280   48.7210 C   0  0  0  0  0  3  0  0  0  0  0  0
   38.0630   31.6570   47.4480 N   0  0  0  0  0  0  0  0  0  0  0  0
  1 20  1  0  0  0  0
  1  5  1  0  0  0  0
  2  1  2  0  0  0  0
  3  2  1  0  0  0  0
  3  4  1  0  0  0  0
  4  6  1  0  0  0  0
  4  5  2  0  0  0  0
  6  7  1  0  0  0  0
  8  7  2  0  0  0  0
  9  8  1  0  0  0  0
 10 11  2  0  0  0  0
 10  9  1  0  0  0  0
 12 10  1  0  0  0  0
 13 15  2  0  0  0  0
 13 12  1  0  0  0  0
 14 13  1  0  0  0  0
 15 16  1  0  0  0  0
 16  9  2  0  0  0  0
 16  6  1  0  0  0  0
 17 12  1  0  0  0  0
 18 14  1  0  0  0  0
 19 14  1  0  0  0  0
 20 23  1  0  0  0  0
 20 22  2  0  0  0  0
 21 20  2  0  0  0  0
 23 24  1  0  0  0  0
 24 25  2  0  0  0  0
 26 30  1  0  0  0  0
 26 25  1  0  0  0  0
 27 26  2  0  0  0  0
 28 27  1  0  0  0  0
 28 23  2  0  0  0  0
 29 34  2  0  0  0  0
 29 30  1  0  0  0  0
 30 31  2  0  0  0  0
 31 32  1  0  0  0  0
 33 32  2  0  0  0  0
 34 33  1  0  0  0  0
M  END
>  <minimizedAffinity>
-7.89589024

$$$$

 OpenBabel03272514423D

 34 38  0  0  0  0  0  0  0  0999 V2000
   31.0430   29.1360   45.0460 C   0  0  0  0  0  0  0  0  0  0  0  0
   30.2810   30.1410   44.6180 N   0  0  0  0  0  0  0  0  0  0  0  0
   29.1500   30.1210   45.2790 O   0  0  0  0  0  0  0  0  0  0  0  0
   29.1150   29.1460   46.1310 C   0  0  0  0  0  0  0  0  0  0  0  0
   30.2880   28.5180   46.0050 N   0  0  0  0  0  0  0  0  0  0  0  0
   28.0710   28.7960   47.0250 N   0  0  0  0  0  0  0  0  0  0  0  0
   27.7540   27.5750   47.4840 C   0  0  0  0  0  3  0  0  0  0  0  0
   26.7040   27.6360   48.3130 N   0  0  0  0  0  0  0  0  0  0  0  0
   26.3190   28.9350   48.4000 C   0  0  0  0  0  0  0  0  0  0  0  0
   25.3350   29.6540   49.0650 C   0  0  0  0  0  0  0  0  0  0  0  0
   24.5430   29.0220   49.8040 O   0  0  0  0  0  0  0  0  0  0  0  0
   25.2850   30.9810   48.8790 N   0  0  0  0  0  0  0  0  0  0  0  0
   26.1170   31.6880   48.0950 C   0  0  0  0  0  0  0  0  0  0  0  0
   26.0200   33.0990   47.9340 N   0  0  0  0  0  0  0  0  0  0  0  0
   27.0780   30.9710   47.4490 N   0  0  0  0  0  0  0  0  0  0  0  0
   27.1860   29.6380   47.5890 C   0  0  0  0  0  0  0  0  0  0  0  0
   24.5480   31.5010   49.3780 H   0  0  0  0  0  0  0  0  0  0  0  0
   26.6830   33.5930   47.3210 H   0  0  0  0  0  0  0  0  0  0  0  0
   25.2860   33.6250   48.4310 H   0  0  0  0  0  0  0  0  0  0  0  0
   32.6570   28.6090   44.5820 S   0  0  0  0  0  0  0  0  0  0  0  0
   33.1540   29.4090   43.4040 O   0  0  0  0  0  0  0  0  0  0  0  0
   32.6050   27.1540   44.2600 O   0  0  0  0  0  0  0  0  0  0  0  0
   33.6710   28.8710   45.9720 C   0  0  0  0  0  0  0  0  0  0  0  0
   34.5930   29.8910   45.9020 C   0  0  0  0  0  3  0  0  0  0  0  0
   35.4160   30.1140   47.0120 C   0  0  0  0  0  3  0  0  0  0  0  0
   35.3300   29.3460   48.1670 C   0  0  0  0  0  0  0  0  0  0  0  0
   34.4000   28.3170   48.2340 C   0  0  0  0  0  3  0  0  0  0  0  0
   33.6070   28.1230   47.1280 C   0  0  0  0  0  3  0  0  0  0  0  0
   37.4640   30.3040   49.1160 C   0  0  0  0  0  3  0  0  0  0  0  0
   36.2340   29.6740   49.2430 C   0  0  0  0  0  0  0  0  0  0  0  0
   35.8320   29.3190   50.5590 C   0  0  0  0  0  3  0  0  0  0  0  0
   36.6660   29.6180   51.5970 N   0  0  0  0  0  0  0  0  0  0  0  0
   37.8720   30.2440   51.4000 C   0  0  0  0  0  3  0  0  0  0  0  0
   38.2650   30.5870   50.1330 N   0  0  0  0  0  0  0  0  0  0  0  0
  1  5  1  0  0  0  0
  2  1  2  0  0  0  0
  2  3  1  0  0  0  0
  3  4  1  0  0  0  0
  4  6  1  0  0  0  0
  5  4  2  0  0  0  0
  6  7  1  0  0  0  0
  6 16  1  0  0  0  0
  7  8  2  0  0  0  0
  8  9  1  0  0  0  0
  9 10  1  0  0  0  0
 10 11  2  0  0  0  0
 12 10  1  0  0  0  0
 12 17  1  0  0  0  0
 13 12  1  0  0  0  0
 14 13  1  0  0  0  0
 14 19  1  0  0  0  0
 15 16  1  0  0  0  0
 15 13  2  0  0  0  0
 16  9  2  0  0  0  0
 18 14  1  0  0  0  0
 20  1  1  0  0  0  0
 20 23  1  0  0  0  0
 21 20  2  0  0  0  0
 22 20  2  0  0  0  0
 23 28  1  0  0  0  0
 24 23  2  0  0  0  0
 24 25  1  0  0  0  0
 25 26  2  0  0  0  0
 26 27  1  0  0  0  0
 26 30  1  0  0  0  0
 28 27  2  0  0  0  0
 29 30  2  0  0  0  0
 29 34  1  0  0  0  0
 30 31  1  0  0  0  0
 31 32  2  0  0  0  0
 33 32  1  0  0  0  0
 34 33  2  0  0  0  0
M  END
>  <minimizedAffinity>
-7.8652339

$$$$

 OpenBabel03272514423D

 34 38  0  0  0  0  0  0  0  0999 V2000
   29.7090   27.4610   47.6830 C   0  0  0  0  0  0  0  0  0  0  0  0
   30.4660   26.8720   48.6080 N   0  0  0  0  0  0  0  0  0  0  0  0
   31.6900   27.3260   48.4990 O   0  0  0  0  0  0  0  0  0  0  0  0
   31.7930   28.1910   47.5410 C   0  0  0  0  0  0  0  0  0  0  0  0
   30.5670   28.2930   47.0180 N   0  0  0  0  0  0  0  0  0  0  0  0
   32.9450   28.9000   47.1150 N   0  0  0  0  0  0  0  0  0  0  0  0
   33.2330   29.3380   45.8790 C   0  0  0  0  0  3  0  0  0  0  0  0
   34.4150   29.9680   45.8620 N   0  0  0  0  0  0  0  0  0  0  0  0
   34.9180   29.9420   47.1230 C   0  0  0  0  0  0  0  0  0  0  0  0
   36.0610   30.4000   47.7630 C   0  0  0  0  0  0  0  0  0  0  0  0
   36.9150   31.0100   47.0770 O   0  0  0  0  0  0  0  0  0  0  0  0
   36.1900   30.1630   49.0770 N   0  0  0  0  0  0  0  0  0  0  0  0
   35.2950   29.5130   49.8410 C   0  0  0  0  0  0  0  0  0  0  0  0
   35.4810   29.2900   51.2340 N   0  0  0  0  0  0  0  0  0  0  0  0
   34.1780   29.0700   49.2010 N   0  0  0  0  0  0  0  0  0  0  0  0
   33.9840   29.2710   47.8850 C   0  0  0  0  0  0  0  0  0  0  0  0
   37.0450   30.5080   49.5380 H   0  0  0  0  0  0  0  0  0  0  0  0
   34.7650   28.7860   51.7740 H   0  0  0  0  0  0  0  0  0  0  0  0
   36.3340   29.6330   51.7010 H   0  0  0  0  0  0  0  0  0  0  0  0
   27.9990   27.3050   47.2940 S   0  0  0  0  0  0  0  0  0  0  0  0
   27.2760   26.5620   48.3890 O   0  0  0  0  0  0  0  0  0  0  0  0
   27.8750   26.5940   45.9890 O   0  0  0  0  0  0  0  0  0  0  0  0
   27.3850   28.9260   47.1450 C   0  0  0  0  0  0  0  0  0  0  0  0
   27.2720   29.4480   45.8770 C   0  0  0  0  0  3  0  0  0  0  0  0
   26.7790   30.7510   45.7400 C   0  0  0  0  0  3  0  0  0  0  0  0
   26.4060   31.5220   46.8350 C   0  0  0  0  0  0  0  0  0  0  0  0
   26.5220   30.9930   48.1130 C   0  0  0  0  0  3  0  0  0  0  0  0
   27.0090   29.7110   48.2140 C   0  0  0  0  0  3  0  0  0  0  0  0
   25.7590   33.8730   47.4900 C   0  0  0  0  0  3  0  0  0  0  0  0
   25.9130   32.8520   46.5640 C   0  0  0  0  0  0  0  0  0  0  0  0
   25.5480   33.1460   45.2230 C   0  0  0  0  0  3  0  0  0  0  0  0
   25.0790   34.3950   44.9350 N   0  0  0  0  0  0  0  0  0  0  0  0
   24.9520   35.3620   45.9030 C   0  0  0  0  0  3  0  0  0  0  0  0
   25.3020   35.0820   47.1980 N   0  0  0  0  0  0  0  0  0  0  0  0
  1  2  2  0  0  0  0
  3  2  1  0  0  0  0
  4  3  1  0  0  0  0
  5  4  2  0  0  0  0
  5  1  1  0  0  0  0
  6  4  1  0  0  0  0
  6 16  1  0  0  0  0
  7  6  1  0  0  0  0
  8  7  2  0  0  0  0
  8  9  1  0  0  0  0
  9 10  1  0  0  0  0
  9 16  2  0  0  0  0
 10 12  1  0  0  0  0
 11 10  2  0  0  0  0
 12 17  1  0  0  0  0
 12 13  1  0  0  0  0
 13 14  1  0  0  0  0
 14 19  1  0  0  0  0
 14 18  1  0  0  0  0
 15 13  2  0  0  0  0
 16 15  1  0  0  0  0
 20  1  1  0  0  0  0
 20 21  2  0  0  0  0
 22 20  2  0  0  0  0
 23 20  1  0  0  0  0
 23 28  1  0  0  0  0
 24 23  2  0  0  0  0
 25 24  1  0  0  0  0
 25 26  2  0  0  0  0
 26 27  1  0  0  0  0
 27 28  2  0  0  0  0
 30 26  1  0  0  0  0
 30 29  2  0  0  0  0
 31 30  1  0  0  0  0
 32 31  2  0  0  0  0
 32 33  1  0  0  0  0
 33 34  2  0  0  0  0
 34 29  1  0  0  0  0
M  END
>  <minimizedAffinity>
-7.46829367

$$$$

 OpenBabel03272514423D

 34 38  0  0  0  0  0  0  0  0999 V2000
   32.4320   29.2300   46.0820 C   0  0  0  0  0  0  0  0  0  0  0  0
   33.2410   30.2290   45.7320 N   0  0  0  0  0  0  0  0  0  0  0  0
   34.0840   30.4470   46.7110 O   0  0  0  0  0  0  0  0  0  0  0  0
   33.8770   29.6430   47.7040 C   0  0  0  0  0  0  0  0  0  0  0  0
   32.8510   28.8720   47.3330 N   0  0  0  0  0  0  0  0  0  0  0  0
   34.5760   29.5680   48.9370 N   0  0  0  0  0  0  0  0  0  0  0  0
   34.0990   29.1890   50.1330 C   0  0  0  0  0  3  0  0  0  0  0  0
   35.0580   29.2460   51.0660 N   0  0  0  0  0  0  0  0  0  0  0  0
   36.1970   29.6770   50.4660 C   0  0  0  0  0  0  0  0  0  0  0  0
   37.5040   29.9430   50.8530 C   0  0  0  0  0  0  0  0  0  0  0  0
   37.8070   29.7700   52.0570 O   0  0  0  0  0  0  0  0  0  0  0  0
   38.3660   30.3710   49.9200 N   0  0  0  0  0  0  0  0  0  0  0  0
   38.0740   30.5670   48.6220 C   0  0  0  0  0  0  0  0  0  0  0  0
   39.0300   31.0220   47.6720 N   0  0  0  0  0  0  0  0  0  0  0  0
   36.7890   30.3020   48.2560 N   0  0  0  0  0  0  0  0  0  0  0  0
   35.8710   29.8710   49.1390 C   0  0  0  0  0  0  0  0  0  0  0  0
   39.3320   30.5660   50.2220 H   0  0  0  0  0  0  0  0  0  0  0  0
   38.7540   31.1570   46.6890 H   0  0  0  0  0  0  0  0  0  0  0  0
   39.9970   31.2180   47.9670 H   0  0  0  0  0  0  0  0  0  0  0  0
   31.0980   28.4510   45.2350 S   0  0  0  0  0  0  0  0  0  0  0  0
   30.7690   27.1270   45.8770 O   0  0  0  0  0  0  0  0  0  0  0  0
   31.4860   28.2750   43.8060 O   0  0  0  0  0  0  0  0  0  0  0  0
   29.7470   29.5410   45.3520 C   0  0  0  0  0  0  0  0  0  0  0  0
   29.8230   30.7230   44.6500 C   0  0  0  0  0  3  0  0  0  0  0  0
   28.7440   31.6110   44.7340 C   0  0  0  0  0  3  0  0  0  0  0  0
   27.6130   31.3360   45.4950 C   0  0  0  0  0  0  0  0  0  0  0  0
   27.5410   30.1440   46.2030 C   0  0  0  0  0  3  0  0  0  0  0  0
   28.6160   29.2930   46.1000 C   0  0  0  0  0  3  0  0  0  0  0  0
   25.9900   32.9190   44.3850 C   0  0  0  0  0  3  0  0  0  0  0  0
   26.5680   32.3310   45.5010 C   0  0  0  0  0  0  0  0  0  0  0  0
   26.0830   32.7540   46.7680 C   0  0  0  0  0  3  0  0  0  0  0  0
   25.0940   33.6940   46.8060 N   0  0  0  0  0  0  0  0  0  0  0  0
   24.5660   34.2360   45.6590 C   0  0  0  0  0  3  0  0  0  0  0  0
   25.0310   33.8320   44.4360 N   0  0  0  0  0  0  0  0  0  0  0  0
  1  5  1  0  0  0  0
  2  1  2  0  0  0  0
  2  3  1  0  0  0  0
  3  4  1  0  0  0  0
  4  6  1  0  0  0  0
  5  4  2  0  0  0  0
  6 16  1  0  0  0  0
  6  7  1  0  0  0  0
  7  8  2  0  0  0  0
  9 10  1  0  0  0  0
  9  8  1  0  0  0  0
 10 11  2  0  0  0  0
 12 17  1  0  0  0  0
 12 10  1  0  0  0  0
 13 12  1  0  0  0  0
 14 19  1  0  0  0  0
 14 13  1  0  0  0  0
 15 13  2  0  0  0  0
 15 16  1  0  0  0  0
 16  9  2  0  0  0  0
 18 14  1  0  0  0  0
 20 23  1  0  0  0  0
 20 21  2  0  0  0  0
 20  1  1  0  0  0  0
 22 20  2  0  0  0  0
 23 28  1  0  0  0  0
 24 25  1  0  0  0  0
 24 23  2  0  0  0  0
 25 26  2  0  0  0  0
 26 30  1  0  0  0  0
 26 27  1  0  0  0  0
 28 27  2  0  0  0  0
 29 34  2  0  0  0  0
 29 30  1  0  0  0  0
 30 31  2  0  0  0  0
 31 32  1  0  0  0  0
 33 32  2  0  0  0  0
 34 33  1  0  0  0  0
M  END
>  <minimizedAffinity>
-7.37460423

$$$$

 OpenBabel03272514423D

 34 38  0  0  0  0  0  0  0  0999 V2000
   29.9990   27.2750   47.8850 C   0  0  0  0  0  0  0  0  0  0  0  0
   30.8330   26.7240   48.7670 N   0  0  0  0  0  0  0  0  0  0  0  0
   32.0270   27.2340   48.5890 O   0  0  0  0  0  0  0  0  0  0  0  0
   32.0360   28.1000   47.6260 C   0  0  0  0  0  0  0  0  0  0  0  0
   30.7800   28.1430   47.1730 N   0  0  0  0  0  0  0  0  0  0  0  0
   33.1290   28.8590   47.1360 N   0  0  0  0  0  0  0  0  0  0  0  0
   33.3270   29.3050   45.8850 C   0  0  0  0  0  3  0  0  0  0  0  0
   34.4760   29.9900   45.8010 N   0  0  0  0  0  0  0  0  0  0  0  0
   35.0490   29.9910   47.0330 C   0  0  0  0  0  0  0  0  0  0  0  0
   36.2040   30.5040   47.6070 C   0  0  0  0  0  0  0  0  0  0  0  0
   36.9890   31.1500   46.8740 O   0  0  0  0  0  0  0  0  0  0  0  0
   36.4170   30.2780   48.9120 N   0  0  0  0  0  0  0  0  0  0  0  0
   35.5970   29.5900   49.7250 C   0  0  0  0  0  0  0  0  0  0  0  0
   35.8700   29.3800   51.1060 N   0  0  0  0  0  0  0  0  0  0  0  0
   34.4670   29.0930   49.1490 N   0  0  0  0  0  0  0  0  0  0  0  0
   34.1900   29.2810   47.8460 C   0  0  0  0  0  0  0  0  0  0  0  0
   37.2790   30.6630   49.3240 H   0  0  0  0  0  0  0  0  0  0  0  0
   35.2090   28.8460   51.6860 H   0  0  0  0  0  0  0  0  0  0  0  0
   36.7310   29.7640   51.5240 H   0  0  0  0  0  0  0  0  0  0  0  0
   28.2800   27.0380   47.5920 S   0  0  0  0  0  0  0  0  0  0  0  0
   27.5840   26.6090   48.8600 O   0  0  0  0  0  0  0  0  0  0  0  0
   28.1200   26.0150   46.5190 O   0  0  0  0  0  0  0  0  0  0  0  0
   27.6650   28.5710   47.0450 C   0  0  0  0  0  0  0  0  0  0  0  0
   27.4160   28.7110   45.6990 C   0  0  0  0  0  3  0  0  0  0  0  0
   26.9210   29.9380   45.2430 C   0  0  0  0  0  3  0  0  0  0  0  0
   26.6770   31.0050   46.1000 C   0  0  0  0  0  0  0  0  0  0  0  0
   26.9300   30.8610   47.4570 C   0  0  0  0  0  3  0  0  0  0  0  0
   27.4160   29.6440   47.8730 C   0  0  0  0  0  3  0  0  0  0  0  0
   26.2330   32.5670   44.1660 C   0  0  0  0  0  3  0  0  0  0  0  0
   26.1670   32.2190   45.5080 C   0  0  0  0  0  0  0  0  0  0  0  0
   25.5400   33.1500   46.3780 C   0  0  0  0  0  3  0  0  0  0  0  0
   25.0480   34.3070   45.8480 N   0  0  0  0  0  0  0  0  0  0  0  0
   25.1460   34.5890   44.5070 C   0  0  0  0  0  3  0  0  0  0  0  0
   25.7510   33.6950   43.6640 N   0  0  0  0  0  0  0  0  0  0  0  0
  1  2  2  0  0  0  0
  3  2  1  0  0  0  0
  4  3  1  0  0  0  0
  5  4  2  0  0  0  0
  5  1  1  0  0  0  0
  6  4  1  0  0  0  0
  6 16  1  0  0  0  0
  7  6  1  0  0  0  0
  8  7  2  0  0  0  0
  8  9  1  0  0  0  0
  9 10  1  0  0  0  0
  9 16  2  0  0  0  0
 10 12  1  0  0  0  0
 11 10  2  0  0  0  0
 12 17  1  0  0  0  0
 12 13  1  0  0  0  0
 13 14  1  0  0  0  0
 14 19  1  0  0  0  0
 14 18  1  0  0  0  0
 15 13  2  0  0  0  0
 16 15  1  0  0  0  0
 20  1  1  0  0  0  0
 20 21  2  0  0  0  0
 22 20  2  0  0  0  0
 23 20  1  0  0  0  0
 23 28  1  0  0  0  0
 24 23  2  0  0  0  0
 25 24  1  0  0  0  0
 25 26  2  0  0  0  0
 26 27  1  0  0  0  0
 27 28  2  0  0  0  0
 29 30  1  0  0  0  0
 30 26  1  0  0  0  0
 30 31  2  0  0  0  0
 32 31  1  0  0  0  0
 33 32  2  0  0  0  0
 34 29  2  0  0  0  0
 34 33  1  0  0  0  0
M  END
>  <minimizedAffinity>
-7.04072142

$$$$

 OpenBabel03272514423D

 34 38  0  0  0  0  0  0  0  0999 V2000
   28.0930   28.1160   45.1690 C   0  0  0  0  0  0  0  0  0  0  0  0
   27.2190   28.4380   44.2160 N   0  0  0  0  0  0  0  0  0  0  0  0
   26.5950   29.5330   44.5730 O   0  0  0  0  0  0  0  0  0  0  0  0
   27.0070   29.9620   45.7240 C   0  0  0  0  0  0  0  0  0  0  0  0
   27.9440   29.0930   46.1140 N   0  0  0  0  0  0  0  0  0  0  0  0
   26.5770   31.1080   46.4410 N   0  0  0  0  0  0  0  0  0  0  0  0
   26.5440   31.2820   47.7720 C   0  0  0  0  0  3  0  0  0  0  0  0
   26.0760   32.4980   48.0800 N   0  0  0  0  0  0  0  0  0  0  0  0
   25.7920   33.1410   46.9180 C   0  0  0  0  0  0  0  0  0  0  0  0
   25.2950   34.3830   46.5470 C   0  0  0  0  0  0  0  0  0  0  0  0
   25.0010   35.1940   47.4560 O   0  0  0  0  0  0  0  0  0  0  0  0
   25.1560   34.6440   45.2390 N   0  0  0  0  0  0  0  0  0  0  0  0
   25.4620   33.7980   44.2400 C   0  0  0  0  0  0  0  0  0  0  0  0
   25.2960   34.1280   42.8660 N   0  0  0  0  0  0  0  0  0  0  0  0
   25.9480   32.5840   44.6180 N   0  0  0  0  0  0  0  0  0  0  0  0
   26.1130   32.2530   45.9110 C   0  0  0  0  0  0  0  0  0  0  0  0
   24.7850   35.5700   44.9790 H   0  0  0  0  0  0  0  0  0  0  0  0
   25.5450   33.4430   42.1390 H   0  0  0  0  0  0  0  0  0  0  0  0
   24.9260   35.0520   42.5990 H   0  0  0  0  0  0  0  0  0  0  0  0
   29.2330   26.7820   45.3120 S   0  0  0  0  0  0  0  0  0  0  0  0
   29.5410   26.2050   43.9530 O   0  0  0  0  0  0  0  0  0  0  0  0
   28.6420   25.7500   46.2130 O   0  0  0  0  0  0  0  0  0  0  0  0
   30.6690   27.4460   46.0350 C   0  0  0  0  0  0  0  0  0  0  0  0
   31.2420   26.7430   47.0700 C   0  0  0  0  0  3  0  0  0  0  0  0
   32.3980   27.2640   47.6620 C   0  0  0  0  0  3  0  0  0  0  0  0
   32.9770   28.4550   47.2400 C   0  0  0  0  0  0  0  0  0  0  0  0
   32.3960   29.1630   46.1960 C   0  0  0  0  0  3  0  0  0  0  0  0
   31.2620   28.6250   45.6350 C   0  0  0  0  0  3  0  0  0  0  0  0
   34.6810   28.3430   49.1000 C   0  0  0  0  0  3  0  0  0  0  0  0
   34.1680   28.8880   47.9310 C   0  0  0  0  0  0  0  0  0  0  0  0
   34.8850   29.9760   47.3660 C   0  0  0  0  0  3  0  0  0  0  0  0
   36.0160   30.4080   47.9970 N   0  0  0  0  0  0  0  0  0  0  0  0
   36.4690   29.8220   49.1540 C   0  0  0  0  0  3  0  0  0  0  0  0
   35.7800   28.7730   49.7030 N   0  0  0  0  0  0  0  0  0  0  0  0
  1 20  1  0  0  0  0
  1  5  1  0  0  0  0
  2  3  1  0  0  0  0
  2  1  2  0  0  0  0
  3  4  1  0  0  0  0
  4  5  2  0  0  0  0
  4  6  1  0  0  0  0
  6  7  1  0  0  0  0
  7  8  2  0  0  0  0
  9  8  1  0  0  0  0
 10  9  1  0  0  0  0
 10 11  2  0  0  0  0
 12 10  1  0  0  0  0
 13 15  2  0  0  0  0
 13 12  1  0  0  0  0
 14 13  1  0  0  0  0
 15 16  1  0  0  0  0
 16  6  1  0  0  0  0
 16  9  2  0  0  0  0
 17 12  1  0  0  0  0
 18 14  1  0  0  0  0
 19 14  1  0  0  0  0
 20 23  1  0  0  0  0
 20 22  2  0  0  0  0
 21 20  2  0  0  0  0
 23 24  1  0  0  0  0
 24 25  2  0  0  0  0
 26 25  1  0  0  0  0
 26 30  1  0  0  0  0
 27 26  2  0  0  0  0
 28 23  2  0  0  0  0
 28 27  1  0  0  0  0
 29 34  1  0  0  0  0
 30 29  2  0  0  0  0
 31 30  1  0  0  0  0
 31 32  2  0  0  0  0
 32 33  1  0  0  0  0
 33 34  2  0  0  0  0
M  END
>  <minimizedAffinity>
-6.98760176

$$$$

 OpenBabel03272514423D

 34 38  0  0  0  0  0  0  0  0999 V2000
   32.0630   27.9620   47.7650 C   0  0  0  0  0  0  0  0  0  0  0  0
   32.8340   27.2430   48.5800 N   0  0  0  0  0  0  0  0  0  0  0  0
   34.0430   27.7480   48.5680 O   0  0  0  0  0  0  0  0  0  0  0  0
   34.1220   28.7720   47.7790 C   0  0  0  0  0  0  0  0  0  0  0  0
   32.8970   28.9260   47.2680 N   0  0  0  0  0  0  0  0  0  0  0  0
   35.2530   29.5820   47.4990 N   0  0  0  0  0  0  0  0  0  0  0  0
   35.5330   30.2400   46.3630 C   0  0  0  0  0  3  0  0  0  0  0  0
   36.6930   30.9020   46.4720 N   0  0  0  0  0  0  0  0  0  0  0  0
   37.1890   30.6690   47.7140 C   0  0  0  0  0  0  0  0  0  0  0  0
   38.3130   31.0430   48.4390 C   0  0  0  0  0  0  0  0  0  0  0  0
   39.1500   31.7910   47.8810 O   0  0  0  0  0  0  0  0  0  0  0  0
   38.4420   30.5810   49.6910 N   0  0  0  0  0  0  0  0  0  0  0  0
   37.5650   29.7780   50.3180 C   0  0  0  0  0  0  0  0  0  0  0  0
   37.7500   29.3180   51.6510 N   0  0  0  0  0  0  0  0  0  0  0  0
   36.4670   29.4190   49.5960 N   0  0  0  0  0  0  0  0  0  0  0  0
   36.2730   29.8440   48.3350 C   0  0  0  0  0  0  0  0  0  0  0  0
   39.2820   30.8660   50.2160 H   0  0  0  0  0  0  0  0  0  0  0  0
   37.0470   28.7030   52.0860 H   0  0  0  0  0  0  0  0  0  0  0  0
   38.5870   29.5990   52.1820 H   0  0  0  0  0  0  0  0  0  0  0  0
   30.3620   27.8220   47.3350 S   0  0  0  0  0  0  0  0  0  0  0  0
   29.4960   27.9420   48.5630 O   0  0  0  0  0  0  0  0  0  0  0  0
   30.1540   26.5100   46.6560 O   0  0  0  0  0  0  0  0  0  0  0  0
   30.0340   29.1210   46.2250 C   0  0  0  0  0  0  0  0  0  0  0  0
   28.7850   29.6970   46.2730 C   0  0  0  0  0  3  0  0  0  0  0  0
   28.5050   30.7440   45.3870 C   0  0  0  0  0  3  0  0  0  0  0  0
   29.4410   31.2120   44.4720 C   0  0  0  0  0  0  0  0  0  0  0  0
   30.7000   30.6280   44.4240 C   0  0  0  0  0  3  0  0  0  0  0  0
   30.9430   29.6030   45.3080 C   0  0  0  0  0  3  0  0  0  0  0  0
   29.8690   33.2280   43.0120 C   0  0  0  0  0  3  0  0  0  0  0  0
   29.0320   32.2960   43.6110 C   0  0  0  0  0  0  0  0  0  0  0  0
   27.6420   32.4270   43.3490 C   0  0  0  0  0  3  0  0  0  0  0  0
   27.2250   33.4420   42.5390 N   0  0  0  0  0  0  0  0  0  0  0  0
   28.1090   34.3310   41.9780 C   0  0  0  0  0  3  0  0  0  0  0  0
   29.4500   34.2100   42.2270 N   0  0  0  0  0  0  0  0  0  0  0  0
  1  2  2  0  0  0  0
  3  2  1  0  0  0  0
  4  3  1  0  0  0  0
  5  1  1  0  0  0  0
  5  4  2  0  0  0  0
  6  4  1  0  0  0  0
  6 16  1  0  0  0  0
  7  8  2  0  0  0  0
  7  6  1  0  0  0  0
  8  9  1  0  0  0  0
  9 16  2  0  0  0  0
  9 10  1  0  0  0  0
 10 12  1  0  0  0  0
 11 10  2  0  0  0  0
 12 17  1  0  0  0  0
 12 13  1  0  0  0  0
 13 14  1  0  0  0  0
 14 18  1  0  0  0  0
 14 19  1  0  0  0  0
 15 13  2  0  0  0  0
 16 15  1  0  0  0  0
 20  1  1  0  0  0  0
 20 21  2  0  0  0  0
 22 20  2  0  0  0  0
 23 24  1  0  0  0  0
 23 20  1  0  0  0  0
 25 24  2  0  0  0  0
 26 25  1  0  0  0  0
 27 26  2  0  0  0  0
 27 28  1  0  0  0  0
 28 23  2  0  0  0  0
 29 30  1  0  0  0  0
 30 26  1  0  0  0  0
 31 30  2  0  0  0  0
 32 31  1  0  0  0  0
 33 34  1  0  0  0  0
 33 32  2  0  0  0  0
 34 29  2  0  0  0  0
M  END
>  <minimizedAffinity>
-6.61140966

$$$$

 OpenBabel03272514423D

 34 38  0  0  0  0  0  0  0  0999 V2000
   30.4570   28.6500   45.6770 C   0  0  0  0  0  0  0  0  0  0  0  0
   30.4360   29.9450   45.9890 N   0  0  0  0  0  0  0  0  0  0  0  0
   29.5800   30.5510   45.2040 O   0  0  0  0  0  0  0  0  0  0  0  0
   29.0260   29.7240   44.3750 C   0  0  0  0  0  0  0  0  0  0  0  0
   29.5580   28.5300   44.6530 N   0  0  0  0  0  0  0  0  0  0  0  0
   28.0570   29.9950   43.3760 N   0  0  0  0  0  0  0  0  0  0  0  0
   27.8790   29.3610   42.2060 C   0  0  0  0  0  3  0  0  0  0  0  0
   26.8610   29.9000   41.5230 N   0  0  0  0  0  0  0  0  0  0  0  0
   26.3560   30.9190   42.2660 C   0  0  0  0  0  0  0  0  0  0  0  0
   25.3340   31.8490   42.1400 C   0  0  0  0  0  0  0  0  0  0  0  0
   24.6370   31.8200   41.0980 O   0  0  0  0  0  0  0  0  0  0  0  0
   25.1490   32.7270   43.1360 N   0  0  0  0  0  0  0  0  0  0  0  0
   25.8760   32.7850   44.2660 C   0  0  0  0  0  0  0  0  0  0  0  0
   25.6370   33.7380   45.2940 N   0  0  0  0  0  0  0  0  0  0  0  0
   26.8760   31.8670   44.3760 N   0  0  0  0  0  0  0  0  0  0  0  0
   27.1180   30.9580   43.4150 C   0  0  0  0  0  0  0  0  0  0  0  0
   24.3870   33.4120   43.0280 H   0  0  0  0  0  0  0  0  0  0  0  0
   26.2240   33.7410   46.1410 H   0  0  0  0  0  0  0  0  0  0  0  0
   24.8760   34.4260   45.1930 H   0  0  0  0  0  0  0  0  0  0  0  0
   31.3730   27.3000   46.3390 S   0  0  0  0  0  0  0  0  0  0  0  0
   31.8780   26.4120   45.2300 O   0  0  0  0  0  0  0  0  0  0  0  0
   30.4910   26.5440   47.2730 O   0  0  0  0  0  0  0  0  0  0  0  0
   32.7030   28.0000   47.2160 C   0  0  0  0  0  0  0  0  0  0  0  0
   33.6320   28.7160   46.4960 C   0  0  0  0  0  3  0  0  0  0  0  0
   34.7070   29.2860   47.1870 C   0  0  0  0  0  3  0  0  0  0  0  0
   34.8600   29.1520   48.5620 C   0  0  0  0  0  0  0  0  0  0  0  0
   33.9230   28.4290   49.2860 C   0  0  0  0  0  3  0  0  0  0  0  0
   32.8780   27.8810   48.5780 C   0  0  0  0  0  3  0  0  0  0  0  0
   36.3600   29.7550   50.5020 C   0  0  0  0  0  3  0  0  0  0  0  0
   36.0120   29.7850   49.1590 C   0  0  0  0  0  0  0  0  0  0  0  0
   36.8730   30.5120   48.2940 C   0  0  0  0  0  3  0  0  0  0  0  0
   37.9710   31.1210   48.8290 N   0  0  0  0  0  0  0  0  0  0  0  0
   38.2560   31.0510   50.1710 C   0  0  0  0  0  3  0  0  0  0  0  0
   37.4290   30.3530   51.0100 N   0  0  0  0  0  0  0  0  0  0  0  0
  1  2  2  0  0  0  0
  1 20  1  0  0  0  0
  3  2  1  0  0  0  0
  4  5  2  0  0  0  0
  4  3  1  0  0  0  0
  5  1  1  0  0  0  0
  6 16  1  0  0  0  0
  6  4  1  0  0  0  0
  7  6  1  0  0  0  0
  8  7  2  0  0  0  0
  8  9  1  0  0  0  0
  9 16  2  0  0  0  0
 10  9  1  0  0  0  0
 10 12  1  0  0  0  0
 11 10  2  0  0  0  0
 12 13  1  0  0  0  0
 13 15  2  0  0  0  0
 13 14  1  0  0  0  0
 14 18  1  0  0  0  0
 16 15  1  0  0  0  0
 17 12  1  0  0  0  0
 19 14  1  0  0  0  0
 20 23  1  0  0  0  0
 20 22  2  0  0  0  0
 21 20  2  0  0  0  0
 23 28  1  0  0  0  0
 24 25  1  0  0  0  0
 24 23  2  0  0  0  0
 25 26  2  0  0  0  0
 26 30  1  0  0  0  0
 26 27  1  0  0  0  0
 28 27  2  0  0  0  0
 29 34  1  0  0  0  0
 30 29  2  0  0  0  0
 31 32  2  0  0  0  0
 31 30  1  0  0  0  0
 32 33  1  0  0  0  0
 33 34  2  0  0  0  0
M  END
>  <minimizedAffinity>
-6.53691196

$$$$

 OpenBabel03272514423D

 34 38  0  0  0  0  0  0  0  0999 V2000
   30.7260   28.0970   46.8720 C   0  0  0  0  0  0  0  0  0  0  0  0
   30.6600   29.3190   46.3470 N   0  0  0  0  0  0  0  0  0  0  0  0
   29.7870   29.3090   45.3700 O   0  0  0  0  0  0  0  0  0  0  0  0
   29.2650   28.1340   45.2110 C   0  0  0  0  0  0  0  0  0  0  0  0
   29.8360   27.3610   46.1400 N   0  0  0  0  0  0  0  0  0  0  0  0
   28.2910   27.7240   44.2650 N   0  0  0  0  0  0  0  0  0  0  0  0
   28.1400   26.5100   43.7120 C   0  0  0  0  0  3  0  0  0  0  0  0
   27.1070   26.5020   42.8600 N   0  0  0  0  0  0  0  0  0  0  0  0
   26.5650   27.7470   42.8520 C   0  0  0  0  0  0  0  0  0  0  0  0
   25.5120   28.3860   42.2110 C   0  0  0  0  0  0  0  0  0  0  0  0
   24.8210   27.7180   41.4060 O   0  0  0  0  0  0  0  0  0  0  0  0
   25.2940   29.6800   42.4870 N   0  0  0  0  0  0  0  0  0  0  0  0
   26.0140   30.4240   43.3430 C   0  0  0  0  0  0  0  0  0  0  0  0
   25.7390   31.7960   43.6000 N   0  0  0  0  0  0  0  0  0  0  0  0
   27.0440   29.7860   43.9650 N   0  0  0  0  0  0  0  0  0  0  0  0
   27.3210   28.4900   43.7360 C   0  0  0  0  0  0  0  0  0  0  0  0
   24.5100   30.1410   42.0020 H   0  0  0  0  0  0  0  0  0  0  0  0
   26.3220   32.3230   44.2660 H   0  0  0  0  0  0  0  0  0  0  0  0
   24.9550   32.2630   43.1190 H   0  0  0  0  0  0  0  0  0  0  0  0
   31.6850   27.4410   48.1950 S   0  0  0  0  0  0  0  0  0  0  0  0
   32.0430   26.0020   47.9230 O   0  0  0  0  0  0  0  0  0  0  0  0
   30.8990   27.5700   49.4560 O   0  0  0  0  0  0  0  0  0  0  0  0
   33.1190   28.4220   48.2880 C   0  0  0  0  0  0  0  0  0  0  0  0
   33.6270   28.9160   47.1090 C   0  0  0  0  0  3  0  0  0  0  0  0
   34.7800   29.7080   47.1670 C   0  0  0  0  0  3  0  0  0  0  0  0
   35.4170   30.0050   48.3660 C   0  0  0  0  0  0  0  0  0  0  0  0
   34.9020   29.5050   49.5540 C   0  0  0  0  0  3  0  0  0  0  0  0
   33.7690   28.7310   49.4640 C   0  0  0  0  0  3  0  0  0  0  0  0
   37.4500   30.9510   47.2060 C   0  0  0  0  0  3  0  0  0  0  0  0
   36.5990   30.8320   48.2950 C   0  0  0  0  0  0  0  0  0  0  0  0
   36.9250   31.5950   49.4470 C   0  0  0  0  0  3  0  0  0  0  0  0
   38.0370   32.3870   49.4100 N   0  0  0  0  0  0  0  0  0  0  0  0
   38.8380   32.4580   48.2960 C   0  0  0  0  0  3  0  0  0  0  0  0
   38.5270   31.7230   47.1830 N   0  0  0  0  0  0  0  0  0  0  0  0
  1 20  1  0  0  0  0
  2  1  2  0  0  0  0
  3  2  1  0  0  0  0
  4  3  1  0  0  0  0
  4  5  2  0  0  0  0
  5  1  1  0  0  0  0
  6  4  1  0  0  0  0
  7  6  1  0  0  0  0
  8  7  2  0  0  0  0
  9  8  1  0  0  0  0
  9 16  2  0  0  0  0
 10 12  1  0  0  0  0
 10  9  1  0  0  0  0
 11 10  2  0  0  0  0
 12 13  1  0  0  0  0
 13 14  1  0  0  0  0
 13 15  2  0  0  0  0
 14 18  1  0  0  0  0
 16 15  1  0  0  0  0
 16  6  1  0  0  0  0
 17 12  1  0  0  0  0
 19 14  1  0  0  0  0
 20 23  1  0  0  0  0
 20 22  2  0  0  0  0
 21 20  2  0  0  0  0
 23 28  1  0  0  0  0
 24 25  1  0  0  0  0
 24 23  2  0  0  0  0
 25 26  2  0  0  0  0
 26 27  1  0  0  0  0
 28 27  2  0  0  0  0
 29 30  1  0  0  0  0
 30 26  1  0  0  0  0
 30 31  2  0  0  0  0
 32 31  1  0  0  0  0
 33 32  2  0  0  0  0
 34 29  2  0  0  0  0
 34 33  1  0  0  0  0
M  END
>  <minimizedAffinity>
-6.48456907

$$$$
