
 OpenBabel03272514293D

 31 36  0  0  0  0  0  0  0  0999 V2000
   34.6760   29.1830   45.3110 C   0  0  0  0  0  3  0  0  0  0  0  0
   33.2990   29.1650   45.1440 C   0  0  0  0  0  3  0  0  0  0  0  0
   32.5670   29.3360   46.3050 C   0  0  0  0  0  0  0  0  0  0  0  0
   33.2140   29.4960   47.4470 N   0  0  0  0  0  0  0  0  0  0  0  0
   34.5130   29.5150   47.6280 C   0  0  0  0  0  0  0  0  0  0  0  0
   35.2170   29.3530   46.5200 N   0  0  0  0  0  0  0  0  0  0  0  0
   31.1540   29.3400   46.2880 N   0  0  0  0  0  0  0  0  0  0  0  0
   30.3580   29.9320   45.3820 C   0  0  0  0  0  3  0  0  0  0  0  0
   29.0860   29.7350   45.6710 N   0  0  0  0  0  0  0  0  0  0  0  0
   29.0390   29.0020   46.7880 C   0  0  0  0  0  0  0  0  0  0  0  0
   30.3160   28.7740   47.1440 N   0  0  0  0  0  0  0  0  0  0  0  0
   35.3410   29.6800   48.8090 C   0  0  0  0  0  0  0  0  0  0  0  0
   35.0530   29.0300   49.9980 C   0  0  0  0  0  3  0  0  0  0  0  0
   35.8000   29.1460   51.1500 C   0  0  0  0  0  3  0  0  0  0  0  0
   36.9110   29.9520   51.1510 C   0  0  0  0  0  3  0  0  0  0  0  0
   37.2440   30.6150   50.0150 C   0  0  0  0  0  0  0  0  0  0  0  0
   38.3610   31.4240   50.0270 C   0  0  0  0  0  3  0  0  0  0  0  0
   38.7610   32.1210   48.9290 C   0  0  0  0  0  3  0  0  0  0  0  0
   37.9860   31.9880   47.7710 C   0  0  0  0  0  3  0  0  0  0  0  0
   36.8780   31.1720   47.7970 C   0  0  0  0  0  3  0  0  0  0  0  0
   36.4670   30.4720   48.8810 C   0  0  0  0  0  0  0  0  0  0  0  0
   27.8570   28.5260   47.5030 C   0  0  0  0  0  0  0  0  0  0  0  0
   27.4610   27.2160   47.7930 C   0  0  0  0  0  3  0  0  0  0  0  0
   26.2990   27.2320   48.4760 N   0  0  0  0  0  0  0  0  0  0  0  0
   25.9170   28.5150   48.6430 C   0  0  0  0  0  0  0  0  0  0  0  0
   24.7940   29.0320   49.2770 C   0  0  0  0  0  3  0  0  0  0  0  0
   24.7290   30.4150   49.2530 C   0  0  0  0  0  3  0  0  0  0  0  0
   25.6360   31.2800   48.6830 C   0  0  0  0  0  3  0  0  0  0  0  0
   26.7180   30.6810   48.0740 C   0  0  0  0  0  3  0  0  0  0  0  0
   26.8680   29.3180   48.0480 C   0  0  0  0  0  0  0  0  0  0  0  0
   25.7890   26.4030   48.8140 H   0  0  0  0  0  0  0  0  0  0  0  0
  1  6  1  0  0  0  0
  2  1  2  0  0  0  0
  2  3  1  0  0  0  0
  3  4  2  0  0  0  0
  4  5  1  0  0  0  0
  5 12  1  0  0  0  0
  6  5  2  0  0  0  0
  7  3  1  0  0  0  0
  7 11  1  0  0  0  0
  8  9  2  0  0  0  0
  8  7  1  0  0  0  0
  9 10  1  0  0  0  0
 10 11  2  0  0  0  0
 10 22  1  0  0  0  0
 12 21  2  0  0  0  0
 12 13  1  0  0  0  0
 13 14  2  0  0  0  0
 14 15  1  0  0  0  0
 16 17  1  0  0  0  0
 16 15  2  0  0  0  0
 18 17  2  0  0  0  0
 19 20  2  0  0  0  0
 19 18  1  0  0  0  0
 20 21  1  0  0  0  0
 21 16  1  0  0  0  0
 22 23  2  0  0  0  0
 22 30  1  0  0  0  0
 23 24  1  0  0  0  0
 24 25  1  0  0  0  0
 24 31  1  0  0  0  0
 25 26  1  0  0  0  0
 27 26  2  0  0  0  0
 28 27  1  0  0  0  0
 29 28  2  0  0  0  0
 30 29  1  0  0  0  0
 30 25  2  0  0  0  0
M  END
>  <minimizedAffinity>
-9.55699539

$$$$

 OpenBabel03272514293D

 31 36  0  0  0  0  0  0  0  0999 V2000
   32.4310   26.0490   47.5470 C   0  0  0  0  0  3  0  0  0  0  0  0
   31.0990   26.4110   47.4040 C   0  0  0  0  0  3  0  0  0  0  0  0
   30.8780   27.7670   47.2390 C   0  0  0  0  0  0  0  0  0  0  0  0
   31.9160   28.5860   47.2320 N   0  0  0  0  0  0  0  0  0  0  0  0
   33.1810   28.2650   47.3660 C   0  0  0  0  0  0  0  0  0  0  0  0
   33.3980   26.9690   47.5230 N   0  0  0  0  0  0  0  0  0  0  0  0
   29.5710   28.2830   47.0810 N   0  0  0  0  0  0  0  0  0  0  0  0
   28.5790   27.7580   46.3440 C   0  0  0  0  0  3  0  0  0  0  0  0
   27.4900   28.5000   46.4220 N   0  0  0  0  0  0  0  0  0  0  0  0
   27.7670   29.5330   47.2240 C   0  0  0  0  0  0  0  0  0  0  0  0
   29.0460   29.3760   47.6130 N   0  0  0  0  0  0  0  0  0  0  0  0
   34.4010   29.0500   47.3770 C   0  0  0  0  0  0  0  0  0  0  0  0
   34.9330   29.5850   46.2140 C   0  0  0  0  0  3  0  0  0  0  0  0
   36.0860   30.3380   46.1590 C   0  0  0  0  0  3  0  0  0  0  0  0
   36.7770   30.5920   47.3190 C   0  0  0  0  0  3  0  0  0  0  0  0
   36.3040   30.0940   48.4890 C   0  0  0  0  0  0  0  0  0  0  0  0
   37.0060   30.3540   49.6470 C   0  0  0  0  0  3  0  0  0  0  0  0
   36.5980   29.8910   50.8600 C   0  0  0  0  0  3  0  0  0  0  0  0
   35.4250   29.1290   50.8900 C   0  0  0  0  0  3  0  0  0  0  0  0
   34.7520   28.8900   49.7140 C   0  0  0  0  0  3  0  0  0  0  0  0
   35.1440   29.3440   48.4990 C   0  0  0  0  0  0  0  0  0  0  0  0
   26.8850   30.6270   47.6200 C   0  0  0  0  0  0  0  0  0  0  0  0
   26.3510   30.9300   48.8780 C   0  0  0  0  0  3  0  0  0  0  0  0
   25.5830   32.0340   48.7940 N   0  0  0  0  0  0  0  0  0  0  0  0
   25.5930   32.4670   47.5170 C   0  0  0  0  0  0  0  0  0  0  0  0
   24.9530   33.5600   46.9450 C   0  0  0  0  0  3  0  0  0  0  0  0
   25.1940   33.6980   45.5880 C   0  0  0  0  0  3  0  0  0  0  0  0
   25.9740   32.8870   44.7960 C   0  0  0  0  0  3  0  0  0  0  0  0
   26.5700   31.8270   45.4450 C   0  0  0  0  0  3  0  0  0  0  0  0
   26.3900   31.6090   46.7870 C   0  0  0  0  0  0  0  0  0  0  0  0
   25.0740   32.4730   49.5750 H   0  0  0  0  0  0  0  0  0  0  0  0
  2  1  2  0  0  0  0
  3  2  1  0  0  0  0
  4  3  2  0  0  0  0
  4  5  1  0  0  0  0
  5 12  1  0  0  0  0
  5  6  2  0  0  0  0
  6  1  1  0  0  0  0
  7  3  1  0  0  0  0
  7 11  1  0  0  0  0
  8  9  2  0  0  0  0
  8  7  1  0  0  0  0
  9 10  1  0  0  0  0
 10 11  2  0  0  0  0
 10 22  1  0  0  0  0
 12 21  1  0  0  0  0
 13 12  2  0  0  0  0
 14 13  1  0  0  0  0
 14 15  2  0  0  0  0
 15 16  1  0  0  0  0
 16 21  2  0  0  0  0
 16 17  1  0  0  0  0
 17 18  2  0  0  0  0
 18 19  1  0  0  0  0
 20 19  2  0  0  0  0
 21 20  1  0  0  0  0
 22 23  2  0  0  0  0
 24 23  1  0  0  0  0
 24 31  1  0  0  0  0
 25 24  1  0  0  0  0
 26 25  1  0  0  0  0
 27 26  2  0  0  0  0
 28 29  2  0  0  0  0
 28 27  1  0  0  0  0
 29 30  1  0  0  0  0
 30 25  2  0  0  0  0
 30 22  1  0  0  0  0
M  END
>  <minimizedAffinity>
-9.02129078

$$$$

 OpenBabel03272514293D

 31 36  0  0  0  0  0  0  0  0999 V2000
   34.2680   28.8920   44.0270 C   0  0  0  0  0  3  0  0  0  0  0  0
   32.8910   28.9580   44.1870 C   0  0  0  0  0  3  0  0  0  0  0  0
   32.4680   29.4630   45.4030 C   0  0  0  0  0  0  0  0  0  0  0  0
   33.3760   29.8290   46.2910 N   0  0  0  0  0  0  0  0  0  0  0  0
   34.6810   29.7750   46.1620 C   0  0  0  0  0  0  0  0  0  0  0  0
   35.0900   29.2940   44.9990 N   0  0  0  0  0  0  0  0  0  0  0  0
   31.0930   29.5890   45.7070 N   0  0  0  0  0  0  0  0  0  0  0  0
   30.1200   30.0180   44.8860 C   0  0  0  0  0  3  0  0  0  0  0  0
   28.9510   30.0100   45.4970 N   0  0  0  0  0  0  0  0  0  0  0  0
   29.1530   29.5680   46.7430 C   0  0  0  0  0  0  0  0  0  0  0  0
   30.4710   29.3180   46.8440 N   0  0  0  0  0  0  0  0  0  0  0  0
   35.7750   30.1390   47.0430 C   0  0  0  0  0  0  0  0  0  0  0  0
   36.9080   30.7820   46.5690 C   0  0  0  0  0  3  0  0  0  0  0  0
   37.9780   31.1530   47.3540 C   0  0  0  0  0  3  0  0  0  0  0  0
   37.9490   30.8820   48.7000 C   0  0  0  0  0  3  0  0  0  0  0  0
   36.8650   30.2530   49.2210 C   0  0  0  0  0  0  0  0  0  0  0  0
   36.8470   29.9830   50.5730 C   0  0  0  0  0  3  0  0  0  0  0  0
   35.7980   29.3570   51.1720 C   0  0  0  0  0  3  0  0  0  0  0  0
   34.7230   28.9890   50.3550 C   0  0  0  0  0  3  0  0  0  0  0  0
   34.7770   29.2740   49.0090 C   0  0  0  0  0  3  0  0  0  0  0  0
   35.8140   29.8970   48.3980 C   0  0  0  0  0  0  0  0  0  0  0  0
   28.1660   29.3820   47.8030 C   0  0  0  0  0  0  0  0  0  0  0  0
   26.8950   29.9490   47.9450 C   0  0  0  0  0  3  0  0  0  0  0  0
   26.3190   29.5000   49.0770 N   0  0  0  0  0  0  0  0  0  0  0  0
   27.1740   28.6540   49.6870 C   0  0  0  0  0  0  0  0  0  0  0  0
   27.0300   27.9490   50.8760 C   0  0  0  0  0  3  0  0  0  0  0  0
   28.1280   27.1680   51.1960 C   0  0  0  0  0  3  0  0  0  0  0  0
   29.2930   27.0370   50.4760 C   0  0  0  0  0  3  0  0  0  0  0  0
   29.3510   27.7740   49.3120 C   0  0  0  0  0  3  0  0  0  0  0  0
   28.3130   28.5750   48.9120 C   0  0  0  0  0  0  0  0  0  0  0  0
   25.3820   29.7600   49.4190 H   0  0  0  0  0  0  0  0  0  0  0  0
  1  2  2  0  0  0  0
  1  6  1  0  0  0  0
  2  3  1  0  0  0  0
  3  7  1  0  0  0  0
  3  4  2  0  0  0  0
  5  4  1  0  0  0  0
  5 12  1  0  0  0  0
  6  5  2  0  0  0  0
  7 11  1  0  0  0  0
  8  9  2  0  0  0  0
  8  7  1  0  0  0  0
  9 10  1  0  0  0  0
 10 11  2  0  0  0  0
 10 22  1  0  0  0  0
 12 21  1  0  0  0  0
 13 12  2  0  0  0  0
 13 14  1  0  0  0  0
 14 15  2  0  0  0  0
 15 16  1  0  0  0  0
 16 17  1  0  0  0  0
 17 18  2  0  0  0  0
 19 18  1  0  0  0  0
 20 19  2  0  0  0  0
 21 20  1  0  0  0  0
 21 16  2  0  0  0  0
 22 23  2  0  0  0  0
 22 30  1  0  0  0  0
 23 24  1  0  0  0  0
 24 31  1  0  0  0  0
 24 25  1  0  0  0  0
 25 26  1  0  0  0  0
 26 27  2  0  0  0  0
 28 27  1  0  0  0  0
 29 28  2  0  0  0  0
 30 29  1  0  0  0  0
 30 25  2  0  0  0  0
M  END
>  <minimizedAffinity>
-8.90595818

$$$$

 OpenBabel03272514293D

 31 36  0  0  0  0  0  0  0  0999 V2000
   29.4320   28.8930   45.3170 C   0  0  0  0  0  3  0  0  0  0  0  0
   30.7840   29.1300   45.1150 C   0  0  0  0  0  3  0  0  0  0  0  0
   31.5770   28.9850   46.2400 C   0  0  0  0  0  0  0  0  0  0  0  0
   31.0050   28.6460   47.3820 N   0  0  0  0  0  0  0  0  0  0  0  0
   29.7310   28.4180   47.5960 C   0  0  0  0  0  0  0  0  0  0  0  0
   28.9690   28.5540   46.5220 N   0  0  0  0  0  0  0  0  0  0  0  0
   32.9740   29.1950   46.1850 N   0  0  0  0  0  0  0  0  0  0  0  0
   33.8130   28.7990   45.2130 C   0  0  0  0  0  3  0  0  0  0  0  0
   35.0520   29.1620   45.4840 N   0  0  0  0  0  0  0  0  0  0  0  0
   35.0330   29.8090   46.6530 C   0  0  0  0  0  0  0  0  0  0  0  0
   33.7500   29.8150   47.0600 N   0  0  0  0  0  0  0  0  0  0  0  0
   28.9810   28.0430   48.7810 C   0  0  0  0  0  0  0  0  0  0  0  0
   29.5320   27.2400   49.7670 C   0  0  0  0  0  3  0  0  0  0  0  0
   28.8720   26.8510   50.9120 C   0  0  0  0  0  3  0  0  0  0  0  0
   27.5810   27.2710   51.1190 C   0  0  0  0  0  3  0  0  0  0  0  0
   26.9890   28.0590   50.1870 C   0  0  0  0  0  0  0  0  0  0  0  0
   25.6920   28.4740   50.4030 C   0  0  0  0  0  3  0  0  0  0  0  0
   25.0280   29.2660   49.5170 C   0  0  0  0  0  3  0  0  0  0  0  0
   25.7180   29.6480   48.3620 C   0  0  0  0  0  3  0  0  0  0  0  0
   27.0120   29.2140   48.1800 C   0  0  0  0  0  3  0  0  0  0  0  0
   27.6860   28.4260   49.0520 C   0  0  0  0  0  0  0  0  0  0  0  0
   36.1570   30.4030   47.3720 C   0  0  0  0  0  0  0  0  0  0  0  0
   37.1600   31.2600   46.9040 C   0  0  0  0  0  3  0  0  0  0  0  0
   38.0030   31.5680   47.9090 N   0  0  0  0  0  0  0  0  0  0  0  0
   37.5850   30.9380   49.0260 C   0  0  0  0  0  0  0  0  0  0  0  0
   38.1280   30.9460   50.3060 C   0  0  0  0  0  3  0  0  0  0  0  0
   37.4240   30.1730   51.2130 C   0  0  0  0  0  3  0  0  0  0  0  0
   36.2900   29.4320   50.9700 C   0  0  0  0  0  3  0  0  0  0  0  0
   35.8220   29.4800   49.6740 C   0  0  0  0  0  3  0  0  0  0  0  0
   36.4520   30.2190   48.7070 C   0  0  0  0  0  0  0  0  0  0  0  0
   38.8270   32.1820   47.8360 H   0  0  0  0  0  0  0  0  0  0  0  0
  1  6  1  0  0  0  0
  2  1  2  0  0  0  0
  2  3  1  0  0  0  0
  3  4  2  0  0  0  0
  4  5  1  0  0  0  0
  5 12  1  0  0  0  0
  6  5  2  0  0  0  0
  7  3  1  0  0  0  0
  7 11  1  0  0  0  0
  8  9  2  0  0  0  0
  8  7  1  0  0  0  0
  9 10  1  0  0  0  0
 10 11  2  0  0  0  0
 10 22  1  0  0  0  0
 12 21  2  0  0  0  0
 12 13  1  0  0  0  0
 13 14  2  0  0  0  0
 14 15  1  0  0  0  0
 16 17  1  0  0  0  0
 16 15  2  0  0  0  0
 18 17  2  0  0  0  0
 19 18  1  0  0  0  0
 20 19  2  0  0  0  0
 20 21  1  0  0  0  0
 21 16  1  0  0  0  0
 22 30  1  0  0  0  0
 23 22  2  0  0  0  0
 23 24  1  0  0  0  0
 24 25  1  0  0  0  0
 25 26  1  0  0  0  0
 26 27  2  0  0  0  0
 28 27  1  0  0  0  0
 29 28  2  0  0  0  0
 30 25  2  0  0  0  0
 30 29  1  0  0  0  0
 31 24  1  0  0  0  0
M  END
>  <minimizedAffinity>
-8.88127327

$$$$

 OpenBabel03272514293D

 31 36  0  0  0  0  0  0  0  0999 V2000
   33.9720   28.6950   44.5150 C   0  0  0  0  0  3  0  0  0  0  0  0
   32.5930   28.8190   44.6240 C   0  0  0  0  0  3  0  0  0  0  0  0
   32.1410   29.2320   45.8640 C   0  0  0  0  0  0  0  0  0  0  0  0
   33.0250   29.4680   46.8190 N   0  0  0  0  0  0  0  0  0  0  0  0
   34.3290   29.3580   46.7380 C   0  0  0  0  0  0  0  0  0  0  0  0
   34.7670   28.9630   45.5530 N   0  0  0  0  0  0  0  0  0  0  0  0
   30.7610   29.4020   46.1230 N   0  0  0  0  0  0  0  0  0  0  0  0
   29.8490   29.9540   45.3070 C   0  0  0  0  0  3  0  0  0  0  0  0
   28.6540   29.9520   45.8660 N   0  0  0  0  0  0  0  0  0  0  0  0
   28.7780   29.3880   47.0720 C   0  0  0  0  0  0  0  0  0  0  0  0
   30.0760   29.0610   47.2030 N   0  0  0  0  0  0  0  0  0  0  0  0
   35.3990   29.5820   47.6930 C   0  0  0  0  0  0  0  0  0  0  0  0
   35.3640   29.0380   48.9670 C   0  0  0  0  0  3  0  0  0  0  0  0
   36.3470   29.2150   49.9160 C   0  0  0  0  0  3  0  0  0  0  0  0
   37.4480   29.9770   49.6090 C   0  0  0  0  0  3  0  0  0  0  0  0
   37.5370   30.5360   48.3760 C   0  0  0  0  0  0  0  0  0  0  0  0
   38.6460   31.3000   48.0780 C   0  0  0  0  0  3  0  0  0  0  0  0
   38.8100   31.8940   46.8650 C   0  0  0  0  0  3  0  0  0  0  0  0
   37.7990   31.7010   45.9180 C   0  0  0  0  0  3  0  0  0  0  0  0
   36.7070   30.9320   46.2510 C   0  0  0  0  0  3  0  0  0  0  0  0
   36.5290   30.3340   47.4540 C   0  0  0  0  0  0  0  0  0  0  0  0
   27.7360   29.1580   48.0690 C   0  0  0  0  0  0  0  0  0  0  0  0
   26.4100   29.6070   48.0920 C   0  0  0  0  0  3  0  0  0  0  0  0
   25.7950   29.1590   49.2040 N   0  0  0  0  0  0  0  0  0  0  0  0
   26.6770   28.4280   49.9160 C   0  0  0  0  0  0  0  0  0  0  0  0
   26.5100   27.7680   51.1280 C   0  0  0  0  0  3  0  0  0  0  0  0
   27.6490   27.1120   51.5650 C   0  0  0  0  0  3  0  0  0  0  0  0
   28.8720   27.0600   50.9360 C   0  0  0  0  0  3  0  0  0  0  0  0
   28.9480   27.7430   49.7410 C   0  0  0  0  0  3  0  0  0  0  0  0
   27.8730   28.4220   49.2280 C   0  0  0  0  0  0  0  0  0  0  0  0
   24.8160   29.3430   49.4650 H   0  0  0  0  0  0  0  0  0  0  0  0
  1  2  2  0  0  0  0
  1  6  1  0  0  0  0
  2  3  1  0  0  0  0
  3  7  1  0  0  0  0
  3  4  2  0  0  0  0
  5  4  1  0  0  0  0
  5 12  1  0  0  0  0
  6  5  2  0  0  0  0
  7 11  1  0  0  0  0
  8  9  2  0  0  0  0
  8  7  1  0  0  0  0
  9 10  1  0  0  0  0
 10 11  2  0  0  0  0
 10 22  1  0  0  0  0
 12 13  1  0  0  0  0
 13 14  2  0  0  0  0
 15 14  1  0  0  0  0
 16 15  2  0  0  0  0
 17 16  1  0  0  0  0
 18 17  2  0  0  0  0
 19 20  2  0  0  0  0
 19 18  1  0  0  0  0
 20 21  1  0  0  0  0
 21 12  2  0  0  0  0
 21 16  1  0  0  0  0
 22 23  2  0  0  0  0
 22 30  1  0  0  0  0
 23 24  1  0  0  0  0
 24 31  1  0  0  0  0
 24 25  1  0  0  0  0
 25 26  1  0  0  0  0
 26 27  2  0  0  0  0
 28 27  1  0  0  0  0
 29 28  2  0  0  0  0
 30 29  1  0  0  0  0
 30 25  2  0  0  0  0
M  END
>  <minimizedAffinity>
-8.71088696

$$$$

 OpenBabel03272514293D

 31 36  0  0  0  0  0  0  0  0999 V2000
   32.1790   25.8310   47.5830 C   0  0  0  0  0  3  0  0  0  0  0  0
   30.9190   26.3120   47.2570 C   0  0  0  0  0  3  0  0  0  0  0  0
   30.7760   27.6850   47.3530 C   0  0  0  0  0  0  0  0  0  0  0  0
   31.8140   28.4080   47.7360 N   0  0  0  0  0  0  0  0  0  0  0  0
   33.0120   27.9740   48.0480 C   0  0  0  0  0  0  0  0  0  0  0  0
   33.1540   26.6620   47.9570 N   0  0  0  0  0  0  0  0  0  0  0  0
   29.5480   28.3170   47.0530 N   0  0  0  0  0  0  0  0  0  0  0  0
   28.7200   28.0320   46.0340 C   0  0  0  0  0  3  0  0  0  0  0  0
   27.6620   28.8190   46.0520 N   0  0  0  0  0  0  0  0  0  0  0  0
   27.7900   29.6380   47.1010 C   0  0  0  0  0  0  0  0  0  0  0  0
   28.9520   29.3100   47.6950 N   0  0  0  0  0  0  0  0  0  0  0  0
   34.2240   28.6490   48.4760 C   0  0  0  0  0  0  0  0  0  0  0  0
   34.6310   28.6420   49.8010 C   0  0  0  0  0  3  0  0  0  0  0  0
   35.7700   29.2630   50.2690 C   0  0  0  0  0  3  0  0  0  0  0  0
   36.5750   29.9410   49.3870 C   0  0  0  0  0  3  0  0  0  0  0  0
   36.2270   29.9810   48.0760 C   0  0  0  0  0  0  0  0  0  0  0  0
   37.0420   30.6660   47.1990 C   0  0  0  0  0  3  0  0  0  0  0  0
   36.7630   30.7530   45.8700 C   0  0  0  0  0  3  0  0  0  0  0  0
   35.6020   30.1160   45.4190 C   0  0  0  0  0  3  0  0  0  0  0  0
   34.8130   29.4430   46.3240 C   0  0  0  0  0  3  0  0  0  0  0  0
   35.0770   29.3460   47.6490 C   0  0  0  0  0  0  0  0  0  0  0  0
   26.8750   30.6870   47.5410 C   0  0  0  0  0  0  0  0  0  0  0  0
   26.3260   30.9150   48.8080 C   0  0  0  0  0  3  0  0  0  0  0  0
   25.5270   32.0000   48.7710 N   0  0  0  0  0  0  0  0  0  0  0  0
   25.5320   32.4930   47.5150 C   0  0  0  0  0  0  0  0  0  0  0  0
   24.8650   33.5930   46.9900 C   0  0  0  0  0  3  0  0  0  0  0  0
   25.1100   33.8020   45.6430 C   0  0  0  0  0  3  0  0  0  0  0  0
   25.9170   33.0510   44.8190 C   0  0  0  0  0  3  0  0  0  0  0  0
   26.5390   31.9790   45.4230 C   0  0  0  0  0  3  0  0  0  0  0  0
   26.3570   31.6930   46.7510 C   0  0  0  0  0  0  0  0  0  0  0  0
   25.0010   32.3870   49.5680 H   0  0  0  0  0  0  0  0  0  0  0  0
  1  6  1  0  0  0  0
  2  3  1  0  0  0  0
  2  1  2  0  0  0  0
  3  4  2  0  0  0  0
  4  5  1  0  0  0  0
  5 12  1  0  0  0  0
  6  5  2  0  0  0  0
  7  3  1  0  0  0  0
  7 11  1  0  0  0  0
  8  9  2  0  0  0  0
  8  7  1  0  0  0  0
  9 10  1  0  0  0  0
 10 22  1  0  0  0  0
 10 11  2  0  0  0  0
 12 13  1  0  0  0  0
 13 14  2  0  0  0  0
 15 14  1  0  0  0  0
 16 15  2  0  0  0  0
 17 16  1  0  0  0  0
 18 17  2  0  0  0  0
 19 18  1  0  0  0  0
 19 20  2  0  0  0  0
 20 21  1  0  0  0  0
 21 16  1  0  0  0  0
 21 12  2  0  0  0  0
 22 23  2  0  0  0  0
 24 23  1  0  0  0  0
 24 31  1  0  0  0  0
 25 24  1  0  0  0  0
 26 25  1  0  0  0  0
 27 26  2  0  0  0  0
 28 29  2  0  0  0  0
 28 27  1  0  0  0  0
 29 30  1  0  0  0  0
 30 25  2  0  0  0  0
 30 22  1  0  0  0  0
M  END
>  <minimizedAffinity>
-8.65674877

$$$$

 OpenBabel03272514293D

 31 36  0  0  0  0  0  0  0  0999 V2000
   28.5840   25.8460   46.2510 C   0  0  0  0  0  3  0  0  0  0  0  0
   29.9630   25.9330   46.3860 C   0  0  0  0  0  3  0  0  0  0  0  0
   30.4070   26.9860   47.1660 C   0  0  0  0  0  0  0  0  0  0  0  0
   29.5160   27.8010   47.7030 N   0  0  0  0  0  0  0  0  0  0  0  0
   28.2100   27.7370   47.5890 C   0  0  0  0  0  0  0  0  0  0  0  0
   27.7800   26.7300   46.8450 N   0  0  0  0  0  0  0  0  0  0  0  0
   31.7860   27.2010   47.3920 N   0  0  0  0  0  0  0  0  0  0  0  0
   32.7180   26.2680   47.6450 C   0  0  0  0  0  3  0  0  0  0  0  0
   33.9060   26.8190   47.8060 N   0  0  0  0  0  0  0  0  0  0  0  0
   33.7570   28.1390   47.6560 C   0  0  0  0  0  0  0  0  0  0  0  0
   32.4520   28.3450   47.4030 N   0  0  0  0  0  0  0  0  0  0  0  0
   27.1330   28.5520   48.1180 C   0  0  0  0  0  0  0  0  0  0  0  0
   26.3180   28.1050   49.1470 C   0  0  0  0  0  3  0  0  0  0  0  0
   25.2810   28.8320   49.6910 C   0  0  0  0  0  3  0  0  0  0  0  0
   25.0120   30.0870   49.2030 C   0  0  0  0  0  3  0  0  0  0  0  0
   25.7770   30.5780   48.1950 C   0  0  0  0  0  0  0  0  0  0  0  0
   25.4980   31.8390   47.7110 C   0  0  0  0  0  3  0  0  0  0  0  0
   26.2180   32.4030   46.7030 C   0  0  0  0  0  3  0  0  0  0  0  0
   27.2650   31.6460   46.1660 C   0  0  0  0  0  3  0  0  0  0  0  0
   27.5140   30.3920   46.6750 C   0  0  0  0  0  3  0  0  0  0  0  0
   26.8070   29.8160   47.6780 C   0  0  0  0  0  0  0  0  0  0  0  0
   34.7820   29.1760   47.7410 C   0  0  0  0  0  0  0  0  0  0  0  0
   35.2660   30.0330   46.7460 C   0  0  0  0  0  3  0  0  0  0  0  0
   36.2160   30.8390   47.2610 N   0  0  0  0  0  0  0  0  0  0  0  0
   36.3730   30.5380   48.5660 C   0  0  0  0  0  0  0  0  0  0  0  0
   37.2310   31.0910   49.5090 C   0  0  0  0  0  3  0  0  0  0  0  0
   37.1160   30.5240   50.7660 C   0  0  0  0  0  3  0  0  0  0  0  0
   36.2690   29.5070   51.1460 C   0  0  0  0  0  3  0  0  0  0  0  0
   35.4550   29.0160   50.1470 C   0  0  0  0  0  3  0  0  0  0  0  0
   35.4970   29.5160   48.8710 C   0  0  0  0  0  0  0  0  0  0  0  0
   36.7340   31.5640   46.7440 H   0  0  0  0  0  0  0  0  0  0  0  0
  1  2  2  0  0  0  0
  1  6  1  0  0  0  0
  2  3  1  0  0  0  0
  3  7  1  0  0  0  0
  3  4  2  0  0  0  0
  5  4  1  0  0  0  0
  5 12  1  0  0  0  0
  6  5  2  0  0  0  0
  7 11  1  0  0  0  0
  7  8  1  0  0  0  0
  8  9  2  0  0  0  0
 10 22  1  0  0  0  0
 10  9  1  0  0  0  0
 11 10  2  0  0  0  0
 12 13  1  0  0  0  0
 13 14  2  0  0  0  0
 15 14  1  0  0  0  0
 16 15  2  0  0  0  0
 17 16  1  0  0  0  0
 18 17  2  0  0  0  0
 19 20  2  0  0  0  0
 19 18  1  0  0  0  0
 20 21  1  0  0  0  0
 21 12  2  0  0  0  0
 21 16  1  0  0  0  0
 22 30  1  0  0  0  0
 23 24  1  0  0  0  0
 23 22  2  0  0  0  0
 24 25  1  0  0  0  0
 25 30  2  0  0  0  0
 25 26  1  0  0  0  0
 26 27  2  0  0  0  0
 27 28  1  0  0  0  0
 29 28  2  0  0  0  0
 30 29  1  0  0  0  0
 31 24  1  0  0  0  0
M  END
>  <minimizedAffinity>
-8.6376524

$$$$

 OpenBabel03272514293D

 31 36  0  0  0  0  0  0  0  0999 V2000
   29.3030   29.7360   44.1520 C   0  0  0  0  0  3  0  0  0  0  0  0
   30.6900   29.6770   44.1690 C   0  0  0  0  0  3  0  0  0  0  0  0
   31.2520   29.5240   45.4240 C   0  0  0  0  0  0  0  0  0  0  0  0
   30.4530   29.4510   46.4740 N   0  0  0  0  0  0  0  0  0  0  0  0
   29.1420   29.5050   46.4810 C   0  0  0  0  0  0  0  0  0  0  0  0
   28.6000   29.6500   45.2820 N   0  0  0  0  0  0  0  0  0  0  0  0
   32.6530   29.4480   45.5950 N   0  0  0  0  0  0  0  0  0  0  0  0
   33.5260   28.7760   44.8280 C   0  0  0  0  0  3  0  0  0  0  0  0
   34.7580   28.9220   45.2770 N   0  0  0  0  0  0  0  0  0  0  0  0
   34.6990   29.7030   46.3600 C   0  0  0  0  0  0  0  0  0  0  0  0
   33.4010   30.0110   46.5320 N   0  0  0  0  0  0  0  0  0  0  0  0
   28.1580   29.4370   47.5450 C   0  0  0  0  0  0  0  0  0  0  0  0
   26.9770   30.1600   47.4920 C   0  0  0  0  0  3  0  0  0  0  0  0
   26.0050   30.1370   48.4700 C   0  0  0  0  0  3  0  0  0  0  0  0
   26.1910   29.3550   49.5830 C   0  0  0  0  0  3  0  0  0  0  0  0
   27.3290   28.6240   49.6910 C   0  0  0  0  0  0  0  0  0  0  0  0
   27.5070   27.8430   50.8130 C   0  0  0  0  0  3  0  0  0  0  0  0
   28.6200   27.0820   50.9960 C   0  0  0  0  0  3  0  0  0  0  0  0
   29.5930   27.1210   49.9910 C   0  0  0  0  0  3  0  0  0  0  0  0
   29.3810   27.9130   48.8850 C   0  0  0  0  0  3  0  0  0  0  0  0
   28.2790   28.6760   48.6880 C   0  0  0  0  0  0  0  0  0  0  0  0
   35.8010   30.1520   47.2060 C   0  0  0  0  0  0  0  0  0  0  0  0
   36.9410   30.8910   46.8670 C   0  0  0  0  0  3  0  0  0  0  0  0
   37.7010   31.0860   47.9620 N   0  0  0  0  0  0  0  0  0  0  0  0
   37.0960   30.4970   49.0140 C   0  0  0  0  0  0  0  0  0  0  0  0
   37.4960   30.4260   50.3430 C   0  0  0  0  0  3  0  0  0  0  0  0
   36.6140   29.7300   51.1530 C   0  0  0  0  0  3  0  0  0  0  0  0
   35.4340   29.1310   50.7740 C   0  0  0  0  0  3  0  0  0  0  0  0
   35.1170   29.2480   49.4380 C   0  0  0  0  0  3  0  0  0  0  0  0
   35.9280   29.9190   48.5600 C   0  0  0  0  0  0  0  0  0  0  0  0
   38.5940   31.6000   47.9910 H   0  0  0  0  0  0  0  0  0  0  0  0
  1  2  2  0  0  0  0
  1  6  1  0  0  0  0
  2  3  1  0  0  0  0
  3  7  1  0  0  0  0
  3  4  2  0  0  0  0
  4  5  1  0  0  0  0
  5 12  1  0  0  0  0
  6  5  2  0  0  0  0
  7 11  1  0  0  0  0
  8  9  2  0  0  0  0
  8  7  1  0  0  0  0
  9 10  1  0  0  0  0
 10 11  2  0  0  0  0
 10 22  1  0  0  0  0
 12 21  1  0  0  0  0
 13 12  2  0  0  0  0
 13 14  1  0  0  0  0
 14 15  2  0  0  0  0
 15 16  1  0  0  0  0
 16 17  1  0  0  0  0
 17 18  2  0  0  0  0
 19 18  1  0  0  0  0
 20 19  2  0  0  0  0
 21 20  1  0  0  0  0
 21 16  2  0  0  0  0
 22 30  1  0  0  0  0
 23 22  2  0  0  0  0
 23 24  1  0  0  0  0
 24 31  1  0  0  0  0
 24 25  1  0  0  0  0
 25 26  1  0  0  0  0
 26 27  2  0  0  0  0
 28 27  1  0  0  0  0
 29 28  2  0  0  0  0
 30 25  2  0  0  0  0
 30 29  1  0  0  0  0
M  END
>  <minimizedAffinity>
-8.60622883

$$$$

 OpenBabel03272514293D

 31 36  0  0  0  0  0  0  0  0999 V2000
   33.2860   26.5970   47.9840 C   0  0  0  0  0  3  0  0  0  0  0  0
   32.0460   26.8800   47.4290 C   0  0  0  0  0  3  0  0  0  0  0  0
   31.9170   28.1550   46.9080 C   0  0  0  0  0  0  0  0  0  0  0  0
   32.9490   28.9790   46.9780 N   0  0  0  0  0  0  0  0  0  0  0  0
   34.1280   28.7330   47.4980 C   0  0  0  0  0  0  0  0  0  0  0  0
   34.2570   27.5130   47.9970 N   0  0  0  0  0  0  0  0  0  0  0  0
   30.7100   28.5850   46.3110 N   0  0  0  0  0  0  0  0  0  0  0  0
   29.9200   27.8780   45.4860 C   0  0  0  0  0  3  0  0  0  0  0  0
   28.8720   28.5880   45.1150 N   0  0  0  0  0  0  0  0  0  0  0  0
   28.9700   29.7840   45.7030 C   0  0  0  0  0  0  0  0  0  0  0  0
   30.1030   29.7550   46.4290 N   0  0  0  0  0  0  0  0  0  0  0  0
   35.3300   29.5330   47.6380 C   0  0  0  0  0  0  0  0  0  0  0  0
   35.9260   30.1500   46.5490 C   0  0  0  0  0  3  0  0  0  0  0  0
   37.0660   30.9210   46.6170 C   0  0  0  0  0  3  0  0  0  0  0  0
   37.6760   31.1100   47.8330 C   0  0  0  0  0  3  0  0  0  0  0  0
   37.1390   30.5310   48.9360 C   0  0  0  0  0  0  0  0  0  0  0  0
   37.7600   30.7250   50.1520 C   0  0  0  0  0  3  0  0  0  0  0  0
   37.2830   30.1790   51.3030 C   0  0  0  0  0  3  0  0  0  0  0  0
   36.1250   29.4000   51.2090 C   0  0  0  0  0  3  0  0  0  0  0  0
   35.5330   29.2270   49.9780 C   0  0  0  0  0  3  0  0  0  0  0  0
   35.9950   29.7640   48.8230 C   0  0  0  0  0  0  0  0  0  0  0  0
   28.0510   30.9140   45.6010 C   0  0  0  0  0  0  0  0  0  0  0  0
   27.9070   31.8550   44.5750 C   0  0  0  0  0  3  0  0  0  0  0  0
   26.9340   32.7310   44.8920 N   0  0  0  0  0  0  0  0  0  0  0  0
   26.4320   32.3970   46.0980 C   0  0  0  0  0  0  0  0  0  0  0  0
   25.4230   33.0000   46.8390 C   0  0  0  0  0  3  0  0  0  0  0  0
   25.1720   32.3760   48.0500 C   0  0  0  0  0  3  0  0  0  0  0  0
   25.8050   31.2650   48.5590 C   0  0  0  0  0  3  0  0  0  0  0  0
   26.7940   30.7320   47.7590 C   0  0  0  0  0  3  0  0  0  0  0  0
   27.1130   31.2820   46.5440 C   0  0  0  0  0  0  0  0  0  0  0  0
   26.6240   33.5230   44.3090 H   0  0  0  0  0  0  0  0  0  0  0  0
  1  6  1  0  0  0  0
  2  1  2  0  0  0  0
  3  4  2  0  0  0  0
  3  2  1  0  0  0  0
  4  5  1  0  0  0  0
  5 12  1  0  0  0  0
  5  6  2  0  0  0  0
  7 11  1  0  0  0  0
  7  3  1  0  0  0  0
  8  7  1  0  0  0  0
  9  8  2  0  0  0  0
  9 10  1  0  0  0  0
 10 11  2  0  0  0  0
 12 21  1  0  0  0  0
 13 14  1  0  0  0  0
 13 12  2  0  0  0  0
 14 15  2  0  0  0  0
 15 16  1  0  0  0  0
 16 17  1  0  0  0  0
 17 18  2  0  0  0  0
 19 18  1  0  0  0  0
 20 19  2  0  0  0  0
 21 16  2  0  0  0  0
 21 20  1  0  0  0  0
 22 10  1  0  0  0  0
 22 30  1  0  0  0  0
 23 24  1  0  0  0  0
 23 22  2  0  0  0  0
 24 25  1  0  0  0  0
 25 30  2  0  0  0  0
 25 26  1  0  0  0  0
 26 27  2  0  0  0  0
 27 28  1  0  0  0  0
 29 28  2  0  0  0  0
 30 29  1  0  0  0  0
 31 24  1  0  0  0  0
M  END
>  <minimizedAffinity>
-8.56912136

$$$$
