
 OpenBabel03272514353D

 33 37  0  0  0  0  0  0  0  0999 V2000
   30.4980   28.6690   46.4610 N   0  0  0  0  0  0  0  0  0  0  0  0
   29.7690   28.8070   45.3330 C   0  0  0  0  0  3  0  0  0  0  0  0
   30.5260   29.3930   44.3730 N   0  0  0  0  0  0  0  0  0  0  0  0
   31.7390   29.6100   44.9410 C   0  0  0  0  0  0  0  0  0  0  0  0
   32.8370   30.1830   44.3430 C   0  0  0  0  0  3  0  0  0  0  0  0
   33.9470   30.2880   45.1210 N   0  0  0  0  0  0  0  0  0  0  0  0
   33.9380   29.8420   46.4200 C   0  0  0  0  0  0  0  0  0  0  0  0
   32.8340   29.2880   46.9620 N   0  0  0  0  0  0  0  0  0  0  0  0
   31.7110   29.1560   46.2450 C   0  0  0  0  0  0  0  0  0  0  0  0
   30.3650   27.0520   49.7750 C   0  0  0  0  0  3  0  0  0  0  0  0
   30.9190   27.5990   48.6240 C   0  0  0  0  0  3  0  0  0  0  0  0
   30.0310   28.0990   47.6560 C   0  0  0  0  0  0  0  0  0  0  0  0
   28.7040   28.0100   47.9170 N   0  0  0  0  0  0  0  0  0  0  0  0
   28.2140   27.4690   49.0510 C   0  0  0  0  0  0  0  0  0  0  0  0
   29.0550   26.9910   49.9770 N   0  0  0  0  0  0  0  0  0  0  0  0
   26.8070   27.3960   49.2820 N   0  0  0  0  0  0  0  0  0  0  0  0
   25.9830   28.5050   48.9960 C   0  0  0  0  0  0  0  0  0  0  0  0
   26.5490   29.6460   48.7050 N   0  0  0  0  0  0  0  0  0  0  0  0
   24.5430   28.3790   49.0250 N   0  0  0  0  0  0  0  0  0  0  0  0
   25.9290   30.4680   48.5170 H   0  0  0  0  0  0  0  0  0  0  0  0
   26.3920   26.5310   49.6590 H   0  0  0  0  0  0  0  0  0  0  0  0
   23.9500   29.1940   48.8140 H   0  0  0  0  0  0  0  0  0  0  0  0
   24.1100   27.4730   49.2550 H   0  0  0  0  0  0  0  0  0  0  0  0
   35.2280   30.0570   47.0540 C   0  0  0  0  0  0  0  0  0  0  0  0
   36.3080   30.5210   46.3390 C   0  0  0  0  0  3  0  0  0  0  0  0
   37.5620   30.7520   46.8590 C   0  0  0  0  0  3  0  0  0  0  0  0
   37.8030   30.5170   48.1920 C   0  0  0  0  0  3  0  0  0  0  0  0
   36.7630   30.0520   48.9640 C   0  0  0  0  0  0  0  0  0  0  0  0
   37.0070   29.8180   50.2980 C   0  0  0  0  0  3  0  0  0  0  0  0
   36.0110   29.3530   51.1290 C   0  0  0  0  0  3  0  0  0  0  0  0
   34.7630   29.1360   50.5540 C   0  0  0  0  0  3  0  0  0  0  0  0
   34.5750   29.3860   49.2160 C   0  0  0  0  0  3  0  0  0  0  0  0
   35.5430   29.8480   48.3660 C   0  0  0  0  0  0  0  0  0  0  0  0
  1 12  1  0  0  0  0
  2  1  1  0  0  0  0
  3  4  1  0  0  0  0
  3  2  2  0  0  0  0
  4  9  1  0  0  0  0
  5  4  2  0  0  0  0
  5  6  1  0  0  0  0
  6  7  2  0  0  0  0
  7  8  1  0  0  0  0
  7 24  1  0  0  0  0
  9  1  1  0  0  0  0
  9  8  2  0  0  0  0
 10 15  1  0  0  0  0
 11 10  2  0  0  0  0
 12 13  2  0  0  0  0
 12 11  1  0  0  0  0
 13 14  1  0  0  0  0
 14 16  1  0  0  0  0
 14 15  2  0  0  0  0
 16 21  1  0  0  0  0
 17 19  1  0  0  0  0
 17 16  1  0  0  0  0
 18 17  2  0  0  0  0
 19 23  1  0  0  0  0
 20 18  1  0  0  0  0
 22 19  1  0  0  0  0
 24 33  1  0  0  0  0
 25 26  1  0  0  0  0
 25 24  2  0  0  0  0
 26 27  2  0  0  0  0
 27 28  1  0  0  0  0
 28 29  1  0  0  0  0
 29 30  2  0  0  0  0
 31 30  1  0  0  0  0
 32 31  2  0  0  0  0
 33 28  2  0  0  0  0
 33 32  1  0  0  0  0
M  END
>  <minimizedAffinity>
-8.68763924

$$$$

 OpenBabel03272514353D

 33 37  0  0  0  0  0  0  0  0999 V2000
   27.0300   29.2260   48.2770 N   0  0  0  0  0  0  0  0  0  0  0  0
   26.0600   29.0670   49.2030 C   0  0  0  0  0  3  0  0  0  0  0  0
   26.5070   28.2550   50.1920 N   0  0  0  0  0  0  0  0  0  0  0  0
   27.7770   27.9210   49.8500 C   0  0  0  0  0  0  0  0  0  0  0  0
   28.6340   27.1120   50.5590 C   0  0  0  0  0  3  0  0  0  0  0  0
   29.8650   26.9300   50.0090 N   0  0  0  0  0  0  0  0  0  0  0  0
   30.1970   27.5290   48.8200 C   0  0  0  0  0  0  0  0  0  0  0  0
   29.3190   28.3130   48.1600 N   0  0  0  0  0  0  0  0  0  0  0  0
   28.0930   28.5310   48.6510 C   0  0  0  0  0  0  0  0  0  0  0  0
   26.9120   30.2880   44.7440 C   0  0  0  0  0  3  0  0  0  0  0  0
   27.0430   29.4380   45.8360 C   0  0  0  0  0  3  0  0  0  0  0  0
   26.9120   30.0060   47.1160 C   0  0  0  0  0  0  0  0  0  0  0  0
   26.6680   31.3370   47.1880 N   0  0  0  0  0  0  0  0  0  0  0  0
   26.5490   32.1220   46.0980 C   0  0  0  0  0  0  0  0  0  0  0  0
   26.6730   31.5870   44.8760 N   0  0  0  0  0  0  0  0  0  0  0  0
   26.2920   33.5210   46.2240 N   0  0  0  0  0  0  0  0  0  0  0  0
   25.3260   33.9850   47.1410 C   0  0  0  0  0  0  0  0  0  0  0  0
   24.5460   33.1130   47.7210 N   0  0  0  0  0  0  0  0  0  0  0  0
   25.2040   35.3960   47.4300 N   0  0  0  0  0  0  0  0  0  0  0  0
   23.8170   33.4690   48.3820 H   0  0  0  0  0  0  0  0  0  0  0  0
   26.8150   34.1930   45.6430 H   0  0  0  0  0  0  0  0  0  0  0  0
   24.4950   35.7250   48.1010 H   0  0  0  0  0  0  0  0  0  0  0  0
   25.8260   36.0730   46.9650 H   0  0  0  0  0  0  0  0  0  0  0  0
   31.5560   27.1930   48.4280 C   0  0  0  0  0  0  0  0  0  0  0  0
   31.8130   26.1710   47.5440 C   0  0  0  0  0  3  0  0  0  0  0  0
   33.0660   25.7870   47.1200 C   0  0  0  0  0  3  0  0  0  0  0  0
   34.1780   26.4460   47.5890 C   0  0  0  0  0  3  0  0  0  0  0  0
   33.9890   27.4800   48.4770 C   0  0  0  0  0  0  0  0  0  0  0  0
   35.1040   28.1380   48.9440 C   0  0  0  0  0  3  0  0  0  0  0  0
   34.9880   29.1820   49.8360 C   0  0  0  0  0  3  0  0  0  0  0  0
   33.7000   29.5300   50.2310 C   0  0  0  0  0  3  0  0  0  0  0  0
   32.6220   28.8400   49.7340 C   0  0  0  0  0  3  0  0  0  0  0  0
   32.7060   27.7990   48.8480 C   0  0  0  0  0  0  0  0  0  0  0  0
  1  9  1  0  0  0  0
  1  2  1  0  0  0  0
  2  3  2  0  0  0  0
  4  3  1  0  0  0  0
  4  5  1  0  0  0  0
  6  5  2  0  0  0  0
  7  6  1  0  0  0  0
  8  9  1  0  0  0  0
  8  7  2  0  0  0  0
  9  4  2  0  0  0  0
 10 15  2  0  0  0  0
 10 11  1  0  0  0  0
 11 12  2  0  0  0  0
 12 13  1  0  0  0  0
 12  1  1  0  0  0  0
 14 16  1  0  0  0  0
 14 13  2  0  0  0  0
 15 14  1  0  0  0  0
 16 17  1  0  0  0  0
 17 19  1  0  0  0  0
 17 18  2  0  0  0  0
 18 20  1  0  0  0  0
 19 22  1  0  0  0  0
 21 16  1  0  0  0  0
 23 19  1  0  0  0  0
 24  7  1  0  0  0  0
 24 33  1  0  0  0  0
 25 24  2  0  0  0  0
 26 25  1  0  0  0  0
 26 27  2  0  0  0  0
 27 28  1  0  0  0  0
 28 33  2  0  0  0  0
 28 29  1  0  0  0  0
 29 30  2  0  0  0  0
 30 31  1  0  0  0  0
 32 31  2  0  0  0  0
 33 32  1  0  0  0  0
M  END
>  <minimizedAffinity>
-8.41810226

$$$$

 OpenBabel03272514353D

 33 37  0  0  0  0  0  0  0  0999 V2000
   26.8620   29.1460   48.2420 N   0  0  0  0  0  0  0  0  0  0  0  0
   25.8480   28.8770   49.0920 C   0  0  0  0  0  3  0  0  0  0  0  0
   26.2960   28.0820   50.0940 N   0  0  0  0  0  0  0  0  0  0  0  0
   27.6120   27.8710   49.8380 C   0  0  0  0  0  0  0  0  0  0  0  0
   28.4870   27.1230   50.5900 C   0  0  0  0  0  3  0  0  0  0  0  0
   29.7650   27.0660   50.1280 N   0  0  0  0  0  0  0  0  0  0  0  0
   30.1240   27.7230   48.9770 C   0  0  0  0  0  0  0  0  0  0  0  0
   29.2270   28.4440   48.2720 N   0  0  0  0  0  0  0  0  0  0  0  0
   27.9550   28.5380   48.6780 C   0  0  0  0  0  0  0  0  0  0  0  0
   26.7200   30.2500   44.7230 C   0  0  0  0  0  3  0  0  0  0  0  0
   26.8350   29.3830   45.8040 C   0  0  0  0  0  3  0  0  0  0  0  0
   26.7560   29.9430   47.0910 C   0  0  0  0  0  0  0  0  0  0  0  0
   26.5730   31.2820   47.1810 N   0  0  0  0  0  0  0  0  0  0  0  0
   26.4670   32.0830   46.1020 C   0  0  0  0  0  0  0  0  0  0  0  0
   26.5420   31.5570   44.8730 N   0  0  0  0  0  0  0  0  0  0  0  0
   26.2760   33.4910   46.2460 N   0  0  0  0  0  0  0  0  0  0  0  0
   25.3500   33.9880   47.1880 C   0  0  0  0  0  0  0  0  0  0  0  0
   24.5430   33.1450   47.7760 N   0  0  0  0  0  0  0  0  0  0  0  0
   25.2970   35.4000   47.4930 N   0  0  0  0  0  0  0  0  0  0  0  0
   23.8450   33.5270   48.4550 H   0  0  0  0  0  0  0  0  0  0  0  0
   26.8160   34.1460   45.6620 H   0  0  0  0  0  0  0  0  0  0  0  0
   24.6170   35.7530   48.1820 H   0  0  0  0  0  0  0  0  0  0  0  0
   25.9390   36.0530   47.0220 H   0  0  0  0  0  0  0  0  0  0  0  0
   31.5330   27.5200   48.6790 C   0  0  0  0  0  0  0  0  0  0  0  0
   32.5060   28.2990   49.2600 C   0  0  0  0  0  3  0  0  0  0  0  0
   33.8590   28.1750   49.0340 C   0  0  0  0  0  3  0  0  0  0  0  0
   34.3220   27.2120   48.1700 C   0  0  0  0  0  3  0  0  0  0  0  0
   33.3980   26.3980   47.5540 C   0  0  0  0  0  0  0  0  0  0  0  0
   33.8650   25.4350   46.6900 C   0  0  0  0  0  3  0  0  0  0  0  0
   32.9950   24.5860   46.0390 C   0  0  0  0  0  3  0  0  0  0  0  0
   31.6400   24.7530   46.3030 C   0  0  0  0  0  3  0  0  0  0  0  0
   31.2280   25.7310   47.1760 C   0  0  0  0  0  3  0  0  0  0  0  0
   32.0670   26.5890   47.8350 C   0  0  0  0  0  0  0  0  0  0  0  0
  1  9  1  0  0  0  0
  1  2  1  0  0  0  0
  2  3  2  0  0  0  0
  4  3  1  0  0  0  0
  4  5  1  0  0  0  0
  6  5  2  0  0  0  0
  7  6  1  0  0  0  0
  8  9  1  0  0  0  0
  8  7  2  0  0  0  0
  9  4  2  0  0  0  0
 10 15  2  0  0  0  0
 10 11  1  0  0  0  0
 11 12  2  0  0  0  0
 12 13  1  0  0  0  0
 12  1  1  0  0  0  0
 14 16  1  0  0  0  0
 14 13  2  0  0  0  0
 15 14  1  0  0  0  0
 16 17  1  0  0  0  0
 17 19  1  0  0  0  0
 17 18  2  0  0  0  0
 18 20  1  0  0  0  0
 19 22  1  0  0  0  0
 21 16  1  0  0  0  0
 23 19  1  0  0  0  0
 24  7  1  0  0  0  0
 24 25  1  0  0  0  0
 26 25  2  0  0  0  0
 27 26  1  0  0  0  0
 28 33  1  0  0  0  0
 28 27  2  0  0  0  0
 29 28  1  0  0  0  0
 30 31  1  0  0  0  0
 30 29  2  0  0  0  0
 31 32  2  0  0  0  0
 32 33  1  0  0  0  0
 33 24  2  0  0  0  0
M  END
>  <minimizedAffinity>
-8.4092865

$$$$

 OpenBabel03272514353D

 33 37  0  0  0  0  0  0  0  0999 V2000
   27.9870   28.5040   47.0120 N   0  0  0  0  0  0  0  0  0  0  0  0
   27.2680   27.6260   47.7450 C   0  0  0  0  0  3  0  0  0  0  0  0
   28.1060   26.8710   48.4970 N   0  0  0  0  0  0  0  0  0  0  0  0
   29.3570   27.3090   48.2090 C   0  0  0  0  0  0  0  0  0  0  0  0
   30.5360   26.8380   48.7390 C   0  0  0  0  0  3  0  0  0  0  0  0
   31.6680   27.4460   48.2940 N   0  0  0  0  0  0  0  0  0  0  0  0
   31.6030   28.4600   47.3710 C   0  0  0  0  0  0  0  0  0  0  0  0
   30.4220   28.8860   46.8790 N   0  0  0  0  0  0  0  0  0  0  0  0
   29.2720   28.3270   47.2790 C   0  0  0  0  0  0  0  0  0  0  0  0
   26.5530   30.0810   44.0000 C   0  0  0  0  0  3  0  0  0  0  0  0
   27.0830   29.0850   44.8110 C   0  0  0  0  0  3  0  0  0  0  0  0
   27.4440   29.4430   46.1220 C   0  0  0  0  0  0  0  0  0  0  0  0
   27.2470   30.7300   46.4960 N   0  0  0  0  0  0  0  0  0  0  0  0
   26.7290   31.6630   45.6710 C   0  0  0  0  0  0  0  0  0  0  0  0
   26.3830   31.3290   44.4220 N   0  0  0  0  0  0  0  0  0  0  0  0
   26.5410   33.0090   46.1100 N   0  0  0  0  0  0  0  0  0  0  0  0
   25.9910   33.2700   47.3830 C   0  0  0  0  0  0  0  0  0  0  0  0
   25.4850   32.2750   48.0610 N   0  0  0  0  0  0  0  0  0  0  0  0
   25.9900   34.6110   47.9230 N   0  0  0  0  0  0  0  0  0  0  0  0
   25.0580   32.4830   48.9930 H   0  0  0  0  0  0  0  0  0  0  0  0
   26.8080   33.7920   45.4950 H   0  0  0  0  0  0  0  0  0  0  0  0
   25.5860   34.7920   48.8530 H   0  0  0  0  0  0  0  0  0  0  0  0
   26.3920   35.3870   47.3770 H   0  0  0  0  0  0  0  0  0  0  0  0
   32.9320   28.9550   47.0450 C   0  0  0  0  0  0  0  0  0  0  0  0
   33.2840   29.2550   45.7490 C   0  0  0  0  0  3  0  0  0  0  0  0
   34.5160   29.7270   45.3540 C   0  0  0  0  0  3  0  0  0  0  0  0
   35.5030   29.9300   46.2880 C   0  0  0  0  0  3  0  0  0  0  0  0
   35.2140   29.6490   47.6050 C   0  0  0  0  0  0  0  0  0  0  0  0
   36.2030   29.8540   48.5380 C   0  0  0  0  0  3  0  0  0  0  0  0
   35.9820   29.5930   49.8730 C   0  0  0  0  0  3  0  0  0  0  0  0
   34.7210   29.1190   50.2200 C   0  0  0  0  0  3  0  0  0  0  0  0
   33.7700   28.9320   49.2470 C   0  0  0  0  0  3  0  0  0  0  0  0
   33.9600   29.1820   47.9140 C   0  0  0  0  0  0  0  0  0  0  0  0
  1  9  1  0  0  0  0
  1  2  1  0  0  0  0
  2  3  2  0  0  0  0
  4  3  1  0  0  0  0
  4  5  1  0  0  0  0
  6  5  2  0  0  0  0
  7  6  1  0  0  0  0
  8  9  1  0  0  0  0
  8  7  2  0  0  0  0
  9  4  2  0  0  0  0
 10 15  2  0  0  0  0
 10 11  1  0  0  0  0
 11 12  2  0  0  0  0
 12 13  1  0  0  0  0
 12  1  1  0  0  0  0
 14 16  1  0  0  0  0
 14 13  2  0  0  0  0
 15 14  1  0  0  0  0
 16 17  1  0  0  0  0
 17 19  1  0  0  0  0
 17 18  2  0  0  0  0
 18 20  1  0  0  0  0
 19 22  1  0  0  0  0
 21 16  1  0  0  0  0
 23 19  1  0  0  0  0
 24  7  1  0  0  0  0
 24 33  1  0  0  0  0
 25 24  2  0  0  0  0
 26 25  1  0  0  0  0
 26 27  2  0  0  0  0
 27 28  1  0  0  0  0
 28 33  2  0  0  0  0
 28 29  1  0  0  0  0
 29 30  2  0  0  0  0
 30 31  1  0  0  0  0
 32 31  2  0  0  0  0
 33 32  1  0  0  0  0
M  END
>  <minimizedAffinity>
-8.28427124

$$$$

 OpenBabel03272514353D

 33 37  0  0  0  0  0  0  0  0999 V2000
   34.5950   29.9990   43.6590 N   0  0  0  0  0  0  0  0  0  0  0  0
   34.9660   29.4690   42.4740 C   0  0  0  0  0  3  0  0  0  0  0  0
   36.3150   29.3370   42.4390 N   0  0  0  0  0  0  0  0  0  0  0  0
   36.7620   29.7980   43.6340 C   0  0  0  0  0  0  0  0  0  0  0  0
   38.0690   29.8570   44.0570 C   0  0  0  0  0  3  0  0  0  0  0  0
   38.2650   30.3580   45.3060 N   0  0  0  0  0  0  0  0  0  0  0  0
   37.2020   30.7720   46.0700 C   0  0  0  0  0  0  0  0  0  0  0  0
   35.9360   30.6960   45.6100 N   0  0  0  0  0  0  0  0  0  0  0  0
   35.6800   30.2110   44.3880 C   0  0  0  0  0  0  0  0  0  0  0  0
   31.2450   29.7370   45.1840 C   0  0  0  0  0  3  0  0  0  0  0  0
   32.5500   29.3860   44.8600 C   0  0  0  0  0  3  0  0  0  0  0  0
   33.2710   30.2700   44.0390 C   0  0  0  0  0  0  0  0  0  0  0  0
   32.6410   31.3960   43.6250 N   0  0  0  0  0  0  0  0  0  0  0  0
   31.3700   31.6930   43.9660 C   0  0  0  0  0  0  0  0  0  0  0  0
   30.6780   30.8560   44.7480 N   0  0  0  0  0  0  0  0  0  0  0  0
   30.7470   32.8920   43.5040 N   0  0  0  0  0  0  0  0  0  0  0  0
   31.4510   34.1140   43.5340 C   0  0  0  0  0  0  0  0  0  0  0  0
   32.5950   34.1620   44.1630 N   0  0  0  0  0  0  0  0  0  0  0  0
   30.9160   35.2880   42.8820 N   0  0  0  0  0  0  0  0  0  0  0  0
   33.0980   35.0790   44.2000 H   0  0  0  0  0  0  0  0  0  0  0  0
   29.7800   32.8650   43.1480 H   0  0  0  0  0  0  0  0  0  0  0  0
   31.4370   36.1760   42.9090 H   0  0  0  0  0  0  0  0  0  0  0  0
   30.0130   35.2370   42.3890 H   0  0  0  0  0  0  0  0  0  0  0  0
   37.6500   31.2680   47.3610 C   0  0  0  0  0  0  0  0  0  0  0  0
   38.4470   32.3850   47.4600 C   0  0  0  0  0  3  0  0  0  0  0  0
   38.9150   32.9220   48.6390 C   0  0  0  0  0  3  0  0  0  0  0  0
   38.5860   32.3320   49.8360 C   0  0  0  0  0  3  0  0  0  0  0  0
   37.7890   31.2100   49.8070 C   0  0  0  0  0  0  0  0  0  0  0  0
   37.4620   30.6220   51.0070 C   0  0  0  0  0  3  0  0  0  0  0  0
   36.6680   29.4960   51.0500 C   0  0  0  0  0  3  0  0  0  0  0  0
   36.2220   28.9950   49.8320 C   0  0  0  0  0  3  0  0  0  0  0  0
   36.5790   29.6220   48.6630 C   0  0  0  0  0  3  0  0  0  0  0  0
   37.3660   30.7400   48.5880 C   0  0  0  0  0  0  0  0  0  0  0  0
  1 12  1  0  0  0  0
  1  9  1  0  0  0  0
  2  1  1  0  0  0  0
  3  2  2  0  0  0  0
  3  4  1  0  0  0  0
  4  5  2  0  0  0  0
  4  9  1  0  0  0  0
  5  6  1  0  0  0  0
  6  7  2  0  0  0  0
  7 24  1  0  0  0  0
  8  7  1  0  0  0  0
  9  8  2  0  0  0  0
 11 10  1  0  0  0  0
 12 11  2  0  0  0  0
 13 14  2  0  0  0  0
 13 12  1  0  0  0  0
 14 15  1  0  0  0  0
 15 10  2  0  0  0  0
 16 17  1  0  0  0  0
 16 14  1  0  0  0  0
 17 18  2  0  0  0  0
 18 20  1  0  0  0  0
 19 22  1  0  0  0  0
 19 17  1  0  0  0  0
 21 16  1  0  0  0  0
 23 19  1  0  0  0  0
 24 25  2  0  0  0  0
 24 33  1  0  0  0  0
 25 26  1  0  0  0  0
 26 27  2  0  0  0  0
 28 27  1  0  0  0  0
 28 29  1  0  0  0  0
 29 30  2  0  0  0  0
 31 30  1  0  0  0  0
 32 31  2  0  0  0  0
 33 32  1  0  0  0  0
 33 28  2  0  0  0  0
M  END
>  <minimizedAffinity>
-8.11621571

$$$$

 OpenBabel03272514353D

 33 37  0  0  0  0  0  0  0  0999 V2000
   29.8170   28.1210   46.6410 N   0  0  0  0  0  0  0  0  0  0  0  0
   29.4900   27.3950   45.5500 C   0  0  0  0  0  3  0  0  0  0  0  0
   30.6160   26.8950   44.9850 N   0  0  0  0  0  0  0  0  0  0  0  0
   31.6420   27.3310   45.7590 C   0  0  0  0  0  0  0  0  0  0  0  0
   32.9800   27.0690   45.5750 C   0  0  0  0  0  3  0  0  0  0  0  0
   33.8210   27.6170   46.4930 N   0  0  0  0  0  0  0  0  0  0  0  0
   33.3320   28.3800   47.5240 C   0  0  0  0  0  0  0  0  0  0  0  0
   32.0100   28.6100   47.6610 N   0  0  0  0  0  0  0  0  0  0  0  0
   31.1320   28.0970   46.7890 C   0  0  0  0  0  0  0  0  0  0  0  0
   27.2670   30.4720   47.9010 C   0  0  0  0  0  3  0  0  0  0  0  0
   28.1520   29.8800   47.0080 C   0  0  0  0  0  3  0  0  0  0  0  0
   28.8970   28.7820   47.4710 C   0  0  0  0  0  0  0  0  0  0  0  0
   28.6960   28.3830   48.7500 N   0  0  0  0  0  0  0  0  0  0  0  0
   27.8240   28.9910   49.5800 C   0  0  0  0  0  0  0  0  0  0  0  0
   27.1110   30.0380   49.1450 N   0  0  0  0  0  0  0  0  0  0  0  0
   27.6470   28.5360   50.9220 N   0  0  0  0  0  0  0  0  0  0  0  0
   27.5410   27.1560   51.1940 C   0  0  0  0  0  0  0  0  0  0  0  0
   27.4150   26.3280   50.1910 N   0  0  0  0  0  0  0  0  0  0  0  0
   27.5730   26.6700   52.5560 N   0  0  0  0  0  0  0  0  0  0  0  0
   27.3130   25.3090   50.4050 H   0  0  0  0  0  0  0  0  0  0  0  0
   27.5960   29.2180   51.6930 H   0  0  0  0  0  0  0  0  0  0  0  0
   27.4950   25.6600   52.7450 H   0  0  0  0  0  0  0  0  0  0  0  0
   27.6730   27.3330   53.3370 H   0  0  0  0  0  0  0  0  0  0  0  0
   34.4100   28.8590   48.3750 C   0  0  0  0  0  0  0  0  0  0  0  0
   34.4340   28.5790   49.7220 C   0  0  0  0  0  3  0  0  0  0  0  0
   35.4130   28.9910   50.5980 C   0  0  0  0  0  3  0  0  0  0  0  0
   36.4690   29.7420   50.1400 C   0  0  0  0  0  3  0  0  0  0  0  0
   36.5050   30.0560   48.8000 C   0  0  0  0  0  0  0  0  0  0  0  0
   37.5630   30.8070   48.3430 C   0  0  0  0  0  3  0  0  0  0  0  0
   37.6620   31.1580   47.0140 C   0  0  0  0  0  3  0  0  0  0  0  0
   36.6470   30.7160   46.1720 C   0  0  0  0  0  3  0  0  0  0  0  0
   35.6130   29.9680   46.6800 C   0  0  0  0  0  3  0  0  0  0  0  0
   35.4880   29.6050   47.9940 C   0  0  0  0  0  0  0  0  0  0  0  0
  1  9  1  0  0  0  0
  1 12  1  0  0  0  0
  2  1  1  0  0  0  0
  3  2  2  0  0  0  0
  3  4  1  0  0  0  0
  4  9  1  0  0  0  0
  5  4  2  0  0  0  0
  5  6  1  0  0  0  0
  6  7  2  0  0  0  0
  7  8  1  0  0  0  0
  7 24  1  0  0  0  0
  9  8  2  0  0  0  0
 10 15  1  0  0  0  0
 11 12  1  0  0  0  0
 11 10  2  0  0  0  0
 12 13  2  0  0  0  0
 13 14  1  0  0  0  0
 14 16  1  0  0  0  0
 15 14  2  0  0  0  0
 16 17  1  0  0  0  0
 16 21  1  0  0  0  0
 17 19  1  0  0  0  0
 18 20  1  0  0  0  0
 18 17  2  0  0  0  0
 19 22  1  0  0  0  0
 19 23  1  0  0  0  0
 24 25  1  0  0  0  0
 25 26  2  0  0  0  0
 27 26  1  0  0  0  0
 28 27  2  0  0  0  0
 29 28  1  0  0  0  0
 30 29  2  0  0  0  0
 31 32  2  0  0  0  0
 31 30  1  0  0  0  0
 32 33  1  0  0  0  0
 33 24  2  0  0  0  0
 33 28  1  0  0  0  0
M  END
>  <minimizedAffinity>
-8.1007843

$$$$

 OpenBabel03272514353D

 33 37  0  0  0  0  0  0  0  0999 V2000
   33.8610   28.5940   47.4120 N   0  0  0  0  0  0  0  0  0  0  0  0
   34.2760   28.3420   46.1520 C   0  0  0  0  0  3  0  0  0  0  0  0
   33.2500   27.8260   45.4320 N   0  0  0  0  0  0  0  0  0  0  0  0
   32.1940   27.7690   46.2820 C   0  0  0  0  0  0  0  0  0  0  0  0
   30.9280   27.3150   45.9930 C   0  0  0  0  0  3  0  0  0  0  0  0
   30.0350   27.3630   47.0180 N   0  0  0  0  0  0  0  0  0  0  0  0
   30.4070   27.8380   48.2510 C   0  0  0  0  0  0  0  0  0  0  0  0
   31.6630   28.2710   48.4860 N   0  0  0  0  0  0  0  0  0  0  0  0
   32.5860   28.2490   47.5170 C   0  0  0  0  0  0  0  0  0  0  0  0
   35.4380   29.2410   50.6850 C   0  0  0  0  0  3  0  0  0  0  0  0
   34.6070   28.6430   49.7450 C   0  0  0  0  0  3  0  0  0  0  0  0
   34.6630   29.1360   48.4290 C   0  0  0  0  0  0  0  0  0  0  0  0
   35.5190   30.1550   48.1770 N   0  0  0  0  0  0  0  0  0  0  0  0
   36.3060   30.7040   49.1260 C   0  0  0  0  0  0  0  0  0  0  0  0
   36.2580   30.2390   50.3800 N   0  0  0  0  0  0  0  0  0  0  0  0
   37.1930   31.7780   48.8130 N   0  0  0  0  0  0  0  0  0  0  0  0
   37.9760   31.7330   47.6400 C   0  0  0  0  0  0  0  0  0  0  0  0
   38.0180   30.6190   46.9590 N   0  0  0  0  0  0  0  0  0  0  0  0
   38.7160   32.8960   47.2040 N   0  0  0  0  0  0  0  0  0  0  0  0
   38.6200   30.5890   46.1040 H   0  0  0  0  0  0  0  0  0  0  0  0
   37.2610   32.5890   49.4460 H   0  0  0  0  0  0  0  0  0  0  0  0
   39.2850   32.8530   46.3470 H   0  0  0  0  0  0  0  0  0  0  0  0
   38.6740   33.7680   47.7510 H   0  0  0  0  0  0  0  0  0  0  0  0
   29.2930   27.7940   49.1840 C   0  0  0  0  0  0  0  0  0  0  0  0
   29.3510   27.0360   50.3310 C   0  0  0  0  0  3  0  0  0  0  0  0
   28.3450   26.9370   51.2670 C   0  0  0  0  0  3  0  0  0  0  0  0
   27.1730   27.6320   51.0860 C   0  0  0  0  0  3  0  0  0  0  0  0
   27.0510   28.4110   49.9580 C   0  0  0  0  0  0  0  0  0  0  0  0
   25.8770   29.1050   49.7800 C   0  0  0  0  0  3  0  0  0  0  0  0
   25.6870   29.9040   48.6720 C   0  0  0  0  0  3  0  0  0  0  0  0
   26.7340   29.9690   47.7590 C   0  0  0  0  0  3  0  0  0  0  0  0
   27.8850   29.2540   47.9860 C   0  0  0  0  0  3  0  0  0  0  0  0
   28.1020   28.4530   49.0740 C   0  0  0  0  0  0  0  0  0  0  0  0
  1  9  1  0  0  0  0
  1 12  1  0  0  0  0
  2  1  1  0  0  0  0
  3  2  2  0  0  0  0
  3  4  1  0  0  0  0
  4  9  1  0  0  0  0
  5  4  2  0  0  0  0
  5  6  1  0  0  0  0
  6  7  2  0  0  0  0
  7  8  1  0  0  0  0
  7 24  1  0  0  0  0
  9  8  2  0  0  0  0
 11 10  2  0  0  0  0
 12 11  1  0  0  0  0
 13 12  2  0  0  0  0
 13 14  1  0  0  0  0
 14 15  2  0  0  0  0
 15 10  1  0  0  0  0
 16 14  1  0  0  0  0
 16 21  1  0  0  0  0
 17 16  1  0  0  0  0
 18 17  2  0  0  0  0
 19 17  1  0  0  0  0
 19 23  1  0  0  0  0
 20 18  1  0  0  0  0
 22 19  1  0  0  0  0
 24 25  1  0  0  0  0
 25 26  2  0  0  0  0
 27 26  1  0  0  0  0
 28 27  2  0  0  0  0
 29 28  1  0  0  0  0
 30 29  2  0  0  0  0
 31 32  2  0  0  0  0
 31 30  1  0  0  0  0
 32 33  1  0  0  0  0
 33 24  2  0  0  0  0
 33 28  1  0  0  0  0
M  END
>  <minimizedAffinity>
-8.09547997

$$$$

 OpenBabel03272514353D

 33 37  0  0  0  0  0  0  0  0999 V2000
   32.4190   30.0170   44.7370 N   0  0  0  0  0  0  0  0  0  0  0  0
   31.8040   29.0090   44.0820 C   0  0  0  0  0  3  0  0  0  0  0  0
   32.0970   27.8310   44.6850 N   0  0  0  0  0  0  0  0  0  0  0  0
   32.9070   28.1420   45.7280 C   0  0  0  0  0  0  0  0  0  0  0  0
   33.4560   27.2640   46.6330 C   0  0  0  0  0  3  0  0  0  0  0  0
   34.2350   27.8210   47.6000 N   0  0  0  0  0  0  0  0  0  0  0  0
   34.4410   29.1780   47.6380 C   0  0  0  0  0  0  0  0  0  0  0  0
   33.8800   29.9990   46.7250 N   0  0  0  0  0  0  0  0  0  0  0  0
   33.1030   29.5090   45.7510 C   0  0  0  0  0  0  0  0  0  0  0  0
   31.3320   33.5370   44.5260 C   0  0  0  0  0  3  0  0  0  0  0  0
   31.3400   32.2080   44.9310 C   0  0  0  0  0  3  0  0  0  0  0  0
   32.3330   31.3740   44.3870 C   0  0  0  0  0  0  0  0  0  0  0  0
   33.2060   31.9280   43.5110 N   0  0  0  0  0  0  0  0  0  0  0  0
   33.1570   33.2250   43.1480 C   0  0  0  0  0  0  0  0  0  0  0  0
   32.2140   34.0250   43.6620 N   0  0  0  0  0  0  0  0  0  0  0  0
   34.0980   33.7650   42.2190 N   0  0  0  0  0  0  0  0  0  0  0  0
   35.4680   33.4470   42.3330 C   0  0  0  0  0  0  0  0  0  0  0  0
   35.8770   32.8180   43.4020 N   0  0  0  0  0  0  0  0  0  0  0  0
   36.3970   33.8100   41.2870 N   0  0  0  0  0  0  0  0  0  0  0  0
   36.8990   32.6070   43.4880 H   0  0  0  0  0  0  0  0  0  0  0  0
   33.7760   34.3880   41.4640 H   0  0  0  0  0  0  0  0  0  0  0  0
   37.3950   33.5740   41.3780 H   0  0  0  0  0  0  0  0  0  0  0  0
   36.0610   34.3060   40.4490 H   0  0  0  0  0  0  0  0  0  0  0  0
   35.3020   29.5440   48.7510 C   0  0  0  0  0  0  0  0  0  0  0  0
   35.0480   29.0980   50.0280 C   0  0  0  0  0  3  0  0  0  0  0  0
   35.8100   29.3940   51.1360 C   0  0  0  0  0  3  0  0  0  0  0  0
   36.9210   30.1930   51.0080 C   0  0  0  0  0  3  0  0  0  0  0  0
   37.2310   30.6730   49.7550 C   0  0  0  0  0  0  0  0  0  0  0  0
   38.3440   31.4720   49.6290 C   0  0  0  0  0  3  0  0  0  0  0  0
   38.7130   31.9850   48.4050 C   0  0  0  0  0  3  0  0  0  0  0  0
   37.9100   31.6550   47.3180 C   0  0  0  0  0  3  0  0  0  0  0  0
   36.8090   30.8530   47.5000 C   0  0  0  0  0  3  0  0  0  0  0  0
   36.4180   30.3290   48.7020 C   0  0  0  0  0  0  0  0  0  0  0  0
  1  9  1  0  0  0  0
  2  3  2  0  0  0  0
  2  1  1  0  0  0  0
  3  4  1  0  0  0  0
  4  9  2  0  0  0  0
  4  5  1  0  0  0  0
  5  6  2  0  0  0  0
  6  7  1  0  0  0  0
  7 24  1  0  0  0  0
  8  7  2  0  0  0  0
  9  8  1  0  0  0  0
 10 11  1  0  0  0  0
 12  1  1  0  0  0  0
 12 11  2  0  0  0  0
 13 12  1  0  0  0  0
 14 13  2  0  0  0  0
 14 15  1  0  0  0  0
 15 10  2  0  0  0  0
 16 17  1  0  0  0  0
 16 14  1  0  0  0  0
 17 18  2  0  0  0  0
 18 20  1  0  0  0  0
 19 22  1  0  0  0  0
 19 17  1  0  0  0  0
 21 16  1  0  0  0  0
 23 19  1  0  0  0  0
 24 25  1  0  0  0  0
 25 26  2  0  0  0  0
 27 26  1  0  0  0  0
 28 27  2  0  0  0  0
 29 28  1  0  0  0  0
 30 29  2  0  0  0  0
 31 32  2  0  0  0  0
 31 30  1  0  0  0  0
 32 33  1  0  0  0  0
 33 24  2  0  0  0  0
 33 28  1  0  0  0  0
M  END
>  <minimizedAffinity>
-7.96385574

$$$$

 OpenBabel03272514353D

 33 37  0  0  0  0  0  0  0  0999 V2000
   30.0360   27.7720   48.6810 N   0  0  0  0  0  0  0  0  0  0  0  0
   29.6610   27.1410   49.8160 C   0  0  0  0  0  3  0  0  0  0  0  0
   28.3490   27.3820   50.0550 N   0  0  0  0  0  0  0  0  0  0  0  0
   27.9270   28.1760   49.0390 C   0  0  0  0  0  0  0  0  0  0  0  0
   26.6590   28.6750   48.8570 C   0  0  0  0  0  3  0  0  0  0  0  0
   26.4810   29.4480   47.7510 N   0  0  0  0  0  0  0  0  0  0  0  0
   27.5240   29.6950   46.8940 C   0  0  0  0  0  0  0  0  0  0  0  0
   28.7520   29.1830   47.1170 N   0  0  0  0  0  0  0  0  0  0  0  0
   28.9890   28.4150   48.1880 C   0  0  0  0  0  0  0  0  0  0  0  0
   32.8460   27.4630   46.3100 C   0  0  0  0  0  3  0  0  0  0  0  0
   31.5330   27.4780   46.7650 C   0  0  0  0  0  3  0  0  0  0  0  0
   31.3270   27.7370   48.1320 C   0  0  0  0  0  0  0  0  0  0  0  0
   32.4220   27.9520   48.9000 N   0  0  0  0  0  0  0  0  0  0  0  0
   33.6780   27.9260   48.4120 C   0  0  0  0  0  0  0  0  0  0  0  0
   33.8820   27.6810   47.1110 N   0  0  0  0  0  0  0  0  0  0  0  0
   34.8020   28.1580   49.2620 N   0  0  0  0  0  0  0  0  0  0  0  0
   34.7750   29.2080   50.2030 C   0  0  0  0  0  0  0  0  0  0  0  0
   33.7970   30.0720   50.1480 N   0  0  0  0  0  0  0  0  0  0  0  0
   35.8090   29.3240   51.2070 N   0  0  0  0  0  0  0  0  0  0  0  0
   33.7980   30.8610   50.8360 H   0  0  0  0  0  0  0  0  0  0  0  0
   35.6350   27.5550   49.1870 H   0  0  0  0  0  0  0  0  0  0  0  0
   35.7810   30.0940   51.8900 H   0  0  0  0  0  0  0  0  0  0  0  0
   36.5750   28.6360   51.2390 H   0  0  0  0  0  0  0  0  0  0  0  0
   27.1010   30.5410   45.7890 C   0  0  0  0  0  0  0  0  0  0  0  0
   27.3530   30.1890   44.4830 C   0  0  0  0  0  3  0  0  0  0  0  0
   26.9880   30.9290   43.3800 C   0  0  0  0  0  3  0  0  0  0  0  0
   26.3190   32.1180   43.5450 C   0  0  0  0  0  3  0  0  0  0  0  0
   26.0360   32.5270   44.8280 C   0  0  0  0  0  0  0  0  0  0  0  0
   25.3660   33.7180   44.9900 C   0  0  0  0  0  3  0  0  0  0  0  0
   25.0500   34.1870   46.2470 C   0  0  0  0  0  3  0  0  0  0  0  0
   25.4400   33.4020   47.3270 C   0  0  0  0  0  3  0  0  0  0  0  0
   26.1070   32.2210   47.1080 C   0  0  0  0  0  3  0  0  0  0  0  0
   26.4350   31.7300   45.8730 C   0  0  0  0  0  0  0  0  0  0  0  0
  1  2  1  0  0  0  0
  2  3  2  0  0  0  0
  4  3  1  0  0  0  0
  5  4  1  0  0  0  0
  6  5  2  0  0  0  0
  7  8  2  0  0  0  0
  7  6  1  0  0  0  0
  8  9  1  0  0  0  0
  9  1  1  0  0  0  0
  9  4  2  0  0  0  0
 10 11  2  0  0  0  0
 10 15  1  0  0  0  0
 11 12  1  0  0  0  0
 12  1  1  0  0  0  0
 12 13  2  0  0  0  0
 14 13  1  0  0  0  0
 14 16  1  0  0  0  0
 15 14  2  0  0  0  0
 16 17  1  0  0  0  0
 17 19  1  0  0  0  0
 18 17  2  0  0  0  0
 18 20  1  0  0  0  0
 19 23  1  0  0  0  0
 19 22  1  0  0  0  0
 21 16  1  0  0  0  0
 24 33  1  0  0  0  0
 24  7  1  0  0  0  0
 25 24  2  0  0  0  0
 26 27  2  0  0  0  0
 26 25  1  0  0  0  0
 27 28  1  0  0  0  0
 28 29  2  0  0  0  0
 28 33  1  0  0  0  0
 29 30  1  0  0  0  0
 30 31  2  0  0  0  0
 32 31  1  0  0  0  0
 33 32  2  0  0  0  0
M  END
>  <minimizedAffinity>
-7.91311216

$$$$
