cyclohexane
  PyMOL2.5          3D                             0

 41 43  0  0  0  0  0  0  0  0999 V2000
   38.8139   25.7081   32.1962 C   0  0  0  0  0  0  0  0  0  0  0  0
   38.1675   26.7013   31.2127 C   0  0  0  0  0  0  0  0  0  0  0  0
   36.7829   28.8469   31.1991 C   0  0  0  0  0  0  0  0  0  0  0  0
   38.4112   26.0590   33.6375 C   0  0  0  0  0  0  0  0  0  0  0  0
   37.1684   26.0222   30.2690 C   0  0  0  0  0  0  0  0  0  0  0  0
   35.2813   29.1167   31.0337 C   0  0  0  0  0  0  0  0  0  0  0  0
   39.0055   25.0520   34.6353 C   0  0  0  0  0  0  0  0  0  0  0  0
   36.0537   26.4001   31.2511 C   0  0  0  0  0  0  0  0  0  0  0  0
   34.8990   29.8630   32.3137 C   0  0  0  0  0  0  0  0  0  0  0  0
   38.5874   23.6156   34.2819 C   0  0  0  0  0  0  0  0  0  0  0  0
   36.9920   27.4611   31.8374 C   0  0  0  0  0  0  0  0  0  0  0  0
   36.0915   30.8002   32.5177 C   0  0  0  0  0  0  0  0  0  0  0  0
   38.9901   23.2647   32.8406 C   0  0  0  0  0  0  0  0  0  0  0  0
   37.3085   29.9430   32.1435 C   0  0  0  0  0  0  0  0  0  0  0  0
   38.3959   24.2717   31.8428 C   0  0  0  0  0  0  0  0  0  0  0  0
   39.0466   27.2225   30.8337 H   0  0  0  0  0  0  0  0  0  0  0  0
   39.8989   25.7778   32.1178 H   0  0  0  0  0  0  0  0  0  0  0  0
   37.3042   28.8593   30.2420 H   0  0  0  0  0  0  0  0  0  0  0  0
   36.9753   27.7145   32.8974 H   0  0  0  0  0  0  0  0  0  0  0  0
   37.0749   26.5563   29.2923 H   0  0  0  0  0  0  0  0  0  0  0  0
   34.6846   28.1851   30.8819 H   0  0  0  0  0  0  0  0  0  0  0  0
   37.3223   24.9248   30.1358 H   0  0  0  0  0  0  0  0  0  0  0  0
   37.2978   26.0548   33.7239 H   0  0  0  0  0  0  0  0  0  0  0  0
   35.1290   26.8051   30.7751 H   0  0  0  0  0  0  0  0  0  0  0  0
   35.1118   29.7837   30.1535 H   0  0  0  0  0  0  0  0  0  0  0  0
   38.7535   27.0926   33.8887 H   0  0  0  0  0  0  0  0  0  0  0  0
   35.8302   25.5810   31.9772 H   0  0  0  0  0  0  0  0  0  0  0  0
   33.9279   30.4073   32.2263 H   0  0  0  0  0  0  0  0  0  0  0  0
   40.1194   25.1289   34.6220 H   0  0  0  0  0  0  0  0  0  0  0  0
   34.8288   29.1448   33.1664 H   0  0  0  0  0  0  0  0  0  0  0  0
   38.6740   25.3018   35.6728 H   0  0  0  0  0  0  0  0  0  0  0  0
   36.0056   31.6625   31.8124 H   0  0  0  0  0  0  0  0  0  0  0  0
   39.0564   22.8950   34.9956 H   0  0  0  0  0  0  0  0  0  0  0  0
   36.1472   31.2081   33.5558 H   0  0  0  0  0  0  0  0  0  0  0  0
   37.4813   23.5122   34.3945 H   0  0  0  0  0  0  0  0  0  0  0  0
   37.7414   29.4786   33.0628 H   0  0  0  0  0  0  0  0  0  0  0  0
   40.1034   23.2689   32.7543 H   0  0  0  0  0  0  0  0  0  0  0  0
   38.1103   30.5597   31.6703 H   0  0  0  0  0  0  0  0  0  0  0  0
   38.6478   22.2311   32.5896 H   0  0  0  0  0  0  0  0  0  0  0  0
   37.2820   24.1949   31.8562 H   0  0  0  0  0  0  0  0  0  0  0  0
   38.7274   24.0221   30.8054 H   0  0  0  0  0  0  0  0  0  0  0  0
  1  2  1  0  0  0  0
  1  4  1  0  0  0  0
  1 15  1  0  0  0  0
  1 17  1  0  0  0  0
  2  5  1  0  0  0  0
  2 11  1  0  0  0  0
  2 16  1  0  0  0  0
  3  6  1  0  0  0  0
  3 14  1  0  0  0  0
  3 18  1  0  0  0  0
  4  7  1  0  0  0  0
  4 23  1  0  0  0  0
  4 26  1  0  0  0  0
  5  8  1  0  0  0  0
  5 20  1  0  0  0  0
  5 22  1  0  0  0  0
  6  9  1  0  0  0  0
  6 21  1  0  0  0  0
  6 25  1  0  0  0  0
  7 10  1  0  0  0  0
  7 29  1  0  0  0  0
  7 31  1  0  0  0  0
  8 11  1  0  0  0  0
  8 24  1  0  0  0  0
  8 27  1  0  0  0  0
  9 12  1  0  0  0  0
  9 28  1  0  0  0  0
  9 30  1  0  0  0  0
 10 13  1  0  0  0  0
 10 33  1  0  0  0  0
 10 35  1  0  0  0  0
  3 11  1  0  0  0  0
 11 19  1  0  0  0  0
 12 14  1  0  0  0  0
 12 32  1  0  0  0  0
 12 34  1  0  0  0  0
 13 15  1  0  0  0  0
 13 37  1  0  0  0  0
 13 39  1  0  0  0  0
 14 36  1  0  0  0  0
 14 38  1  0  0  0  0
 15 40  1  0  0  0  0
 15 41  1  0  0  0  0
M  END
$$$$
