
     RDKit          3D

 28 29  0  0  1  0  0  0  0  0999 V2000
   45.7560   34.1480   41.6610 N   0  0  0  0  0  0  0  0  0  0  0  0
   44.7530   34.2190   40.6330 C   0  0  0  0  0  0  0  0  0  0  0  0
   45.1000   33.3410   39.4550 C   0  0  0  0  0  0  0  0  0  0  0  0
   46.4200   33.5560   38.9430 N   0  0  0  0  0  0  0  0  0  0  0  0
   47.4320   33.7990   39.9100 C   0  0  0  0  0  0  0  0  0  0  0  0
   47.0860   33.7130   41.3530 C   0  0  1  0  0  0  0  0  0  0  0  0
   44.5430   35.9100   44.7380 C   0  0  0  0  0  0  0  0  0  0  0  0
   44.8170   35.6740   43.3940 C   0  0  0  0  0  0  0  0  0  0  0  0
   45.4280   34.5010   42.9960 C   0  0  0  0  0  0  0  0  0  0  0  0
   45.7210   33.6390   44.0170 N   0  0  0  0  0  0  0  0  0  0  0  0
   45.4540   33.8720   45.3150 C   0  0  0  0  0  0  0  0  0  0  0  0
   44.8620   35.0150   45.6730 N   0  0  0  0  0  0  0  0  0  0  0  0
   48.0390   34.6100   42.0890 C   0  0  0  0  0  0  0  0  0  0  0  0
   48.3330   35.7730   41.7340 O   0  0  0  0  0  0  0  0  0  0  0  0
   48.7890   34.3800   43.2780 N   0  0  0  0  0  0  0  0  0  0  0  0
   43.7898   33.8910   41.0510 H   0  0  0  0  0  0  0  0  0  0  0  0
   44.6950   35.2595   40.2808 H   0  0  0  0  0  0  0  0  0  0  0  0
   45.0168   32.2901   39.7693 H   0  0  0  0  0  0  0  0  0  0  0  0
   44.3977   33.5958   38.6476 H   0  0  0  0  0  0  0  0  0  0  0  0
   46.6904   32.7186   38.4077 H   0  0  0  0  0  0  0  0  0  0  0  0
   48.2345   33.0692   39.7270 H   0  0  0  0  0  0  0  0  0  0  0  0
   47.6880   34.8586   39.7630 H   0  0  0  0  0  0  0  0  0  0  0  0
   47.1530   32.6549   41.6462 H   0  0  0  0  0  0  0  0  0  0  0  0
   44.0552   36.8506   45.0336 H   0  0  0  0  0  0  0  0  0  0  0  0
   44.5444   36.4288   42.6417 H   0  0  0  0  0  0  0  0  0  0  0  0
   45.7217   33.1255   46.0773 H   0  0  0  0  0  0  0  0  0  0  0  0
   49.4042   35.1178   43.6497 H   0  0  0  0  0  0  0  0  0  0  0  0
   48.7161   33.4759   43.7661 H   0  0  0  0  0  0  0  0  0  0  0  0
  1  9  1  0
  2  1  1  0
  3  2  1  0
  4  3  1  0
  4  5  1  0
  5  6  1  0
  6  1  1  0
  6 13  1  0
  7 12  2  0
  8  7  1  0
  9  8  2  0
  9 10  1  0
 10 11  2  0
 11 12  1  0
 13 15  1  0
 14 13  2  0
  2 16  1  0
  2 17  1  0
  3 18  1  0
  3 19  1  0
  4 20  1  0
  5 21  1  0
  5 22  1  0
  6 23  1  1
  7 24  1  0
  8 25  1  0
 11 26  1  0
 15 27  1  0
 15 28  1  0
M  ISO  8  16  13  17  13  18  13  19  13  20   5  21  13  22  13  23  13
M  ISO  3  24  14  25  14  26  14
M  END
>  <minimizedAffinity>  (1) 
-4.59435081

>  <minimizedRMSD>  (1) 
0.629050374

$$$$
