
     RDKit          3D

 28 29  0  0  0  0  0  0  0  0999 V2000
   46.0560   34.3076   41.5202 N   0  0  0  0  0  0  0  0  0  0  0  0
   45.0930   34.0765   40.4767 C   0  0  0  0  0  0  0  0  0  0  0  0
   45.6685   33.2356   39.3638 C   0  0  0  0  0  0  0  0  0  0  0  0
   46.9151   33.7271   38.8548 N   0  0  0  0  0  0  0  0  0  0  0  0
   47.8136   34.2600   39.8161 C   0  0  0  0  0  0  0  0  0  0  0  0
   47.4594   34.1834   41.2574 C   0  0  1  0  0  0  0  0  0  0  0  0
   44.5807   36.0486   44.4935 C   0  0  0  0  0  0  0  0  0  0  0  0
   44.9648   35.8197   43.1745 C   0  0  0  0  0  0  0  0  0  0  0  0
   45.6165   34.6540   42.8252 C   0  0  0  0  0  0  0  0  0  0  0  0
   45.8338   33.7902   43.8635 N   0  0  0  0  0  0  0  0  0  0  0  0
   45.4602   34.0171   45.1361 C   0  0  0  0  0  0  0  0  0  0  0  0
   44.8310   35.1532   45.4476 N   0  0  0  0  0  0  0  0  0  0  0  0
   48.1532   35.3233   41.9447 C   0  0  0  0  0  0  0  0  0  0  0  0
   49.0124   36.0558   41.4068 O   0  0  0  0  0  0  0  0  0  0  0  0
   44.2616   33.4722   40.9260 H   0  0  0  0  0  0  0  0  0  0  0  0
   44.6823   34.9891   40.0391 H   0  0  0  0  0  0  0  0  0  0  0  0
   45.8647   32.2284   39.8015 H   0  0  0  0  0  0  0  0  0  0  0  0
   44.9259   33.1419   38.5712 H   0  0  0  0  0  0  0  0  0  0  0  0
   46.6781   34.3941   38.0870 H   0  0  0  0  0  0  0  0  0  0  0  0
   47.9906   35.3219   39.5458 H   0  0  0  0  0  0  0  0  0  0  0  0
   48.7860   33.7371   39.6856 H   0  0  0  0  0  0  0  0  0  0  0  0
   47.8669   33.2508   41.6943 H   0  0  0  0  0  0  0  0  0  0  0  0
   44.0696   37.0048   44.6648 H   0  0  0  0  0  0  0  0  0  0  0  0
   44.7815   36.5173   42.3740 H   0  0  0  0  0  0  0  0  0  0  0  0
   45.6770   33.2736   45.8842 H   0  0  0  0  0  0  0  0  0  0  0  0
   48.0206   35.8137   43.2757 N   0  0  0  0  0  0  0  0  0  0  0  0
   47.0288   35.8600   43.6030 H   0  0  0  0  0  0  0  0  0  0  0  0
   48.8327   36.1002   43.8704 H   0  0  0  0  0  0  0  0  0  0  0  0
  1  9  1  0
  2  1  1  0
  3  2  1  0
  4  3  1  0
  4  5  1  0
  5  6  1  0
  6  1  1  0
  6 13  1  0
  7 12  2  0
  8  7  1  0
  9  8  2  0
  9 10  1  0
 10 11  2  0
 11 12  1  0
 14 13  2  0
  2 15  1  0
  2 16  1  0
  3 17  1  0
  3 18  1  0
  4 19  1  0
  5 20  1  0
  5 21  1  0
  6 22  1  1
  7 23  1  0
  8 24  1  0
 11 25  1  0
 26 27  1  0
 26 28  1  0
 13 26  1  0
M  ISO  8  15  13  16  13  17  13  18  13  19   5  20  13  21  13  22  13
M  ISO  5  23  14  24  14  25  14  27   5  28   5
M  END
>  <DihAtoms>  (1) 
5,12,25,26

>  <DihDeg>  (1) 
62.5897823476365

$$$$
