
     RDKit          3D

 37 39  0  0  0  0  0  0  0  0999 V2000
   47.5789   29.9823   48.2575 C   0  0  1  0  0  0  0  0  0  0  0  0
   47.4528   28.7848   47.3652 C   0  0  0  0  0  0  0  0  0  0  0  0
   48.7151   28.0053   47.1712 C   0  0  0  0  0  0  0  0  0  0  0  0
   49.5104   27.8359   48.4476 C   0  0  0  0  0  0  0  0  0  0  0  0
   49.5971   29.1086   49.2608 C   0  0  0  0  0  0  0  0  0  0  0  0
   49.0837   30.2693   48.4073 C   0  0  2  0  0  0  0  0  0  0  0  0
   45.9231   33.1543   46.2506 C   0  0  0  0  0  0  0  0  0  0  0  0
   45.3563   32.9560   47.5055 C   0  0  0  0  0  0  0  0  0  0  0  0
   45.8195   31.9477   48.2496 C   0  0  0  0  0  0  0  0  0  0  0  0
   46.8425   31.1194   47.7799 C   0  0  0  0  0  0  0  0  0  0  0  0
   47.1727   31.8280   46.1526 S   0  0  0  0  0  0  0  0  0  0  0  0
   44.4184   36.0981   44.5359 C   0  0  0  0  0  0  0  0  0  0  0  0
   45.0541   36.0022   43.2854 C   0  0  0  0  0  0  0  0  0  0  0  0
   45.9598   34.9477   43.0807 C   0  0  0  0  0  0  0  0  0  0  0  0
   46.1615   34.0860   44.1122 N   0  0  0  0  0  0  0  0  0  0  0  0
   45.5346   34.2123   45.2917 C   0  0  0  0  0  0  0  0  0  0  0  0
   44.6566   35.2214   45.5125 N   0  0  0  0  0  0  0  0  0  0  0  0
   49.2246   31.5145   49.2237 C   0  0  0  0  0  0  0  0  0  0  0  0
   49.8971   31.5923   50.2649 O   0  0  0  0  0  0  0  0  0  0  0  0
   47.2173   29.7226   49.2514 H   0  0  0  0  0  0  0  0  0  0  0  0
   46.6507   28.1240   47.7564 H   0  0  0  0  0  0  0  0  0  0  0  0
   47.1145   29.1439   46.3646 H   0  0  0  0  0  0  0  0  0  0  0  0
   49.3467   28.5225   46.4164 H   0  0  0  0  0  0  0  0  0  0  0  0
   48.4603   26.9855   46.8203 H   0  0  0  0  0  0  0  0  0  0  0  0
   50.5544   27.5460   48.1807 H   0  0  0  0  0  0  0  0  0  0  0  0
   49.0583   27.0550   49.0871 H   0  0  0  0  0  0  0  0  0  0  0  0
   48.9298   29.0613   50.1336 H   0  0  0  0  0  0  0  0  0  0  0  0
   50.6167   29.3494   49.5884 H   0  0  0  0  0  0  0  0  0  0  0  0
   49.5795   30.3249   47.4390 H   0  0  0  0  0  0  0  0  0  0  0  0
   44.5650   33.6028   47.8611 H   0  0  0  0  0  0  0  0  0  0  0  0
   45.4976   31.6537   49.2345 H   0  0  0  0  0  0  0  0  0  0  0  0
   43.7104   36.8891   44.7529 H   0  0  0  0  0  0  0  0  0  0  0  0
   44.8426   36.7274   42.5105 H   0  0  0  0  0  0  0  0  0  0  0  0
   46.4653   34.8323   42.1534 H   0  0  0  0  0  0  0  0  0  0  0  0
   48.6568   32.7985   48.9981 N   0  0  0  0  0  0  0  0  0  0  0  0
   47.8400   33.2600   49.4463 H   0  0  0  0  0  0  0  0  0  0  0  0
   49.3327   33.0838   48.2560 H   0  0  0  0  0  0  0  0  0  0  0  0
  1  6  1  0
  2  1  1  0
  3  2  1  0
  3  4  1  0
  4  5  1  0
  6 18  1  0
  6  5  1  0
  7  8  2  0
  8  9  1  0
 10  1  1  0
 10  9  2  0
 11  7  1  0
 11 10  1  0
 12 17  2  0
 13 12  1  0
 14 13  2  0
 14 15  1  0
 15 16  2  0
 16 17  1  0
 16  7  1  0
 18 19  2  0
  1 20  1  1
  2 21  1  0
  2 22  1  0
  3 23  1  0
  3 24  1  0
  4 25  1  0
  4 26  1  0
  5 27  1  0
  5 28  1  0
  6 29  1  6
  8 30  1  0
  9 31  1  0
 12 32  1  0
 13 33  1  0
 14 34  1  0
 35 36  1  0
 35 37  1  0
 18 35  1  0
M  ISO  8  20  13  21  13  22  13  23  13  24  13  25  13  26  13  27  13
M  ISO  8  28  13  29  13  30  14  31  14  32  14  33  14  34  14  36   5
M  ISO  1  37   5
M  END
>  <DihAtoms>  (1) 
5,17,34,35

>  <DihDeg>  (1) 
117.18418471425493

$$$$
