
     RDKit          3D

 37 38  0  0  1  0  0  0  0  0999 V2000
   47.0060   33.8150   42.4660 C   0  0  1  0  0  0  0  0  0  0  0  0
   46.4080   34.6390   41.3420 C   0  0  0  0  0  0  0  0  0  0  0  0
   46.9170   33.8700   40.1380 C   0  0  0  0  0  0  0  0  0  0  0  0
   48.2240   33.2350   40.5650 C   0  0  0  0  0  0  0  0  0  0  0  0
   48.4390   33.7030   41.9940 C   0  0  1  0  0  0  0  0  0  0  0  0
   49.1890   35.0030   42.0540 C   0  0  0  0  0  0  0  0  0  0  0  0
   50.1220   35.0760   43.1330 N   0  0  0  0  0  0  0  0  0  0  0  0
   46.9150   34.4820   43.6940 O   0  0  0  0  0  0  0  0  0  0  0  0
   44.5460   35.4510   44.0620 O   0  0  0  0  0  0  0  0  0  0  0  0
   45.3850   34.2340   44.3410 P   0  0  1  0  0  0  0  0  0  0  0  0
   44.6900   32.8340   43.7270 O   0  0  0  0  0  0  0  0  0  0  0  0
   45.5250   34.0070   46.0030 O   0  0  0  0  0  0  0  0  0  0  0  0
   46.4330   33.0190   46.2340 C   0  0  0  0  0  0  0  0  0  0  0  0
   45.3310   31.3880   49.3900 C   0  0  0  0  0  0  0  0  0  0  0  0
   45.8030   32.3750   48.5130 C   0  0  0  0  0  0  0  0  0  0  0  0
   45.9400   32.0010   47.1770 C   0  0  0  0  0  0  0  0  0  0  0  0
   45.6170   30.7240   46.7990 N   0  0  0  0  0  0  0  0  0  0  0  0
   45.1690   29.8100   47.6770 C   0  0  0  0  0  0  0  0  0  0  0  0
   45.0290   30.1390   48.9560 N   0  0  0  0  0  0  0  0  0  0  0  0
   46.5084   32.8506   42.6458 H   0  0  0  0  0  0  0  0  0  0  0  0
   45.3088   34.6471   41.3842 H   0  0  0  0  0  0  0  0  0  0  0  0
   46.6830   35.7040   41.3567 H   0  0  0  0  0  0  0  0  0  0  0  0
   47.0832   34.5527   39.2917 H   0  0  0  0  0  0  0  0  0  0  0  0
   46.1908   33.1117   39.8100 H   0  0  0  0  0  0  0  0  0  0  0  0
   48.1527   32.1381   40.5238 H   0  0  0  0  0  0  0  0  0  0  0  0
   49.0573   33.5210   39.9064 H   0  0  0  0  0  0  0  0  0  0  0  0
   49.0592   33.0386   42.6136 H   0  0  0  0  0  0  0  0  0  0  0  0
   49.7386   35.1312   41.1098 H   0  0  0  0  0  0  0  0  0  0  0  0
   48.4453   35.7971   42.2165 H   0  0  0  0  0  0  0  0  0  0  0  0
   49.6149   35.0363   44.0286 H   0  0  0  0  0  0  0  0  0  0  0  0
   50.7776   34.2837   43.0742 H   0  0  0  0  0  0  0  0  0  0  0  0
   44.4017   32.2532   44.4751 H   0  0  0  0  0  0  0  0  0  0  0  0
   46.6692   32.5280   45.2784 H   0  0  0  0  0  0  0  0  0  0  0  0
   47.3223   33.4846   46.6838 H   0  0  0  0  0  0  0  0  0  0  0  0
   45.2027   31.6324   50.4548 H   0  0  0  0  0  0  0  0  0  0  0  0
   46.0515   33.3888   48.8601 H   0  0  0  0  0  0  0  0  0  0  0  0
   44.9194   28.7939   47.3375 H   0  0  0  0  0  0  0  0  0  0  0  0
  1  8  1  0
  2  1  1  0
  3  4  1  0
  3  2  1  0
  4  5  1  0
  5  6  1  0
  5  1  1  0
  6  7  1  0
  8 10  1  0
 10  9  2  0
 10 12  1  0
 11 10  1  0
 12 13  1  0
 13 16  1  0
 15 14  2  0
 16 15  1  0
 17 16  2  0
 17 18  1  0
 18 19  2  0
 19 14  1  0
  1 20  1  1
  2 21  1  0
  2 22  1  0
  3 23  1  0
  3 24  1  0
  4 25  1  0
  4 26  1  0
  5 27  1  1
  6 28  1  0
  6 29  1  0
  7 30  1  0
  7 31  1  0
 11 32  1  0
 13 33  1  0
 13 34  1  0
 14 35  1  0
 15 36  1  0
 18 37  1  0
M  ISO  8  20  13  21  13  22  13  23  13  24  13  25  13  26  13  27  13
M  ISO  8  28   8  29   8  30   5  31   5  32   3  33   8  34   8  35  14
M  ISO  2  36  14  37  14
M  END
>  <minimizedAffinity>  (1) 
-5.57340479

>  <minimizedRMSD>  (1) 
0.906831264

$$$$
