
     RDKit          3D

 36 37  0  0  1  0  0  0  0  0999 V2000
   50.2350   34.8720   42.6560 O   0  0  0  0  0  0  0  0  0  0  0  0
   49.0570   34.5680   41.8100 P   0  0  1  0  0  0  0  0  0  0  0  0
   48.9460   35.8120   40.6500 O   0  0  0  0  0  0  0  0  0  0  0  0
   49.3050   33.1010   40.9430 O   0  0  0  0  0  0  0  0  0  0  0  0
   49.6530   31.3930   42.5310 C   0  0  0  0  0  0  0  0  0  0  0  0
   50.1080   32.0950   41.4410 C   0  0  0  0  0  0  0  0  0  0  0  0
   51.3700   31.7500   40.8910 C   0  0  0  0  0  0  0  0  0  0  0  0
   52.0480   30.7420   41.4830 N   0  0  0  0  0  0  0  0  0  0  0  0
   51.5800   30.0900   42.5280 C   0  0  0  0  0  0  0  0  0  0  0  0
   50.3720   30.4280   43.0470 N   0  0  0  0  0  0  0  0  0  0  0  0
   47.2390   30.8850   42.8820 C   0  0  0  0  0  0  0  0  0  0  0  0
   47.0410   30.5450   41.6560 O   0  0  0  0  0  0  0  0  0  0  0  0
   48.5370   31.3390   43.4060 N   0  0  0  0  0  0  0  0  0  0  0  0
   47.6390   34.5100   42.6500 O   0  0  0  0  0  0  0  0  0  0  0  0
   46.5170   34.9580   42.0850 C   0  0  2  0  0  0  0  0  0  0  0  0
   45.5290   35.6590   42.9250 C   0  0  0  0  0  0  0  0  0  0  0  0
   44.1880   35.6450   42.2160 C   0  0  0  0  0  0  0  0  0  0  0  0
   43.6220   34.3750   42.2600 O   0  0  0  0  0  0  0  0  0  0  0  0
   44.6040   33.4000   42.1830 C   0  0  0  0  0  0  0  0  0  0  0  0
   45.7600   33.8570   41.3180 C   0  0  1  0  0  0  0  0  0  0  0  0
   45.3130   34.2740   40.0280 N   0  0  0  0  0  0  0  0  0  0  0  0
   48.8681   36.6855   41.1093 H   0  0  0  0  0  0  0  0  0  0  0  0
   51.7793   32.2811   40.0190 H   0  0  0  0  0  0  0  0  0  0  0  0
   52.1658   29.2750   42.9781 H   0  0  0  0  0  0  0  0  0  0  0  0
   46.3887   30.8331   43.5779 H   0  0  0  0  0  0  0  0  0  0  0  0
   48.6342   31.6137   44.3939 H   0  0  0  0  0  0  0  0  0  0  0  0
   46.9446   35.7257   41.4234 H   0  0  0  0  0  0  0  0  0  0  0  0
   45.4397   35.1484   43.8952 H   0  0  0  0  0  0  0  0  0  0  0  0
   45.8516   36.6969   43.0947 H   0  0  0  0  0  0  0  0  0  0  0  0
   44.3315   35.9402   41.1661 H   0  0  0  0  0  0  0  0  0  0  0  0
   43.5129   36.3509   42.7220 H   0  0  0  0  0  0  0  0  0  0  0  0
   44.9762   33.1844   43.1954 H   0  0  0  0  0  0  0  0  0  0  0  0
   44.1656   32.4977   41.7317 H   0  0  0  0  0  0  0  0  0  0  0  0
   46.4513   33.0240   41.1226 H   0  0  0  0  0  0  0  0  0  0  0  0
   44.5638   34.9729   40.1336 H   0  0  0  0  0  0  0  0  0  0  0  0
   46.1000   34.6899   39.5098 H   0  0  0  0  0  0  0  0  0  0  0  0
  2 14  1  0
  2  1  2  0
  3  2  1  0
  4  6  1  0
  4  2  1  0
  5 10  2  0
  5 13  1  0
  6  5  1  0
  7  6  2  0
  7  8  1  0
  8  9  2  0
  9 10  1  0
 11 13  1  0
 12 11  2  0
 15 14  1  0
 15 16  1  0
 17 18  1  0
 17 16  1  0
 19 18  1  0
 20 15  1  0
 20 19  1  0
 21 20  1  0
  3 22  1  0
  7 23  1  0
  9 24  1  0
 11 25  1  0
 13 26  1  0
 15 27  1  6
 16 28  1  0
 16 29  1  0
 17 30  1  0
 17 31  1  0
 19 32  1  0
 19 33  1  0
 20 34  1  6
 21 35  1  0
 21 36  1  0
M  ISO  8  22   3  23  14  24  14  25   6  27  13  28  13  29  13  30  13
M  ISO  6  31  13  32  13  33  13  34  13  35   5  36   5
M  END
>  <minimizedAffinity>  (1) 
-4.47989702

>  <minimizedRMSD>  (1) 
0.256967694

$$$$
