
     RDKit          3D

 36 38  0  0  0  0  0  0  0  0999 V2000
   46.0570   34.3206   41.5322 N   0  0  0  0  0  0  0  0  0  0  0  0
   45.1013   34.0720   40.4810 C   0  0  0  0  0  0  0  0  0  0  0  0
   45.6731   33.2490   39.3604 C   0  0  0  0  0  0  0  0  0  0  0  0
   46.9395   33.6833   38.8748 N   0  0  0  0  0  0  0  0  0  0  0  0
   47.7969   34.2790   39.8056 C   0  0  0  0  0  0  0  0  0  0  0  0
   47.4671   34.2280   41.2616 C   0  0  1  0  0  0  0  0  0  0  0  0
   44.6026   36.0529   44.5002 C   0  0  0  0  0  0  0  0  0  0  0  0
   44.9820   35.8251   43.1854 C   0  0  0  0  0  0  0  0  0  0  0  0
   45.6089   34.6556   42.8211 C   0  0  0  0  0  0  0  0  0  0  0  0
   45.8004   33.7924   43.8522 N   0  0  0  0  0  0  0  0  0  0  0  0
   45.4377   34.0032   45.1258 C   0  0  0  0  0  0  0  0  0  0  0  0
   44.8327   35.1482   45.4476 N   0  0  0  0  0  0  0  0  0  0  0  0
   48.2065   35.2444   41.9830 C   0  0  0  0  0  0  0  0  0  0  0  0
   48.9522   36.0981   41.3500 O   0  0  0  0  0  0  0  0  0  0  0  0
   44.2241   33.5263   40.8824 H   0  0  0  0  0  0  0  0  0  0  0  0
   44.7234   35.0351   40.0824 H   0  0  0  0  0  0  0  0  0  0  0  0
   44.9504   33.2832   38.5142 H   0  0  0  0  0  0  0  0  0  0  0  0
   45.7294   32.1809   39.6832 H   0  0  0  0  0  0  0  0  0  0  0  0
   46.8962   34.2242   37.9747 H   0  0  0  0  0  0  0  0  0  0  0  0
   47.8936   35.3724   39.5457 H   0  0  0  0  0  0  0  0  0  0  0  0
   48.8233   33.8659   39.6827 H   0  0  0  0  0  0  0  0  0  0  0  0
   47.7748   33.2055   41.6255 H   0  0  0  0  0  0  0  0  0  0  0  0
   44.1213   36.9855   44.7042 H   0  0  0  0  0  0  0  0  0  0  0  0
   44.7988   36.5540   42.4085 H   0  0  0  0  0  0  0  0  0  0  0  0
   45.6417   33.2413   45.8721 H   0  0  0  0  0  0  0  0  0  0  0  0
   48.5191   35.8006   43.2849 C   0  0  0  0  0  0  0  0  0  0  0  0
   47.7945   36.8251   43.8564 C   0  0  0  0  0  0  0  0  0  0  0  0
   46.8654   37.1124   43.3182 H   0  0  0  0  0  0  0  0  0  0  0  0
   47.9482   37.5669   45.0002 C   0  0  0  0  0  0  0  0  0  0  0  0
   49.0702   37.1702   45.6883 C   0  0  0  0  0  0  0  0  0  0  0  0
   49.3479   37.6496   46.6168 H   0  0  0  0  0  0  0  0  0  0  0  0
   49.9198   36.1712   45.2893 C   0  0  0  0  0  0  0  0  0  0  0  0
   50.8070   35.8407   45.8104 H   0  0  0  0  0  0  0  0  0  0  0  0
   49.6158   35.5294   44.1144 C   0  0  0  0  0  0  0  0  0  0  0  0
   47.2906   38.3468   45.3186 H   0  0  0  0  0  0  0  0  0  0  0  0
   50.2947   34.7270   43.7799 H   0  0  0  0  0  0  0  0  0  0  0  0
  1  9  1  0
  2  1  1  0
  3  2  1  0
  4  3  1  0
  4  5  1  0
  5  6  1  0
  6  1  1  0
  6 13  1  0
  7 12  2  0
  8  7  1  0
  9  8  2  0
  9 10  1  0
 10 11  2  0
 11 12  1  0
 14 13  2  0
  2 15  1  0
  2 16  1  0
  3 17  1  0
  3 18  1  0
  4 19  1  0
  5 20  1  0
  5 21  1  0
  6 22  1  1
  7 23  1  0
  8 24  1  0
 11 25  1  0
 26 27  2  0
 27 28  1  0
 27 29  1  0
 29 30  2  0
 30 31  1  0
 30 32  1  0
 32 33  1  0
 32 34  2  0
 34 26  1  0
 29 35  1  0
 34 36  1  0
 13 26  1  0
M  ISO  8  15  13  16  13  17  13  18  13  19   5  20  13  21  13  22  13
M  ISO  6  23  14  24  14  25  14  28  16  31  16  33  16
M  END
>  <DihAtoms>  (1) 
5,12,25,26

>  <DihDeg>  (1) 
28.78943258679294

$$$$
