
     RDKit          3D

 40 42  0  0  0  0  0  0  0  0999 V2000
   44.5670   35.5280   44.8920 C   0  0  0  0  0  0  0  0  0  0  0  0
   45.1500   35.5270   43.6080 C   0  0  0  0  0  0  0  0  0  0  0  0
   46.1710   34.6120   43.3710 C   0  0  0  0  0  0  0  0  0  0  0  0
   46.5510   33.7720   44.3890 N   0  0  0  0  0  0  0  0  0  0  0  0
   45.9690   33.8090   45.5920 C   0  0  0  0  0  0  0  0  0  0  0  0
   44.9660   34.6900   45.8640 N   0  0  0  0  0  0  0  0  0  0  0  0
   46.7700   34.5950   42.0850 N   0  0  0  0  0  0  0  0  0  0  0  0
   47.9650   35.2230   41.9360 C   0  0  0  0  0  0  0  0  0  0  0  0
   48.5620   35.2130   40.6760 C   0  0  0  0  0  0  0  0  0  0  0  0
   47.9250   34.5770   39.6590 C   0  0  0  0  0  0  0  0  0  0  0  0
   48.4800   34.5760   38.5210 O   0  0  0  0  0  0  0  0  0  0  0  0
   46.7370   33.9480   39.7960 N   0  0  0  0  0  0  0  0  0  0  0  0
   46.1960   33.9860   41.0390 C   0  0  0  0  0  0  0  0  0  0  0  0
   45.1060   33.4400   41.2760 O   0  0  0  0  0  0  0  0  0  0  0  0
   46.5600   32.8020   46.5080 C   0  0  0  0  0  0  0  0  0  0  0  0
   45.6010   32.4440   47.6170 C   0  0  0  0  0  0  0  0  0  0  0  0
   45.3870   30.0050   47.6040 C   0  0  0  0  0  0  0  0  0  0  0  0
   46.4660   29.9880   48.2230 O   0  0  0  0  0  0  0  0  0  0  0  0
   44.8780   31.2550   47.2510 N   0  0  0  0  0  0  0  0  0  0  0  0
   44.7360   28.7360   47.2940 C   0  0  0  0  0  0  0  0  0  0  0  0
   43.9650   28.6830   46.1540 C   0  0  0  0  0  0  0  0  0  0  0  0
   43.2980   27.5170   45.7660 C   0  0  0  0  0  0  0  0  0  0  0  0
   43.4840   26.4480   46.6180 C   0  0  0  0  0  0  0  0  0  0  0  0
   44.2380   26.4290   47.7720 C   0  0  0  0  0  0  0  0  0  0  0  0
   44.8640   27.6160   48.0870 C   0  0  0  0  0  0  0  0  0  0  0  0
   43.7565   36.2403   45.1057 H   0  0  0  0  0  0  0  0  0  0  0  0
   44.8112   36.2217   42.8253 H   0  0  0  0  0  0  0  0  0  0  0  0
   48.4488   35.7259   42.7863 H   0  0  0  0  0  0  0  0  0  0  0  0
   49.5290   35.7100   40.5091 H   0  0  0  0  0  0  0  0  0  0  0  0
   46.2734   33.4716   39.0092 H   0  0  0  0  0  0  0  0  0  0  0  0
   46.8016   31.8943   45.9356 H   0  0  0  0  0  0  0  0  0  0  0  0
   47.4681   33.2302   46.9574 H   0  0  0  0  0  0  0  0  0  0  0  0
   46.1629   32.2620   48.5450 H   0  0  0  0  0  0  0  0  0  0  0  0
   44.8946   33.2719   47.7767 H   0  0  0  0  0  0  0  0  0  0  0  0
   43.9911   31.3263   46.7321 H   0  0  0  0  0  0  0  0  0  0  0  0
   43.8712   29.5844   45.5305 H   0  0  0  0  0  0  0  0  0  0  0  0
   42.6782   27.4572   44.8592 H   0  0  0  0  0  0  0  0  0  0  0  0
   42.9763   25.5104   46.3476 H   0  0  0  0  0  0  0  0  0  0  0  0
   44.3334   25.5294   48.3977 H   0  0  0  0  0  0  0  0  0  0  0  0
   45.4821   27.6708   48.9953 H   0  0  0  0  0  0  0  0  0  0  0  0
  1  6  2  0
  2  1  1  0
  3  2  2  0
  3  4  1  0
  4  5  2  0
  5  6  1  0
  5 15  1  0
  7  3  1  0
  8  7  1  0
  9  8  2  0
 10 12  1  0
 10  9  1  0
 11 10  2  0
 12 13  1  0
 13 14  2  0
 13  7  1  0
 15 16  1  0
 17 18  2  0
 19 17  1  0
 19 16  1  0
 20 17  1  0
 20 25  1  0
 21 20  2  0
 22 21  1  0
 22 23  2  0
 23 24  1  0
 24 25  2  0
  1 26  1  0
  2 27  1  0
  8 28  1  0
  9 29  1  0
 12 30  1  0
 15 31  1  0
 15 32  1  0
 16 33  1  0
 16 34  1  0
 19 35  1  0
 21 36  1  0
 22 37  1  0
 23 38  1  0
 24 39  1  0
 25 40  1  0
M  ISO  8  26  14  27  14  28  14  29  14  30   9  31   8  32   8  33   8
M  ISO  6  34   8  36  14  37  14  38  14  39  14  40  14
M  END
>  <minimizedAffinity>  (1) 
-6.65380096

>  <minimizedRMSD>  (1) 
1.46234417

$$$$
