
     RDKit          3D

 36 39  0  0  0  0  0  0  0  0999 V2000
   46.8280   34.9470   42.6580 C   0  0  0  0  0  0  0  0  0  0  0  0
   45.9060   36.0020   42.6090 C   0  0  0  0  0  0  0  0  0  0  0  0
   44.9240   36.0360   43.5850 C   0  0  0  0  0  0  0  0  0  0  0  0
   44.9000   35.0650   44.5240 N   0  0  0  0  0  0  0  0  0  0  0  0
   45.8110   34.0610   44.5350 C   0  0  0  0  0  0  0  0  0  0  0  0
   46.7710   34.0000   43.6090 N   0  0  0  0  0  0  0  0  0  0  0  0
   46.0360   31.7080   45.1640 C   0  0  0  0  0  0  0  0  0  0  0  0
   45.7720   33.0170   45.5630 C   0  0  0  0  0  0  0  0  0  0  0  0
   45.4880   33.2780   46.8880 C   0  0  0  0  0  0  0  0  0  0  0  0
   45.4750   32.2280   47.7910 C   0  0  0  0  0  0  0  0  0  0  0  0
   45.2380   32.1790   49.1140 N   0  0  0  0  0  0  0  0  0  0  0  0
   45.3410   30.9070   49.5610 C   0  0  0  0  0  0  0  0  0  0  0  0
   45.6580   30.0900   48.4830 C   0  0  0  0  0  0  0  0  0  0  0  0
   45.7440   30.9110   47.3760 C   0  0  0  0  0  0  0  0  0  0  0  0
   46.0230   30.6640   46.0590 C   0  0  0  0  0  0  0  0  0  0  0  0
   47.8200   34.9710   41.6180 C   0  0  0  0  0  0  0  0  0  0  0  0
   48.9850   35.4530   41.7100 O   0  0  0  0  0  0  0  0  0  0  0  0
   47.5550   34.4100   40.3010 C   0  0  0  0  0  0  0  0  0  0  0  0
   46.5050   33.5650   40.0020 C   0  0  0  0  0  0  0  0  0  0  0  0
   46.2970   33.0600   38.7390 C   0  0  0  0  0  0  0  0  0  0  0  0
   47.1670   33.4100   37.7340 C   0  0  0  0  0  0  0  0  0  0  0  0
   48.2310   34.2440   37.9570 C   0  0  0  0  0  0  0  0  0  0  0  0
   48.4040   34.7310   39.2470 C   0  0  0  0  0  0  0  0  0  0  0  0
   45.9604   36.7726   41.8260 H   0  0  0  0  0  0  0  0  0  0  0  0
   44.1749   36.8414   43.5955 H   0  0  0  0  0  0  0  0  0  0  0  0
   46.2604   31.5048   44.1065 H   0  0  0  0  0  0  0  0  0  0  0  0
   45.2752   34.3043   47.2218 H   0  0  0  0  0  0  0  0  0  0  0  0
   45.0107   32.9934   49.7022 H   0  0  0  0  0  0  0  0  0  0  0  0
   45.1982   30.5758   50.6002 H   0  0  0  0  0  0  0  0  0  0  0  0
   45.8108   29.0009   48.5067 H   0  0  0  0  0  0  0  0  0  0  0  0
   46.2350   29.6394   45.7194 H   0  0  0  0  0  0  0  0  0  0  0  0
   45.8073   33.2844   40.8048 H   0  0  0  0  0  0  0  0  0  0  0  0
   45.4497   32.3882   38.5372 H   0  0  0  0  0  0  0  0  0  0  0  0
   47.0045   33.0094   36.7225 H   0  0  0  0  0  0  0  0  0  0  0  0
   48.9219   34.5176   37.1459 H   0  0  0  0  0  0  0  0  0  0  0  0
   49.2528   35.4023   39.4440 H   0  0  0  0  0  0  0  0  0  0  0  0
  1  6  1  0
  2  1  2  0
  2  3  1  0
  3  4  2  0
  4  5  1  0
  5  8  1  0
  6  5  2  0
  7  8  2  0
  7 15  1  0
  8  9  1  0
  9 10  2  0
 10 11  1  0
 11 12  1  0
 13 12  2  0
 14 10  1  0
 14 13  1  0
 15 14  2  0
 16 17  2  0
 16  1  1  0
 18 16  1  0
 19 18  2  0
 20 19  1  0
 21 22  1  0
 21 20  2  0
 22 23  2  0
 23 18  1  0
  2 24  1  0
  3 25  1  0
  7 26  1  0
  9 27  1  0
 11 28  1  0
 12 29  1  0
 13 30  1  0
 15 31  1  0
 19 32  1  0
 20 33  1  0
 21 34  1  0
 22 35  1  0
 23 36  1  0
M  ISO  8  24  14  25  14  26  14  27  14  28   9  29  14  30  14  31  14
M  ISO  5  32  14  33  14  34  14  35  14  36  14
M  END
>  <minimizedAffinity>  (1) 
-6.5362134

>  <minimizedRMSD>  (1) 
0.757678211

$$$$
