
     RDKit          3D

 31 33  0  0  0  0  0  0  0  0999 V2000
   45.2683   36.1538   43.1768 C   0  0  0  0  0  0  0  0  0  0  0  0
   45.8697   34.9210   42.9047 C   0  0  0  0  0  0  0  0  0  0  0  0
   45.8320   33.9434   43.9033 C   0  0  0  0  0  0  0  0  0  0  0  0
   45.2262   34.2380   45.0579 N   0  0  0  0  0  0  0  0  0  0  0  0
   44.6451   35.4360   45.3131 C   0  0  0  0  0  0  0  0  0  0  0  0
   44.6799   36.3660   44.3667 N   0  0  0  0  0  0  0  0  0  0  0  0
   46.4507   32.6594   43.6388 C   0  0  0  0  0  0  0  0  0  0  0  0
   45.6582   31.5781   43.3032 C   0  0  0  0  0  0  0  0  0  0  0  0
   46.2685   30.3745   43.0509 C   0  0  0  0  0  0  0  0  0  0  0  0
   47.6559   30.1839   43.1162 C   0  0  0  0  0  0  0  0  0  0  0  0
   48.3888   31.3175   43.4602 C   0  0  0  0  0  0  0  0  0  0  0  0
   47.7648   32.4781   43.7005 N   0  0  0  0  0  0  0  0  0  0  0  0
   46.4996   34.6746   41.6346 C   0  0  0  0  0  0  0  0  0  0  0  0
   47.6623   35.1337   41.4820 O   0  0  0  0  0  0  0  0  0  0  0  0
   45.2545   36.9661   42.4612 H   0  0  0  0  0  0  0  0  0  0  0  0
   44.1938   35.5247   46.2900 H   0  0  0  0  0  0  0  0  0  0  0  0
   44.5694   31.6689   43.2376 H   0  0  0  0  0  0  0  0  0  0  0  0
   45.6751   29.4864   42.7818 H   0  0  0  0  0  0  0  0  0  0  0  0
   48.1454   29.2552   42.9232 H   0  0  0  0  0  0  0  0  0  0  0  0
   49.4644   31.2272   43.5225 H   0  0  0  0  0  0  0  0  0  0  0  0
   45.7497   33.9102   40.6136 C   0  0  0  0  0  0  0  0  0  0  0  0
   46.4788   33.2827   39.5991 C   0  0  0  0  0  0  0  0  0  0  0  0
   47.5302   33.2973   39.5069 H   0  0  0  0  0  0  0  0  0  0  0  0
   45.5728   32.6427   38.7452 C   0  0  0  0  0  0  0  0  0  0  0  0
   44.2195   32.5765   38.7981 C   0  0  0  0  0  0  0  0  0  0  0  0
   43.6788   32.0275   38.0446 H   0  0  0  0  0  0  0  0  0  0  0  0
   43.6418   33.2441   39.8575 C   0  0  0  0  0  0  0  0  0  0  0  0
   42.5703   33.2356   39.9586 H   0  0  0  0  0  0  0  0  0  0  0  0
   44.3902   33.9256   40.7887 C   0  0  0  0  0  0  0  0  0  0  0  0
   46.0643   32.1240   37.9177 H   0  0  0  0  0  0  0  0  0  0  0  0
   43.9166   34.4421   41.6063 H   0  0  0  0  0  0  0  0  0  0  0  0
  1  6  2  0
  2  1  1  0
  2  3  2  0
  3  4  1  0
  4  5  2  0
  6  5  1  0
  7 12  1  0
  7  3  1  0
  8  7  2  0
  9 10  2  0
  9  8  1  0
 10 11  1  0
 11 12  2  0
 13  2  1  0
 14 13  2  0
  1 15  1  0
  5 16  1  0
  8 17  1  0
  9 18  1  0
 10 19  1  0
 11 20  1  0
 21 22  2  0
 22 23  1  0
 22 24  1  0
 24 25  2  0
 25 26  1  0
 25 27  1  0
 27 28  1  0
 27 29  2  0
 29 21  1  0
 24 30  1  0
 29 31  1  0
 13 21  1  0
M  ISO  8  15  14  16  14  17  14  18  14  19  14  20  14  23  16  26  16
M  ISO  1  28  16
M  END
>  <DihAtoms>  (1) 
1,12,20,21

>  <DihDeg>  (1) 
21.548847358507512

$$$$
