
     RDKit          3D

 43 45  0  0  1  0  0  0  0  0999 V2000
   46.6150   34.4530   43.6770 C   0  0  2  0  0  0  0  0  0  0  0  0
   46.1700   33.2850   44.5040 C   0  0  0  0  0  0  0  0  0  0  0  0
   45.4940   34.0310   45.6350 C   0  0  0  0  0  0  0  0  0  0  0  0
   44.8120   35.1470   44.9930 C   0  0  0  0  0  0  0  0  0  0  0  0
   45.3120   35.1820   43.4650 C   0  0  2  0  0  0  0  0  0  0  0  0
   48.2420   34.5480   40.2980 C   0  0  0  0  0  0  0  0  0  0  0  0
   47.6280   35.0400   41.4700 C   0  0  0  0  0  0  0  0  0  0  0  0
   47.2500   34.1150   42.3840 C   0  0  0  0  0  0  0  0  0  0  0  0
   47.4820   32.7620   42.1240 N   0  0  0  0  0  0  0  0  0  0  0  0
   48.0650   32.3310   41.0050 C   0  0  0  0  0  0  0  0  0  0  0  0
   48.4460   33.2220   40.0910 N   0  0  0  0  0  0  0  0  0  0  0  0
   44.3870   34.4590   42.7370 O   0  0  0  0  0  0  0  0  0  0  0  0
   43.3830   34.9670   41.9560 C   0  0  0  0  0  0  0  0  0  0  0  0
   43.9300   35.3850   40.8590 O   0  0  0  0  0  0  0  0  0  0  0  0
   41.9580   35.2730   41.7530 C   0  0  0  0  0  0  0  0  0  0  0  0
   41.3140   35.5820   40.6120 C   0  0  0  0  0  0  0  0  0  0  0  0
   39.8960   35.8970   40.3070 C   0  0  0  0  0  0  0  0  0  0  0  0
   39.3270   34.7190   39.5960 C   0  0  0  0  0  0  0  0  0  0  0  0
   38.8330   33.6320   40.2900 C   0  0  0  0  0  0  0  0  0  0  0  0
   38.2980   32.5240   39.6730 C   0  0  0  0  0  0  0  0  0  0  0  0
   38.2610   32.5160   38.2830 C   0  0  0  0  0  0  0  0  0  0  0  0
   38.7510   33.5930   37.5720 C   0  0  0  0  0  0  0  0  0  0  0  0
   39.2840   34.7000   38.2130 C   0  0  0  0  0  0  0  0  0  0  0  0
   47.4103   35.0229   44.1798 H   0  0  0  0  0  0  0  0  0  0  0  0
   45.4662   32.6391   43.9586 H   0  0  0  0  0  0  0  0  0  0  0  0
   46.9685   32.5922   44.8081 H   0  0  0  0  0  0  0  0  0  0  0  0
   44.7717   33.3808   46.1503 H   0  0  0  0  0  0  0  0  0  0  0  0
   46.2125   34.3677   46.3968 H   0  0  0  0  0  0  0  0  0  0  0  0
   43.7229   34.9976   45.0315 H   0  0  0  0  0  0  0  0  0  0  0  0
   45.0392   36.0943   45.5039 H   0  0  0  0  0  0  0  0  0  0  0  0
   45.4207   36.1419   42.9389 H   0  0  0  0  0  0  0  0  0  0  0  0
   48.5658   35.2627   39.5270 H   0  0  0  0  0  0  0  0  0  0  0  0
   47.4655   36.1158   41.6320 H   0  0  0  0  0  0  0  0  0  0  0  0
   48.2289   31.2560   40.8391 H   0  0  0  0  0  0  0  0  0  0  0  0
   41.3332   35.2455   42.6579 H   0  0  0  0  0  0  0  0  0  0  0  0
   41.9698   35.6058   39.7292 H   0  0  0  0  0  0  0  0  0  0  0  0
   39.3412   36.0787   41.2393 H   0  0  0  0  0  0  0  0  0  0  0  0
   39.8216   36.8017   39.6858 H   0  0  0  0  0  0  0  0  0  0  0  0
   38.8688   33.6527   41.3892 H   0  0  0  0  0  0  0  0  0  0  0  0
   37.9137   31.6756   40.2583 H   0  0  0  0  0  0  0  0  0  0  0  0
   37.8409   31.6506   37.7495 H   0  0  0  0  0  0  0  0  0  0  0  0
   38.7177   33.5721   36.4727 H   0  0  0  0  0  0  0  0  0  0  0  0
   39.6673   35.5511   37.6310 H   0  0  0  0  0  0  0  0  0  0  0  0
  1  2  1  0
  2  3  1  0
  4  3  1  0
  5  1  1  0
  5  4  1  0
  6  7  2  0
  7  8  1  0
  8  1  1  0
  9  8  2  0
 10  9  1  0
 11  6  1  0
 11 10  2  0
 12  5  1  0
 13 12  1  0
 14 13  2  0
 15 13  1  0
 16 15  2  0
 17 16  1  0
 18 19  2  0
 18 17  1  0
 20 19  1  0
 21 20  2  0
 22 23  2  0
 22 21  1  0
 23 18  1  0
  1 24  1  1
  2 25  1  0
  2 26  1  0
  3 27  1  0
  3 28  1  0
  4 29  1  0
  4 30  1  0
  5 31  1  6
  6 32  1  0
  7 33  1  0
 10 34  1  0
 15 35  1  0
 16 36  1  0
 17 37  1  0
 17 38  1  0
 19 39  1  0
 20 40  1  0
 21 41  1  0
 22 42  1  0
 23 43  1  0
M  ISO  8  24  13  25  13  26  13  27  13  28  13  29  13  30  13  31  13
M  ISO  8  32  14  33  14  34  14  37   8  38   8  39  14  40  14  41  14
M  ISO  2  42  14  43  14
M  END
>  <minimizedAffinity>  (1) 
-6.3295188

>  <minimizedRMSD>  (1) 
2.37935996

$$$$
