
     RDKit          3D

 38 40  0  0  0  0  0  0  0  0999 V2000
   46.1600   32.5790   46.9410 C   0  0  0  0  0  0  0  0  0  0  0  0
   45.2490   32.6080   47.9470 C   0  0  0  0  0  0  0  0  0  0  0  0
   45.4380   31.7890   49.0430 C   0  0  0  0  0  0  0  0  0  0  0  0
   46.5380   30.9560   49.1120 C   0  0  0  0  0  0  0  0  0  0  0  0
   47.4480   30.9560   48.0620 C   0  0  0  0  0  0  0  0  0  0  0  0
   47.2300   31.7500   47.0360 N   0  0  0  0  0  0  0  0  0  0  0  0
   44.9240   35.0360   44.5280 C   0  0  0  0  0  0  0  0  0  0  0  0
   45.8840   34.9160   43.4990 C   0  0  0  0  0  0  0  0  0  0  0  0
   46.9520   33.9920   43.6350 C   0  0  0  0  0  0  0  0  0  0  0  0
   46.9520   33.2880   44.7770 N   0  0  0  0  0  0  0  0  0  0  0  0
   46.0530   33.4030   45.7380 C   0  0  0  0  0  0  0  0  0  0  0  0
   45.0520   34.2780   45.5970 N   0  0  0  0  0  0  0  0  0  0  0  0
   43.8760   35.9640   44.3600 N   0  0  0  0  0  0  0  0  0  0  0  0
   48.6350   30.1000   48.0660 C   0  0  0  0  0  0  0  0  0  0  0  0
   49.7150   30.3630   48.7800 C   0  0  0  0  0  0  0  0  0  0  0  0
   49.8180   31.5550   49.6420 C   0  0  0  0  0  0  0  0  0  0  0  0
   50.5230   31.1300   50.8880 C   0  0  0  0  0  0  0  0  0  0  0  0
   51.2750   31.9210   51.7390 C   0  0  0  0  0  0  0  0  0  0  0  0
   51.8580   31.3510   52.8520 C   0  0  0  0  0  0  0  0  0  0  0  0
   51.7290   30.0140   53.1700 C   0  0  0  0  0  0  0  0  0  0  0  0
   50.9830   29.2020   52.3390 C   0  0  0  0  0  0  0  0  0  0  0  0
   50.4080   29.7850   51.2280 C   0  0  0  0  0  0  0  0  0  0  0  0
   44.3745   33.2729   47.8902 H   0  0  0  0  0  0  0  0  0  0  0  0
   44.7082   31.8001   49.8660 H   0  0  0  0  0  0  0  0  0  0  0  0
   46.6909   30.3033   49.9841 H   0  0  0  0  0  0  0  0  0  0  0  0
   45.8039   35.5372   42.5947 H   0  0  0  0  0  0  0  0  0  0  0  0
   47.7231   33.8624   42.8613 H   0  0  0  0  0  0  0  0  0  0  0  0
   43.8238   36.5323   43.5025 H   0  0  0  0  0  0  0  0  0  0  0  0
   43.1625   36.0737   45.0947 H   0  0  0  0  0  0  0  0  0  0  0  0
   48.6276   29.1929   47.4438 H   0  0  0  0  0  0  0  0  0  0  0  0
   50.5668   29.6688   48.7297 H   0  0  0  0  0  0  0  0  0  0  0  0
   50.3928   32.3421   49.1319 H   0  0  0  0  0  0  0  0  0  0  0  0
   48.8221   31.9614   49.8723 H   0  0  0  0  0  0  0  0  0  0  0  0
   51.4065   32.9930   51.5302 H   0  0  0  0  0  0  0  0  0  0  0  0
   52.4540   31.9926   53.5177 H   0  0  0  0  0  0  0  0  0  0  0  0
   52.2117   29.6030   54.0689 H   0  0  0  0  0  0  0  0  0  0  0  0
   50.8520   28.1313   52.5542 H   0  0  0  0  0  0  0  0  0  0  0  0
   49.8156   29.1398   50.5626 H   0  0  0  0  0  0  0  0  0  0  0  0
  1  6  1  0
  1  2  2  0
  2  3  1  0
  3  4  2  0
  5 14  1  0
  5  4  1  0
  6  5  2  0
  7 12  2  0
  8  9  2  0
  8  7  1  0
  9 10  1  0
 10 11  2  0
 11  1  1  0
 12 11  1  0
 13  7  1  0
 14 15  2  0
 15 16  1  0
 16 17  1  0
 17 22  1  0
 17 18  2  0
 18 19  1  0
 19 20  2  0
 21 20  1  0
 22 21  2  0
  2 23  1  0
  3 24  1  0
  4 25  1  0
  8 26  1  0
  9 27  1  0
 13 28  1  0
 13 29  1  0
 14 30  1  0
 15 31  1  0
 16 32  1  0
 16 33  1  0
 18 34  1  0
 19 35  1  0
 20 36  1  0
 21 37  1  0
 22 38  1  0
M  ISO  8  23  14  24  14  25  14  26  14  27  14  32   8  33   8  34  14
M  ISO  4  35  14  36  14  37  14  38  14
M  END
>  <minimizedAffinity>  (1) 
-6.90220928

>  <minimizedRMSD>  (1) 
0.485702306

$$$$
