
     RDKit          3D

 38 40  0  0  0  0  0  0  0  0999 V2000
   45.1790   33.3850   41.1880 F   0  0  0  0  0  0  0  0  0  0  0  0
   46.3450   34.0030   41.0480 C   0  0  0  0  0  0  0  0  0  0  0  0
   46.8270   34.7730   42.0880 C   0  0  0  0  0  0  0  0  0  0  0  0
   48.0460   35.4600   42.0340 C   0  0  0  0  0  0  0  0  0  0  0  0
   48.8160   35.3670   40.8760 C   0  0  0  0  0  0  0  0  0  0  0  0
   48.3080   34.5920   39.8590 C   0  0  0  0  0  0  0  0  0  0  0  0
   47.1270   33.9200   39.8970 C   0  0  0  0  0  0  0  0  0  0  0  0
   45.4560   34.0140   45.4080 C   0  0  0  0  0  0  0  0  0  0  0  0
   44.6200   35.1260   45.6390 C   0  0  0  0  0  0  0  0  0  0  0  0
   44.5280   36.1470   44.6410 C   0  0  0  0  0  0  0  0  0  0  0  0
   45.2760   35.9640   43.5090 N   0  0  0  0  0  0  0  0  0  0  0  0
   46.0540   34.8970   43.3310 C   0  0  0  0  0  0  0  0  0  0  0  0
   46.1390   33.9390   44.2700 N   0  0  0  0  0  0  0  0  0  0  0  0
   45.5220   33.0320   46.4090 N   0  0  0  0  0  0  0  0  0  0  0  0
   46.7070   33.1740   38.8270 O   0  0  0  0  0  0  0  0  0  0  0  0
   48.0150   34.6280   37.0360 O   0  0  0  0  0  0  0  0  0  0  0  0
   47.1550   33.3980   37.2250 P   0  0  2  0  0  0  0  0  0  0  0  0
   45.7330   33.5230   36.2800 O   0  0  0  0  0  0  0  0  0  0  0  0
   47.9890   32.0780   36.5700 O   0  0  0  0  0  0  0  0  0  0  0  0
   48.0950   31.9330   35.1990 C   0  0  0  0  0  0  0  0  0  0  0  0
   47.3960   30.8070   34.7560 C   0  0  0  0  0  0  0  0  0  0  0  0
   47.3590   30.4580   33.4110 C   0  0  0  0  0  0  0  0  0  0  0  0
   48.0360   31.2560   32.4950 C   0  0  0  0  0  0  0  0  0  0  0  0
   48.7140   32.3550   32.9440 C   0  0  0  0  0  0  0  0  0  0  0  0
   48.7540   32.7040   34.2780 C   0  0  0  0  0  0  0  0  0  0  0  0
   48.3891   36.0613   42.8888 H   0  0  0  0  0  0  0  0  0  0  0  0
   49.7807   35.8867   40.7800 H   0  0  0  0  0  0  0  0  0  0  0  0
   48.9066   34.5094   38.9398 H   0  0  0  0  0  0  0  0  0  0  0  0
   44.0463   35.2073   46.5740 H   0  0  0  0  0  0  0  0  0  0  0  0
   43.8897   37.0326   44.7761 H   0  0  0  0  0  0  0  0  0  0  0  0
   46.1208   32.2040   46.2795 H   0  0  0  0  0  0  0  0  0  0  0  0
   44.9716   33.1395   47.2730 H   0  0  0  0  0  0  0  0  0  0  0  0
   44.9456   33.5922   36.8761 H   0  0  0  0  0  0  0  0  0  0  0  0
   46.8630   30.1827   35.4882 H   0  0  0  0  0  0  0  0  0  0  0  0
   46.8051   29.5680   33.0776 H   0  0  0  0  0  0  0  0  0  0  0  0
   48.0261   31.0063   31.4238 H   0  0  0  0  0  0  0  0  0  0  0  0
   49.2468   32.9836   32.2153 H   0  0  0  0  0  0  0  0  0  0  0  0
   49.3115   33.5958   34.6003 H   0  0  0  0  0  0  0  0  0  0  0  0
  2  1  1  0
  2  3  2  0
  3 12  1  0
  4  3  1  0
  5  4  2  0
  6  7  2  0
  6  5  1  0
  7  2  1  0
  8  9  2  0
  8 14  1  0
 10  9  1  0
 11 10  2  0
 12 11  1  0
 12 13  2  0
 13  8  1  0
 15  7  1  0
 17 16  2  0
 17 15  1  0
 18 17  1  0
 19 17  1  0
 20 19  1  0
 21 20  2  0
 22 21  1  0
 23 24  1  0
 23 22  2  0
 24 25  2  0
 25 20  1  0
  4 26  1  0
  5 27  1  0
  6 28  1  0
  9 29  1  0
 10 30  1  0
 14 31  1  0
 14 32  1  0
 18 33  1  0
 21 34  1  0
 22 35  1  0
 23 36  1  0
 24 37  1  0
 25 38  1  0
M  ISO  8  26  14  27  14  28  14  29  14  30  14  33   3  34  14  35  14
M  ISO  3  36  14  37  14  38  14
M  END
>  <minimizedAffinity>  (1) 
-6.63474751

>  <minimizedRMSD>  (1) 
2.58976984

$$$$
