
     RDKit          3D

 46 49  0  0  0  0  0  0  0  0999 V2000
   47.0528   34.8066   41.9459 C   0  0  2  0  0  0  0  0  0  0  0  0
   46.2917   34.1668   40.7835 C   0  0  0  0  0  0  0  0  0  0  0  0
   47.4964   33.9974   39.8307 C   0  0  0  0  0  0  0  0  0  0  0  0
   48.6432   33.6327   40.7217 C   0  0  1  0  0  0  0  0  0  0  0  0
   48.1397   33.7833   42.1255 C   0  0  0  0  0  0  0  0  0  0  0  0
   44.5426   35.9859   44.4960 C   0  0  0  0  0  0  0  0  0  0  0  0
   45.2727   35.9620   43.3126 C   0  0  0  0  0  0  0  0  0  0  0  0
   46.1911   34.9311   43.1568 C   0  0  0  0  0  0  0  0  0  0  0  0
   46.3563   33.9689   44.1636 N   0  0  0  0  0  0  0  0  0  0  0  0
   45.6137   34.0461   45.2979 C   0  0  0  0  0  0  0  0  0  0  0  0
   44.7140   35.0491   45.4592 N   0  0  0  0  0  0  0  0  0  0  0  0
   49.1268   32.2085   40.5663 C   0  0  2  0  0  0  0  0  0  0  0  0
   49.7617   31.6154   41.7341 C   0  0  0  0  0  0  0  0  0  0  0  0
   50.5507   31.8833   40.4925 C   0  0  1  0  0  0  0  0  0  0  0  0
   50.9229   30.7636   39.7075 O   0  0  0  0  0  0  0  0  0  0  0  0
   52.0212   30.2196   37.4049 O   0  0  0  0  0  0  0  0  0  0  0  0
   51.8799   31.3112   38.4370 P   0  0  1  0  0  0  0  0  0  0  0  0
   51.1295   32.6474   37.6676 O   0  0  0  0  0  0  0  0  0  0  0  0
   53.3940   31.8009   38.8955 O   0  0  0  0  0  0  0  0  0  0  0  0
   47.4094   35.7642   41.5768 H   0  0  0  0  0  0  0  0  0  0  0  0
   45.5577   34.8595   40.3580 H   0  0  0  0  0  0  0  0  0  0  0  0
   45.9145   33.1817   41.0794 H   0  0  0  0  0  0  0  0  0  0  0  0
   47.2038   33.1807   39.1401 H   0  0  0  0  0  0  0  0  0  0  0  0
   47.6302   34.9394   39.2728 H   0  0  0  0  0  0  0  0  0  0  0  0
   49.4839   34.3231   40.4981 H   0  0  0  0  0  0  0  0  0  0  0  0
   47.7708   32.8724   42.5902 H   0  0  0  0  0  0  0  0  0  0  0  0
   48.9476   34.2830   42.7092 H   0  0  0  0  0  0  0  0  0  0  0  0
   43.8108   36.7727   44.6651 H   0  0  0  0  0  0  0  0  0  0  0  0
   45.1542   36.6939   42.5354 H   0  0  0  0  0  0  0  0  0  0  0  0
   45.8180   33.2574   46.0096 H   0  0  0  0  0  0  0  0  0  0  0  0
   48.4381   31.5791   39.9734 H   0  0  0  0  0  0  0  0  0  0  0  0
   49.6011   30.5799   42.0460 H   0  0  0  0  0  0  0  0  0  0  0  0
   50.0374   32.2818   42.5940 H   0  0  0  0  0  0  0  0  0  0  0  0
   51.2196   32.7313   40.3416 H   0  0  0  0  0  0  0  0  0  0  0  0
   50.2238   32.4044   37.3545 H   0  0  0  0  0  0  0  0  0  0  0  0
   53.9938   33.0272   38.7885 C   0  0  0  0  0  0  0  0  0  0  0  0
   53.5500   34.1892   38.1829 C   0  0  0  0  0  0  0  0  0  0  0  0
   52.5630   34.0702   37.7306 H   0  0  0  0  0  0  0  0  0  0  0  0
   54.3095   35.3274   38.1845 C   0  0  0  0  0  0  0  0  0  0  0  0
   55.5436   35.3563   38.7898 C   0  0  0  0  0  0  0  0  0  0  0  0
   56.0845   36.2996   38.7471 H   0  0  0  0  0  0  0  0  0  0  0  0
   56.0243   34.2276   39.4028 C   0  0  0  0  0  0  0  0  0  0  0  0
   56.9850   34.2921   39.8601 H   0  0  0  0  0  0  0  0  0  0  0  0
   55.2543   33.0963   39.3936 C   0  0  0  0  0  0  0  0  0  0  0  0
   53.8816   36.2025   37.6819 H   0  0  0  0  0  0  0  0  0  0  0  0
   55.7234   32.2458   39.9087 H   0  0  0  0  0  0  0  0  0  0  0  0
  1  5  1  0
  1  8  1  0
  2  1  1  0
  3  4  1  0
  3  2  1  0
  4  5  1  0
  6 11  2  0
  7  6  1  0
  8  7  2  0
  8  9  1  0
  9 10  2  0
 10 11  1  0
 12  4  1  0
 12 13  1  0
 14 12  1  0
 14 13  1  0
 15 14  1  0
 16 17  2  0
 17 19  1  1
 17 15  1  0
 18 17  1  0
  1 20  1  6
  2 21  1  0
  2 22  1  0
  3 23  1  0
  3 24  1  0
  4 25  1  1
  5 26  1  0
  5 27  1  0
  6 28  1  0
  7 29  1  0
 10 30  1  0
 12 31  1  6
 13 32  1  0
 13 33  1  0
 14 34  1  1
 18 35  1  0
 36 37  2  0
 37 38  1  0
 37 39  1  0
 39 40  2  0
 40 41  1  0
 40 42  1  0
 42 43  1  0
 42 44  2  0
 44 36  1  0
 39 45  1  0
 44 46  1  0
 19 36  1  0
M  ISO  8  20  13  21  13  22  13  23  13  24  13  25  13  26  13  27  13
M  ISO  8  28  14  29  14  30  14  31  13  32  13  33  13  34  13  35   3
M  ISO  3  38  16  41  16  43  16
M  END
>  <DihAtoms>  (1) 
16,18,35,36

>  <DihDeg>  (1) 
-80.192363507726

$$$$
