
     RDKit          3D

 42 45  0  0  0  0  0  0  0  0999 V2000
   47.9060   33.8940   42.8810 C   0  0  0  0  0  0  0  0  0  0  0  0
   48.5300   35.1180   42.6270 C   0  0  0  0  0  0  0  0  0  0  0  0
   49.8930   35.1580   42.2950 C   0  0  0  0  0  0  0  0  0  0  0  0
   50.5330   33.9470   42.2440 N   0  0  0  0  0  0  0  0  0  0  0  0
   49.9050   32.7810   42.4950 C   0  0  0  0  0  0  0  0  0  0  0  0
   48.6060   32.7570   42.8090 N   0  0  0  0  0  0  0  0  0  0  0  0
   46.4720   33.9730   43.2250 C   0  0  0  0  0  0  0  0  0  0  0  0
   45.7350   34.9830   42.4670 C   0  0  0  0  0  0  0  0  0  0  0  0
   45.2720   36.1400   43.2770 C   0  0  0  0  0  0  0  0  0  0  0  0
   44.4640   35.7240   44.4980 C   0  0  0  0  0  0  0  0  0  0  0  0
   44.9830   34.4770   45.1740 C   0  0  0  0  0  0  0  0  0  0  0  0
   46.4020   34.1730   44.7500 C   0  0  0  0  0  0  0  0  0  0  0  0
   50.7130   31.5570   42.4010 C   0  0  0  0  0  0  0  0  0  0  0  0
   51.5160   31.4730   41.2900 N   0  0  0  0  0  0  0  0  0  0  0  0
   52.1790   30.2930   41.3610 C   0  0  0  0  0  0  0  0  0  0  0  0
   51.7710   29.6700   42.5160 N   0  0  0  0  0  0  0  0  0  0  0  0
   50.8910   30.4400   43.1310 N   0  0  0  0  0  0  0  0  0  0  0  0
   52.1400   28.4140   43.0880 C   0  0  0  0  0  0  0  0  0  0  0  0
   52.8560   27.3870   42.5000 C   0  0  0  0  0  0  0  0  0  0  0  0
   53.1030   26.2440   43.2410 C   0  0  0  0  0  0  0  0  0  0  0  0
   52.6520   26.1210   44.5380 C   0  0  0  0  0  0  0  0  0  0  0  0
   51.9300   27.1510   45.1390 C   0  0  0  0  0  0  0  0  0  0  0  0
   51.6840   28.2870   44.3980 C   0  0  0  0  0  0  0  0  0  0  0  0
   47.9520   36.0519   42.6873 H   0  0  0  0  0  0  0  0  0  0  0  0
   50.4158   36.1035   42.0883 H   0  0  0  0  0  0  0  0  0  0  0  0
   45.9610   33.0430   42.9351 H   0  0  0  0  0  0  0  0  0  0  0  0
   46.3911   35.3616   41.6694 H   0  0  0  0  0  0  0  0  0  0  0  0
   44.8319   34.4887   42.0797 H   0  0  0  0  0  0  0  0  0  0  0  0
   46.1524   36.7062   43.6152 H   0  0  0  0  0  0  0  0  0  0  0  0
   44.6145   36.7477   42.6380 H   0  0  0  0  0  0  0  0  0  0  0  0
   44.4858   36.5483   45.2261 H   0  0  0  0  0  0  0  0  0  0  0  0
   43.4456   35.4996   44.1481 H   0  0  0  0  0  0  0  0  0  0  0  0
   44.9582   34.6234   46.2639 H   0  0  0  0  0  0  0  0  0  0  0  0
   44.3439   33.6311   44.8805 H   0  0  0  0  0  0  0  0  0  0  0  0
   46.7423   33.2555   45.2524 H   0  0  0  0  0  0  0  0  0  0  0  0
   47.0483   35.0177   45.0305 H   0  0  0  0  0  0  0  0  0  0  0  0
   52.9064   29.9069   40.6318 H   0  0  0  0  0  0  0  0  0  0  0  0
   53.2212   27.4765   41.4662 H   0  0  0  0  0  0  0  0  0  0  0  0
   53.6699   25.4182   42.7863 H   0  0  0  0  0  0  0  0  0  0  0  0
   52.8638   25.2017   45.1038 H   0  0  0  0  0  0  0  0  0  0  0  0
   51.5675   27.0599   46.1735 H   0  0  0  0  0  0  0  0  0  0  0  0
   51.1147   29.1118   44.8514 H   0  0  0  0  0  0  0  0  0  0  0  0
  1  7  1  0
  2  1  2  0
  3  2  1  0
  4  3  2  0
  4  5  1  0
  5  6  2  0
  6  1  1  0
  7 12  1  0
  8  7  1  0
  8  9  1  0
  9 10  1  0
 10 11  1  0
 12 11  1  0
 13  5  1  0
 13 17  2  0
 14 15  2  0
 14 13  1  0
 15 16  1  0
 16 18  1  0
 16 17  1  0
 18 23  1  0
 19 18  2  0
 19 20  1  0
 20 21  2  0
 21 22  1  0
 23 22  2  0
  2 24  1  0
  3 25  1  0
  7 26  1  0
  8 27  1  0
  8 28  1  0
  9 29  1  0
  9 30  1  0
 10 31  1  0
 10 32  1  0
 11 33  1  0
 11 34  1  0
 12 35  1  0
 12 36  1  0
 15 37  1  0
 19 38  1  0
 20 39  1  0
 21 40  1  0
 22 41  1  0
 23 42  1  0
M  ISO  8  24  14  25  14  26  13  27  13  28  13  29  13  30  13  31  13
M  ISO  8  32  13  33  13  34  13  35  13  36  13  37  14  38  14  39  14
M  ISO  3  40  14  41  14  42  14
M  END
>  <minimizedAffinity>  (1) 
-4.24530745

>  <minimizedRMSD>  (1) 
1.22321272

$$$$
