
     RDKit          3D

 39 41  0  0  1  0  0  0  0  0999 V2000
   47.8520   33.9650   41.9800 N   0  0  0  0  0  0  0  0  0  0  0  0
   47.8770   34.8490   40.8760 C   0  0  0  0  0  0  0  0  0  0  0  0
   49.0330   35.7150   41.1860 C   0  0  0  0  0  0  0  0  0  0  0  0
   49.6690   35.2360   42.4770 C   0  0  0  0  0  0  0  0  0  0  0  0
   49.1130   33.8080   42.5800 C   0  0  2  0  0  0  0  0  0  0  0  0
   46.6640   33.3980   42.3720 C   0  0  0  0  0  0  0  0  0  0  0  0
   44.5910   35.8260   44.4090 C   0  0  0  0  0  0  0  0  0  0  0  0
   45.2510   35.2650   43.2820 C   0  0  0  0  0  0  0  0  0  0  0  0
   45.9720   34.0870   43.4420 C   0  0  0  0  0  0  0  0  0  0  0  0
   45.9990   33.5430   44.6800 N   0  0  0  0  0  0  0  0  0  0  0  0
   45.3550   34.0960   45.7670 C   0  0  0  0  0  0  0  0  0  0  0  0
   44.6590   35.2250   45.6300 N   0  0  0  0  0  0  0  0  0  0  0  0
   49.8790   33.0320   41.6970 O   0  0  0  0  0  0  0  0  0  0  0  0
   49.1510   30.9490   43.1760 O   0  0  0  0  0  0  0  0  0  0  0  0
   50.1930   31.4950   42.2310 P   0  0  2  0  0  0  0  0  0  0  0  0
   51.6680   31.5130   43.0660 O   0  0  0  0  0  0  0  0  0  0  0  0
   50.4190   30.4200   40.9130 O   0  0  0  0  0  0  0  0  0  0  0  0
   51.3040   30.8440   39.9090 C   0  0  0  0  0  0  0  0  0  0  0  0
   52.6750   30.8600   40.0410 C   0  0  0  0  0  0  0  0  0  0  0  0
   53.4140   31.3110   38.9470 C   0  0  0  0  0  0  0  0  0  0  0  0
   52.7530   31.7130   37.8050 C   0  0  0  0  0  0  0  0  0  0  0  0
   51.3790   31.6960   37.6740 C   0  0  0  0  0  0  0  0  0  0  0  0
   50.6400   31.2440   38.7690 C   0  0  0  0  0  0  0  0  0  0  0  0
   47.2050   34.8830   40.0058 H   0  0  0  0  0  0  0  0  0  0  0  0
   49.3760   36.5668   40.5804 H   0  0  0  0  0  0  0  0  0  0  0  0
   50.7669   35.2359   42.4083 H   0  0  0  0  0  0  0  0  0  0  0  0
   49.4458   35.8685   43.3489 H   0  0  0  0  0  0  0  0  0  0  0  0
   49.1035   33.3694   43.5887 H   0  0  0  0  0  0  0  0  0  0  0  0
   45.9963   33.3699   41.4983 H   0  0  0  0  0  0  0  0  0  0  0  0
   46.9175   32.4025   42.7654 H   0  0  0  0  0  0  0  0  0  0  0  0
   44.0177   36.7577   44.2939 H   0  0  0  0  0  0  0  0  0  0  0  0
   45.1923   35.7550   42.2989 H   0  0  0  0  0  0  0  0  0  0  0  0
   45.4157   33.6045   46.7492 H   0  0  0  0  0  0  0  0  0  0  0  0
   51.4954   31.5109   44.0408 H   0  0  0  0  0  0  0  0  0  0  0  0
   53.1660   30.5314   40.9689 H   0  0  0  0  0  0  0  0  0  0  0  0
   54.5124   31.3457   38.9946 H   0  0  0  0  0  0  0  0  0  0  0  0
   53.3529   32.0660   36.9532 H   0  0  0  0  0  0  0  0  0  0  0  0
   50.8872   32.0245   36.7465 H   0  0  0  0  0  0  0  0  0  0  0  0
   49.5416   31.2075   38.7226 H   0  0  0  0  0  0  0  0  0  0  0  0
  1  6  1  0
  1  5  1  0
  2  3  2  0
  2  1  1  0
  3  4  1  0
  4  5  1  0
  6  9  1  0
  7 12  2  0
  8  9  2  0
  8  7  1  0
  9 10  1  0
 10 11  2  0
 12 11  1  0
 13 15  1  0
 13  5  1  0
 15 16  1  0
 15 14  2  0
 17 15  1  0
 18 19  2  0
 18 17  1  0
 20 19  1  0
 21 20  2  0
 22 21  1  0
 22 23  2  0
 23 18  1  0
  2 24  1  0
  3 25  1  0
  4 26  1  0
  4 27  1  0
  5 28  1  1
  6 29  1  0
  6 30  1  0
  7 31  1  0
  8 32  1  0
 11 33  1  0
 16 34  1  0
 19 35  1  0
 20 36  1  0
 21 37  1  0
 22 38  1  0
 23 39  1  0
M  ISO  8  24  13  25  13  26  13  27  13  28  13  29   8  30   8  31  14
M  ISO  8  32  14  33  14  34   3  35  14  36  14  37  14  38  14  39  14
M  END
>  <minimizedAffinity>  (1) 
-5.29295921

>  <minimizedRMSD>  (1) 
2.32752919

$$$$
