
     RDKit          3D

 49 52  0  0  1  0  0  0  0  0999 V2000
   47.1000   33.1430   43.1850 C   0  0  0  0  0  0  0  0  0  0  0  0
   48.3170   33.1660   43.5610 O   0  0  0  0  0  0  0  0  0  0  0  0
   46.6080   32.2200   42.2270 N   0  0  0  0  0  0  0  0  0  0  0  0
   45.3730   31.4170   42.2400 C   0  0  0  0  0  0  0  0  0  0  0  0
   44.6180   31.6260   40.9360 C   0  0  0  0  0  0  0  0  0  0  0  0
   45.4210   31.1110   39.7860 C   0  0  0  0  0  0  0  0  0  0  0  0
   46.8660   30.8760   40.2180 C   0  0  0  0  0  0  0  0  0  0  0  0
   47.4000   31.9890   41.0450 C   0  0  2  0  0  0  0  0  0  0  0  0
   45.8040   35.2020   42.9680 C   0  0  0  0  0  0  0  0  0  0  0  0
   46.1960   34.1020   43.7620 C   0  0  0  0  0  0  0  0  0  0  0  0
   45.7110   33.9700   45.0550 C   0  0  0  0  0  0  0  0  0  0  0  0
   44.8670   34.9220   45.5070 N   0  0  0  0  0  0  0  0  0  0  0  0
   44.4790   35.9870   44.7580 C   0  0  0  0  0  0  0  0  0  0  0  0
   44.9580   36.1060   43.4970 N   0  0  0  0  0  0  0  0  0  0  0  0
   46.1350   32.8300   45.8430 C   0  0  0  0  0  0  0  0  0  0  0  0
   45.6400   31.5930   45.5910 C   0  0  0  0  0  0  0  0  0  0  0  0
   46.0660   30.5290   46.3560 C   0  0  0  0  0  0  0  0  0  0  0  0
   46.9890   30.6630   47.3870 C   0  0  0  0  0  0  0  0  0  0  0  0
   47.4640   31.9560   47.6030 C   0  0  0  0  0  0  0  0  0  0  0  0
   47.0320   32.9700   46.8410 N   0  0  0  0  0  0  0  0  0  0  0  0
   48.8550   31.8180   41.3040 C   0  0  0  0  0  0  0  0  0  0  0  0
   49.5660   31.8350   39.9890 C   0  0  0  0  0  0  0  0  0  0  0  0
   50.8100   31.2150   39.8300 C   0  0  0  0  0  0  0  0  0  0  0  0
   51.5260   31.1620   38.6560 C   0  0  0  0  0  0  0  0  0  0  0  0
   50.9800   31.7650   37.5440 C   0  0  0  0  0  0  0  0  0  0  0  0
   49.7660   32.3890   37.6350 C   0  0  0  0  0  0  0  0  0  0  0  0
   49.0820   32.4180   38.8300 C   0  0  0  0  0  0  0  0  0  0  0  0
   45.6289   30.3527   42.3489 H   0  0  0  0  0  0  0  0  0  0  0  0
   44.7408   31.7306   43.0838 H   0  0  0  0  0  0  0  0  0  0  0  0
   43.6601   31.0871   40.9805 H   0  0  0  0  0  0  0  0  0  0  0  0
   44.4377   32.7018   40.7944 H   0  0  0  0  0  0  0  0  0  0  0  0
   45.4007   31.8477   38.9694 H   0  0  0  0  0  0  0  0  0  0  0  0
   44.9888   30.1595   39.4429 H   0  0  0  0  0  0  0  0  0  0  0  0
   46.9122   29.9467   40.8047 H   0  0  0  0  0  0  0  0  0  0  0  0
   47.4808   30.8104   39.3082 H   0  0  0  0  0  0  0  0  0  0  0  0
   47.3085   32.9199   40.4662 H   0  0  0  0  0  0  0  0  0  0  0  0
   46.1811   35.3176   41.9411 H   0  0  0  0  0  0  0  0  0  0  0  0
   43.7886   36.7387   45.1683 H   0  0  0  0  0  0  0  0  0  0  0  0
   44.9069   31.4407   44.7852 H   0  0  0  0  0  0  0  0  0  0  0  0
   45.6580   29.5302   46.1416 H   0  0  0  0  0  0  0  0  0  0  0  0
   47.3221   29.8066   47.9916 H   0  0  0  0  0  0  0  0  0  0  0  0
   48.1962   32.1444   48.4020 H   0  0  0  0  0  0  0  0  0  0  0  0
   49.2204   32.6408   41.9361 H   0  0  0  0  0  0  0  0  0  0  0  0
   49.0401   30.8671   41.8251 H   0  0  0  0  0  0  0  0  0  0  0  0
   51.2510   30.7312   40.7140 H   0  0  0  0  0  0  0  0  0  0  0  0
   52.5012   30.6554   38.6070 H   0  0  0  0  0  0  0  0  0  0  0  0
   51.5190   31.7447   36.5853 H   0  0  0  0  0  0  0  0  0  0  0  0
   49.3326   32.8715   36.7465 H   0  0  0  0  0  0  0  0  0  0  0  0
   48.1075   32.9271   38.8653 H   0  0  0  0  0  0  0  0  0  0  0  0
  1  2  2  0
  1 10  1  0
  3  4  1  0
  3  1  1  0
  5  4  1  0
  6  7  1  0
  6  5  1  0
  7  8  1  0
  8 21  1  0
  8  3  1  0
  9 14  2  0
  9 10  1  0
 10 11  2  0
 11 12  1  0
 11 15  1  0
 13 12  2  0
 14 13  1  0
 15 20  1  0
 16 15  2  0
 16 17  1  0
 17 18  2  0
 18 19  1  0
 20 19  2  0
 22 21  1  0
 23 22  2  0
 24 23  1  0
 25 26  1  0
 25 24  2  0
 26 27  2  0
 27 22  1  0
  4 28  1  0
  4 29  1  0
  5 30  1  0
  5 31  1  0
  6 32  1  0
  6 33  1  0
  7 34  1  0
  7 35  1  0
  8 36  1  6
  9 37  1  0
 13 38  1  0
 16 39  1  0
 17 40  1  0
 18 41  1  0
 19 42  1  0
 21 43  1  0
 21 44  1  0
 23 45  1  0
 24 46  1  0
 25 47  1  0
 26 48  1  0
 27 49  1  0
M  ISO  8  28  13  29  13  30  13  31  13  32  13  33  13  34  13  35  13
M  ISO  8  36  13  37  14  38  14  39  14  40  14  41  14  42  14  43   8
M  ISO  6  44   8  45  14  46  14  47  14  48  14  49  14
M  END
>  <minimizedAffinity>  (1) 
-5.05854893

>  <minimizedRMSD>  (1) 
1.26008642

$$$$
