
     RDKit          3D

 44 48  0  0  1  0  0  0  0  0999 V2000
   45.5790   32.9050   42.3690 C   0  0  0  0  0  0  0  0  0  0  0  0
   44.7300   31.8590   42.4130 N   0  0  0  0  0  0  0  0  0  0  0  0
   43.4930   32.2370   42.0710 C   0  0  0  0  0  0  0  0  0  0  0  0
   43.5580   33.5670   41.8020 N   0  0  0  0  0  0  0  0  0  0  0  0
   44.7940   33.9810   41.9750 N   0  0  0  0  0  0  0  0  0  0  0  0
   40.5130   33.0230   41.6750 O   0  0  0  0  0  0  0  0  0  0  0  0
   41.3020   33.6600   40.9080 C   0  0  0  0  0  0  0  0  0  0  0  0
   42.4710   34.4360   41.3860 C   0  0  2  0  0  0  0  0  0  0  0  0
   42.8630   35.2550   40.1680 C   0  0  0  0  0  0  0  0  0  0  0  0
   42.5330   34.2830   39.0320 C   0  0  0  0  0  0  0  0  0  0  0  0
   41.2450   33.7730   39.4700 N   0  0  0  0  0  0  0  0  0  0  0  0
   40.1190   33.4370   38.6680 C   0  0  0  0  0  0  0  0  0  0  0  0
   40.0610   32.0860   38.3700 C   0  0  0  0  0  0  0  0  0  0  0  0
   39.0370   31.5710   37.6010 C   0  0  0  0  0  0  0  0  0  0  0  0
   38.0480   32.4000   37.1130 C   0  0  0  0  0  0  0  0  0  0  0  0
   38.1380   33.7360   37.4300 C   0  0  0  0  0  0  0  0  0  0  0  0
   39.1430   34.2760   38.1910 C   0  0  0  0  0  0  0  0  0  0  0  0
   47.6490   32.9580   43.9850 C   0  0  1  0  0  0  0  0  0  0  0  0
   47.0160   33.0050   42.6390 C   0  0  2  0  0  0  0  0  0  0  0  0
   47.5180   34.2230   43.2320 C   0  0  0  0  0  0  0  0  0  0  0  0
   46.9460   31.4650   45.8450 C   0  0  0  0  0  0  0  0  0  0  0  0
   46.8610   32.7040   45.2130 C   0  0  0  0  0  0  0  0  0  0  0  0
   46.0420   33.6420   45.7920 C   0  0  0  0  0  0  0  0  0  0  0  0
   45.3790   33.3020   46.9270 N   0  0  0  0  0  0  0  0  0  0  0  0
   45.4740   32.1160   47.5110 C   0  0  0  0  0  0  0  0  0  0  0  0
   46.2730   31.1950   46.9490 N   0  0  0  0  0  0  0  0  0  0  0  0
   42.5998   31.5972   42.0181 H   0  0  0  0  0  0  0  0  0  0  0  0
   42.2415   35.0502   42.2692 H   0  0  0  0  0  0  0  0  0  0  0  0
   42.2676   36.1770   40.0944 H   0  0  0  0  0  0  0  0  0  0  0  0
   43.9073   35.6005   40.1753 H   0  0  0  0  0  0  0  0  0  0  0  0
   43.2812   33.4802   38.9569 H   0  0  0  0  0  0  0  0  0  0  0  0
   42.5235   34.7405   38.0317 H   0  0  0  0  0  0  0  0  0  0  0  0
   40.8428   31.4130   38.7519 H   0  0  0  0  0  0  0  0  0  0  0  0
   39.0093   30.4946   37.3762 H   0  0  0  0  0  0  0  0  0  0  0  0
   37.2238   32.0101   36.4976 H   0  0  0  0  0  0  0  0  0  0  0  0
   37.3571   34.4113   37.0503 H   0  0  0  0  0  0  0  0  0  0  0  0
   39.1663   35.3531   38.4133 H   0  0  0  0  0  0  0  0  0  0  0  0
   48.4732   32.3938   44.4458 H   0  0  0  0  0  0  0  0  0  0  0  0
   47.1829   32.4078   41.7304 H   0  0  0  0  0  0  0  0  0  0  0  0
   48.4138   34.7057   42.8141 H   0  0  0  0  0  0  0  0  0  0  0  0
   47.0833   35.2092   43.4518 H   0  0  0  0  0  0  0  0  0  0  0  0
   47.5931   30.6883   45.4114 H   0  0  0  0  0  0  0  0  0  0  0  0
   45.9262   34.6418   45.3482 H   0  0  0  0  0  0  0  0  0  0  0  0
   44.9136   31.8925   48.4308 H   0  0  0  0  0  0  0  0  0  0  0  0
  1  2  1  0
  1 19  1  0
  3  2  2  0
  4  5  1  0
  4  3  1  0
  5  1  2  0
  7  8  1  0
  7  6  2  0
  8  4  1  0
  9  8  1  0
 10 11  1  0
 10  9  1  0
 11  7  1  0
 12 11  1  0
 13 12  2  0
 14 13  1  0
 15 16  1  0
 15 14  2  0
 16 17  2  0
 17 12  1  0
 18 22  1  0
 19 20  1  0
 19 18  1  0
 20 18  1  0
 21 26  2  0
 22 23  2  0
 22 21  1  0
 23 24  1  0
 24 25  2  0
 26 25  1  0
  3 27  1  0
  8 28  1  1
  9 29  1  0
  9 30  1  0
 10 31  1  0
 10 32  1  0
 13 33  1  0
 14 34  1  0
 15 35  1  0
 16 36  1  0
 17 37  1  0
 18 38  1  6
 19 39  1  6
 20 40  1  0
 20 41  1  0
 21 42  1  0
 23 43  1  0
 25 44  1  0
M  ISO  8  27  14  28  13  29  13  30  13  31  13  32  13  33  14  34  14
M  ISO  8  35  14  36  14  37  14  38  13  39  13  40  13  41  13  42  14
M  ISO  2  43  14  44  14
M  END
>  <minimizedAffinity>  (1) 
-6.07469463

>  <minimizedRMSD>  (1) 
1.55438149

$$$$
