
     RDKit          3D

 35 37  0  0  1  0  0  0  0  0999 V2000
   44.5090   35.5340   45.0980 C   0  0  0  0  0  0  0  0  0  0  0  0
   45.1710   35.5080   43.8650 C   0  0  0  0  0  0  0  0  0  0  0  0
   46.0910   34.5340   43.6450 C   0  0  0  0  0  0  0  0  0  0  0  0
   46.3250   33.6360   44.6270 N   0  0  0  0  0  0  0  0  0  0  0  0
   45.6860   33.6710   45.8030 C   0  0  0  0  0  0  0  0  0  0  0  0
   44.7750   34.6090   46.0600 N   0  0  0  0  0  0  0  0  0  0  0  0
   45.9990   32.6890   46.7850 N   0  0  0  0  0  0  0  0  0  0  0  0
   45.2090   32.3970   47.9660 C   0  0  0  0  0  0  0  0  0  0  0  0
   46.2980   32.1380   48.9990 C   0  0  0  0  0  0  0  0  0  0  0  0
   47.6000   31.9990   48.2470 C   0  0  0  0  0  0  0  0  0  0  0  0
   47.1410   31.7970   46.8160 C   0  0  1  0  0  0  0  0  0  0  0  0
   44.7870   36.5480   42.9620 N   0  0  0  0  0  0  0  0  0  0  0  0
   46.6550   30.0690   46.6270 S   0  0  0  0  0  0  0  0  0  0  0  0
   45.4550   29.8520   45.3210 C   0  0  0  0  0  0  0  0  0  0  0  0
   44.4090   28.9970   45.6920 C   0  0  0  0  0  0  0  0  0  0  0  0
   43.3890   28.7120   44.8100 C   0  0  0  0  0  0  0  0  0  0  0  0
   43.4040   29.2760   43.5520 C   0  0  0  0  0  0  0  0  0  0  0  0
   44.4440   30.1250   43.1820 C   0  0  0  0  0  0  0  0  0  0  0  0
   45.4680   30.4150   44.0600 C   0  0  0  0  0  0  0  0  0  0  0  0
   43.7604   36.3161   45.2928 H   0  0  0  0  0  0  0  0  0  0  0  0
   46.6332   34.4773   42.6896 H   0  0  0  0  0  0  0  0  0  0  0  0
   44.5795   33.2529   48.2508 H   0  0  0  0  0  0  0  0  0  0  0  0
   44.5017   31.5641   47.8395 H   0  0  0  0  0  0  0  0  0  0  0  0
   46.3575   32.9805   49.7037 H   0  0  0  0  0  0  0  0  0  0  0  0
   46.0807   31.2275   49.5768 H   0  0  0  0  0  0  0  0  0  0  0  0
   48.2117   32.9082   48.3424 H   0  0  0  0  0  0  0  0  0  0  0  0
   48.2338   31.1814   48.6208 H   0  0  0  0  0  0  0  0  0  0  0  0
   47.8742   31.9998   46.0214 H   0  0  0  0  0  0  0  0  0  0  0  0
   45.2221   36.6077   42.0303 H   0  0  0  0  0  0  0  0  0  0  0  0
   44.0753   37.2374   43.2432 H   0  0  0  0  0  0  0  0  0  0  0  0
   44.4017   28.5490   46.6966 H   0  0  0  0  0  0  0  0  0  0  0  0
   42.5701   28.0404   45.1072 H   0  0  0  0  0  0  0  0  0  0  0  0
   42.5945   29.0554   42.8406 H   0  0  0  0  0  0  0  0  0  0  0  0
   44.4491   30.5704   42.1762 H   0  0  0  0  0  0  0  0  0  0  0  0
   46.2853   31.0869   43.7591 H   0  0  0  0  0  0  0  0  0  0  0  0
  1  6  2  0
  2  1  1  0
  3  2  2  0
  3  4  1  0
  4  5  2  0
  5  6  1  0
  5  7  1  0
  7 11  1  0
  7  8  1  0
  8  9  1  0
 10  9  1  0
 11 10  1  0
 12  2  1  0
 13 11  1  0
 14 15  2  0
 14 13  1  0
 16 15  1  0
 17 16  2  0
 18 17  1  0
 18 19  2  0
 19 14  1  0
  1 20  1  0
  3 21  1  0
  8 22  1  0
  8 23  1  0
  9 24  1  0
  9 25  1  0
 10 26  1  0
 10 27  1  0
 11 28  1  6
 12 29  1  0
 12 30  1  0
 15 31  1  0
 16 32  1  0
 17 33  1  0
 18 34  1  0
 19 35  1  0
M  ISO  8  20  14  21  14  22  13  23  13  24  13  25  13  26  13  27  13
M  ISO  6  28  13  31  14  32  14  33  14  34  14  35  14
M  END
>  <minimizedAffinity>  (1) 
-5.19264746

>  <minimizedRMSD>  (1) 
0.737074912

$$$$
