
     RDKit          3D

 48 52  0  0  0  0  0  0  0  0999 V2000
   49.8690   30.3550   49.6740 C   0  0  0  0  0  0  0  0  0  0  0  0
   50.0710   31.6250   50.1570 N   0  0  0  0  0  0  0  0  0  0  0  0
   50.7900   31.8940   51.2420 C   0  0  0  0  0  0  0  0  0  0  0  0
   51.3380   30.8650   51.8860 N   0  0  0  0  0  0  0  0  0  0  0  0
   51.1920   29.5960   51.4850 C   0  0  0  0  0  0  0  0  0  0  0  0
   51.7720   28.5240   52.1450 C   0  0  0  0  0  0  0  0  0  0  0  0
   51.6190   27.2490   51.7130 C   0  0  0  0  0  0  0  0  0  0  0  0
   50.8780   26.9930   50.6020 C   0  0  0  0  0  0  0  0  0  0  0  0
   50.2670   28.0330   49.8970 C   0  0  0  0  0  0  0  0  0  0  0  0
   50.4330   29.3110   50.3420 C   0  0  0  0  0  0  0  0  0  0  0  0
   49.4440   27.6350   48.7350 C   0  0  0  0  0  0  0  0  0  0  0  0
   49.4080   26.1140   48.6370 C   0  0  0  0  0  0  0  0  0  0  0  0
   50.4220   25.3600   48.0440 C   0  0  0  0  0  0  0  0  0  0  0  0
   50.4390   23.9910   47.9270 C   0  0  0  0  0  0  0  0  0  0  0  0
   49.3490   23.3260   48.4470 C   0  0  0  0  0  0  0  0  0  0  0  0
   48.2970   23.9820   49.0520 C   0  0  0  0  0  0  0  0  0  0  0  0
   48.3590   25.3560   49.1270 C   0  0  0  0  0  0  0  0  0  0  0  0
   48.9710   30.0680   48.2290 S   0  0  0  0  0  0  0  0  0  0  0  0
   46.1490   32.6170   46.9920 C   0  0  0  0  0  0  0  0  0  0  0  0
   47.2860   31.8430   47.0900 C   0  0  0  0  0  0  0  0  0  0  0  0
   47.4910   31.0040   48.1550 C   0  0  0  0  0  0  0  0  0  0  0  0
   46.5550   30.9140   49.1590 C   0  0  0  0  0  0  0  0  0  0  0  0
   45.4110   31.6550   49.1180 C   0  0  0  0  0  0  0  0  0  0  0  0
   45.2270   32.4940   48.0370 C   0  0  0  0  0  0  0  0  0  0  0  0
   44.7290   35.2930   44.9600 C   0  0  0  0  0  0  0  0  0  0  0  0
   45.4620   35.2170   43.7570 C   0  0  0  0  0  0  0  0  0  0  0  0
   46.4480   34.2430   43.6470 C   0  0  0  0  0  0  0  0  0  0  0  0
   46.6860   33.3870   44.6950 N   0  0  0  0  0  0  0  0  0  0  0  0
   45.9360   33.5070   45.8540 C   0  0  0  0  0  0  0  0  0  0  0  0
   44.9660   34.4480   45.9900 N   0  0  0  0  0  0  0  0  0  0  0  0
   50.9272   32.9269   51.5946 H   0  0  0  0  0  0  0  0  0  0  0  0
   52.3741   28.7139   53.0458 H   0  0  0  0  0  0  0  0  0  0  0  0
   52.0939   26.4216   52.2606 H   0  0  0  0  0  0  0  0  0  0  0  0
   50.7584   25.9562   50.2546 H   0  0  0  0  0  0  0  0  0  0  0  0
   48.4209   28.0189   48.8612 H   0  0  0  0  0  0  0  0  0  0  0  0
   49.8805   28.0522   47.8155 H   0  0  0  0  0  0  0  0  0  0  0  0
   51.2825   25.9096   47.6347 H   0  0  0  0  0  0  0  0  0  0  0  0
   51.2726   23.4574   47.4470 H   0  0  0  0  0  0  0  0  0  0  0  0
   49.3169   22.2287   48.3767 H   0  0  0  0  0  0  0  0  0  0  0  0
   47.4391   23.4275   49.4600 H   0  0  0  0  0  0  0  0  0  0  0  0
   47.5218   25.8841   49.6067 H   0  0  0  0  0  0  0  0  0  0  0  0
   48.0454   31.8999   46.2962 H   0  0  0  0  0  0  0  0  0  0  0  0
   46.7317   30.2352   50.0063 H   0  0  0  0  0  0  0  0  0  0  0  0
   44.6602   31.5866   49.9190 H   0  0  0  0  0  0  0  0  0  0  0  0
   44.3079   33.0969   47.9953 H   0  0  0  0  0  0  0  0  0  0  0  0
   43.9454   36.0581   45.0633 H   0  0  0  0  0  0  0  0  0  0  0  0
   45.2587   35.9103   42.9276 H   0  0  0  0  0  0  0  0  0  0  0  0
   47.0370   34.1578   42.7219 H   0  0  0  0  0  0  0  0  0  0  0  0
  1  2  2  0
  1 10  1  0
  2  3  1  0
  3  4  2  0
  5  4  1  0
  5  6  2  0
  7  6  1  0
  8  7  2  0
  9 10  2  0
  9  8  1  0
 10  5  1  0
 11  9  1  0
 12 11  1  0
 12 17  1  0
 13 12  2  0
 14 13  1  0
 14 15  2  0
 15 16  1  0
 16 17  2  0
 18  1  1  0
 19 20  2  0
 19 24  1  0
 20 21  1  0
 21 18  1  0
 21 22  2  0
 23 22  1  0
 24 23  2  0
 25 30  2  0
 26 25  1  0
 27 26  2  0
 27 28  1  0
 28 29  2  0
 29 30  1  0
 29 19  1  0
  3 31  1  0
  6 32  1  0
  7 33  1  0
  8 34  1  0
 11 35  1  0
 11 36  1  0
 13 37  1  0
 14 38  1  0
 15 39  1  0
 16 40  1  0
 17 41  1  0
 20 42  1  0
 22 43  1  0
 23 44  1  0
 24 45  1  0
 25 46  1  0
 26 47  1  0
 27 48  1  0
M  ISO  8  31  14  32  14  33  14  34  14  35   8  36   8  37  14  38  14
M  ISO  8  39  14  40  14  41  14  42  14  43  14  44  14  45  14  46  14
M  ISO  2  47  14  48  14
M  END
>  <minimizedAffinity>  (1) 
-6.61761522

>  <minimizedRMSD>  (1) 
0.309583992

$$$$
