
     RDKit          3D

 23 24  0  0  0  0  0  0  0  0999 V2000
   44.5594   36.0133   44.4928 C   0  0  0  0  0  0  0  0  0  0  0  0
   45.3085   35.9118   43.3049 C   0  0  0  0  0  0  0  0  0  0  0  0
   46.1954   34.8567   43.1706 C   0  0  0  0  0  0  0  0  0  0  0  0
   46.3040   33.9662   44.1899 N   0  0  0  0  0  0  0  0  0  0  0  0
   45.5694   34.0828   45.3317 C   0  0  0  0  0  0  0  0  0  0  0  0
   44.7077   35.1053   45.4657 N   0  0  0  0  0  0  0  0  0  0  0  0
   46.9576   34.7788   41.9274 C   0  0  0  0  0  0  0  0  0  0  0  0
   43.8829   36.8353   44.5720 H   0  0  0  0  0  0  0  0  0  0  0  0
   45.1785   36.6518   42.5282 H   0  0  0  0  0  0  0  0  0  0  0  0
   45.7301   33.3106   46.0978 H   0  0  0  0  0  0  0  0  0  0  0  0
   47.2701   33.7319   41.6533 H   0  0  0  0  0  0  0  0  0  0  0  0
   46.3605   35.2161   41.0884 H   0  0  0  0  0  0  0  0  0  0  0  0
   48.2158   35.5564   42.1603 C   0  0  0  0  0  0  0  0  0  0  0  0
   48.5647   35.8813   43.4463 C   0  0  0  0  0  0  0  0  0  0  0  0
   47.8972   35.5521   44.2544 H   0  0  0  0  0  0  0  0  0  0  0  0
   49.6726   36.5848   43.8616 C   0  0  0  0  0  0  0  0  0  0  0  0
   50.5176   37.0006   42.8270 C   0  0  0  0  0  0  0  0  0  0  0  0
   51.4060   37.5604   43.1117 H   0  0  0  0  0  0  0  0  0  0  0  0
   50.2063   36.6955   41.5098 C   0  0  0  0  0  0  0  0  0  0  0  0
   50.8898   37.0365   40.7267 H   0  0  0  0  0  0  0  0  0  0  0  0
   49.0706   35.9819   41.1695 C   0  0  0  0  0  0  0  0  0  0  0  0
   49.8500   36.7855   44.9115 H   0  0  0  0  0  0  0  0  0  0  0  0
   48.8124   35.7354   40.1491 H   0  0  0  0  0  0  0  0  0  0  0  0
  1  6  2  0
  2  1  1  0
  3  2  2  0
  3  4  1  0
  4  5  2  0
  5  6  1  0
  7  3  1  0
  1  8  1  0
  2  9  1  0
  5 10  1  0
  7 11  1  0
  7 12  1  0
 13 14  2  0
 14 15  1  0
 14 16  1  0
 16 17  2  0
 17 18  1  0
 17 19  1  0
 19 20  1  0
 19 21  2  0
 21 13  1  0
 16 22  1  0
 21 23  1  0
  7 13  1  0
M  ISO  8   8  14   9  14  10  14  11   8  12   8  15  16  18  16  20  16
M  END
>  <DihAtoms>  (1) 
2,6,12,13

>  <DihDeg>  (1) 
90.00949469141854

$$$$
