
     RDKit          3D

 23 24  0  0  0  0  0  0  0  0999 V2000
   44.5594   36.0133   44.4928 C   0  0  0  0  0  0  0  0  0  0  0  0
   45.3085   35.9118   43.3049 C   0  0  0  0  0  0  0  0  0  0  0  0
   46.1954   34.8567   43.1706 C   0  0  0  0  0  0  0  0  0  0  0  0
   46.3040   33.9662   44.1899 N   0  0  0  0  0  0  0  0  0  0  0  0
   45.5694   34.0828   45.3317 C   0  0  0  0  0  0  0  0  0  0  0  0
   44.7077   35.1053   45.4657 N   0  0  0  0  0  0  0  0  0  0  0  0
   46.9576   34.7788   41.9274 C   0  0  0  0  0  0  0  0  0  0  0  0
   43.8829   36.8353   44.5720 H   0  0  0  0  0  0  0  0  0  0  0  0
   45.1785   36.6518   42.5282 H   0  0  0  0  0  0  0  0  0  0  0  0
   45.7301   33.3106   46.0978 H   0  0  0  0  0  0  0  0  0  0  0  0
   47.2701   33.7319   41.6533 H   0  0  0  0  0  0  0  0  0  0  0  0
   46.3605   35.2161   41.0884 H   0  0  0  0  0  0  0  0  0  0  0  0
   48.2158   35.5564   42.1603 C   0  0  0  0  0  0  0  0  0  0  0  0
   48.1547   36.9265   42.1714 C   0  0  0  0  0  0  0  0  0  0  0  0
   47.1745   37.3946   42.0071 H   0  0  0  0  0  0  0  0  0  0  0  0
   49.1920   37.8099   42.3673 C   0  0  0  0  0  0  0  0  0  0  0  0
   50.4369   37.2064   42.5758 C   0  0  0  0  0  0  0  0  0  0  0  0
   51.2849   37.8691   42.7350 H   0  0  0  0  0  0  0  0  0  0  0  0
   50.5483   35.8235   42.5733 C   0  0  0  0  0  0  0  0  0  0  0  0
   51.5371   35.3861   42.7396 H   0  0  0  0  0  0  0  0  0  0  0  0
   49.4563   34.9986   42.3688 C   0  0  0  0  0  0  0  0  0  0  0  0
   49.0281   38.8809   42.3556 H   0  0  0  0  0  0  0  0  0  0  0  0
   49.5246   33.9197   42.3635 H   0  0  0  0  0  0  0  0  0  0  0  0
  1  6  2  0
  2  1  1  0
  3  2  2  0
  3  4  1  0
  4  5  2  0
  5  6  1  0
  7  3  1  0
  1  8  1  0
  2  9  1  0
  5 10  1  0
  7 11  1  0
  7 12  1  0
 13 14  2  0
 14 15  1  0
 14 16  1  0
 16 17  2  0
 17 18  1  0
 17 19  1  0
 19 20  1  0
 19 21  2  0
 21 13  1  0
 16 22  1  0
 21 23  1  0
  7 13  1  0
M  ISO  8   8  14   9  14  10  14  11   8  12   8  15  16  18  16  20  16
M  END
>  <DihAtoms>  (1) 
2,6,12,13

>  <DihDeg>  (1) 
90.00949469141854

$$$$
