
     RDKit          3D

 27 28  0  0  0  0  0  0  0  0999 V2000
   47.7417   34.8528   42.0922 C   0  0  0  0  0  0  0  0  0  0  0  0
   48.3144   33.8032   42.8317 C   0  0  0  0  0  0  0  0  0  0  0  0
   47.5910   33.2956   43.9100 C   0  0  0  0  0  0  0  0  0  0  0  0
   46.3685   33.8177   44.2177 N   0  0  0  0  0  0  0  0  0  0  0  0
   45.8640   34.8298   43.4701 C   0  0  0  0  0  0  0  0  0  0  0  0
   46.5291   35.3467   42.4237 N   0  0  0  0  0  0  0  0  0  0  0  0
   49.9125   33.1418   42.4064 S   0  0  0  0  0  0  0  0  0  0  0  0
   48.5510   35.3450   40.9689 C   0  0  0  0  0  0  0  0  0  0  0  0
   48.1927   34.6965   39.6483 C   0  0  0  0  0  0  0  0  0  0  0  0
   48.0571   32.4833   44.4659 H   0  0  0  0  0  0  0  0  0  0  0  0
   44.8908   35.1664   43.8019 H   0  0  0  0  0  0  0  0  0  0  0  0
   50.9257   34.0983   42.5562 H   0  0  0  0  0  0  0  0  0  0  0  0
   49.6224   35.3334   41.1729 H   0  0  0  0  0  0  0  0  0  0  0  0
   48.2840   36.4301   40.8419 H   0  0  0  0  0  0  0  0  0  0  0  0
   48.3954   33.6093   39.7373 H   0  0  0  0  0  0  0  0  0  0  0  0
   48.8380   35.1491   38.8799 H   0  0  0  0  0  0  0  0  0  0  0  0
   46.7901   34.9466   39.2969 C   0  0  0  0  0  0  0  0  0  0  0  0
   46.1822   36.1198   39.7270 C   0  0  0  0  0  0  0  0  0  0  0  0
   46.7745   36.8182   40.3152 H   0  0  0  0  0  0  0  0  0  0  0  0
   44.8555   36.4166   39.4276 C   0  0  0  0  0  0  0  0  0  0  0  0
   44.1381   35.4955   38.6740 C   0  0  0  0  0  0  0  0  0  0  0  0
   43.1219   35.7952   38.4844 H   0  0  0  0  0  0  0  0  0  0  0  0
   44.6857   34.3140   38.2184 C   0  0  0  0  0  0  0  0  0  0  0  0
   44.0931   33.6306   37.6384 H   0  0  0  0  0  0  0  0  0  0  0  0
   45.9979   34.1021   38.5592 C   0  0  0  0  0  0  0  0  0  0  0  0
   44.4665   37.3378   39.7961 H   0  0  0  0  0  0  0  0  0  0  0  0
   46.4440   33.1635   38.2010 H   0  0  0  0  0  0  0  0  0  0  0  0
  1  6  1  0
  1  2  2  0
  2  3  1  0
  3  4  2  0
  5  4  1  0
  6  5  2  0
  7  2  1  0
  8  1  1  0
  9  8  1  0
  3 10  1  0
  5 11  1  0
  7 12  1  0
  8 13  1  0
  8 14  1  0
  9 15  1  0
  9 16  1  0
 17 18  2  0
 18 19  1  0
 18 20  1  0
 20 21  2  0
 21 22  1  0
 21 23  1  0
 23 24  1  0
 23 25  2  0
 25 17  1  0
 20 26  1  0
 25 27  1  0
  9 17  1  0
M  ISO  8  10  14  11  14  12  11  13   8  14   8  15   8  16   8  19  16
M  ISO  2  22  16  24  16
M  END
>  <DihAtoms>  (1) 
7,8,16,17

>  <DihDeg>  (1) 
90.00184771525274

$$$$
