
     RDKit          3D

 30 32  0  0  1  0  0  0  0  0999 V2000
   46.0140   33.1250   42.7390 C   0  0  0  0  0  0  0  0  0  0  0  0
   47.3100   32.7360   42.2670 C   0  0  0  0  0  0  0  0  0  0  0  0
   48.1130   32.0100   43.1260 C   0  0  0  0  0  0  0  0  0  0  0  0
   47.6230   31.7110   44.3630 N   0  0  0  0  0  0  0  0  0  0  0  0
   46.4180   32.0790   44.7850 C   0  0  0  0  0  0  0  0  0  0  0  0
   45.6200   32.7920   43.9550 N   0  0  0  0  0  0  0  0  0  0  0  0
   45.9660   31.7200   46.1250 C   0  0  0  0  0  0  0  0  0  0  0  0
   45.6750   30.3970   46.4350 C   0  0  0  0  0  0  0  0  0  0  0  0
   45.2480   30.0810   47.7110 C   0  0  0  0  0  0  0  0  0  0  0  0
   45.1370   31.1200   48.6130 C   0  0  0  0  0  0  0  0  0  0  0  0
   45.4130   32.4540   48.3580 C   0  0  0  0  0  0  0  0  0  0  0  0
   45.8400   32.7330   47.0600 C   0  0  0  0  0  0  0  0  0  0  0  0
   47.7950   33.1040   40.9060 C   0  0  1  0  0  0  0  0  0  0  0  0
   47.1300   34.1440   40.1500 C   0  0  0  0  0  0  0  0  0  0  0  0
   48.4610   34.4620   40.7280 C   0  0  1  0  0  0  0  0  0  0  0  0
   48.5950   35.3900   41.8840 C   0  0  0  0  0  0  0  0  0  0  0  0
   49.2850   36.5430   41.5480 F   0  0  0  0  0  0  0  0  0  0  0  0
   49.2410   34.7740   42.9560 F   0  0  0  0  0  0  0  0  0  0  0  0
   47.3410   35.7710   42.2800 F   0  0  0  0  0  0  0  0  0  0  0  0
   45.3443   33.7035   42.0857 H   0  0  0  0  0  0  0  0  0  0  0  0
   49.1179   31.6829   42.8209 H   0  0  0  0  0  0  0  0  0  0  0  0
   45.7832   29.6104   45.6737 H   0  0  0  0  0  0  0  0  0  0  0  0
   45.0070   29.0461   47.9955 H   0  0  0  0  0  0  0  0  0  0  0  0
   44.7981   30.8656   49.6281 H   0  0  0  0  0  0  0  0  0  0  0  0
   45.3032   33.2360   49.1238 H   0  0  0  0  0  0  0  0  0  0  0  0
   46.0791   33.7685   46.7763 H   0  0  0  0  0  0  0  0  0  0  0  0
   48.0616   32.0577   40.6959 H   0  0  0  0  0  0  0  0  0  0  0  0
   46.2303   34.6241   40.5625 H   0  0  0  0  0  0  0  0  0  0  0  0
   46.7064   34.1975   39.1363 H   0  0  0  0  0  0  0  0  0  0  0  0
   49.4202   34.8341   40.3388 H   0  0  0  0  0  0  0  0  0  0  0  0
  1  6  2  0
  2  1  1  0
  2  3  2  0
  3  4  1  0
  4  5  2  0
  5  7  1  0
  6  5  1  0
  7  8  2  0
  7 12  1  0
  8  9  1  0
  9 10  2  0
 11 10  1  0
 12 11  2  0
 13  2  1  0
 14 15  1  0
 14 13  1  0
 15 13  1  0
 15 16  1  0
 16 19  1  0
 16 18  1  0
 17 16  1  0
  1 20  1  0
  3 21  1  0
  8 22  1  0
  9 23  1  0
 10 24  1  0
 11 25  1  0
 12 26  1  0
 13 27  1  6
 14 28  1  0
 14 29  1  0
 15 30  1  6
M  ISO  8  20  14  21  14  22  14  23  14  24  14  25  14  26  14  27  13
M  ISO  3  28  13  29  13  30  13
M  END
>  <minimizedAffinity>  (1) 
-5.43940592

>  <minimizedRMSD>  (1) 
2.06546259

$$$$
