
     RDKit          3D

 29 31  0  0  0  0  0  0  0  0999 V2000
   44.6237   35.4613   45.1321 C   0  0  0  0  0  0  0  0  0  0  0  0
   45.1026   35.7181   43.7978 C   0  0  0  0  0  0  0  0  0  0  0  0
   46.0461   34.8279   43.3594 C   0  0  0  0  0  0  0  0  0  0  0  0
   46.4915   33.7820   44.1411 N   0  0  0  0  0  0  0  0  0  0  0  0
   46.0119   33.5863   45.3816 C   0  0  0  0  0  0  0  0  0  0  0  0
   45.0720   34.4327   45.8770 N   0  0  0  0  0  0  0  0  0  0  0  0
   46.5381   34.9675   41.9446 C   0  0  0  0  0  0  0  0  0  0  0  0
   48.0560   35.2819   41.9257 C   0  0  0  0  0  0  0  0  0  0  0  0
   47.3905   33.9711   41.4070 C   0  0  0  0  0  0  0  0  0  0  0  0
   44.6505   36.8122   43.0217 N   0  0  0  0  0  0  0  0  0  0  0  0
   43.8755   36.1345   45.5282 H   0  0  0  0  0  0  0  0  0  0  0  0
   46.4579   32.7289   45.8639 H   0  0  0  0  0  0  0  0  0  0  0  0
   45.9492   35.6846   41.3410 H   0  0  0  0  0  0  0  0  0  0  0  0
   48.4365   35.9315   41.1194 H   0  0  0  0  0  0  0  0  0  0  0  0
   48.6320   35.2276   42.8414 H   0  0  0  0  0  0  0  0  0  0  0  0
   47.6655   33.0872   42.0258 H   0  0  0  0  0  0  0  0  0  0  0  0
   45.1205   37.6938   43.3485 H   0  0  0  0  0  0  0  0  0  0  0  0
   43.9834   36.8815   42.2439 H   0  0  0  0  0  0  0  0  0  0  0  0
   47.4228   33.7682   39.9199 C   0  0  0  0  0  0  0  0  0  0  0  0
   47.7820   32.5333   39.4173 C   0  0  0  0  0  0  0  0  0  0  0  0
   48.0411   31.7060   40.0547 H   0  0  0  0  0  0  0  0  0  0  0  0
   47.8146   32.3359   38.0324 C   0  0  0  0  0  0  0  0  0  0  0  0
   47.4720   33.4349   37.2651 C   0  0  0  0  0  0  0  0  0  0  0  0
   47.4965   33.2838   36.1794 H   0  0  0  0  0  0  0  0  0  0  0  0
   47.1072   34.6865   37.7332 C   0  0  0  0  0  0  0  0  0  0  0  0
   46.8641   35.4551   37.0135 H   0  0  0  0  0  0  0  0  0  0  0  0
   47.0868   34.8432   39.1223 C   0  0  0  0  0  0  0  0  0  0  0  0
   48.0837   31.4046   37.5609 H   0  0  0  0  0  0  0  0  0  0  0  0
   46.8025   35.8187   39.4878 H   0  0  0  0  0  0  0  0  0  0  0  0
  1  6  2  0
  2  1  1  0
  3  2  2  0
  3  4  1  0
  4  5  2  0
  5  6  1  0
  7  3  1  0
  8  7  1  0
  9  8  1  0
  9  7  1  0
 10  2  1  0
  1 11  1  0
  5 12  1  0
  7 13  1  0
  8 14  1  0
  8 15  1  0
  9 16  1  0
 10 17  1  0
 10 18  1  0
 19 20  2  0
 20 21  1  0
 20 22  1  0
 22 23  2  0
 23 24  1  0
 23 25  1  0
 25 26  1  0
 25 27  2  0
 27 19  1  0
 22 28  1  0
 27 29  1  0
  9 19  1  0
M  ISO  8  11  14  12  14  13  13  14  13  15  13  16  13  21  16  24  16
M  ISO  1  26  16
M  END
>  <DihAtoms>  (1) 
7,8,18,19

>  <DihDeg>  (1) 
134.4196611600354

$$$$
