
     RDKit          3D

 35 37  0  0  1  0  0  0  0  0999 V2000
   46.8050   34.5630   42.3110 N   0  0  0  0  0  0  0  0  0  0  0  0
   48.2530   34.5840   42.3250 C   0  0  0  0  0  0  0  0  0  0  0  0
   48.6470   35.3530   41.0460 C   0  0  0  0  0  0  0  0  0  0  0  0
   48.2180   34.6120   39.8240 C   0  0  0  0  0  0  0  0  0  0  0  0
   46.9310   33.8870   39.9530 C   0  0  0  0  0  0  0  0  0  0  0  0
   46.0600   34.3220   41.0910 C   0  0  1  0  0  0  0  0  0  0  0  0
   44.4560   35.9990   44.8430 C   0  0  0  0  0  0  0  0  0  0  0  0
   45.1570   35.8780   43.6390 C   0  0  0  0  0  0  0  0  0  0  0  0
   46.0440   34.7780   43.4940 C   0  0  0  0  0  0  0  0  0  0  0  0
   46.1490   33.9170   44.5400 N   0  0  0  0  0  0  0  0  0  0  0  0
   45.4530   34.0680   45.6890 C   0  0  0  0  0  0  0  0  0  0  0  0
   44.6040   35.1180   45.8310 N   0  0  0  0  0  0  0  0  0  0  0  0
   45.0910   33.2100   41.3480 C   0  0  0  0  0  0  0  0  0  0  0  0
   45.5430   31.9390   41.6480 C   0  0  0  0  0  0  0  0  0  0  0  0
   44.6160   30.9620   41.8730 C   0  0  0  0  0  0  0  0  0  0  0  0
   43.2720   31.2490   41.7990 C   0  0  0  0  0  0  0  0  0  0  0  0
   42.7960   32.5280   41.4960 C   0  0  0  0  0  0  0  0  0  0  0  0
   43.7360   33.5220   41.2680 C   0  0  0  0  0  0  0  0  0  0  0  0
   48.6246   35.1042   43.2202 H   0  0  0  0  0  0  0  0  0  0  0  0
   48.6833   33.5720   42.3509 H   0  0  0  0  0  0  0  0  0  0  0  0
   48.1629   36.3407   41.0564 H   0  0  0  0  0  0  0  0  0  0  0  0
   49.7415   35.4609   41.0247 H   0  0  0  0  0  0  0  0  0  0  0  0
   48.9999   33.8788   39.5769 H   0  0  0  0  0  0  0  0  0  0  0  0
   48.0681   35.3695   39.0406 H   0  0  0  0  0  0  0  0  0  0  0  0
   46.3663   34.0293   39.0198 H   0  0  0  0  0  0  0  0  0  0  0  0
   47.1930   32.8380   40.1556 H   0  0  0  0  0  0  0  0  0  0  0  0
   45.5710   35.2678   40.8146 H   0  0  0  0  0  0  0  0  0  0  0  0
   43.7644   36.8437   44.9776 H   0  0  0  0  0  0  0  0  0  0  0  0
   45.0257   36.6115   42.8298 H   0  0  0  0  0  0  0  0  0  0  0  0
   45.5741   33.3422   46.5066 H   0  0  0  0  0  0  0  0  0  0  0  0
   46.6196   31.7204   41.7040 H   0  0  0  0  0  0  0  0  0  0  0  0
   44.9450   29.9405   42.1146 H   0  0  0  0  0  0  0  0  0  0  0  0
   42.5465   30.4433   41.9849 H   0  0  0  0  0  0  0  0  0  0  0  0
   41.7176   32.7379   41.4406 H   0  0  0  0  0  0  0  0  0  0  0  0
   43.4147   34.5460   41.0265 H   0  0  0  0  0  0  0  0  0  0  0  0
  1  2  1  0
  1  9  1  0
  3  2  1  0
  4  5  1  0
  4  3  1  0
  5  6  1  0
  6 13  1  0
  6  1  1  0
  7 12  2  0
  8  7  1  0
  9  8  2  0
  9 10  1  0
 10 11  2  0
 11 12  1  0
 13 14  2  0
 14 15  1  0
 16 15  2  0
 17 16  1  0
 18 13  1  0
 18 17  2  0
  2 19  1  0
  2 20  1  0
  3 21  1  0
  3 22  1  0
  4 23  1  0
  4 24  1  0
  5 25  1  0
  5 26  1  0
  6 27  1  6
  7 28  1  0
  8 29  1  0
 11 30  1  0
 14 31  1  0
 15 32  1  0
 16 33  1  0
 17 34  1  0
 18 35  1  0
M  ISO  8  19  13  20  13  21  13  22  13  23  13  24  13  25  13  26  13
M  ISO  8  27  13  28  14  29  14  30  14  31  14  32  14  33  14  34  14
M  ISO  1  35  14
M  END
>  <minimizedAffinity>  (1) 
-5.17730665

>  <minimizedRMSD>  (1) 
0.196197316

$$$$
