
     RDKit          3D

 41 44  0  0  1  0  0  0  0  0999 V2000
   39.9830   34.0890   42.1470 N   0  0  0  0  0  0  0  0  0  0  0  0
   40.5870   35.2210   41.4410 C   0  0  2  0  0  0  0  0  0  0  0  0
   39.9000   35.5680   40.1950 C   0  0  0  0  0  0  0  0  0  0  0  0
   38.7600   34.7340   39.8460 N   0  0  0  0  0  0  0  0  0  0  0  0
   38.8030   33.3770   40.2380 C   0  0  0  0  0  0  0  0  0  0  0  0
   39.9530   33.0420   41.1650 C   0  0  2  0  0  0  0  0  0  0  0  0
   39.7630   31.6940   41.7410 C   0  0  0  0  0  0  0  0  0  0  0  0
   38.6840   30.8990   41.3360 C   0  0  0  0  0  0  0  0  0  0  0  0
   38.5110   29.6410   41.8780 C   0  0  0  0  0  0  0  0  0  0  0  0
   39.4060   29.1510   42.8290 C   0  0  0  0  0  0  0  0  0  0  0  0
   40.4500   29.9360   43.2120 C   0  0  0  0  0  0  0  0  0  0  0  0
   40.6340   31.1780   42.6880 C   0  0  0  0  0  0  0  0  0  0  0  0
   44.1230   34.5910   41.4600 C   0  0  0  0  0  0  0  0  0  0  0  0
   43.8090   34.5310   40.1210 C   0  0  0  0  0  0  0  0  0  0  0  0
   42.4230   34.7590   39.9910 C   0  0  0  0  0  0  0  0  0  0  0  0
   41.9730   34.9440   41.2270 N   0  0  0  0  0  0  0  0  0  0  0  0
   42.9520   34.8480   42.0870 N   0  0  0  0  0  0  0  0  0  0  0  0
   47.8460   34.2920   41.9430 C   0  0  0  0  0  0  0  0  0  0  0  0
   46.6050   34.5070   41.2900 C   0  0  0  0  0  0  0  0  0  0  0  0
   45.4440   34.3940   42.0560 C   0  0  0  0  0  0  0  0  0  0  0  0
   45.5420   34.0910   43.3600 N   0  0  0  0  0  0  0  0  0  0  0  0
   46.7390   33.8880   43.9660 C   0  0  0  0  0  0  0  0  0  0  0  0
   47.8630   33.9920   43.2510 N   0  0  0  0  0  0  0  0  0  0  0  0
   40.5569   33.8146   42.9571 H   0  0  0  0  0  0  0  0  0  0  0  0
   40.4793   36.1135   42.0749 H   0  0  0  0  0  0  0  0  0  0  0  0
   39.5446   36.6053   40.2833 H   0  0  0  0  0  0  0  0  0  0  0  0
   40.6384   35.4141   39.3943 H   0  0  0  0  0  0  0  0  0  0  0  0
   37.9254   35.1545   40.2792 H   0  0  0  0  0  0  0  0  0  0  0  0
   37.8615   33.1352   40.7528 H   0  0  0  0  0  0  0  0  0  0  0  0
   38.9480   32.7847   39.3225 H   0  0  0  0  0  0  0  0  0  0  0  0
   40.9232   32.9990   40.6484 H   0  0  0  0  0  0  0  0  0  0  0  0
   37.9738   31.2768   40.5857 H   0  0  0  0  0  0  0  0  0  0  0  0
   37.6611   29.0206   41.5575 H   0  0  0  0  0  0  0  0  0  0  0  0
   39.2707   28.1487   43.2615 H   0  0  0  0  0  0  0  0  0  0  0  0
   41.1606   29.5578   43.9617 H   0  0  0  0  0  0  0  0  0  0  0  0
   41.4894   31.7837   43.0218 H   0  0  0  0  0  0  0  0  0  0  0  0
   44.5138   34.3393   39.2985 H   0  0  0  0  0  0  0  0  0  0  0  0
   41.8371   34.7793   39.0602 H   0  0  0  0  0  0  0  0  0  0  0  0
   48.7882   34.3707   41.3808 H   0  0  0  0  0  0  0  0  0  0  0  0
   46.5596   34.7538   40.2190 H   0  0  0  0  0  0  0  0  0  0  0  0
   46.7837   33.6399   45.0367 H   0  0  0  0  0  0  0  0  0  0  0  0
  2  1  1  0
  3  2  1  0
  4  3  1  0
  4  5  1  0
  5  6  1  0
  6  7  1  0
  6  1  1  0
  7 12  1  0
  8  7  2  0
  8  9  1  0
  9 10  2  0
 10 11  1  0
 12 11  2  0
 13 20  1  0
 13 17  2  0
 14 13  1  0
 15 14  2  0
 15 16  1  0
 16  2  1  0
 16 17  1  0
 18 23  2  0
 19 18  1  0
 19 20  2  0
 20 21  1  0
 21 22  2  0
 23 22  1  0
  1 24  1  0
  2 25  1  1
  3 26  1  0
  3 27  1  0
  4 28  1  0
  5 29  1  0
  5 30  1  0
  6 31  1  6
  8 32  1  0
  9 33  1  0
 10 34  1  0
 11 35  1  0
 12 36  1  0
 14 37  1  0
 15 38  1  0
 18 39  1  0
 19 40  1  0
 22 41  1  0
M  ISO  8  24   5  25  13  26  13  27  13  28   5  29  13  30  13  31  13
M  ISO  8  32  14  33  14  34  14  35  14  36  14  37  14  38  14  39  14
M  ISO  2  40  14  41  14
M  END
>  <minimizedAffinity>  (1) 
-6.15241909

>  <minimizedRMSD>  (1) 
4.94178152

$$$$
