
     RDKit          3D

 35 37  0  0  1  0  0  0  0  0999 V2000
   44.7730   35.2170   45.3870 C   0  0  0  0  0  0  0  0  0  0  0  0
   44.6970   36.0550   44.2530 C   0  0  0  0  0  0  0  0  0  0  0  0
   45.3310   35.6540   43.0580 C   0  0  0  0  0  0  0  0  0  0  0  0
   45.9800   34.4670   43.0870 N   0  0  0  0  0  0  0  0  0  0  0  0
   46.0450   33.6720   44.1810 C   0  0  0  0  0  0  0  0  0  0  0  0
   45.4360   34.0680   45.3110 N   0  0  0  0  0  0  0  0  0  0  0  0
   46.7670   32.4310   44.1050 N   0  0  0  0  0  0  0  0  0  0  0  0
   46.6300   31.5540   45.2510 C   0  0  0  0  0  0  0  0  0  0  0  0
   47.6030   30.4470   45.3010 C   0  0  0  0  0  0  0  0  0  0  0  0
   48.0270   30.0110   43.9540 C   0  0  0  0  0  0  0  0  0  0  0  0
   48.6710   31.1930   43.2750 C   0  0  0  0  0  0  0  0  0  0  0  0
   47.5580   32.1440   42.9180 C   0  0  2  0  0  0  0  0  0  0  0  0
   48.0870   33.3910   42.3020 C   0  0  0  0  0  0  0  0  0  0  0  0
   48.9400   34.2790   42.9460 C   0  0  0  0  0  0  0  0  0  0  0  0
   49.4090   35.4300   42.3730 C   0  0  0  0  0  0  0  0  0  0  0  0
   49.0130   35.7310   41.0740 C   0  0  0  0  0  0  0  0  0  0  0  0
   48.1680   34.8800   40.3970 C   0  0  0  0  0  0  0  0  0  0  0  0
   47.6980   33.7090   40.9960 C   0  0  0  0  0  0  0  0  0  0  0  0
   44.2862   35.5137   46.3278 H   0  0  0  0  0  0  0  0  0  0  0  0
   44.1504   37.0084   44.3007 H   0  0  0  0  0  0  0  0  0  0  0  0
   45.2993   36.2741   42.1500 H   0  0  0  0  0  0  0  0  0  0  0  0
   46.7524   32.1588   46.1616 H   0  0  0  0  0  0  0  0  0  0  0  0
   45.6361   31.0899   45.1693 H   0  0  0  0  0  0  0  0  0  0  0  0
   48.4896   30.7805   45.8602 H   0  0  0  0  0  0  0  0  0  0  0  0
   47.1153   29.5926   45.7930 H   0  0  0  0  0  0  0  0  0  0  0  0
   48.7499   29.1861   44.0368 H   0  0  0  0  0  0  0  0  0  0  0  0
   47.1634   29.6546   43.3732 H   0  0  0  0  0  0  0  0  0  0  0  0
   49.3829   31.6809   43.9570 H   0  0  0  0  0  0  0  0  0  0  0  0
   49.2282   30.8807   42.3795 H   0  0  0  0  0  0  0  0  0  0  0  0
   46.9104   31.6686   42.1666 H   0  0  0  0  0  0  0  0  0  0  0  0
   49.2558   34.0439   43.9731 H   0  0  0  0  0  0  0  0  0  0  0  0
   50.0827   36.1008   42.9263 H   0  0  0  0  0  0  0  0  0  0  0  0
   49.3748   36.6488   40.5875 H   0  0  0  0  0  0  0  0  0  0  0  0
   47.8589   35.1259   39.3703 H   0  0  0  0  0  0  0  0  0  0  0  0
   47.0239   33.0386   40.4426 H   0  0  0  0  0  0  0  0  0  0  0  0
  2  1  2  0
  3  4  2  0
  3  2  1  0
  4  5  1  0
  5  6  2  0
  6  1  1  0
  7  5  1  0
  7  8  1  0
  8  9  1  0
 10  9  1  0
 11 10  1  0
 12 11  1  0
 12  7  1  0
 13 12  1  0
 13 14  2  0
 15 14  1  0
 16 15  2  0
 17 18  2  0
 17 16  1  0
 18 13  1  0
  1 19  1  0
  2 20  1  0
  3 21  1  0
  8 22  1  0
  8 23  1  0
  9 24  1  0
  9 25  1  0
 10 26  1  0
 10 27  1  0
 11 28  1  0
 11 29  1  0
 12 30  1  6
 14 31  1  0
 15 32  1  0
 16 33  1  0
 17 34  1  0
 18 35  1  0
M  ISO  8  19  14  20  14  21  14  22  13  23  13  24  13  25  13  26  13
M  ISO  8  27  13  28  13  29  13  30  13  31  14  32  14  33  14  34  14
M  ISO  1  35  14
M  END
>  <minimizedAffinity>  (1) 
-5.75426149

>  <minimizedRMSD>  (1) 
3.31970429

$$$$
