
     RDKit          3D

 45 49  0  0  1  0  0  0  0  0999 V2000
   47.0480   32.7000   44.3200 C   0  0  0  0  0  0  0  0  0  0  0  0
   47.1030   31.9120   45.4600 C   0  0  0  0  0  0  0  0  0  0  0  0
   46.3760   32.1830   46.6190 C   0  0  0  0  0  0  0  0  0  0  0  0
   45.5490   33.2900   46.6590 C   0  0  0  0  0  0  0  0  0  0  0  0
   45.4700   34.0820   45.5650 C   0  0  0  0  0  0  0  0  0  0  0  0
   44.6580   35.1980   45.5710 C   0  0  0  0  0  0  0  0  0  0  0  0
   44.5310   36.0460   44.5080 C   0  0  0  0  0  0  0  0  0  0  0  0
   45.2750   35.7340   43.3780 C   0  0  0  0  0  0  0  0  0  0  0  0
   46.0940   34.6120   43.3640 C   0  0  0  0  0  0  0  0  0  0  0  0
   46.2090   33.7770   44.4340 C   0  0  0  0  0  0  0  0  0  0  0  0
   46.7120   34.5200   42.0540 C   0  0  0  0  0  0  0  0  0  0  0  0
   46.4760   33.8820   40.8580 C   0  0  0  0  0  0  0  0  0  0  0  0
   47.2950   34.0060   39.7650 C   0  0  0  0  0  0  0  0  0  0  0  0
   48.4260   34.7860   39.7750 C   0  0  0  0  0  0  0  0  0  0  0  0
   48.7200   35.4530   40.9450 C   0  0  0  0  0  0  0  0  0  0  0  0
   47.8770   35.3150   42.0490 C   0  0  0  0  0  0  0  0  0  0  0  0
   47.8210   32.3340   43.2150 N   0  0  0  0  0  0  0  0  0  0  0  0
   49.9260   31.0730   42.5960 C   0  0  1  0  0  0  0  0  0  0  0  0
   48.7790   30.4390   41.8360 C   0  0  0  0  0  0  0  0  0  0  0  0
   48.5960   31.1220   43.1850 C   0  0  2  0  0  0  0  0  0  0  0  0
   51.6900   28.7200   44.8430 C   0  0  0  0  0  0  0  0  0  0  0  0
   52.9590   28.6010   44.1960 C   0  0  0  0  0  0  0  0  0  0  0  0
   53.1670   29.3300   42.9980 C   0  0  0  0  0  0  0  0  0  0  0  0
   52.1840   30.0960   42.5140 N   0  0  0  0  0  0  0  0  0  0  0  0
   50.9890   30.1870   43.1530 C   0  0  0  0  0  0  0  0  0  0  0  0
   50.7410   29.5000   44.3170 N   0  0  0  0  0  0  0  0  0  0  0  0
   47.7548   31.0260   45.4495 H   0  0  0  0  0  0  0  0  0  0  0  0
   46.4600   31.5215   47.4938 H   0  0  0  0  0  0  0  0  0  0  0  0
   44.9665   33.5224   47.5627 H   0  0  0  0  0  0  0  0  0  0  0  0
   44.0815   35.4165   46.4820 H   0  0  0  0  0  0  0  0  0  0  0  0
   43.8750   36.9282   44.5451 H   0  0  0  0  0  0  0  0  0  0  0  0
   45.2156   36.3789   42.4888 H   0  0  0  0  0  0  0  0  0  0  0  0
   45.5862   33.2406   40.7744 H   0  0  0  0  0  0  0  0  0  0  0  0
   47.0366   33.4603   38.8455 H   0  0  0  0  0  0  0  0  0  0  0  0
   49.0695   34.8745   38.8872 H   0  0  0  0  0  0  0  0  0  0  0  0
   49.6141   36.0906   41.0083 H   0  0  0  0  0  0  0  0  0  0  0  0
   48.1366   35.8584   42.9695 H   0  0  0  0  0  0  0  0  0  0  0  0
   47.8366   32.9539   42.3926 H   0  0  0  0  0  0  0  0  0  0  0  0
   50.6804   31.8434   42.3784 H   0  0  0  0  0  0  0  0  0  0  0  0
   48.3930   30.9059   40.9178 H   0  0  0  0  0  0  0  0  0  0  0  0
   48.5595   29.4481   41.4119 H   0  0  0  0  0  0  0  0  0  0  0  0
   48.2094   30.8409   44.1757 H   0  0  0  0  0  0  0  0  0  0  0  0
   51.4944   28.1690   45.7747 H   0  0  0  0  0  0  0  0  0  0  0  0
   53.7507   27.9627   44.6152 H   0  0  0  0  0  0  0  0  0  0  0  0
   54.1302   29.2658   42.4706 H   0  0  0  0  0  0  0  0  0  0  0  0
  1 10  1  0
  1  2  2  0
  2  3  1  0
  3  4  2  0
  5  6  2  0
  5  4  1  0
  7  6  1  0
  8  7  2  0
  9  8  1  0
  9 10  2  0
 10  5  1  0
 11  9  1  0
 12 11  2  0
 13 14  2  0
 13 12  1  0
 14 15  1  0
 15 16  2  0
 16 11  1  0
 17  1  1  0
 18 25  1  0
 18 20  1  0
 19 18  1  0
 19 20  1  0
 20 17  1  0
 22 21  2  0
 23 22  1  0
 24 23  2  0
 24 25  1  0
 25 26  2  0
 26 21  1  0
  2 27  1  0
  3 28  1  0
  4 29  1  0
  6 30  1  0
  7 31  1  0
  8 32  1  0
 12 33  1  0
 13 34  1  0
 14 35  1  0
 15 36  1  0
 16 37  1  0
 17 38  1  0
 18 39  1  6
 19 40  1  0
 19 41  1  0
 20 42  1  1
 21 43  1  0
 22 44  1  0
 23 45  1  0
M  ISO  8  27  14  28  14  29  14  30  14  31  14  32  14  33  14  34  14
M  ISO  8  35  14  36  14  37  14  39  13  40  13  41  13  42  13  43  14
M  ISO  2  44  14  45  14
M  END
>  <minimizedAffinity>  (1) 
-6.32299662

>  <minimizedRMSD>  (1) 
2.49628282

$$$$
