
     RDKit          3D

 39 41  0  0  0  0  0  0  0  0999 V2000
   45.4160   30.5770   47.2380 C   0  0  0  0  0  0  0  0  0  0  0  0
   45.3300   29.9320   46.0290 C   0  0  0  0  0  0  0  0  0  0  0  0
   45.0430   28.6010   46.2870 C   0  0  0  0  0  0  0  0  0  0  0  0
   44.9620   28.4630   47.6020 N   0  0  0  0  0  0  0  0  0  0  0  0
   45.1880   29.6580   48.1650 N   0  0  0  0  0  0  0  0  0  0  0  0
   44.9330   27.7090   45.1720 C   0  0  0  0  0  0  0  0  0  0  0  0
   45.8110   26.8340   44.5860 C   0  0  0  0  0  0  0  0  0  0  0  0
   45.5780   26.0560   43.4940 C   0  0  0  0  0  0  0  0  0  0  0  0
   44.3570   26.1090   42.8770 C   0  0  0  0  0  0  0  0  0  0  0  0
   43.3930   26.9530   43.3790 C   0  0  0  0  0  0  0  0  0  0  0  0
   43.7100   27.7070   44.4870 C   0  0  0  0  0  0  0  0  0  0  0  0
   44.6880   27.2220   48.3420 C   0  0  0  0  0  0  0  0  0  0  0  0
   44.2930   27.5530   49.6580 F   0  0  0  0  0  0  0  0  0  0  0  0
   45.7770   26.4120   48.3390 F   0  0  0  0  0  0  0  0  0  0  0  0
   43.6120   26.5970   47.7820 F   0  0  0  0  0  0  0  0  0  0  0  0
   45.6960   31.9860   47.5270 C   0  0  0  0  0  0  0  0  0  0  0  0
   46.6410   32.5850   46.5200 C   0  0  0  0  0  0  0  0  0  0  0  0
   44.5860   35.3690   45.1410 C   0  0  0  0  0  0  0  0  0  0  0  0
   45.1050   35.4480   43.8330 C   0  0  0  0  0  0  0  0  0  0  0  0
   46.1120   34.5600   43.4940 C   0  0  0  0  0  0  0  0  0  0  0  0
   46.5050   33.7010   44.4460 N   0  0  0  0  0  0  0  0  0  0  0  0
   46.0110   33.6320   45.6800 C   0  0  0  0  0  0  0  0  0  0  0  0
   45.0510   34.4710   46.0190 N   0  0  0  0  0  0  0  0  0  0  0  0
   46.6420   34.6550   42.1370 C   0  0  0  0  0  0  0  0  0  0  0  0
   47.4260   33.5290   41.8700 F   0  0  0  0  0  0  0  0  0  0  0  0
   47.5510   35.7170   42.1520 F   0  0  0  0  0  0  0  0  0  0  0  0
   45.6760   34.7870   41.1890 F   0  0  0  0  0  0  0  0  0  0  0  0
   45.4643   30.3882   45.0371 H   0  0  0  0  0  0  0  0  0  0  0  0
   46.8068   26.7524   45.0461 H   0  0  0  0  0  0  0  0  0  0  0  0
   46.3646   25.3897   43.1101 H   0  0  0  0  0  0  0  0  0  0  0  0
   44.1498   25.4867   41.9939 H   0  0  0  0  0  0  0  0  0  0  0  0
   42.4004   27.0232   42.9101 H   0  0  0  0  0  0  0  0  0  0  0  0
   42.9252   28.3742   44.8729 H   0  0  0  0  0  0  0  0  0  0  0  0
   44.7508   32.5484   47.5071 H   0  0  0  0  0  0  0  0  0  0  0  0
   46.1696   32.0447   48.5181 H   0  0  0  0  0  0  0  0  0  0  0  0
   47.4891   33.0324   47.0591 H   0  0  0  0  0  0  0  0  0  0  0  0
   46.9603   31.7746   45.8482 H   0  0  0  0  0  0  0  0  0  0  0  0
   43.7843   36.0576   45.4463 H   0  0  0  0  0  0  0  0  0  0  0  0
   44.7254   36.1854   43.1105 H   0  0  0  0  0  0  0  0  0  0  0  0
  1 16  1  0
  1  5  2  0
  2  3  2  0
  2  1  1  0
  3  4  1  0
  4  5  1  0
  4 12  1  0
  6  3  1  0
  7  6  2  0
  8  7  1  0
  9 10  1  0
  9  8  2  0
 10 11  2  0
 11  6  1  0
 12 13  1  0
 14 12  1  0
 15 12  1  0
 17 16  1  0
 18 23  2  0
 19 18  1  0
 20 19  2  0
 20 21  1  0
 21 22  2  0
 22 23  1  0
 22 17  1  0
 24 26  1  0
 24 20  1  0
 25 24  1  0
 27 24  1  0
  2 28  1  0
  7 29  1  0
  8 30  1  0
  9 31  1  0
 10 32  1  0
 11 33  1  0
 16 34  1  0
 16 35  1  0
 17 36  1  0
 17 37  1  0
 18 38  1  0
 19 39  1  0
M  ISO  8  28  14  29  14  30  14  31  14  32  14  33  14  34   8  35   8
M  ISO  4  36   8  37   8  38  14  39  14
M  END
>  <minimizedAffinity>  (1) 
-5.20116329

>  <minimizedRMSD>  (1) 
0.810529828

$$$$
