
     RDKit          3D

 37 39  0  0  0  0  0  0  0  0999 V2000
   42.5390   31.5880   39.3350 Cl  0  0  0  0  0  0  0  0  0  0  0  0
   41.6960   33.0920   39.6260 C   0  0  0  0  0  0  0  0  0  0  0  0
   42.3450   34.2500   40.0190 C   0  0  0  0  0  0  0  0  0  0  0  0
   41.6210   35.3910   40.2290 C   0  0  0  0  0  0  0  0  0  0  0  0
   40.2580   35.4890   40.0800 C   0  0  0  0  0  0  0  0  0  0  0  0
   39.5750   34.3280   39.6820 C   0  0  0  0  0  0  0  0  0  0  0  0
   37.8400   34.3110   39.4540 Cl  0  0  0  0  0  0  0  0  0  0  0  0
   40.3170   33.1870   39.4740 C   0  0  0  0  0  0  0  0  0  0  0  0
   39.6390   31.9480   39.0570 C   0  0  0  0  0  0  0  0  0  0  0  0
   39.1620   31.0140   39.9740 C   0  0  0  0  0  0  0  0  0  0  0  0
   38.5330   29.8680   39.5300 C   0  0  0  0  0  0  0  0  0  0  0  0
   38.3970   29.6870   38.1510 C   0  0  0  0  0  0  0  0  0  0  0  0
   38.8800   30.6300   37.2790 C   0  0  0  0  0  0  0  0  0  0  0  0
   39.5100   31.7790   37.7000 C   0  0  0  0  0  0  0  0  0  0  0  0
   43.7250   34.1540   40.1700 O   0  0  0  0  0  0  0  0  0  0  0  0
   44.2450   33.9850   41.4530 C   0  0  0  0  0  0  0  0  0  0  0  0
   43.9040   33.0710   42.2790 O   0  0  0  0  0  0  0  0  0  0  0  0
   45.2440   34.8540   41.9850 N   0  0  0  0  0  0  0  0  0  0  0  0
   45.5570   34.4360   43.3400 C   0  0  0  0  0  0  0  0  0  0  0  0
   44.8690   34.8410   44.4690 C   0  0  0  0  0  0  0  0  0  0  0  0
   45.3190   34.3350   45.6700 C   0  0  0  0  0  0  0  0  0  0  0  0
   46.3760   33.4970   45.6570 N   0  0  0  0  0  0  0  0  0  0  0  0
   47.0150   33.1290   44.5400 C   0  0  0  0  0  0  0  0  0  0  0  0
   46.6080   33.6030   43.3320 N   0  0  0  0  0  0  0  0  0  0  0  0
   43.7860   35.7220   44.2940 N   0  0  0  0  0  0  0  0  0  0  0  0
   42.1678   36.2938   40.5389 H   0  0  0  0  0  0  0  0  0  0  0  0
   39.7261   36.4341   40.2642 H   0  0  0  0  0  0  0  0  0  0  0  0
   39.2866   31.1897   41.0527 H   0  0  0  0  0  0  0  0  0  0  0  0
   38.1505   29.1201   40.2402 H   0  0  0  0  0  0  0  0  0  0  0  0
   37.9009   28.7851   37.7631 H   0  0  0  0  0  0  0  0  0  0  0  0
   38.7587   30.4607   36.1989 H   0  0  0  0  0  0  0  0  0  0  0  0
   39.8908   32.5241   36.9860 H   0  0  0  0  0  0  0  0  0  0  0  0
   45.6731   35.6481   41.4889 H   0  0  0  0  0  0  0  0  0  0  0  0
   44.8281   34.6080   46.6158 H   0  0  0  0  0  0  0  0  0  0  0  0
   47.8716   32.4414   44.5992 H   0  0  0  0  0  0  0  0  0  0  0  0
   43.2488   36.0463   45.1108 H   0  0  0  0  0  0  0  0  0  0  0  0
   43.5304   36.0426   43.3491 H   0  0  0  0  0  0  0  0  0  0  0  0
  1  2  1  0
  2  3  2  0
  3 15  1  0
  3  4  1  0
  5  4  2  0
  6  5  1  0
  7  6  1  0
  8  2  1  0
  8  6  2  0
  9  8  1  0
  9 10  2  0
 11 10  1  0
 12 11  2  0
 13 14  2  0
 13 12  1  0
 14  9  1  0
 15 16  1  0
 16 18  1  0
 16 17  2  0
 18 19  1  0
 19 20  2  0
 20 21  1  0
 22 21  2  0
 23 22  1  0
 24 19  1  0
 24 23  2  0
 25 20  1  0
  4 26  1  0
  5 27  1  0
 10 28  1  0
 11 29  1  0
 12 30  1  0
 13 31  1  0
 14 32  1  0
 18 33  1  0
 21 34  1  0
 23 35  1  0
 25 36  1  0
 25 37  1  0
M  ISO  8  26  14  27  14  28  14  29  14  30  14  31  14  32  14  34  14
M  ISO  1  35  14
M  END
>  <minimizedAffinity>  (1) 
-5.95473242

>  <minimizedRMSD>  (1) 
1.82113683

$$$$
