
     RDKit          3D

 49 53  0  0  0  0  0  0  0  0999 V2000
   46.3820   32.8530   46.1990 C   0  0  0  0  0  0  0  0  0  0  0  0
   47.4590   31.9580   46.0790 C   0  0  0  0  0  0  0  0  0  0  0  0
   47.5140   31.1850   47.1820 C   0  0  0  0  0  0  0  0  0  0  0  0
   46.5080   31.5840   47.9610 N   0  0  0  0  0  0  0  0  0  0  0  0
   45.8190   32.5770   47.3970 N   0  0  0  0  0  0  0  0  0  0  0  0
   44.6400   35.6230   44.5630 C   0  0  0  0  0  0  0  0  0  0  0  0
   45.3000   35.7030   43.3270 C   0  0  0  0  0  0  0  0  0  0  0  0
   46.3340   34.8060   43.0710 C   0  0  0  0  0  0  0  0  0  0  0  0
   46.6010   33.9350   44.0540 N   0  0  0  0  0  0  0  0  0  0  0  0
   45.9880   33.8510   45.2200 C   0  0  0  0  0  0  0  0  0  0  0  0
   44.9970   34.7030   45.4750 N   0  0  0  0  0  0  0  0  0  0  0  0
   47.0700   34.8100   41.8330 C   0  0  0  0  0  0  0  0  0  0  0  0
   48.2220   35.4940   41.6060 C   0  0  0  0  0  0  0  0  0  0  0  0
   48.8550   35.4340   40.3810 C   0  0  0  0  0  0  0  0  0  0  0  0
   48.3540   34.6900   39.3500 C   0  0  0  0  0  0  0  0  0  0  0  0
   47.1880   33.9810   39.5420 C   0  0  0  0  0  0  0  0  0  0  0  0
   46.5910   34.0690   40.7730 C   0  0  0  0  0  0  0  0  0  0  0  0
   46.1860   31.0220   49.2640 C   0  0  0  0  0  0  0  0  0  0  0  0
   44.8570   30.3470   49.2290 C   0  0  0  0  0  0  0  0  0  0  0  0
   44.9280   27.8180   48.8290 C   0  0  0  0  0  0  0  0  0  0  0  0
   44.7630   29.1350   48.4440 C   0  0  0  0  0  0  0  0  0  0  0  0
   44.4560   29.3400   47.0960 C   0  0  0  0  0  0  0  0  0  0  0  0
   44.3270   28.3050   46.2040 C   0  0  0  0  0  0  0  0  0  0  0  0
   44.0470   28.2090   44.8920 N   0  0  0  0  0  0  0  0  0  0  0  0
   44.0370   26.9360   44.4840 C   0  0  0  0  0  0  0  0  0  0  0  0
   44.3250   26.1210   45.5710 C   0  0  0  0  0  0  0  0  0  0  0  0
   44.4960   27.0050   46.6120 C   0  0  0  0  0  0  0  0  0  0  0  0
   44.7980   26.7820   47.9370 C   0  0  0  0  0  0  0  0  0  0  0  0
   44.9860   25.4160   48.4090 C   0  0  0  0  0  0  0  0  0  0  0  0
   45.3090   25.1830   49.6050 O   0  0  0  0  0  0  0  0  0  0  0  0
   48.1466   31.8979   45.2225 H   0  0  0  0  0  0  0  0  0  0  0  0
   48.2408   30.3875   47.3959 H   0  0  0  0  0  0  0  0  0  0  0  0
   43.8207   36.3217   44.7878 H   0  0  0  0  0  0  0  0  0  0  0  0
   45.0079   36.4552   42.5794 H   0  0  0  0  0  0  0  0  0  0  0  0
   48.6567   36.1049   42.4109 H   0  0  0  0  0  0  0  0  0  0  0  0
   49.7865   35.9995   40.2307 H   0  0  0  0  0  0  0  0  0  0  0  0
   48.8738   34.6575   38.3811 H   0  0  0  0  0  0  0  0  0  0  0  0
   46.7531   33.3682   38.7387 H   0  0  0  0  0  0  0  0  0  0  0  0
   45.6589   33.5056   40.9270 H   0  0  0  0  0  0  0  0  0  0  0  0
   46.9571   30.2885   49.5422 H   0  0  0  0  0  0  0  0  0  0  0  0
   46.1517   31.8359   50.0032 H   0  0  0  0  0  0  0  0  0  0  0  0
   44.5839   30.0953   50.2644 H   0  0  0  0  0  0  0  0  0  0  0  0
   44.1826   31.0629   48.7364 H   0  0  0  0  0  0  0  0  0  0  0  0
   45.1700   27.5935   49.8783 H   0  0  0  0  0  0  0  0  0  0  0  0
   44.3124   30.3696   46.7365 H   0  0  0  0  0  0  0  0  0  0  0  0
   43.8632   29.0155   44.2783 H   0  0  0  0  0  0  0  0  0  0  0  0
   43.8346   26.5917   43.4591 H   0  0  0  0  0  0  0  0  0  0  0  0
   44.3992   25.0238   45.5945 H   0  0  0  0  0  0  0  0  0  0  0  0
   44.8441   24.5769   47.7121 H   0  0  0  0  0  0  0  0  0  0  0  0
  1  5  2  0
  2  1  1  0
  2  3  2  0
  3  4  1  0
  4 18  1  0
  5  4  1  0
  6 11  2  0
  7  6  1  0
  8  7  2  0
  8  9  1  0
  9 10  2  0
 10 11  1  0
 10  1  1  0
 12  8  1  0
 13 12  2  0
 14 13  1  0
 15 16  1  0
 15 14  2  0
 16 17  2  0
 17 12  1  0
 19 18  1  0
 21 20  2  0
 21 19  1  0
 22 21  1  0
 23 27  1  0
 23 22  2  0
 24 23  1  0
 25 24  1  0
 25 26  2  0
 26 27  1  0
 27 28  2  0
 28 29  1  0
 28 20  1  0
 29 30  2  0
  2 31  1  0
  3 32  1  0
  6 33  1  0
  7 34  1  0
 13 35  1  0
 14 36  1  0
 15 37  1  0
 16 38  1  0
 17 39  1  0
 18 40  1  0
 18 41  1  0
 19 42  1  0
 19 43  1  0
 20 44  1  0
 22 45  1  0
 24 46  1  0
 25 47  1  0
 26 48  1  0
 29 49  1  0
M  ISO  8  31  14  32  14  33  14  34  14  35  14  36  14  37  14  38  14
M  ISO  8  39  14  40   8  41   8  42   8  43   8  44  14  45  14  46   9
M  ISO  3  47  14  48  14  49   6
M  END
>  <minimizedAffinity>  (1) 
-6.19673061

>  <minimizedRMSD>  (1) 
1.23519051

$$$$
