
     RDKit          3D

 46 48  0  0  0  0  0  0  0  0999 V2000
   46.5772   34.9057   43.2494 O   0  0  0  0  0  0  0  0  0  0  0  0
   46.8043   33.9780   42.2305 C   0  0  1  0  0  0  0  0  0  0  0  0
   46.0773   34.4102   40.9546 C   0  0  0  0  0  0  0  0  0  0  0  0
   46.6941   33.4735   39.9481 C   0  0  0  0  0  0  0  0  0  0  0  0
   48.0734   33.1409   40.4712 C   0  0  0  0  0  0  0  0  0  0  0  0
   48.2175   33.9624   41.7371 C   0  0  1  0  0  0  0  0  0  0  0  0
   48.7582   35.3414   41.4598 C   0  0  0  0  0  0  0  0  0  0  0  0
   49.6593   35.7512   42.4171 O   0  0  0  0  0  0  0  0  0  0  0  0
   44.7372   35.3517   45.0016 O   0  0  0  0  0  0  0  0  0  0  0  0
   45.5800   34.2419   44.4119 P   0  0  1  0  0  0  0  0  0  0  0  0
   44.6060   33.0396   43.7189 O   0  0  0  0  0  0  0  0  0  0  0  0
   46.4719   33.4862   45.6003 O   0  0  0  0  0  0  0  0  0  0  0  0
   46.2180   32.1559   45.5735 C   0  0  0  0  0  0  0  0  0  0  0  0
   45.6466   31.9078   49.2345 C   0  0  0  0  0  0  0  0  0  0  0  0
   45.9659   32.4517   47.9897 C   0  0  0  0  0  0  0  0  0  0  0  0
   45.8695   31.6106   46.8973 C   0  0  0  0  0  0  0  0  0  0  0  0
   45.4766   30.3242   47.0838 N   0  0  0  0  0  0  0  0  0  0  0  0
   45.1718   29.8077   48.2848 C   0  0  0  0  0  0  0  0  0  0  0  0
   45.2593   30.6054   49.3529 N   0  0  0  0  0  0  0  0  0  0  0  0
   46.4528   32.9748   42.4604 H   0  0  0  0  0  0  0  0  0  0  0  0
   46.1718   35.4676   40.7282 H   0  0  0  0  0  0  0  0  0  0  0  0
   45.0039   34.0913   41.0761 H   0  0  0  0  0  0  0  0  0  0  0  0
   46.0910   32.5585   39.7922 H   0  0  0  0  0  0  0  0  0  0  0  0
   46.8427   34.0687   39.0168 H   0  0  0  0  0  0  0  0  0  0  0  0
   48.1637   32.0757   40.7789 H   0  0  0  0  0  0  0  0  0  0  0  0
   48.8592   33.3332   39.7232 H   0  0  0  0  0  0  0  0  0  0  0  0
   48.8428   33.4271   42.4904 H   0  0  0  0  0  0  0  0  0  0  0  0
   49.2797   35.3379   40.4775 H   0  0  0  0  0  0  0  0  0  0  0  0
   47.9646   36.1326   41.4391 H   0  0  0  0  0  0  0  0  0  0  0  0
   49.7929   34.9942   43.0409 H   0  0  0  0  0  0  0  0  0  0  0  0
   43.7626   33.5215   43.4469 H   0  0  0  0  0  0  0  0  0  0  0  0
   45.4972   31.7735   44.8577 H   0  0  0  0  0  0  0  0  0  0  0  0
   47.1904   31.6504   45.2960 H   0  0  0  0  0  0  0  0  0  0  0  0
   45.6945   32.4981   50.1489 H   0  0  0  0  0  0  0  0  0  0  0  0
   46.2664   33.4691   47.9156 H   0  0  0  0  0  0  0  0  0  0  0  0
   44.7578   28.4072   48.3945 C   0  0  0  0  0  0  0  0  0  0  0  0
   43.4224   28.1335   48.6079 C   0  0  0  0  0  0  0  0  0  0  0  0
   42.6708   28.9144   48.6968 H   0  0  0  0  0  0  0  0  0  0  0  0
   43.0039   26.8066   48.7158 C   0  0  0  0  0  0  0  0  0  0  0  0
   43.9949   25.8541   48.5958 C   0  0  0  0  0  0  0  0  0  0  0  0
   43.6544   24.8119   48.6824 H   0  0  0  0  0  0  0  0  0  0  0  0
   45.3369   26.0914   48.3827 C   0  0  0  0  0  0  0  0  0  0  0  0
   46.0066   25.2444   48.3084 H   0  0  0  0  0  0  0  0  0  0  0  0
   45.7263   27.4319   48.2788 C   0  0  0  0  0  0  0  0  0  0  0  0
   41.9753   26.5200   48.8826 H   0  0  0  0  0  0  0  0  0  0  0  0
   46.7755   27.6361   48.1114 H   0  0  0  0  0  0  0  0  0  0  0  0
 10  1  1  6
  2  1  1  0
  3  2  1  0
  4  5  1  0
  4  3  1  0
  5  6  1  0
  6  2  1  0
  7  6  1  0
  7  8  1  0
 10  9  2  0
 10 12  1  0
 11 10  1  0
 13 12  1  0
 13 16  1  0
 14 19  2  0
 15 14  1  0
 16 17  1  0
 16 15  2  0
 17 18  2  0
 18 19  1  0
  2 20  1  1
  3 21  1  0
  3 22  1  0
  4 23  1  0
  4 24  1  0
  5 25  1  0
  5 26  1  0
  6 27  1  1
  7 28  1  0
  7 29  1  0
  8 30  1  0
 11 31  1  0
 13 32  1  0
 13 33  1  0
 14 34  1  0
 15 35  1  0
 36 37  2  0
 37 38  1  0
 37 39  1  0
 39 40  2  0
 40 41  1  0
 40 42  1  0
 42 43  1  0
 42 44  2  0
 44 36  1  0
 39 45  1  0
 44 46  1  0
 18 36  1  0
M  ISO  8  20  13  21  13  22  13  23  13  24  13  25  13  26  13  27  13
M  ISO  8  28   8  29   8  30   3  31   3  32   8  33   8  34  14  35  14
M  ISO  3  38  16  41  16  43  16
M  END
>  <DihAtoms>  (1) 
16,17,35,36

>  <DihDeg>  (1) 
179.99857342768954

$$$$
