
     RDKit          3D

 27 29  0  0  0  0  0  0  0  0999 V2000
   45.0810   33.5620   43.6940 C   0  0  0  0  0  0  0  0  0  0  0  0
   44.9940   34.9780   43.7080 C   0  0  0  0  0  0  0  0  0  0  0  0
   44.1960   35.5740   42.8020 C   0  0  0  0  0  0  0  0  0  0  0  0
   43.4780   34.7850   41.8760 C   0  0  0  0  0  0  0  0  0  0  0  0
   43.9750   33.0870   42.3280 S   0  0  0  0  0  0  0  0  0  0  0  0
   47.2620   31.0170   45.2590 C   0  0  0  0  0  0  0  0  0  0  0  0
   47.3510   31.5520   46.5730 C   0  0  0  0  0  0  0  0  0  0  0  0
   46.6730   32.7410   46.8610 C   0  0  0  0  0  0  0  0  0  0  0  0
   45.9600   33.3160   45.8480 N   0  0  0  0  0  0  0  0  0  0  0  0
   45.9030   32.7700   44.6130 C   0  0  0  0  0  0  0  0  0  0  0  0
   46.5540   31.6180   44.3110 N   0  0  0  0  0  0  0  0  0  0  0  0
   42.5570   35.1130   40.8010 C   0  0  0  0  0  0  0  0  0  0  0  0
   42.9910   34.8470   39.5240 C   0  0  0  0  0  0  0  0  0  0  0  0
   42.0750   35.1790   38.5190 C   0  0  0  0  0  0  0  0  0  0  0  0
   40.8320   35.7340   38.8430 C   0  0  0  0  0  0  0  0  0  0  0  0
   40.4720   35.9710   40.1610 C   0  0  0  0  0  0  0  0  0  0  0  0
   41.3600   35.6530   41.1950 C   0  0  0  0  0  0  0  0  0  0  0  0
   45.5625   35.5723   44.4385 H   0  0  0  0  0  0  0  0  0  0  0  0
   44.1036   36.6699   42.7830 H   0  0  0  0  0  0  0  0  0  0  0  0
   47.7925   30.0829   45.0224 H   0  0  0  0  0  0  0  0  0  0  0  0
   47.9413   31.0411   47.3479 H   0  0  0  0  0  0  0  0  0  0  0  0
   46.7125   33.1944   47.8624 H   0  0  0  0  0  0  0  0  0  0  0  0
   43.9771   34.4092   39.3096 H   0  0  0  0  0  0  0  0  0  0  0  0
   42.3347   35.0020   37.4648 H   0  0  0  0  0  0  0  0  0  0  0  0
   40.1273   35.9870   38.0372 H   0  0  0  0  0  0  0  0  0  0  0  0
   39.4898   36.4083   40.3935 H   0  0  0  0  0  0  0  0  0  0  0  0
   41.1139   35.8249   42.2533 H   0  0  0  0  0  0  0  0  0  0  0  0
  1  2  2  0
  1 10  1  0
  3  2  1  0
  4  5  1  0
  4  3  2  0
  5  1  1  0
  6  7  2  0
  7  8  1  0
  9  8  2  0
 10  9  1  0
 11 10  2  0
 11  6  1  0
 12 17  1  0
 12  4  1  0
 13 12  2  0
 14 15  2  0
 14 13  1  0
 15 16  1  0
 16 17  2  0
  2 18  1  0
  3 19  1  0
  6 20  1  0
  7 21  1  0
  8 22  1  0
 13 23  1  0
 14 24  1  0
 15 25  1  0
 16 26  1  0
 17 27  1  0
M  ISO  8  18  14  19  14  20  14  21  14  22  14  23  14  24  14  25  14
M  ISO  2  26  14  27  14
M  END
>  <minimizedAffinity>  (1) 
-4.89569092

>  <minimizedRMSD>  (1) 
9.03306198

$$$$
