
     RDKit          3D

 37 40  0  0  1  0  0  0  0  0999 V2000
   46.5850   32.3970   41.6040 C   0  0  0  0  0  0  0  0  0  0  0  0
   47.8800   32.2490   40.9810 C   0  0  0  0  0  0  0  0  0  0  0  0
   48.8810   31.7120   41.7470 C   0  0  0  0  0  0  0  0  0  0  0  0
   48.6280   31.3490   43.0290 N   0  0  0  0  0  0  0  0  0  0  0  0
   47.4030   31.5010   43.5820 C   0  0  0  0  0  0  0  0  0  0  0  0
   46.3880   32.0270   42.8590 N   0  0  0  0  0  0  0  0  0  0  0  0
   48.1210   32.6730   39.5790 C   0  0  1  0  0  0  0  0  0  0  0  0
   47.2350   33.5690   38.9010 C   0  0  0  0  0  0  0  0  0  0  0  0
   48.5170   34.1440   39.3440 C   0  0  1  0  0  0  0  0  0  0  0  0
   48.6460   35.0820   40.4810 C   0  0  0  0  0  0  0  0  0  0  0  0
   49.1250   36.3180   40.0780 F   0  0  0  0  0  0  0  0  0  0  0  0
   49.4820   34.5720   41.4780 F   0  0  0  0  0  0  0  0  0  0  0  0
   47.3880   35.2870   40.9920 F   0  0  0  0  0  0  0  0  0  0  0  0
   47.2060   31.0720   45.0000 C   0  0  2  0  0  0  0  0  0  0  0  0
   46.7560   29.6270   45.1240 C   0  0  0  0  0  0  0  0  0  0  0  0
   45.8370   30.7560   45.4950 C   0  0  1  0  0  0  0  0  0  0  0  0
   45.6570   30.9180   46.9610 C   0  0  0  0  0  0  0  0  0  0  0  0
   45.1890   29.9070   47.7780 C   0  0  0  0  0  0  0  0  0  0  0  0
   45.0240   30.0690   49.1510 C   0  0  0  0  0  0  0  0  0  0  0  0
   45.3400   31.2850   49.7180 C   0  0  0  0  0  0  0  0  0  0  0  0
   45.8090   32.3100   48.9210 C   0  0  0  0  0  0  0  0  0  0  0  0
   45.9640   32.1240   47.5580 C   0  0  0  0  0  0  0  0  0  0  0  0
   45.7511   32.8232   41.0270 H   0  0  0  0  0  0  0  0  0  0  0  0
   49.8870   31.5757   41.3234 H   0  0  0  0  0  0  0  0  0  0  0  0
   48.5237   31.6790   39.3347 H   0  0  0  0  0  0  0  0  0  0  0  0
   46.3044   33.8832   39.3962 H   0  0  0  0  0  0  0  0  0  0  0  0
   46.7238   33.5295   37.9278 H   0  0  0  0  0  0  0  0  0  0  0  0
   49.3318   34.7008   38.8581 H   0  0  0  0  0  0  0  0  0  0  0  0
   48.0044   31.7180   45.3941 H   0  0  0  0  0  0  0  0  0  0  0  0
   46.5609   29.0297   44.2212 H   0  0  0  0  0  0  0  0  0  0  0  0
   47.1376   28.7288   45.6315 H   0  0  0  0  0  0  0  0  0  0  0  0
   44.8230   31.0656   45.2019 H   0  0  0  0  0  0  0  0  0  0  0  0
   44.9369   28.9363   47.3262 H   0  0  0  0  0  0  0  0  0  0  0  0
   44.6485   29.2421   49.7716 H   0  0  0  0  0  0  0  0  0  0  0  0
   45.2190   31.4380   50.8006 H   0  0  0  0  0  0  0  0  0  0  0  0
   46.0612   33.2811   49.3720 H   0  0  0  0  0  0  0  0  0  0  0  0
   46.3388   32.9527   46.9393 H   0  0  0  0  0  0  0  0  0  0  0  0
  1  6  2  0
  2  1  1  0
  2  3  2  0
  3  4  1  0
  4  5  2  0
  5 14  1  0
  6  5  1  0
  7  2  1  0
  8  9  1  0
  8  7  1  0
  9  7  1  0
  9 10  1  0
 10 13  1  0
 10 12  1  0
 11 10  1  0
 14 15  1  0
 14 16  1  0
 15 16  1  0
 16 17  1  0
 17 22  1  0
 17 18  2  0
 18 19  1  0
 19 20  2  0
 21 20  1  0
 22 21  2  0
  1 23  1  0
  3 24  1  0
  7 25  1  6
  8 26  1  0
  8 27  1  0
  9 28  1  6
 14 29  1  1
 15 30  1  0
 15 31  1  0
 16 32  1  6
 18 33  1  0
 19 34  1  0
 20 35  1  0
 21 36  1  0
 22 37  1  0
M  ISO  8  23  14  24  14  25  13  26  13  27  13  28  13  29  13  30  13
M  ISO  7  31  13  32  13  33  14  34  14  35  14  36  14  37  14
M  END
>  <minimizedAffinity>  (1) 
-4.9602499

>  <minimizedRMSD>  (1) 
2.21974397

$$$$
