
     RDKit          3D

 27 29  0  0  0  0  0  0  0  0999 V2000
   44.5773   35.9152   44.3154 C   0  0  0  0  0  0  0  0  0  0  0  0
   45.3455   35.9012   43.1075 C   0  0  0  0  0  0  0  0  0  0  0  0
   46.3024   34.9097   43.0315 C   0  0  0  0  0  0  0  0  0  0  0  0
   46.4887   34.0062   44.0555 N   0  0  0  0  0  0  0  0  0  0  0  0
   45.7342   34.0604   45.1776 C   0  0  0  0  0  0  0  0  0  0  0  0
   44.7804   35.0155   45.3048 N   0  0  0  0  0  0  0  0  0  0  0  0
   47.0793   34.8108   41.7434 C   0  0  0  0  0  0  0  0  0  0  0  0
   48.4645   35.4638   41.8931 C   0  0  0  0  0  0  0  0  0  0  0  0
   48.2247   33.9312   41.7291 C   0  0  0  0  0  0  0  0  0  0  0  0
   43.7908   36.6048   44.5655 H   0  0  0  0  0  0  0  0  0  0  0  0
   46.0017   33.2856   45.8803 H   0  0  0  0  0  0  0  0  0  0  0  0
   46.5898   35.2924   40.8684 H   0  0  0  0  0  0  0  0  0  0  0  0
   48.7765   35.8201   42.8696 H   0  0  0  0  0  0  0  0  0  0  0  0
   48.9163   35.9127   40.9926 H   0  0  0  0  0  0  0  0  0  0  0  0
   48.4539   33.3655   42.6597 H   0  0  0  0  0  0  0  0  0  0  0  0
   48.5879   33.4742   40.7795 H   0  0  0  0  0  0  0  0  0  0  0  0
   44.9601   36.9012   42.1672 C   0  0  0  0  0  0  0  0  0  0  0  0
   45.5646   37.4338   41.0555 C   0  0  0  0  0  0  0  0  0  0  0  0
   46.5153   36.9861   40.8157 H   0  0  0  0  0  0  0  0  0  0  0  0
   44.9832   38.4367   40.3113 C   0  0  0  0  0  0  0  0  0  0  0  0
   43.7699   38.9613   40.6342 C   0  0  0  0  0  0  0  0  0  0  0  0
   43.3766   39.7444   40.0058 H   0  0  0  0  0  0  0  0  0  0  0  0
   43.1200   38.4609   41.7414 C   0  0  0  0  0  0  0  0  0  0  0  0
   42.1607   38.8938   41.9743 H   0  0  0  0  0  0  0  0  0  0  0  0
   43.7126   37.4429   42.4956 C   0  0  0  0  0  0  0  0  0  0  0  0
   45.5444   38.7787   39.4630 H   0  0  0  0  0  0  0  0  0  0  0  0
   43.0745   37.1526   43.3421 H   0  0  0  0  0  0  0  0  0  0  0  0
  1  6  2  0
  2  1  1  0
  3  2  2  0
  3  4  1  0
  4  5  2  0
  5  6  1  0
  7  8  1  0
  7  9  1  0
  7  3  1  0
  8  9  1  0
  1 10  1  0
  5 11  1  0
  7 12  1  0
  8 13  1  0
  8 14  1  0
  9 15  1  0
  9 16  1  0
 17 18  2  0
 18 19  1  0
 18 20  1  0
 20 21  2  0
 21 22  1  0
 21 23  1  0
 23 24  1  0
 23 25  2  0
 25 17  1  0
 20 26  1  0
 25 27  1  0
  2 17  1  0
M  ISO  8  10  14  11  14  12  13  13  13  14  13  15  13  16  13  19  16
M  ISO  2  22  16  24  16
M  END
>  <DihAtoms>  (1) 
0,1,16,17

>  <DihDeg>  (1) 
-121.30477784602064

$$$$
