
     RDKit          3D

 27 29  0  0  0  0  0  0  0  0999 V2000
   44.5773   35.9152   44.3154 C   0  0  0  0  0  0  0  0  0  0  0  0
   45.3455   35.9012   43.1075 C   0  0  0  0  0  0  0  0  0  0  0  0
   46.3024   34.9097   43.0315 C   0  0  0  0  0  0  0  0  0  0  0  0
   46.4887   34.0062   44.0555 N   0  0  0  0  0  0  0  0  0  0  0  0
   45.7342   34.0604   45.1776 C   0  0  0  0  0  0  0  0  0  0  0  0
   44.7804   35.0155   45.3048 N   0  0  0  0  0  0  0  0  0  0  0  0
   47.0793   34.8108   41.7434 C   0  0  0  0  0  0  0  0  0  0  0  0
   48.4645   35.4638   41.8931 C   0  0  0  0  0  0  0  0  0  0  0  0
   48.2247   33.9312   41.7291 C   0  0  0  0  0  0  0  0  0  0  0  0
   43.7908   36.6048   44.5655 H   0  0  0  0  0  0  0  0  0  0  0  0
   46.0017   33.2856   45.8803 H   0  0  0  0  0  0  0  0  0  0  0  0
   46.5898   35.2924   40.8684 H   0  0  0  0  0  0  0  0  0  0  0  0
   48.7765   35.8201   42.8696 H   0  0  0  0  0  0  0  0  0  0  0  0
   48.9163   35.9127   40.9926 H   0  0  0  0  0  0  0  0  0  0  0  0
   48.4539   33.3655   42.6597 H   0  0  0  0  0  0  0  0  0  0  0  0
   48.5879   33.4742   40.7795 H   0  0  0  0  0  0  0  0  0  0  0  0
   44.9601   36.9012   42.1672 C   0  0  0  0  0  0  0  0  0  0  0  0
   45.6637   37.8007   41.4050 C   0  0  0  0  0  0  0  0  0  0  0  0
   46.7337   37.7201   41.5068 H   0  0  0  0  0  0  0  0  0  0  0  0
   45.0415   38.7051   40.5728 C   0  0  0  0  0  0  0  0  0  0  0  0
   43.6871   38.7610   40.4552 C   0  0  0  0  0  0  0  0  0  0  0  0
   43.2698   39.4950   39.7843 H   0  0  0  0  0  0  0  0  0  0  0  0
   42.9337   37.8786   41.1986 C   0  0  0  0  0  0  0  0  0  0  0  0
   41.8637   37.9442   41.0861 H   0  0  0  0  0  0  0  0  0  0  0  0
   43.5678   36.9616   42.0431 C   0  0  0  0  0  0  0  0  0  0  0  0
   45.6887   39.3618   40.0240 H   0  0  0  0  0  0  0  0  0  0  0  0
   42.8354   36.3300   42.5653 H   0  0  0  0  0  0  0  0  0  0  0  0
  1  6  2  0
  2  1  1  0
  3  2  2  0
  3  4  1  0
  4  5  2  0
  5  6  1  0
  7  8  1  0
  7  9  1  0
  7  3  1  0
  8  9  1  0
  1 10  1  0
  5 11  1  0
  7 12  1  0
  8 13  1  0
  8 14  1  0
  9 15  1  0
  9 16  1  0
 17 18  2  0
 18 19  1  0
 18 20  1  0
 20 21  2  0
 21 22  1  0
 21 23  1  0
 23 24  1  0
 23 25  2  0
 25 17  1  0
 20 26  1  0
 25 27  1  0
  2 17  1  0
M  ISO  8  10  14  11  14  12  13  13  13  14  13  15  13  16  13  19  16
M  ISO  2  22  16  24  16
M  END
>  <DihAtoms>  (1) 
0,1,16,17

>  <DihDeg>  (1) 
-121.30477784602064

$$$$
