
     RDKit          3D

 27 29  0  0  0  0  0  0  0  0999 V2000
   44.5773   35.9152   44.3154 C   0  0  0  0  0  0  0  0  0  0  0  0
   45.3455   35.9012   43.1075 C   0  0  0  0  0  0  0  0  0  0  0  0
   46.3024   34.9097   43.0315 C   0  0  0  0  0  0  0  0  0  0  0  0
   46.4887   34.0062   44.0555 N   0  0  0  0  0  0  0  0  0  0  0  0
   45.7342   34.0604   45.1776 C   0  0  0  0  0  0  0  0  0  0  0  0
   44.7804   35.0155   45.3048 N   0  0  0  0  0  0  0  0  0  0  0  0
   47.0793   34.8108   41.7434 C   0  0  0  0  0  0  0  0  0  0  0  0
   48.4645   35.4638   41.8931 C   0  0  0  0  0  0  0  0  0  0  0  0
   48.2247   33.9312   41.7291 C   0  0  0  0  0  0  0  0  0  0  0  0
   43.7908   36.6048   44.5655 H   0  0  0  0  0  0  0  0  0  0  0  0
   46.0017   33.2856   45.8803 H   0  0  0  0  0  0  0  0  0  0  0  0
   46.5898   35.2924   40.8684 H   0  0  0  0  0  0  0  0  0  0  0  0
   48.7765   35.8201   42.8696 H   0  0  0  0  0  0  0  0  0  0  0  0
   48.9163   35.9127   40.9926 H   0  0  0  0  0  0  0  0  0  0  0  0
   48.4539   33.3655   42.6597 H   0  0  0  0  0  0  0  0  0  0  0  0
   48.5879   33.4742   40.7795 H   0  0  0  0  0  0  0  0  0  0  0  0
   44.9601   36.9012   42.1672 C   0  0  0  0  0  0  0  0  0  0  0  0
   45.5059   38.1038   41.7921 C   0  0  0  0  0  0  0  0  0  0  0  0
   46.4385   38.3344   42.2811 H   0  0  0  0  0  0  0  0  0  0  0  0
   44.9118   38.9214   40.8560 C   0  0  0  0  0  0  0  0  0  0  0  0
   43.7441   38.5844   40.2441 C   0  0  0  0  0  0  0  0  0  0  0  0
   43.3372   39.2737   39.5214 H   0  0  0  0  0  0  0  0  0  0  0  0
   43.1548   37.3863   40.5844 C   0  0  0  0  0  0  0  0  0  0  0  0
   42.2311   37.1439   40.0844 H   0  0  0  0  0  0  0  0  0  0  0  0
   43.7598   36.5582   41.5354 C   0  0  0  0  0  0  0  0  0  0  0  0
   45.4248   39.8386   40.6393 H   0  0  0  0  0  0  0  0  0  0  0  0
   43.1720   35.6437   41.6974 H   0  0  0  0  0  0  0  0  0  0  0  0
  1  6  2  0
  2  1  1  0
  3  2  2  0
  3  4  1  0
  4  5  2  0
  5  6  1  0
  7  8  1  0
  7  9  1  0
  7  3  1  0
  8  9  1  0
  1 10  1  0
  5 11  1  0
  7 12  1  0
  8 13  1  0
  8 14  1  0
  9 15  1  0
  9 16  1  0
 17 18  2  0
 18 19  1  0
 18 20  1  0
 20 21  2  0
 21 22  1  0
 21 23  1  0
 23 24  1  0
 23 25  2  0
 25 17  1  0
 20 26  1  0
 25 27  1  0
  2 17  1  0
M  ISO  8  10  14  11  14  12  13  13  13  14  13  15  13  16  13  19  16
M  ISO  2  22  16  24  16
M  END
>  <DihAtoms>  (1) 
0,1,16,17

>  <DihDeg>  (1) 
-121.30477784602064

$$$$
