
     RDKit          3D

 40 43  0  0  0  0  0  0  0  0999 V2000
   46.8710   34.9075   42.1415 C   0  0  2  0  0  0  0  0  0  0  0  0
   46.3826   33.9024   41.1655 C   0  0  0  0  0  0  0  0  0  0  0  0
   47.5932   33.9065   40.2090 C   0  0  0  0  0  0  0  0  0  0  0  0
   48.7939   34.1101   41.1052 C   0  0  1  0  0  0  0  0  0  0  0  0
   48.2507   34.2929   42.4835 C   0  0  0  0  0  0  0  0  0  0  0  0
   44.4302   36.0908   44.7686 C   0  0  0  0  0  0  0  0  0  0  0  0
   45.1550   36.0693   43.5756 C   0  0  0  0  0  0  0  0  0  0  0  0
   46.0524   35.0025   43.3798 C   0  0  0  0  0  0  0  0  0  0  0  0
   46.1926   34.0199   44.3554 N   0  0  0  0  0  0  0  0  0  0  0  0
   45.4534   34.1117   45.4866 C   0  0  0  0  0  0  0  0  0  0  0  0
   44.5895   35.1216   45.6953 N   0  0  0  0  0  0  0  0  0  0  0  0
   49.6942   32.9267   41.1567 C   0  0  2  0  0  0  0  0  0  0  0  0
   49.5990   32.0294   42.3140 C   0  0  0  0  0  0  0  0  0  0  0  0
   50.8654   32.7658   41.9624 C   0  0  2  0  0  0  0  0  0  0  0  0
   46.9739   35.9060   41.6870 H   0  0  0  0  0  0  0  0  0  0  0  0
   46.2662   32.9239   41.6526 H   0  0  0  0  0  0  0  0  0  0  0  0
   45.5169   34.2358   40.5723 H   0  0  0  0  0  0  0  0  0  0  0  0
   47.4751   34.6697   39.4347 H   0  0  0  0  0  0  0  0  0  0  0  0
   47.6764   32.8940   39.7488 H   0  0  0  0  0  0  0  0  0  0  0  0
   49.3089   35.0626   40.8363 H   0  0  0  0  0  0  0  0  0  0  0  0
   48.7854   35.0449   43.0921 H   0  0  0  0  0  0  0  0  0  0  0  0
   47.8813   33.4128   43.0004 H   0  0  0  0  0  0  0  0  0  0  0  0
   43.7406   36.9001   44.9311 H   0  0  0  0  0  0  0  0  0  0  0  0
   45.0711   36.8121   42.8020 H   0  0  0  0  0  0  0  0  0  0  0  0
   45.6360   33.2971   46.1838 H   0  0  0  0  0  0  0  0  0  0  0  0
   49.6818   32.4112   40.1463 H   0  0  0  0  0  0  0  0  0  0  0  0
   49.5276   30.9241   42.0710 H   0  0  0  0  0  0  0  0  0  0  0  0
   49.4142   32.1642   43.3465 H   0  0  0  0  0  0  0  0  0  0  0  0
   51.6598   32.0629   41.5035 H   0  0  0  0  0  0  0  0  0  0  0  0
   51.5089   33.7549   42.8049 C   0  0  0  0  0  0  0  0  0  0  0  0
   52.1970   34.7275   42.0593 C   0  0  0  0  0  0  0  0  0  0  0  0
   52.2376   34.7647   40.9617 H   0  0  0  0  0  0  0  0  0  0  0  0
   52.9121   35.7646   42.6732 C   0  0  0  0  0  0  0  0  0  0  0  0
   52.9687   35.8717   44.0446 C   0  0  0  0  0  0  0  0  0  0  0  0
   53.4927   36.6335   44.6008 H   0  0  0  0  0  0  0  0  0  0  0  0
   52.3109   34.9426   44.8096 C   0  0  0  0  0  0  0  0  0  0  0  0
   52.2636   34.8950   45.8944 H   0  0  0  0  0  0  0  0  0  0  0  0
   51.6214   33.9417   44.1667 C   0  0  0  0  0  0  0  0  0  0  0  0
   53.4377   36.5075   42.0893 H   0  0  0  0  0  0  0  0  0  0  0  0
   51.0612   33.1474   44.6914 H   0  0  0  0  0  0  0  0  0  0  0  0
  1  5  1  0
  1  8  1  0
  2  1  1  0
  3  4  1  0
  3  2  1  0
  4 12  1  0
  4  5  1  0
  6 11  2  0
  7  6  1  0
  8  7  2  0
  8  9  1  0
  9 10  2  0
 10 11  1  0
 12 14  1  0
 12 13  1  0
 14 13  1  0
  1 15  1  6
  2 16  1  0
  2 17  1  0
  3 18  1  0
  3 19  1  0
  4 20  1  6
  5 21  1  0
  5 22  1  0
  6 23  1  0
  7 24  1  0
 10 25  1  0
 12 26  1  6
 13 27  1  0
 13 28  1  0
 14 29  1  6
 30 31  2  0
 31 32  1  0
 31 33  1  0
 33 34  2  0
 34 35  1  0
 34 36  1  0
 36 37  1  0
 36 38  2  0
 38 30  1  0
 33 39  1  0
 38 40  1  0
 14 30  1  0
M  ISO  8  15  13  16  13  17  13  18  13  19  13  20  13  21  13  22  13
M  ISO  8  23  14  24  14  25  14  26  13  27  13  28  13  29  13  32  16
M  ISO  2  35  16  37  16
M  END
>  <DihAtoms>  (1) 
11,13,29,30

>  <DihDeg>  (1) 
-103.2994982745231

$$$$
