
     RDKit          3D

 46 49  0  0  0  0  0  0  0  0999 V2000
   39.5460   35.3910   40.2790 C   0  0  0  0  0  0  0  0  0  0  0  0
   38.9540   33.0330   40.1510 C   0  0  0  0  0  0  0  0  0  0  0  0
   39.0060   32.8880   41.4180 O   0  0  0  0  0  0  0  0  0  0  0  0
   39.1200   34.2570   39.4810 N   0  0  0  0  0  0  0  0  0  0  0  0
   38.7020   31.8410   39.3010 C   0  0  0  0  0  0  0  0  0  0  0  0
   39.0990   31.8670   37.9760 C   0  0  0  0  0  0  0  0  0  0  0  0
   38.9250   30.8210   37.0940 C   0  0  0  0  0  0  0  0  0  0  0  0
   38.3050   29.6760   37.5980 C   0  0  0  0  0  0  0  0  0  0  0  0
   37.9350   29.7080   38.9150 C   0  0  0  0  0  0  0  0  0  0  0  0
   38.1050   30.7210   39.7640 N   0  0  0  0  0  0  0  0  0  0  0  0
   37.2830   28.5390   39.4980 C   0  0  0  0  0  0  0  0  0  0  0  0
   35.9820   28.1910   39.1500 C   0  0  0  0  0  0  0  0  0  0  0  0
   35.2860   27.1010   39.6510 C   0  0  0  0  0  0  0  0  0  0  0  0
   35.9290   26.2960   40.5670 C   0  0  0  0  0  0  0  0  0  0  0  0
   37.2210   26.5920   40.9500 C   0  0  0  0  0  0  0  0  0  0  0  0
   37.8590   27.6910   40.4150 C   0  0  0  0  0  0  0  0  0  0  0  0
   40.8780   35.9700   39.7910 C   0  0  0  0  0  0  0  0  0  0  0  0
   43.7800   34.5950   41.7980 C   0  0  0  0  0  0  0  0  0  0  0  0
   42.7240   35.4470   41.3780 C   0  0  0  0  0  0  0  0  0  0  0  0
   41.9940   35.1140   40.2570 C   0  0  0  0  0  0  0  0  0  0  0  0
   42.3560   33.9510   39.6110 N   0  0  0  0  0  0  0  0  0  0  0  0
   43.3790   33.1700   40.0580 C   0  0  0  0  0  0  0  0  0  0  0  0
   44.0840   33.4930   41.1440 N   0  0  0  0  0  0  0  0  0  0  0  0
   44.5640   34.9810   43.0080 C   0  0  0  0  0  0  0  0  0  0  0  0
   46.0520   35.3500   42.6260 C   0  0  0  0  0  0  0  0  0  0  0  0
   45.0960   36.2520   43.2890 C   0  0  0  0  0  0  0  0  0  0  0  0
   38.7761   36.1746   40.2216 H   0  0  0  0  0  0  0  0  0  0  0  0
   39.6856   35.0444   41.3136 H   0  0  0  0  0  0  0  0  0  0  0  0
   38.9471   34.3450   38.4694 H   0  0  0  0  0  0  0  0  0  0  0  0
   39.5845   32.7804   37.6019 H   0  0  0  0  0  0  0  0  0  0  0  0
   39.2575   30.8855   36.0475 H   0  0  0  0  0  0  0  0  0  0  0  0
   38.1231   28.7927   36.9681 H   0  0  0  0  0  0  0  0  0  0  0  0
   35.4644   28.8307   38.4200 H   0  0  0  0  0  0  0  0  0  0  0  0
   34.2565   26.8862   39.3286 H   0  0  0  0  0  0  0  0  0  0  0  0
   35.4141   25.4212   40.9908 H   0  0  0  0  0  0  0  0  0  0  0  0
   37.7403   25.9534   41.6797 H   0  0  0  0  0  0  0  0  0  0  0  0
   38.8884   27.9018   40.7404 H   0  0  0  0  0  0  0  0  0  0  0  0
   41.0042   36.9863   40.1925 H   0  0  0  0  0  0  0  0  0  0  0  0
   40.8796   36.0049   38.6916 H   0  0  0  0  0  0  0  0  0  0  0  0
   42.4912   36.3628   41.9412 H   0  0  0  0  0  0  0  0  0  0  0  0
   43.6301   32.2500   39.5098 H   0  0  0  0  0  0  0  0  0  0  0  0
   43.9651   34.3188   43.6505 H   0  0  0  0  0  0  0  0  0  0  0  0
   46.8996   34.9205   43.1802 H   0  0  0  0  0  0  0  0  0  0  0  0
   46.6744   35.3585   41.7190 H   0  0  0  0  0  0  0  0  0  0  0  0
   44.7144   37.1219   42.7343 H   0  0  0  0  0  0  0  0  0  0  0  0
   45.1571   36.8366   44.2188 H   0  0  0  0  0  0  0  0  0  0  0  0
  2  3  2  0
  4  2  1  0
  4  1  1  0
  5 10  1  0
  5  2  1  0
  6  5  2  0
  7  8  2  0
  7  6  1  0
  8  9  1  0
  9 11  1  0
  9 10  2  0
 11 16  1  0
 12 11  2  0
 12 13  1  0
 13 14  2  0
 14 15  1  0
 16 15  2  0
 17 20  1  0
 17  1  1  0
 18 24  1  0
 19 18  2  0
 20 19  1  0
 21 22  1  0
 21 20  2  0
 22 23  2  0
 23 18  1  0
 24 26  1  0
 25 24  1  0
 25 26  1  0
  1 27  1  0
  1 28  1  0
  4 29  1  0
  6 30  1  0
  7 31  1  0
  8 32  1  0
 12 33  1  0
 13 34  1  0
 14 35  1  0
 15 36  1  0
 16 37  1  0
 17 38  1  0
 17 39  1  0
 19 40  1  0
 22 41  1  0
 24 42  1  0
 25 43  1  0
 25 44  1  0
 26 45  1  0
 26 46  1  0
M  ISO  8  27   8  28   8  30  14  31  14  32  14  33  14  34  14  35  14
M  ISO  8  36  14  37  14  38   8  39   8  40  14  41  14  42  13  43  13
M  ISO  3  44  13  45  13  46  13
M  END
>  <minimizedAffinity>  (1) 
-5.46169376

>  <minimizedRMSD>  (1) 
1.7604531

$$$$
