
     RDKit          3D

 24 24  0  0  0  0  0  0  0  0999 V2000
   46.5450   33.6194   44.3386 C   0  0  0  0  0  0  0  0  0  0  0  0
   46.2394   33.2097   45.6500 C   0  0  0  0  0  0  0  0  0  0  0  0
   45.2907   33.9046   46.3623 C   0  0  0  0  0  0  0  0  0  0  0  0
   44.6847   34.9630   45.7666 N   0  0  0  0  0  0  0  0  0  0  0  0
   44.9782   35.3494   44.5189 C   0  0  0  0  0  0  0  0  0  0  0  0
   45.9040   34.6866   43.7985 N   0  0  0  0  0  0  0  0  0  0  0  0
   45.0336   33.4587   47.6411 O   0  0  0  0  0  0  0  0  0  0  0  0
   45.3286   30.8634   47.4631 O   0  0  0  0  0  0  0  0  0  0  0  0
   45.8105   32.0892   48.2642 P   0  0  2  0  0  0  0  0  0  0  0  0
   45.3160   31.8270   49.8537 O   0  0  0  0  0  0  0  0  0  0  0  0
   47.4502   32.2566   48.1521 O   0  0  0  0  0  0  0  0  0  0  0  0
   48.4557   31.4410   48.5534 C   0  0  0  0  0  0  0  0  0  0  0  0
   49.2532   31.9732   49.4005 O   0  0  0  0  0  0  0  0  0  0  0  0
   47.2716   33.1394   43.7046 H   0  0  0  0  0  0  0  0  0  0  0  0
   46.8240   32.3565   45.9301 H   0  0  0  0  0  0  0  0  0  0  0  0
   44.4015   36.2142   44.1956 H   0  0  0  0  0  0  0  0  0  0  0  0
   45.9520   32.2365   50.4927 H   0  0  0  0  0  0  0  0  0  0  0  0
   47.9929   29.0122   46.5935 O   0  0  0  0  0  0  0  0  0  0  0  0
   49.3273   29.1921   47.2848 P   0  0  0  0  0  0  0  0  0  0  0  0
   50.5166   29.6887   46.2154 O   0  0  0  0  0  0  0  0  0  0  0  0
   49.7501   27.6797   47.9711 O   0  0  0  0  0  0  0  0  0  0  0  0
   49.1845   30.2627   48.5788 O   0  0  0  0  0  0  0  0  0  0  0  0
   50.5416   30.6690   46.0970 H   0  0  0  0  0  0  0  0  0  0  0  0
   48.9514   27.1378   48.0726 H   0  0  0  0  0  0  0  0  0  0  0  0
  1  2  2  0
  2  3  1  0
  3  7  1  0
  4  3  2  0
  5  4  1  0
  6  1  1  0
  6  5  2  0
  9  7  1  6
  9  8  2  0
  9 10  1  0
 11  9  1  0
 11 12  1  0
 12 13  2  0
  1 14  1  0
  2 15  1  0
  5 16  1  0
 10 17  1  0
 18 19  2  0
 19 20  1  0
 19 21  1  0
 19 22  1  0
 20 23  1  0
 21 24  1  0
 12 22  1  0
M  ISO  4  14  14  15  14  16  14  17   3
M  END
>  <DihAtoms>  (1) 
10,11,21,18

>  <DihDeg>  (1) 
179.75412004619568

$$$$
