
     RDKit          3D

 20 20  0  0  0  0  0  0  0  0999 V2000
   44.6710   36.1420   43.9230 C   0  0  0  0  0  0  0  0  0  0  0  0
   45.5950   35.6650   42.9800 C   0  0  0  0  0  0  0  0  0  0  0  0
   46.3480   34.5280   43.3290 C   0  0  0  0  0  0  0  0  0  0  0  0
   46.1480   33.9560   44.5430 N   0  0  0  0  0  0  0  0  0  0  0  0
   45.2440   34.4530   45.4180 C   0  0  0  0  0  0  0  0  0  0  0  0
   44.4990   35.5490   45.1170 N   0  0  0  0  0  0  0  0  0  0  0  0
   46.0850   32.8750   47.0580 C   0  0  0  0  0  0  0  0  0  0  0  0
   47.0880   32.5840   46.3830 O   0  0  0  0  0  0  0  0  0  0  0  0
   45.0840   33.8050   46.6730 N   0  0  0  0  0  0  0  0  0  0  0  0
   45.8710   32.2700   48.3030 O   0  0  0  0  0  0  0  0  0  0  0  0
   46.6950   29.9180   47.3090 O   0  0  0  0  0  0  0  0  0  0  0  0
   46.3520   30.6480   48.5700 P   0  0  0  0  0  0  0  0  0  0  0  0
   47.6770   30.7240   49.6380 O   0  0  0  0  0  0  0  0  0  0  0  0
   45.0900   29.8690   49.4100 O   0  0  0  0  0  0  0  0  0  0  0  0
   44.0687   37.0290   43.6771 H   0  0  0  0  0  0  0  0  0  0  0  0
   45.7255   36.1603   42.0065 H   0  0  0  0  0  0  0  0  0  0  0  0
   47.0865   34.1101   42.6290 H   0  0  0  0  0  0  0  0  0  0  0  0
   44.2745   34.0023   47.2785 H   0  0  0  0  0  0  0  0  0  0  0  0
   47.3495   30.7052   50.5721 H   0  0  0  0  0  0  0  0  0  0  0  0
   45.2371   29.9598   50.3848 H   0  0  0  0  0  0  0  0  0  0  0  0
  1  6  2  0
  2  3  2  0
  2  1  1  0
  3  4  1  0
  4  5  2  0
  5  9  1  0
  6  5  1  0
  7 10  1  0
  8  7  2  0
  9  7  1  0
 10 12  1  0
 11 12  2  0
 12 14  1  0
 12 13  1  0
  1 15  1  0
  2 16  1  0
  3 17  1  0
  9 18  1  0
 13 19  1  0
 14 20  1  0
M  ISO  5  15  14  16  14  17  14  19   3  20   3
M  END
>  <minimizedAffinity>  (1) 
-5.28003025

>  <minimizedRMSD>  (1) 
0.894098043

$$$$
