
     RDKit          3D

 18 18  0  0  0  0  0  0  0  0999 V2000
   46.1180   34.6980   43.3630 C   0  0  0  0  0  0  0  0  0  0  0  0
   46.5960   33.7130   44.2290 C   0  0  0  0  0  0  0  0  0  0  0  0
   46.0370   33.6420   45.5110 C   0  0  0  0  0  0  0  0  0  0  0  0
   45.0650   34.5290   45.8410 N   0  0  0  0  0  0  0  0  0  0  0  0
   44.6270   35.4680   44.9760 C   0  0  0  0  0  0  0  0  0  0  0  0
   45.1590   35.5470   43.7360 N   0  0  0  0  0  0  0  0  0  0  0  0
   46.5690   32.6020   46.3700 C   0  0  0  0  0  0  0  0  0  0  0  0
   47.2090   31.6110   45.9600 O   0  0  0  0  0  0  0  0  0  0  0  0
   46.4000   32.6350   47.7520 O   0  0  0  0  0  0  0  0  0  0  0  0
   44.8200   30.5890   47.9110 O   0  0  0  0  0  0  0  0  0  0  0  0
   45.9430   31.2870   48.6740 P   0  0  0  0  0  0  0  0  0  0  0  0
   47.2010   30.2370   49.0280 O   0  0  0  0  0  0  0  0  0  0  0  0
   45.2440   31.8370   50.1240 O   0  0  0  0  0  0  0  0  0  0  0  0
   46.5414   34.7758   42.3507 H   0  0  0  0  0  0  0  0  0  0  0  0
   47.3861   33.0152   43.9146 H   0  0  0  0  0  0  0  0  0  0  0  0
   43.8364   36.1696   45.2805 H   0  0  0  0  0  0  0  0  0  0  0  0
   47.2973   30.1566   50.0100 H   0  0  0  0  0  0  0  0  0  0  0  0
   45.7337   31.4517   50.8933 H   0  0  0  0  0  0  0  0  0  0  0  0
  1  6  2  0
  1  2  1  0
  2  3  2  0
  3  4  1  0
  3  7  1  0
  5  4  2  0
  6  5  1  0
  7  9  1  0
  8  7  2  0
  9 11  1  0
 10 11  2  0
 11 12  1  0
 11 13  1  0
  1 14  1  0
  2 15  1  0
  5 16  1  0
 12 17  1  0
 13 18  1  0
M  ISO  5  14  14  15  14  16  14  17   3  18   3
M  END
>  <minimizedAffinity>  (1) 
-4.5280652

>  <minimizedRMSD>  (1) 
6.83513355

$$$$
