
     RDKit          3D

 37 39  0  0  0  0  0  0  0  0999 V2000
   47.3704   33.7348   39.7613 C   0  0  0  0  0  0  0  0  0  0  0  0
   48.2913   34.4701   38.9994 C   0  0  0  0  0  0  0  0  0  0  0  0
   48.0069   34.2838   37.6612 C   0  0  0  0  0  0  0  0  0  0  0  0
   46.9346   33.4502   37.6678 C   0  0  0  0  0  0  0  0  0  0  0  0
   46.5700   33.1347   38.8996 O   0  0  0  0  0  0  0  0  0  0  0  0
   46.2592   32.9595   36.4459 C   0  0  2  0  0  0  0  0  0  0  0  0
   46.0527   31.5285   36.2328 C   0  0  0  0  0  0  0  0  0  0  0  0
   47.1968   32.1438   35.5127 C   0  0  1  0  0  0  0  0  0  0  0  0
   48.0855   32.6304   33.2412 C   0  0  0  0  0  0  0  0  0  0  0  0
   49.2851   32.5976   33.6423 O   0  0  0  0  0  0  0  0  0  0  0  0
   46.9728   32.4367   34.0994 N   0  0  0  0  0  0  0  0  0  0  0  0
   47.2171   33.5806   41.1637 O   0  0  0  0  0  0  0  0  0  0  0  0
   47.3363   34.7204   41.9870 C   0  0  0  0  0  0  0  0  0  0  0  0
   48.2269   35.5551   41.6503 O   0  0  0  0  0  0  0  0  0  0  0  0
   46.4565   34.8113   43.0926 C   0  0  0  0  0  0  0  0  0  0  0  0
   45.5713   35.8393   43.0819 C   0  0  0  0  0  0  0  0  0  0  0  0
   44.6816   35.9791   44.1427 C   0  0  0  0  0  0  0  0  0  0  0  0
   44.7405   35.0804   45.1395 N   0  0  0  0  0  0  0  0  0  0  0  0
   45.6175   34.0762   45.1332 C   0  0  0  0  0  0  0  0  0  0  0  0
   46.4541   33.9725   44.1023 N   0  0  0  0  0  0  0  0  0  0  0  0
   49.0625   35.0569   39.4805 H   0  0  0  0  0  0  0  0  0  0  0  0
   48.5567   34.7320   36.8514 H   0  0  0  0  0  0  0  0  0  0  0  0
   45.6024   33.6862   35.9443 H   0  0  0  0  0  0  0  0  0  0  0  0
   45.1823   31.1409   35.6512 H   0  0  0  0  0  0  0  0  0  0  0  0
   46.3205   30.8410   37.0826 H   0  0  0  0  0  0  0  0  0  0  0  0
   48.2324   32.0362   35.8345 H   0  0  0  0  0  0  0  0  0  0  0  0
   48.0032   32.8225   32.1715 H   0  0  0  0  0  0  0  0  0  0  0  0
   46.0076   32.5043   33.7176 H   0  0  0  0  0  0  0  0  0  0  0  0
   45.5169   36.5666   42.2845 H   0  0  0  0  0  0  0  0  0  0  0  0
   43.9624   36.8097   44.1395 H   0  0  0  0  0  0  0  0  0  0  0  0
   46.4975   30.9064   45.5888 O   0  0  0  0  0  0  0  0  0  0  0  0
   45.2071   31.5971   45.9925 P   0  0  0  0  0  0  0  0  0  0  0  0
   44.7085   30.8871   47.4475 O   0  0  0  0  0  0  0  0  0  0  0  0
   44.0850   31.3103   44.7765 O   0  0  0  0  0  0  0  0  0  0  0  0
   45.5466   33.2456   46.2275 O   0  0  0  0  0  0  0  0  0  0  0  0
   44.0707   31.4895   47.8991 H   0  0  0  0  0  0  0  0  0  0  0  0
   43.3700   31.9839   44.8474 H   0  0  0  0  0  0  0  0  0  0  0  0
  1 12  1  0
  2  1  2  0
  3  2  1  0
  4  3  2  0
  4  5  1  0
  5  1  1  0
  6  4  1  0
  7  6  1  0
  8  7  1  0
  8  6  1  0
  9 10  2  0
  9 11  1  0
 11  8  1  0
 12 13  1  0
 13 15  1  0
 14 13  2  0
 15 20  1  0
 16 15  2  0
 16 17  1  0
 17 18  2  0
 19 18  1  0
 20 19  2  0
  2 21  1  0
  3 22  1  0
  6 23  1  6
  7 24  1  0
  7 25  1  0
  8 26  1  1
  9 27  1  0
 11 28  1  0
 16 29  1  0
 17 30  1  0
 31 32  2  0
 32 33  1  0
 32 34  1  0
 32 35  1  0
 33 36  1  0
 34 37  1  0
 19 35  1  0
M  ISO  8  21  14  22  14  23  13  24  13  25  13  26  13  27   6  29  14
M  ISO  1  30  14
M  END
>  <DihAtoms>  (1) 
17,18,34,31

>  <DihDeg>  (1) 
-179.99963797153782

$$$$
