
     RDKit          3D

 27 28  0  0  1  0  0  0  0  0999 V2000
   46.4300   34.7400   43.1780 C   0  0  0  0  0  0  0  0  0  0  0  0
   45.4220   35.6840   43.4580 C   0  0  0  0  0  0  0  0  0  0  0  0
   44.6860   35.5160   44.6360 C   0  0  0  0  0  0  0  0  0  0  0  0
   44.9930   34.4540   45.4260 N   0  0  0  0  0  0  0  0  0  0  0  0
   45.9850   33.5740   45.0920 C   0  0  0  0  0  0  0  0  0  0  0  0
   46.7120   33.6880   43.9900 N   0  0  0  0  0  0  0  0  0  0  0  0
   46.2740   32.4390   46.0270 C   0  0  1  0  0  0  0  0  0  0  0  0
   47.0010   32.7190   47.3210 C   0  0  0  0  0  0  0  0  0  0  0  0
   45.5140   32.4820   47.2930 C   0  0  1  0  0  0  0  0  0  0  0  0
   44.7750   33.7010   47.6480 N   0  0  0  0  0  0  0  0  0  0  0  0
   47.1610   34.9760   41.9570 C   0  0  0  0  0  0  0  0  0  0  0  0
   48.2510   35.6470   41.8970 O   0  0  0  0  0  0  0  0  0  0  0  0
   46.6710   34.4510   40.7450 O   0  0  0  0  0  0  0  0  0  0  0  0
   47.0880   32.1700   39.4090 O   0  0  0  0  0  0  0  0  0  0  0  0
   47.6680   33.5250   39.6900 P   0  0  0  0  0  0  0  0  0  0  0  0
   47.8160   34.4340   38.2570 O   0  0  0  0  0  0  0  0  0  0  0  0
   49.2370   33.3940   40.3280 O   0  0  0  0  0  0  0  0  0  0  0  0
   45.2210   36.5226   42.7752 H   0  0  0  0  0  0  0  0  0  0  0  0
   43.8867   36.2192   44.9129 H   0  0  0  0  0  0  0  0  0  0  0  0
   46.4422   31.7155   45.2157 H   0  0  0  0  0  0  0  0  0  0  0  0
   47.6741   31.9636   47.7526 H   0  0  0  0  0  0  0  0  0  0  0  0
   47.6630   33.5144   47.6941 H   0  0  0  0  0  0  0  0  0  0  0  0
   44.7850   31.7828   47.7285 H   0  0  0  0  0  0  0  0  0  0  0  0
   44.7239   33.7852   48.6733 H   0  0  0  0  0  0  0  0  0  0  0  0
   45.2606   34.5222   47.2598 H   0  0  0  0  0  0  0  0  0  0  0  0
   47.9709   35.3851   38.4840 H   0  0  0  0  0  0  0  0  0  0  0  0
   49.1925   33.3977   41.3170 H   0  0  0  0  0  0  0  0  0  0  0  0
  1  2  2  0
  1  6  1  0
  2  3  1  0
  3  4  2  0
  5  4  1  0
  5  7  1  0
  6  5  2  0
  7  9  1  0
  7  8  1  0
  9  8  1  0
  9 10  1  0
 11  1  1  0
 12 11  2  0
 13 11  1  0
 14 15  2  0
 15 17  1  0
 15 13  1  0
 16 15  1  0
  2 18  1  0
  3 19  1  0
  7 20  1  6
  8 21  1  0
  8 22  1  0
  9 23  1  1
 10 24  1  0
 10 25  1  0
 16 26  1  0
 17 27  1  0
M  ISO  8  18  14  19  14  20  13  21  13  22  13  23  13  24   5  25   5
M  ISO  2  26   3  27   3
M  END
>  <minimizedAffinity>  (1) 
-5.42302656

>  <minimizedRMSD>  (1) 
0.493169278

$$$$
