
     RDKit          3D

 36 37  0  0  0  0  0  0  0  0999 V2000
   45.2812   35.6145   44.2168 C   0  0  0  0  0  0  0  0  0  0  0  0
   46.2442   34.8594   43.5251 C   0  0  0  0  0  0  0  0  0  0  0  0
   46.7090   33.6637   44.0830 C   0  0  0  0  0  0  0  0  0  0  0  0
   46.2013   33.3032   45.2600 N   0  0  0  0  0  0  0  0  0  0  0  0
   45.2749   34.0391   45.9142 C   0  0  0  0  0  0  0  0  0  0  0  0
   44.8091   35.1989   45.3972 N   0  0  0  0  0  0  0  0  0  0  0  0
   48.6868   33.7723   42.5819 C   0  0  2  0  0  0  0  0  0  0  0  0
   47.6995   32.9349   43.3160 C   0  0  2  0  0  0  0  0  0  0  0  0
   47.1626   32.1541   42.2501 O   0  0  0  0  0  0  0  0  0  0  0  0
   48.2973   31.6814   41.6211 C   0  0  0  0  0  0  0  0  0  0  0  0
   49.4282   32.6426   41.8376 C   0  0  1  0  0  0  0  0  0  0  0  0
   49.4942   34.5377   43.3661 O   0  0  0  0  0  0  0  0  0  0  0  0
   49.9534   33.1607   40.6559 O   0  0  0  0  0  0  0  0  0  0  0  0
   44.8070   36.9023   43.5978 C   0  0  0  0  0  0  0  0  0  0  0  0
   45.3382   39.2623   44.4639 C   0  0  0  0  0  0  0  0  0  0  0  0
   45.6202   39.6173   43.2848 O   0  0  0  0  0  0  0  0  0  0  0  0
   44.9228   37.9134   44.6404 N   0  0  0  0  0  0  0  0  0  0  0  0
   46.5793   35.2566   42.5764 H   0  0  0  0  0  0  0  0  0  0  0  0
   44.9062   33.6838   46.8688 H   0  0  0  0  0  0  0  0  0  0  0  0
   48.2067   34.3528   41.7433 H   0  0  0  0  0  0  0  0  0  0  0  0
   48.2640   32.2443   44.0030 H   0  0  0  0  0  0  0  0  0  0  0  0
   48.5711   30.6853   42.0221 H   0  0  0  0  0  0  0  0  0  0  0  0
   48.1188   31.5921   40.5375 H   0  0  0  0  0  0  0  0  0  0  0  0
   50.2055   32.2673   42.5133 H   0  0  0  0  0  0  0  0  0  0  0  0
   49.4723   35.5006   43.1347 H   0  0  0  0  0  0  0  0  0  0  0  0
   50.5404   33.9131   40.9199 H   0  0  0  0  0  0  0  0  0  0  0  0
   43.7451   36.7759   43.3468 H   0  0  0  0  0  0  0  0  0  0  0  0
   45.4227   37.1382   42.7275 H   0  0  0  0  0  0  0  0  0  0  0  0
   44.6742   37.6208   45.6303 H   0  0  0  0  0  0  0  0  0  0  0  0
   47.7985   39.2526   46.3871 O   0  0  0  0  0  0  0  0  0  0  0  0
   46.9847   40.5317   46.1771 P   0  0  0  0  0  0  0  0  0  0  0  0
   46.8305   41.4032   47.5994 O   0  0  0  0  0  0  0  0  0  0  0  0
   47.7872   41.3989   44.9783 O   0  0  0  0  0  0  0  0  0  0  0  0
   45.4211   40.1254   45.5496 O   0  0  0  0  0  0  0  0  0  0  0  0
   47.4562   40.9825   48.2615 H   0  0  0  0  0  0  0  0  0  0  0  0
   48.3642   40.8074   44.4003 H   0  0  0  0  0  0  0  0  0  0  0  0
  1  6  2  0
  2  3  2  0
  2  1  1  0
  3  4  1  0
  4  5  2  0
  6  5  1  0
  7  8  1  0
  7 12  1  0
  8  3  1  0
  9  8  1  0
 10 11  1  0
 10  9  1  0
 11  7  1  0
 13 11  1  0
 14  1  1  0
 14 17  1  0
 15 17  1  0
 16 15  2  0
  2 18  1  0
  5 19  1  0
  7 20  1  6
  8 21  1  1
 10 22  1  0
 10 23  1  0
 11 24  1  1
 12 25  1  0
 13 26  1  0
 14 27  1  0
 14 28  1  0
 17 29  1  0
 30 31  2  0
 31 32  1  0
 31 33  1  0
 31 34  1  0
 32 35  1  0
 33 36  1  0
 15 34  1  0
M  ISO  8  18  14  19  14  20  13  21  13  22  13  23  13  24  13  25   3
M  ISO  3  26   3  27   8  28   8
M  END
>  <DihAtoms>  (1) 
16,14,33,30

>  <DihDeg>  (1) 
179.99949821282613

$$$$
