
     RDKit          3D

 36 37  0  0  1  0  0  0  0  0999 V2000
   45.2340   36.2100   43.9680 C   0  0  0  0  0  0  0  0  0  0  0  0
   46.0430   35.3500   43.2040 C   0  0  0  0  0  0  0  0  0  0  0  0
   46.2870   34.0520   43.6610 C   0  0  0  0  0  0  0  0  0  0  0  0
   45.7260   33.6970   44.8160 N   0  0  0  0  0  0  0  0  0  0  0  0
   44.9510   34.5340   45.5400 C   0  0  0  0  0  0  0  0  0  0  0  0
   44.7000   35.7950   45.1210 N   0  0  0  0  0  0  0  0  0  0  0  0
   48.3540   33.8720   42.2930 C   0  0  2  0  0  0  0  0  0  0  0  0
   47.1270   33.2190   42.8230 C   0  0  2  0  0  0  0  0  0  0  0  0
   46.5080   32.7850   41.6130 O   0  0  0  0  0  0  0  0  0  0  0  0
   47.5390   32.1360   40.9630 C   0  0  0  0  0  0  0  0  0  0  0  0
   48.8510   32.7210   41.3960 C   0  0  1  0  0  0  0  0  0  0  0  0
   49.2540   34.2650   43.2350 O   0  0  0  0  0  0  0  0  0  0  0  0
   49.5930   33.2630   40.3490 O   0  0  0  0  0  0  0  0  0  0  0  0
   44.9980   37.6060   43.4570 C   0  0  0  0  0  0  0  0  0  0  0  0
   45.1620   39.8440   44.7090 C   0  0  0  0  0  0  0  0  0  0  0  0
   45.5280   40.4020   43.6360 O   0  0  0  0  0  0  0  0  0  0  0  0
   44.8860   38.4510   44.6390 N   0  0  0  0  0  0  0  0  0  0  0  0
   45.0300   40.5330   45.9080 O   0  0  0  0  0  0  0  0  0  0  0  0
   44.5690   42.7740   44.5360 O   0  0  0  0  0  0  0  0  0  0  0  0
   44.3120   42.1110   45.8910 P   0  0  0  0  0  0  0  0  0  0  0  0
   44.9130   43.0350   47.1520 O   0  0  0  0  0  0  0  0  0  0  0  0
   42.6450   41.8960   45.9930 O   0  0  0  0  0  0  0  0  0  0  0  0
   46.4797   35.6958   42.2555 H   0  0  0  0  0  0  0  0  0  0  0  0
   44.5162   34.1833   46.4876 H   0  0  0  0  0  0  0  0  0  0  0  0
   48.1832   34.8360   41.7914 H   0  0  0  0  0  0  0  0  0  0  0  0
   47.3418   32.4103   43.5370 H   0  0  0  0  0  0  0  0  0  0  0  0
   47.4230   32.2604   39.8762 H   0  0  0  0  0  0  0  0  0  0  0  0
   47.5144   31.0654   41.2146 H   0  0  0  0  0  0  0  0  0  0  0  0
   49.5159   31.9744   41.8548 H   0  0  0  0  0  0  0  0  0  0  0  0
   48.8801   34.1017   44.1370 H   0  0  0  0  0  0  0  0  0  0  0  0
   50.3353   33.8052   40.7167 H   0  0  0  0  0  0  0  0  0  0  0  0
   45.8423   37.9324   42.8321 H   0  0  0  0  0  0  0  0  0  0  0  0
   44.0926   37.6603   42.8347 H   0  0  0  0  0  0  0  0  0  0  0  0
   44.5766   37.9944   45.5089 H   0  0  0  0  0  0  0  0  0  0  0  0
   44.6482   42.6280   48.0147 H   0  0  0  0  0  0  0  0  0  0  0  0
   42.3744   41.8611   46.9447 H   0  0  0  0  0  0  0  0  0  0  0  0
  1  6  2  0
  2  3  2  0
  2  1  1  0
  3  4  1  0
  4  5  2  0
  6  5  1  0
  7  8  1  0
  7 12  1  0
  8  3  1  0
  9  8  1  0
 10 11  1  0
 10  9  1  0
 11  7  1  0
 13 11  1  0
 14  1  1  0
 14 17  1  0
 15 18  1  0
 16 15  2  0
 17 15  1  0
 19 20  2  0
 20 18  1  0
 20 22  1  0
 20 21  1  0
  2 23  1  0
  5 24  1  0
  7 25  1  6
  8 26  1  1
 10 27  1  0
 10 28  1  0
 11 29  1  1
 12 30  1  0
 13 31  1  0
 14 32  1  0
 14 33  1  0
 17 34  1  0
 21 35  1  0
 22 36  1  0
M  ISO  8  23  14  24  14  25  13  26  13  27  13  28  13  29  13  30   3
M  ISO  5  31   3  32   8  33   8  35   3  36   3
M  END
>  <minimizedAffinity>  (1) 
-5.12596083

>  <minimizedRMSD>  (1) 
0.749303281

$$$$
