
     RDKit          3D

 23 24  0  0  1  0  0  0  0  0999 V2000
   48.0210   35.6190   42.0300 C   0  0  1  0  0  0  0  0  0  0  0  0
   49.4340   35.1070   41.9780 C   0  0  0  0  0  0  0  0  0  0  0  0
   48.5720   35.1910   40.7430 C   0  0  1  0  0  0  0  0  0  0  0  0
   46.5780   32.8300   44.1250 C   0  0  0  0  0  0  0  0  0  0  0  0
   47.5520   33.6510   43.5280 C   0  0  0  0  0  0  0  0  0  0  0  0
   47.0740   34.6680   42.7090 C   0  0  0  0  0  0  0  0  0  0  0  0
   45.7210   34.8250   42.5230 N   0  0  0  0  0  0  0  0  0  0  0  0
   44.8210   34.0210   43.1120 C   0  0  0  0  0  0  0  0  0  0  0  0
   45.2570   33.0230   43.9140 N   0  0  0  0  0  0  0  0  0  0  0  0
   48.0030   34.1250   40.1510 O   0  0  0  0  0  0  0  0  0  0  0  0
   48.7100   32.5290   38.1310 O   0  0  0  0  0  0  0  0  0  0  0  0
   48.1880   33.8720   38.5460 P   0  0  0  0  0  0  0  0  0  0  0  0
   49.1480   35.0390   37.7780 O   0  0  0  0  0  0  0  0  0  0  0  0
   46.6490   34.0000   37.8200 O   0  0  0  0  0  0  0  0  0  0  0  0
   47.5216   36.5396   42.3664 H   0  0  0  0  0  0  0  0  0  0  0  0
   50.2798   35.7973   42.1125 H   0  0  0  0  0  0  0  0  0  0  0  0
   50.0060   34.3180   42.4881 H   0  0  0  0  0  0  0  0  0  0  0  0
   48.7518   35.6294   39.7503 H   0  0  0  0  0  0  0  0  0  0  0  0
   46.9004   32.0084   44.7816 H   0  0  0  0  0  0  0  0  0  0  0  0
   48.6277   33.4975   43.6989 H   0  0  0  0  0  0  0  0  0  0  0  0
   43.7443   34.1720   42.9446 H   0  0  0  0  0  0  0  0  0  0  0  0
   49.6036   35.5928   38.4606 H   0  0  0  0  0  0  0  0  0  0  0  0
   45.9557   34.0577   38.5243 H   0  0  0  0  0  0  0  0  0  0  0  0
  1  6  1  0
  2  1  1  0
  3  2  1  0
  3  1  1  0
  5  4  2  0
  6  5  1  0
  7  6  2  0
  7  8  1  0
  8  9  2  0
  9  4  1  0
 10  3  1  0
 11 12  2  0
 12 10  1  0
 13 12  1  0
 14 12  1  0
  1 15  1  6
  2 16  1  0
  2 17  1  0
  3 18  1  6
  4 19  1  0
  5 20  1  0
  8 21  1  0
 13 22  1  0
 14 23  1  0
M  ISO  8  15  13  16  13  17  13  18  13  19  14  20  14  21  14  22   3
M  ISO  1  23   3
M  END
>  <minimizedAffinity>  (1) 
-4.19974709

>  <minimizedRMSD>  (1) 
3.89658594

$$$$
