
     RDKit          3D

 43 44  0  0  0  0  0  0  0  0999 V2000
   43.0600   32.5510   41.6260 C   0  0  0  0  0  0  0  0  0  0  0  0
   43.6690   34.9670   41.8860 C   0  0  0  0  0  0  0  0  0  0  0  0
   43.9250   33.6350   42.1860 C   0  0  0  0  0  0  0  0  0  0  0  0
   44.9880   33.3500   43.0070 C   0  0  0  0  0  0  0  0  0  0  0  0
   45.7660   34.3510   43.5090 C   0  0  0  0  0  0  0  0  0  0  0  0
   45.5310   35.6700   43.2270 C   0  0  0  0  0  0  0  0  0  0  0  0
   44.4540   35.9220   42.3990 C   0  0  0  0  0  0  0  0  0  0  0  0
   40.2330   35.8120   40.5210 C   0  0  0  0  0  0  0  0  0  0  0  0
   41.2630   35.5940   41.4550 C   0  0  0  0  0  0  0  0  0  0  0  0
   42.5290   35.2200   41.0110 C   0  0  0  0  0  0  0  0  0  0  0  0
   42.7010   35.0840   39.6660 N   0  0  0  0  0  0  0  0  0  0  0  0
   41.6940   35.2990   38.7700 C   0  0  0  0  0  0  0  0  0  0  0  0
   40.4740   35.6610   39.2240 N   0  0  0  0  0  0  0  0  0  0  0  0
   42.6920   31.5390   42.5820 N   0  0  0  0  0  0  0  0  0  0  0  0
   41.0190   31.1680   42.5260 S   0  0  0  0  0  0  0  0  0  0  0  0
   40.1970   32.4270   42.4740 O   0  0  0  0  0  0  0  0  0  0  0  0
   40.6330   30.3400   43.7040 O   0  0  0  0  0  0  0  0  0  0  0  0
   40.7510   30.2790   41.1360 O   0  0  0  0  0  0  0  0  0  0  0  0
   39.8930   30.9770   40.3240 C   0  0  0  0  0  0  0  0  0  0  0  0
   38.6080   30.1420   40.1180 C   0  0  0  0  0  0  0  0  0  0  0  0
   38.9520   28.8360   40.4560 O   0  0  0  0  0  0  0  0  0  0  0  0
   36.5640   27.7860   40.3740 O   0  0  0  0  0  0  0  0  0  0  0  0
   37.7060   28.0690   41.3090 P   0  0  0  0  0  0  0  0  0  0  0  0
   38.2560   26.5680   41.9130 O   0  0  0  0  0  0  0  0  0  0  0  0
   37.1920   28.9830   42.6340 O   0  0  0  0  0  0  0  0  0  0  0  0
   42.1391   33.0102   41.2374 H   0  0  0  0  0  0  0  0  0  0  0  0
   43.6477   32.0490   40.8434 H   0  0  0  0  0  0  0  0  0  0  0  0
   45.2141   32.3042   43.2622 H   0  0  0  0  0  0  0  0  0  0  0  0
   46.6112   34.0899   44.1628 H   0  0  0  0  0  0  0  0  0  0  0  0
   46.1589   36.4767   43.6332 H   0  0  0  0  0  0  0  0  0  0  0  0
   44.2285   36.9687   42.1467 H   0  0  0  0  0  0  0  0  0  0  0  0
   39.2305   36.1068   40.8647 H   0  0  0  0  0  0  0  0  0  0  0  0
   41.0691   35.7184   42.5306 H   0  0  0  0  0  0  0  0  0  0  0  0
   41.8735   35.1790   37.6914 H   0  0  0  0  0  0  0  0  0  0  0  0
   43.2280   30.6828   42.3808 H   0  0  0  0  0  0  0  0  0  0  0  0
   39.9991   32.7302   43.3954 H   0  0  0  0  0  0  0  0  0  0  0  0
   40.8592   30.8252   44.5368 H   0  0  0  0  0  0  0  0  0  0  0  0
   39.6377   31.9375   40.7954 H   0  0  0  0  0  0  0  0  0  0  0  0
   40.3724   31.1692   39.3528 H   0  0  0  0  0  0  0  0  0  0  0  0
   37.8030   30.5085   40.7719 H   0  0  0  0  0  0  0  0  0  0  0  0
   38.2391   30.2111   39.0840 H   0  0  0  0  0  0  0  0  0  0  0  0
   38.2487   26.5879   42.9028 H   0  0  0  0  0  0  0  0  0  0  0  0
   37.4504   28.5235   43.4720 H   0  0  0  0  0  0  0  0  0  0  0  0
  1  3  1  0
  1 14  1  0
  2  3  2  0
  2  7  1  0
  3  4  1  0
  4  5  2  0
  6  5  1  0
  7  6  2  0
  8  9  2  0
 10  9  1  0
 10  2  1  0
 11 10  2  0
 12 13  2  0
 12 11  1  0
 13  8  1  0
 15 14  1  0
 15 17  1  0
 16 15  1  0
 18 15  1  0
 19 18  1  0
 20 19  1  0
 20 21  1  0
 21 23  1  0
 22 23  2  0
 23 24  1  0
 23 25  1  0
  1 26  1  0
  1 27  1  0
  4 28  1  0
  5 29  1  0
  6 30  1  0
  7 31  1  0
  8 32  1  0
  9 33  1  0
 12 34  1  0
 14 35  1  0
 16 36  1  0
 17 37  1  0
 19 38  1  0
 19 39  1  0
 20 40  1  0
 20 41  1  0
 24 42  1  0
 25 43  1  0
M  ISO  8  26   8  27   8  28  14  29  14  30  14  31  14  32  14  33  14
M  ISO  8  34  14  35   5  36   3  37   3  38   8  39   8  40   8  41   8
M  ISO  2  42   3  43   3
M  END
>  <minimizedAffinity>  (1) 
-5.47605133

>  <minimizedRMSD>  (1) 
2.43456531

$$$$
