
     RDKit          3D

 23 24  0  0  0  0  0  0  0  0999 V2000
   45.5330   34.0690   45.6080 C   0  0  0  0  0  0  0  0  0  0  0  0
   46.1840   34.0240   44.3630 C   0  0  0  0  0  0  0  0  0  0  0  0
   47.0210   32.9240   44.1710 C   0  0  0  0  0  0  0  0  0  0  0  0
   47.1630   31.9740   45.1670 N   0  0  0  0  0  0  0  0  0  0  0  0
   46.5160   32.0670   46.3330 C   0  0  0  0  0  0  0  0  0  0  0  0
   45.7050   33.1170   46.5450 N   0  0  0  0  0  0  0  0  0  0  0  0
   47.6850   32.7750   42.8210 C   0  0  0  0  0  0  0  0  0  0  0  0
   49.0520   33.4730   42.8080 C   0  0  0  0  0  0  0  0  0  0  0  0
   48.8520   31.9240   42.7570 C   0  0  0  0  0  0  0  0  0  0  0  0
   46.0200   34.9730   43.4100 O   0  0  0  0  0  0  0  0  0  0  0  0
   44.1690   35.8130   41.8100 O   0  0  0  0  0  0  0  0  0  0  0  0
   44.7440   36.0360   43.2120 P   0  0  0  0  0  0  0  0  0  0  0  0
   45.1010   37.6560   43.3290 O   0  0  0  0  0  0  0  0  0  0  0  0
   43.4300   35.7040   44.2490 O   0  0  0  0  0  0  0  0  0  0  0  0
   44.8595   34.9113   45.8246 H   0  0  0  0  0  0  0  0  0  0  0  0
   46.6455   31.2960   47.1068 H   0  0  0  0  0  0  0  0  0  0  0  0
   46.7704   32.8007   42.2104 H   0  0  0  0  0  0  0  0  0  0  0  0
   49.3924   34.0250   41.9195 H   0  0  0  0  0  0  0  0  0  0  0  0
   49.5920   34.1920   43.4415 H   0  0  0  0  0  0  0  0  0  0  0  0
   49.0773   31.3739   41.8314 H   0  0  0  0  0  0  0  0  0  0  0  0
   49.2233   31.0789   43.3553 H   0  0  0  0  0  0  0  0  0  0  0  0
   45.1577   37.9133   44.2833 H   0  0  0  0  0  0  0  0  0  0  0  0
   43.7258   35.7787   45.1908 H   0  0  0  0  0  0  0  0  0  0  0  0
  1  6  2  0
  2  1  1  0
  3  2  2  0
  3  4  1  0
  4  5  2  0
  5  6  1  0
  7  3  1  0
  8  7  1  0
  9  8  1  0
  9  7  1  0
 10  2  1  0
 11 12  2  0
 12 13  1  0
 12 10  1  0
 12 14  1  0
  1 15  1  0
  5 16  1  0
  7 17  1  0
  8 18  1  0
  8 19  1  0
  9 20  1  0
  9 21  1  0
 13 22  1  0
 14 23  1  0
M  ISO  8  15  14  16  14  17  13  18  13  19  13  20  13  21  13  22   3
M  ISO  1  23   3
M  END
>  <minimizedAffinity>  (1) 
-4.33551407

>  <minimizedRMSD>  (1) 
2.5657084

$$$$
