
     RDKit          3D

 41 42  0  0  1  0  0  0  0  0999 V2000
   46.2950   33.3710   41.9420 C   0  0  1  0  0  0  0  0  0  0  0  0
   45.8600   34.2700   40.8040 C   0  0  0  0  0  0  0  0  0  0  0  0
   45.7080   33.2470   39.6810 C   0  0  0  0  0  0  0  0  0  0  0  0
   46.6990   32.1520   39.9930 C   0  0  0  0  0  0  0  0  0  0  0  0
   47.4040   32.6010   41.2590 C   0  0  1  0  0  0  0  0  0  0  0  0
   48.6230   33.4280   40.9720 C   0  0  0  0  0  0  0  0  0  0  0  0
   49.6300   32.5230   40.5720 O   0  0  0  0  0  0  0  0  0  0  0  0
   50.9530   33.6400   42.5830 O   0  0  0  0  0  0  0  0  0  0  0  0
   50.8570   32.4240   41.7140 P   0  0  0  0  0  0  0  0  0  0  0  0
   50.6890   31.0800   42.7380 O   0  0  0  0  0  0  0  0  0  0  0  0
   52.3240   32.2240   40.8890 O   0  0  0  0  0  0  0  0  0  0  0  0
   46.7720   34.1090   43.0300 O   0  0  0  0  0  0  0  0  0  0  0  0
   44.9980   35.4450   44.3550 O   0  0  0  0  0  0  0  0  0  0  0  0
   45.6240   34.0800   44.2560 P   0  0  1  0  0  0  0  0  0  0  0  0
   44.4810   32.8810   43.9810 O   0  0  0  0  0  0  0  0  0  0  0  0
   46.3800   33.6900   45.7050 O   0  0  0  0  0  0  0  0  0  0  0  0
   46.6640   32.3600   45.7130 C   0  0  0  0  0  0  0  0  0  0  0  0
   45.5900   31.6610   49.2070 C   0  0  0  0  0  0  0  0  0  0  0  0
   46.1250   32.3350   48.1020 C   0  0  0  0  0  0  0  0  0  0  0  0
   46.1060   31.6680   46.8870 C   0  0  0  0  0  0  0  0  0  0  0  0
   45.5750   30.4050   46.8220 N   0  0  0  0  0  0  0  0  0  0  0  0
   45.0650   29.7830   47.9070 C   0  0  0  0  0  0  0  0  0  0  0  0
   45.0770   30.4120   49.0850 N   0  0  0  0  0  0  0  0  0  0  0  0
   45.4966   32.7494   42.3734 H   0  0  0  0  0  0  0  0  0  0  0  0
   44.9075   34.7734   41.0259 H   0  0  0  0  0  0  0  0  0  0  0  0
   46.5535   35.0943   40.5813 H   0  0  0  0  0  0  0  0  0  0  0  0
   45.9377   33.7072   38.7086 H   0  0  0  0  0  0  0  0  0  0  0  0
   44.6801   32.8603   39.6189 H   0  0  0  0  0  0  0  0  0  0  0  0
   46.1788   31.1971   40.1593 H   0  0  0  0  0  0  0  0  0  0  0  0
   47.4051   31.9891   39.1654 H   0  0  0  0  0  0  0  0  0  0  0  0
   47.8154   31.7856   41.8720 H   0  0  0  0  0  0  0  0  0  0  0  0
   48.4146   34.1467   40.1658 H   0  0  0  0  0  0  0  0  0  0  0  0
   48.9320   34.0052   41.8560 H   0  0  0  0  0  0  0  0  0  0  0  0
   50.7262   31.3773   43.6816 H   0  0  0  0  0  0  0  0  0  0  0  0
   53.0598   32.1237   41.5437 H   0  0  0  0  0  0  0  0  0  0  0  0
   44.1509   32.5347   44.8477 H   0  0  0  0  0  0  0  0  0  0  0  0
   46.2445   31.9049   44.8037 H   0  0  0  0  0  0  0  0  0  0  0  0
   47.7581   32.2536   45.7529 H   0  0  0  0  0  0  0  0  0  0  0  0
   45.5860   32.1534   50.1906 H   0  0  0  0  0  0  0  0  0  0  0  0
   46.5418   33.3488   48.1942 H   0  0  0  0  0  0  0  0  0  0  0  0
   44.6446   28.7701   47.8214 H   0  0  0  0  0  0  0  0  0  0  0  0
  1 12  1  0
  2  1  1  0
  3  4  1  0
  3  2  1  0
  4  5  1  0
  5  1  1  0
  6  5  1  0
  7  6  1  0
  7  9  1  0
  9  8  2  0
  9 10  1  0
 11  9  1  0
 12 14  1  0
 14 13  2  0
 14 16  1  0
 15 14  1  0
 16 17  1  0
 17 20  1  0
 19 18  2  0
 20 19  1  0
 21 20  2  0
 21 22  1  0
 22 23  2  0
 23 18  1  0
  1 24  1  1
  2 25  1  0
  2 26  1  0
  3 27  1  0
  3 28  1  0
  4 29  1  0
  4 30  1  0
  5 31  1  1
  6 32  1  0
  6 33  1  0
 10 34  1  0
 11 35  1  0
 15 36  1  0
 17 37  1  0
 17 38  1  0
 18 39  1  0
 19 40  1  0
 22 41  1  0
M  ISO  8  24  13  25  13  26  13  27  13  28  13  29  13  30  13  31  13
M  ISO  8  32   8  33   8  34   3  35   3  36   3  37   8  38   8  39  14
M  ISO  2  40  14  41  14
M  END
>  <minimizedAffinity>  (1) 
-4.91213465

>  <minimizedRMSD>  (1) 
1.69470561

$$$$
