
     RDKit          3D

 33 34  0  0  0  0  0  0  0  0999 V2000
   47.7670   30.0110   44.7440 F   0  0  0  0  0  0  0  0  0  0  0  0
   47.6620   30.6900   45.9400 C   0  0  0  0  0  0  0  0  0  0  0  0
   47.0640   31.9250   45.9650 C   0  0  0  0  0  0  0  0  0  0  0  0
   46.9940   32.5560   47.2120 C   0  0  0  0  0  0  0  0  0  0  0  0
   47.5080   31.9400   48.3290 C   0  0  0  0  0  0  0  0  0  0  0  0
   48.1070   30.6730   48.2290 C   0  0  0  0  0  0  0  0  0  0  0  0
   48.1920   30.0250   47.0120 C   0  0  0  0  0  0  0  0  0  0  0  0
   46.7840   34.1490   43.0930 C   0  0  0  0  0  0  0  0  0  0  0  0
   45.5780   33.7820   42.4920 C   0  0  0  0  0  0  0  0  0  0  0  0
   44.8470   32.7360   43.1040 C   0  0  0  0  0  0  0  0  0  0  0  0
   45.3430   32.1520   44.2210 N   0  0  0  0  0  0  0  0  0  0  0  0
   46.5250   32.5510   44.7630 C   0  0  0  0  0  0  0  0  0  0  0  0
   47.2350   33.5420   44.1990 N   0  0  0  0  0  0  0  0  0  0  0  0
   45.1060   34.4660   41.2770 C   0  0  0  0  0  0  0  0  0  0  0  0
   44.8550   35.8020   41.5690 F   0  0  0  0  0  0  0  0  0  0  0  0
   46.1450   34.4550   40.3640 F   0  0  0  0  0  0  0  0  0  0  0  0
   44.0010   33.9430   40.7030 F   0  0  0  0  0  0  0  0  0  0  0  0
   47.4790   35.1500   42.5030 O   0  0  0  0  0  0  0  0  0  0  0  0
   48.7750   35.0510   41.9360 C   0  0  0  0  0  0  0  0  0  0  0  0
   49.6820   35.2800   42.9760 F   0  0  0  0  0  0  0  0  0  0  0  0
   48.9400   33.8360   41.3320 F   0  0  0  0  0  0  0  0  0  0  0  0
   48.9700   36.1100   41.0710 F   0  0  0  0  0  0  0  0  0  0  0  0
   48.7840   28.7940   46.9690 O   0  0  0  0  0  0  0  0  0  0  0  0
   48.3760   26.2490   46.6420 O   0  0  0  0  0  0  0  0  0  0  0  0
   48.1800   27.3780   47.6580 P   0  0  0  0  0  0  0  0  0  0  0  0
   46.5050   27.4390   47.9420 O   0  0  0  0  0  0  0  0  0  0  0  0
   48.9780   26.8820   49.0510 O   0  0  0  0  0  0  0  0  0  0  0  0
   46.5264   33.5478   47.2991 H   0  0  0  0  0  0  0  0  0  0  0  0
   47.4498   32.4420   49.3061 H   0  0  0  0  0  0  0  0  0  0  0  0
   48.5132   30.1913   49.1307 H   0  0  0  0  0  0  0  0  0  0  0  0
   43.8893   32.4019   42.6784 H   0  0  0  0  0  0  0  0  0  0  0  0
   46.3357   27.4452   48.9174 H   0  0  0  0  0  0  0  0  0  0  0  0
   48.4775   27.1931   49.8465 H   0  0  0  0  0  0  0  0  0  0  0  0
  1  2  1  0
  2  3  2  0
  2  7  1  0
  3  4  1  0
  4  5  2  0
  6  5  1  0
  7  6  2  0
  8 13  2  0
  9  8  1  0
  9 10  2  0
 10 11  1  0
 11 12  2  0
 12  3  1  0
 13 12  1  0
 14 15  1  0
 14  9  1  0
 16 14  1  0
 17 14  1  0
 18  8  1  0
 19 18  1  0
 19 20  1  0
 21 19  1  0
 22 19  1  0
 23  7  1  0
 23 25  1  0
 24 25  2  0
 25 26  1  0
 25 27  1  0
  4 28  1  0
  5 29  1  0
  6 30  1  0
 10 31  1  0
 26 32  1  0
 27 33  1  0
M  ISO  6  28  14  29  14  30  14  31  14  32   3  33   3
M  END
>  <minimizedAffinity>  (1) 
-5.64058018

>  <minimizedRMSD>  (1) 
0.516464233

$$$$
