
     RDKit          3D

 15 15  0  0  0  0  0  0  0  0999 V2000
   44.9330   35.1240   44.0310 C   0  0  0  0  0  0  0  0  0  0  0  0
   45.7910   35.3750   42.9350 C   0  0  0  0  0  0  0  0  0  0  0  0
   46.9950   34.6560   42.8680 C   0  0  0  0  0  0  0  0  0  0  0  0
   47.2740   33.7630   43.8520 N   0  0  0  0  0  0  0  0  0  0  0  0
   46.4260   33.5550   44.8810 C   0  0  0  0  0  0  0  0  0  0  0  0
   45.2720   34.2320   44.9600 N   0  0  0  0  0  0  0  0  0  0  0  0
   43.7110   35.8370   44.1200 N   0  0  0  0  0  0  0  0  0  0  0  0
   47.8970   34.9200   41.7170 C   0  0  0  0  0  0  0  0  0  0  0  0
   48.9120   33.9820   41.7690 F   0  0  0  0  0  0  0  0  0  0  0  0
   47.1360   34.8070   40.5750 F   0  0  0  0  0  0  0  0  0  0  0  0
   48.4530   36.1650   41.8020 F   0  0  0  0  0  0  0  0  0  0  0  0
   45.5238   36.1092   42.1607 H   0  0  0  0  0  0  0  0  0  0  0  0
   46.6840   32.8238   45.6613 H   0  0  0  0  0  0  0  0  0  0  0  0
   43.4616   36.5240   43.3943 H   0  0  0  0  0  0  0  0  0  0  0  0
   43.0725   35.6680   44.9104 H   0  0  0  0  0  0  0  0  0  0  0  0
  1  7  1  0
  1  6  2  0
  2  1  1  0
  3  2  2  0
  3  4  1  0
  4  5  2  0
  5  6  1  0
  8  9  1  0
  8 11  1  0
  8  3  1  0
 10  8  1  0
  2 12  1  0
  5 13  1  0
  7 14  1  0
  7 15  1  0
M  ISO  2  12  14  13  14
M  END
>  <minimizedAffinity>  (1) 
-4.46697378

>  <minimizedRMSD>  (1) 
1.81176913

$$$$
