
     RDKit          3D

 34 36  0  0  1  0  0  0  0  0999 V2000
   40.5090   32.5560   39.5890 N   0  0  0  0  0  0  0  0  0  0  0  0
   40.9240   32.5130   40.9940 C   0  0  2  0  0  0  0  0  0  0  0  0
   39.8620   32.9770   41.9220 C   0  0  0  0  0  0  0  0  0  0  0  0
   38.5750   33.1080   41.2640 N   0  0  0  0  0  0  0  0  0  0  0  0
   38.5920   33.8650   40.0640 C   0  0  0  0  0  0  0  0  0  0  0  0
   39.9560   33.9200   39.4210 C   0  0  2  0  0  0  0  0  0  0  0  0
   44.1370   34.1440   41.1610 C   0  0  0  0  0  0  0  0  0  0  0  0
   43.2330   35.1360   41.5590 C   0  0  0  0  0  0  0  0  0  0  0  0
   41.9450   34.6320   41.5460 C   0  0  0  0  0  0  0  0  0  0  0  0
   42.0880   33.3710   41.1450 N   0  0  0  0  0  0  0  0  0  0  0  0
   43.3640   33.0850   40.9220 N   0  0  0  0  0  0  0  0  0  0  0  0
   47.7420   34.1060   40.0900 C   0  0  0  0  0  0  0  0  0  0  0  0
   46.3330   33.8470   40.0270 C   0  0  0  0  0  0  0  0  0  0  0  0
   45.5870   34.3180   41.0770 C   0  0  0  0  0  0  0  0  0  0  0  0
   46.1950   34.9830   42.0920 N   0  0  0  0  0  0  0  0  0  0  0  0
   47.5260   35.2110   42.1200 C   0  0  0  0  0  0  0  0  0  0  0  0
   48.2690   34.7640   41.1130 N   0  0  0  0  0  0  0  0  0  0  0  0
   39.9030   34.2960   37.9660 C   0  0  0  0  0  0  0  0  0  0  0  0
   40.4180   33.2120   37.2580 F   0  0  0  0  0  0  0  0  0  0  0  0
   40.7900   35.3350   37.7820 F   0  0  0  0  0  0  0  0  0  0  0  0
   38.6440   34.5340   37.5130 F   0  0  0  0  0  0  0  0  0  0  0  0
   41.3146   32.4079   38.9645 H   0  0  0  0  0  0  0  0  0  0  0  0
   41.1461   31.4670   41.2518 H   0  0  0  0  0  0  0  0  0  0  0  0
   39.7674   32.2510   42.7429 H   0  0  0  0  0  0  0  0  0  0  0  0
   40.1517   33.9701   42.2958 H   0  0  0  0  0  0  0  0  0  0  0  0
   38.2318   32.1627   41.0412 H   0  0  0  0  0  0  0  0  0  0  0  0
   37.8871   33.4101   39.3525 H   0  0  0  0  0  0  0  0  0  0  0  0
   38.3076   34.8960   40.3212 H   0  0  0  0  0  0  0  0  0  0  0  0
   40.5774   34.6965   39.8910 H   0  0  0  0  0  0  0  0  0  0  0  0
   43.5064   36.1637   41.8403 H   0  0  0  0  0  0  0  0  0  0  0  0
   41.0134   35.1550   41.8078 H   0  0  0  0  0  0  0  0  0  0  0  0
   48.3948   33.7536   39.2778 H   0  0  0  0  0  0  0  0  0  0  0  0
   45.8776   33.3029   39.1864 H   0  0  0  0  0  0  0  0  0  0  0  0
   47.9852   35.7551   42.9585 H   0  0  0  0  0  0  0  0  0  0  0  0
  1  2  1  0
  2 10  1  0
  2  3  1  0
  4  3  1  0
  5  4  1  0
  6  1  1  0
  6  5  1  0
  7  8  1  0
  9  8  2  0
 10  9  1  0
 11 10  1  0
 11  7  2  0
 12 17  2  0
 13 12  1  0
 13 14  2  0
 14  7  1  0
 14 15  1  0
 15 16  2  0
 17 16  1  0
 18  6  1  0
 19 18  1  0
 20 18  1  0
 21 18  1  0
  1 22  1  0
  2 23  1  1
  3 24  1  0
  3 25  1  0
  4 26  1  0
  5 27  1  0
  5 28  1  0
  6 29  1  1
  8 30  1  0
  9 31  1  0
 12 32  1  0
 13 33  1  0
 16 34  1  0
M  ISO  8  22   5  23  13  24  13  25  13  26   5  27  13  28  13  29  13
M  ISO  5  30  14  31  14  32  14  33  14  34  14
M  END
>  <minimizedAffinity>  (1) 
-5.73293638

>  <minimizedRMSD>  (1) 
2.66377354

$$$$
