
     RDKit          3D

 26 27  0  0  0  0  0  0  0  0999 V2000
   45.4840   29.9760   44.6270 Br  0  0  0  0  0  0  0  0  0  0  0  0
   46.0640   30.7580   46.2860 C   0  0  0  0  0  0  0  0  0  0  0  0
   46.7530   31.9520   46.1900 C   0  0  0  0  0  0  0  0  0  0  0  0
   47.1510   32.4760   47.4160 C   0  0  0  0  0  0  0  0  0  0  0  0
   46.8950   31.8810   48.6230 C   0  0  0  0  0  0  0  0  0  0  0  0
   46.2110   30.7030   48.6440 C   0  0  0  0  0  0  0  0  0  0  0  0
   45.7730   30.1050   47.4690 C   0  0  0  0  0  0  0  0  0  0  0  0
   45.0180   28.8130   47.4470 C   0  0  0  0  0  0  0  0  0  0  0  0
   45.8180   27.9150   46.7240 F   0  0  0  0  0  0  0  0  0  0  0  0
   43.8930   28.9860   46.6510 F   0  0  0  0  0  0  0  0  0  0  0  0
   44.7050   28.3630   48.6940 F   0  0  0  0  0  0  0  0  0  0  0  0
   47.0810   32.6730   44.9530 C   0  0  0  0  0  0  0  0  0  0  0  0
   44.5510   35.3900   45.3460 C   0  0  0  0  0  0  0  0  0  0  0  0
   44.6440   36.0500   44.1110 C   0  0  0  0  0  0  0  0  0  0  0  0
   45.5520   35.5600   43.1900 C   0  0  0  0  0  0  0  0  0  0  0  0
   46.3100   34.4790   43.5000 N   0  0  0  0  0  0  0  0  0  0  0  0
   46.1910   33.8550   44.7270 C   0  0  0  0  0  0  0  0  0  0  0  0
   45.3100   34.3380   45.6090 N   0  0  0  0  0  0  0  0  0  0  0  0
   47.7051   33.4262   47.4160 H   0  0  0  0  0  0  0  0  0  0  0  0
   47.2360   32.3465   49.5595 H   0  0  0  0  0  0  0  0  0  0  0  0
   46.0018   30.2168   49.6083 H   0  0  0  0  0  0  0  0  0  0  0  0
   48.1225   33.0217   45.0132 H   0  0  0  0  0  0  0  0  0  0  0  0
   46.9357   31.9788   44.1122 H   0  0  0  0  0  0  0  0  0  0  0  0
   43.8397   35.7508   46.1036 H   0  0  0  0  0  0  0  0  0  0  0  0
   44.0175   36.9252   43.8838 H   0  0  0  0  0  0  0  0  0  0  0  0
   45.6591   36.0457   42.2089 H   0  0  0  0  0  0  0  0  0  0  0  0
  1  2  1  0
  2  7  2  0
  3  2  1  0
  3  4  2  0
  4  5  1  0
  5  6  2  0
  7  6  1  0
  8  7  1  0
  8 11  1  0
  9  8  1  0
 10  8  1  0
 12  3  1  0
 13 18  2  0
 14 13  1  0
 15 16  1  0
 15 14  2  0
 16 17  2  0
 17 12  1  0
 17 18  1  0
  4 19  1  0
  5 20  1  0
  6 21  1  0
 12 22  1  0
 12 23  1  0
 13 24  1  0
 14 25  1  0
 15 26  1  0
M  ISO  8  19  14  20  14  21  14  22   8  23   8  24  14  25  14  26  14
M  END
>  <minimizedAffinity>  (1) 
-5.06269693

>  <minimizedRMSD>  (1) 
0.869480789

$$$$
