
     RDKit          3D

 26 27  0  0  0  0  0  0  0  0999 V2000
   44.6026   35.9938   44.4520 C   0  0  0  0  0  0  0  0  0  0  0  0
   45.4063   35.5295   43.3950 C   0  0  0  0  0  0  0  0  0  0  0  0
   46.1339   34.3917   43.6066 C   0  0  0  0  0  0  0  0  0  0  0  0
   46.0554   33.7561   44.8096 N   0  0  0  0  0  0  0  0  0  0  0  0
   45.2929   34.2063   45.7933 C   0  0  0  0  0  0  0  0  0  0  0  0
   44.5642   35.3205   45.6289 N   0  0  0  0  0  0  0  0  0  0  0  0
   47.0433   33.9084   42.5264 C   0  0  0  0  0  0  0  0  0  0  0  0
   47.3438   35.0495   41.5867 C   0  0  0  0  0  0  0  0  0  0  0  0
   48.8224   35.0056   41.3480 C   0  0  1  0  0  0  0  0  0  0  0  0
   49.7119   35.0809   42.5476 C   0  0  0  0  0  0  0  0  0  0  0  0
   49.5453   33.8116   41.8128 C   0  0  2  0  0  0  0  0  0  0  0  0
   43.9789   36.8681   44.4401 H   0  0  0  0  0  0  0  0  0  0  0  0
   45.2892   36.1838   42.5526 H   0  0  0  0  0  0  0  0  0  0  0  0
   45.3259   33.6006   46.6976 H   0  0  0  0  0  0  0  0  0  0  0  0
   47.9497   33.8209   43.2063 H   0  0  0  0  0  0  0  0  0  0  0  0
   46.7429   32.9884   42.0497 H   0  0  0  0  0  0  0  0  0  0  0  0
   46.7760   34.8474   40.6549 H   0  0  0  0  0  0  0  0  0  0  0  0
   47.1024   36.0532   41.9974 H   0  0  0  0  0  0  0  0  0  0  0  0
   49.0969   35.5686   40.4175 H   0  0  0  0  0  0  0  0  0  0  0  0
   50.6128   35.7106   42.3826 H   0  0  0  0  0  0  0  0  0  0  0  0
   49.3206   35.2754   43.5661 H   0  0  0  0  0  0  0  0  0  0  0  0
   49.1880   32.8542   42.1092 H   0  0  0  0  0  0  0  0  0  0  0  0
   50.7391   33.5091   40.8855 C   0  0  0  0  0  0  0  0  0  0  0  0
   51.1699   32.2060   41.1569 F   0  0  0  0  0  0  0  0  0  0  0  0
   50.3663   33.4905   39.5572 F   0  0  0  0  0  0  0  0  0  0  0  0
   51.7444   34.4215   40.9997 F   0  0  0  0  0  0  0  0  0  0  0  0
  1  6  2  0
  2  3  2  0
  2  1  1  0
  3  4  1  0
  4  5  2  0
  6  5  1  0
  7  3  1  0
  8  7  1  0
  9  8  1  0
  9 11  1  0
  9 10  1  0
 11 10  1  0
  1 12  1  0
  2 13  1  0
  5 14  1  0
  7 15  1  0
  7 16  1  0
  8 17  1  0
  8 18  1  0
  9 19  1  6
 10 20  1  0
 10 21  1  0
 11 22  1  1
 23 24  1  0
 23 25  1  0
 23 26  1  0
 11 23  1  0
M  ISO  8  12  14  13  14  14  14  15   8  16   8  17   8  18   8  19  13
M  ISO  3  20  13  21  13  22  13
M  END
>  <DihAtoms>  (1) 
8,10,22,23

>  <DihDeg>  (1) 
-60.02636176586671

$$$$
