
     RDKit          3D

 29 30  0  0  0  0  0  0  0  0999 V2000
   43.9570   34.2480   41.3270 C   0  0  0  0  0  0  0  0  0  0  0  0
   45.4020   34.4550   41.3080 C   0  0  0  0  0  0  0  0  0  0  0  0
   46.2470   33.9720   40.3300 C   0  0  0  0  0  0  0  0  0  0  0  0
   47.6080   34.1520   40.2900 C   0  0  0  0  0  0  0  0  0  0  0  0
   48.1530   34.8970   41.3540 C   0  0  0  0  0  0  0  0  0  0  0  0
   47.3340   35.4050   42.3650 C   0  0  0  0  0  0  0  0  0  0  0  0
   45.9650   35.1860   42.3440 C   0  0  0  0  0  0  0  0  0  0  0  0
   45.0910   35.7280   43.4230 C   0  0  0  0  0  0  0  0  0  0  0  0
   45.2390   37.0950   43.4280 F   0  0  0  0  0  0  0  0  0  0  0  0
   45.2930   35.1370   44.6440 F   0  0  0  0  0  0  0  0  0  0  0  0
   43.7710   35.4780   43.0950 F   0  0  0  0  0  0  0  0  0  0  0  0
   43.4030   34.0620   39.9100 C   0  0  0  0  0  0  0  0  0  0  0  0
   40.2000   35.9150   40.6120 C   0  0  0  0  0  0  0  0  0  0  0  0
   41.5680   35.5800   40.6110 C   0  0  0  0  0  0  0  0  0  0  0  0
   41.9680   34.4400   39.9250 C   0  0  0  0  0  0  0  0  0  0  0  0
   41.0020   33.7110   39.2870 N   0  0  0  0  0  0  0  0  0  0  0  0
   39.7020   34.0520   39.3010 C   0  0  0  0  0  0  0  0  0  0  0  0
   39.2950   35.1600   39.9670 N   0  0  0  0  0  0  0  0  0  0  0  0
   43.7313   33.3500   41.9208 H   0  0  0  0  0  0  0  0  0  0  0  0
   43.4845   35.1366   41.7709 H   0  0  0  0  0  0  0  0  0  0  0  0
   45.7918   33.3934   39.5127 H   0  0  0  0  0  0  0  0  0  0  0  0
   48.2307   33.7419   39.4813 H   0  0  0  0  0  0  0  0  0  0  0  0
   49.2369   35.0810   41.3891 H   0  0  0  0  0  0  0  0  0  0  0  0
   47.7798   35.9849   43.1865 H   0  0  0  0  0  0  0  0  0  0  0  0
   43.5090   33.0111   39.6028 H   0  0  0  0  0  0  0  0  0  0  0  0
   43.9564   34.6916   39.1978 H   0  0  0  0  0  0  0  0  0  0  0  0
   39.8657   36.8132   41.1519 H   0  0  0  0  0  0  0  0  0  0  0  0
   42.3017   36.2056   41.1404 H   0  0  0  0  0  0  0  0  0  0  0  0
   38.9662   33.4299   38.7703 H   0  0  0  0  0  0  0  0  0  0  0  0
  2  1  1  0
  2  7  1  0
  3  2  2  0
  4  3  1  0
  4  5  2  0
  5  6  1  0
  7  6  2  0
  7  8  1  0
  8  9  1  0
  8 10  1  0
 11  8  1  0
 12 15  1  0
 12  1  1  0
 14 13  2  0
 15 14  1  0
 16 17  1  0
 16 15  2  0
 17 18  2  0
 18 13  1  0
  1 19  1  0
  1 20  1  0
  3 21  1  0
  4 22  1  0
  5 23  1  0
  6 24  1  0
 12 25  1  0
 12 26  1  0
 13 27  1  0
 14 28  1  0
 17 29  1  0
M  ISO  8  19   8  20   8  21  14  22  14  23  14  24  14  25   8  26   8
M  ISO  3  27  14  28  14  29  14
M  END
>  <minimizedAffinity>  (1) 
-5.30135155

>  <minimizedRMSD>  (1) 
1.43614399

$$$$
