
     RDKit          3D

 30 31  0  0  0  0  0  0  0  0999 V2000
   44.4710   34.6840   42.0730 C   0  0  0  0  0  0  0  0  0  0  0  0
   44.3480   33.4610   42.3880 O   0  0  0  0  0  0  0  0  0  0  0  0
   45.3650   35.3960   42.9390 N   0  0  0  0  0  0  0  0  0  0  0  0
   45.8500   34.4710   43.9540 C   0  0  0  0  0  0  0  0  0  0  0  0
   45.3550   34.3950   45.2380 C   0  0  0  0  0  0  0  0  0  0  0  0
   45.9510   33.4460   46.0600 C   0  0  0  0  0  0  0  0  0  0  0  0
   46.9460   32.6940   45.5440 N   0  0  0  0  0  0  0  0  0  0  0  0
   47.3980   32.8030   44.2870 C   0  0  0  0  0  0  0  0  0  0  0  0
   46.8430   33.7140   43.4570 N   0  0  0  0  0  0  0  0  0  0  0  0
   44.3160   35.2620   45.5900 N   0  0  0  0  0  0  0  0  0  0  0  0
   43.8310   35.3410   41.0050 O   0  0  0  0  0  0  0  0  0  0  0  0
   43.3640   33.9760   38.4200 Cl  0  0  0  0  0  0  0  0  0  0  0  0
   42.1640   34.4330   39.6000 C   0  0  0  0  0  0  0  0  0  0  0  0
   42.4750   35.0710   40.7880 C   0  0  0  0  0  0  0  0  0  0  0  0
   41.4860   35.4040   41.6760 C   0  0  0  0  0  0  0  0  0  0  0  0
   40.1450   35.1320   41.4490 C   0  0  0  0  0  0  0  0  0  0  0  0
   39.8050   34.4910   40.2660 C   0  0  0  0  0  0  0  0  0  0  0  0
   38.1380   34.0960   39.8730 Cl  0  0  0  0  0  0  0  0  0  0  0  0
   40.8320   34.1740   39.3980 C   0  0  0  0  0  0  0  0  0  0  0  0
   40.4760   33.4790   38.1100 C   0  0  0  0  0  0  0  0  0  0  0  0
   41.5630   32.7440   37.6230 F   0  0  0  0  0  0  0  0  0  0  0  0
   39.4940   32.5120   38.3400 F   0  0  0  0  0  0  0  0  0  0  0  0
   39.9850   34.3440   37.1720 F   0  0  0  0  0  0  0  0  0  0  0  0
   45.6202   36.3905   42.8573 H   0  0  0  0  0  0  0  0  0  0  0  0
   45.6214   33.3116   47.1008 H   0  0  0  0  0  0  0  0  0  0  0  0
   48.2144   32.1560   43.9335 H   0  0  0  0  0  0  0  0  0  0  0  0
   43.9212   35.2334   46.5409 H   0  0  0  0  0  0  0  0  0  0  0  0
   43.9454   35.9292   44.8984 H   0  0  0  0  0  0  0  0  0  0  0  0
   41.7683   35.9099   42.6111 H   0  0  0  0  0  0  0  0  0  0  0  0
   39.3760   35.4151   42.1828 H   0  0  0  0  0  0  0  0  0  0  0  0
  1  2  2  0
  1  3  1  0
  3  4  1  0
  4  5  2  0
  5 10  1  0
  5  6  1  0
  7  6  2  0
  8  7  1  0
  9  4  1  0
  9  8  2  0
 11  1  1  0
 12 13  1  0
 13 14  2  0
 14 11  1  0
 14 15  1  0
 16 15  2  0
 17 16  1  0
 18 17  1  0
 19 13  1  0
 19 17  2  0
 20 22  1  0
 20 19  1  0
 21 20  1  0
 23 20  1  0
  3 24  1  0
  6 25  1  0
  8 26  1  0
 10 27  1  0
 10 28  1  0
 15 29  1  0
 16 30  1  0
M  ISO  4  25  14  26  14  29  14  30  14
M  END
>  <minimizedAffinity>  (1) 
-6.21928263

>  <minimizedRMSD>  (1) 
0.456974447

$$$$
