
     RDKit          3D

 26 27  0  0  0  0  0  0  0  0999 V2000
   44.9012   35.0428   43.5509 C   0  0  0  0  0  0  0  0  0  0  0  0
   45.2868   34.9182   42.2155 C   0  0  0  0  0  0  0  0  0  0  0  0
   46.3952   34.1299   41.8732 C   0  0  0  0  0  0  0  0  0  0  0  0
   47.0372   33.5236   42.8930 N   0  0  0  0  0  0  0  0  0  0  0  0
   46.6545   33.6532   44.1709 C   0  0  0  0  0  0  0  0  0  0  0  0
   45.5939   34.4080   44.4935 N   0  0  0  0  0  0  0  0  0  0  0  0
   43.7836   35.8419   43.8602 N   0  0  0  0  0  0  0  0  0  0  0  0
   47.9662   34.6383   40.0950 C   0  0  0  0  0  0  0  0  0  0  0  0
   46.8170   33.9844   40.4869 C   0  0  0  0  0  0  0  0  0  0  0  0
   46.1611   33.2456   39.5321 C   0  0  0  0  0  0  0  0  0  0  0  0
   46.6058   33.1398   38.2237 C   0  0  0  0  0  0  0  0  0  0  0  0
   47.7563   33.8086   37.8772 C   0  0  0  0  0  0  0  0  0  0  0  0
   48.4464   34.5637   38.8101 C   0  0  0  0  0  0  0  0  0  0  0  0
   49.3247   36.0734   41.8152 N   0  0  0  0  0  0  0  0  0  0  0  0
   48.7063   35.4304   41.0386 C   0  0  0  0  0  0  0  0  0  0  0  0
   44.7456   35.4182   41.4455 H   0  0  0  0  0  0  0  0  0  0  0  0
   47.1520   33.1770   45.0125 H   0  0  0  0  0  0  0  0  0  0  0  0
   43.1288   36.1816   43.1193 H   0  0  0  0  0  0  0  0  0  0  0  0
   43.5706   36.1233   44.8456 H   0  0  0  0  0  0  0  0  0  0  0  0
   45.2619   32.7403   39.8588 H   0  0  0  0  0  0  0  0  0  0  0  0
   46.0455   32.5420   37.5154 H   0  0  0  0  0  0  0  0  0  0  0  0
   48.0926   33.7167   36.8494 H   0  0  0  0  0  0  0  0  0  0  0  0
   49.6904   35.2872   38.4365 C   0  0  0  0  0  0  0  0  0  0  0  0
   50.8327   34.6796   38.9130 F   0  0  0  0  0  0  0  0  0  0  0  0
   49.6727   36.5524   39.0180 F   0  0  0  0  0  0  0  0  0  0  0  0
   49.7388   35.3737   37.0474 F   0  0  0  0  0  0  0  0  0  0  0  0
  1  7  1  0
  1  6  2  0
  2  1  1  0
  3  2  2  0
  3  4  1  0
  4  5  2  0
  5  6  1  0
  8  9  2  0
  8 15  1  0
  9  3  1  0
 10  9  1  0
 11 10  2  0
 12 11  1  0
 12 13  2  0
 13  8  1  0
 15 14  3  0
  2 16  1  0
  5 17  1  0
  7 18  1  0
  7 19  1  0
 10 20  1  0
 11 21  1  0
 12 22  1  0
 23 24  1  0
 23 25  1  0
 23 26  1  0
 13 23  1  0
M  ISO  5  16  14  17  14  20  14  21  14  22  14
M  END
>  <DihAtoms>  (1) 
11,12,22,23

>  <DihDeg>  (1) 
119.99928247651417

$$$$
