
     RDKit          3D

 31 33  0  0  0  0  0  0  0  0999 V2000
   45.9750   33.5715   45.5603 C   0  0  0  0  0  0  0  0  0  0  0  0
   45.0019   34.4875   45.8283 C   0  0  0  0  0  0  0  0  0  0  0  0
   44.6242   35.4866   44.9528 C   0  0  0  0  0  0  0  0  0  0  0  0
   45.2936   35.5084   43.7758 N   0  0  0  0  0  0  0  0  0  0  0  0
   46.2515   34.6063   43.5126 C   0  0  0  0  0  0  0  0  0  0  0  0
   46.6232   33.6243   44.3724 N   0  0  0  0  0  0  0  0  0  0  0  0
   46.1143   30.3374   47.2788 C   0  0  0  0  0  0  0  0  0  0  0  0
   47.0114   30.5866   48.3097 C   0  0  0  0  0  0  0  0  0  0  0  0
   47.5674   31.8497   48.4208 C   0  0  0  0  0  0  0  0  0  0  0  0
   47.2075   32.8056   47.5044 N   0  0  0  0  0  0  0  0  0  0  0  0
   46.3370   32.5370   46.5167 C   0  0  0  0  0  0  0  0  0  0  0  0
   45.7989   31.3216   46.4059 N   0  0  0  0  0  0  0  0  0  0  0  0
   46.9662   34.6594   42.2105 C   0  0  0  0  0  0  0  0  0  0  0  0
   46.4716   33.9415   41.1386 C   0  0  0  0  0  0  0  0  0  0  0  0
   47.0519   33.9189   39.8910 C   0  0  0  0  0  0  0  0  0  0  0  0
   48.2176   34.6807   39.7230 C   0  0  0  0  0  0  0  0  0  0  0  0
   48.7021   35.3880   40.7850 C   0  0  0  0  0  0  0  0  0  0  0  0
   48.1077   35.3979   42.0244 C   0  0  0  0  0  0  0  0  0  0  0  0
   44.4719   34.4631   46.7711 H   0  0  0  0  0  0  0  0  0  0  0  0
   43.8629   36.2106   45.1513 H   0  0  0  0  0  0  0  0  0  0  0  0
   45.7073   29.3362   47.2339 H   0  0  0  0  0  0  0  0  0  0  0  0
   47.3462   29.9111   49.0605 H   0  0  0  0  0  0  0  0  0  0  0  0
   48.2743   32.2428   49.1395 H   0  0  0  0  0  0  0  0  0  0  0  0
   45.5701   33.3619   41.2961 H   0  0  0  0  0  0  0  0  0  0  0  0
   46.6132   33.3337   39.0895 H   0  0  0  0  0  0  0  0  0  0  0  0
   48.6901   34.6774   38.7509 H   0  0  0  0  0  0  0  0  0  0  0  0
   49.6033   35.9639   40.6172 H   0  0  0  0  0  0  0  0  0  0  0  0
   48.6554   36.1769   43.1651 C   0  0  0  0  0  0  0  0  0  0  0  0
   49.8064   36.8267   42.7026 F   0  0  0  0  0  0  0  0  0  0  0  0
   47.8161   37.1349   43.6453 F   0  0  0  0  0  0  0  0  0  0  0  0
   49.0956   35.2825   44.1348 F   0  0  0  0  0  0  0  0  0  0  0  0
  1  2  2  0
  1 11  1  0
  3  2  1  0
  4  3  2  0
  5  4  1  0
  5  6  2  0
  6  1  1  0
  7  8  2  0
  8  9  1  0
 10  9  2  0
 11 10  1  0
 12 11  2  0
 12  7  1  0
 13  5  1  0
 14 13  2  0
 15 14  1  0
 16 15  2  0
 16 17  1  0
 17 18  2  0
 18 13  1  0
  2 19  1  0
  3 20  1  0
  7 21  1  0
  8 22  1  0
  9 23  1  0
 14 24  1  0
 15 25  1  0
 16 26  1  0
 17 27  1  0
 28 29  1  0
 28 30  1  0
 28 31  1  0
 18 28  1  0
M  ISO  8  19  14  20  14  21  14  22  14  23  14  24  14  25  14  26  14
M  ISO  1  27  14
M  END
>  <DihAtoms>  (1) 
16,17,27,28

>  <DihDeg>  (1) 
0.00011450279396949492

$$$$
