
     RDKit          3D

 34 36  0  0  0  0  0  0  0  0999 V2000
   44.9670   34.7660   43.7590 C   0  0  0  0  0  0  0  0  0  0  0  0
   45.2320   36.0910   43.4900 C   0  0  0  0  0  0  0  0  0  0  0  0
   44.3700   36.5010   42.4960 C   0  0  0  0  0  0  0  0  0  0  0  0
   43.6090   35.3910   42.1990 C   0  0  0  0  0  0  0  0  0  0  0  0
   43.9980   34.4310   42.9540 O   0  0  0  0  0  0  0  0  0  0  0  0
   42.5540   35.3580   41.1930 C   0  0  0  0  0  0  0  0  0  0  0  0
   42.8350   34.9780   39.8990 C   0  0  0  0  0  0  0  0  0  0  0  0
   41.8800   34.9220   38.8880 C   0  0  0  0  0  0  0  0  0  0  0  0
   40.5990   35.2890   39.3080 C   0  0  0  0  0  0  0  0  0  0  0  0
   40.2960   35.6690   40.5810 C   0  0  0  0  0  0  0  0  0  0  0  0
   41.2870   35.6930   41.4960 N   0  0  0  0  0  0  0  0  0  0  0  0
   45.6890   33.9450   44.7800 C   0  0  0  0  0  0  0  0  0  0  0  0
   47.8890   31.1680   43.8700 C   0  0  0  0  0  0  0  0  0  0  0  0
   48.8550   31.7550   43.0550 C   0  0  0  0  0  0  0  0  0  0  0  0
   48.7350   33.1060   42.8300 C   0  0  0  0  0  0  0  0  0  0  0  0
   47.7100   33.8000   43.3920 N   0  0  0  0  0  0  0  0  0  0  0  0
   46.8070   33.1860   44.1680 C   0  0  0  0  0  0  0  0  0  0  0  0
   46.8900   31.8580   44.4150 N   0  0  0  0  0  0  0  0  0  0  0  0
   49.7750   33.7210   41.9560 C   0  0  0  0  0  0  0  0  0  0  0  0
   49.7570   33.0470   40.7300 F   0  0  0  0  0  0  0  0  0  0  0  0
   49.4490   35.0240   41.6540 F   0  0  0  0  0  0  0  0  0  0  0  0
   51.0460   33.6000   42.4570 F   0  0  0  0  0  0  0  0  0  0  0  0
   49.8650   30.9270   42.5340 N   0  0  0  0  0  0  0  0  0  0  0  0
   45.9959   36.7114   43.9814 H   0  0  0  0  0  0  0  0  0  0  0  0
   44.3036   37.4991   42.0383 H   0  0  0  0  0  0  0  0  0  0  0  0
   43.8710   34.7038   39.6511 H   0  0  0  0  0  0  0  0  0  0  0  0
   42.1117   34.6178   37.8566 H   0  0  0  0  0  0  0  0  0  0  0  0
   39.7865   35.2700   38.5667 H   0  0  0  0  0  0  0  0  0  0  0  0
   39.2684   35.9493   40.8558 H   0  0  0  0  0  0  0  0  0  0  0  0
   46.0914   34.6118   45.5568 H   0  0  0  0  0  0  0  0  0  0  0  0
   44.9780   33.2267   45.2142 H   0  0  0  0  0  0  0  0  0  0  0  0
   47.9550   30.0886   44.0714 H   0  0  0  0  0  0  0  0  0  0  0  0
   50.5960   31.3256   41.9277 H   0  0  0  0  0  0  0  0  0  0  0  0
   49.8738   29.9218   42.7586 H   0  0  0  0  0  0  0  0  0  0  0  0
  1 12  1  0
  2  1  2  0
  3  2  1  0
  4  3  2  0
  4  5  1  0
  5  1  1  0
  6 11  1  0
  6  4  1  0
  7  6  2  0
  8  9  2  0
  8  7  1  0
  9 10  1  0
 10 11  2  0
 13 18  2  0
 14 13  1  0
 15 14  2  0
 15 16  1  0
 16 17  2  0
 17 18  1  0
 17 12  1  0
 19 22  1  0
 19 15  1  0
 20 19  1  0
 21 19  1  0
 23 14  1  0
  2 24  1  0
  3 25  1  0
  7 26  1  0
  8 27  1  0
  9 28  1  0
 10 29  1  0
 12 30  1  0
 12 31  1  0
 13 32  1  0
 23 33  1  0
 23 34  1  0
M  ISO  8  24  14  25  14  26  14  27  14  28  14  29  14  30   8  31   8
M  ISO  1  32  14
M  END
>  <minimizedAffinity>  (1) 
-5.49651575

>  <minimizedRMSD>  (1) 
1.71296096

$$$$
