
     RDKit          3D

 35 37  0  0  0  0  0  0  0  0999 V2000
   47.1796   34.5466   42.0009 C   0  0  1  0  0  0  0  0  0  0  0  0
   48.3099   35.4529   41.7328 C   0  0  0  0  0  0  0  0  0  0  0  0
   48.5793   34.1088   42.2987 C   0  0  2  0  0  0  0  0  0  0  0  0
   45.4949   36.0297   43.1636 C   0  0  0  0  0  0  0  0  0  0  0  0
   46.2740   34.8480   43.1470 C   0  0  0  0  0  0  0  0  0  0  0  0
   46.1598   33.9737   44.2392 C   0  0  0  0  0  0  0  0  0  0  0  0
   45.3134   34.3100   45.2429 N   0  0  0  0  0  0  0  0  0  0  0  0
   44.5813   35.4515   45.2264 C   0  0  0  0  0  0  0  0  0  0  0  0
   44.6673   36.3244   44.1808 N   0  0  0  0  0  0  0  0  0  0  0  0
   49.3090   33.1976   41.4703 N   0  0  0  0  0  0  0  0  0  0  0  0
   50.6443   33.1268   42.0113 C   0  0  0  0  0  0  0  0  0  0  0  0
   51.3538   31.8409   41.8462 C   0  0  0  0  0  0  0  0  0  0  0  0
   50.6023   30.7176   42.5000 C   0  0  0  0  0  0  0  0  0  0  0  0
   49.1402   30.9731   42.5600 C   0  0  0  0  0  0  0  0  0  0  0  0
   48.7388   31.8774   41.4358 C   0  0  2  0  0  0  0  0  0  0  0  0
   46.6934   34.1425   41.1026 H   0  0  0  0  0  0  0  0  0  0  0  0
   48.4432   36.2962   42.4203 H   0  0  0  0  0  0  0  0  0  0  0  0
   48.6265   35.6747   40.6893 H   0  0  0  0  0  0  0  0  0  0  0  0
   48.7969   33.9782   43.3819 H   0  0  0  0  0  0  0  0  0  0  0  0
   45.5611   36.7218   42.3373 H   0  0  0  0  0  0  0  0  0  0  0  0
   46.7456   33.0748   44.2374 H   0  0  0  0  0  0  0  0  0  0  0  0
   43.9403   35.6027   46.0945 H   0  0  0  0  0  0  0  0  0  0  0  0
   50.6400   33.3774   43.0976 H   0  0  0  0  0  0  0  0  0  0  0  0
   51.2249   33.9391   41.4848 H   0  0  0  0  0  0  0  0  0  0  0  0
   52.2833   31.9505   42.5084 H   0  0  0  0  0  0  0  0  0  0  0  0
   51.7922   31.6238   40.8693 H   0  0  0  0  0  0  0  0  0  0  0  0
   50.9488   30.4445   43.5041 H   0  0  0  0  0  0  0  0  0  0  0  0
   50.8190   29.8092   41.8652 H   0  0  0  0  0  0  0  0  0  0  0  0
   48.8548   31.4805   43.5191 H   0  0  0  0  0  0  0  0  0  0  0  0
   48.5404   30.0568   42.4638 H   0  0  0  0  0  0  0  0  0  0  0  0
   47.6405   32.1110   41.7275 H   0  0  0  0  0  0  0  0  0  0  0  0
   48.5892   31.2468   40.0977 C   0  0  0  0  0  0  0  0  0  0  0  0
   49.8222   30.8060   39.5883 F   0  0  0  0  0  0  0  0  0  0  0  0
   47.8653   30.0372   40.1844 F   0  0  0  0  0  0  0  0  0  0  0  0
   47.8869   31.9755   39.1691 F   0  0  0  0  0  0  0  0  0  0  0  0
  1  3  1  0
  1  5  1  0
  2  1  1  0
  2  3  1  0
  4  9  2  0
  5  4  1  0
  5  6  2  0
  6  7  1  0
  8  7  2  0
  9  8  1  0
 10 11  1  0
 10  3  1  0
 12 11  1  0
 12 13  1  0
 13 14  1  0
 15 10  1  0
 15 14  1  0
  1 16  1  6
  2 17  1  0
  2 18  1  0
  3 19  1  1
  4 20  1  0
  6 21  1  0
  8 22  1  0
 11 23  1  0
 11 24  1  0
 12 25  1  0
 12 26  1  0
 13 27  1  0
 13 28  1  0
 14 29  1  0
 14 30  1  0
 15 31  1  1
 32 33  1  0
 32 34  1  0
 32 35  1  0
 15 32  1  0
M  ISO  8  16  13  17  13  18  13  19  13  20  14  21  14  22  14  23  13
M  ISO  8  24  13  25  13  26  13  27  13  28  13  29  13  30  13  31  13
M  END
>  <DihAtoms>  (1) 
9,14,31,32

>  <DihDeg>  (1) 
179.71830695012076

$$$$
