
     RDKit          3D

 36 38  0  0  0  0  0  0  0  0999 V2000
   45.2810   35.2810   43.1090 Cl  0  0  0  0  0  0  0  0  0  0  0  0
   45.1670   34.5370   41.5430 C   0  0  0  0  0  0  0  0  0  0  0  0
   46.2820   34.1610   40.8720 C   0  0  0  0  0  0  0  0  0  0  0  0
   46.0800   33.5640   39.6340 C   0  0  0  0  0  0  0  0  0  0  0  0
   44.8280   33.3620   39.1110 C   0  0  0  0  0  0  0  0  0  0  0  0
   43.7290   33.7490   39.8050 C   0  0  0  0  0  0  0  0  0  0  0  0
   43.9110   34.3420   41.0350 C   0  0  0  0  0  0  0  0  0  0  0  0
   47.8010   31.8900   38.9740 C   0  0  0  0  0  0  0  0  0  0  0  0
   47.2410   33.1270   38.8680 C   0  0  0  0  0  0  0  0  0  0  0  0
   47.7760   34.0500   37.9870 C   0  0  0  0  0  0  0  0  0  0  0  0
   48.8690   33.7050   37.2250 C   0  0  0  0  0  0  0  0  0  0  0  0
   49.4650   32.4530   37.3070 C   0  0  0  0  0  0  0  0  0  0  0  0
   48.9040   31.5520   38.2020 C   0  0  0  0  0  0  0  0  0  0  0  0
   47.2000   30.7160   40.0050 S   0  0  0  0  0  0  0  0  0  0  0  0
   46.9690   29.4240   39.2190 O   0  0  0  0  0  0  0  0  0  0  0  0
   48.3710   30.3650   40.9550 O   0  0  0  0  0  0  0  0  0  0  0  0
   45.8570   30.6460   40.9820 C   0  0  0  0  0  0  0  0  0  0  0  0
   45.6760   31.3320   42.1340 F   0  0  0  0  0  0  0  0  0  0  0  0
   45.8660   29.3710   41.5780 F   0  0  0  0  0  0  0  0  0  0  0  0
   44.6110   30.4830   40.3060 F   0  0  0  0  0  0  0  0  0  0  0  0
   49.5530   35.7470   41.8830 C   0  0  0  0  0  0  0  0  0  0  0  0
   48.2940   35.5510   41.3020 C   0  0  0  0  0  0  0  0  0  0  0  0
   47.5790   34.3790   41.4600 C   0  0  0  0  0  0  0  0  0  0  0  0
   48.1900   33.4350   42.2190 N   0  0  0  0  0  0  0  0  0  0  0  0
   49.4010   33.6200   42.7790 C   0  0  0  0  0  0  0  0  0  0  0  0
   50.0690   34.7670   42.6090 N   0  0  0  0  0  0  0  0  0  0  0  0
   44.7152   32.8849   38.1263 H   0  0  0  0  0  0  0  0  0  0  0  0
   42.7195   33.5936   39.3967 H   0  0  0  0  0  0  0  0  0  0  0  0
   43.0347   34.6633   41.6171 H   0  0  0  0  0  0  0  0  0  0  0  0
   47.3312   35.0519   37.8963 H   0  0  0  0  0  0  0  0  0  0  0  0
   49.2850   34.4464   36.5269 H   0  0  0  0  0  0  0  0  0  0  0  0
   50.3385   32.1884   36.6930 H   0  0  0  0  0  0  0  0  0  0  0  0
   49.3432   30.5484   38.3015 H   0  0  0  0  0  0  0  0  0  0  0  0
   50.0994   36.6909   41.7400 H   0  0  0  0  0  0  0  0  0  0  0  0
   47.8580   36.3599   40.6974 H   0  0  0  0  0  0  0  0  0  0  0  0
   49.8470   32.8172   43.3844 H   0  0  0  0  0  0  0  0  0  0  0  0
  2  1  1  0
  3 23  1  0
  3  2  2  0
  4  3  1  0
  5  4  2  0
  5  6  1  0
  6  7  2  0
  7  2  1  0
  8 14  1  0
  9  8  2  0
  9  4  1  0
 10  9  1  0
 11 12  1  0
 11 10  2  0
 12 13  2  0
 13  8  1  0
 14 16  2  0
 14 17  1  0
 15 14  2  0
 17 19  1  0
 17 18  1  0
 20 17  1  0
 21 26  2  0
 22 23  2  0
 22 21  1  0
 23 24  1  0
 24 25  2  0
 26 25  1  0
  5 27  1  0
  6 28  1  0
  7 29  1  0
 10 30  1  0
 11 31  1  0
 12 32  1  0
 13 33  1  0
 21 34  1  0
 22 35  1  0
 25 36  1  0
M  ISO  8  27  14  28  14  29  14  30  14  31  14  32  14  33  14  34  14
M  ISO  2  35  14  36  14
M  END
>  <minimizedAffinity>  (1) 
-4.51842403

>  <minimizedRMSD>  (1) 
0.0999197289

$$$$
