
     RDKit          3D

 27 29  0  0  0  0  0  0  0  0999 V2000
   47.1800   32.2300   43.2120 C   0  0  0  0  0  0  0  0  0  0  0  0
   47.2070   33.2300   42.2420 C   0  0  0  0  0  0  0  0  0  0  0  0
   48.3070   33.4590   41.4310 C   0  0  0  0  0  0  0  0  0  0  0  0
   49.4450   32.6500   41.5880 C   0  0  0  0  0  0  0  0  0  0  0  0
   50.6640   32.5730   40.9970 N   0  0  0  0  0  0  0  0  0  0  0  0
   51.3660   31.5680   41.5720 C   0  0  0  0  0  0  0  0  0  0  0  0
   50.5700   31.0420   42.5070 N   0  0  0  0  0  0  0  0  0  0  0  0
   49.3820   31.6740   42.5520 C   0  0  0  0  0  0  0  0  0  0  0  0
   48.3040   31.4290   43.3670 C   0  0  0  0  0  0  0  0  0  0  0  0
   44.7630   35.9300   42.7090 C   0  0  0  0  0  0  0  0  0  0  0  0
   43.8340   35.6830   41.7150 C   0  0  0  0  0  0  0  0  0  0  0  0
   44.0480   34.5800   40.8780 C   0  0  0  0  0  0  0  0  0  0  0  0
   45.1580   33.8100   41.0890 N   0  0  0  0  0  0  0  0  0  0  0  0
   46.0430   34.0780   42.0660 C   0  0  0  0  0  0  0  0  0  0  0  0
   45.8450   35.1350   42.8730 N   0  0  0  0  0  0  0  0  0  0  0  0
   48.3570   34.7280   40.1890 S   0  0  0  0  0  0  0  0  0  0  0  0
   48.1520   34.1210   38.5210 C   0  0  0  0  0  0  0  0  0  0  0  0
   48.4220   35.0460   37.5390 F   0  0  0  0  0  0  0  0  0  0  0  0
   48.9240   32.9820   38.3900 F   0  0  0  0  0  0  0  0  0  0  0  0
   46.8200   33.7320   38.3450 F   0  0  0  0  0  0  0  0  0  0  0  0
   46.2897   32.0786   43.8400 H   0  0  0  0  0  0  0  0  0  0  0  0
   51.0003   33.1797   40.2356 H   0  0  0  0  0  0  0  0  0  0  0  0
   52.3878   31.2485   41.3196 H   0  0  0  0  0  0  0  0  0  0  0  0
   48.3300   30.6252   44.1175 H   0  0  0  0  0  0  0  0  0  0  0  0
   44.6193   36.7900   43.3796 H   0  0  0  0  0  0  0  0  0  0  0  0
   42.9551   36.3317   41.5856 H   0  0  0  0  0  0  0  0  0  0  0  0
   43.3404   34.3394   40.0709 H   0  0  0  0  0  0  0  0  0  0  0  0
  1  9  2  0
  2  1  1  0
  3  4  1  0
  3  2  2  0
  4  8  2  0
  5  6  1  0
  5  4  1  0
  6  7  2  0
  7  8  1  0
  8  9  1  0
 10 15  2  0
 11 10  1  0
 12 13  1  0
 12 11  2  0
 13 14  2  0
 14  2  1  0
 14 15  1  0
 16  3  1  0
 17 16  1  0
 18 17  1  0
 19 17  1  0
 20 17  1  0
  1 21  1  0
  5 22  1  0
  6 23  1  0
  9 24  1  0
 10 25  1  0
 11 26  1  0
 12 27  1  0
M  ISO  7  21  14  22   9  23  14  24  14  25  14  26  14  27  14
M  END
>  <minimizedAffinity>  (1) 
-4.52397442

>  <minimizedRMSD>  (1) 
5.96369314

$$$$
