
     RDKit          3D

 40 41  0  0  0  0  0  0  0  0999 V2000
   48.0370   34.3750   39.2310 C   0  0  0  0  0  0  0  0  0  0  0  0
   48.3290   32.9470   39.0560 C   0  0  0  0  0  0  0  0  0  0  0  0
   47.5840   32.2620   38.0980 C   0  0  0  0  0  0  0  0  0  0  0  0
   47.7930   30.9140   37.8680 C   0  0  0  0  0  0  0  0  0  0  0  0
   48.7650   30.2980   38.6290 N   0  0  0  0  0  0  0  0  0  0  0  0
   49.4690   31.0020   39.5500 C   0  0  0  0  0  0  0  0  0  0  0  0
   49.2440   32.2940   39.7460 N   0  0  0  0  0  0  0  0  0  0  0  0
   46.3360   33.1380   37.1520 S   0  0  0  0  0  0  0  0  0  0  0  0
   45.4280   31.9740   36.1100 C   0  0  0  0  0  0  0  0  0  0  0  0
   45.9370   32.0850   34.7010 C   0  0  0  0  0  0  0  0  0  0  0  0
   45.0290   32.8870   33.9440 N   0  0  0  0  0  0  0  0  0  0  0  0
   48.1370   34.8380   40.6600 C   0  0  0  0  0  0  0  0  0  0  0  0
   46.9550   34.5180   41.4810 C   0  0  0  0  0  0  0  0  0  0  0  0
   46.9980   34.7180   42.8930 C   0  0  0  0  0  0  0  0  0  0  0  0
   45.3410   34.1930   43.4490 S   0  0  0  0  0  0  0  0  0  0  0  0
   44.8470   33.7790   41.6450 C   0  0  0  0  0  0  0  0  0  0  0  0
   45.8000   34.0500   41.0850 N   0  0  0  0  0  0  0  0  0  0  0  0
   43.5960   33.2810   41.2950 O   0  0  0  0  0  0  0  0  0  0  0  0
   41.0380   33.6890   40.7680 O   0  0  0  0  0  0  0  0  0  0  0  0
   42.3940   34.4050   40.9140 P   0  0  1  0  0  0  0  0  0  0  0  0
   42.2720   35.5280   42.1860 O   0  0  0  0  0  0  0  0  0  0  0  0
   42.8110   35.2390   39.5020 O   0  0  0  0  0  0  0  0  0  0  0  0
   41.6580   35.4780   38.7710 C   0  0  0  0  0  0  0  0  0  0  0  0
   41.9800   36.2860   37.6850 F   0  0  0  0  0  0  0  0  0  0  0  0
   40.7170   36.0960   39.5720 F   0  0  0  0  0  0  0  0  0  0  0  0
   41.1760   34.2880   38.2200 F   0  0  0  0  0  0  0  0  0  0  0  0
   47.0148   34.5677   38.8734 H   0  0  0  0  0  0  0  0  0  0  0  0
   48.7920   34.9322   38.6569 H   0  0  0  0  0  0  0  0  0  0  0  0
   47.2126   30.3604   37.1152 H   0  0  0  0  0  0  0  0  0  0  0  0
   50.2407   30.4919   40.1452 H   0  0  0  0  0  0  0  0  0  0  0  0
   45.5826   30.9494   36.4791 H   0  0  0  0  0  0  0  0  0  0  0  0
   44.3534   32.2076   36.1382 H   0  0  0  0  0  0  0  0  0  0  0  0
   46.9315   32.5551   34.7034 H   0  0  0  0  0  0  0  0  0  0  0  0
   46.0140   31.0837   34.2521 H   0  0  0  0  0  0  0  0  0  0  0  0
   44.4251   33.4204   34.5856 H   0  0  0  0  0  0  0  0  0  0  0  0
   45.5604   33.5397   33.3503 H   0  0  0  0  0  0  0  0  0  0  0  0
   49.0152   34.3591   41.1175 H   0  0  0  0  0  0  0  0  0  0  0  0
   48.2167   35.9348   40.6330 H   0  0  0  0  0  0  0  0  0  0  0  0
   47.8316   35.0982   43.5017 H   0  0  0  0  0  0  0  0  0  0  0  0
   42.3237   35.0520   43.0525 H   0  0  0  0  0  0  0  0  0  0  0  0
  1 12  1  0
  2  1  1  0
  2  7  1  0
  3  2  2  0
  4  3  1  0
  4  5  2  0
  5  6  1  0
  6  7  2  0
  8  3  1  0
  9  8  1  0
 10  9  1  0
 11 10  1  0
 12 13  1  0
 13 14  2  0
 14 15  1  0
 16 15  1  0
 17 13  1  0
 17 16  2  0
 18 16  1  0
 20 19  2  0
 20 18  1  0
 20 21  1  0
 22 20  1  0
 23 22  1  0
 23 25  1  0
 24 23  1  0
 26 23  1  0
  1 27  1  0
  1 28  1  0
  4 29  1  0
  6 30  1  0
  9 31  1  0
  9 32  1  0
 10 33  1  0
 10 34  1  0
 11 35  1  0
 11 36  1  0
 12 37  1  0
 12 38  1  0
 14 39  1  0
 21 40  1  0
M  ISO  8  27   8  28   8  29  14  30  14  31   8  32   8  33   8  34   8
M  ISO  6  35   5  36   5  37   8  38   8  39  14  40   3
M  END
>  <minimizedAffinity>  (1) 
-5.40672016

>  <minimizedRMSD>  (1) 
2.98101425

$$$$
