
     RDKit          3D

 32 33  0  0  1  0  0  0  0  0999 V2000
   45.1790   31.8050   48.0930 O   0  0  0  0  0  0  0  0  0  0  0  0
   46.9730   30.2390   48.1830 C   0  0  2  0  0  0  0  0  0  0  0  0
   45.5220   30.4820   48.2760 C   0  0  2  0  0  0  0  0  0  0  0  0
   44.9250   29.5750   47.2670 C   0  0  0  0  0  0  0  0  0  0  0  0
   45.7530   28.4710   47.1590 O   0  0  0  0  0  0  0  0  0  0  0  0
   46.8920   28.7140   47.8440 C   0  0  0  0  0  0  0  0  0  0  0  0
   47.6970   30.4430   49.3050 O   0  0  0  0  0  0  0  0  0  0  0  0
   48.9870   30.5150   49.4710 C   0  0  0  0  0  0  0  0  0  0  0  0
   49.2510   31.9190   49.6410 F   0  0  0  0  0  0  0  0  0  0  0  0
   49.8890   30.1900   48.5000 F   0  0  0  0  0  0  0  0  0  0  0  0
   49.4390   30.0410   50.7310 F   0  0  0  0  0  0  0  0  0  0  0  0
   47.3640   32.8870   47.3550 O   0  0  0  0  0  0  0  0  0  0  0  0
   46.0320   32.4390   46.8200 P   0  0  1  0  0  0  0  0  0  0  0  0
   46.2920   31.2440   45.6480 O   0  0  0  0  0  0  0  0  0  0  0  0
   45.2860   33.8070   46.1350 O   0  0  0  0  0  0  0  0  0  0  0  0
   45.2240   35.9040   43.2550 C   0  0  0  0  0  0  0  0  0  0  0  0
   46.2800   35.3960   42.4320 C   0  0  0  0  0  0  0  0  0  0  0  0
   46.9960   34.3050   42.9340 C   0  0  0  0  0  0  0  0  0  0  0  0
   46.6530   33.8060   44.1400 N   0  0  0  0  0  0  0  0  0  0  0  0
   45.6470   34.3170   44.8860 C   0  0  0  0  0  0  0  0  0  0  0  0
   44.9440   35.3620   44.4320 N   0  0  0  0  0  0  0  0  0  0  0  0
   44.5190   36.9830   42.7620 O   0  0  0  0  0  0  0  0  0  0  0  0
   47.4876   30.9171   47.4864 H   0  0  0  0  0  0  0  0  0  0  0  0
   45.1388   30.2716   49.2854 H   0  0  0  0  0  0  0  0  0  0  0  0
   43.9214   29.2617   47.5906 H   0  0  0  0  0  0  0  0  0  0  0  0
   44.8291   30.0841   46.2966 H   0  0  0  0  0  0  0  0  0  0  0  0
   46.8927   28.1294   48.7758 H   0  0  0  0  0  0  0  0  0  0  0  0
   47.7596   28.4247   47.2329 H   0  0  0  0  0  0  0  0  0  0  0  0
   46.4800   30.3801   46.0936 H   0  0  0  0  0  0  0  0  0  0  0  0
   46.5160   35.8415   41.4543 H   0  0  0  0  0  0  0  0  0  0  0  0
   47.8219   33.8625   42.3577 H   0  0  0  0  0  0  0  0  0  0  0  0
   44.7525   37.3652   41.8791 H   0  0  0  0  0  0  0  0  0  0  0  0
  1  3  1  0
  2  3  1  0
  2  7  1  0
  4  3  1  0
  5  4  1  0
  5  6  1  0
  6  2  1  0
  7  8  1  0
  8  9  1  0
  8 11  1  0
 10  8  1  0
 13 12  2  0
 13  1  1  0
 14 13  1  0
 15 13  1  0
 16 21  2  0
 17 18  2  0
 17 16  1  0
 18 19  1  0
 19 20  2  0
 20 15  1  0
 21 20  1  0
 22 16  1  0
  2 23  1  6
  3 24  1  1
  4 25  1  0
  4 26  1  0
  6 27  1  0
  6 28  1  0
 14 29  1  0
 17 30  1  0
 18 31  1  0
 22 32  1  0
M  ISO  8  23  13  24  13  25  13  26  13  27  13  28  13  29   3  30  14
M  ISO  2  31  14  32   3
M  END
>  <minimizedAffinity>  (1) 
-4.99064922

>  <minimizedRMSD>  (1) 
0.271207929

$$$$
