
     RDKit          3D

 41 42  0  0  0  0  0  0  0  0999 V2000
   47.8540   34.3200   40.7510 C   0  0  0  0  0  0  0  0  0  0  0  0
   49.0610   33.5460   41.0750 C   0  0  0  0  0  0  0  0  0  0  0  0
   49.3490   32.4460   40.2690 C   0  0  0  0  0  0  0  0  0  0  0  0
   50.4670   31.6730   40.5160 C   0  0  0  0  0  0  0  0  0  0  0  0
   51.2700   32.0460   41.5860 N   0  0  0  0  0  0  0  0  0  0  0  0
   50.9520   33.1200   42.3390 C   0  0  0  0  0  0  0  0  0  0  0  0
   49.8680   33.8450   42.0790 N   0  0  0  0  0  0  0  0  0  0  0  0
   48.2680   32.0360   38.9140 S   0  0  0  0  0  0  0  0  0  0  0  0
   49.1170   32.2930   37.3390 C   0  0  0  0  0  0  0  0  0  0  0  0
   48.5500   33.5270   36.6780 C   0  0  0  0  0  0  0  0  0  0  0  0
   48.2040   33.2080   35.3280 N   0  0  0  0  0  0  0  0  0  0  0  0
   47.3760   35.2030   41.8530 C   0  0  0  0  0  0  0  0  0  0  0  0
   45.9310   35.0920   42.1310 C   0  0  0  0  0  0  0  0  0  0  0  0
   45.3200   35.9640   43.0580 C   0  0  0  0  0  0  0  0  0  0  0  0
   43.5790   35.4520   43.0610 S   0  0  0  0  0  0  0  0  0  0  0  0
   43.9510   34.0860   41.7630 C   0  0  0  0  0  0  0  0  0  0  0  0
   45.0780   34.2510   41.6130 N   0  0  0  0  0  0  0  0  0  0  0  0
   42.9940   33.2280   41.2560 O   0  0  0  0  0  0  0  0  0  0  0  0
   40.7930   32.9840   39.7910 O   0  0  0  0  0  0  0  0  0  0  0  0
   41.5400   33.9340   40.7210 P   0  0  1  0  0  0  0  0  0  0  0  0
   40.5710   34.2790   42.0600 O   0  0  0  0  0  0  0  0  0  0  0  0
   41.8720   35.4010   39.9210 O   0  0  0  0  0  0  0  0  0  0  0  0
   42.2660   35.2870   38.5900 C   0  0  0  0  0  0  0  0  0  0  0  0
   41.7540   36.0900   37.7370 O   0  0  0  0  0  0  0  0  0  0  0  0
   43.1950   34.3420   38.1010 N   0  0  0  0  0  0  0  0  0  0  0  0
   48.0732   34.9495   39.8759 H   0  0  0  0  0  0  0  0  0  0  0  0
   47.0531   33.5898   40.5632 H   0  0  0  0  0  0  0  0  0  0  0  0
   50.7106   30.8002   39.8924 H   0  0  0  0  0  0  0  0  0  0  0  0
   51.6005   33.4004   43.1821 H   0  0  0  0  0  0  0  0  0  0  0  0
   50.1937   32.4303   37.5172 H   0  0  0  0  0  0  0  0  0  0  0  0
   48.9707   31.4187   36.6877 H   0  0  0  0  0  0  0  0  0  0  0  0
   47.6528   33.8584   37.2213 H   0  0  0  0  0  0  0  0  0  0  0  0
   49.2962   34.3351   36.6919 H   0  0  0  0  0  0  0  0  0  0  0  0
   47.4467   32.5098   35.3235 H   0  0  0  0  0  0  0  0  0  0  0  0
   47.8879   34.0605   34.8440 H   0  0  0  0  0  0  0  0  0  0  0  0
   47.9251   34.9400   42.7691 H   0  0  0  0  0  0  0  0  0  0  0  0
   47.5581   36.2389   41.5308 H   0  0  0  0  0  0  0  0  0  0  0  0
   45.7904   36.7679   43.6432 H   0  0  0  0  0  0  0  0  0  0  0  0
   41.0789   34.0982   42.8903 H   0  0  0  0  0  0  0  0  0  0  0  0
   43.4325   34.3243   37.0989 H   0  0  0  0  0  0  0  0  0  0  0  0
   43.6349   33.6707   38.7465 H   0  0  0  0  0  0  0  0  0  0  0  0
  1  2  1  0
  1 12  1  0
  2  7  2  0
  3  4  2  0
  3  2  1  0
  4  5  1  0
  5  6  2  0
  7  6  1  0
  8  3  1  0
  9  8  1  0
 10  9  1  0
 11 10  1  0
 12 13  1  0
 13 14  2  0
 14 15  1  0
 16 15  1  0
 17 16  2  0
 17 13  1  0
 18 16  1  0
 20 19  2  0
 20 18  1  0
 20 21  1  0
 22 20  1  0
 23 22  1  0
 24 23  2  0
 25 23  1  0
  1 26  1  0
  1 27  1  0
  4 28  1  0
  6 29  1  0
  9 30  1  0
  9 31  1  0
 10 32  1  0
 10 33  1  0
 11 34  1  0
 11 35  1  0
 12 36  1  0
 12 37  1  0
 14 38  1  0
 21 39  1  0
 25 40  1  0
 25 41  1  0
M  ISO  8  26   8  27   8  28  14  29  14  30   8  31   8  32   8  33   8
M  ISO  6  34   5  35   5  36   8  37   8  38  14  39   3
M  END
>  <minimizedAffinity>  (1) 
-4.64573717

>  <minimizedRMSD>  (1) 
1.48303926

$$$$
