
     RDKit          3D

 32 31  0  0  0  0  0  0  0  0999 V2000
   46.6480   34.7680   41.9980 C   0  0  0  0  0  0  0  0  0  0  0  0
   47.9100   35.3220   41.9070 C   0  0  0  0  0  0  0  0  0  0  0  0
   48.6370   35.1440   40.7360 C   0  0  0  0  0  0  0  0  0  0  0  0
   48.1030   34.4320   39.7020 C   0  0  0  0  0  0  0  0  0  0  0  0
   46.8650   33.8680   39.7460 C   0  0  0  0  0  0  0  0  0  0  0  0
   46.1650   34.0690   40.9400 C   0  0  0  0  0  0  0  0  0  0  0  0
   44.5030   36.1480   44.7650 C   0  0  0  0  0  0  0  0  0  0  0  0
   45.1520   36.0750   43.5020 C   0  0  0  0  0  0  0  0  0  0  0  0
   45.9280   34.9770   43.2400 C   0  0  0  0  0  0  0  0  0  0  0  0
   46.0380   34.0110   44.2100 N   0  0  0  0  0  0  0  0  0  0  0  0
   45.4180   34.0920   45.4030 C   0  0  0  0  0  0  0  0  0  0  0  0
   44.6400   35.1770   45.6860 N   0  0  0  0  0  0  0  0  0  0  0  0
   43.5270   33.8950   40.8230 C   0  0  0  0  0  0  0  0  0  0  0  0
   43.2160   34.9790   40.2660 O   0  0  0  0  0  0  0  0  0  0  0  0
   44.8620   33.5370   41.1180 N   0  0  0  0  0  0  0  0  0  0  0  0
   41.1160   33.5370   41.1470 C   0  0  0  0  0  0  0  0  0  0  0  0
   40.8520   34.7200   40.8610 O   0  0  0  0  0  0  0  0  0  0  0  0
   42.4360   32.9900   41.1640 N   0  0  0  0  0  0  0  0  0  0  0  0
   48.3321   35.8939   42.7465 H   0  0  0  0  0  0  0  0  0  0  0  0
   49.6437   35.5775   40.6428 H   0  0  0  0  0  0  0  0  0  0  0  0
   48.7023   34.3076   38.7880 H   0  0  0  0  0  0  0  0  0  0  0  0
   46.4461   33.2964   38.9047 H   0  0  0  0  0  0  0  0  0  0  0  0
   43.8732   37.0201   44.9948 H   0  0  0  0  0  0  0  0  0  0  0  0
   45.0345   36.8763   42.7576 H   0  0  0  0  0  0  0  0  0  0  0  0
   45.5380   33.2886   46.1447 H   0  0  0  0  0  0  0  0  0  0  0  0
   42.7235   33.1938   41.0927 H   0  0  0  0  0  0  0  0  0  0  0  0
   44.8998   32.6282   41.6014 H   0  0  0  0  0  0  0  0  0  0  0  0
   41.1849   33.2281   42.2005 H   0  0  0  0  0  0  0  0  0  0  0  0
   41.2802   32.8010   40.3461 H   0  0  0  0  0  0  0  0  0  0  0  0
   42.4360   32.9900   42.1940 H   0  0  0  0  0  0  0  0  0  0  0  0
   42.4360   33.9611   40.8207 H   0  0  0  0  0  0  0  0  0  0  0  0
   43.2770   32.5045   40.8207 H   0  0  0  0  0  0  0  0  0  0  0  0
  1  9  1  0
  2  1  2  0
  3  2  1  0
  4  5  1  0
  4  3  2  0
  5  6  2  0
  6 15  1  0
  6  1  1  0
  7 12  2  0
  8  7  1  0
  9  8  2  0
  9 10  1  0
 10 11  2  0
 11 12  1  0
 13 15  1  0
 14 13  2  0
 17 16  2  0
  2 19  1  0
  3 20  1  0
  4 21  1  0
  5 22  1  0
  7 23  1  0
  8 24  1  0
 11 25  1  0
 13 26  1  0
 15 27  1  0
 16 28  1  0
 16 29  1  0
 18 30  1  0
 18 31  1  0
 18 32  1  0
M  ISO  8  19  14  20  14  21  14  22  14  23  14  24  14  25  14  26   6
M  ISO  5  28   6  29   6  30   5  31   5  32   5
M  END
>  <minimizedAffinity>  (1) 
-5.92505455

>  <minimizedRMSD>  (1) 
0.0763608143

$$$$
