
     RDKit          3D

 25 26  0  0  1  0  0  0  0  0999 V2000
   45.7170   32.0640   44.3870 C   0  0  0  0  0  0  0  0  0  0  0  0
   45.7580   30.6420   44.2700 C   0  0  0  0  0  0  0  0  0  0  0  0
   46.0000   29.8550   45.3910 C   0  0  0  0  0  0  0  0  0  0  0  0
   46.1910   30.4960   46.5760 N   0  0  0  0  0  0  0  0  0  0  0  0
   46.1430   31.8650   46.6420 C   0  0  0  0  0  0  0  0  0  0  0  0
   45.9110   32.6280   45.5710 N   0  0  0  0  0  0  0  0  0  0  0  0
   45.4720   32.8380   43.1690 C   0  0  1  0  0  0  0  0  0  0  0  0
   46.7880   33.5280   42.6610 C   0  0  1  0  0  0  0  0  0  0  0  0
   45.9670   32.5310   41.8790 C   0  0  0  0  0  0  0  0  0  0  0  0
   46.5910   34.9590   42.2140 C   0  0  0  0  0  0  0  0  0  0  0  0
   47.7470   35.5630   41.8090 F   0  0  0  0  0  0  0  0  0  0  0  0
   45.6990   34.9730   41.1280 F   0  0  0  0  0  0  0  0  0  0  0  0
   45.9580   35.6970   43.2020 F   0  0  0  0  0  0  0  0  0  0  0  0
   46.3590   32.3850   47.9110 O   0  0  0  0  0  0  0  0  0  0  0  0
   46.1360   31.6400   49.0690 C   0  0  0  0  0  0  0  0  0  0  0  0
   45.1210   31.4860   49.8300 O   0  0  0  0  0  0  0  0  0  0  0  0
   47.2850   30.9010   49.4840 N   0  0  0  0  0  0  0  0  0  0  0  0
   45.5978   30.1673   43.2907 H   0  0  0  0  0  0  0  0  0  0  0  0
   46.0356   28.7577   45.3223 H   0  0  0  0  0  0  0  0  0  0  0  0
   44.4415   33.0709   43.4753 H   0  0  0  0  0  0  0  0  0  0  0  0
   47.8296   33.6336   42.9986 H   0  0  0  0  0  0  0  0  0  0  0  0
   45.4083   32.8725   40.9951 H   0  0  0  0  0  0  0  0  0  0  0  0
   46.2174   31.5834   41.3797 H   0  0  0  0  0  0  0  0  0  0  0  0
   47.2415   30.3123   50.3280 H   0  0  0  0  0  0  0  0  0  0  0  0
   48.1574   30.9566   48.9393 H   0  0  0  0  0  0  0  0  0  0  0  0
  1  6  1  0
  2  1  2  0
  2  3  1  0
  3  4  2  0
  4  5  1  0
  5 14  1  0
  6  5  2  0
  7  1  1  0
  8  7  1  0
  9  8  1  0
  9  7  1  0
 10  8  1  0
 10 13  1  0
 11 10  1  0
 12 10  1  0
 14 15  1  0
 15 17  1  0
 15 16  2  0
  2 18  1  0
  3 19  1  0
  7 20  1  6
  8 21  1  1
  9 22  1  0
  9 23  1  0
 17 24  1  0
 17 25  1  0
M  ISO  6  18  14  19  14  20  13  21  13  22  13  23  13
M  END
>  <minimizedAffinity>  (1) 
-4.35220194

>  <minimizedRMSD>  (1) 
2.18966627

$$$$
