
     RDKit          3D

 38 40  0  0  1  0  0  0  0  0999 V2000
   46.7470   33.4270   39.1790 C   0  0  0  0  0  0  0  0  0  0  0  0
   46.6120   33.8640   40.4340 C   0  0  0  0  0  0  0  0  0  0  0  0
   45.3300   33.9280   41.0320 N   0  0  0  0  0  0  0  0  0  0  0  0
   44.5040   33.8000   42.1700 C   0  0  0  0  0  0  0  0  0  0  0  0
   44.6990   33.5830   43.4050 O   0  0  0  0  0  0  0  0  0  0  0  0
   43.2510   34.0030   41.4640 C   0  0  1  0  0  0  0  0  0  0  0  0
   44.1400   34.2790   40.2760 C   0  0  2  0  0  0  0  0  0  0  0  0
   44.0200   33.1310   38.9030 S   0  0  0  0  0  0  0  0  0  0  0  0
   45.6770   32.9610   38.2500 C   0  0  0  0  0  0  0  0  0  0  0  0
   42.4320   32.7930   41.4080 C   0  0  0  0  0  0  0  0  0  0  0  0
   41.5230   32.4390   40.6330 O   0  0  0  0  0  0  0  0  0  0  0  0
   42.7420   31.8350   42.4440 N   0  0  0  0  0  0  0  0  0  0  0  0
   40.0870   29.3650   43.2610 C   0  0  0  0  0  0  0  0  0  0  0  0
   40.7510   30.5950   43.1660 C   0  0  0  0  0  0  0  0  0  0  0  0
   41.9960   30.6390   42.5790 C   0  0  0  0  0  0  0  0  0  0  0  0
   42.5430   29.4990   42.1110 N   0  0  0  0  0  0  0  0  0  0  0  0
   41.8950   28.3000   42.2020 C   0  0  0  0  0  0  0  0  0  0  0  0
   40.6730   28.2590   42.7800 N   0  0  0  0  0  0  0  0  0  0  0  0
   48.1330   33.4090   38.6560 C   0  0  0  0  0  0  0  0  0  0  0  0
   47.7620   34.2850   41.2170 C   0  0  0  0  0  0  0  0  0  0  0  0
   48.1450   35.4950   41.2410 O   0  0  0  0  0  0  0  0  0  0  0  0
   48.6330   33.5930   42.0340 O   0  0  0  0  0  0  0  0  0  0  0  0
   49.9300   33.8620   42.3150 C   0  0  0  0  0  0  0  0  0  0  0  0
   50.7940   33.0580   41.8830 O   0  0  0  0  0  0  0  0  0  0  0  0
   50.2160   35.0520   43.0900 N   0  0  0  0  0  0  0  0  0  0  0  0
   42.4569   34.7016   41.7663 H   0  0  0  0  0  0  0  0  0  0  0  0
   43.9912   35.2502   39.7814 H   0  0  0  0  0  0  0  0  0  0  0  0
   45.8528   31.8986   38.0254 H   0  0  0  0  0  0  0  0  0  0  0  0
   45.7330   33.5985   37.3554 H   0  0  0  0  0  0  0  0  0  0  0  0
   43.5177   32.0249   43.0945 H   0  0  0  0  0  0  0  0  0  0  0  0
   39.0922   29.3070   43.7268 H   0  0  0  0  0  0  0  0  0  0  0  0
   40.2846   31.5123   43.5547 H   0  0  0  0  0  0  0  0  0  0  0  0
   42.3596   27.3826   41.8115 H   0  0  0  0  0  0  0  0  0  0  0  0
   48.8421   33.3998   39.4969 H   0  0  0  0  0  0  0  0  0  0  0  0
   48.2813   32.5089   38.0414 H   0  0  0  0  0  0  0  0  0  0  0  0
   48.3047   34.3050   38.0414 H   0  0  0  0  0  0  0  0  0  0  0  0
   51.1897   35.2919   43.3249 H   0  0  0  0  0  0  0  0  0  0  0  0
   49.4456   35.6582   43.4061 H   0  0  0  0  0  0  0  0  0  0  0  0
  1  2  2  0
  2  3  1  0
  2 20  1  0
  3  4  1  0
  4  5  2  0
  6  4  1  0
  7  3  1  0
  7  6  1  0
  8  7  1  0
  9  8  1  0
  9  1  1  0
 10  6  1  0
 10 12  1  0
 11 10  2  0
 12 15  1  0
 14 13  2  0
 15 14  1  0
 16 17  1  0
 16 15  2  0
 17 18  2  0
 18 13  1  0
 19  1  1  0
 20 21  2  0
 20 22  1  0
 22 23  1  0
 23 25  1  0
 24 23  2  0
  6 26  1  1
  7 27  1  6
  9 28  1  0
  9 29  1  0
 12 30  1  0
 13 31  1  0
 14 32  1  0
 17 33  1  0
 19 34  1  0
 19 35  1  0
 19 36  1  0
 25 37  1  0
 25 38  1  0
M  ISO  8  26  13  27  13  28  13  29  13  31  14  32  14  33  14  34   8
M  ISO  2  35   8  36   8
M  END
>  <minimizedAffinity>  (1) 
-5.35982227

>  <minimizedRMSD>  (1) 
5.2169714

$$$$
