
     RDKit          3D

 24 25  0  0  0  0  0  0  0  0999 V2000
   44.6900   35.2210   45.1700 C   0  0  0  0  0  0  0  0  0  0  0  0
   45.3980   35.0390   43.9920 C   0  0  0  0  0  0  0  0  0  0  0  0
   46.3370   34.0220   43.8820 C   0  0  0  0  0  0  0  0  0  0  0  0
   46.5100   33.2310   44.9920 N   0  0  0  0  0  0  0  0  0  0  0  0
   45.8290   33.4100   46.1190 C   0  0  0  0  0  0  0  0  0  0  0  0
   44.9260   34.3970   46.2060 N   0  0  0  0  0  0  0  0  0  0  0  0
   46.0500   32.5460   47.2670 C   0  0  0  0  0  0  0  0  0  0  0  0
   47.2780   32.0640   47.5890 C   0  0  0  0  0  0  0  0  0  0  0  0
   47.5200   31.2450   48.6680 C   0  0  0  0  0  0  0  0  0  0  0  0
   46.4440   30.9220   49.4300 N   0  0  0  0  0  0  0  0  0  0  0  0
   45.2430   31.4010   49.1060 C   0  0  0  0  0  0  0  0  0  0  0  0
   44.9900   32.2030   48.0530 N   0  0  0  0  0  0  0  0  0  0  0  0
   45.1370   35.9350   42.8760 C   0  0  0  0  0  0  0  0  0  0  0  0
   45.1520   37.1680   43.0960 O   0  0  0  0  0  0  0  0  0  0  0  0
   43.5080   35.0170   41.3230 C   0  0  0  0  0  0  0  0  0  0  0  0
   42.5740   35.2710   42.1270 O   0  0  0  0  0  0  0  0  0  0  0  0
   44.8840   35.3210   41.6110 N   0  0  0  0  0  0  0  0  0  0  0  0
   43.9466   36.0272   45.2558 H   0  0  0  0  0  0  0  0  0  0  0  0
   46.9104   33.8587   42.9576 H   0  0  0  0  0  0  0  0  0  0  0  0
   48.1285   32.3445   46.9503 H   0  0  0  0  0  0  0  0  0  0  0  0
   48.5288   30.8729   48.9001 H   0  0  0  0  0  0  0  0  0  0  0  0
   44.3941   31.1204   49.7467 H   0  0  0  0  0  0  0  0  0  0  0  0
   43.2623   34.5434   40.3611 H   0  0  0  0  0  0  0  0  0  0  0  0
   45.6411   35.1089   40.9456 H   0  0  0  0  0  0  0  0  0  0  0  0
  1  6  2  0
  2  1  1  0
  3  2  2  0
  3  4  1  0
  4  5  2  0
  5  6  1  0
  5  7  1  0
  7  8  2  0
  7 12  1  0
  8  9  1  0
  9 10  2  0
 11 10  1  0
 12 11  2  0
 13 14  2  0
 13  2  1  0
 15 17  1  0
 15 16  2  0
 17 13  1  0
  1 18  1  0
  3 19  1  0
  8 20  1  0
  9 21  1  0
 11 22  1  0
 15 23  1  0
 17 24  1  0
M  ISO  6  18  14  19  14  20  14  21  14  22  14  23   6
M  END
>  <minimizedAffinity>  (1) 
-5.21550035

>  <minimizedRMSD>  (1) 
1.79690945

$$$$
