
     RDKit          3D

 25 26  0  0  1  0  0  0  0  0999 V2000
   46.1900   34.7540   43.1970 C   0  0  0  0  0  0  0  0  0  0  0  0
   45.2780   35.8070   43.5030 C   0  0  0  0  0  0  0  0  0  0  0  0
   44.6290   35.7010   44.7290 C   0  0  0  0  0  0  0  0  0  0  0  0
   44.8900   34.6460   45.5320 N   0  0  0  0  0  0  0  0  0  0  0  0
   45.7840   33.6640   45.1720 C   0  0  0  0  0  0  0  0  0  0  0  0
   46.4310   33.7050   44.0260 N   0  0  0  0  0  0  0  0  0  0  0  0
   46.0250   32.5470   46.1260 C   0  0  1  0  0  0  0  0  0  0  0  0
   46.8280   32.8280   47.3800 C   0  0  0  0  0  0  0  0  0  0  0  0
   45.3330   32.6790   47.4240 C   0  0  1  0  0  0  0  0  0  0  0  0
   44.6770   33.9500   47.7630 N   0  0  0  0  0  0  0  0  0  0  0  0
   46.8780   34.8760   41.9280 C   0  0  0  0  0  0  0  0  0  0  0  0
   48.0150   35.4550   41.7980 O   0  0  0  0  0  0  0  0  0  0  0  0
   47.1750   33.9110   39.6190 C   0  0  0  0  0  0  0  0  0  0  0  0
   48.4280   33.9650   39.7620 O   0  0  0  0  0  0  0  0  0  0  0  0
   46.3620   34.3640   40.6970 N   0  0  0  0  0  0  0  0  0  0  0  0
   45.0997   36.6469   42.8155 H   0  0  0  0  0  0  0  0  0  0  0  0
   43.9084   36.4707   45.0425 H   0  0  0  0  0  0  0  0  0  0  0  0
   46.0996   31.7861   45.3351 H   0  0  0  0  0  0  0  0  0  0  0  0
   47.4751   32.0490   47.8095 H   0  0  0  0  0  0  0  0  0  0  0  0
   47.5511   33.5947   47.6950 H   0  0  0  0  0  0  0  0  0  0  0  0
   44.5885   32.0389   47.9200 H   0  0  0  0  0  0  0  0  0  0  0  0
   44.6265   34.0479   48.7871 H   0  0  0  0  0  0  0  0  0  0  0  0
   45.2197   34.7321   47.3697 H   0  0  0  0  0  0  0  0  0  0  0  0
   46.7255   33.5264   38.6916 H   0  0  0  0  0  0  0  0  0  0  0  0
   45.3393   34.3200   40.5827 H   0  0  0  0  0  0  0  0  0  0  0  0
  1  2  2  0
  1  6  1  0
  2  3  1  0
  3  4  2  0
  5  4  1  0
  5  7  1  0
  6  5  2  0
  7  8  1  0
  7  9  1  0
  8  9  1  0
  9 10  1  0
 11  1  1  0
 12 11  2  0
 13 14  2  0
 13 15  1  0
 15 11  1  0
  2 16  1  0
  3 17  1  0
  7 18  1  6
  8 19  1  0
  8 20  1  0
  9 21  1  1
 10 22  1  0
 10 23  1  0
 13 24  1  0
 15 25  1  0
M  ISO  8  16  14  17  14  18  13  19  13  20  13  21  13  22   5  23   5
M  ISO  1  24   6
M  END
>  <minimizedAffinity>  (1) 
-5.33445692

>  <minimizedRMSD>  (1) 
0.200474888

$$$$
