
     RDKit          3D

 36 37  0  0  0  0  0  0  0  0999 V2000
   46.1827   32.0896   45.4384 C   0  0  0  0  0  0  0  0  0  0  0  0
   45.7648   32.0241   49.1304 C   0  0  0  0  0  0  0  0  0  0  0  0
   46.0562   32.4968   47.8437 C   0  0  0  0  0  0  0  0  0  0  0  0
   45.8833   31.6147   46.7922 C   0  0  0  0  0  0  0  0  0  0  0  0
   45.4402   30.3345   47.0541 N   0  0  0  0  0  0  0  0  0  0  0  0
   45.1723   29.9260   48.3152 C   0  0  0  0  0  0  0  0  0  0  0  0
   45.3383   30.7768   49.3365 N   0  0  0  0  0  0  0  0  0  0  0  0
   46.5440   33.4069   45.4143 O   0  0  0  0  0  0  0  0  0  0  0  0
   44.6382   35.1761   45.2510 O   0  0  0  0  0  0  0  0  0  0  0  0
   45.4483   34.2379   44.4203 P   0  0  2  0  0  0  0  0  0  0  0  0
   44.5192   33.0579   43.6728 O   0  0  0  0  0  0  0  0  0  0  0  0
   46.3471   35.1250   43.3058 O   0  0  0  0  0  0  0  0  0  0  0  0
   47.1029   34.2414   42.5325 C   0  0  1  0  0  0  0  0  0  0  0  0
   46.9677   34.4813   41.0526 C   0  0  0  0  0  0  0  0  0  0  0  0
   48.1091   33.6638   40.5030 C   0  0  0  0  0  0  0  0  0  0  0  0
   49.1642   33.6686   41.5888 C   0  0  0  0  0  0  0  0  0  0  0  0
   48.5946   34.5328   42.7116 C   0  0  2  0  0  0  0  0  0  0  0  0
   45.3974   31.7504   44.7811 H   0  0  0  0  0  0  0  0  0  0  0  0
   47.1021   31.5146   45.1212 H   0  0  0  0  0  0  0  0  0  0  0  0
   45.8826   32.6749   49.9971 H   0  0  0  0  0  0  0  0  0  0  0  0
   46.3942   33.5041   47.7371 H   0  0  0  0  0  0  0  0  0  0  0  0
   44.8267   28.9022   48.4430 H   0  0  0  0  0  0  0  0  0  0  0  0
   44.9357   32.7221   42.8369 H   0  0  0  0  0  0  0  0  0  0  0  0
   46.9571   33.1922   42.8022 H   0  0  0  0  0  0  0  0  0  0  0  0
   45.9722   34.1608   40.6805 H   0  0  0  0  0  0  0  0  0  0  0  0
   47.1869   35.5467   40.8371 H   0  0  0  0  0  0  0  0  0  0  0  0
   47.7381   32.6069   40.4330 H   0  0  0  0  0  0  0  0  0  0  0  0
   48.4921   34.0307   39.5422 H   0  0  0  0  0  0  0  0  0  0  0  0
   49.4183   32.6543   41.9421 H   0  0  0  0  0  0  0  0  0  0  0  0
   50.0296   34.2313   41.1837 H   0  0  0  0  0  0  0  0  0  0  0  0
   48.8249   35.5892   42.6241 H   0  0  0  0  0  0  0  0  0  0  0  0
   50.1192   32.2135   44.8318 H   0  0  0  0  0  0  0  0  0  0  0  0
   49.7549   32.6545   43.9006 C   0  0  0  0  0  0  0  0  0  0  0  0
   49.9522   32.0022   42.8536 O   0  0  0  0  0  0  0  0  0  0  0  0
   49.0865   33.9286   43.9367 N   0  0  0  0  0  0  0  0  0  0  0  0
   48.9288   34.4626   44.8207 H   0  0  0  0  0  0  0  0  0  0  0  0
  1  4  1  0
  2  7  2  0
  3  2  1  0
  4  5  1  0
  4  3  2  0
  5  6  2  0
  6  7  1  0
  8  1  1  0
 10  9  2  0
 10  8  1  1
 11 10  1  0
 12 10  1  0
 13 17  1  0
 13 12  1  0
 14 13  1  0
 15 14  1  0
 15 16  1  0
 16 17  1  0
  1 18  1  0
  1 19  1  0
  2 20  1  0
  3 21  1  0
  6 22  1  0
 11 23  1  0
 13 24  1  6
 14 25  1  0
 14 26  1  0
 15 27  1  0
 15 28  1  0
 16 29  1  0
 16 30  1  0
 17 31  1  6
 32 33  1  0
 33 34  2  0
 33 35  1  0
 35 36  1  0
 17 35  1  0
M  ISO  8  18   8  19   8  20  14  21  14  22  14  23   3  24  13  25  13
M  ISO  7  26  13  27  13  28  13  29  13  30  13  31  13  32   1
M  END
>  <DihAtoms>  (1) 
12,16,34,32

>  <DihDeg>  (1) 
-127.56389130362923

$$$$
