
     RDKit          3D

 36 37  0  0  1  0  0  0  0  0999 V2000
   47.1380   34.0450   42.4980 C   0  0  2  0  0  0  0  0  0  0  0  0
   48.5140   34.5920   42.6000 C   0  0  0  0  0  0  0  0  0  0  0  0
   48.8120   35.5990   41.5420 C   0  0  0  0  0  0  0  0  0  0  0  0
   48.5700   35.0740   40.1410 C   0  0  0  0  0  0  0  0  0  0  0  0
   47.3740   34.1480   40.0260 C   0  0  2  0  0  0  0  0  0  0  0  0
   46.4650   34.3470   41.2010 C   0  0  0  0  0  0  0  0  0  0  0  0
   46.2710   34.4320   43.6130 C   0  0  0  0  0  0  0  0  0  0  0  0
   45.5140   35.5730   43.3610 C   0  0  0  0  0  0  0  0  0  0  0  0
   44.6260   36.0540   44.3340 C   0  0  0  0  0  0  0  0  0  0  0  0
   44.5700   35.3350   45.5130 N   0  0  0  0  0  0  0  0  0  0  0  0
   45.3160   34.2370   45.7260 C   0  0  0  0  0  0  0  0  0  0  0  0
   46.1420   33.8160   44.7770 N   0  0  0  0  0  0  0  0  0  0  0  0
   47.8560   32.7780   39.8040 C   0  0  0  0  0  0  0  0  0  0  0  0
   49.0760   32.6140   39.0050 C   0  0  0  0  0  0  0  0  0  0  0  0
   51.0720   31.5640   38.5150 C   0  0  0  0  0  0  0  0  0  0  0  0
   51.0820   31.5670   37.2460 O   0  0  0  0  0  0  0  0  0  0  0  0
   50.2140   32.0100   39.5970 N   0  0  0  0  0  0  0  0  0  0  0  0
   47.2892   32.9566   42.5490 H   0  0  0  0  0  0  0  0  0  0  0  0
   48.6308   35.0700   43.5838 H   0  0  0  0  0  0  0  0  0  0  0  0
   49.2152   33.7547   42.4691 H   0  0  0  0  0  0  0  0  0  0  0  0
   48.1698   36.4775   41.7031 H   0  0  0  0  0  0  0  0  0  0  0  0
   49.8798   35.8518   41.6192 H   0  0  0  0  0  0  0  0  0  0  0  0
   48.4077   35.9329   39.4732 H   0  0  0  0  0  0  0  0  0  0  0  0
   49.4564   34.4839   39.8652 H   0  0  0  0  0  0  0  0  0  0  0  0
   46.7460   34.3811   39.1535 H   0  0  0  0  0  0  0  0  0  0  0  0
   46.1276   35.3939   41.2134 H   0  0  0  0  0  0  0  0  0  0  0  0
   45.6191   33.6523   41.0922 H   0  0  0  0  0  0  0  0  0  0  0  0
   45.6124   36.0971   42.3989 H   0  0  0  0  0  0  0  0  0  0  0  0
   44.0104   36.9505   44.1686 H   0  0  0  0  0  0  0  0  0  0  0  0
   45.2421   33.6924   46.6789 H   0  0  0  0  0  0  0  0  0  0  0  0
   48.0449   32.3304   40.7909 H   0  0  0  0  0  0  0  0  0  0  0  0
   47.0648   32.2929   39.2134 H   0  0  0  0  0  0  0  0  0  0  0  0
   49.3806   33.6177   38.6736 H   0  0  0  0  0  0  0  0  0  0  0  0
   48.7809   31.9028   38.2195 H   0  0  0  0  0  0  0  0  0  0  0  0
   51.9787   31.0827   38.9103 H   0  0  0  0  0  0  0  0  0  0  0  0
   50.3972   31.9071   40.6053 H   0  0  0  0  0  0  0  0  0  0  0  0
  1  2  1  0
  1  7  1  0
  3  2  1  0
  4  3  1  0
  5  4  1  0
  5  6  1  0
  6  1  1  0
  7 12  1  0
  8  7  2  0
  8  9  1  0
  9 10  2  0
 10 11  1  0
 12 11  2  0
 13  5  1  0
 14 17  1  0
 14 13  1  0
 15 17  1  0
 16 15  2  0
  1 18  1  6
  2 19  1  0
  2 20  1  0
  3 21  1  0
  3 22  1  0
  4 23  1  0
  4 24  1  0
  5 25  1  6
  6 26  1  0
  6 27  1  0
  8 28  1  0
  9 29  1  0
 11 30  1  0
 13 31  1  0
 13 32  1  0
 14 33  1  0
 14 34  1  0
 15 35  1  0
 17 36  1  0
M  ISO  8  18  13  19  13  20  13  21  13  22  13  23  13  24  13  25  13
M  ISO  8  26  13  27  13  28  14  29  14  30  14  31   8  32   8  33   8
M  ISO  2  34   8  35   6
M  END
>  <minimizedAffinity>  (1) 
-5.19449854

>  <minimizedRMSD>  (1) 
2.25859404

$$$$
