
     RDKit          3D

 39 42  0  0  0  0  0  0  0  0999 V2000
   44.8400   36.0460   43.2840 Cl  0  0  0  0  0  0  0  0  0  0  0  0
   45.5730   34.7930   44.2180 C   0  0  0  0  0  0  0  0  0  0  0  0
   46.6850   34.1260   43.7490 C   0  0  0  0  0  0  0  0  0  0  0  0
   47.2010   33.1400   44.5670 C   0  0  0  0  0  0  0  0  0  0  0  0
   46.6690   32.8010   45.7990 C   0  0  0  0  0  0  0  0  0  0  0  0
   45.5680   33.4810   46.2340 C   0  0  0  0  0  0  0  0  0  0  0  0
   44.9270   33.0190   47.8000 Cl  0  0  0  0  0  0  0  0  0  0  0  0
   45.0210   34.4730   45.4490 C   0  0  0  0  0  0  0  0  0  0  0  0
   47.3540   31.7290   46.5230 C   0  0  0  0  0  0  0  0  0  0  0  0
   47.4750   30.4460   46.0450 C   0  0  0  0  0  0  0  0  0  0  0  0
   48.1160   29.4240   46.7130 C   0  0  0  0  0  0  0  0  0  0  0  0
   48.6790   29.6820   47.9410 C   0  0  0  0  0  0  0  0  0  0  0  0
   49.2970   28.6650   48.5660 N   0  0  0  0  0  0  0  0  0  0  0  0
   49.8790   28.8320   49.7810 C   0  0  0  0  0  0  0  0  0  0  0  0
   49.8040   30.1070   50.3440 C   0  0  0  0  0  0  0  0  0  0  0  0
   49.1700   31.1370   49.6920 C   0  0  0  0  0  0  0  0  0  0  0  0
   48.5870   30.9540   48.4680 C   0  0  0  0  0  0  0  0  0  0  0  0
   47.9400   31.9420   47.7700 C   0  0  0  0  0  0  0  0  0  0  0  0
   48.9220   35.5850   41.2630 C   0  0  0  0  0  0  0  0  0  0  0  0
   48.4570   35.0580   40.0590 C   0  0  0  0  0  0  0  0  0  0  0  0
   47.3510   34.1830   40.0940 C   0  0  0  0  0  0  0  0  0  0  0  0
   46.8160   33.9160   41.3160 N   0  0  0  0  0  0  0  0  0  0  0  0
   47.2870   34.4390   42.4630 C   0  0  0  0  0  0  0  0  0  0  0  0
   48.3400   35.2750   42.4370 N   0  0  0  0  0  0  0  0  0  0  0  0
   47.3590   33.8480   37.6590 C   0  0  0  0  0  0  0  0  0  0  0  0
   48.3250   34.5370   37.2380 O   0  0  0  0  0  0  0  0  0  0  0  0
   46.7930   33.5880   38.9320 N   0  0  0  0  0  0  0  0  0  0  0  0
   48.0882   32.5911   44.2184 H   0  0  0  0  0  0  0  0  0  0  0  0
   44.1342   35.0184   45.8040 H   0  0  0  0  0  0  0  0  0  0  0  0
   47.0310   30.2194   45.0644 H   0  0  0  0  0  0  0  0  0  0  0  0
   48.1761   28.4186   46.2708 H   0  0  0  0  0  0  0  0  0  0  0  0
   50.3852   28.0027   50.2968 H   0  0  0  0  0  0  0  0  0  0  0  0
   50.2608   30.2906   51.3277 H   0  0  0  0  0  0  0  0  0  0  0  0
   49.1304   32.1297   50.1642 H   0  0  0  0  0  0  0  0  0  0  0  0
   47.8809   32.9468   48.2138 H   0  0  0  0  0  0  0  0  0  0  0  0
   49.7833   36.2691   41.2537 H   0  0  0  0  0  0  0  0  0  0  0  0
   48.9404   35.3179   39.1057 H   0  0  0  0  0  0  0  0  0  0  0  0
   46.8302   33.3251   36.8485 H   0  0  0  0  0  0  0  0  0  0  0  0
   45.9757   32.9665   39.0143 H   0  0  0  0  0  0  0  0  0  0  0  0
  1  2  1  0
  2  8  2  0
  3  2  1  0
  3  4  2  0
  4  5  1  0
  5  6  2  0
  5  9  1  0
  6  7  1  0
  8  6  1  0
  9 18  1  0
 10  9  2  0
 10 11  1  0
 11 12  2  0
 12 17  1  0
 12 13  1  0
 13 14  2  0
 14 15  1  0
 16 15  2  0
 17 16  1  0
 18 17  2  0
 19 24  2  0
 20 21  2  0
 20 19  1  0
 21 22  1  0
 22 23  2  0
 23  3  1  0
 24 23  1  0
 25 27  1  0
 26 25  2  0
 27 21  1  0
  4 28  1  0
  8 29  1  0
 10 30  1  0
 11 31  1  0
 14 32  1  0
 15 33  1  0
 16 34  1  0
 18 35  1  0
 19 36  1  0
 20 37  1  0
 25 38  1  0
 27 39  1  0
M  ISO  8  28  14  29  14  30  14  31  14  32  14  33  14  34  14  35  14
M  ISO  3  36  14  37  14  38   6
M  END
>  <minimizedAffinity>  (1) 
-7.09253263

>  <minimizedRMSD>  (1) 
0.451772571

$$$$
