
     RDKit          3D

 29 30  0  0  1  0  0  0  0  0999 V2000
   46.8750   34.6320   42.2730 N   0  0  0  0  0  0  0  0  0  0  0  0
   48.3300   34.7330   42.3340 C   0  0  0  0  0  0  0  0  0  0  0  0
   48.7100   35.4970   41.0560 C   0  0  0  0  0  0  0  0  0  0  0  0
   48.3920   34.6710   39.8560 C   0  0  0  0  0  0  0  0  0  0  0  0
   47.0910   33.9700   39.9240 C   0  0  0  0  0  0  0  0  0  0  0  0
   46.1780   34.3700   41.0470 C   0  0  1  0  0  0  0  0  0  0  0  0
   44.4980   35.9810   44.8190 C   0  0  0  0  0  0  0  0  0  0  0  0
   45.2220   35.8950   43.6190 C   0  0  0  0  0  0  0  0  0  0  0  0
   46.1030   34.7960   43.4580 C   0  0  0  0  0  0  0  0  0  0  0  0
   46.1890   33.8990   44.4750 N   0  0  0  0  0  0  0  0  0  0  0  0
   45.4620   34.0290   45.6230 C   0  0  0  0  0  0  0  0  0  0  0  0
   44.6250   35.0720   45.7780 N   0  0  0  0  0  0  0  0  0  0  0  0
   43.8290   33.6340   40.8730 C   0  0  0  0  0  0  0  0  0  0  0  0
   43.4490   34.7280   40.3980 O   0  0  0  0  0  0  0  0  0  0  0  0
   45.1800   33.3400   41.2380 N   0  0  0  0  0  0  0  0  0  0  0  0
   48.6450   35.2894   43.2291 H   0  0  0  0  0  0  0  0  0  0  0  0
   48.8179   33.7491   42.3969 H   0  0  0  0  0  0  0  0  0  0  0  0
   48.1423   36.4382   41.0115 H   0  0  0  0  0  0  0  0  0  0  0  0
   49.7885   35.7129   41.0709 H   0  0  0  0  0  0  0  0  0  0  0  0
   49.1836   33.9164   39.7381 H   0  0  0  0  0  0  0  0  0  0  0  0
   48.3307   35.3648   39.0046 H   0  0  0  0  0  0  0  0  0  0  0  0
   46.5605   34.1555   38.9784 H   0  0  0  0  0  0  0  0  0  0  0  0
   47.3362   32.9135   40.1073 H   0  0  0  0  0  0  0  0  0  0  0  0
   45.6967   35.3174   40.7626 H   0  0  0  0  0  0  0  0  0  0  0  0
   43.8073   36.8240   44.9684 H   0  0  0  0  0  0  0  0  0  0  0  0
   45.1095   36.6542   42.8310 H   0  0  0  0  0  0  0  0  0  0  0  0
   45.5602   33.2803   46.4228 H   0  0  0  0  0  0  0  0  0  0  0  0
   43.0743   32.8472   41.0192 H   0  0  0  0  0  0  0  0  0  0  0  0
   45.4355   32.4207   41.6260 H   0  0  0  0  0  0  0  0  0  0  0  0
  1  2  1  0
  1  9  1  0
  3  2  1  0
  4  5  1  0
  4  3  1  0
  5  6  1  0
  6 15  1  0
  6  1  1  0
  7 12  2  0
  8  7  1  0
  9  8  2  0
  9 10  1  0
 10 11  2  0
 11 12  1  0
 13 15  1  0
 14 13  2  0
  2 16  1  0
  2 17  1  0
  3 18  1  0
  3 19  1  0
  4 20  1  0
  4 21  1  0
  5 22  1  0
  5 23  1  0
  6 24  1  6
  7 25  1  0
  8 26  1  0
 11 27  1  0
 13 28  1  0
 15 29  1  0
M  ISO  8  16  13  17  13  18  13  19  13  20  13  21  13  22  13  23  13
M  ISO  5  24  13  25  14  26  14  27  14  28   6
M  END
>  <minimizedAffinity>  (1) 
-4.98916435

>  <minimizedRMSD>  (1) 
0.111407787

$$$$
