
     RDKit          3D

 35 37  0  0  0  0  0  0  0  0999 V2000
   46.2360   34.7410   41.8600 C   0  0  0  0  0  0  0  0  0  0  0  0
   47.4420   35.0900   41.7320 O   0  0  0  0  0  0  0  0  0  0  0  0
   45.3710   34.2020   40.7690 C   0  0  0  0  0  0  0  0  0  0  0  0
   44.0320   34.4180   40.5970 C   0  0  0  0  0  0  0  0  0  0  0  0
   43.6900   33.7290   39.4780 N   0  0  0  0  0  0  0  0  0  0  0  0
   44.7740   33.1240   38.9950 C   0  0  0  0  0  0  0  0  0  0  0  0
   45.8090   33.4160   39.7900 N   0  0  0  0  0  0  0  0  0  0  0  0
   44.9330   32.2980   37.8580 N   0  0  0  0  0  0  0  0  0  0  0  0
   42.3810   33.6210   38.8490 C   0  0  0  0  0  0  0  0  0  0  0  0
   41.2870   35.6720   38.2100 C   0  0  0  0  0  0  0  0  0  0  0  0
   40.7090   35.6710   39.3310 O   0  0  0  0  0  0  0  0  0  0  0  0
   42.1900   34.6480   37.8370 N   0  0  0  0  0  0  0  0  0  0  0  0
   45.0660   36.0950   43.5380 C   0  0  0  0  0  0  0  0  0  0  0  0
   45.7010   34.8940   43.1720 C   0  0  0  0  0  0  0  0  0  0  0  0
   45.7400   33.9380   44.1860 C   0  0  0  0  0  0  0  0  0  0  0  0
   45.2290   34.1290   45.3880 N   0  0  0  0  0  0  0  0  0  0  0  0
   44.6220   35.3130   45.6920 C   0  0  0  0  0  0  0  0  0  0  0  0
   44.5490   36.2780   44.7660 N   0  0  0  0  0  0  0  0  0  0  0  0
   46.3720   32.6920   43.8910 C   0  0  0  0  0  0  0  0  0  0  0  0
   47.6310   32.1960   43.9480 C   0  0  0  0  0  0  0  0  0  0  0  0
   47.9490   30.9710   43.6060 C   0  0  0  0  0  0  0  0  0  0  0  0
   46.9300   30.2090   43.1850 C   0  0  0  0  0  0  0  0  0  0  0  0
   45.4660   31.2810   43.2800 S   0  0  0  0  0  0  0  0  0  0  0  0
   43.3696   35.0238   41.2328 H   0  0  0  0  0  0  0  0  0  0  0  0
   45.8588   31.9087   37.6297 H   0  0  0  0  0  0  0  0  0  0  0  0
   44.1229   32.0858   37.2583 H   0  0  0  0  0  0  0  0  0  0  0  0
   42.2922   32.6319   38.3758 H   0  0  0  0  0  0  0  0  0  0  0  0
   41.6129   33.7539   39.6251 H   0  0  0  0  0  0  0  0  0  0  0  0
   41.0839   36.4903   37.5036 H   0  0  0  0  0  0  0  0  0  0  0  0
   42.6710   34.6315   36.9263 H   0  0  0  0  0  0  0  0  0  0  0  0
   44.9903   36.9066   42.7994 H   0  0  0  0  0  0  0  0  0  0  0  0
   44.1947   35.4740   46.6928 H   0  0  0  0  0  0  0  0  0  0  0  0
   48.4336   32.8598   44.3019 H   0  0  0  0  0  0  0  0  0  0  0  0
   48.9811   30.5945   43.6608 H   0  0  0  0  0  0  0  0  0  0  0  0
   46.9711   29.1609   42.8535 H   0  0  0  0  0  0  0  0  0  0  0  0
  1 14  1  0
  2  1  2  0
  3  1  1  0
  4  3  2  0
  5  4  1  0
  6  5  1  0
  6  7  2  0
  7  3  1  0
  8  6  1  0
  9  5  1  0
 10 11  2  0
 12 10  1  0
 12  9  1  0
 13 18  2  0
 14 13  1  0
 14 15  2  0
 15 16  1  0
 16 17  2  0
 18 17  1  0
 19 20  2  0
 19 15  1  0
 21 20  1  0
 22 23  1  0
 22 21  2  0
 23 19  1  0
  4 24  1  0
  8 25  1  0
  8 26  1  0
  9 27  1  0
  9 28  1  0
 10 29  1  0
 12 30  1  0
 13 31  1  0
 17 32  1  0
 20 33  1  0
 21 34  1  0
 22 35  1  0
M  ISO  8  24  14  27   8  28   8  29   6  31  14  32  14  33  14  34  14
M  ISO  1  35  14
M  END
>  <minimizedAffinity>  (1) 
-5.03600264

>  <minimizedRMSD>  (1) 
1.85599136

$$$$
