
     RDKit          3D

 38 40  0  0  1  0  0  0  0  0999 V2000
   48.4420   34.1160   40.9410 C   0  0  0  0  0  0  0  0  0  0  0  0
   48.0180   34.3320   39.6480 C   0  0  0  0  0  0  0  0  0  0  0  0
   48.3280   33.4690   38.5840 C   0  0  0  0  0  0  0  0  0  0  0  0
   49.0830   32.3950   38.9150 N   0  0  0  0  0  0  0  0  0  0  0  0
   49.4960   32.1850   40.1720 C   0  0  0  0  0  0  0  0  0  0  0  0
   49.1810   33.0310   41.1590 N   0  0  0  0  0  0  0  0  0  0  0  0
   50.3110   30.9840   40.5530 C   0  0  2  0  0  0  0  0  0  0  0  0
   51.4580   31.1860   41.4930 C   0  0  0  0  0  0  0  0  0  0  0  0
   51.7040   30.9400   40.0220 C   0  0  2  0  0  0  0  0  0  0  0  0
   52.4980   31.7110   37.7910 C   0  0  0  0  0  0  0  0  0  0  0  0
   52.5940   30.5500   37.3050 O   0  0  0  0  0  0  0  0  0  0  0  0
   52.0680   31.9600   39.1080 N   0  0  0  0  0  0  0  0  0  0  0  0
   48.1020   35.0090   42.0160 C   0  0  0  0  0  0  0  0  0  0  0  0
   46.6390   34.9230   42.3140 C   0  0  0  0  0  0  0  0  0  0  0  0
   44.6570   36.4190   43.9680 Cl  0  0  0  0  0  0  0  0  0  0  0  0
   45.4540   34.9690   44.5250 C   0  0  0  0  0  0  0  0  0  0  0  0
   46.3470   34.3720   43.6660 C   0  0  0  0  0  0  0  0  0  0  0  0
   46.9840   33.2140   44.1030 C   0  0  0  0  0  0  0  0  0  0  0  0
   46.7280   32.6860   45.3550 C   0  0  0  0  0  0  0  0  0  0  0  0
   45.8090   33.3190   46.2100 C   0  0  0  0  0  0  0  0  0  0  0  0
   45.1830   34.4660   45.7670 C   0  0  0  0  0  0  0  0  0  0  0  0
   44.2590   35.1570   46.5540 O   0  0  0  0  0  0  0  0  0  0  0  0
   47.4075   35.2229   39.4389 H   0  0  0  0  0  0  0  0  0  0  0  0
   47.9823   33.6525   37.5560 H   0  0  0  0  0  0  0  0  0  0  0  0
   49.4449   30.3061   40.5394 H   0  0  0  0  0  0  0  0  0  0  0  0
   51.6483   32.1794   41.9255 H   0  0  0  0  0  0  0  0  0  0  0  0
   51.7920   30.7165   42.4300 H   0  0  0  0  0  0  0  0  0  0  0  0
   52.3564   30.2316   39.4905 H   0  0  0  0  0  0  0  0  0  0  0  0
   52.7629   32.5687   37.1553 H   0  0  0  0  0  0  0  0  0  0  0  0
   52.0149   32.9385   39.4252 H   0  0  0  0  0  0  0  0  0  0  0  0
   48.6730   34.7308   42.9141 H   0  0  0  0  0  0  0  0  0  0  0  0
   48.3485   36.0391   41.7192 H   0  0  0  0  0  0  0  0  0  0  0  0
   46.2088   35.9332   42.2478 H   0  0  0  0  0  0  0  0  0  0  0  0
   46.1955   34.2359   41.5783 H   0  0  0  0  0  0  0  0  0  0  0  0
   47.7035   32.7102   43.4408 H   0  0  0  0  0  0  0  0  0  0  0  0
   47.2433   31.7708   45.6820 H   0  0  0  0  0  0  0  0  0  0  0  0
   45.5942   32.9097   47.2082 H   0  0  0  0  0  0  0  0  0  0  0  0
   44.0347   34.8260   47.4597 H   0  0  0  0  0  0  0  0  0  0  0  0
  1  6  1  0
  1 13  1  0
  2  1  2  0
  3  4  2  0
  3  2  1  0
  4  5  1  0
  5  7  1  0
  5  6  2  0
  7  8  1  0
  9  7  1  0
  9  8  1  0
 10 12  1  0
 11 10  2  0
 12  9  1  0
 13 14  1  0
 14 17  1  0
 15 16  1  0
 16 21  2  0
 17 18  2  0
 17 16  1  0
 18 19  1  0
 19 20  2  0
 21 20  1  0
 21 22  1  0
  2 23  1  0
  3 24  1  0
  7 25  1  1
  8 26  1  0
  8 27  1  0
  9 28  1  1
 10 29  1  0
 12 30  1  0
 13 31  1  0
 13 32  1  0
 14 33  1  0
 14 34  1  0
 18 35  1  0
 19 36  1  0
 20 37  1  0
 22 38  1  0
M  ISO  8  23  14  24  14  25  13  26  13  27  13  28  13  29   6  31   8
M  ISO  7  32   8  33   8  34   8  35  14  36  14  37  14  38   3
M  END
>  <minimizedAffinity>  (1) 
-5.94831753

>  <minimizedRMSD>  (1) 
0.797352791

$$$$
