
     RDKit          3D

 30 31  0  0  1  0  0  0  0  0999 V2000
   46.2020   35.0100   42.1640 C   0  0  2  0  0  0  0  0  0  0  0  0
   45.5980   34.0220   41.2450 C   0  0  2  0  0  0  0  0  0  0  0  0
   46.5860   33.1230   40.5920 C   0  0  0  0  0  0  0  0  0  0  0  0
   47.7180   33.8530   39.9080 C   0  0  0  0  0  0  0  0  0  0  0  0
   48.2260   35.0410   40.6790 C   0  0  0  0  0  0  0  0  0  0  0  0
   47.7250   35.0490   42.1020 C   0  0  0  0  0  0  0  0  0  0  0  0
   45.8360   34.7550   43.5720 C   0  0  0  0  0  0  0  0  0  0  0  0
   46.5240   33.6790   44.2070 C   0  0  0  0  0  0  0  0  0  0  0  0
   46.2390   33.3780   45.5380 C   0  0  0  0  0  0  0  0  0  0  0  0
   45.2930   34.1520   46.1630 N   0  0  0  0  0  0  0  0  0  0  0  0
   44.6540   35.1720   45.5350 C   0  0  0  0  0  0  0  0  0  0  0  0
   44.9320   35.4600   44.2500 N   0  0  0  0  0  0  0  0  0  0  0  0
   43.3050   34.8320   40.3310 C   0  0  0  0  0  0  0  0  0  0  0  0
   42.8780   34.3970   41.4390 O   0  0  0  0  0  0  0  0  0  0  0  0
   44.7230   34.6280   40.2470 N   0  0  0  0  0  0  0  0  0  0  0  0
   45.7974   35.9734   41.8202 H   0  0  0  0  0  0  0  0  0  0  0  0
   44.9779   33.3945   41.9020 H   0  0  0  0  0  0  0  0  0  0  0  0
   47.0139   32.4622   41.3602 H   0  0  0  0  0  0  0  0  0  0  0  0
   46.0457   32.5676   39.8112 H   0  0  0  0  0  0  0  0  0  0  0  0
   48.5509   33.1483   39.7677 H   0  0  0  0  0  0  0  0  0  0  0  0
   47.3245   34.2338   38.9540 H   0  0  0  0  0  0  0  0  0  0  0  0
   49.3256   35.0131   40.6900 H   0  0  0  0  0  0  0  0  0  0  0  0
   47.8553   35.9506   40.1837 H   0  0  0  0  0  0  0  0  0  0  0  0
   48.1257   34.1687   42.6260 H   0  0  0  0  0  0  0  0  0  0  0  0
   48.0639   35.9802   42.5796 H   0  0  0  0  0  0  0  0  0  0  0  0
   47.2716   33.0929   43.6524 H   0  0  0  0  0  0  0  0  0  0  0  0
   46.7491   32.5574   46.0637 H   0  0  0  0  0  0  0  0  0  0  0  0
   43.9051   35.7662   46.0792 H   0  0  0  0  0  0  0  0  0  0  0  0
   42.6841   35.2960   39.5505 H   0  0  0  0  0  0  0  0  0  0  0  0
   45.1769   34.9472   39.3793 H   0  0  0  0  0  0  0  0  0  0  0  0
  1  7  1  0
  2  1  1  0
  3  2  1  0
  4  3  1  0
  4  5  1  0
  5  6  1  0
  6  1  1  0
  7  8  2  0
  7 12  1  0
  8  9  1  0
  9 10  2  0
 11 10  1  0
 12 11  2  0
 13 14  2  0
 15 13  1  0
 15  2  1  0
  1 16  1  6
  2 17  1  1
  3 18  1  0
  3 19  1  0
  4 20  1  0
  4 21  1  0
  5 22  1  0
  5 23  1  0
  6 24  1  0
  6 25  1  0
  8 26  1  0
  9 27  1  0
 11 28  1  0
 13 29  1  0
 15 30  1  0
M  ISO  8  16  13  17  13  18  13  19  13  20  13  21  13  22  13  23  13
M  ISO  6  24  13  25  13  26  14  27  14  28  14  29   6
M  END
>  <minimizedAffinity>  (1) 
-4.99202347

>  <minimizedRMSD>  (1) 
4.32083225

$$$$
