
     RDKit          3D

 40 41  0  0  0  0  0  0  0  0999 V2000
   46.5732   34.9089   43.2485 O   0  0  0  0  0  0  0  0  0  0  0  0
   46.8016   33.9774   42.2277 C   0  0  1  0  0  0  0  0  0  0  0  0
   46.0751   34.4154   40.9540 C   0  0  0  0  0  0  0  0  0  0  0  0
   46.6860   33.4795   39.9456 C   0  0  0  0  0  0  0  0  0  0  0  0
   48.0720   33.1390   40.4745 C   0  0  0  0  0  0  0  0  0  0  0  0
   48.2176   33.9609   41.7448 C   0  0  1  0  0  0  0  0  0  0  0  0
   48.7613   35.3316   41.4625 C   0  0  0  0  0  0  0  0  0  0  0  0
   49.6576   35.7545   42.4204 O   0  0  0  0  0  0  0  0  0  0  0  0
   44.7233   35.3465   44.9918 O   0  0  0  0  0  0  0  0  0  0  0  0
   45.5790   34.2375   44.4117 P   0  0  1  0  0  0  0  0  0  0  0  0
   44.6046   33.0396   43.7156 O   0  0  0  0  0  0  0  0  0  0  0  0
   46.4752   33.4970   45.6068 O   0  0  0  0  0  0  0  0  0  0  0  0
   46.2412   32.1551   45.5704 C   0  0  0  0  0  0  0  0  0  0  0  0
   45.6490   31.9091   49.2403 C   0  0  0  0  0  0  0  0  0  0  0  0
   45.9882   32.4527   47.9904 C   0  0  0  0  0  0  0  0  0  0  0  0
   45.8886   31.6072   46.8942 C   0  0  0  0  0  0  0  0  0  0  0  0
   45.4736   30.3095   47.0737 N   0  0  0  0  0  0  0  0  0  0  0  0
   45.1543   29.8140   48.2859 C   0  0  0  0  0  0  0  0  0  0  0  0
   45.2426   30.6107   49.3581 N   0  0  0  0  0  0  0  0  0  0  0  0
   46.4422   32.9761   42.4520 H   0  0  0  0  0  0  0  0  0  0  0  0
   44.9623   34.2495   41.0527 H   0  0  0  0  0  0  0  0  0  0  0  0
   46.1938   35.4667   40.7126 H   0  0  0  0  0  0  0  0  0  0  0  0
   46.0309   32.5995   39.8639 H   0  0  0  0  0  0  0  0  0  0  0  0
   46.7553   34.0142   38.9687 H   0  0  0  0  0  0  0  0  0  0  0  0
   48.0378   32.0736   40.7816 H   0  0  0  0  0  0  0  0  0  0  0  0
   48.8601   33.3662   39.7363 H   0  0  0  0  0  0  0  0  0  0  0  0
   48.8165   33.3875   42.4827 H   0  0  0  0  0  0  0  0  0  0  0  0
   49.3220   35.2754   40.4873 H   0  0  0  0  0  0  0  0  0  0  0  0
   48.0083   36.1265   41.3700 H   0  0  0  0  0  0  0  0  0  0  0  0
   50.1610   36.5292   42.1039 H   0  0  0  0  0  0  0  0  0  0  0  0
   43.8814   33.4174   43.1490 H   0  0  0  0  0  0  0  0  0  0  0  0
   47.2201   31.6713   45.2862 H   0  0  0  0  0  0  0  0  0  0  0  0
   45.5204   31.7797   44.8494 H   0  0  0  0  0  0  0  0  0  0  0  0
   45.6968   32.4945   50.1493 H   0  0  0  0  0  0  0  0  0  0  0  0
   46.3030   33.4662   47.9159 H   0  0  0  0  0  0  0  0  0  0  0  0
   44.4635   26.9965   50.1432 H   0  0  0  0  0  0  0  0  0  0  0  0
   44.7455   27.9845   49.7896 C   0  0  0  0  0  0  0  0  0  0  0  0
   45.1182   28.7134   50.7589 O   0  0  0  0  0  0  0  0  0  0  0  0
   44.7267   28.4661   48.4481 N   0  0  0  0  0  0  0  0  0  0  0  0
   44.3961   27.7664   47.7201 H   0  0  0  0  0  0  0  0  0  0  0  0
 10  1  1  6
  2  1  1  0
  3  2  1  0
  4  5  1  0
  4  3  1  0
  5  6  1  0
  6  2  1  0
  7  6  1  0
  7  8  1  0
 10  9  2  0
 10 12  1  0
 11 10  1  0
 13 12  1  0
 13 16  1  0
 14 19  2  0
 15 14  1  0
 16 17  1  0
 16 15  2  0
 17 18  2  0
 18 19  1  0
  2 20  1  1
  3 21  1  0
  3 22  1  0
  4 23  1  0
  4 24  1  0
  5 25  1  0
  5 26  1  0
  6 27  1  1
  7 28  1  0
  7 29  1  0
  8 30  1  0
 11 31  1  0
 13 32  1  0
 13 33  1  0
 14 34  1  0
 15 35  1  0
 36 37  1  0
 37 38  2  0
 37 39  1  0
 39 40  1  0
 18 39  1  0
M  ISO  8  20  13  21  13  22  13  23  13  24  13  25  13  26  13  27  13
M  ISO  8  28   8  29   8  30   3  31   3  32   8  33   8  34  14  35  14
M  ISO  1  36   1
M  END
>  <DihAtoms>  (1) 
16,17,38,36

>  <DihDeg>  (1) 
90.00058797404374

$$$$
