
     RDKit          3D

 26 27  0  0  0  0  0  0  0  0999 V2000
   46.6250   34.7610   42.1090 C   0  0  0  0  0  0  0  0  0  0  0  0
   47.8630   35.3640   41.9650 C   0  0  0  0  0  0  0  0  0  0  0  0
   48.6290   35.2000   40.8050 C   0  0  0  0  0  0  0  0  0  0  0  0
   48.1620   34.4250   39.7680 C   0  0  0  0  0  0  0  0  0  0  0  0
   46.9370   33.8380   39.9300 C   0  0  0  0  0  0  0  0  0  0  0  0
   46.1770   33.9940   41.0690 C   0  0  0  0  0  0  0  0  0  0  0  0
   44.4270   36.1920   44.7950 C   0  0  0  0  0  0  0  0  0  0  0  0
   45.0780   36.0870   43.5540 C   0  0  0  0  0  0  0  0  0  0  0  0
   45.9060   34.9820   43.3310 C   0  0  0  0  0  0  0  0  0  0  0  0
   46.0350   34.0720   44.3180 N   0  0  0  0  0  0  0  0  0  0  0  0
   45.3900   34.2060   45.5060 C   0  0  0  0  0  0  0  0  0  0  0  0
   44.5850   35.2770   45.7310 N   0  0  0  0  0  0  0  0  0  0  0  0
   45.5380   33.2360   46.5390 N   0  0  0  0  0  0  0  0  0  0  0  0
   43.7320   33.9920   40.7190 C   0  0  0  0  0  0  0  0  0  0  0  0
   43.2260   35.0170   40.1690 O   0  0  0  0  0  0  0  0  0  0  0  0
   44.9150   33.3620   41.1810 N   0  0  0  0  0  0  0  0  0  0  0  0
   48.2543   35.9874   42.7825 H   0  0  0  0  0  0  0  0  0  0  0  0
   49.6089   35.6929   40.7218 H   0  0  0  0  0  0  0  0  0  0  0  0
   48.7486   34.2836   38.8483 H   0  0  0  0  0  0  0  0  0  0  0  0
   46.5412   33.2140   39.1152 H   0  0  0  0  0  0  0  0  0  0  0  0
   43.7727   37.0546   44.9893 H   0  0  0  0  0  0  0  0  0  0  0  0
   44.9399   36.8542   42.7779 H   0  0  0  0  0  0  0  0  0  0  0  0
   45.0404   33.3556   47.4329 H   0  0  0  0  0  0  0  0  0  0  0  0
   46.1426   32.4152   46.3919 H   0  0  0  0  0  0  0  0  0  0  0  0
   42.9024   33.2994   40.9241 H   0  0  0  0  0  0  0  0  0  0  0  0
   44.8552   32.4259   41.6066 H   0  0  0  0  0  0  0  0  0  0  0  0
  1  9  1  0
  2  1  2  0
  3  2  1  0
  4  5  1  0
  4  3  2  0
  5  6  2  0
  6 16  1  0
  6  1  1  0
  7 12  2  0
  8  7  1  0
  9  8  2  0
  9 10  1  0
 10 11  2  0
 11 12  1  0
 11 13  1  0
 14 16  1  0
 15 14  2  0
  2 17  1  0
  3 18  1  0
  4 19  1  0
  5 20  1  0
  7 21  1  0
  8 22  1  0
 13 23  1  0
 13 24  1  0
 14 25  1  0
 16 26  1  0
M  ISO  7  17  14  18  14  19  14  20  14  21  14  22  14  25   6
M  END
>  <minimizedAffinity>  (1) 
-5.71167088

>  <minimizedRMSD>  (1) 
0.161730632

$$$$
