
     RDKit          3D

 38 40  0  0  1  0  0  0  0  0999 V2000
   46.7720   34.5950   42.2260 N   0  0  0  0  0  0  0  0  0  0  0  0
   48.2200   34.6100   42.2550 C   0  0  0  0  0  0  0  0  0  0  0  0
   48.6270   35.3370   40.9790 C   0  0  0  0  0  0  0  0  0  0  0  0
   48.1980   34.5530   39.7650 C   0  0  0  0  0  0  0  0  0  0  0  0
   46.8650   33.9160   39.8780 C   0  0  0  0  0  0  0  0  0  0  0  0
   46.0210   34.3560   41.0250 C   0  0  1  0  0  0  0  0  0  0  0  0
   44.4890   36.0860   44.7950 C   0  0  0  0  0  0  0  0  0  0  0  0
   45.1880   35.9570   43.5790 C   0  0  0  0  0  0  0  0  0  0  0  0
   46.0170   34.8260   43.4230 C   0  0  0  0  0  0  0  0  0  0  0  0
   46.0920   33.9320   44.4550 N   0  0  0  0  0  0  0  0  0  0  0  0
   45.3940   34.1130   45.6010 C   0  0  0  0  0  0  0  0  0  0  0  0
   44.5890   35.1990   45.7660 N   0  0  0  0  0  0  0  0  0  0  0  0
   45.0590   33.3620   41.2650 O   0  0  0  0  0  0  0  0  0  0  0  0
   43.7390   34.8030   40.1260 N   0  0  0  0  0  0  0  0  0  0  0  0
   42.9730   34.2120   39.0720 C   0  0  0  0  0  0  0  0  0  0  0  0
   41.8900   33.4600   39.8150 C   0  0  0  0  0  0  0  0  0  0  0  0
   42.7190   32.8150   40.9240 C   0  0  0  0  0  0  0  0  0  0  0  0
   43.7690   33.8690   41.2450 C   0  0  1  0  0  0  0  0  0  0  0  0
   48.5843   35.1497   43.1416 H   0  0  0  0  0  0  0  0  0  0  0  0
   48.6449   33.5968   42.3094 H   0  0  0  0  0  0  0  0  0  0  0  0
   48.1484   36.3272   40.9582 H   0  0  0  0  0  0  0  0  0  0  0  0
   49.7216   35.4445   40.9645 H   0  0  0  0  0  0  0  0  0  0  0  0
   48.9417   33.7621   39.5876 H   0  0  0  0  0  0  0  0  0  0  0  0
   48.1280   35.2749   38.9380 H   0  0  0  0  0  0  0  0  0  0  0  0
   46.3111   34.1301   38.9521 H   0  0  0  0  0  0  0  0  0  0  0  0
   47.0627   32.8477   40.0505 H   0  0  0  0  0  0  0  0  0  0  0  0
   45.5578   35.3158   40.7526 H   0  0  0  0  0  0  0  0  0  0  0  0
   43.8355   36.9588   44.9402 H   0  0  0  0  0  0  0  0  0  0  0  0
   45.0913   36.7088   42.7819 H   0  0  0  0  0  0  0  0  0  0  0  0
   45.4783   33.3725   46.4101 H   0  0  0  0  0  0  0  0  0  0  0  0
   43.3016   35.6874   40.4215 H   0  0  0  0  0  0  0  0  0  0  0  0
   43.5896   33.5263   38.4723 H   0  0  0  0  0  0  0  0  0  0  0  0
   42.5760   34.9502   38.3596 H   0  0  0  0  0  0  0  0  0  0  0  0
   41.1267   34.1404   40.2205 H   0  0  0  0  0  0  0  0  0  0  0  0
   41.3144   32.7531   39.1994 H   0  0  0  0  0  0  0  0  0  0  0  0
   42.0965   32.5997   41.8050 H   0  0  0  0  0  0  0  0  0  0  0  0
   43.1578   31.8518   40.6245 H   0  0  0  0  0  0  0  0  0  0  0  0
   43.5434   34.2970   42.2329 H   0  0  0  0  0  0  0  0  0  0  0  0
  1  2  1  0
  1  9  1  0
  3  2  1  0
  4  5  1  0
  4  3  1  0
  5  6  1  0
  6 13  1  0
  6  1  1  0
  7 12  2  0
  8  7  1  0
  9  8  2  0
  9 10  1  0
 10 11  2  0
 11 12  1  0
 14 18  1  0
 15 16  1  0
 15 14  1  0
 16 17  1  0
 17 18  1  0
 18 13  1  0
  2 19  1  0
  2 20  1  0
  3 21  1  0
  3 22  1  0
  4 23  1  0
  4 24  1  0
  5 25  1  0
  5 26  1  0
  6 27  1  6
  7 28  1  0
  8 29  1  0
 11 30  1  0
 14 31  1  0
 15 32  1  0
 15 33  1  0
 16 34  1  0
 16 35  1  0
 17 36  1  0
 17 37  1  0
 18 38  1  1
M  ISO  8  19  13  20  13  21  13  22  13  23  13  24  13  25  13  26  13
M  ISO  8  27  13  28  14  29  14  30  14  31   5  32  13  33  13  34  13
M  ISO  4  35  13  36  13  37  13  38  13
M  END
>  <minimizedAffinity>  (1) 
-5.43780613

>  <minimizedRMSD>  (1) 
0.680920303

$$$$
