
     RDKit          3D

 31 33  0  0  0  0  0  0  0  0999 V2000
   45.8160   32.7548   45.8610 C   0  0  1  0  0  0  0  0  0  0  0  0
   46.8708   32.8048   46.9281 C   0  0  0  0  0  0  0  0  0  0  0  0
   45.3754   32.7955   47.2605 C   0  0  2  0  0  0  0  0  0  0  0  0
   44.6137   36.0220   44.5695 C   0  0  0  0  0  0  0  0  0  0  0  0
   45.2862   36.0807   43.2991 C   0  0  0  0  0  0  0  0  0  0  0  0
   46.1397   34.9930   42.9343 C   0  0  0  0  0  0  0  0  0  0  0  0
   46.2792   33.9694   43.7819 N   0  0  0  0  0  0  0  0  0  0  0  0
   45.6267   33.9432   44.9820 C   0  0  0  0  0  0  0  0  0  0  0  0
   44.8056   34.9638   45.3616 N   0  0  0  0  0  0  0  0  0  0  0  0
   44.8625   31.6918   47.9649 N   0  0  0  0  0  0  0  0  0  0  0  0
   45.6969   31.8107   45.2923 H   0  0  0  0  0  0  0  0  0  0  0  0
   47.3928   33.7819   46.9820 H   0  0  0  0  0  0  0  0  0  0  0  0
   47.4617   31.8985   47.0219 H   0  0  0  0  0  0  0  0  0  0  0  0
   44.9781   33.7884   47.5709 H   0  0  0  0  0  0  0  0  0  0  0  0
   43.9757   36.8572   44.8178 H   0  0  0  0  0  0  0  0  0  0  0  0
   45.1699   36.9100   42.6177 H   0  0  0  0  0  0  0  0  0  0  0  0
   46.6236   35.0803   41.9727 H   0  0  0  0  0  0  0  0  0  0  0  0
   45.1960   30.7681   47.7098 H   0  0  0  0  0  0  0  0  0  0  0  0
   43.0091   30.3446   49.1114 H   0  0  0  0  0  0  0  0  0  0  0  0
   43.5011   30.9035   49.8112 N   0  0  0  0  0  0  0  0  0  0  0  0
   44.0824   30.2143   50.9154 C   0  0  0  0  0  0  0  0  0  0  0  0
   44.9280   31.3201   51.5571 C   0  0  0  0  0  0  0  0  0  0  0  0
   45.5538   31.9439   50.3243 C   0  0  0  0  0  0  0  0  0  0  0  0
   44.4695   31.8454   49.3076 C   0  0  1  0  0  0  0  0  0  0  0  0
   43.3167   29.8499   51.6314 H   0  0  0  0  0  0  0  0  0  0  0  0
   44.7557   29.4064   50.6115 H   0  0  0  0  0  0  0  0  0  0  0  0
   44.2500   32.0159   52.0521 H   0  0  0  0  0  0  0  0  0  0  0  0
   45.6768   30.8840   52.2499 H   0  0  0  0  0  0  0  0  0  0  0  0
   45.8044   33.0020   50.6187 H   0  0  0  0  0  0  0  0  0  0  0  0
   46.4627   31.3683   50.1032 H   0  0  0  0  0  0  0  0  0  0  0  0
   43.9355   32.8382   49.3624 H   0  0  0  0  0  0  0  0  0  0  0  0
  1  2  1  0
  1  3  1  0
  2  3  1  0
  3 10  1  0
  4  9  2  0
  5  4  1  0
  6  5  2  0
  6  7  1  0
  7  8  2  0
  8  9  1  0
  8  1  1  0
  1 11  1  6
  2 12  1  0
  2 13  1  0
  3 14  1  6
  4 15  1  0
  5 16  1  0
  6 17  1  0
 10 18  1  0
 19 20  1  0
 20 21  1  0
 21 22  1  0
 22 23  1  0
 23 24  1  0
 24 20  1  0
 21 25  1  0
 21 26  1  0
 22 27  1  0
 22 28  1  0
 23 29  1  0
 23 30  1  0
 24 31  1  6
 10 24  1  0
M  ISO  8  11  13  12  13  13  13  14  13  15  14  16  14  17  14  18   5
M  ISO  1  19   5
M  END
>  <DihAtoms>  (1) 
2,9,23,22

>  <DihDeg>  (1) 
59.99806114528868

$$$$
