
     RDKit          3D

 32 34  0  0  0  0  0  0  0  0999 V2000
   46.0736   34.1453   40.9985 C   0  0  0  0  0  0  0  0  0  0  0  0
   46.6127   34.8372   42.1027 C   0  0  0  0  0  0  0  0  0  0  0  0
   47.9314   35.2862   41.9899 C   0  0  0  0  0  0  0  0  0  0  0  0
   48.6077   35.0277   40.8258 N   0  0  0  0  0  0  0  0  0  0  0  0
   48.0538   34.3693   39.8103 C   0  0  0  0  0  0  0  0  0  0  0  0
   46.7839   33.9257   39.8935 N   0  0  0  0  0  0  0  0  0  0  0  0
   45.8046   35.0561   43.2897 C   0  0  0  0  0  0  0  0  0  0  0  0
   45.0445   36.1831   43.4929 C   0  0  0  0  0  0  0  0  0  0  0  0
   44.4643   35.9572   44.7258 C   0  0  0  0  0  0  0  0  0  0  0  0
   44.8504   34.7634   45.2392 N   0  0  0  0  0  0  0  0  0  0  0  0
   45.6596   34.2413   44.3504 N   0  0  0  0  0  0  0  0  0  0  0  0
   44.7773   33.6993   41.0989 O   0  0  0  0  0  0  0  0  0  0  0  0
   43.6967   34.2027   40.4220 C   0  0  0  0  0  0  0  0  0  0  0  0
   43.2495   35.3946   40.4234 O   0  0  0  0  0  0  0  0  0  0  0  0
   48.3745   35.8221   42.8232 H   0  0  0  0  0  0  0  0  0  0  0  0
   48.5819   34.1614   38.8876 H   0  0  0  0  0  0  0  0  0  0  0  0
   44.9053   37.0626   42.8622 H   0  0  0  0  0  0  0  0  0  0  0  0
   43.7774   36.6450   45.2373 H   0  0  0  0  0  0  0  0  0  0  0  0
   44.5291   34.3922   46.1662 H   0  0  0  0  0  0  0  0  0  0  0  0
   42.7236   33.6599   39.5275 N   0  0  0  0  0  0  0  0  0  0  0  0
   41.7097   34.5621   39.0162 C   0  0  0  0  0  0  0  0  0  0  0  0
   40.5645   33.5743   38.7839 C   0  0  0  0  0  0  0  0  0  0  0  0
   41.3717   32.4832   38.0666 C   0  0  0  0  0  0  0  0  0  0  0  0
   42.5435   32.3386   39.0124 C   0  0  1  0  0  0  0  0  0  0  0  0
   43.4582   31.9393   38.5222 H   0  0  0  0  0  0  0  0  0  0  0  0
   42.0341   34.9042   38.0142 H   0  0  0  0  0  0  0  0  0  0  0  0
   41.4267   35.3668   39.6913 H   0  0  0  0  0  0  0  0  0  0  0  0
   39.7913   33.9910   38.1427 H   0  0  0  0  0  0  0  0  0  0  0  0
   40.2410   33.1949   39.7637 H   0  0  0  0  0  0  0  0  0  0  0  0
   41.7149   32.9590   37.1037 H   0  0  0  0  0  0  0  0  0  0  0  0
   40.7959   31.5735   37.9047 H   0  0  0  0  0  0  0  0  0  0  0  0
   42.1750   31.6389   39.8188 H   0  0  0  0  0  0  0  0  0  0  0  0
  1 12  1  0
  1  2  1  0
  2  7  1  0
  3  2  2  0
  4  3  1  0
  5  6  1  0
  5  4  2  0
  6  1  2  0
  7  8  1  0
  7 11  2  0
  8  9  2  0
  9 10  1  0
 11 10  1  0
 13 14  2  0
 13 12  1  0
  3 15  1  0
  5 16  1  0
  8 17  1  0
  9 18  1  0
 10 19  1  0
 20 21  1  0
 21 22  1  0
 22 23  1  0
 23 24  1  0
 24 25  1  6
 24 20  1  0
 21 26  1  0
 21 27  1  0
 22 28  1  0
 22 29  1  0
 23 30  1  0
 23 31  1  0
 24 32  1  0
 13 20  1  0
M  ISO  6  15  14  16  14  17  14  18  14  19   9  25  13
M  END
>  <DihAtoms>  (1) 
13,12,19,20

>  <DihDeg>  (1) 
-0.01920562862853034

$$$$
