
     RDKit          3D

 49 52  0  0  0  0  0  0  0  0999 V2000
   46.4764   32.5134   46.6934 C   0  0  2  0  0  0  0  0  0  0  0  0
   46.2698   31.0971   46.1880 C   0  0  0  0  0  0  0  0  0  0  0  0
   46.9413   30.1802   47.1946 C   0  0  0  0  0  0  0  0  0  0  0  0
   46.4909   30.4055   48.6165 C   0  0  0  0  0  0  0  0  0  0  0  0
   46.5344   31.8367   48.9861 C   0  0  0  0  0  0  0  0  0  0  0  0
   45.7457   32.6757   47.9997 C   0  0  2  0  0  0  0  0  0  0  0  0
   46.0609   33.5271   45.7144 C   0  0  0  0  0  0  0  0  0  0  0  0
   45.0141   34.4073   46.0572 C   0  0  0  0  0  0  0  0  0  0  0  0
   44.6148   35.3628   45.0988 C   0  0  0  0  0  0  0  0  0  0  0  0
   45.2770   35.3736   43.8837 N   0  0  0  0  0  0  0  0  0  0  0  0
   46.2780   34.4878   43.6322 C   0  0  0  0  0  0  0  0  0  0  0  0
   46.6636   33.5817   44.5301 N   0  0  0  0  0  0  0  0  0  0  0  0
   46.9264   34.5477   42.3181 C   0  0  0  0  0  0  0  0  0  0  0  0
   48.0295   35.2794   42.0879 C   0  0  0  0  0  0  0  0  0  0  0  0
   48.6355   35.3341   40.8429 C   0  0  0  0  0  0  0  0  0  0  0  0
   48.0680   34.6056   39.8270 C   0  0  0  0  0  0  0  0  0  0  0  0
   46.9482   33.8579   40.0457 C   0  0  0  0  0  0  0  0  0  0  0  0
   46.3741   33.8241   41.2837 N   0  0  0  0  0  0  0  0  0  0  0  0
   44.3984   32.2952   47.8910 N   0  0  0  0  0  0  0  0  0  0  0  0
   47.5569   32.6012   46.8707 H   0  0  0  0  0  0  0  0  0  0  0  0
   46.8467   30.9944   45.2460 H   0  0  0  0  0  0  0  0  0  0  0  0
   45.2395   30.8435   45.9562 H   0  0  0  0  0  0  0  0  0  0  0  0
   48.0336   30.4630   47.1763 H   0  0  0  0  0  0  0  0  0  0  0  0
   46.7697   29.1409   46.8971 H   0  0  0  0  0  0  0  0  0  0  0  0
   45.5506   29.8750   48.7472 H   0  0  0  0  0  0  0  0  0  0  0  0
   47.2713   29.8928   49.2475 H   0  0  0  0  0  0  0  0  0  0  0  0
   47.6141   32.1625   48.8034 H   0  0  0  0  0  0  0  0  0  0  0  0
   46.3679   32.0361   50.0291 H   0  0  0  0  0  0  0  0  0  0  0  0
   45.8925   33.7118   48.3725 H   0  0  0  0  0  0  0  0  0  0  0  0
   44.4808   34.4519   46.9542 H   0  0  0  0  0  0  0  0  0  0  0  0
   43.8237   36.0669   45.2902 H   0  0  0  0  0  0  0  0  0  0  0  0
   48.4840   35.8569   42.8820 H   0  0  0  0  0  0  0  0  0  0  0  0
   49.5086   35.8978   40.6106 H   0  0  0  0  0  0  0  0  0  0  0  0
   48.4064   34.5336   38.8011 H   0  0  0  0  0  0  0  0  0  0  0  0
   46.3742   33.2267   39.3587 H   0  0  0  0  0  0  0  0  0  0  0  0
   44.3404   31.2600   47.7292 H   0  0  0  0  0  0  0  0  0  0  0  0
   42.7459   34.0749   47.7082 H   0  0  0  0  0  0  0  0  0  0  0  0
   43.0721   34.0286   48.7153 N   0  0  0  0  0  0  0  0  0  0  0  0
   41.9420   34.2160   49.5876 C   0  0  0  0  0  0  0  0  0  0  0  0
   41.2208   32.9061   49.6670 C   0  0  0  0  0  0  0  0  0  0  0  0
   42.1590   31.9464   48.9369 C   0  0  0  0  0  0  0  0  0  0  0  0
   43.4936   32.6201   48.9204 C   0  0  1  0  0  0  0  0  0  0  0  0
   42.3383   34.5262   50.5774 H   0  0  0  0  0  0  0  0  0  0  0  0
   41.2827   34.9960   49.1695 H   0  0  0  0  0  0  0  0  0  0  0  0
   40.2207   32.9196   49.1914 H   0  0  0  0  0  0  0  0  0  0  0  0
   41.1203   32.5917   50.7235 H   0  0  0  0  0  0  0  0  0  0  0  0
   41.7962   31.7334   47.9358 H   0  0  0  0  0  0  0  0  0  0  0  0
   42.1455   31.0144   49.5417 H   0  0  0  0  0  0  0  0  0  0  0  0
   43.9494   32.5556   49.9480 H   0  0  0  0  0  0  0  0  0  0  0  0
  1  6  1  0
  2  1  1  0
  2  3  1  0
  3  4  1  0
  4  5  1  0
  6  5  1  0
  7  8  2  0
  7  1  1  0
  9  8  1  0
 10  9  2  0
 11 10  1  0
 11 12  2  0
 12  7  1  0
 13 11  1  0
 14 13  2  0
 15 14  1  0
 16 17  1  0
 16 15  2  0
 17 18  2  0
 18 13  1  0
 19  6  1  0
  1 20  1  1
  2 21  1  0
  2 22  1  0
  3 23  1  0
  3 24  1  0
  4 25  1  0
  4 26  1  0
  5 27  1  0
  5 28  1  0
  6 29  1  1
  8 30  1  0
  9 31  1  0
 14 32  1  0
 15 33  1  0
 16 34  1  0
 17 35  1  0
 19 36  1  0
 37 38  1  0
 38 39  1  0
 39 40  1  0
 40 41  1  0
 41 42  1  0
 42 38  1  0
 39 43  1  0
 39 44  1  0
 40 45  1  0
 40 46  1  0
 41 47  1  0
 41 48  1  0
 42 49  1  1
 19 42  1  0
M  ISO  8  20  13  21  13  22  13  23  13  24  13  25  13  26  13  27  13
M  ISO  8  28  13  29  13  30  14  31  14  32  14  33  14  34  14  35  14
M  ISO  2  36   5  37   5
M  END
>  <DihAtoms>  (1) 
5,18,41,40

>  <DihDeg>  (1) 
-61.19493890989089

$$$$
