
     RDKit          3D

 40 42  0  0  0  0  0  0  0  0999 V2000
   44.7633   35.4981   45.3453 C   0  0  0  0  0  0  0  0  0  0  0  0
   45.4260   35.6203   44.1211 C   0  0  0  0  0  0  0  0  0  0  0  0
   46.2125   34.5957   43.7007 C   0  0  0  0  0  0  0  0  0  0  0  0
   46.3125   33.4799   44.5077 N   0  0  0  0  0  0  0  0  0  0  0  0
   45.6591   33.3861   45.6853 C   0  0  0  0  0  0  0  0  0  0  0  0
   44.8784   34.3992   46.1120 N   0  0  0  0  0  0  0  0  0  0  0  0
   46.9433   34.7121   42.4589 C   0  0  0  0  0  0  0  0  0  0  0  0
   48.1269   35.4105   42.2389 C   0  0  0  0  0  0  0  0  0  0  0  0
   48.6907   35.4053   40.9831 C   0  0  0  0  0  0  0  0  0  0  0  0
   48.0694   34.7023   39.9532 C   0  0  0  0  0  0  0  0  0  0  0  0
   46.9070   34.0174   40.1713 C   0  0  0  0  0  0  0  0  0  0  0  0
   46.3403   34.0254   41.4427 C   0  0  0  0  0  0  0  0  0  0  0  0
   45.2422   36.8482   43.3301 C   0  0  0  0  0  0  0  0  0  0  0  0
   44.9053   37.9011   44.1899 N   0  0  0  0  0  0  0  0  0  0  0  0
   45.4049   39.1927   43.7025 C   0  0  0  0  0  0  0  0  0  0  0  0
   46.7350   39.3805   43.6170 F   0  0  0  0  0  0  0  0  0  0  0  0
   44.9115   40.2479   44.4691 F   0  0  0  0  0  0  0  0  0  0  0  0
   44.8890   39.2923   42.4353 F   0  0  0  0  0  0  0  0  0  0  0  0
   44.1333   36.2028   45.8506 H   0  0  0  0  0  0  0  0  0  0  0  0
   45.8285   32.4647   46.2047 H   0  0  0  0  0  0  0  0  0  0  0  0
   48.5218   35.9210   43.1105 H   0  0  0  0  0  0  0  0  0  0  0  0
   49.5938   35.9425   40.8296 H   0  0  0  0  0  0  0  0  0  0  0  0
   48.5466   34.7262   38.9872 H   0  0  0  0  0  0  0  0  0  0  0  0
   46.4814   33.4947   39.3246 H   0  0  0  0  0  0  0  0  0  0  0  0
   45.4251   33.4507   41.4932 H   0  0  0  0  0  0  0  0  0  0  0  0
   44.5912   36.7037   42.4471 H   0  0  0  0  0  0  0  0  0  0  0  0
   46.2658   37.0698   42.9054 H   0  0  0  0  0  0  0  0  0  0  0  0
   42.5329   37.9081   42.1466 H   0  0  0  0  0  0  0  0  0  0  0  0
   42.8317   37.3635   42.9828 N   0  0  0  0  0  0  0  0  0  0  0  0
   41.6254   36.7439   43.5221 C   0  0  0  0  0  0  0  0  0  0  0  0
   41.3019   37.4748   44.7806 C   0  0  0  0  0  0  0  0  0  0  0  0
   42.6528   37.9745   45.2538 C   0  0  0  0  0  0  0  0  0  0  0  0
   43.4448   38.0866   44.0298 C   0  0  1  0  0  0  0  0  0  0  0  0
   41.7721   35.6785   43.7469 H   0  0  0  0  0  0  0  0  0  0  0  0
   40.7409   36.8747   42.8432 H   0  0  0  0  0  0  0  0  0  0  0  0
   40.6027   38.3398   44.5897 H   0  0  0  0  0  0  0  0  0  0  0  0
   40.8496   36.8187   45.5495 H   0  0  0  0  0  0  0  0  0  0  0  0
   43.0073   37.2627   46.0161 H   0  0  0  0  0  0  0  0  0  0  0  0
   42.4146   38.9084   45.8031 H   0  0  0  0  0  0  0  0  0  0  0  0
   43.2811   39.1832   43.6941 H   0  0  0  0  0  0  0  0  0  0  0  0
  1  6  2  0
  2  1  1  0
  3  2  2  0
  3  4  1  0
  4  5  2  0
  5  6  1  0
  7  3  1  0
  8  7  2  0
  9  8  1  0
 10 11  1  0
 10  9  2  0
 11 12  2  0
 12  7  1  0
 13  2  1  0
 13 14  1  0
 15 14  1  0
 15 17  1  0
 16 15  1  0
 18 15  1  0
  1 19  1  0
  5 20  1  0
  8 21  1  0
  9 22  1  0
 10 23  1  0
 11 24  1  0
 12 25  1  0
 13 26  1  0
 13 27  1  0
 28 29  1  0
 29 30  1  0
 30 31  1  0
 31 32  1  0
 32 33  1  0
 33 29  1  0
 30 34  1  0
 30 35  1  0
 31 36  1  0
 31 37  1  0
 32 38  1  0
 32 39  1  0
 33 40  1  6
 14 33  1  0
M  ISO  8  19  14  20  14  21  14  22  14  23  14  24  14  25  14  26   8
M  ISO  2  27   8  28   5
M  END
>  <DihAtoms>  (1) 
12,13,32,31

>  <DihDeg>  (1) 
167.8780223028899

$$$$
