
     RDKit          3D

 35 37  0  0  0  0  0  0  0  0999 V2000
   44.9026   35.0399   43.5561 C   0  0  0  0  0  0  0  0  0  0  0  0
   45.2927   34.9146   42.2195 C   0  0  0  0  0  0  0  0  0  0  0  0
   46.3956   34.1321   41.8644 C   0  0  0  0  0  0  0  0  0  0  0  0
   47.0395   33.5202   42.8977 N   0  0  0  0  0  0  0  0  0  0  0  0
   46.6499   33.6530   44.1720 C   0  0  0  0  0  0  0  0  0  0  0  0
   45.5912   34.4061   44.4967 N   0  0  0  0  0  0  0  0  0  0  0  0
   43.7784   35.8448   43.8600 N   0  0  0  0  0  0  0  0  0  0  0  0
   47.9662   34.6333   40.0975 C   0  0  0  0  0  0  0  0  0  0  0  0
   46.8194   33.9872   40.4821 C   0  0  0  0  0  0  0  0  0  0  0  0
   46.1629   33.2563   39.5354 C   0  0  0  0  0  0  0  0  0  0  0  0
   46.6009   33.1427   38.2237 C   0  0  0  0  0  0  0  0  0  0  0  0
   47.7646   33.8103   37.8720 C   0  0  0  0  0  0  0  0  0  0  0  0
   48.4396   34.5507   38.8097 C   0  0  0  0  0  0  0  0  0  0  0  0
   49.3163   36.0862   41.8113 N   0  0  0  0  0  0  0  0  0  0  0  0
   48.7161   35.4245   41.0379 C   0  0  0  0  0  0  0  0  0  0  0  0
   44.7285   35.4333   41.4541 H   0  0  0  0  0  0  0  0  0  0  0  0
   47.2504   33.1130   44.8897 H   0  0  0  0  0  0  0  0  0  0  0  0
   43.1575   35.6006   44.6717 H   0  0  0  0  0  0  0  0  0  0  0  0
   43.4735   36.7062   43.3413 H   0  0  0  0  0  0  0  0  0  0  0  0
   45.2555   32.7492   39.8532 H   0  0  0  0  0  0  0  0  0  0  0  0
   46.0119   32.5426   37.5543 H   0  0  0  0  0  0  0  0  0  0  0  0
   48.1027   33.7171   36.8414 H   0  0  0  0  0  0  0  0  0  0  0  0
   49.6215   35.1992   38.3568 N   0  0  0  0  0  0  0  0  0  0  0  0
   49.7728   36.1804   37.3160 C   0  0  0  0  0  0  0  0  0  0  0  0
   51.1847   36.7223   37.5672 C   0  0  0  0  0  0  0  0  0  0  0  0
   51.8864   35.4211   37.9430 C   0  0  0  0  0  0  0  0  0  0  0  0
   50.8939   34.8916   38.9700 C   0  0  1  0  0  0  0  0  0  0  0  0
   51.0447   35.5545   39.8719 H   0  0  0  0  0  0  0  0  0  0  0  0
   49.8235   35.6788   36.3325 H   0  0  0  0  0  0  0  0  0  0  0  0
   49.0218   36.9931   37.3777 H   0  0  0  0  0  0  0  0  0  0  0  0
   51.6093   37.1846   36.6620 H   0  0  0  0  0  0  0  0  0  0  0  0
   51.1388   37.3769   38.4381 H   0  0  0  0  0  0  0  0  0  0  0  0
   52.8950   35.5803   38.3473 H   0  0  0  0  0  0  0  0  0  0  0  0
   51.8435   34.7997   37.0248 H   0  0  0  0  0  0  0  0  0  0  0  0
   51.0467   33.8428   39.2229 H   0  0  0  0  0  0  0  0  0  0  0  0
  1  7  1  0
  1  6  2  0
  2  1  1  0
  3  2  2  0
  3  4  1  0
  4  5  2  0
  5  6  1  0
  8  9  2  0
  8 15  1  0
  9  3  1  0
 10  9  1  0
 11 10  2  0
 12 11  1  0
 12 13  2  0
 13  8  1  0
 15 14  3  0
  2 16  1  0
  5 17  1  0
  7 18  1  0
  7 19  1  0
 10 20  1  0
 11 21  1  0
 12 22  1  0
 23 24  1  0
 24 25  1  0
 25 26  1  0
 26 27  1  0
 27 28  1  1
 27 23  1  0
 24 29  1  0
 24 30  1  0
 25 31  1  0
 25 32  1  0
 26 33  1  0
 26 34  1  0
 27 35  1  0
 13 23  1  0
M  ISO  6  16  14  17  14  20  14  21  14  22  14  28  13
M  END
>  <DihAtoms>  (1) 
11,12,22,23

>  <DihDeg>  (1) 
-120.00158917647971

$$$$
