
     RDKit          3D

 45 48  0  0  0  0  0  0  0  0999 V2000
   48.4550   33.1050   41.3810 C   0  0  0  0  0  0  0  0  0  0  0  0
   48.0410   34.3300   41.8330 C   0  0  0  0  0  0  0  0  0  0  0  0
   48.9370   35.1460   42.4600 C   0  0  0  0  0  0  0  0  0  0  0  0
   50.2520   34.7340   42.6320 C   0  0  0  0  0  0  0  0  0  0  0  0
   50.6390   33.4920   42.1650 C   0  0  0  0  0  0  0  0  0  0  0  0
   49.7350   32.6510   41.5250 C   0  0  0  0  0  0  0  0  0  0  0  0
   46.6340   34.6880   41.6100 C   0  0  0  0  0  0  0  0  0  0  0  0
   45.9330   34.9230   42.9330 C   0  0  0  0  0  0  0  0  0  0  0  0
   45.9890   33.8990   43.8770 C   0  0  0  0  0  0  0  0  0  0  0  0
   45.3480   34.1250   45.0800 C   0  0  0  0  0  0  0  0  0  0  0  0
   44.7170   35.2970   45.2670 N   0  0  0  0  0  0  0  0  0  0  0  0
   44.6770   36.2760   44.3290 C   0  0  0  0  0  0  0  0  0  0  0  0
   45.2900   36.0680   43.1730 N   0  0  0  0  0  0  0  0  0  0  0  0
   47.6120   32.1930   40.7260 O   0  0  0  0  0  0  0  0  0  0  0  0
   50.2290   31.4190   41.0920 O   0  0  0  0  0  0  0  0  0  0  0  0
   50.7640   31.4390   39.8050 C   0  0  0  0  0  0  0  0  0  0  0  0
   52.1430   31.3560   39.6850 C   0  0  0  0  0  0  0  0  0  0  0  0
   52.7720   31.3680   38.4330 C   0  0  0  0  0  0  0  0  0  0  0  0
   52.0090   31.4610   37.3270 N   0  0  0  0  0  0  0  0  0  0  0  0
   50.6780   31.5400   37.4560 C   0  0  0  0  0  0  0  0  0  0  0  0
   50.0770   31.5300   38.6570 N   0  0  0  0  0  0  0  0  0  0  0  0
   49.8820   31.6390   36.2850 N   0  0  0  0  0  0  0  0  0  0  0  0
   50.0970   30.8000   35.0990 C   0  0  0  0  0  0  0  0  0  0  0  0
   49.0360   31.2480   34.1220 C   0  0  0  0  0  0  0  0  0  0  0  0
   48.6970   32.6760   34.5670 C   0  0  0  0  0  0  0  0  0  0  0  0
   48.7610   32.5460   36.0620 C   0  0  0  0  0  0  0  0  0  0  0  0
   48.6173   36.1315   42.8297 H   0  0  0  0  0  0  0  0  0  0  0  0
   50.9783   35.3895   43.1348 H   0  0  0  0  0  0  0  0  0  0  0  0
   51.6797   33.1632   42.3019 H   0  0  0  0  0  0  0  0  0  0  0  0
   46.5848   35.6058   41.0056 H   0  0  0  0  0  0  0  0  0  0  0  0
   46.1345   33.8616   41.0832 H   0  0  0  0  0  0  0  0  0  0  0  0
   46.5181   32.9562   43.6740 H   0  0  0  0  0  0  0  0  0  0  0  0
   45.3540   33.3598   45.8702 H   0  0  0  0  0  0  0  0  0  0  0  0
   44.1480   37.2206   44.5236 H   0  0  0  0  0  0  0  0  0  0  0  0
   46.6617   32.4220   40.5691 H   0  0  0  0  0  0  0  0  0  0  0  0
   52.7575   31.2789   40.5941 H   0  0  0  0  0  0  0  0  0  0  0  0
   53.8673   31.3028   38.3549 H   0  0  0  0  0  0  0  0  0  0  0  0
   51.1023   30.9640   34.6837 H   0  0  0  0  0  0  0  0  0  0  0  0
   50.0284   29.7263   35.3280 H   0  0  0  0  0  0  0  0  0  0  0  0
   48.1498   30.5992   34.1831 H   0  0  0  0  0  0  0  0  0  0  0  0
   49.3771   31.2010   33.0773 H   0  0  0  0  0  0  0  0  0  0  0  0
   49.4371   33.3995   34.1944 H   0  0  0  0  0  0  0  0  0  0  0  0
   47.7326   33.0467   34.1896 H   0  0  0  0  0  0  0  0  0  0  0  0
   48.9475   33.5226   36.5326 H   0  0  0  0  0  0  0  0  0  0  0  0
   47.8211   32.1757   36.4973 H   0  0  0  0  0  0  0  0  0  0  0  0
  1  6  2  0
  1  2  1  0
  2  3  2  0
  3  4  1  0
  5  4  2  0
  6  5  1  0
  7  2  1  0
  7  8  1  0
  8 13  1  0
  8  9  2  0
  9 10  1  0
 10 11  2  0
 12 11  1  0
 13 12  2  0
 14  1  1  0
 15  6  1  0
 16 15  1  0
 17 16  2  0
 18 17  1  0
 19 20  1  0
 19 18  2  0
 20 21  2  0
 21 16  1  0
 22 20  1  0
 23 22  1  0
 24 25  1  0
 24 23  1  0
 25 26  1  0
 26 22  1  0
  3 27  1  0
  4 28  1  0
  5 29  1  0
  7 30  1  0
  7 31  1  0
  9 32  1  0
 10 33  1  0
 12 34  1  0
 14 35  1  0
 17 36  1  0
 18 37  1  0
 23 38  1  0
 23 39  1  0
 24 40  1  0
 24 41  1  0
 25 42  1  0
 25 43  1  0
 26 44  1  0
 26 45  1  0
M  ISO  8  27  14  28  14  29  14  30   8  31   8  32  14  33  14  34  14
M  ISO  8  35   3  36  14  37  14  38  13  39  13  40  13  41  13  42  13
M  ISO  3  43  13  44  13  45  13
M  END
>  <minimizedAffinity>  (1) 
-6.21915865

>  <minimizedRMSD>  (1) 
0.700962961

$$$$
