
     RDKit          3D

 35 37  0  0  0  0  0  0  0  0999 V2000
   45.8550   33.6700   40.1160 C   0  0  0  0  0  0  0  0  0  0  0  0
   44.7170   33.8640   40.8560 C   0  0  0  0  0  0  0  0  0  0  0  0
   43.5210   33.6620   40.2310 C   0  0  0  0  0  0  0  0  0  0  0  0
   43.4130   33.2770   38.9030 C   0  0  0  0  0  0  0  0  0  0  0  0
   44.5860   33.0890   38.1870 C   0  0  0  0  0  0  0  0  0  0  0  0
   45.8000   33.2870   38.7980 C   0  0  0  0  0  0  0  0  0  0  0  0
   44.9580   35.9750   43.9730 C   0  0  0  0  0  0  0  0  0  0  0  0
   44.8040   35.6090   42.6320 C   0  0  0  0  0  0  0  0  0  0  0  0
   44.8750   34.2680   42.2420 C   0  0  0  0  0  0  0  0  0  0  0  0
   45.1010   33.3750   43.2470 N   0  0  0  0  0  0  0  0  0  0  0  0
   45.2470   33.7460   44.5250 C   0  0  0  0  0  0  0  0  0  0  0  0
   45.1750   35.0350   44.8840 N   0  0  0  0  0  0  0  0  0  0  0  0
   44.8770   37.3480   44.3130 N   0  0  0  0  0  0  0  0  0  0  0  0
   46.9460   33.0720   37.9850 N   0  0  0  0  0  0  0  0  0  0  0  0
   47.7630   34.0380   37.2990 C   0  0  0  0  0  0  0  0  0  0  0  0
   49.0040   33.2200   36.9210 C   0  0  0  0  0  0  0  0  0  0  0  0
   48.3290   31.9050   36.5440 C   0  0  0  0  0  0  0  0  0  0  0  0
   47.4310   31.7290   37.7620 C   0  0  0  0  0  0  0  0  0  0  0  0
   48.2190   34.0390   41.1870 N   0  0  0  0  0  0  0  0  0  0  0  0
   47.1560   33.8630   40.7040 C   0  0  0  0  0  0  0  0  0  0  0  0
   42.5971   33.8119   40.8088 H   0  0  0  0  0  0  0  0  0  0  0  0
   42.4299   33.1258   38.4332 H   0  0  0  0  0  0  0  0  0  0  0  0
   44.5440   32.7818   37.1316 H   0  0  0  0  0  0  0  0  0  0  0  0
   44.6247   36.3860   41.8743 H   0  0  0  0  0  0  0  0  0  0  0  0
   45.4291   32.9800   45.2931 H   0  0  0  0  0  0  0  0  0  0  0  0
   44.7074   38.0510   43.5796 H   0  0  0  0  0  0  0  0  0  0  0  0
   44.9878   37.6431   45.2936 H   0  0  0  0  0  0  0  0  0  0  0  0
   47.2540   34.4238   36.4034 H   0  0  0  0  0  0  0  0  0  0  0  0
   47.9930   34.9259   37.9063 H   0  0  0  0  0  0  0  0  0  0  0  0
   49.5448   33.6626   36.0715 H   0  0  0  0  0  0  0  0  0  0  0  0
   49.7735   33.1454   37.7035 H   0  0  0  0  0  0  0  0  0  0  0  0
   47.7478   31.9933   35.6143 H   0  0  0  0  0  0  0  0  0  0  0  0
   49.0128   31.0679   36.3400 H   0  0  0  0  0  0  0  0  0  0  0  0
   46.6030   31.0368   37.5495 H   0  0  0  0  0  0  0  0  0  0  0  0
   47.9486   31.2980   38.6317 H   0  0  0  0  0  0  0  0  0  0  0  0
  1 20  1  0
  1  2  2  0
  2  9  1  0
  3  2  1  0
  4  3  2  0
  5  6  2  0
  5  4  1  0
  6  1  1  0
  7 13  1  0
  7 12  2  0
  8  7  1  0
  9  8  2  0
  9 10  1  0
 10 11  2  0
 11 12  1  0
 14  6  1  0
 15 14  1  0
 16 15  1  0
 17 16  1  0
 17 18  1  0
 18 14  1  0
 20 19  3  0
  3 21  1  0
  4 22  1  0
  5 23  1  0
  8 24  1  0
 11 25  1  0
 13 26  1  0
 13 27  1  0
 15 28  1  0
 15 29  1  0
 16 30  1  0
 16 31  1  0
 17 32  1  0
 17 33  1  0
 18 34  1  0
 18 35  1  0
M  ISO  8  21  14  22  14  23  14  24  14  25  14  28  13  29  13  30  13
M  ISO  5  31  13  32  13  33  13  34  13  35  13
M  END
>  <minimizedAffinity>  (1) 
-4.55397272

>  <minimizedRMSD>  (1) 
2.80736756

$$$$
