
     RDKit          3D

 25 26  0  0  0  0  0  0  0  0999 V2000
   44.5610   36.0098   44.4948 C   0  0  0  0  0  0  0  0  0  0  0  0
   45.3051   35.9188   43.3015 C   0  0  0  0  0  0  0  0  0  0  0  0
   46.1935   34.8637   43.1645 C   0  0  0  0  0  0  0  0  0  0  0  0
   46.3036   33.9673   44.1892 N   0  0  0  0  0  0  0  0  0  0  0  0
   45.5671   34.0869   45.3301 C   0  0  0  0  0  0  0  0  0  0  0  0
   44.7071   35.0990   45.4754 N   0  0  0  0  0  0  0  0  0  0  0  0
   46.9646   34.7696   41.9275 C   0  0  0  0  0  0  0  0  0  0  0  0
   43.8689   36.8443   44.5842 H   0  0  0  0  0  0  0  0  0  0  0  0
   45.2078   36.6383   42.4947 H   0  0  0  0  0  0  0  0  0  0  0  0
   45.6881   33.3507   46.1176 H   0  0  0  0  0  0  0  0  0  0  0  0
   47.1054   33.6953   41.7051 H   0  0  0  0  0  0  0  0  0  0  0  0
   46.3953   35.2309   41.0970 H   0  0  0  0  0  0  0  0  0  0  0  0
   48.2299   35.4736   41.9883 N   0  0  0  0  0  0  0  0  0  0  0  0
   48.5333   36.2676   40.8502 C   0  0  0  0  0  0  0  0  0  0  0  0
   48.6311   37.7061   41.2970 C   0  0  0  0  0  0  0  0  0  0  0  0
   48.6324   37.6753   42.7979 C   0  0  0  0  0  0  0  0  0  0  0  0
   48.3847   36.2414   43.1723 C   0  0  1  0  0  0  0  0  0  0  0  0
   47.5394   36.1512   43.8845 H   0  0  0  0  0  0  0  0  0  0  0  0
   47.8559   36.1592   39.9915 H   0  0  0  0  0  0  0  0  0  0  0  0
   49.5495   35.9345   40.4865 H   0  0  0  0  0  0  0  0  0  0  0  0
   47.7542   38.2817   40.9073 H   0  0  0  0  0  0  0  0  0  0  0  0
   49.5681   38.2071   40.9358 H   0  0  0  0  0  0  0  0  0  0  0  0
   47.8788   38.3103   43.2722 H   0  0  0  0  0  0  0  0  0  0  0  0
   49.6339   38.0275   43.1848 H   0  0  0  0  0  0  0  0  0  0  0  0
   49.2858   35.8579   43.7070 H   0  0  0  0  0  0  0  0  0  0  0  0
  1  6  2  0
  2  1  1  0
  3  2  2  0
  3  4  1  0
  4  5  2  0
  5  6  1  0
  7  3  1  0
  1  8  1  0
  2  9  1  0
  5 10  1  0
  7 11  1  0
  7 12  1  0
 13 14  1  0
 14 15  1  0
 15 16  1  0
 16 17  1  0
 17 18  1  1
 17 13  1  0
 14 19  1  0
 14 20  1  0
 15 21  1  0
 15 22  1  0
 16 23  1  0
 16 24  1  0
 17 25  1  0
  7 13  1  0
M  ISO  6   8  14   9  14  10  14  11   8  12   8  18  13
M  END
>  <DihAtoms>  (1) 
2,6,12,13

>  <DihDeg>  (1) 
60.044159262947026

$$$$
