
     RDKit          3D

 26 27  0  0  0  0  0  0  0  0999 V2000
   45.1300   35.4960   43.9740 C   0  0  0  0  0  0  0  0  0  0  0  0
   46.1730   34.6600   43.6050 C   0  0  0  0  0  0  0  0  0  0  0  0
   46.5720   33.7050   44.5500 C   0  0  0  0  0  0  0  0  0  0  0  0
   45.9360   33.6390   45.7580 N   0  0  0  0  0  0  0  0  0  0  0  0
   44.9330   34.4870   46.0360 C   0  0  0  0  0  0  0  0  0  0  0  0
   44.5260   35.4140   45.1540 N   0  0  0  0  0  0  0  0  0  0  0  0
   44.2500   34.4430   47.2880 N   0  0  0  0  0  0  0  0  0  0  0  0
   46.7540   34.8190   42.3300 N   0  0  0  0  0  0  0  0  0  0  0  0
   46.0900   34.3880   41.1010 C   0  0  0  0  0  0  0  0  0  0  0  0
   47.1470   33.3890   40.6100 C   0  0  0  0  0  0  0  0  0  0  0  0
   48.3960   34.2560   40.7390 C   0  0  0  0  0  0  0  0  0  0  0  0
   47.9830   35.3490   41.7220 C   0  0  0  0  0  0  0  0  0  0  0  0
   47.6410   32.8380   44.1910 N   0  0  0  0  0  0  0  0  0  0  0  0
   44.7885   36.2592   43.2593 H   0  0  0  0  0  0  0  0  0  0  0  0
   43.4832   35.1034   47.4798 H   0  0  0  0  0  0  0  0  0  0  0  0
   44.5238   33.7508   47.9999 H   0  0  0  0  0  0  0  0  0  0  0  0
   45.1228   33.9035   41.3004 H   0  0  0  0  0  0  0  0  0  0  0  0
   45.8250   35.1888   40.3950 H   0  0  0  0  0  0  0  0  0  0  0  0
   46.9676   33.0808   39.5694 H   0  0  0  0  0  0  0  0  0  0  0  0
   47.1806   32.4366   41.1594 H   0  0  0  0  0  0  0  0  0  0  0  0
   49.2393   33.6713   41.1352 H   0  0  0  0  0  0  0  0  0  0  0  0
   48.7346   34.6593   39.7732 H   0  0  0  0  0  0  0  0  0  0  0  0
   48.7612   35.5075   42.4831 H   0  0  0  0  0  0  0  0  0  0  0  0
   47.8343   36.3257   41.2383 H   0  0  0  0  0  0  0  0  0  0  0  0
   47.9675   32.1209   44.8544 H   0  0  0  0  0  0  0  0  0  0  0  0
   48.0886   32.9273   43.2677 H   0  0  0  0  0  0  0  0  0  0  0  0
  1  6  2  0
  2  1  1  0
  2  3  2  0
  3  4  1  0
  4  5  2  0
  5  7  1  0
  6  5  1  0
  8  2  1  0
  9  8  1  0
 10 11  1  0
 10  9  1  0
 11 12  1  0
 12  8  1  0
 13  3  1  0
  1 14  1  0
  7 15  1  0
  7 16  1  0
  9 17  1  0
  9 18  1  0
 10 19  1  0
 10 20  1  0
 11 21  1  0
 11 22  1  0
 12 23  1  0
 12 24  1  0
 13 25  1  0
 13 26  1  0
M  ISO  8  14  14  17  13  18  13  19  13  20  13  21  13  22  13  23  13
M  ISO  1  24  13
M  END
>  <minimizedAffinity>  (1) 
-4.87172127

>  <minimizedRMSD>  (1) 
2.39406347

$$$$
