
     RDKit          3D

 25 26  0  0  0  0  0  0  0  0999 V2000
   44.5610   36.0098   44.4948 C   0  0  0  0  0  0  0  0  0  0  0  0
   45.3051   35.9188   43.3015 C   0  0  0  0  0  0  0  0  0  0  0  0
   46.1935   34.8637   43.1645 C   0  0  0  0  0  0  0  0  0  0  0  0
   46.3036   33.9673   44.1892 N   0  0  0  0  0  0  0  0  0  0  0  0
   45.5671   34.0869   45.3301 C   0  0  0  0  0  0  0  0  0  0  0  0
   44.7071   35.0990   45.4754 N   0  0  0  0  0  0  0  0  0  0  0  0
   46.9646   34.7696   41.9275 C   0  0  0  0  0  0  0  0  0  0  0  0
   43.8689   36.8443   44.5842 H   0  0  0  0  0  0  0  0  0  0  0  0
   45.2078   36.6383   42.4947 H   0  0  0  0  0  0  0  0  0  0  0  0
   45.6881   33.3507   46.1176 H   0  0  0  0  0  0  0  0  0  0  0  0
   47.1054   33.6953   41.7051 H   0  0  0  0  0  0  0  0  0  0  0  0
   46.3953   35.2309   41.0970 H   0  0  0  0  0  0  0  0  0  0  0  0
   48.2299   35.4736   41.9883 N   0  0  0  0  0  0  0  0  0  0  0  0
   49.3424   34.7601   41.4677 C   0  0  0  0  0  0  0  0  0  0  0  0
   49.8867   35.5361   40.2930 C   0  0  0  0  0  0  0  0  0  0  0  0
   49.1993   36.8703   40.3226 C   0  0  0  0  0  0  0  0  0  0  0  0
   48.1740   36.7718   41.4165 C   0  0  1  0  0  0  0  0  0  0  0  0
   47.1677   37.0638   41.0531 H   0  0  0  0  0  0  0  0  0  0  0  0
   49.1612   33.7084   41.2048 H   0  0  0  0  0  0  0  0  0  0  0  0
   50.1251   34.7448   42.2820 H   0  0  0  0  0  0  0  0  0  0  0  0
   49.6616   34.9886   39.3435 H   0  0  0  0  0  0  0  0  0  0  0  0
   50.9967   35.6897   40.3547 H   0  0  0  0  0  0  0  0  0  0  0  0
   48.7077   37.1559   39.3883 H   0  0  0  0  0  0  0  0  0  0  0  0
   49.9530   37.6818   40.5461 H   0  0  0  0  0  0  0  0  0  0  0  0
   48.4419   37.5034   42.2152 H   0  0  0  0  0  0  0  0  0  0  0  0
  1  6  2  0
  2  1  1  0
  3  2  2  0
  3  4  1  0
  4  5  2  0
  5  6  1  0
  7  3  1  0
  1  8  1  0
  2  9  1  0
  5 10  1  0
  7 11  1  0
  7 12  1  0
 13 14  1  0
 14 15  1  0
 15 16  1  0
 16 17  1  0
 17 18  1  6
 17 13  1  0
 14 19  1  0
 14 20  1  0
 15 21  1  0
 15 22  1  0
 16 23  1  0
 16 24  1  0
 17 25  1  0
  7 13  1  0
M  ISO  6   8  14   9  14  10  14  11   8  12   8  18  13
M  END
>  <DihAtoms>  (1) 
2,6,12,13

>  <DihDeg>  (1) 
60.044159262947026

$$$$
