
     RDKit          3D

 25 26  0  0  0  0  0  0  0  0999 V2000
   44.5610   36.0098   44.4948 C   0  0  0  0  0  0  0  0  0  0  0  0
   45.3051   35.9188   43.3015 C   0  0  0  0  0  0  0  0  0  0  0  0
   46.1935   34.8637   43.1645 C   0  0  0  0  0  0  0  0  0  0  0  0
   46.3036   33.9673   44.1892 N   0  0  0  0  0  0  0  0  0  0  0  0
   45.5671   34.0869   45.3301 C   0  0  0  0  0  0  0  0  0  0  0  0
   44.7071   35.0990   45.4754 N   0  0  0  0  0  0  0  0  0  0  0  0
   46.9646   34.7696   41.9275 C   0  0  0  0  0  0  0  0  0  0  0  0
   43.8689   36.8443   44.5842 H   0  0  0  0  0  0  0  0  0  0  0  0
   45.2078   36.6383   42.4947 H   0  0  0  0  0  0  0  0  0  0  0  0
   45.6881   33.3507   46.1176 H   0  0  0  0  0  0  0  0  0  0  0  0
   47.1054   33.6953   41.7051 H   0  0  0  0  0  0  0  0  0  0  0  0
   46.3953   35.2309   41.0970 H   0  0  0  0  0  0  0  0  0  0  0  0
   48.2299   35.4736   41.9883 N   0  0  0  0  0  0  0  0  0  0  0  0
   49.0131   35.4092   40.8049 C   0  0  0  0  0  0  0  0  0  0  0  0
   49.1768   36.8136   40.2763 C   0  0  0  0  0  0  0  0  0  0  0  0
   48.6738   37.7254   41.3577 C   0  0  0  0  0  0  0  0  0  0  0  0
   48.0981   36.8223   42.4115 C   0  0  1  0  0  0  0  0  0  0  0  0
   47.0608   37.1162   42.6712 H   0  0  0  0  0  0  0  0  0  0  0  0
   48.6519   34.7257   40.0237 H   0  0  0  0  0  0  0  0  0  0  0  0
   50.0283   35.0200   41.1112 H   0  0  0  0  0  0  0  0  0  0  0  0
   48.5792   36.9345   39.3381 H   0  0  0  0  0  0  0  0  0  0  0  0
   50.2458   37.0659   40.0463 H   0  0  0  0  0  0  0  0  0  0  0  0
   47.9125   38.4426   41.0381 H   0  0  0  0  0  0  0  0  0  0  0  0
   49.5310   38.3346   41.7708 H   0  0  0  0  0  0  0  0  0  0  0  0
   48.6995   36.9431   43.3436 H   0  0  0  0  0  0  0  0  0  0  0  0
  1  6  2  0
  2  1  1  0
  3  2  2  0
  3  4  1  0
  4  5  2  0
  5  6  1  0
  7  3  1  0
  1  8  1  0
  2  9  1  0
  5 10  1  0
  7 11  1  0
  7 12  1  0
 13 14  1  0
 14 15  1  0
 15 16  1  0
 16 17  1  0
 17 18  1  1
 17 13  1  0
 14 19  1  0
 14 20  1  0
 15 21  1  0
 15 22  1  0
 16 23  1  0
 16 24  1  0
 17 25  1  0
  7 13  1  0
M  ISO  6   8  14   9  14  10  14  11   8  12   8  18  13
M  END
>  <DihAtoms>  (1) 
2,6,12,13

>  <DihDeg>  (1) 
60.044159262947026

$$$$
