
     RDKit          3D

 52 56  0  0  0  0  0  0  0  0999 V2000
   47.5100   32.0320   47.8800 C   0  0  0  0  0  0  0  0  0  0  0  0
   47.0060   30.7260   47.8750 C   0  0  0  0  0  0  0  0  0  0  0  0
   46.0150   30.4590   46.9720 C   0  0  0  0  0  0  0  0  0  0  0  0
   45.5830   31.4180   46.1540 N   0  0  0  0  0  0  0  0  0  0  0  0
   46.0490   32.6550   46.1440 C   0  0  0  0  0  0  0  0  0  0  0  0
   47.0220   32.9420   47.0260 N   0  0  0  0  0  0  0  0  0  0  0  0
   45.4570   29.2030   46.9310 N   0  0  0  0  0  0  0  0  0  0  0  0
   44.2580   28.8480   46.1170 C   0  0  0  0  0  0  0  0  0  0  0  0
   44.1860   27.3440   46.1330 C   0  0  0  0  0  0  0  0  0  0  0  0
   44.8180   27.0030   47.4410 C   0  0  0  0  0  0  0  0  0  0  0  0
   45.8860   28.0300   47.6370 C   0  0  0  0  0  0  0  0  0  0  0  0
   45.7220   33.8280   45.3000 C   0  0  0  0  0  0  0  0  0  0  0  0
   44.8100   34.7480   45.6190 N   0  0  0  0  0  0  0  0  0  0  0  0
   44.4980   35.8060   44.8820 C   0  0  0  0  0  0  0  0  0  0  0  0
   45.1180   36.0190   43.7040 N   0  0  0  0  0  0  0  0  0  0  0  0
   46.0590   35.1650   43.2670 C   0  0  0  0  0  0  0  0  0  0  0  0
   46.7210   35.3720   42.0680 C   0  0  0  0  0  0  0  0  0  0  0  0
   47.6870   34.5270   41.6220 C   0  0  0  0  0  0  0  0  0  0  0  0
   47.9870   33.4450   42.4080 C   0  0  0  0  0  0  0  0  0  0  0  0
   47.3010   33.2670   43.6060 C   0  0  0  0  0  0  0  0  0  0  0  0
   46.3380   34.0850   44.0810 C   0  0  0  0  0  0  0  0  0  0  0  0
   49.0100   32.5840   41.9120 N   0  0  0  0  0  0  0  0  0  0  0  0
   49.0120   31.3210   41.1950 C   0  0  0  0  0  0  0  0  0  0  0  0
   50.3960   31.2550   40.5650 C   0  0  0  0  0  0  0  0  0  0  0  0
   51.2150   31.8340   41.7260 C   0  0  0  0  0  0  0  0  0  0  0  0
   50.3860   33.0060   42.1370 C   0  0  0  0  0  0  0  0  0  0  0  0
   47.7270   32.0700   44.2630 N   0  0  0  0  0  0  0  0  0  0  0  0
   47.5720   29.8220   48.7300 N   0  0  0  0  0  0  0  0  0  0  0  0
   48.3068   32.3113   48.5851 H   0  0  0  0  0  0  0  0  0  0  0  0
   44.3714   29.2157   45.0865 H   0  0  0  0  0  0  0  0  0  0  0  0
   43.3423   29.3028   46.5228 H   0  0  0  0  0  0  0  0  0  0  0  0
   43.1434   26.9957   46.0927 H   0  0  0  0  0  0  0  0  0  0  0  0
   44.6811   26.8726   45.2712 H   0  0  0  0  0  0  0  0  0  0  0  0
   44.0778   27.0558   48.2530 H   0  0  0  0  0  0  0  0  0  0  0  0
   45.2232   25.9804   47.4487 H   0  0  0  0  0  0  0  0  0  0  0  0
   46.8409   27.6682   47.2280 H   0  0  0  0  0  0  0  0  0  0  0  0
   46.0422   28.2430   48.7048 H   0  0  0  0  0  0  0  0  0  0  0  0
   43.7309   36.5118   45.2332 H   0  0  0  0  0  0  0  0  0  0  0  0
   46.4563   36.2481   41.4577 H   0  0  0  0  0  0  0  0  0  0  0  0
   48.2071   34.7041   40.6690 H   0  0  0  0  0  0  0  0  0  0  0  0
   48.8568   30.4793   41.8860 H   0  0  0  0  0  0  0  0  0  0  0  0
   48.2052   31.2567   40.4501 H   0  0  0  0  0  0  0  0  0  0  0  0
   50.6917   30.2228   40.3259 H   0  0  0  0  0  0  0  0  0  0  0  0
   50.5036   31.7774   39.6029 H   0  0  0  0  0  0  0  0  0  0  0  0
   51.3146   31.1077   42.5461 H   0  0  0  0  0  0  0  0  0  0  0  0
   52.2479   32.0955   41.4528 H   0  0  0  0  0  0  0  0  0  0  0  0
   50.6271   33.8860   41.5226 H   0  0  0  0  0  0  0  0  0  0  0  0
   50.5661   33.2965   43.1825 H   0  0  0  0  0  0  0  0  0  0  0  0
   47.3090   31.8010   45.1651 H   0  0  0  0  0  0  0  0  0  0  0  0
   48.4518   31.4771   43.8340 H   0  0  0  0  0  0  0  0  0  0  0  0
   47.2280   28.8515   48.7549 H   0  0  0  0  0  0  0  0  0  0  0  0
   48.3425   30.1114   49.3493 H   0  0  0  0  0  0  0  0  0  0  0  0
  2  1  2  0
  2 28  1  0
  3  2  1  0
  4  3  2  0
  5  4  1  0
  5  6  2  0
  6  1  1  0
  7  3  1  0
  7 11  1  0
  8  9  1  0
  8  7  1  0
  9 10  1  0
 10 11  1  0
 12 13  2  0
 12  5  1  0
 14 13  1  0
 15 14  2  0
 16 15  1  0
 16 21  2  0
 17 16  1  0
 18 17  2  0
 18 19  1  0
 19 20  2  0
 20 21  1  0
 20 27  1  0
 21 12  1  0
 22 26  1  0
 22 19  1  0
 23 22  1  0
 24 23  1  0
 24 25  1  0
 25 26  1  0
  1 29  1  0
  8 30  1  0
  8 31  1  0
  9 32  1  0
  9 33  1  0
 10 34  1  0
 10 35  1  0
 11 36  1  0
 11 37  1  0
 14 38  1  0
 17 39  1  0
 18 40  1  0
 23 41  1  0
 23 42  1  0
 24 43  1  0
 24 44  1  0
 25 45  1  0
 25 46  1  0
 26 47  1  0
 26 48  1  0
 27 49  1  0
 27 50  1  0
 28 51  1  0
 28 52  1  0
M  ISO  8  29  14  30  13  31  13  32  13  33  13  34  13  35  13  36  13
M  ISO  8  37  13  38  14  39  14  40  14  41  13  42  13  43  13  44  13
M  ISO  4  45  13  46  13  47  13  48  13
M  END
>  <minimizedAffinity>  (1) 
-6.94980669

>  <minimizedRMSD>  (1) 
0.265784115

$$$$
