
     RDKit          3D

 35 37  0  0  0  0  0  0  0  0999 V2000
   45.7140   34.1260   41.4210 C   0  0  0  0  0  0  0  0  0  0  0  0
   47.0040   34.4080   40.9710 C   0  0  0  0  0  0  0  0  0  0  0  0
   47.3600   33.9980   39.7090 C   0  0  0  0  0  0  0  0  0  0  0  0
   46.4590   33.3320   38.9280 C   0  0  0  0  0  0  0  0  0  0  0  0
   45.1790   33.0370   39.3370 C   0  0  0  0  0  0  0  0  0  0  0  0
   44.8430   33.4660   40.6260 C   0  0  0  0  0  0  0  0  0  0  0  0
   44.5980   36.1880   44.4020 C   0  0  0  0  0  0  0  0  0  0  0  0
   44.8870   35.8360   43.0660 C   0  0  0  0  0  0  0  0  0  0  0  0
   45.3840   34.5820   42.7690 C   0  0  0  0  0  0  0  0  0  0  0  0
   45.5700   33.7410   43.8090 N   0  0  0  0  0  0  0  0  0  0  0  0
   45.2970   34.0710   45.0950 C   0  0  0  0  0  0  0  0  0  0  0  0
   44.8120   35.2890   45.3910 N   0  0  0  0  0  0  0  0  0  0  0  0
   47.9520   35.1410   41.8490 C   0  0  0  0  0  0  0  0  0  0  0  0
   48.7550   34.2030   42.5630 N   0  0  0  0  0  0  0  0  0  0  0  0
   48.6560   32.8940   42.0090 C   0  0  0  0  0  0  0  0  0  0  0  0
   50.0080   32.5760   41.3950 C   0  0  0  0  0  0  0  0  0  0  0  0
   50.9080   33.3350   42.3830 C   0  0  0  0  0  0  0  0  0  0  0  0
   50.1300   34.6030   42.5760 C   0  0  0  0  0  0  0  0  0  0  0  0
   48.3706   34.2061   39.3276 H   0  0  0  0  0  0  0  0  0  0  0  0
   46.7723   33.0158   37.9221 H   0  0  0  0  0  0  0  0  0  0  0  0
   44.4669   32.4996   38.6935 H   0  0  0  0  0  0  0  0  0  0  0  0
   43.8320   33.2582   41.0063 H   0  0  0  0  0  0  0  0  0  0  0  0
   44.2014   37.1865   44.6379 H   0  0  0  0  0  0  0  0  0  0  0  0
   44.7158   36.5630   42.2584 H   0  0  0  0  0  0  0  0  0  0  0  0
   45.4728   33.3403   45.8982 H   0  0  0  0  0  0  0  0  0  0  0  0
   48.5982   35.7854   41.2349 H   0  0  0  0  0  0  0  0  0  0  0  0
   47.3892   35.7619   42.5616 H   0  0  0  0  0  0  0  0  0  0  0  0
   48.4173   32.1656   42.7980 H   0  0  0  0  0  0  0  0  0  0  0  0
   47.8572   32.8433   41.2544 H   0  0  0  0  0  0  0  0  0  0  0  0
   50.2163   31.4959   41.3940 H   0  0  0  0  0  0  0  0  0  0  0  0
   50.1245   32.8575   40.3380 H   0  0  0  0  0  0  0  0  0  0  0  0
   51.0216   32.7846   43.3286 H   0  0  0  0  0  0  0  0  0  0  0  0
   51.9377   33.4883   42.0276 H   0  0  0  0  0  0  0  0  0  0  0  0
   50.3343   35.3097   41.7581 H   0  0  0  0  0  0  0  0  0  0  0  0
   50.4014   35.1147   43.5112 H   0  0  0  0  0  0  0  0  0  0  0  0
  1  9  1  0
  2  1  1  0
  2 13  1  0
  3  2  2  0
  4  5  2  0
  4  3  1  0
  5  6  1  0
  6  1  2  0
  7 12  2  0
  8  7  1  0
  9  8  2  0
  9 10  1  0
 10 11  2  0
 11 12  1  0
 13 14  1  0
 14 18  1  0
 15 14  1  0
 16 15  1  0
 16 17  1  0
 17 18  1  0
  3 19  1  0
  4 20  1  0
  5 21  1  0
  6 22  1  0
  7 23  1  0
  8 24  1  0
 11 25  1  0
 13 26  1  0
 13 27  1  0
 15 28  1  0
 15 29  1  0
 16 30  1  0
 16 31  1  0
 17 32  1  0
 17 33  1  0
 18 34  1  0
 18 35  1  0
M  ISO  8  19  14  20  14  21  14  22  14  23  14  24  14  25  14  26   8
M  ISO  8  27   8  28  13  29  13  30  13  31  13  32  13  33  13  34  13
M  ISO  1  35  13
M  END
>  <minimizedAffinity>  (1) 
-5.1639595

>  <minimizedRMSD>  (1) 
1.05269623

$$$$
