
     RDKit          3D

 42 45  0  0  0  0  0  0  0  0999 V2000
   45.5610   33.1340   41.2520 F   0  0  0  0  0  0  0  0  0  0  0  0
   46.6140   34.0000   41.0790 C   0  0  0  0  0  0  0  0  0  0  0  0
   46.9970   34.8170   42.0870 C   0  0  0  0  0  0  0  0  0  0  0  0
   48.1210   35.5820   41.8580 C   0  0  0  0  0  0  0  0  0  0  0  0
   48.8270   35.5310   40.6830 C   0  0  0  0  0  0  0  0  0  0  0  0
   48.3610   34.6700   39.7190 C   0  0  0  0  0  0  0  0  0  0  0  0
   47.2510   33.8910   39.8830 C   0  0  0  0  0  0  0  0  0  0  0  0
   46.8450   33.0660   38.7740 C   0  0  0  0  0  0  0  0  0  0  0  0
   45.5850   33.2310   38.2370 C   0  0  0  0  0  0  0  0  0  0  0  0
   45.1930   32.3860   37.2240 C   0  0  0  0  0  0  0  0  0  0  0  0
   46.0370   31.3820   36.7400 C   0  0  0  0  0  0  0  0  0  0  0  0
   47.3120   31.2660   37.3280 C   0  0  0  0  0  0  0  0  0  0  0  0
   47.7140   32.1080   38.3400 C   0  0  0  0  0  0  0  0  0  0  0  0
   49.0530   31.7660   38.5590 N   0  0  0  0  0  0  0  0  0  0  0  0
   49.6580   31.1550   39.7630 C   0  0  0  0  0  0  0  0  0  0  0  0
   51.1450   31.3350   39.4820 C   0  0  0  0  0  0  0  0  0  0  0  0
   51.2520   31.3190   37.9740 C   0  0  0  0  0  0  0  0  0  0  0  0
   50.0620   32.1180   37.5320 C   0  0  0  0  0  0  0  0  0  0  0  0
   44.5320   35.6770   44.8270 C   0  0  0  0  0  0  0  0  0  0  0  0
   45.2350   35.7330   43.6150 C   0  0  0  0  0  0  0  0  0  0  0  0
   46.2290   34.8170   43.3240 C   0  0  0  0  0  0  0  0  0  0  0  0
   46.4590   33.8800   44.2890 N   0  0  0  0  0  0  0  0  0  0  0  0
   45.7790   33.8410   45.4410 C   0  0  0  0  0  0  0  0  0  0  0  0
   44.8220   34.7330   45.7070 N   0  0  0  0  0  0  0  0  0  0  0  0
   48.4661   36.2618   42.6509 H   0  0  0  0  0  0  0  0  0  0  0  0
   49.7223   36.1491   40.5205 H   0  0  0  0  0  0  0  0  0  0  0  0
   48.9092   34.6047   38.7676 H   0  0  0  0  0  0  0  0  0  0  0  0
   44.9114   34.0172   38.6087 H   0  0  0  0  0  0  0  0  0  0  0  0
   44.1915   32.5034   36.7845 H   0  0  0  0  0  0  0  0  0  0  0  0
   45.7178   30.7084   35.9311 H   0  0  0  0  0  0  0  0  0  0  0  0
   48.0007   30.4862   36.9709 H   0  0  0  0  0  0  0  0  0  0  0  0
   49.3551   31.6853   40.6779 H   0  0  0  0  0  0  0  0  0  0  0  0
   49.3577   30.1108   39.9346 H   0  0  0  0  0  0  0  0  0  0  0  0
   51.5037   32.2929   39.8867 H   0  0  0  0  0  0  0  0  0  0  0  0
   51.7566   30.5509   39.9523 H   0  0  0  0  0  0  0  0  0  0  0  0
   52.1883   31.7905   37.6409 H   0  0  0  0  0  0  0  0  0  0  0  0
   51.2655   30.3018   37.5554 H   0  0  0  0  0  0  0  0  0  0  0  0
   50.2799   33.1962   37.5394 H   0  0  0  0  0  0  0  0  0  0  0  0
   49.7404   31.9006   36.5028 H   0  0  0  0  0  0  0  0  0  0  0  0
   43.7444   36.4134   45.0446 H   0  0  0  0  0  0  0  0  0  0  0  0
   44.9918   36.5182   42.8841 H   0  0  0  0  0  0  0  0  0  0  0  0
   46.0124   33.0612   46.1808 H   0  0  0  0  0  0  0  0  0  0  0  0
  2  1  1  0
  2  3  2  0
  3 21  1  0
  4  3  1  0
  5  4  2  0
  6  7  2  0
  6  5  1  0
  7  2  1  0
  8  7  1  0
  9  8  2  0
 10  9  1  0
 11 10  2  0
 11 12  1  0
 12 13  2  0
 13 14  1  0
 13  8  1  0
 14 15  1  0
 16 15  1  0
 17 16  1  0
 18 17  1  0
 18 14  1  0
 19 24  2  0
 20 19  1  0
 21 20  2  0
 21 22  1  0
 22 23  2  0
 23 24  1  0
  4 25  1  0
  5 26  1  0
  6 27  1  0
  9 28  1  0
 10 29  1  0
 11 30  1  0
 12 31  1  0
 15 32  1  0
 15 33  1  0
 16 34  1  0
 16 35  1  0
 17 36  1  0
 17 37  1  0
 18 38  1  0
 18 39  1  0
 19 40  1  0
 20 41  1  0
 23 42  1  0
M  ISO  8  25  14  26  14  27  14  28  14  29  14  30  14  31  14  32  13
M  ISO  8  33  13  34  13  35  13  36  13  37  13  38  13  39  13  40  14
M  ISO  2  41  14  42  14
M  END
>  <minimizedAffinity>  (1) 
-5.92562819

>  <minimizedRMSD>  (1) 
2.13365984

$$$$
