
     RDKit          3D

 29 31  0  0  1  0  0  0  0  0999 V2000
   47.5940   35.1120   41.4250 C   0  0  1  0  0  0  0  0  0  0  0  0
   48.9390   35.7530   41.6780 C   0  0  0  0  0  0  0  0  0  0  0  0
   48.7860   34.3210   41.1430 C   0  0  1  0  0  0  0  0  0  0  0  0
   44.9830   35.1580   44.1460 C   0  0  0  0  0  0  0  0  0  0  0  0
   45.6340   35.5150   42.9530 C   0  0  0  0  0  0  0  0  0  0  0  0
   46.8130   34.8380   42.6770 C   0  0  0  0  0  0  0  0  0  0  0  0
   47.2750   33.8980   43.5280 N   0  0  0  0  0  0  0  0  0  0  0  0
   46.6240   33.5680   44.6810 C   0  0  0  0  0  0  0  0  0  0  0  0
   45.4770   34.2100   44.9740 N   0  0  0  0  0  0  0  0  0  0  0  0
   49.2970   33.2350   41.8720 N   0  0  0  0  0  0  0  0  0  0  0  0
   50.6550   33.1740   42.2340 C   0  0  0  0  0  0  0  0  0  0  0  0
   51.3130   32.0940   41.3780 C   0  0  0  0  0  0  0  0  0  0  0  0
   50.2350   31.7530   40.3740 C   0  0  0  0  0  0  0  0  0  0  0  0
   48.9740   31.9590   41.2230 C   0  0  0  0  0  0  0  0  0  0  0  0
   46.7041   35.3376   40.8191 H   0  0  0  0  0  0  0  0  0  0  0  0
   49.3058   36.5569   41.0228 H   0  0  0  0  0  0  0  0  0  0  0  0
   49.4423   36.2327   42.5304 H   0  0  0  0  0  0  0  0  0  0  0  0
   49.0810   33.7366   40.2590 H   0  0  0  0  0  0  0  0  0  0  0  0
   44.0441   35.6645   44.4141 H   0  0  0  0  0  0  0  0  0  0  0  0
   45.2327   36.2854   42.2781 H   0  0  0  0  0  0  0  0  0  0  0  0
   47.0261   32.7967   45.3544 H   0  0  0  0  0  0  0  0  0  0  0  0
   51.1367   34.1453   42.0481 H   0  0  0  0  0  0  0  0  0  0  0  0
   50.7596   32.9367   43.3030 H   0  0  0  0  0  0  0  0  0  0  0  0
   52.2126   32.4804   40.8765 H   0  0  0  0  0  0  0  0  0  0  0  0
   51.6529   31.2255   41.9612 H   0  0  0  0  0  0  0  0  0  0  0  0
   50.3220   30.7137   40.0243 H   0  0  0  0  0  0  0  0  0  0  0  0
   50.2658   32.3525   39.4522 H   0  0  0  0  0  0  0  0  0  0  0  0
   48.0718   32.0374   40.5985 H   0  0  0  0  0  0  0  0  0  0  0  0
   48.7474   31.1355   41.9162 H   0  0  0  0  0  0  0  0  0  0  0  0
  1  2  1  0
  1  6  1  0
  3  1  1  0
  3  2  1  0
  3 10  1  0
  4  9  2  0
  5  4  1  0
  6  5  2  0
  6  7  1  0
  7  8  2  0
  8  9  1  0
 10 11  1  0
 12 11  1  0
 13 14  1  0
 13 12  1  0
 14 10  1  0
  1 15  1  6
  2 16  1  0
  2 17  1  0
  3 18  1  6
  4 19  1  0
  5 20  1  0
  8 21  1  0
 11 22  1  0
 11 23  1  0
 12 24  1  0
 12 25  1  0
 13 26  1  0
 13 27  1  0
 14 28  1  0
 14 29  1  0
M  ISO  8  15  13  16  13  17  13  18  13  19  14  20  14  21  14  22  13
M  ISO  7  23  13  24  13  25  13  26  13  27  13  28  13  29  13
M  END
>  <minimizedAffinity>  (1) 
-4.50122118

>  <minimizedRMSD>  (1) 
1.35981297

$$$$
