
     RDKit          3D

 44 47  0  0  1  0  0  0  0  0999 V2000
   47.7180   31.0080   46.0130 C   0  0  0  0  0  0  0  0  0  0  0  0
   46.9840   32.0760   45.5380 C   0  0  0  0  0  0  0  0  0  0  0  0
   45.9880   32.5820   46.3380 C   0  0  0  0  0  0  0  0  0  0  0  0
   45.6980   32.0710   47.5800 C   0  0  0  0  0  0  0  0  0  0  0  0
   44.8180   32.3270   48.5800 N   0  0  0  0  0  0  0  0  0  0  0  0
   45.0050   31.4650   49.6050 C   0  0  0  0  0  0  0  0  0  0  0  0
   46.0140   30.6630   49.2380 N   0  0  0  0  0  0  0  0  0  0  0  0
   46.4490   31.0130   48.0140 C   0  0  0  0  0  0  0  0  0  0  0  0
   47.4570   30.4600   47.2690 C   0  0  0  0  0  0  0  0  0  0  0  0
   47.2020   34.4140   42.7300 C   0  0  0  0  0  0  0  0  0  0  0  0
   47.8270   33.6670   41.7430 C   0  0  0  0  0  0  0  0  0  0  0  0
   48.1670   32.3420   42.0780 C   0  0  0  0  0  0  0  0  0  0  0  0
   47.8790   31.8620   43.3140 N   0  0  0  0  0  0  0  0  0  0  0  0
   47.2740   32.6360   44.2210 C   0  0  0  0  0  0  0  0  0  0  0  0
   46.9280   33.9060   43.9580 N   0  0  0  0  0  0  0  0  0  0  0  0
   48.0900   34.3010   40.4310 C   0  0  0  0  0  0  0  0  0  0  0  0
   48.5940   35.5410   40.7260 F   0  0  0  0  0  0  0  0  0  0  0  0
   46.9120   34.4170   39.7630 F   0  0  0  0  0  0  0  0  0  0  0  0
   48.9910   33.4850   39.7300 F   0  0  0  0  0  0  0  0  0  0  0  0
   48.1890   29.3910   47.7500 O   0  0  0  0  0  0  0  0  0  0  0  0
   49.7910   28.0820   49.3170 O   0  0  0  0  0  0  0  0  0  0  0  0
   49.4640   29.5140   48.8640 P   0  0  2  0  0  0  0  0  0  0  0  0
   48.8840   30.3560   50.2100 O   0  0  0  0  0  0  0  0  0  0  0  0
   50.8300   30.2230   48.2270 O   0  0  0  0  0  0  0  0  0  0  0  0
   50.7930   28.8620   46.3250 N   0  0  0  0  0  0  0  0  0  0  0  0
   51.7590   28.5280   45.2970 C   0  0  0  0  0  0  0  0  0  0  0  0
   53.0340   29.2430   45.6270 C   0  0  0  0  0  0  0  0  0  0  0  0
   52.7800   29.9860   46.9070 C   0  0  0  0  0  0  0  0  0  0  0  0
   51.5670   29.3160   47.4680 C   0  0  1  0  0  0  0  0  0  0  0  0
   48.5204   30.5828   45.3922 H   0  0  0  0  0  0  0  0  0  0  0  0
   45.3973   33.4330   45.9681 H   0  0  0  0  0  0  0  0  0  0  0  0
   44.1077   33.0726   48.5613 H   0  0  0  0  0  0  0  0  0  0  0  0
   44.4424   31.4293   50.5496 H   0  0  0  0  0  0  0  0  0  0  0  0
   46.9187   35.4539   42.5099 H   0  0  0  0  0  0  0  0  0  0  0  0
   48.6652   31.6974   41.3389 H   0  0  0  0  0  0  0  0  0  0  0  0
   49.1924   29.9083   51.0374 H   0  0  0  0  0  0  0  0  0  0  0  0
   50.2362   28.0327   46.5762 H   0  0  0  0  0  0  0  0  0  0  0  0
   51.3891   28.8544   44.3138 H   0  0  0  0  0  0  0  0  0  0  0  0
   51.9234   27.4410   45.2585 H   0  0  0  0  0  0  0  0  0  0  0  0
   53.8523   28.5203   45.7618 H   0  0  0  0  0  0  0  0  0  0  0  0
   53.3297   29.9278   44.8186 H   0  0  0  0  0  0  0  0  0  0  0  0
   53.6344   29.8898   47.5931 H   0  0  0  0  0  0  0  0  0  0  0  0
   52.6390   31.0661   46.7534 H   0  0  0  0  0  0  0  0  0  0  0  0
   51.8340   28.4764   48.1267 H   0  0  0  0  0  0  0  0  0  0  0  0
  1  9  2  0
  2  1  1  0
  2  3  2  0
  3  4  1  0
  4  8  2  0
  4  5  1  0
  5  6  1  0
  7  6  2  0
  8  7  1  0
  9 20  1  0
  9  8  1  0
 10 15  2  0
 11 12  2  0
 11 10  1  0
 12 13  1  0
 13 14  2  0
 14  2  1  0
 15 14  1  0
 16 17  1  0
 16 11  1  0
 18 16  1  0
 19 16  1  0
 20 22  1  0
 22 21  2  0
 22 23  1  0
 24 22  1  0
 25 29  1  0
 26 27  1  0
 26 25  1  0
 27 28  1  0
 28 29  1  0
 29 24  1  0
  1 30  1  0
  3 31  1  0
  5 32  1  0
  6 33  1  0
 10 34  1  0
 12 35  1  0
 23 36  1  0
 25 37  1  0
 26 38  1  0
 26 39  1  0
 27 40  1  0
 27 41  1  0
 28 42  1  0
 28 43  1  0
 29 44  1  1
M  ISO  8  30  14  31  14  32   9  33  14  34  14  35  14  36   3  37   5
M  ISO  7  38  13  39  13  40  13  41  13  42  13  43  13  44  13
M  END
>  <minimizedAffinity>  (1) 
-5.57699871

>  <minimizedRMSD>  (1) 
1.02669418

$$$$
