
     RDKit          3D

 50 54  0  0  0  0  0  0  0  0999 V2000
   47.5368   32.6694   44.2692 C   0  0  0  0  0  0  0  0  0  0  0  0
   46.8362   33.6429   43.5570 C   0  0  0  0  0  0  0  0  0  0  0  0
   45.7816   34.3665   44.0922 C   0  0  0  0  0  0  0  0  0  0  0  0
   45.3901   34.1153   45.4171 C   0  0  0  0  0  0  0  0  0  0  0  0
   44.4472   34.5991   46.2489 N   0  0  0  0  0  0  0  0  0  0  0  0
   44.5270   33.9770   47.4376 C   0  0  0  0  0  0  0  0  0  0  0  0
   45.5392   33.0984   47.3229 N   0  0  0  0  0  0  0  0  0  0  0  0
   46.0932   33.1537   46.0984 C   0  0  0  0  0  0  0  0  0  0  0  0
   47.1517   32.4159   45.5862 C   0  0  0  0  0  0  0  0  0  0  0  0
   47.0656   33.4243   39.9055 C   0  0  0  0  0  0  0  0  0  0  0  0
   47.9771   34.4411   39.5928 C   0  0  0  0  0  0  0  0  0  0  0  0
   48.5054   35.1936   40.6405 C   0  0  0  0  0  0  0  0  0  0  0  0
   48.1171   34.9125   41.9185 N   0  0  0  0  0  0  0  0  0  0  0  0
   47.2314   33.9180   42.1733 C   0  0  0  0  0  0  0  0  0  0  0  0
   46.6892   33.1583   41.1935 N   0  0  0  0  0  0  0  0  0  0  0  0
   44.9050   35.5993   43.1693 S   0  0  0  0  0  0  0  0  0  0  0  0
   42.3094   35.5812   42.6991 N   0  0  0  0  0  0  0  0  0  0  0  0
   43.5180   34.9358   42.2158 C   0  0  1  0  0  0  0  0  0  0  0  0
   43.8056   35.3124   40.7572 C   0  0  0  0  0  0  0  0  0  0  0  0
   42.6791   35.3135   39.9604 O   0  0  0  0  0  0  0  0  0  0  0  0
   41.5495   34.7673   40.5294 C   0  0  0  0  0  0  0  0  0  0  0  0
   41.2285   35.5367   41.7822 C   0  0  1  0  0  0  0  0  0  0  0  0
   48.3360   32.1592   43.7810 H   0  0  0  0  0  0  0  0  0  0  0  0
   43.7558   35.3593   45.9807 H   0  0  0  0  0  0  0  0  0  0  0  0
   43.9099   34.1390   48.3170 H   0  0  0  0  0  0  0  0  0  0  0  0
   47.6737   31.6722   46.1564 H   0  0  0  0  0  0  0  0  0  0  0  0
   46.6926   32.8785   39.0562 H   0  0  0  0  0  0  0  0  0  0  0  0
   48.2808   34.6613   38.5958 H   0  0  0  0  0  0  0  0  0  0  0  0
   49.2132   35.9990   40.5171 H   0  0  0  0  0  0  0  0  0  0  0  0
   42.1412   35.2262   43.6451 H   0  0  0  0  0  0  0  0  0  0  0  0
   43.4358   33.8486   42.2801 H   0  0  0  0  0  0  0  0  0  0  0  0
   44.3336   36.2887   40.7425 H   0  0  0  0  0  0  0  0  0  0  0  0
   44.4515   34.5581   40.3191 H   0  0  0  0  0  0  0  0  0  0  0  0
   41.7688   33.7129   40.7866 H   0  0  0  0  0  0  0  0  0  0  0  0
   40.7349   34.8445   39.8129 H   0  0  0  0  0  0  0  0  0  0  0  0
   41.0021   36.5819   41.4798 H   0  0  0  0  0  0  0  0  0  0  0  0
   38.4046   36.4020   41.1408 O   0  0  0  0  0  0  0  0  0  0  0  0
   38.8422   36.0193   42.3851 C   0  0  2  0  0  0  0  0  0  0  0  0
   39.9548   34.9751   42.3408 C   0  0  2  0  0  0  0  0  0  0  0  0
   39.9923   34.5799   43.6486 O   0  0  0  0  0  0  0  0  0  0  0  0
   38.6636   34.2402   43.8976 C   0  0  0  0  0  0  0  0  0  0  0  0
   37.7860   35.1709   43.1070 C   0  0  2  0  0  0  0  0  0  0  0  0
   37.1578   34.4401   42.0725 O   0  0  0  0  0  0  0  0  0  0  0  0
   38.9177   37.2121   40.8526 H   0  0  0  0  0  0  0  0  0  0  0  0
   39.1302   36.8589   43.0538 H   0  0  0  0  0  0  0  0  0  0  0  0
   39.5751   34.1432   41.7158 H   0  0  0  0  0  0  0  0  0  0  0  0
   38.5229   33.1821   43.5641 H   0  0  0  0  0  0  0  0  0  0  0  0
   38.4189   34.2954   44.9792 H   0  0  0  0  0  0  0  0  0  0  0  0
   37.0843   35.7653   43.6882 H   0  0  0  0  0  0  0  0  0  0  0  0
   37.4753   33.5010   42.0914 H   0  0  0  0  0  0  0  0  0  0  0  0
  1  9  2  0
  2  3  2  0
  2  1  1  0
  3  4  1  0
  4  8  2  0
  4  5  1  0
  5  6  1  0
  7  6  2  0
  8  7  1  0
  9  8  1  0
 10 15  2  0
 11 10  1  0
 11 12  2  0
 12 13  1  0
 13 14  2  0
 14  2  1  0
 15 14  1  0
 16  3  1  0
 18 17  1  0
 18 16  1  0
 19 18  1  0
 20 21  1  0
 20 19  1  0
 21 22  1  0
 22 17  1  0
  1 23  1  0
  5 24  1  0
  6 25  1  0
  9 26  1  0
 10 27  1  0
 11 28  1  0
 12 29  1  0
 17 30  1  0
 18 31  1  6
 19 32  1  0
 19 33  1  0
 21 34  1  0
 21 35  1  0
 22 36  1  6
 37 38  1  0
 38 39  1  0
 39 40  1  0
 40 41  1  0
 41 42  1  0
 42 43  1  0
 42 38  1  0
 37 44  1  0
 38 45  1  1
 39 46  1  6
 41 47  1  0
 41 48  1  0
 42 49  1  1
 43 50  1  0
 22 39  1  0
M  ISO  8  23  14  24   9  25  14  26  14  27  14  28  14  29  14  30   5
M  ISO  6  31  13  32  13  33  13  34  13  35  13  36  13
M  END
>  <DihAtoms>  (1) 
20,21,38,37

>  <DihDeg>  (1) 
-178.14145697444602

$$$$
