
     RDKit          3D

 30 32  0  0  1  0  0  0  0  0999 V2000
   46.1830   33.9150   42.7270 C   0  0  0  0  0  0  0  0  0  0  0  0
   47.5640   33.5900   42.7040 C   0  0  0  0  0  0  0  0  0  0  0  0
   48.0880   32.7090   43.6860 C   0  0  0  0  0  0  0  0  0  0  0  0
   47.2160   32.2200   44.6130 N   0  0  0  0  0  0  0  0  0  0  0  0
   45.9250   32.5520   44.6050 C   0  0  0  0  0  0  0  0  0  0  0  0
   45.4110   33.3820   43.6830 N   0  0  0  0  0  0  0  0  0  0  0  0
   48.4870   34.2400   41.7260 C   0  0  0  0  0  0  0  0  0  0  0  0
   48.6550   35.6530   41.6550 C   0  0  0  0  0  0  0  0  0  0  0  0
   49.7700   34.9040   42.3120 C   0  0  0  0  0  0  0  0  0  0  0  0
   44.8260   34.0510   40.6050 C   0  0  2  0  0  0  0  0  0  0  0  0
   45.3310   34.7090   41.8310 C   0  0  1  0  0  0  0  0  0  0  0  0
   44.2930   35.4130   42.4480 O   0  0  0  0  0  0  0  0  0  0  0  0
   43.4870   35.8140   41.4090 C   0  0  0  0  0  0  0  0  0  0  0  0
   43.4650   34.6860   40.4210 C   0  0  1  0  0  0  0  0  0  0  0  0
   44.8360   32.6830   40.5750 O   0  0  0  0  0  0  0  0  0  0  0  0
   43.2480   35.1050   39.1100 O   0  0  0  0  0  0  0  0  0  0  0  0
   49.1526   32.4325   43.6985 H   0  0  0  0  0  0  0  0  0  0  0  0
   45.2614   32.1338   45.3762 H   0  0  0  0  0  0  0  0  0  0  0  0
   48.2378   33.4818   40.9691 H   0  0  0  0  0  0  0  0  0  0  0  0
   48.8282   36.1249   40.6765 H   0  0  0  0  0  0  0  0  0  0  0  0
   48.0298   36.5000   41.9737 H   0  0  0  0  0  0  0  0  0  0  0  0
   49.9242   34.9656   43.3994 H   0  0  0  0  0  0  0  0  0  0  0  0
   50.8575   34.8043   42.1801 H   0  0  0  0  0  0  0  0  0  0  0  0
   45.5076   34.2186   39.7580 H   0  0  0  0  0  0  0  0  0  0  0  0
   46.0887   35.4325   41.4958 H   0  0  0  0  0  0  0  0  0  0  0  0
   42.4698   36.0174   41.7749 H   0  0  0  0  0  0  0  0  0  0  0  0
   43.8666   36.7374   40.9472 H   0  0  0  0  0  0  0  0  0  0  0  0
   42.6315   33.9901   40.5974 H   0  0  0  0  0  0  0  0  0  0  0  0
   44.8386   32.3326   41.5009 H   0  0  0  0  0  0  0  0  0  0  0  0
   42.7927   35.9841   39.1156 H   0  0  0  0  0  0  0  0  0  0  0  0
  1  6  2  0
  2  1  1  0
  2  3  2  0
  3  4  1  0
  5  4  2  0
  6  5  1  0
  7  9  1  0
  7  2  1  0
  8  7  1  0
  8  9  1  0
 10 15  1  0
 10 11  1  0
 11 12  1  0
 11  1  1  0
 13 12  1  0
 14 16  1  0
 14 10  1  0
 14 13  1  0
  3 17  1  0
  5 18  1  0
  7 19  1  0
  8 20  1  0
  8 21  1  0
  9 22  1  0
  9 23  1  0
 10 24  1  6
 11 25  1  6
 13 26  1  0
 13 27  1  0
 14 28  1  1
 15 29  1  0
 16 30  1  0
M  ISO  8  17  14  18  14  19  13  20  13  21  13  22  13  23  13  24  13
M  ISO  6  25  13  26  13  27  13  28  13  29   3  30   3
M  END
>  <minimizedAffinity>  (1) 
-4.42053652

>  <minimizedRMSD>  (1) 
1.92127836

$$$$
