
     RDKit          3D

 29 30  0  0  0  0  0  0  0  0999 V2000
   46.2918   35.1603   42.5096 C   0  0  0  0  0  0  0  0  0  0  0  0
   46.8342   34.0928   43.2447 C   0  0  0  0  0  0  0  0  0  0  0  0
   46.3653   33.7946   44.5700 C   0  0  0  0  0  0  0  0  0  0  0  0
   45.3910   34.5922   45.0724 N   0  0  0  0  0  0  0  0  0  0  0  0
   44.9101   35.6021   44.3405 C   0  0  0  0  0  0  0  0  0  0  0  0
   45.3340   35.8909   43.0961 N   0  0  0  0  0  0  0  0  0  0  0  0
   47.8425   33.4054   42.5587 O   0  0  0  0  0  0  0  0  0  0  0  0
   50.3873   33.1868   41.8472 O   0  0  0  0  0  0  0  0  0  0  0  0
   49.3186   34.1853   42.1658 P   0  0  0  0  0  0  0  0  0  0  0  0
   49.1141   35.1566   40.8089 O   0  0  0  0  0  0  0  0  0  0  0  0
   49.8549   35.2310   43.3761 O   0  0  0  0  0  0  0  0  0  0  0  0
   46.9207   32.9541   44.8967 H   0  0  0  0  0  0  0  0  0  0  0  0
   44.1474   36.0754   44.9888 H   0  0  0  0  0  0  0  0  0  0  0  0
   49.9074   35.7418   40.7199 H   0  0  0  0  0  0  0  0  0  0  0  0
   49.4317   36.1368   43.2892 H   0  0  0  0  0  0  0  0  0  0  0  0
   44.0868   35.5659   40.9347 O   0  0  0  0  0  0  0  0  0  0  0  0
   45.1384   36.5073   40.7584 C   0  0  1  0  0  0  0  0  0  0  0  0
   46.3747   35.8135   41.1827 C   0  0  2  0  0  0  0  0  0  0  0  0
   46.4403   34.8308   40.1140 O   0  0  0  0  0  0  0  0  0  0  0  0
   46.5355   35.7126   39.0441 C   0  0  0  0  0  0  0  0  0  0  0  0
   45.3260   36.6081   39.2588 C   0  0  2  0  0  0  0  0  0  0  0  0
   45.5551   37.9021   38.8167 O   0  0  0  0  0  0  0  0  0  0  0  0
   44.2429   34.8576   40.2523 H   0  0  0  0  0  0  0  0  0  0  0  0
   44.8398   37.4137   41.2569 H   0  0  0  0  0  0  0  0  0  0  0  0
   47.3471   36.2943   40.9805 H   0  0  0  0  0  0  0  0  0  0  0  0
   47.4569   36.3206   39.0689 H   0  0  0  0  0  0  0  0  0  0  0  0
   46.4580   35.0989   38.1351 H   0  0  0  0  0  0  0  0  0  0  0  0
   44.4948   36.1868   38.6962 H   0  0  0  0  0  0  0  0  0  0  0  0
   45.0996   38.5615   39.3990 H   0  0  0  0  0  0  0  0  0  0  0  0
  1  6  1  0
  1  2  2  0
  2  3  1  0
  3  4  2  0
  5  4  1  0
  6  5  2  0
  7  2  1  0
  8  9  2  0
  9  7  1  0
  9 11  1  0
 10  9  1  0
  3 12  1  0
  5 13  1  0
 10 14  1  0
 11 15  1  0
 16 17  1  0
 17 18  1  0
 18 19  1  0
 19 20  1  0
 20 21  1  0
 21 22  1  0
 21 17  1  0
 16 23  1  0
 17 24  1  1
 18 25  1  1
 20 26  1  0
 20 27  1  0
 21 28  1  6
 22 29  1  0
  1 18  1  0
M  ISO  4  12  14  13  14  14   3  15   3
M  END
>  <DihAtoms>  (1) 
5,0,17,16

>  <DihDeg>  (1) 
64.80774982667215

$$$$
