
     RDKit          3D

 32 34  0  0  1  0  0  0  0  0999 V2000
   46.7140   34.7160   42.1160 C   0  0  0  0  0  0  0  0  0  0  0  0
   47.8930   35.3750   41.8480 C   0  0  0  0  0  0  0  0  0  0  0  0
   48.6080   35.2630   40.6800 C   0  0  0  0  0  0  0  0  0  0  0  0
   48.1290   34.4380   39.6940 C   0  0  0  0  0  0  0  0  0  0  0  0
   46.9410   33.7800   39.9760 C   0  0  0  0  0  0  0  0  0  0  0  0
   46.2810   33.9180   41.1240 N   0  0  0  0  0  0  0  0  0  0  0  0
   44.4710   35.9060   44.9170 C   0  0  0  0  0  0  0  0  0  0  0  0
   45.0920   35.9100   43.6530 C   0  0  0  0  0  0  0  0  0  0  0  0
   45.9850   34.8650   43.3740 C   0  0  0  0  0  0  0  0  0  0  0  0
   46.1870   33.9370   44.3280 N   0  0  0  0  0  0  0  0  0  0  0  0
   45.5840   33.9500   45.5330 C   0  0  0  0  0  0  0  0  0  0  0  0
   44.7210   34.9500   45.8150 N   0  0  0  0  0  0  0  0  0  0  0  0
   44.8230   32.8990   39.1730 C   0  0  2  0  0  0  0  0  0  0  0  0
   46.3390   32.8610   38.9720 C   0  0  1  0  0  0  0  0  0  0  0  0
   46.4490   33.3630   37.6810 O   0  0  0  0  0  0  0  0  0  0  0  0
   45.4650   32.7770   36.9210 C   0  0  0  0  0  0  0  0  0  0  0  0
   44.3490   32.3740   37.8360 C   0  0  2  0  0  0  0  0  0  0  0  0
   44.4300   34.2320   39.2930 O   0  0  0  0  0  0  0  0  0  0  0  0
   43.1270   32.9320   37.4660 O   0  0  0  0  0  0  0  0  0  0  0  0
   48.2923   36.0409   42.6272 H   0  0  0  0  0  0  0  0  0  0  0  0
   49.5443   35.8228   40.5385 H   0  0  0  0  0  0  0  0  0  0  0  0
   48.6555   34.3063   38.7372 H   0  0  0  0  0  0  0  0  0  0  0  0
   43.7635   36.7092   45.1704 H   0  0  0  0  0  0  0  0  0  0  0  0
   44.8854   36.6995   42.9155 H   0  0  0  0  0  0  0  0  0  0  0  0
   45.7905   33.1620   46.2722 H   0  0  0  0  0  0  0  0  0  0  0  0
   44.4497   32.3486   40.0492 H   0  0  0  0  0  0  0  0  0  0  0  0
   46.8323   31.8851   39.0917 H   0  0  0  0  0  0  0  0  0  0  0  0
   45.0942   33.4940   36.1737 H   0  0  0  0  0  0  0  0  0  0  0  0
   45.8630   31.8971   36.3944 H   0  0  0  0  0  0  0  0  0  0  0  0
   44.1560   31.2911   37.8278 H   0  0  0  0  0  0  0  0  0  0  0  0
   44.3597   34.4703   40.2513 H   0  0  0  0  0  0  0  0  0  0  0  0
   42.6121   33.1671   38.2782 H   0  0  0  0  0  0  0  0  0  0  0  0
  1  9  1  0
  2  1  2  0
  3  2  1  0
  4  5  1  0
  4  3  2  0
  5  6  2  0
  6  1  1  0
  7 12  2  0
  8  7  1  0
  9  8  2  0
  9 10  1  0
 10 11  2  0
 11 12  1  0
 13 18  1  0
 14 13  1  0
 14  5  1  0
 15 14  1  0
 16 15  1  0
 16 17  1  0
 17 19  1  0
 17 13  1  0
  2 20  1  0
  3 21  1  0
  4 22  1  0
  7 23  1  0
  8 24  1  0
 11 25  1  0
 13 26  1  1
 14 27  1  6
 16 28  1  0
 16 29  1  0
 17 30  1  1
 18 31  1  0
 19 32  1  0
M  ISO  8  20  14  21  14  22  14  23  14  24  14  25  14  26  13  27  13
M  ISO  5  28  13  29  13  30  13  31   3  32   3
M  END
>  <minimizedAffinity>  (1) 
-5.96833467

>  <minimizedRMSD>  (1) 
0.299840569

$$$$
