
     RDKit          3D

 30 32  0  0  0  0  0  0  0  0999 V2000
   44.5863   35.9066   44.3182 C   0  0  0  0  0  0  0  0  0  0  0  0
   45.3395   35.9141   43.1042 C   0  0  0  0  0  0  0  0  0  0  0  0
   46.2965   34.9251   43.0194 C   0  0  0  0  0  0  0  0  0  0  0  0
   46.4678   34.0247   44.0565 N   0  0  0  0  0  0  0  0  0  0  0  0
   45.7419   34.0470   45.1792 C   0  0  0  0  0  0  0  0  0  0  0  0
   44.7863   35.0067   45.3076 N   0  0  0  0  0  0  0  0  0  0  0  0
   47.0790   34.7973   41.7426 C   0  0  0  0  0  0  0  0  0  0  0  0
   48.4659   35.4617   41.8860 C   0  0  0  0  0  0  0  0  0  0  0  0
   48.2338   33.9308   41.7443 C   0  0  0  0  0  0  0  0  0  0  0  0
   43.8039   36.5252   44.6690 H   0  0  0  0  0  0  0  0  0  0  0  0
   46.0370   33.2592   45.8525 H   0  0  0  0  0  0  0  0  0  0  0  0
   46.6183   35.1706   40.7932 H   0  0  0  0  0  0  0  0  0  0  0  0
   48.8889   35.9066   40.9705 H   0  0  0  0  0  0  0  0  0  0  0  0
   48.7615   35.8321   42.8605 H   0  0  0  0  0  0  0  0  0  0  0  0
   48.5873   33.4608   40.7810 H   0  0  0  0  0  0  0  0  0  0  0  0
   48.5071   33.3398   42.6543 H   0  0  0  0  0  0  0  0  0  0  0  0
   46.2562   38.9184   42.7081 O   0  0  0  0  0  0  0  0  0  0  0  0
   45.0398   38.3702   42.6438 C   0  0  1  0  0  0  0  0  0  0  0  0
   44.9357   36.9369   42.1840 C   0  0  2  0  0  0  0  0  0  0  0  0
   43.5105   36.9296   42.1095 O   0  0  0  0  0  0  0  0  0  0  0  0
   43.0565   37.4316   43.3301 C   0  0  0  0  0  0  0  0  0  0  0  0
   44.1753   38.3489   43.8509 C   0  0  2  0  0  0  0  0  0  0  0  0
   43.6622   39.6280   44.1429 O   0  0  0  0  0  0  0  0  0  0  0  0
   46.8741   38.5255   42.0696 H   0  0  0  0  0  0  0  0  0  0  0  0
   44.4544   38.9423   41.8594 H   0  0  0  0  0  0  0  0  0  0  0  0
   45.2823   36.7829   41.1445 H   0  0  0  0  0  0  0  0  0  0  0  0
   42.8057   36.6450   44.0417 H   0  0  0  0  0  0  0  0  0  0  0  0
   42.2159   38.1057   43.0648 H   0  0  0  0  0  0  0  0  0  0  0  0
   44.6326   37.9051   44.7527 H   0  0  0  0  0  0  0  0  0  0  0  0
   43.4617   39.6155   45.1120 H   0  0  0  0  0  0  0  0  0  0  0  0
  1  6  2  0
  2  1  1  0
  3  2  2  0
  3  4  1  0
  4  5  2  0
  5  6  1  0
  7  8  1  0
  7  9  1  0
  7  3  1  0
  8  9  1  0
  1 10  1  0
  5 11  1  0
  7 12  1  0
  8 13  1  0
  8 14  1  0
  9 15  1  0
  9 16  1  0
 17 18  1  0
 18 19  1  0
 19 20  1  0
 20 21  1  0
 21 22  1  0
 22 23  1  0
 22 18  1  0
 17 24  1  0
 18 25  1  6
 19 26  1  6
 21 27  1  0
 21 28  1  0
 22 29  1  1
 23 30  1  0
  2 19  1  0
M  ISO  7  10  14  11  14  12  13  13  13  14  13  15  13  16  13
M  END
>  <DihAtoms>  (1) 
0,1,18,17

>  <DihDeg>  (1) 
-29.734610506311768

$$$$
