
     RDKit          3D

 49 51  0  0  1  0  0  0  0  0999 V2000
   40.7770   35.1390   41.9050 C   0  0  0  0  0  0  0  0  0  0  0  0
   40.2320   32.7520   42.2370 C   0  0  0  0  0  0  0  0  0  0  0  0
   40.2880   33.8180   41.3410 C   0  0  0  0  0  0  0  0  0  0  0  0
   39.9160   33.6070   40.0420 C   0  0  0  0  0  0  0  0  0  0  0  0
   39.5220   32.3720   39.7390 N   0  0  0  0  0  0  0  0  0  0  0  0
   39.4700   31.3640   40.5870 C   0  0  0  0  0  0  0  0  0  0  0  0
   39.8350   31.5210   41.9100 N   0  0  0  0  0  0  0  0  0  0  0  0
   39.0350   30.0910   40.1280 N   0  0  0  0  0  0  0  0  0  0  0  0
   41.2800   34.7420   38.4000 C   0  0  2  0  0  0  0  0  0  0  0  0
   39.9740   34.7270   39.1090 C   0  0  1  0  0  0  0  0  0  0  0  0
   39.1030   34.4290   38.0240 O   0  0  0  0  0  0  0  0  0  0  0  0
   39.4700   35.3750   37.0390 C   0  0  0  0  0  0  0  0  0  0  0  0
   40.9660   35.5650   37.1690 C   0  0  1  0  0  0  0  0  0  0  0  0
   41.4820   33.4240   37.9250 O   0  0  0  0  0  0  0  0  0  0  0  0
   41.3120   36.8790   37.4360 O   0  0  0  0  0  0  0  0  0  0  0  0
   42.0610   35.4100   41.5740 O   0  0  0  0  0  0  0  0  0  0  0  0
   43.2360   34.8800   42.0550 C   0  0  0  0  0  0  0  0  0  0  0  0
   44.1780   35.7790   42.3770 C   0  0  0  0  0  0  0  0  0  0  0  0
   45.5400   35.3970   42.9190 C   0  0  0  0  0  0  0  0  0  0  0  0
   45.4000   35.1710   44.2710 O   0  0  0  0  0  0  0  0  0  0  0  0
   45.2490   32.5400   43.8370 O   0  0  0  0  0  0  0  0  0  0  0  0
   45.9240   33.6220   44.6640 P   0  0  1  0  0  0  0  0  0  0  0  0
   47.5970   33.4850   44.3420 O   0  0  0  0  0  0  0  0  0  0  0  0
   45.7190   33.3060   46.2950 O   0  0  0  0  0  0  0  0  0  0  0  0
   46.8340   32.6860   46.8540 C   0  0  0  0  0  0  0  0  0  0  0  0
   46.7240   31.1940   47.0740 C   0  0  0  0  0  0  0  0  0  0  0  0
   46.6800   32.1580   48.2470 C   0  0  0  0  0  0  0  0  0  0  0  0
   40.1369   35.9449   41.5167 H   0  0  0  0  0  0  0  0  0  0  0  0
   40.7266   35.0686   43.0016 H   0  0  0  0  0  0  0  0  0  0  0  0
   40.5339   32.9371   43.2785 H   0  0  0  0  0  0  0  0  0  0  0  0
   38.9901   29.2958   40.7811 H   0  0  0  0  0  0  0  0  0  0  0  0
   38.7646   29.9638   39.1423 H   0  0  0  0  0  0  0  0  0  0  0  0
   42.1276   35.0991   39.0034 H   0  0  0  0  0  0  0  0  0  0  0  0
   39.7589   35.6436   39.6778 H   0  0  0  0  0  0  0  0  0  0  0  0
   38.9485   36.3278   37.2129 H   0  0  0  0  0  0  0  0  0  0  0  0
   39.1970   35.0291   36.0311 H   0  0  0  0  0  0  0  0  0  0  0  0
   41.4977   35.2850   36.2477 H   0  0  0  0  0  0  0  0  0  0  0  0
   41.5765   32.8071   38.6935 H   0  0  0  0  0  0  0  0  0  0  0  0
   41.3486   37.0181   38.4155 H   0  0  0  0  0  0  0  0  0  0  0  0
   43.3917   33.7969   42.1674 H   0  0  0  0  0  0  0  0  0  0  0  0
   43.9502   36.8465   42.2407 H   0  0  0  0  0  0  0  0  0  0  0  0
   45.8998   34.4845   42.4211 H   0  0  0  0  0  0  0  0  0  0  0  0
   46.2692   36.1995   42.7341 H   0  0  0  0  0  0  0  0  0  0  0  0
   48.0953   33.4442   45.1965 H   0  0  0  0  0  0  0  0  0  0  0  0
   47.5568   33.3481   46.3547 H   0  0  0  0  0  0  0  0  0  0  0  0
   45.8149   30.6561   46.7669 H   0  0  0  0  0  0  0  0  0  0  0  0
   47.3304   30.3166   46.8047 H   0  0  0  0  0  0  0  0  0  0  0  0
   47.5247   32.2072   48.9499 H   0  0  0  0  0  0  0  0  0  0  0  0
   45.9796   32.3428   49.0748 H   0  0  0  0  0  0  0  0  0  0  0  0
  3  1  1  0
  3  2  2  0
  4  3  1  0
  5  4  2  0
  5  6  1  0
  6  7  2  0
  7  2  1  0
  8  6  1  0
  9 14  1  0
  9 10  1  0
 10  4  1  0
 11 10  1  0
 12 13  1  0
 12 11  1  0
 13 15  1  0
 13  9  1  0
 16  1  1  0
 16 17  1  0
 17 18  2  0
 18 19  1  0
 19 20  1  0
 20 22  1  0
 22 21  2  0
 22 24  1  0
 23 22  1  0
 24 25  1  0
 25 26  1  0
 25 27  1  0
 26 27  1  0
  1 28  1  0
  1 29  1  0
  2 30  1  0
  8 31  1  0
  8 32  1  0
  9 33  1  1
 10 34  1  1
 12 35  1  0
 12 36  1  0
 13 37  1  6
 14 38  1  0
 15 39  1  0
 17 40  1  0
 18 41  1  0
 19 42  1  0
 19 43  1  0
 23 44  1  0
 25 45  1  0
 26 46  1  0
 26 47  1  0
 27 48  1  0
 27 49  1  0
M  ISO  8  28   8  29   8  30  14  33  13  34  13  35  13  36  13  37  13
M  ISO  8  38   3  39   3  42   8  43   8  44   3  45  13  46  13  47  13
M  ISO  2  48  13  49  13
M  END
>  <minimizedAffinity>  (1) 
-4.50899458

>  <minimizedRMSD>  (1) 
1.37838411

$$$$
