
     RDKit          3D

 29 30  0  0  0  0  0  0  0  0999 V2000
   46.2918   35.1603   42.5096 C   0  0  0  0  0  0  0  0  0  0  0  0
   46.8342   34.0928   43.2447 C   0  0  0  0  0  0  0  0  0  0  0  0
   46.3653   33.7946   44.5700 C   0  0  0  0  0  0  0  0  0  0  0  0
   45.3910   34.5922   45.0724 N   0  0  0  0  0  0  0  0  0  0  0  0
   44.9101   35.6021   44.3405 C   0  0  0  0  0  0  0  0  0  0  0  0
   45.3340   35.8909   43.0961 N   0  0  0  0  0  0  0  0  0  0  0  0
   47.8425   33.4054   42.5587 O   0  0  0  0  0  0  0  0  0  0  0  0
   50.3873   33.1868   41.8472 O   0  0  0  0  0  0  0  0  0  0  0  0
   49.3186   34.1853   42.1658 P   0  0  0  0  0  0  0  0  0  0  0  0
   49.1141   35.1566   40.8089 O   0  0  0  0  0  0  0  0  0  0  0  0
   49.8549   35.2310   43.3761 O   0  0  0  0  0  0  0  0  0  0  0  0
   46.9207   32.9541   44.8967 H   0  0  0  0  0  0  0  0  0  0  0  0
   44.1474   36.0754   44.9888 H   0  0  0  0  0  0  0  0  0  0  0  0
   49.9074   35.7418   40.7199 H   0  0  0  0  0  0  0  0  0  0  0  0
   49.4317   36.1368   43.2892 H   0  0  0  0  0  0  0  0  0  0  0  0
   48.2252   34.5183   40.6775 O   0  0  0  0  0  0  0  0  0  0  0  0
   47.0007   34.9874   40.1265 C   0  0  1  0  0  0  0  0  0  0  0  0
   46.3747   35.8135   41.1827 C   0  0  2  0  0  0  0  0  0  0  0  0
   47.3344   36.9049   41.1909 O   0  0  0  0  0  0  0  0  0  0  0  0
   47.1714   37.3174   39.8738 C   0  0  0  0  0  0  0  0  0  0  0  0
   47.4053   36.0282   39.1032 C   0  0  2  0  0  0  0  0  0  0  0  0
   46.6551   35.9781   37.9382 O   0  0  0  0  0  0  0  0  0  0  0  0
   48.8057   35.3225   40.7663 H   0  0  0  0  0  0  0  0  0  0  0  0
   46.4762   34.1292   39.7422 H   0  0  0  0  0  0  0  0  0  0  0  0
   45.4883   36.4184   40.9255 H   0  0  0  0  0  0  0  0  0  0  0  0
   46.1555   37.6960   39.6647 H   0  0  0  0  0  0  0  0  0  0  0  0
   47.9499   38.0723   39.6920 H   0  0  0  0  0  0  0  0  0  0  0  0
   48.4613   35.9818   38.8431 H   0  0  0  0  0  0  0  0  0  0  0  0
   46.3535   35.0534   37.7503 H   0  0  0  0  0  0  0  0  0  0  0  0
  1  6  1  0
  1  2  2  0
  2  3  1  0
  3  4  2  0
  5  4  1  0
  6  5  2  0
  7  2  1  0
  8  9  2  0
  9  7  1  0
  9 11  1  0
 10  9  1  0
  3 12  1  0
  5 13  1  0
 10 14  1  0
 11 15  1  0
 16 17  1  0
 17 18  1  0
 18 19  1  0
 19 20  1  0
 20 21  1  0
 21 22  1  0
 21 17  1  0
 16 23  1  0
 17 24  1  6
 18 25  1  6
 20 26  1  0
 20 27  1  0
 21 28  1  6
 22 29  1  0
  1 18  1  0
M  ISO  4  12  14  13  14  14   3  15   3
M  END
>  <DihAtoms>  (1) 
5,0,17,16

>  <DihDeg>  (1) 
64.80774982667215

$$$$
