
     RDKit          3D

 24 25  0  0  1  0  0  0  0  0999 V2000
   46.5720   33.5790   44.5020 C   0  0  0  0  0  0  0  0  0  0  0  0
   46.1140   33.3500   45.8100 C   0  0  0  0  0  0  0  0  0  0  0  0
   45.1040   34.2030   46.2830 C   0  0  0  0  0  0  0  0  0  0  0  0
   44.6340   35.1840   45.4670 N   0  0  0  0  0  0  0  0  0  0  0  0
   45.1070   35.3600   44.2210 C   0  0  0  0  0  0  0  0  0  0  0  0
   46.0650   34.5650   43.7460 N   0  0  0  0  0  0  0  0  0  0  0  0
   45.5670   31.4350   47.3210 C   0  0  2  0  0  0  0  0  0  0  0  0
   46.6460   32.2810   46.6620 C   0  0  2  0  0  0  0  0  0  0  0  0
   47.5100   32.6720   47.6450 O   0  0  0  0  0  0  0  0  0  0  0  0
   47.4080   31.7920   48.7070 C   0  0  0  0  0  0  0  0  0  0  0  0
   46.4450   30.6930   48.3230 C   0  0  1  0  0  0  0  0  0  0  0  0
   44.9060   30.6030   46.4560 O   0  0  0  0  0  0  0  0  0  0  0  0
   45.7410   30.2720   49.4430 O   0  0  0  0  0  0  0  0  0  0  0  0
   47.5570   32.7520   44.0260 O   0  0  0  0  0  0  0  0  0  0  0  0
   44.6991   34.0796   47.2983 H   0  0  0  0  0  0  0  0  0  0  0  0
   44.7010   36.1646   43.5903 H   0  0  0  0  0  0  0  0  0  0  0  0
   44.7249   31.9991   47.7485 H   0  0  0  0  0  0  0  0  0  0  0  0
   47.2114   31.6905   45.9260 H   0  0  0  0  0  0  0  0  0  0  0  0
   48.3953   31.3606   48.9284 H   0  0  0  0  0  0  0  0  0  0  0  0
   47.0441   32.3187   49.6015 H   0  0  0  0  0  0  0  0  0  0  0  0
   46.8940   29.7750   47.9159 H   0  0  0  0  0  0  0  0  0  0  0  0
   44.3803   29.9412   46.9715 H   0  0  0  0  0  0  0  0  0  0  0  0
   46.2199   30.5584   50.2607 H   0  0  0  0  0  0  0  0  0  0  0  0
   47.9090   32.8780   43.1093 H   0  0  0  0  0  0  0  0  0  0  0  0
  1  2  2  0
  2  3  1  0
  4  3  2  0
  5  4  1  0
  6  5  2  0
  6  1  1  0
  7 12  1  0
  7 11  1  0
  8  2  1  0
  8  7  1  0
  8  9  1  0
  9 10  1  0
 11 10  1  0
 11 13  1  0
 14  1  1  0
  3 15  1  0
  5 16  1  0
  7 17  1  1
  8 18  1  6
 10 19  1  0
 10 20  1  0
 11 21  1  6
 12 22  1  0
 13 23  1  0
 14 24  1  0
M  ISO  8  15  14  16  14  17  13  18  13  19  13  20  13  21  13  22   3
M  ISO  2  23   3  24   3
M  END
>  <minimizedAffinity>  (1) 
-4.74194908

>  <minimizedRMSD>  (1) 
6.33302689

$$$$
