
     RDKit          3D

 32 34  0  0  0  0  0  0  0  0999 V2000
   46.0712   34.7592   43.3891 C   0  0  0  0  0  0  0  0  0  0  0  0
   45.1721   35.7838   43.7812 C   0  0  0  0  0  0  0  0  0  0  0  0
   44.5714   35.6510   45.0443 C   0  0  0  0  0  0  0  0  0  0  0  0
   44.8833   34.5629   45.8062 N   0  0  0  0  0  0  0  0  0  0  0  0
   45.7584   33.6199   45.3567 C   0  0  0  0  0  0  0  0  0  0  0  0
   46.3569   33.6908   44.1730 N   0  0  0  0  0  0  0  0  0  0  0  0
   46.6580   34.9563   42.0955 C   0  0  0  0  0  0  0  0  0  0  0  0
   47.8265   35.4058   41.8849 O   0  0  0  0  0  0  0  0  0  0  0  0
   46.0641   32.4610   46.2522 C   0  0  1  0  0  0  0  0  0  0  0  0
   46.9959   32.6305   47.4101 C   0  0  0  0  0  0  0  0  0  0  0  0
   45.5251   32.6069   47.6388 C   0  0  2  0  0  0  0  0  0  0  0  0
   44.9549   36.6210   43.1536 H   0  0  0  0  0  0  0  0  0  0  0  0
   43.8864   36.3899   45.3938 H   0  0  0  0  0  0  0  0  0  0  0  0
   46.1213   34.7251   41.1636 H   0  0  0  0  0  0  0  0  0  0  0  0
   46.0164   31.5025   45.7372 H   0  0  0  0  0  0  0  0  0  0  0  0
   47.5770   33.5779   47.3886 H   0  0  0  0  0  0  0  0  0  0  0  0
   47.6012   31.7321   47.6571 H   0  0  0  0  0  0  0  0  0  0  0  0
   45.1301   33.6111   47.9640 H   0  0  0  0  0  0  0  0  0  0  0  0
   47.0426   30.4320   48.7600 O   0  0  0  0  0  0  0  0  0  0  0  0
   45.7626   30.1858   48.3243 C   0  0  2  0  0  0  0  0  0  0  0  0
   44.9653   31.4524   48.3876 C   0  0  1  0  0  0  0  0  0  0  0  0
   44.8959   31.6659   49.7612 O   0  0  0  0  0  0  0  0  0  0  0  0
   44.5793   30.4511   50.3193 C   0  0  0  0  0  0  0  0  0  0  0  0
   45.0075   29.3556   49.3706 C   0  0  2  0  0  0  0  0  0  0  0  0
   45.8899   28.4548   49.9371 O   0  0  0  0  0  0  0  0  0  0  0  0
   47.1508   30.2060   49.7193 H   0  0  0  0  0  0  0  0  0  0  0  0
   45.7319   29.6905   47.3406 H   0  0  0  0  0  0  0  0  0  0  0  0
   43.9585   31.2188   47.9924 H   0  0  0  0  0  0  0  0  0  0  0  0
   43.5185   30.4127   50.6064 H   0  0  0  0  0  0  0  0  0  0  0  0
   45.1954   30.2998   51.2493 H   0  0  0  0  0  0  0  0  0  0  0  0
   44.1081   28.8961   48.9473 H   0  0  0  0  0  0  0  0  0  0  0  0
   45.3905   27.6088   50.0583 H   0  0  0  0  0  0  0  0  0  0  0  0
  1  2  2  0
  1  6  1  0
  2  3  1  0
  3  4  2  0
  5  4  1  0
  5  9  1  0
  6  5  2  0
  7  1  1  0
  8  7  2  0
  9 10  1  0
  9 11  1  0
 10 11  1  0
  2 12  1  0
  3 13  1  0
  7 14  1  0
  9 15  1  6
 10 16  1  0
 10 17  1  0
 11 18  1  6
 19 20  1  0
 20 21  1  0
 21 22  1  0
 22 23  1  0
 23 24  1  0
 24 25  1  0
 24 20  1  0
 19 26  1  0
 20 27  1  6
 21 28  1  6
 23 29  1  0
 23 30  1  0
 24 31  1  6
 25 32  1  0
 11 21  1  0
M  ISO  7  12  14  13  14  14   6  15  13  16  13  17  13  18  13
M  END
>  <DihAtoms>  (1) 
8,10,20,19

>  <DihDeg>  (1) 
-60.26054325830561

$$$$
