
     RDKit          3D

 49 51  0  0  0  0  0  0  0  0999 V2000
   46.5736   34.9084   43.2482 O   0  0  0  0  0  0  0  0  0  0  0  0
   46.8024   33.9745   42.2294 C   0  0  1  0  0  0  0  0  0  0  0  0
   46.0747   34.4136   40.9553 C   0  0  0  0  0  0  0  0  0  0  0  0
   46.6907   33.4757   39.9463 C   0  0  0  0  0  0  0  0  0  0  0  0
   48.0784   33.1423   40.4763 C   0  0  0  0  0  0  0  0  0  0  0  0
   48.2167   33.9610   41.7420 C   0  0  1  0  0  0  0  0  0  0  0  0
   48.7606   35.3323   41.4600 C   0  0  0  0  0  0  0  0  0  0  0  0
   49.6550   35.7569   42.4178 O   0  0  0  0  0  0  0  0  0  0  0  0
   44.7278   35.3508   44.9949 O   0  0  0  0  0  0  0  0  0  0  0  0
   45.5776   34.2408   44.4123 P   0  0  1  0  0  0  0  0  0  0  0  0
   44.6066   33.0378   43.7182 O   0  0  0  0  0  0  0  0  0  0  0  0
   46.4724   33.4931   45.6035 O   0  0  0  0  0  0  0  0  0  0  0  0
   46.2310   32.1563   45.5707 C   0  0  0  0  0  0  0  0  0  0  0  0
   45.6519   31.8992   49.2368 C   0  0  0  0  0  0  0  0  0  0  0  0
   45.9879   32.4562   47.9920 C   0  0  0  0  0  0  0  0  0  0  0  0
   45.8823   31.6060   46.8913 C   0  0  0  0  0  0  0  0  0  0  0  0
   45.4704   30.3166   47.0753 N   0  0  0  0  0  0  0  0  0  0  0  0
   45.1555   29.8151   48.2886 C   0  0  0  0  0  0  0  0  0  0  0  0
   45.2486   30.6091   49.3580 N   0  0  0  0  0  0  0  0  0  0  0  0
   46.4463   32.9730   42.4583 H   0  0  0  0  0  0  0  0  0  0  0  0
   46.1723   35.4708   40.7332 H   0  0  0  0  0  0  0  0  0  0  0  0
   44.9826   34.1834   41.0510 H   0  0  0  0  0  0  0  0  0  0  0  0
   46.1041   32.5281   39.9605 H   0  0  0  0  0  0  0  0  0  0  0  0
   46.7231   33.8935   38.9373 H   0  0  0  0  0  0  0  0  0  0  0  0
   48.8677   33.3627   39.7268 H   0  0  0  0  0  0  0  0  0  0  0  0
   48.1777   32.0645   40.7149 H   0  0  0  0  0  0  0  0  0  0  0  0
   48.9006   33.4075   42.4440 H   0  0  0  0  0  0  0  0  0  0  0  0
   49.2960   35.2687   40.4871 H   0  0  0  0  0  0  0  0  0  0  0  0
   48.0021   36.1237   41.3585 H   0  0  0  0  0  0  0  0  0  0  0  0
   50.3386   36.3206   41.9734 H   0  0  0  0  0  0  0  0  0  0  0  0
   43.7288   33.4445   43.4674 H   0  0  0  0  0  0  0  0  0  0  0  0
   45.5268   31.7741   44.8381 H   0  0  0  0  0  0  0  0  0  0  0  0
   47.2155   31.6678   45.3042 H   0  0  0  0  0  0  0  0  0  0  0  0
   45.7179   32.5195   50.1215 H   0  0  0  0  0  0  0  0  0  0  0  0
   46.3019   33.4815   47.9444 H   0  0  0  0  0  0  0  0  0  0  0  0
   46.2810   27.3653   46.9549 O   0  0  0  0  0  0  0  0  0  0  0  0
   45.8511   27.4287   48.2776 C   0  0  1  0  0  0  0  0  0  0  0  0
   44.7281   28.4146   48.3433 C   0  0  1  0  0  0  0  0  0  0  0  0
   44.1103   28.0488   49.5384 O   0  0  0  0  0  0  0  0  0  0  0  0
   43.8772   26.6900   49.3229 C   0  0  0  0  0  0  0  0  0  0  0  0
   45.1078   26.1383   48.6338 C   0  0  1  0  0  0  0  0  0  0  0  0
   44.6840   25.4783   47.4834 O   0  0  0  0  0  0  0  0  0  0  0  0
   46.8576   28.1154   46.7433 H   0  0  0  0  0  0  0  0  0  0  0  0
   46.6651   27.5936   48.9926 H   0  0  0  0  0  0  0  0  0  0  0  0
   44.0109   28.1420   47.5412 H   0  0  0  0  0  0  0  0  0  0  0  0
   42.9918   26.6580   48.6400 H   0  0  0  0  0  0  0  0  0  0  0  0
   43.6616   26.1513   50.2677 H   0  0  0  0  0  0  0  0  0  0  0  0
   45.6718   25.4891   49.3058 H   0  0  0  0  0  0  0  0  0  0  0  0
   43.8645   25.8951   47.1148 H   0  0  0  0  0  0  0  0  0  0  0  0
 10  1  1  6
  2  1  1  0
  3  2  1  0
  4  5  1  0
  4  3  1  0
  5  6  1  0
  6  2  1  0
  7  6  1  0
  7  8  1  0
 10  9  2  0
 10 12  1  0
 11 10  1  0
 13 12  1  0
 13 16  1  0
 14 19  2  0
 15 14  1  0
 16 17  1  0
 16 15  2  0
 17 18  2  0
 18 19  1  0
  2 20  1  1
  3 21  1  0
  3 22  1  0
  4 23  1  0
  4 24  1  0
  5 25  1  0
  5 26  1  0
  6 27  1  1
  7 28  1  0
  7 29  1  0
  8 30  1  0
 11 31  1  0
 13 32  1  0
 13 33  1  0
 14 34  1  0
 15 35  1  0
 36 37  1  0
 37 38  1  0
 38 39  1  0
 39 40  1  0
 40 41  1  0
 41 42  1  0
 41 37  1  0
 36 43  1  0
 37 44  1  1
 38 45  1  6
 40 46  1  0
 40 47  1  0
 41 48  1  1
 42 49  1  0
 18 38  1  0
M  ISO  8  20  13  21  13  22  13  23  13  24  13  25  13  26  13  27  13
M  ISO  8  28   8  29   8  30   3  31   3  32   8  33   8  34  14  35  14
M  END
>  <DihAtoms>  (1) 
16,17,37,36

>  <DihDeg>  (1) 
-161.12696730576593

$$$$
