
     RDKit          3D

 32 34  0  0  1  0  0  0  0  0999 V2000
   45.7140   32.7270   44.2290 C   0  0  1  0  0  0  0  0  0  0  0  0
   47.1770   32.6460   44.5310 C   0  0  0  0  0  0  0  0  0  0  0  0
   46.2150   33.0010   45.6110 C   0  0  2  0  0  0  0  0  0  0  0  0
   44.0600   34.8790   41.7570 C   0  0  0  0  0  0  0  0  0  0  0  0
   44.1780   36.1790   42.3130 C   0  0  0  0  0  0  0  0  0  0  0  0
   44.8330   36.2810   43.5530 C   0  0  0  0  0  0  0  0  0  0  0  0
   45.3090   35.1430   44.1370 N   0  0  0  0  0  0  0  0  0  0  0  0
   45.1550   33.9300   43.5370 C   0  0  0  0  0  0  0  0  0  0  0  0
   44.5450   33.7710   42.3670 N   0  0  0  0  0  0  0  0  0  0  0  0
   43.3920   34.8420   40.4890 C   0  0  0  0  0  0  0  0  0  0  0  0
   43.6240   34.0020   39.5650 O   0  0  0  0  0  0  0  0  0  0  0  0
   47.2660   31.7020   47.5070 C   0  0  2  0  0  0  0  0  0  0  0  0
   46.0350   32.0250   46.7170 C   0  0  1  0  0  0  0  0  0  0  0  0
   45.1760   32.4740   47.7150 O   0  0  0  0  0  0  0  0  0  0  0  0
   45.2930   31.5780   48.7490 C   0  0  0  0  0  0  0  0  0  0  0  0
   46.6330   30.8880   48.6430 C   0  0  2  0  0  0  0  0  0  0  0  0
   47.8020   32.8640   48.0090 O   0  0  0  0  0  0  0  0  0  0  0  0
   47.4130   31.0330   49.7750 O   0  0  0  0  0  0  0  0  0  0  0  0
   45.0163   32.0339   43.7361 H   0  0  0  0  0  0  0  0  0  0  0  0
   47.6823   31.6690   44.5442 H   0  0  0  0  0  0  0  0  0  0  0  0
   48.0833   33.1096   44.1143 H   0  0  0  0  0  0  0  0  0  0  0  0
   46.0680   33.8360   46.3118 H   0  0  0  0  0  0  0  0  0  0  0  0
   43.7764   37.0645   41.7987 H   0  0  0  0  0  0  0  0  0  0  0  0
   44.9592   37.2580   44.0424 H   0  0  0  0  0  0  0  0  0  0  0  0
   42.6178   35.6006   40.3017 H   0  0  0  0  0  0  0  0  0  0  0  0
   48.0718   31.1959   46.9552 H   0  0  0  0  0  0  0  0  0  0  0  0
   45.6657   31.1583   46.1492 H   0  0  0  0  0  0  0  0  0  0  0  0
   45.2257   32.1102   49.7093 H   0  0  0  0  0  0  0  0  0  0  0  0
   44.4836   30.8351   48.6945 H   0  0  0  0  0  0  0  0  0  0  0  0
   46.5435   29.8017   48.4952 H   0  0  0  0  0  0  0  0  0  0  0  0
   47.7879   32.8334   48.9984 H   0  0  0  0  0  0  0  0  0  0  0  0
   46.8477   30.9279   50.5809 H   0  0  0  0  0  0  0  0  0  0  0  0
  1  2  1  0
  1  3  1  0
  2  3  1  0
  3 13  1  0
  4  5  2  0
  4  9  1  0
  5  6  1  0
  6  7  2  0
  8  7  1  0
  8  1  1  0
  9  8  2  0
 10  4  1  0
 11 10  2  0
 12 17  1  0
 12 16  1  0
 13 12  1  0
 13 14  1  0
 14 15  1  0
 16 15  1  0
 16 18  1  0
  1 19  1  1
  2 20  1  0
  2 21  1  0
  3 22  1  1
  5 23  1  0
  6 24  1  0
 10 25  1  0
 12 26  1  6
 13 27  1  6
 15 28  1  0
 15 29  1  0
 16 30  1  6
 17 31  1  0
 18 32  1  0
M  ISO  8  19  13  20  13  21  13  22  13  23  14  24  14  25   6  26  13
M  ISO  6  27  13  28  13  29  13  30  13  31   3  32   3
M  END
>  <minimizedAffinity>  (1) 
-5.19236088

>  <minimizedRMSD>  (1) 
2.65718961

$$$$
