
     RDKit          3D

 52 55  0  0  0  0  0  0  0  0999 V2000
   43.1994   33.2217   41.1667 C   0  0  0  0  0  0  0  0  0  0  0  0
   44.2290   34.0714   41.7878 C   0  0  0  0  0  0  0  0  0  0  0  0
   43.8819   35.2526   42.4010 C   0  0  0  0  0  0  0  0  0  0  0  0
   44.8852   36.0273   42.9631 C   0  0  0  0  0  0  0  0  0  0  0  0
   46.1758   35.5721   42.8796 N   0  0  0  0  0  0  0  0  0  0  0  0
   46.4710   34.4244   42.2804 C   0  0  0  0  0  0  0  0  0  0  0  0
   45.4878   33.6986   41.7460 N   0  0  0  0  0  0  0  0  0  0  0  0
   47.8718   34.0081   42.2602 C   0  0  0  0  0  0  0  0  0  0  0  0
   48.2148   32.6846   42.0051 C   0  0  0  0  0  0  0  0  0  0  0  0
   49.5302   32.2905   41.9935 C   0  0  0  0  0  0  0  0  0  0  0  0
   50.4278   33.3120   42.2521 C   0  0  0  0  0  0  0  0  0  0  0  0
   50.1387   34.6495   42.5129 C   0  0  0  0  0  0  0  0  0  0  0  0
   48.8164   34.9465   42.5040 N   0  0  0  0  0  0  0  0  0  0  0  0
   41.9036   33.9546   41.2062 C   0  0  0  0  0  0  0  0  0  0  0  0
   41.0010   33.4862   40.3513 N   0  0  0  0  0  0  0  0  0  0  0  0
   40.3256   32.2530   40.3334 C   0  0  0  0  0  0  0  0  0  0  0  0
   38.9393   32.7446   40.8128 C   0  0  0  0  0  0  0  0  0  0  0  0
   38.3355   33.7021   39.9014 C   0  0  0  0  0  0  0  0  0  0  0  0
   39.1746   34.5057   39.0392 C   0  0  0  0  0  0  0  0  0  0  0  0
   40.6571   34.4327   39.2646 C   0  0  0  0  0  0  0  0  0  0  0  0
   41.7753   35.4208   38.3338 S   0  0  0  0  0  0  0  0  0  0  0  0
   43.4818   32.9833   40.1246 H   0  0  0  0  0  0  0  0  0  0  0  0
   43.0816   32.2582   41.7244 H   0  0  0  0  0  0  0  0  0  0  0  0
   42.9475   35.7570   42.5787 H   0  0  0  0  0  0  0  0  0  0  0  0
   44.7991   36.9768   43.4793 H   0  0  0  0  0  0  0  0  0  0  0  0
   47.4518   31.9242   41.8076 H   0  0  0  0  0  0  0  0  0  0  0  0
   49.8899   31.3027   41.8085 H   0  0  0  0  0  0  0  0  0  0  0  0
   51.4923   33.0653   42.2577 H   0  0  0  0  0  0  0  0  0  0  0  0
   50.9105   35.3522   42.6990 H   0  0  0  0  0  0  0  0  0  0  0  0
   41.5414   33.9507   42.2568 H   0  0  0  0  0  0  0  0  0  0  0  0
   42.1984   35.0461   41.0361 H   0  0  0  0  0  0  0  0  0  0  0  0
   40.2820   31.6595   39.4363 H   0  0  0  0  0  0  0  0  0  0  0  0
   40.7084   31.5799   41.1427 H   0  0  0  0  0  0  0  0  0  0  0  0
   39.0505   33.1190   41.8444 H   0  0  0  0  0  0  0  0  0  0  0  0
   38.3414   31.7914   40.8953 H   0  0  0  0  0  0  0  0  0  0  0  0
   37.6774   34.4085   40.4856 H   0  0  0  0  0  0  0  0  0  0  0  0
   37.5950   33.1566   39.2460 H   0  0  0  0  0  0  0  0  0  0  0  0
   38.8726   35.1665   38.2696 H   0  0  0  0  0  0  0  0  0  0  0  0
   43.2414   36.9841   36.7895 O   0  0  0  0  0  0  0  0  0  0  0  0
   42.0091   36.9471   36.1336 C   0  0  2  0  0  0  0  0  0  0  0  0
   40.9532   36.4451   37.0957 C   0  0  1  0  0  0  0  0  0  0  0  0
   40.1113   35.6443   36.3414 O   0  0  0  0  0  0  0  0  0  0  0  0
   41.0395   34.8468   35.6387 C   0  0  0  0  0  0  0  0  0  0  0  0
   42.0230   35.8774   35.0735 C   0  0  2  0  0  0  0  0  0  0  0  0
   43.2721   35.2929   34.9322 O   0  0  0  0  0  0  0  0  0  0  0  0
   43.6379   36.0684   36.7040 H   0  0  0  0  0  0  0  0  0  0  0  0
   41.6996   37.9446   35.7698 H   0  0  0  0  0  0  0  0  0  0  0  0
   40.4176   37.2784   37.5939 H   0  0  0  0  0  0  0  0  0  0  0  0
   40.4914   34.3175   34.8328 H   0  0  0  0  0  0  0  0  0  0  0  0
   41.5664   34.1836   36.3251 H   0  0  0  0  0  0  0  0  0  0  0  0
   41.6151   36.2962   34.1313 H   0  0  0  0  0  0  0  0  0  0  0  0
   43.1814   34.3429   34.6547 H   0  0  0  0  0  0  0  0  0  0  0  0
  1 14  1  0
  1  2  1  0
  2  3  2  0
  3  4  1  0
  5  4  2  0
  6  5  1  0
  7  2  1  0
  7  6  2  0
  8  6  1  0
  8 13  1  0
  9  8  2  0
 10  9  1  0
 10 11  2  0
 11 12  1  0
 13 12  2  0
 15 14  1  0
 16 15  1  0
 16 17  1  0
 18 17  1  0
 19 20  2  0
 19 18  1  0
 20 15  1  0
 21 20  1  0
  1 22  1  0
  1 23  1  0
  3 24  1  0
  4 25  1  0
  9 26  1  0
 10 27  1  0
 11 28  1  0
 12 29  1  0
 14 30  1  0
 14 31  1  0
 16 32  1  0
 16 33  1  0
 17 34  1  0
 17 35  1  0
 18 36  1  0
 18 37  1  0
 19 38  1  0
 39 40  1  0
 40 41  1  0
 41 42  1  0
 42 43  1  0
 43 44  1  0
 44 45  1  0
 44 40  1  0
 39 46  1  0
 40 47  1  6
 41 48  1  1
 43 49  1  0
 43 50  1  0
 44 51  1  6
 45 52  1  0
 21 41  1  0
M  ISO  8  22   8  23   8  24  14  25  14  26  14  27  14  28  14  29  14
M  ISO  8  30   8  31   8  32  13  33  13  34  13  35  13  36  13  37  13
M  ISO  1  38  13
M  END
>  <DihAtoms>  (1) 
19,20,40,39

>  <DihDeg>  (1) 
-179.9980136145789

$$$$
