
     RDKit          3D

 37 40  0  0  1  0  0  0  0  0999 V2000
   47.9320   33.2500   40.2310 C   0  0  0  0  0  0  0  0  0  0  0  0
   49.2720   32.9530   40.5350 C   0  0  0  0  0  0  0  0  0  0  0  0
   49.6980   33.0590   41.8810 C   0  0  0  0  0  0  0  0  0  0  0  0
   48.7550   33.4480   42.7900 N   0  0  0  0  0  0  0  0  0  0  0  0
   47.4790   33.7240   42.4610 C   0  0  0  0  0  0  0  0  0  0  0  0
   47.0900   33.6210   41.1910 N   0  0  0  0  0  0  0  0  0  0  0  0
   46.5620   34.1230   43.4790 N   0  0  0  0  0  0  0  0  0  0  0  0
   45.6670   35.1210   43.4190 C   0  0  0  0  0  0  0  0  0  0  0  0
   44.9920   35.1630   44.5980 N   0  0  0  0  0  0  0  0  0  0  0  0
   45.4960   34.1780   45.3640 C   0  0  0  0  0  0  0  0  0  0  0  0
   45.2240   33.7330   46.6400 C   0  0  0  0  0  0  0  0  0  0  0  0
   45.8790   32.7140   47.1830 N   0  0  0  0  0  0  0  0  0  0  0  0
   46.8530   32.0480   46.5250 C   0  0  0  0  0  0  0  0  0  0  0  0
   47.1110   32.4900   45.2820 N   0  0  0  0  0  0  0  0  0  0  0  0
   46.4830   33.5090   44.6850 C   0  0  0  0  0  0  0  0  0  0  0  0
   44.2300   34.3360   47.4450 N   0  0  0  0  0  0  0  0  0  0  0  0
   47.5320   33.0900   38.4910 S   0  0  0  0  0  0  0  0  0  0  0  0
   45.2330   32.7910   36.9910 C   0  0  1  0  0  0  0  0  0  0  0  0
   45.8080   32.6340   38.3760 C   0  0  1  0  0  0  0  0  0  0  0  0
   45.5790   31.2950   38.6580 O   0  0  0  0  0  0  0  0  0  0  0  0
   44.3540   30.9590   38.1600 C   0  0  0  0  0  0  0  0  0  0  0  0
   43.9780   31.9550   37.1040 C   0  0  2  0  0  0  0  0  0  0  0  0
   44.9520   34.1060   36.6480 O   0  0  0  0  0  0  0  0  0  0  0  0
   43.6510   31.3450   35.8930 O   0  0  0  0  0  0  0  0  0  0  0  0
   49.9733   32.6454   39.7454 H   0  0  0  0  0  0  0  0  0  0  0  0
   50.7338   32.8397   42.1793 H   0  0  0  0  0  0  0  0  0  0  0  0
   45.5068   35.7911   42.5615 H   0  0  0  0  0  0  0  0  0  0  0  0
   47.3964   31.2038   46.9746 H   0  0  0  0  0  0  0  0  0  0  0  0
   44.0506   33.9800   48.3947 H   0  0  0  0  0  0  0  0  0  0  0  0
   43.6854   35.1312   47.0816 H   0  0  0  0  0  0  0  0  0  0  0  0
   45.9270   32.4812   36.1957 H   0  0  0  0  0  0  0  0  0  0  0  0
   45.3397   33.3121   39.1046 H   0  0  0  0  0  0  0  0  0  0  0  0
   44.3960   29.9513   37.7210 H   0  0  0  0  0  0  0  0  0  0  0  0
   43.6057   30.9651   38.9662 H   0  0  0  0  0  0  0  0  0  0  0  0
   43.0799   32.5374   37.3573 H   0  0  0  0  0  0  0  0  0  0  0  0
   44.8370   34.6443   37.4709 H   0  0  0  0  0  0  0  0  0  0  0  0
   43.1908   30.4865   36.0696 H   0  0  0  0  0  0  0  0  0  0  0  0
  1  2  2  0
  1  6  1  0
  2  3  1  0
  3  4  2  0
  5  4  1  0
  5  7  1  0
  6  5  2  0
  7 15  1  0
  8  7  1  0
  8  9  2  0
  9 10  1  0
 10 11  2  0
 11 12  1  0
 11 16  1  0
 13 12  2  0
 14 13  1  0
 15 14  2  0
 15 10  1  0
 17  1  1  0
 18 23  1  0
 18 22  1  0
 18 19  1  0
 19 17  1  0
 19 20  1  0
 21 20  1  0
 22 24  1  0
 22 21  1  0
  2 25  1  0
  3 26  1  0
  8 27  1  0
 13 28  1  0
 16 29  1  0
 16 30  1  0
 18 31  1  6
 19 32  1  1
 21 33  1  0
 21 34  1  0
 22 35  1  1
 23 36  1  0
 24 37  1  0
M  ISO  8  25  14  26  14  27  14  28  14  31  13  32  13  33  13  34  13
M  ISO  3  35  13  36   3  37   3
M  END
>  <minimizedAffinity>  (1) 
-6.27663279

>  <minimizedRMSD>  (1) 
0.922219515

$$$$
