
     RDKit          3D

 30 32  0  0  1  0  0  0  0  0999 V2000
   45.5790   33.4610   43.8760 C   0  0  0  0  0  0  0  0  0  0  0  0
   46.9590   33.5020   44.1200 C   0  0  0  0  0  0  0  0  0  0  0  0
   47.1390   32.9490   45.3700 C   0  0  0  0  0  0  0  0  0  0  0  0
   45.9480   32.5910   45.8630 N   0  0  0  0  0  0  0  0  0  0  0  0
   45.0370   32.9130   44.9410 N   0  0  0  0  0  0  0  0  0  0  0  0
   43.5950   35.5220   41.6020 C   0  0  0  0  0  0  0  0  0  0  0  0
   43.7890   34.9090   40.3520 C   0  0  0  0  0  0  0  0  0  0  0  0
   44.6160   33.7740   40.3070 C   0  0  0  0  0  0  0  0  0  0  0  0
   45.1610   33.3590   41.4750 N   0  0  0  0  0  0  0  0  0  0  0  0
   44.9640   33.9550   42.6520 C   0  0  0  0  0  0  0  0  0  0  0  0
   44.1700   35.0560   42.7350 N   0  0  0  0  0  0  0  0  0  0  0  0
   46.8590   31.9570   48.0540 C   0  0  1  0  0  0  0  0  0  0  0  0
   45.6580   31.9860   47.1130 C   0  0  2  0  0  0  0  0  0  0  0  0
   45.3430   30.6480   47.0830 O   0  0  0  0  0  0  0  0  0  0  0  0
   45.2740   30.2850   48.4170 C   0  0  0  0  0  0  0  0  0  0  0  0
   46.2520   31.1500   49.1860 C   0  0  2  0  0  0  0  0  0  0  0  0
   47.9020   31.2290   47.4820 O   0  0  0  0  0  0  0  0  0  0  0  0
   45.5880   32.0150   50.0340 O   0  0  0  0  0  0  0  0  0  0  0  0
   47.7387   33.8950   43.4509 H   0  0  0  0  0  0  0  0  0  0  0  0
   48.1056   32.8226   45.8796 H   0  0  0  0  0  0  0  0  0  0  0  0
   42.9525   36.4129   41.6614 H   0  0  0  0  0  0  0  0  0  0  0  0
   43.3112   35.3032   39.4430 H   0  0  0  0  0  0  0  0  0  0  0  0
   44.8124   33.2449   39.3628 H   0  0  0  0  0  0  0  0  0  0  0  0
   47.2760   32.9394   48.3203 H   0  0  0  0  0  0  0  0  0  0  0  0
   44.8123   32.6136   47.4306 H   0  0  0  0  0  0  0  0  0  0  0  0
   44.2541   30.4464   48.7960 H   0  0  0  0  0  0  0  0  0  0  0  0
   45.5258   29.2211   48.5382 H   0  0  0  0  0  0  0  0  0  0  0  0
   46.9574   30.5793   49.8078 H   0  0  0  0  0  0  0  0  0  0  0  0
   48.4627   30.8376   48.1979 H   0  0  0  0  0  0  0  0  0  0  0  0
   45.7783   31.7671   50.9734 H   0  0  0  0  0  0  0  0  0  0  0  0
  1  2  1  0
  1  5  2  0
  2  3  2  0
  3  4  1  0
  5  4  1  0
  6 11  2  0
  7  6  1  0
  8  7  2  0
  8  9  1  0
  9 10  2  0
 10 11  1  0
 10  1  1  0
 12 17  1  0
 12 16  1  0
 13  4  1  0
 13 12  1  0
 14 13  1  0
 14 15  1  0
 15 16  1  0
 16 18  1  0
  2 19  1  0
  3 20  1  0
  6 21  1  0
  7 22  1  0
  8 23  1  0
 12 24  1  1
 13 25  1  1
 15 26  1  0
 15 27  1  0
 16 28  1  1
 17 29  1  0
 18 30  1  0
M  ISO  8  19  14  20  14  21  14  22  14  23  14  24  13  25  13  26  13
M  ISO  4  27  13  28  13  29   3  30   3
M  END
>  <minimizedAffinity>  (1) 
-4.21886778

>  <minimizedRMSD>  (1) 
3.10748219

$$$$
