
     RDKit          3D

 42 44  0  0  1  0  0  0  0  0999 V2000
   47.2920   30.5710   48.3290 C   0  0  2  0  0  0  0  0  0  0  0  0
   45.8660   30.8060   48.6420 C   0  0  2  0  0  0  0  0  0  0  0  0
   45.1520   29.8280   47.7800 C   0  0  0  0  0  0  0  0  0  0  0  0
   45.9900   28.7430   47.5950 O   0  0  0  0  0  0  0  0  0  0  0  0
   47.2210   29.0480   48.0830 C   0  0  0  0  0  0  0  0  0  0  0  0
   45.4540   32.1030   48.4430 O   0  0  0  0  0  0  0  0  0  0  0  0
   47.2990   32.8800   46.8370 O   0  0  0  0  0  0  0  0  0  0  0  0
   45.8250   32.5830   46.8940 P   0  0  1  0  0  0  0  0  0  0  0  0
   45.4840   31.3240   45.8130 O   0  0  0  0  0  0  0  0  0  0  0  0
   44.9980   34.0060   46.4370 O   0  0  0  0  0  0  0  0  0  0  0  0
   44.9630   36.3630   43.7610 C   0  0  0  0  0  0  0  0  0  0  0  0
   45.0280   35.5630   42.5850 C   0  0  0  0  0  0  0  0  0  0  0  0
   45.0840   34.1670   42.7770 C   0  0  0  0  0  0  0  0  0  0  0  0
   45.0730   33.6920   44.0430 N   0  0  0  0  0  0  0  0  0  0  0  0
   45.0100   34.4930   45.1260 C   0  0  0  0  0  0  0  0  0  0  0  0
   44.9560   35.8250   44.9760 N   0  0  0  0  0  0  0  0  0  0  0  0
   44.9070   37.7250   43.5700 O   0  0  0  0  0  0  0  0  0  0  0  0
   48.1470   30.8820   49.3600 O   0  0  0  0  0  0  0  0  0  0  0  0
   50.1590   30.0040   50.1690 C   0  0  1  0  0  0  0  0  0  0  0  0
   49.4650   30.9340   49.1800 C   0  0  2  0  0  0  0  0  0  0  0  0
   49.9090   32.1750   49.6490 O   0  0  0  0  0  0  0  0  0  0  0  0
   51.3030   31.9720   49.5180 C   0  0  0  0  0  0  0  0  0  0  0  0
   51.4780   30.7220   50.3630 C   0  0  1  0  0  0  0  0  0  0  0  0
   49.4620   29.8670   51.3400 O   0  0  0  0  0  0  0  0  0  0  0  0
   51.5820   31.0520   51.7230 O   0  0  0  0  0  0  0  0  0  0  0  0
   47.6895   31.1860   47.5082 H   0  0  0  0  0  0  0  0  0  0  0  0
   45.6553   30.6618   49.7120 H   0  0  0  0  0  0  0  0  0  0  0  0
   44.2222   29.5044   48.2707 H   0  0  0  0  0  0  0  0  0  0  0  0
   44.8911   30.2836   46.8134 H   0  0  0  0  0  0  0  0  0  0  0  0
   47.3875   28.5120   49.0290 H   0  0  0  0  0  0  0  0  0  0  0  0
   47.9953   28.7481   47.3615 H   0  0  0  0  0  0  0  0  0  0  0  0
   45.2619   30.5039   46.3211 H   0  0  0  0  0  0  0  0  0  0  0  0
   45.0342   36.0101   41.5800 H   0  0  0  0  0  0  0  0  0  0  0  0
   45.1354   33.4815   41.9182 H   0  0  0  0  0  0  0  0  0  0  0  0
   44.9138   38.0969   42.6525 H   0  0  0  0  0  0  0  0  0  0  0  0
   50.2571   28.9666   49.8165 H   0  0  0  0  0  0  0  0  0  0  0  0
   49.6704   30.7092   48.1230 H   0  0  0  0  0  0  0  0  0  0  0  0
   51.5921   31.7987   48.4709 H   0  0  0  0  0  0  0  0  0  0  0  0
   51.9230   32.8264   49.8273 H   0  0  0  0  0  0  0  0  0  0  0  0
   52.3740   30.1484   50.0834 H   0  0  0  0  0  0  0  0  0  0  0  0
   50.0771   29.9879   52.1062 H   0  0  0  0  0  0  0  0  0  0  0  0
   51.3346   30.2669   52.2729 H   0  0  0  0  0  0  0  0  0  0  0  0
  1  2  1  0
  1 18  1  0
  3  2  1  0
  4  3  1  0
  4  5  1  0
  5  1  1  0
  6  2  1  0
  8  7  2  0
  8  6  1  0
  9  8  1  0
 10  8  1  0
 11 16  2  0
 12 13  2  0
 12 11  1  0
 13 14  1  0
 14 15  2  0
 15 10  1  0
 16 15  1  0
 17 11  1  0
 19 23  1  0
 19 24  1  0
 20 18  1  0
 20 21  1  0
 20 19  1  0
 22 21  1  0
 22 23  1  0
 23 25  1  0
  1 26  1  6
  2 27  1  1
  3 28  1  0
  3 29  1  0
  5 30  1  0
  5 31  1  0
  9 32  1  0
 12 33  1  0
 13 34  1  0
 17 35  1  0
 19 36  1  6
 20 37  1  6
 22 38  1  0
 22 39  1  0
 23 40  1  6
 24 41  1  0
 25 42  1  0
M  ISO  8  26  13  27  13  28  13  29  13  30  13  31  13  32   3  33  14
M  ISO  8  34  14  35   3  36  13  37  13  38  13  39  13  40  13  41   3
M  ISO  1  42   3
M  END
>  <minimizedAffinity>  (1) 
-5.56608057

>  <minimizedRMSD>  (1) 
1.17230272

$$$$
