
     RDKit          3D

 32 33  0  0  0  0  0  0  0  0999 V2000
   47.1576   33.9780   42.4665 C   0  0  0  0  0  0  0  0  0  0  0  0
   45.3001   34.2350   45.6984 C   0  0  0  0  0  0  0  0  0  0  0  0
   46.1762   33.7376   44.7135 C   0  0  0  0  0  0  0  0  0  0  0  0
   46.2566   34.4583   43.5241 C   0  0  0  0  0  0  0  0  0  0  0  0
   45.4981   35.6038   43.3518 N   0  0  0  0  0  0  0  0  0  0  0  0
   44.6726   36.0227   44.3512 C   0  0  0  0  0  0  0  0  0  0  0  0
   44.5826   35.3493   45.4912 N   0  0  0  0  0  0  0  0  0  0  0  0
   48.3109   33.4187   43.0126 O   0  0  0  0  0  0  0  0  0  0  0  0
   50.6595   33.1036   41.8973 O   0  0  0  0  0  0  0  0  0  0  0  0
   49.6336   34.1425   42.2417 P   0  0  2  0  0  0  0  0  0  0  0  0
   50.2069   35.3657   43.2466 O   0  0  0  0  0  0  0  0  0  0  0  0
   49.0663   34.8108   40.7921 O   0  0  0  0  0  0  0  0  0  0  0  0
   47.3582   34.8261   41.7774 H   0  0  0  0  0  0  0  0  0  0  0  0
   46.6725   33.2028   41.8080 H   0  0  0  0  0  0  0  0  0  0  0  0
   45.2501   33.6677   46.6089 H   0  0  0  0  0  0  0  0  0  0  0  0
   46.7637   32.8444   44.8555 H   0  0  0  0  0  0  0  0  0  0  0  0
   44.0623   36.9071   44.2660 H   0  0  0  0  0  0  0  0  0  0  0  0
   50.4215   34.9683   44.1157 H   0  0  0  0  0  0  0  0  0  0  0  0
   49.5262   34.6754   37.7411 O   0  0  0  0  0  0  0  0  0  0  0  0
   50.3943   34.4337   38.8200 C   0  0  2  0  0  0  0  0  0  0  0  0
   50.0737   35.3138   39.9897 C   0  0  2  0  0  0  0  0  0  0  0  0
   51.2796   35.4271   40.6497 O   0  0  0  0  0  0  0  0  0  0  0  0
   52.2127   35.6747   39.6564 C   0  0  0  0  0  0  0  0  0  0  0  0
   51.7784   34.9066   38.4370 C   0  0  2  0  0  0  0  0  0  0  0  0
   51.7701   35.7093   37.2965 O   0  0  0  0  0  0  0  0  0  0  0  0
   48.8313   33.9710   37.7874 H   0  0  0  0  0  0  0  0  0  0  0  0
   50.3691   33.3665   39.0816 H   0  0  0  0  0  0  0  0  0  0  0  0
   49.7467   36.2914   39.6248 H   0  0  0  0  0  0  0  0  0  0  0  0
   52.2699   36.7556   39.4336 H   0  0  0  0  0  0  0  0  0  0  0  0
   53.2256   35.3318   39.9570 H   0  0  0  0  0  0  0  0  0  0  0  0
   52.4606   34.0639   38.2075 H   0  0  0  0  0  0  0  0  0  0  0  0
   52.6491   35.6932   36.8611 H   0  0  0  0  0  0  0  0  0  0  0  0
  1  8  1  0
  1  4  1  0
  3  2  2  0
  4  3  1  0
  5  4  2  0
  5  6  1  0
  6  7  2  0
  7  2  1  0
  9 10  2  0
 10  8  1  1
 10 11  1  0
 12 10  1  0
  1 13  1  0
  1 14  1  0
  2 15  1  0
  3 16  1  0
  6 17  1  0
 11 18  1  0
 19 20  1  0
 20 21  1  0
 21 22  1  0
 22 23  1  0
 23 24  1  0
 24 25  1  0
 24 20  1  0
 19 26  1  0
 20 27  1  1
 21 28  1  6
 23 29  1  0
 23 30  1  0
 24 31  1  6
 25 32  1  0
 12 21  1  0
M  ISO  6  13   8  14   8  15  14  16  14  17  14  18   3
M  END
>  <DihAtoms>  (1) 
9,11,20,19

>  <DihDeg>  (1) 
-120.72021526045812

$$$$
