
     RDKit          3D

 47 49  0  0  0  0  0  0  0  0999 V2000
   43.8755   35.2337   41.1975 C   0  0  0  0  0  0  0  0  0  0  0  0
   43.9573   35.5805   42.4795 C   0  0  0  0  0  0  0  0  0  0  0  0
   45.2326   35.5380   43.3027 C   0  0  0  0  0  0  0  0  0  0  0  0
   45.0093   34.6578   44.3434 O   0  0  0  0  0  0  0  0  0  0  0  0
   45.7093   32.4992   42.9498 O   0  0  0  0  0  0  0  0  0  0  0  0
   46.0017   33.3026   44.1959 P   0  0  1  0  0  0  0  0  0  0  0  0
   47.6338   33.7905   44.1009 O   0  0  0  0  0  0  0  0  0  0  0  0
   45.8614   32.3248   45.5627 O   0  0  0  0  0  0  0  0  0  0  0  0
   46.1965   32.9877   46.7239 C   0  0  0  0  0  0  0  0  0  0  0  0
   47.0516   32.2935   47.7395 C   0  0  0  0  0  0  0  0  0  0  0  0
   45.5595   32.4576   47.9841 C   0  0  0  0  0  0  0  0  0  0  0  0
   42.6233   35.3365   40.6161 O   0  0  0  0  0  0  0  0  0  0  0  0
   41.4446   35.6516   41.2117 C   0  0  0  0  0  0  0  0  0  0  0  0
   40.2857   33.5354   41.5821 C   0  0  0  0  0  0  0  0  0  0  0  0
   40.3153   34.7341   40.8472 C   0  0  0  0  0  0  0  0  0  0  0  0
   39.3488   34.9475   39.9223 C   0  0  0  0  0  0  0  0  0  0  0  0
   38.4297   33.9793   39.7857 N   0  0  0  0  0  0  0  0  0  0  0  0
   38.3904   32.8545   40.4667 C   0  0  0  0  0  0  0  0  0  0  0  0
   39.3618   32.5831   41.4313 N   0  0  0  0  0  0  0  0  0  0  0  0
   44.7240   34.8979   40.6591 H   0  0  0  0  0  0  0  0  0  0  0  0
   43.1997   35.9406   43.1593 H   0  0  0  0  0  0  0  0  0  0  0  0
   45.5452   36.5337   43.6293 H   0  0  0  0  0  0  0  0  0  0  0  0
   46.0577   35.1460   42.6634 H   0  0  0  0  0  0  0  0  0  0  0  0
   47.7432   34.7506   44.3712 H   0  0  0  0  0  0  0  0  0  0  0  0
   46.2700   34.0833   46.6317 H   0  0  0  0  0  0  0  0  0  0  0  0
   47.6882   32.9520   48.3660 H   0  0  0  0  0  0  0  0  0  0  0  0
   47.4583   31.3043   47.4946 H   0  0  0  0  0  0  0  0  0  0  0  0
   45.2282   33.1610   48.7719 H   0  0  0  0  0  0  0  0  0  0  0  0
   45.0128   31.5079   47.9610 H   0  0  0  0  0  0  0  0  0  0  0  0
   41.4089   35.6749   42.3249 H   0  0  0  0  0  0  0  0  0  0  0  0
   41.1063   36.6632   40.8806 H   0  0  0  0  0  0  0  0  0  0  0  0
   41.0337   33.3146   42.3323 H   0  0  0  0  0  0  0  0  0  0  0  0
   39.4026   35.8636   39.3852 H   0  0  0  0  0  0  0  0  0  0  0  0
   35.5528   32.4791   41.7375 O   0  0  0  0  0  0  0  0  0  0  0  0
   35.9513   32.2954   40.4167 C   0  0  1  0  0  0  0  0  0  0  0  0
   37.3528   31.7988   40.2899 C   0  0  1  0  0  0  0  0  0  0  0  0
   37.3597   31.3069   38.9746 O   0  0  0  0  0  0  0  0  0  0  0  0
   36.2324   30.5231   38.9181 C   0  0  0  0  0  0  0  0  0  0  0  0
   35.1852   31.1043   39.8257 C   0  0  1  0  0  0  0  0  0  0  0  0
   34.9986   30.2091   40.8833 O   0  0  0  0  0  0  0  0  0  0  0  0
   34.8386   33.1487   41.8329 H   0  0  0  0  0  0  0  0  0  0  0  0
   35.7554   33.1746   39.8028 H   0  0  0  0  0  0  0  0  0  0  0  0
   37.5077   30.9353   40.9327 H   0  0  0  0  0  0  0  0  0  0  0  0
   35.8921   30.5055   37.8503 H   0  0  0  0  0  0  0  0  0  0  0  0
   36.5393   29.4852   39.2309 H   0  0  0  0  0  0  0  0  0  0  0  0
   34.2532   31.3952   39.3425 H   0  0  0  0  0  0  0  0  0  0  0  0
   35.6597   30.3328   41.6197 H   0  0  0  0  0  0  0  0  0  0  0  0
  1  2  2  0
  2  3  1  0
  3  4  1  0
  6  5  2  0
  6  4  1  1
  6  8  1  0
  7  6  1  0
  8  9  1  0
  9 10  1  0
  9 11  1  0
 10 11  1  0
 12  1  1  0
 12 13  1  0
 15 13  1  0
 15 14  2  0
 16 15  1  0
 17 16  2  0
 17 18  1  0
 18 19  2  0
 19 14  1  0
  1 20  1  0
  2 21  1  0
  3 22  1  0
  3 23  1  0
  7 24  1  0
  9 25  1  0
 10 26  1  0
 10 27  1  0
 11 28  1  0
 11 29  1  0
 13 30  1  0
 13 31  1  0
 14 32  1  0
 16 33  1  0
 34 35  1  0
 35 36  1  0
 36 37  1  0
 37 38  1  0
 38 39  1  0
 39 40  1  0
 39 35  1  0
 34 41  1  0
 35 42  1  6
 36 43  1  1
 38 44  1  0
 38 45  1  0
 39 46  1  6
 40 47  1  0
 18 36  1  0
M  ISO  8  22   8  23   8  24   3  25  13  26  13  27  13  28  13  29  13
M  ISO  4  30   8  31   8  32  14  33  14
M  END
>  <DihAtoms>  (1) 
16,17,35,34

>  <DihDeg>  (1) 
111.01155347198518

$$$$
