
     RDKit          3D

 45 48  0  0  0  0  0  0  0  0999 V2000
   48.0791   35.4735   41.8069 C   0  0  1  0  0  0  0  0  0  0  0  0
   49.3183   34.6998   41.6904 C   0  0  0  0  0  0  0  0  0  0  0  0
   48.4834   35.0787   40.4551 C   0  0  1  0  0  0  0  0  0  0  0  0
   46.0528   32.9322   43.7535 C   0  0  0  0  0  0  0  0  0  0  0  0
   47.1488   33.6137   43.2311 C   0  0  0  0  0  0  0  0  0  0  0  0
   46.9165   34.7255   42.3966 C   0  0  0  0  0  0  0  0  0  0  0  0
   45.6362   35.1037   42.1229 N   0  0  0  0  0  0  0  0  0  0  0  0
   44.5871   34.4147   42.6504 C   0  0  0  0  0  0  0  0  0  0  0  0
   44.7957   33.3337   43.4622 N   0  0  0  0  0  0  0  0  0  0  0  0
   47.7631   34.1403   39.8102 O   0  0  0  0  0  0  0  0  0  0  0  0
   48.5163   32.3994   37.9897 O   0  0  0  0  0  0  0  0  0  0  0  0
   48.0963   33.8470   38.2360 P   0  0  2  0  0  0  0  0  0  0  0  0
   49.3260   34.7998   37.5764 O   0  0  0  0  0  0  0  0  0  0  0  0
   46.7356   34.0649   37.2772 O   0  0  0  0  0  0  0  0  0  0  0  0
   45.7862   33.0844   37.0309 C   0  0  0  0  0  0  0  0  0  0  0  0
   45.6598   32.2875   35.9109 C   0  0  0  0  0  0  0  0  0  0  0  0
   44.6661   31.3613   35.8143 C   0  0  0  0  0  0  0  0  0  0  0  0
   43.7661   31.2028   36.8367 C   0  0  0  0  0  0  0  0  0  0  0  0
   43.9243   32.0265   37.9554 C   0  0  0  0  0  0  0  0  0  0  0  0
   44.9113   32.9406   38.0421 N   0  0  0  0  0  0  0  0  0  0  0  0
   48.1404   36.5485   42.0796 H   0  0  0  0  0  0  0  0  0  0  0  0
   49.3360   33.6030   41.8437 H   0  0  0  0  0  0  0  0  0  0  0  0
   50.3217   35.1448   41.8067 H   0  0  0  0  0  0  0  0  0  0  0  0
   49.0560   35.7535   39.7896 H   0  0  0  0  0  0  0  0  0  0  0  0
   46.1897   32.0811   44.3929 H   0  0  0  0  0  0  0  0  0  0  0  0
   48.1416   33.2883   43.4672 H   0  0  0  0  0  0  0  0  0  0  0  0
   43.6002   34.7721   42.3897 H   0  0  0  0  0  0  0  0  0  0  0  0
   48.9090   35.6924   37.3667 H   0  0  0  0  0  0  0  0  0  0  0  0
   46.4248   32.4950   35.1604 H   0  0  0  0  0  0  0  0  0  0  0  0
   44.6921   30.8108   34.8795 H   0  0  0  0  0  0  0  0  0  0  0  0
   43.0029   30.4630   36.7160 H   0  0  0  0  0  0  0  0  0  0  0  0
   41.5543   33.7706   38.6953 O   0  0  0  0  0  0  0  0  0  0  0  0
   41.5592   32.3911   38.7073 C   0  0  1  0  0  0  0  0  0  0  0  0
   42.9243   31.8238   39.0277 C   0  0  1  0  0  0  0  0  0  0  0  0
   42.6217   30.5171   39.3102 O   0  0  0  0  0  0  0  0  0  0  0  0
   41.6038   30.6318   40.2523 C   0  0  0  0  0  0  0  0  0  0  0  0
   40.7751   31.8425   39.9114 C   0  0  2  0  0  0  0  0  0  0  0  0
   39.4638   31.5772   39.6084 O   0  0  0  0  0  0  0  0  0  0  0  0
   40.9597   34.1403   39.3941 H   0  0  0  0  0  0  0  0  0  0  0  0
   41.1525   31.9128   37.8003 H   0  0  0  0  0  0  0  0  0  0  0  0
   43.2582   32.2830   39.9939 H   0  0  0  0  0  0  0  0  0  0  0  0
   40.9610   29.7304   40.2897 H   0  0  0  0  0  0  0  0  0  0  0  0
   42.1058   30.7546   41.2400 H   0  0  0  0  0  0  0  0  0  0  0  0
   40.8605   32.5706   40.7696 H   0  0  0  0  0  0  0  0  0  0  0  0
   39.1188   30.7335   39.9627 H   0  0  0  0  0  0  0  0  0  0  0  0
  1  6  1  0
  2  1  1  0
  3  2  1  0
  3  1  1  0
  5  4  2  0
  6  5  1  0
  7  6  2  0
  7  8  1  0
  8  9  2  0
  9  4  1  0
 10  3  1  0
 12 11  2  0
 12 10  1  1
 13 12  1  0
 14 12  1  0
 15 14  1  0
 15 20  1  0
 16 15  2  0
 17 16  1  0
 17 18  2  0
 18 19  1  0
 19 20  2  0
  1 21  1  6
  2 22  1  0
  2 23  1  0
  3 24  1  6
  4 25  1  0
  5 26  1  0
  8 27  1  0
 13 28  1  0
 16 29  1  0
 17 30  1  0
 18 31  1  0
 32 33  1  0
 33 34  1  0
 34 35  1  0
 35 36  1  0
 36 37  1  0
 37 38  1  0
 37 33  1  0
 32 39  1  0
 33 40  1  6
 34 41  1  1
 36 42  1  0
 36 43  1  0
 37 44  1  1
 38 45  1  0
 19 34  1  0
M  ISO  8  21  13  22  13  23  13  24  13  25  14  26  14  27  14  28   3
M  ISO  3  29  14  30  14  31  14
M  END
>  <DihAtoms>  (1) 
17,18,33,32

>  <DihDeg>  (1) 
105.5184004041336

$$$$
