
     RDKit          3D

 40 42  0  0  0  0  0  0  0  0999 V2000
   46.0545   34.3226   41.5217 N   0  0  0  0  0  0  0  0  0  0  0  0
   45.0896   34.0896   40.4665 C   0  0  0  0  0  0  0  0  0  0  0  0
   45.6766   33.2424   39.3669 C   0  0  0  0  0  0  0  0  0  0  0  0
   46.9290   33.7062   38.8681 N   0  0  0  0  0  0  0  0  0  0  0  0
   47.8157   34.2388   39.8172 C   0  0  0  0  0  0  0  0  0  0  0  0
   47.4702   34.2106   41.2599 C   0  0  1  0  0  0  0  0  0  0  0  0
   44.5889   36.0477   44.5045 C   0  0  0  0  0  0  0  0  0  0  0  0
   44.9715   35.8341   43.1733 C   0  0  0  0  0  0  0  0  0  0  0  0
   45.6164   34.6595   42.8293 C   0  0  0  0  0  0  0  0  0  0  0  0
   45.8295   33.7820   43.8567 N   0  0  0  0  0  0  0  0  0  0  0  0
   45.4541   34.0044   45.1327 C   0  0  0  0  0  0  0  0  0  0  0  0
   44.8297   35.1470   45.4534 N   0  0  0  0  0  0  0  0  0  0  0  0
   48.1580   35.3023   41.9421 C   0  0  0  0  0  0  0  0  0  0  0  0
   48.9741   36.0648   41.3888 O   0  0  0  0  0  0  0  0  0  0  0  0
   44.8126   35.0698   40.0134 H   0  0  0  0  0  0  0  0  0  0  0  0
   44.1732   33.5828   40.8241 H   0  0  0  0  0  0  0  0  0  0  0  0
   45.7056   32.2037   39.7501 H   0  0  0  0  0  0  0  0  0  0  0  0
   44.9454   33.2503   38.5288 H   0  0  0  0  0  0  0  0  0  0  0  0
   47.3045   33.0410   38.1908 H   0  0  0  0  0  0  0  0  0  0  0  0
   48.0217   35.3033   39.5356 H   0  0  0  0  0  0  0  0  0  0  0  0
   48.8086   33.7386   39.7044 H   0  0  0  0  0  0  0  0  0  0  0  0
   47.7777   33.2001   41.6624 H   0  0  0  0  0  0  0  0  0  0  0  0
   44.0844   36.9705   44.7644 H   0  0  0  0  0  0  0  0  0  0  0  0
   44.7918   36.5372   42.3933 H   0  0  0  0  0  0  0  0  0  0  0  0
   45.7328   33.1577   45.7747 H   0  0  0  0  0  0  0  0  0  0  0  0
   48.7848   36.3310   42.6528 N   0  0  0  0  0  0  0  0  0  0  0  0
   49.2034   37.5825   42.0635 C   0  0  2  0  0  0  0  0  0  0  0  0
   48.3777   38.1756   41.6214 H   0  0  0  0  0  0  0  0  0  0  0  0
   49.7596   38.4317   43.2233 C   0  0  1  0  0  0  0  0  0  0  0  0
   50.7045   38.0143   43.5944 H   0  0  0  0  0  0  0  0  0  0  0  0
   48.7305   38.5330   44.2502 N   0  0  0  0  0  0  0  0  0  0  0  0
   48.8545   39.3276   44.8868 H   0  0  0  0  0  0  0  0  0  0  0  0
   48.4498   37.2802   44.8887 C   0  0  0  0  0  0  0  0  0  0  0  0
   49.0512   36.1605   44.0905 C   0  0  0  0  0  0  0  0  0  0  0  0
   50.0014   37.4879   41.3021 H   0  0  0  0  0  0  0  0  0  0  0  0
   49.9198   39.4699   42.8713 H   0  0  0  0  0  0  0  0  0  0  0  0
   47.3565   37.1607   44.9707 H   0  0  0  0  0  0  0  0  0  0  0  0
   48.8915   37.2434   45.9126 H   0  0  0  0  0  0  0  0  0  0  0  0
   48.6899   35.1883   44.4685 H   0  0  0  0  0  0  0  0  0  0  0  0
   50.1667   36.1322   44.2583 H   0  0  0  0  0  0  0  0  0  0  0  0
  1  9  1  0
  2  1  1  0
  3  2  1  0
  4  3  1  0
  4  5  1  0
  5  6  1  0
  6  1  1  0
  6 13  1  0
  7 12  2  0
  8  7  1  0
  9  8  2  0
  9 10  1  0
 10 11  2  0
 11 12  1  0
 14 13  2  0
  2 15  1  0
  2 16  1  0
  3 17  1  0
  3 18  1  0
  4 19  1  0
  5 20  1  0
  5 21  1  0
  6 22  1  1
  7 23  1  0
  8 24  1  0
 11 25  1  0
 26 27  1  0
 27 28  1  6
 27 29  1  0
 29 30  1  1
 29 31  1  0
 31 32  1  0
 31 33  1  0
 33 34  1  0
 34 26  1  0
 27 35  1  0
 29 36  1  0
 33 37  1  0
 33 38  1  0
 34 39  1  0
 34 40  1  0
 13 26  1  0
M  ISO  8  15  13  16  13  17  13  18  13  19   5  20  13  21  13  22  13
M  ISO  6  23  14  24  14  25  14  28   8  30   8  32   5
M  END
>  <DihAtoms>  (1) 
5,12,25,26

>  <DihDeg>  (1) 
-179.95465698049415

$$$$
