
     RDKit          3D

 40 42  0  0  0  0  0  0  0  0999 V2000
   46.0545   34.3226   41.5217 N   0  0  0  0  0  0  0  0  0  0  0  0
   45.0896   34.0896   40.4665 C   0  0  0  0  0  0  0  0  0  0  0  0
   45.6766   33.2424   39.3669 C   0  0  0  0  0  0  0  0  0  0  0  0
   46.9290   33.7062   38.8681 N   0  0  0  0  0  0  0  0  0  0  0  0
   47.8157   34.2388   39.8172 C   0  0  0  0  0  0  0  0  0  0  0  0
   47.4702   34.2106   41.2599 C   0  0  1  0  0  0  0  0  0  0  0  0
   44.5889   36.0477   44.5045 C   0  0  0  0  0  0  0  0  0  0  0  0
   44.9715   35.8341   43.1733 C   0  0  0  0  0  0  0  0  0  0  0  0
   45.6164   34.6595   42.8293 C   0  0  0  0  0  0  0  0  0  0  0  0
   45.8295   33.7820   43.8567 N   0  0  0  0  0  0  0  0  0  0  0  0
   45.4541   34.0044   45.1327 C   0  0  0  0  0  0  0  0  0  0  0  0
   44.8297   35.1470   45.4534 N   0  0  0  0  0  0  0  0  0  0  0  0
   48.1580   35.3023   41.9421 C   0  0  0  0  0  0  0  0  0  0  0  0
   48.9741   36.0648   41.3888 O   0  0  0  0  0  0  0  0  0  0  0  0
   44.8126   35.0698   40.0134 H   0  0  0  0  0  0  0  0  0  0  0  0
   44.1732   33.5828   40.8241 H   0  0  0  0  0  0  0  0  0  0  0  0
   45.7056   32.2037   39.7501 H   0  0  0  0  0  0  0  0  0  0  0  0
   44.9454   33.2503   38.5288 H   0  0  0  0  0  0  0  0  0  0  0  0
   47.3045   33.0410   38.1908 H   0  0  0  0  0  0  0  0  0  0  0  0
   48.0217   35.3033   39.5356 H   0  0  0  0  0  0  0  0  0  0  0  0
   48.8086   33.7386   39.7044 H   0  0  0  0  0  0  0  0  0  0  0  0
   47.7777   33.2001   41.6624 H   0  0  0  0  0  0  0  0  0  0  0  0
   44.0844   36.9705   44.7644 H   0  0  0  0  0  0  0  0  0  0  0  0
   44.7918   36.5372   42.3933 H   0  0  0  0  0  0  0  0  0  0  0  0
   45.7328   33.1577   45.7747 H   0  0  0  0  0  0  0  0  0  0  0  0
   48.7848   36.3310   42.6528 N   0  0  0  0  0  0  0  0  0  0  0  0
   49.7325   37.2545   42.0716 C   0  0  0  0  0  0  0  0  0  0  0  0
   49.3232   37.8629   41.2402 H   0  0  0  0  0  0  0  0  0  0  0  0
   50.0906   38.2534   43.1895 C   0  0  0  0  0  0  0  0  0  0  0  0
   50.6829   37.7651   43.9741 H   0  0  0  0  0  0  0  0  0  0  0  0
   48.8554   38.8478   43.6843 N   0  0  0  0  0  0  0  0  0  0  0  0
   48.9887   39.7424   44.1681 H   0  0  0  0  0  0  0  0  0  0  0  0
   48.0137   37.9076   44.3651 C   0  0  0  0  0  0  0  0  0  0  0  0
   48.4849   36.5109   44.0827 C   0  0  0  0  0  0  0  0  0  0  0  0
   50.6737   36.7881   41.7221 H   0  0  0  0  0  0  0  0  0  0  0  0
   50.6636   39.0965   42.7558 H   0  0  0  0  0  0  0  0  0  0  0  0
   46.9749   38.0483   44.0226 H   0  0  0  0  0  0  0  0  0  0  0  0
   48.0503   38.0621   45.4695 H   0  0  0  0  0  0  0  0  0  0  0  0
   47.7435   35.7792   44.4480 H   0  0  0  0  0  0  0  0  0  0  0  0
   49.4147   36.2958   44.6847 H   0  0  0  0  0  0  0  0  0  0  0  0
  1  9  1  0
  2  1  1  0
  3  2  1  0
  4  3  1  0
  4  5  1  0
  5  6  1  0
  6  1  1  0
  6 13  1  0
  7 12  2  0
  8  7  1  0
  9  8  2  0
  9 10  1  0
 10 11  2  0
 11 12  1  0
 14 13  2  0
  2 15  1  0
  2 16  1  0
  3 17  1  0
  3 18  1  0
  4 19  1  0
  5 20  1  0
  5 21  1  0
  6 22  1  1
  7 23  1  0
  8 24  1  0
 11 25  1  0
 26 27  1  0
 27 28  1  0
 27 29  1  0
 29 30  1  0
 29 31  1  0
 31 32  1  0
 31 33  1  0
 33 34  1  0
 34 26  1  0
 27 35  1  0
 29 36  1  0
 33 37  1  0
 33 38  1  0
 34 39  1  0
 34 40  1  0
 13 26  1  0
M  ISO  8  15  13  16  13  17  13  18  13  19   5  20  13  21  13  22  13
M  ISO  6  23  14  24  14  25  14  28   8  30   8  32   5
M  END
>  <DihAtoms>  (1) 
5,12,25,26

>  <DihDeg>  (1) 
-179.95465698049415

$$$$
