
     RDKit          3D

 34 36  0  0  0  0  0  0  0  0999 V2000
   46.0796   34.1506   41.0071 C   0  0  0  0  0  0  0  0  0  0  0  0
   46.6149   34.8360   42.1027 C   0  0  0  0  0  0  0  0  0  0  0  0
   47.9394   35.2915   41.9944 C   0  0  0  0  0  0  0  0  0  0  0  0
   48.6004   35.0275   40.8239 N   0  0  0  0  0  0  0  0  0  0  0  0
   48.0481   34.3714   39.8098 C   0  0  0  0  0  0  0  0  0  0  0  0
   46.7812   33.9214   39.8811 N   0  0  0  0  0  0  0  0  0  0  0  0
   45.8073   35.0502   43.2903 C   0  0  0  0  0  0  0  0  0  0  0  0
   45.0479   36.1852   43.4879 C   0  0  0  0  0  0  0  0  0  0  0  0
   44.4642   35.9589   44.7227 C   0  0  0  0  0  0  0  0  0  0  0  0
   44.8474   34.7594   45.2408 N   0  0  0  0  0  0  0  0  0  0  0  0
   45.6530   34.2418   44.3545 N   0  0  0  0  0  0  0  0  0  0  0  0
   44.7752   33.6985   41.1038 O   0  0  0  0  0  0  0  0  0  0  0  0
   43.7000   34.2025   40.4211 C   0  0  0  0  0  0  0  0  0  0  0  0
   43.2514   35.3943   40.4228 O   0  0  0  0  0  0  0  0  0  0  0  0
   48.3761   35.8251   42.8300 H   0  0  0  0  0  0  0  0  0  0  0  0
   48.6524   34.2187   38.9411 H   0  0  0  0  0  0  0  0  0  0  0  0
   44.9051   37.0642   42.8693 H   0  0  0  0  0  0  0  0  0  0  0  0
   43.7802   36.6613   45.2153 H   0  0  0  0  0  0  0  0  0  0  0  0
   44.5026   34.4236   46.1694 H   0  0  0  0  0  0  0  0  0  0  0  0
   42.7555   33.5828   39.5128 N   0  0  0  0  0  0  0  0  0  0  0  0
   42.4507   34.3224   38.3057 C   0  0  2  0  0  0  0  0  0  0  0  0
   43.0457   33.7990   37.5004 H   0  0  0  0  0  0  0  0  0  0  0  0
   40.9869   34.0768   38.0104 C   0  0  1  0  0  0  0  0  0  0  0  0
   40.5678   35.0367   37.6346 H   0  0  0  0  0  0  0  0  0  0  0  0
   40.2210   33.7560   39.1925 N   0  0  0  0  0  0  0  0  0  0  0  0
   39.2329   33.6534   38.8942 H   0  0  0  0  0  0  0  0  0  0  0  0
   40.6310   32.5046   39.7945 C   0  0  0  0  0  0  0  0  0  0  0  0
   42.1174   32.3002   39.7377 C   0  0  0  0  0  0  0  0  0  0  0  0
   42.6725   35.3907   38.3622 H   0  0  0  0  0  0  0  0  0  0  0  0
   40.8633   33.3451   37.1779 H   0  0  0  0  0  0  0  0  0  0  0  0
   40.0894   31.6168   39.3597 H   0  0  0  0  0  0  0  0  0  0  0  0
   40.3337   32.5425   40.8637 H   0  0  0  0  0  0  0  0  0  0  0  0
   42.3210   31.7052   38.8040 H   0  0  0  0  0  0  0  0  0  0  0  0
   42.5298   31.7493   40.5804 H   0  0  0  0  0  0  0  0  0  0  0  0
  1 12  1  0
  1  2  1  0
  2  7  1  0
  3  2  2  0
  4  3  1  0
  5  6  1  0
  5  4  2  0
  6  1  2  0
  7  8  1  0
  7 11  2  0
  8  9  2  0
  9 10  1  0
 11 10  1  0
 13 14  2  0
 13 12  1  0
  3 15  1  0
  5 16  1  0
  8 17  1  0
  9 18  1  0
 10 19  1  0
 20 21  1  0
 21 22  1  6
 21 23  1  0
 23 24  1  6
 23 25  1  0
 25 26  1  0
 25 27  1  0
 27 28  1  0
 28 20  1  0
 21 29  1  0
 23 30  1  0
 27 31  1  0
 27 32  1  0
 28 33  1  0
 28 34  1  0
 13 20  1  0
M  ISO  8  15  14  16  14  17  14  18  14  19   9  22   8  24   8  26   5
M  END
>  <DihAtoms>  (1) 
13,12,19,20

>  <DihDeg>  (1) 
-0.13438117919780287

$$$$
