
     RDKit          3D

 49 52  0  0  0  0  0  0  0  0999 V2000
   47.5615   29.9770   48.2671 C   0  0  1  0  0  0  0  0  0  0  0  0
   47.4417   28.7874   47.3819 C   0  0  0  0  0  0  0  0  0  0  0  0
   48.7280   28.0299   47.1804 C   0  0  0  0  0  0  0  0  0  0  0  0
   49.5241   27.8463   48.4522 C   0  0  0  0  0  0  0  0  0  0  0  0
   49.5756   29.0988   49.2786 C   0  0  0  0  0  0  0  0  0  0  0  0
   49.0493   30.2919   48.4489 C   0  0  2  0  0  0  0  0  0  0  0  0
   45.9273   33.1512   46.2504 C   0  0  0  0  0  0  0  0  0  0  0  0
   45.3280   32.9374   47.4897 C   0  0  0  0  0  0  0  0  0  0  0  0
   45.7870   31.9234   48.2339 C   0  0  0  0  0  0  0  0  0  0  0  0
   46.8444   31.1128   47.7563 C   0  0  0  0  0  0  0  0  0  0  0  0
   47.2167   31.8406   46.1280 S   0  0  0  0  0  0  0  0  0  0  0  0
   44.4261   36.0971   44.5315 C   0  0  0  0  0  0  0  0  0  0  0  0
   45.0421   36.0090   43.2836 C   0  0  0  0  0  0  0  0  0  0  0  0
   45.9478   34.9522   43.0902 C   0  0  0  0  0  0  0  0  0  0  0  0
   46.1649   34.0893   44.1207 N   0  0  0  0  0  0  0  0  0  0  0  0
   45.5469   34.2146   45.3051 C   0  0  0  0  0  0  0  0  0  0  0  0
   44.6698   35.2255   45.5175 N   0  0  0  0  0  0  0  0  0  0  0  0
   49.2065   31.5017   49.2417 C   0  0  0  0  0  0  0  0  0  0  0  0
   49.9713   31.5801   50.1971 O   0  0  0  0  0  0  0  0  0  0  0  0
   47.1658   29.7475   49.2622 H   0  0  0  0  0  0  0  0  0  0  0  0
   47.1025   29.1209   46.3806 H   0  0  0  0  0  0  0  0  0  0  0  0
   46.6551   28.1068   47.7790 H   0  0  0  0  0  0  0  0  0  0  0  0
   48.4288   27.0138   46.8798 H   0  0  0  0  0  0  0  0  0  0  0  0
   49.3366   28.4526   46.3632 H   0  0  0  0  0  0  0  0  0  0  0  0
   49.1226   27.0132   49.0627 H   0  0  0  0  0  0  0  0  0  0  0  0
   50.5431   27.5396   48.1371 H   0  0  0  0  0  0  0  0  0  0  0  0
   49.0360   29.0643   50.2230 H   0  0  0  0  0  0  0  0  0  0  0  0
   50.6570   29.3682   49.4511 H   0  0  0  0  0  0  0  0  0  0  0  0
   49.5655   30.3284   47.4702 H   0  0  0  0  0  0  0  0  0  0  0  0
   44.5212   33.5654   47.8412 H   0  0  0  0  0  0  0  0  0  0  0  0
   45.4463   31.6134   49.2079 H   0  0  0  0  0  0  0  0  0  0  0  0
   43.7317   36.8929   44.7066 H   0  0  0  0  0  0  0  0  0  0  0  0
   44.8519   36.7074   42.4807 H   0  0  0  0  0  0  0  0  0  0  0  0
   46.4689   34.8118   42.1531 H   0  0  0  0  0  0  0  0  0  0  0  0
   49.0974   32.7730   49.7415 N   0  0  0  0  0  0  0  0  0  0  0  0
   49.5013   33.8501   48.8433 C   0  0  1  0  0  0  0  0  0  0  0  0
   50.5440   33.7287   48.4661 H   0  0  0  0  0  0  0  0  0  0  0  0
   49.4122   35.1551   49.6375 C   0  0  1  0  0  0  0  0  0  0  0  0
   50.0653   35.1458   50.5287 H   0  0  0  0  0  0  0  0  0  0  0  0
   48.0246   35.3772   49.9088 N   0  0  0  0  0  0  0  0  0  0  0  0
   47.7712   36.3377   50.2044 H   0  0  0  0  0  0  0  0  0  0  0  0
   47.5449   34.3362   50.7914 C   0  0  0  0  0  0  0  0  0  0  0  0
   48.6252   33.2771   51.0215 C   0  0  0  0  0  0  0  0  0  0  0  0
   48.8220   33.9821   47.9836 H   0  0  0  0  0  0  0  0  0  0  0  0
   49.8308   35.9463   48.9789 H   0  0  0  0  0  0  0  0  0  0  0  0
   47.2427   34.7594   51.7498 H   0  0  0  0  0  0  0  0  0  0  0  0
   46.6940   33.8445   50.2897 H   0  0  0  0  0  0  0  0  0  0  0  0
   49.4125   33.6183   51.6953 H   0  0  0  0  0  0  0  0  0  0  0  0
   48.0761   32.4689   51.5863 H   0  0  0  0  0  0  0  0  0  0  0  0
  1  6  1  0
  2  1  1  0
  3  2  1  0
  3  4  1  0
  4  5  1  0
  6 18  1  0
  6  5  1  0
  7  8  2  0
  8  9  1  0
 10  1  1  0
 10  9  2  0
 11  7  1  0
 11 10  1  0
 12 17  2  0
 13 12  1  0
 14 13  2  0
 14 15  1  0
 15 16  2  0
 16 17  1  0
 16  7  1  0
 18 19  2  0
  1 20  1  1
  2 21  1  0
  2 22  1  0
  3 23  1  0
  3 24  1  0
  4 25  1  0
  4 26  1  0
  5 27  1  0
  5 28  1  0
  6 29  1  6
  8 30  1  0
  9 31  1  0
 12 32  1  0
 13 33  1  0
 14 34  1  0
 35 36  1  0
 36 37  1  6
 36 38  1  0
 38 39  1  1
 38 40  1  0
 40 41  1  0
 40 42  1  0
 42 43  1  0
 43 35  1  0
 36 44  1  0
 38 45  1  0
 42 46  1  0
 42 47  1  0
 43 48  1  0
 43 49  1  0
 18 35  1  0
M  ISO  8  20  13  21  13  22  13  23  13  24  13  25  13  26  13  27  13
M  ISO  8  28  13  29  13  30  14  31  14  32  14  33  14  34  14  37   8
M  ISO  2  39   8  41   5
M  END
>  <DihAtoms>  (1) 
5,17,34,35

>  <DihDeg>  (1) 
177.25827632473724

$$$$
