
     RDKit          3D

 41 43  0  0  0  0  0  0  0  0999 V2000
   45.1325   34.4204   41.1887 C   0  0  0  0  0  0  0  0  0  0  0  0
   45.5542   35.0199   42.3661 C   0  0  0  0  0  0  0  0  0  0  0  0
   46.9165   35.2422   42.5561 C   0  0  0  0  0  0  0  0  0  0  0  0
   47.8029   34.8662   41.5824 C   0  0  0  0  0  0  0  0  0  0  0  0
   47.4074   34.2697   40.4061 C   0  0  0  0  0  0  0  0  0  0  0  0
   46.0359   34.0591   40.2426 C   0  0  0  0  0  0  0  0  0  0  0  0
   41.4359   34.8498   40.5753 C   0  0  0  0  0  0  0  0  0  0  0  0
   42.7969   35.1681   40.6628 C   0  0  0  0  0  0  0  0  0  0  0  0
   43.6960   34.2186   41.0573 C   0  0  0  0  0  0  0  0  0  0  0  0
   43.1922   32.9824   41.3496 N   0  0  0  0  0  0  0  0  0  0  0  0
   41.8854   32.6694   41.2678 C   0  0  0  0  0  0  0  0  0  0  0  0
   40.9978   33.6135   40.8764 N   0  0  0  0  0  0  0  0  0  0  0  0
   40.4559   35.8687   40.1501 C   0  0  0  0  0  0  0  0  0  0  0  0
   39.2278   35.2171   39.9594 F   0  0  0  0  0  0  0  0  0  0  0  0
   40.8476   36.2976   38.8896 F   0  0  0  0  0  0  0  0  0  0  0  0
   40.3115   36.8967   41.0405 F   0  0  0  0  0  0  0  0  0  0  0  0
   45.4308   32.1369   38.5764 C   0  0  0  0  0  0  0  0  0  0  0  0
   45.9522   31.1491   39.0795 O   0  0  0  0  0  0  0  0  0  0  0  0
   45.4975   33.4575   39.0824 N   0  0  0  0  0  0  0  0  0  0  0  0
   44.8546   35.3168   43.1346 H   0  0  0  0  0  0  0  0  0  0  0  0
   47.1998   35.7119   43.4881 H   0  0  0  0  0  0  0  0  0  0  0  0
   48.8603   35.0327   41.7173 H   0  0  0  0  0  0  0  0  0  0  0  0
   48.0901   33.9611   39.6162 H   0  0  0  0  0  0  0  0  0  0  0  0
   43.1724   36.1573   40.4252 H   0  0  0  0  0  0  0  0  0  0  0  0
   41.5518   31.6665   41.5148 H   0  0  0  0  0  0  0  0  0  0  0  0
   45.0652   34.2465   38.5206 H   0  0  0  0  0  0  0  0  0  0  0  0
   44.6960   31.9159   37.3753 N   0  0  0  0  0  0  0  0  0  0  0  0
   43.5814   32.8147   37.1472 C   0  0  1  0  0  0  0  0  0  0  0  0
   42.7141   32.5667   37.7902 H   0  0  0  0  0  0  0  0  0  0  0  0
   43.2533   32.9168   35.6800 C   0  0  2  0  0  0  0  0  0  0  0  0
   44.0565   33.5634   35.2195 H   0  0  0  0  0  0  0  0  0  0  0  0
   43.1157   31.6710   34.9997 N   0  0  0  0  0  0  0  0  0  0  0  0
   42.1274   31.5125   34.7007 H   0  0  0  0  0  0  0  0  0  0  0  0
   43.5001   30.5683   35.8485 C   0  0  0  0  0  0  0  0  0  0  0  0
   44.9097   30.9139   36.3486 C   0  0  0  0  0  0  0  0  0  0  0  0
   43.9129   33.8288   37.4528 H   0  0  0  0  0  0  0  0  0  0  0  0
   42.3295   33.5546   35.6070 H   0  0  0  0  0  0  0  0  0  0  0  0
   42.8125   30.5901   36.7310 H   0  0  0  0  0  0  0  0  0  0  0  0
   43.4955   29.6036   35.3400 H   0  0  0  0  0  0  0  0  0  0  0  0
   45.4942   31.3963   35.5440 H   0  0  0  0  0  0  0  0  0  0  0  0
   45.3623   29.9860   36.7516 H   0  0  0  0  0  0  0  0  0  0  0  0
  1  2  2  0
  2  3  1  0
  4  3  2  0
  5  4  1  0
  6  5  2  0
  6  1  1  0
  7  8  2  0
  7 12  1  0
  8  9  1  0
  9  1  1  0
  9 10  2  0
 11 10  1  0
 12 11  2  0
 13  7  1  0
 13 16  1  0
 14 13  1  0
 15 13  1  0
 17 18  2  0
 17 19  1  0
 19  6  1  0
  2 20  1  0
  3 21  1  0
  4 22  1  0
  5 23  1  0
  8 24  1  0
 11 25  1  0
 19 26  1  0
 27 28  1  0
 28 29  1  1
 28 30  1  0
 30 31  1  6
 30 32  1  0
 32 33  1  0
 32 34  1  0
 34 35  1  0
 35 27  1  0
 28 36  1  0
 30 37  1  0
 34 38  1  0
 34 39  1  0
 35 40  1  0
 35 41  1  0
 17 27  1  0
M  ISO  8  20  14  21  14  22  14  23  14  24  14  25  14  29   8  31   8
M  ISO  1  33   5
M  END
>  <DihAtoms>  (1) 
17,16,26,27

>  <DihDeg>  (1) 
0.016817659379133796

$$$$
