
     RDKit          3D

 40 43  0  0  0  0  0  0  0  0999 V2000
   46.9500   34.8510   42.5880 C   0  0  0  0  0  0  0  0  0  0  0  0
   46.0410   35.9100   42.4910 C   0  0  0  0  0  0  0  0  0  0  0  0
   45.0270   35.9710   43.4470 C   0  0  0  0  0  0  0  0  0  0  0  0
   44.9750   35.0090   44.4120 N   0  0  0  0  0  0  0  0  0  0  0  0
   45.8790   34.0070   44.4600 C   0  0  0  0  0  0  0  0  0  0  0  0
   46.8660   33.9260   43.5520 N   0  0  0  0  0  0  0  0  0  0  0  0
   46.0500   31.6630   45.1380 C   0  0  0  0  0  0  0  0  0  0  0  0
   45.8230   32.9730   45.4980 C   0  0  0  0  0  0  0  0  0  0  0  0
   45.5540   33.2610   46.8110 C   0  0  0  0  0  0  0  0  0  0  0  0
   45.5060   32.2720   47.7670 C   0  0  0  0  0  0  0  0  0  0  0  0
   45.2750   32.2530   49.0830 N   0  0  0  0  0  0  0  0  0  0  0  0
   45.3490   30.9830   49.5510 C   0  0  0  0  0  0  0  0  0  0  0  0
   45.6420   30.1300   48.4980 C   0  0  0  0  0  0  0  0  0  0  0  0
   45.7380   30.9380   47.3930 C   0  0  0  0  0  0  0  0  0  0  0  0
   46.0100   30.6470   46.0700 C   0  0  0  0  0  0  0  0  0  0  0  0
   47.9660   34.8520   41.5740 C   0  0  0  0  0  0  0  0  0  0  0  0
   48.8330   35.7780   41.3910 O   0  0  0  0  0  0  0  0  0  0  0  0
   47.9550   33.6940   40.7280 N   0  0  0  0  0  0  0  0  0  0  0  0
   48.4170   32.3590   41.0700 C   0  0  0  0  0  0  0  0  0  0  0  0
   49.4940   31.9460   40.1360 C   0  0  0  0  0  0  0  0  0  0  0  0
   49.6230   32.7740   38.9650 N   0  0  0  0  0  0  0  0  0  0  0  0
   48.3580   33.1630   38.3910 C   0  0  0  0  0  0  0  0  0  0  0  0
   47.4380   33.8140   39.3790 C   0  0  0  0  0  0  0  0  0  0  0  0
   46.1225   36.6635   41.6937 H   0  0  0  0  0  0  0  0  0  0  0  0
   44.2827   36.7806   43.4228 H   0  0  0  0  0  0  0  0  0  0  0  0
   46.2674   31.4224   44.0869 H   0  0  0  0  0  0  0  0  0  0  0  0
   45.3726   34.3048   47.1068 H   0  0  0  0  0  0  0  0  0  0  0  0
   45.0705   33.0827   49.6581 H   0  0  0  0  0  0  0  0  0  0  0  0
   45.2005   30.6783   50.5975 H   0  0  0  0  0  0  0  0  0  0  0  0
   45.7702   29.0383   48.5395 H   0  0  0  0  0  0  0  0  0  0  0  0
   46.1942   29.6076   45.7607 H   0  0  0  0  0  0  0  0  0  0  0  0
   48.8060   32.3594   42.0989 H   0  0  0  0  0  0  0  0  0  0  0  0
   47.5774   31.6526   40.9919 H   0  0  0  0  0  0  0  0  0  0  0  0
   50.4491   31.9716   40.6810 H   0  0  0  0  0  0  0  0  0  0  0  0
   49.2276   30.9404   39.7786 H   0  0  0  0  0  0  0  0  0  0  0  0
   50.1390   33.6269   39.2244 H   0  0  0  0  0  0  0  0  0  0  0  0
   48.5488   33.8713   37.5713 H   0  0  0  0  0  0  0  0  0  0  0  0
   47.8632   32.2464   38.0374 H   0  0  0  0  0  0  0  0  0  0  0  0
   47.3352   34.8797   39.1267 H   0  0  0  0  0  0  0  0  0  0  0  0
   46.4610   33.3108   39.3322 H   0  0  0  0  0  0  0  0  0  0  0  0
  1  6  1  0
  2  1  2  0
  2  3  1  0
  3  4  2  0
  4  5  1  0
  5  8  1  0
  6  5  2  0
  7  8  2  0
  7 15  1  0
  8  9  1  0
  9 10  2  0
 10 11  1  0
 11 12  1  0
 13 12  2  0
 14 10  1  0
 14 13  1  0
 15 14  2  0
 16  1  1  0
 17 16  2  0
 18 19  1  0
 18 16  1  0
 20 19  1  0
 21 20  1  0
 22 21  1  0
 22 23  1  0
 23 18  1  0
  2 24  1  0
  3 25  1  0
  7 26  1  0
  9 27  1  0
 11 28  1  0
 12 29  1  0
 13 30  1  0
 15 31  1  0
 19 32  1  0
 19 33  1  0
 20 34  1  0
 20 35  1  0
 21 36  1  0
 22 37  1  0
 22 38  1  0
 23 39  1  0
 23 40  1  0
M  ISO  8  24  14  25  14  26  14  27  14  28   9  29  14  30  14  31  14
M  ISO  8  32  13  33  13  34  13  35  13  36   5  37  13  38  13  39  13
M  ISO  1  40  13
M  END
>  <minimizedAffinity>  (1) 
-6.48476839

>  <minimizedRMSD>  (1) 
0.172018856

$$$$
