
     RDKit          3D

 41 43  0  0  0  0  0  0  0  0999 V2000
   45.1325   34.4204   41.1887 C   0  0  0  0  0  0  0  0  0  0  0  0
   45.5542   35.0199   42.3661 C   0  0  0  0  0  0  0  0  0  0  0  0
   46.9165   35.2422   42.5561 C   0  0  0  0  0  0  0  0  0  0  0  0
   47.8029   34.8662   41.5824 C   0  0  0  0  0  0  0  0  0  0  0  0
   47.4074   34.2697   40.4061 C   0  0  0  0  0  0  0  0  0  0  0  0
   46.0359   34.0591   40.2426 C   0  0  0  0  0  0  0  0  0  0  0  0
   41.4359   34.8498   40.5753 C   0  0  0  0  0  0  0  0  0  0  0  0
   42.7969   35.1681   40.6628 C   0  0  0  0  0  0  0  0  0  0  0  0
   43.6960   34.2186   41.0573 C   0  0  0  0  0  0  0  0  0  0  0  0
   43.1922   32.9824   41.3496 N   0  0  0  0  0  0  0  0  0  0  0  0
   41.8854   32.6694   41.2678 C   0  0  0  0  0  0  0  0  0  0  0  0
   40.9978   33.6135   40.8764 N   0  0  0  0  0  0  0  0  0  0  0  0
   40.4559   35.8687   40.1501 C   0  0  0  0  0  0  0  0  0  0  0  0
   39.2278   35.2171   39.9594 F   0  0  0  0  0  0  0  0  0  0  0  0
   40.8476   36.2976   38.8896 F   0  0  0  0  0  0  0  0  0  0  0  0
   40.3115   36.8967   41.0405 F   0  0  0  0  0  0  0  0  0  0  0  0
   45.4308   32.1369   38.5764 C   0  0  0  0  0  0  0  0  0  0  0  0
   45.9522   31.1491   39.0795 O   0  0  0  0  0  0  0  0  0  0  0  0
   45.4975   33.4575   39.0824 N   0  0  0  0  0  0  0  0  0  0  0  0
   44.8546   35.3168   43.1346 H   0  0  0  0  0  0  0  0  0  0  0  0
   47.1998   35.7119   43.4881 H   0  0  0  0  0  0  0  0  0  0  0  0
   48.8603   35.0327   41.7173 H   0  0  0  0  0  0  0  0  0  0  0  0
   48.0901   33.9611   39.6162 H   0  0  0  0  0  0  0  0  0  0  0  0
   43.1724   36.1573   40.4252 H   0  0  0  0  0  0  0  0  0  0  0  0
   41.5518   31.6665   41.5148 H   0  0  0  0  0  0  0  0  0  0  0  0
   45.0652   34.2465   38.5206 H   0  0  0  0  0  0  0  0  0  0  0  0
   44.6960   31.9159   37.3753 N   0  0  0  0  0  0  0  0  0  0  0  0
   45.4925   31.6953   36.1840 C   0  0  1  0  0  0  0  0  0  0  0  0
   45.9370   32.6367   35.8057 H   0  0  0  0  0  0  0  0  0  0  0  0
   44.7231   30.9159   35.1490 C   0  0  2  0  0  0  0  0  0  0  0  0
   44.7021   29.8456   35.5086 H   0  0  0  0  0  0  0  0  0  0  0  0
   43.4156   31.4091   34.8644 N   0  0  0  0  0  0  0  0  0  0  0  0
   43.3610   31.7930   33.8944 H   0  0  0  0  0  0  0  0  0  0  0  0
   43.0471   32.4657   35.7765 C   0  0  0  0  0  0  0  0  0  0  0  0
   43.2591   31.8818   37.1803 C   0  0  0  0  0  0  0  0  0  0  0  0
   46.3443   31.0471   36.4772 H   0  0  0  0  0  0  0  0  0  0  0  0
   45.3781   30.8726   34.2355 H   0  0  0  0  0  0  0  0  0  0  0  0
   43.7951   33.2856   35.6339 H   0  0  0  0  0  0  0  0  0  0  0  0
   42.0204   32.8116   35.6522 H   0  0  0  0  0  0  0  0  0  0  0  0
   42.9558   30.8191   37.2031 H   0  0  0  0  0  0  0  0  0  0  0  0
   42.7196   32.5287   37.9005 H   0  0  0  0  0  0  0  0  0  0  0  0
  1  2  2  0
  2  3  1  0
  4  3  2  0
  5  4  1  0
  6  5  2  0
  6  1  1  0
  7  8  2  0
  7 12  1  0
  8  9  1  0
  9  1  1  0
  9 10  2  0
 11 10  1  0
 12 11  2  0
 13  7  1  0
 13 16  1  0
 14 13  1  0
 15 13  1  0
 17 18  2  0
 17 19  1  0
 19  6  1  0
  2 20  1  0
  3 21  1  0
  4 22  1  0
  5 23  1  0
  8 24  1  0
 11 25  1  0
 19 26  1  0
 27 28  1  0
 28 29  1  6
 28 30  1  0
 30 31  1  1
 30 32  1  0
 32 33  1  0
 32 34  1  0
 34 35  1  0
 35 27  1  0
 28 36  1  0
 30 37  1  0
 34 38  1  0
 34 39  1  0
 35 40  1  0
 35 41  1  0
 17 27  1  0
M  ISO  8  20  14  21  14  22  14  23  14  24  14  25  14  29   8  31   8
M  ISO  1  33   5
M  END
>  <DihAtoms>  (1) 
17,16,26,27

>  <DihDeg>  (1) 
0.016817659379133796

$$$$
