
     RDKit          3D

 25 26  0  0  0  0  0  0  0  0999 V2000
   44.5133   35.9782   44.5346 C   0  0  0  0  0  0  0  0  0  0  0  0
   45.1902   35.9089   43.2960 C   0  0  0  0  0  0  0  0  0  0  0  0
   46.1124   34.8810   43.1028 C   0  0  0  0  0  0  0  0  0  0  0  0
   46.2973   34.0153   44.1200 N   0  0  0  0  0  0  0  0  0  0  0  0
   45.6443   34.0930   45.2978 C   0  0  0  0  0  0  0  0  0  0  0  0
   44.7577   35.0726   45.4972 N   0  0  0  0  0  0  0  0  0  0  0  0
   46.0988   32.8100   46.4445 S   0  0  0  0  0  0  0  0  0  0  0  0
   43.8156   36.7680   44.6599 H   0  0  0  0  0  0  0  0  0  0  0  0
   45.0614   36.5820   42.4759 H   0  0  0  0  0  0  0  0  0  0  0  0
   46.6524   34.7952   42.1642 H   0  0  0  0  0  0  0  0  0  0  0  0
   43.3953   32.4285   46.5355 H   0  0  0  0  0  0  0  0  0  0  0  0
   43.7675   31.7839   45.8165 N   0  0  0  0  0  0  0  0  0  0  0  0
   45.0722   31.3273   46.2798 C   0  0  1  0  0  0  0  0  0  0  0  0
   45.6179   30.4287   45.1681 C   0  0  2  0  0  0  0  0  0  0  0  0
   45.8294   29.3946   45.5592 H   0  0  0  0  0  0  0  0  0  0  0  0
   44.6737   30.2504   44.0882 N   0  0  0  0  0  0  0  0  0  0  0  0
   43.8085   29.8085   44.5061 H   0  0  0  0  0  0  0  0  0  0  0  0
   44.2651   31.5086   43.5025 C   0  0  0  0  0  0  0  0  0  0  0  0
   44.0077   32.5203   44.5838 C   0  0  0  0  0  0  0  0  0  0  0  0
   45.0165   30.7258   47.1954 H   0  0  0  0  0  0  0  0  0  0  0  0
   46.5897   30.8129   44.8073 H   0  0  0  0  0  0  0  0  0  0  0  0
   44.9994   31.8706   42.7516 H   0  0  0  0  0  0  0  0  0  0  0  0
   43.2705   31.2919   43.0164 H   0  0  0  0  0  0  0  0  0  0  0  0
   43.1316   33.1687   44.3690 H   0  0  0  0  0  0  0  0  0  0  0  0
   44.9035   33.1612   44.7342 H   0  0  0  0  0  0  0  0  0  0  0  0
  1  6  2  0
  2  1  1  0
  3  2  2  0
  3  4  1  0
  4  5  2  0
  5  6  1  0
  5  7  1  0
  1  8  1  0
  2  9  1  0
  3 10  1  0
 11 12  1  0
 12 13  1  0
 13 14  1  0
 14 15  1  1
 14 16  1  0
 16 17  1  0
 16 18  1  0
 18 19  1  0
 19 12  1  0
 13 20  1  1
 14 21  1  0
 18 22  1  0
 18 23  1  0
 19 24  1  0
 19 25  1  0
  7 13  1  0
M  ISO  6   8  14   9  14  10  14  11   5  15   8  17   5
M  END
>  <DihAtoms>  (1) 
4,6,12,11

>  <DihDeg>  (1) 
-179.92071705024233

$$$$
