
     RDKit          3D

 25 26  0  0  0  0  0  0  0  0999 V2000
   44.5133   35.9782   44.5346 C   0  0  0  0  0  0  0  0  0  0  0  0
   45.1902   35.9089   43.2960 C   0  0  0  0  0  0  0  0  0  0  0  0
   46.1124   34.8810   43.1028 C   0  0  0  0  0  0  0  0  0  0  0  0
   46.2973   34.0153   44.1200 N   0  0  0  0  0  0  0  0  0  0  0  0
   45.6443   34.0930   45.2978 C   0  0  0  0  0  0  0  0  0  0  0  0
   44.7577   35.0726   45.4972 N   0  0  0  0  0  0  0  0  0  0  0  0
   46.0988   32.8100   46.4445 S   0  0  0  0  0  0  0  0  0  0  0  0
   43.8156   36.7680   44.6599 H   0  0  0  0  0  0  0  0  0  0  0  0
   45.0614   36.5820   42.4759 H   0  0  0  0  0  0  0  0  0  0  0  0
   46.6524   34.7952   42.1642 H   0  0  0  0  0  0  0  0  0  0  0  0
   46.3102   30.3023   47.5073 H   0  0  0  0  0  0  0  0  0  0  0  0
   45.3024   30.5361   47.4824 N   0  0  0  0  0  0  0  0  0  0  0  0
   45.0722   31.3273   46.2798 C   0  0  1  0  0  0  0  0  0  0  0  0
   43.5900   31.7061   46.3079 C   0  0  2  0  0  0  0  0  0  0  0  0
   43.0645   31.3281   45.3870 H   0  0  0  0  0  0  0  0  0  0  0  0
   42.8896   31.1149   47.4256 N   0  0  0  0  0  0  0  0  0  0  0  0
   42.9838   30.0661   47.3274 H   0  0  0  0  0  0  0  0  0  0  0  0
   43.4798   31.4754   48.6964 C   0  0  0  0  0  0  0  0  0  0  0  0
   44.9783   31.4013   48.6076 C   0  0  0  0  0  0  0  0  0  0  0  0
   45.2538   30.7659   45.3551 H   0  0  0  0  0  0  0  0  0  0  0  0
   43.4751   32.8054   46.2836 H   0  0  0  0  0  0  0  0  0  0  0  0
   43.1261   32.4683   49.0474 H   0  0  0  0  0  0  0  0  0  0  0  0
   43.1555   30.6617   49.4071 H   0  0  0  0  0  0  0  0  0  0  0  0
   45.4460   30.9931   49.5289 H   0  0  0  0  0  0  0  0  0  0  0  0
   45.4032   32.4077   48.4019 H   0  0  0  0  0  0  0  0  0  0  0  0
  1  6  2  0
  2  1  1  0
  3  2  2  0
  3  4  1  0
  4  5  2  0
  5  6  1  0
  5  7  1  0
  1  8  1  0
  2  9  1  0
  3 10  1  0
 11 12  1  0
 12 13  1  0
 13 14  1  0
 14 15  1  6
 14 16  1  0
 16 17  1  0
 16 18  1  0
 18 19  1  0
 19 12  1  0
 13 20  1  6
 14 21  1  0
 18 22  1  0
 18 23  1  0
 19 24  1  0
 19 25  1  0
  7 13  1  0
M  ISO  6   8  14   9  14  10  14  11   5  15   8  17   5
M  END
>  <DihAtoms>  (1) 
4,6,12,11

>  <DihDeg>  (1) 
-179.92071705024233

$$$$
