
     RDKit          3D

 25 26  0  0  0  0  0  0  0  0999 V2000
   44.5133   35.9782   44.5346 C   0  0  0  0  0  0  0  0  0  0  0  0
   45.1902   35.9089   43.2960 C   0  0  0  0  0  0  0  0  0  0  0  0
   46.1124   34.8810   43.1028 C   0  0  0  0  0  0  0  0  0  0  0  0
   46.2973   34.0153   44.1200 N   0  0  0  0  0  0  0  0  0  0  0  0
   45.6443   34.0930   45.2978 C   0  0  0  0  0  0  0  0  0  0  0  0
   44.7577   35.0726   45.4972 N   0  0  0  0  0  0  0  0  0  0  0  0
   46.0988   32.8100   46.4445 S   0  0  0  0  0  0  0  0  0  0  0  0
   43.8156   36.7680   44.6599 H   0  0  0  0  0  0  0  0  0  0  0  0
   45.0614   36.5820   42.4759 H   0  0  0  0  0  0  0  0  0  0  0  0
   46.6524   34.7952   42.1642 H   0  0  0  0  0  0  0  0  0  0  0  0
   46.6350   30.2991   45.5113 H   0  0  0  0  0  0  0  0  0  0  0  0
   45.9868   30.1924   46.3109 N   0  0  0  0  0  0  0  0  0  0  0  0
   45.0722   31.3273   46.2798 C   0  0  1  0  0  0  0  0  0  0  0  0
   44.1717   31.1703   47.5068 C   0  0  2  0  0  0  0  0  0  0  0  0
   43.0899   31.1090   47.2020 H   0  0  0  0  0  0  0  0  0  0  0  0
   44.4396   29.9517   48.2366 N   0  0  0  0  0  0  0  0  0  0  0  0
   44.2689   29.1495   47.5688 H   0  0  0  0  0  0  0  0  0  0  0  0
   45.8187   29.8596   48.6644 C   0  0  0  0  0  0  0  0  0  0  0  0
   46.7320   30.3038   47.5566 C   0  0  0  0  0  0  0  0  0  0  0  0
   44.4266   31.3344   45.3931 H   0  0  0  0  0  0  0  0  0  0  0  0
   44.2464   32.0636   48.1537 H   0  0  0  0  0  0  0  0  0  0  0  0
   45.9951   30.4196   49.6074 H   0  0  0  0  0  0  0  0  0  0  0  0
   46.0019   28.7567   48.8145 H   0  0  0  0  0  0  0  0  0  0  0  0
   47.6555   29.6903   47.4859 H   0  0  0  0  0  0  0  0  0  0  0  0
   47.0160   31.3697   47.6941 H   0  0  0  0  0  0  0  0  0  0  0  0
  1  6  2  0
  2  1  1  0
  3  2  2  0
  3  4  1  0
  4  5  2  0
  5  6  1  0
  5  7  1  0
  1  8  1  0
  2  9  1  0
  3 10  1  0
 11 12  1  0
 12 13  1  0
 13 14  1  0
 14 15  1  6
 14 16  1  0
 16 17  1  0
 16 18  1  0
 18 19  1  0
 19 12  1  0
 13 20  1  6
 14 21  1  0
 18 22  1  0
 18 23  1  0
 19 24  1  0
 19 25  1  0
  7 13  1  0
M  ISO  6   8  14   9  14  10  14  11   5  15   8  17   5
M  END
>  <DihAtoms>  (1) 
4,6,12,11

>  <DihDeg>  (1) 
-179.92071705024233

$$$$
