
     RDKit          3D

 25 26  0  0  0  0  0  0  0  0999 V2000
   44.5133   35.9782   44.5346 C   0  0  0  0  0  0  0  0  0  0  0  0
   45.1902   35.9089   43.2960 C   0  0  0  0  0  0  0  0  0  0  0  0
   46.1124   34.8810   43.1028 C   0  0  0  0  0  0  0  0  0  0  0  0
   46.2973   34.0153   44.1200 N   0  0  0  0  0  0  0  0  0  0  0  0
   45.6443   34.0930   45.2978 C   0  0  0  0  0  0  0  0  0  0  0  0
   44.7577   35.0726   45.4972 N   0  0  0  0  0  0  0  0  0  0  0  0
   46.0988   32.8100   46.4445 S   0  0  0  0  0  0  0  0  0  0  0  0
   43.8156   36.7680   44.6599 H   0  0  0  0  0  0  0  0  0  0  0  0
   45.0614   36.5820   42.4759 H   0  0  0  0  0  0  0  0  0  0  0  0
   46.6524   34.7952   42.1642 H   0  0  0  0  0  0  0  0  0  0  0  0
   43.4236   32.4672   46.0097 H   0  0  0  0  0  0  0  0  0  0  0  0
   43.9130   31.7197   45.4876 N   0  0  0  0  0  0  0  0  0  0  0  0
   45.0722   31.3273   46.2798 C   0  0  1  0  0  0  0  0  0  0  0  0
   45.8035   30.2687   45.4518 C   0  0  2  0  0  0  0  0  0  0  0  0
   45.8872   29.3030   46.0240 H   0  0  0  0  0  0  0  0  0  0  0  0
   45.1011   29.9385   44.2324 N   0  0  0  0  0  0  0  0  0  0  0  0
   44.1507   29.5706   44.5150 H   0  0  0  0  0  0  0  0  0  0  0  0
   44.8745   31.0983   43.3978 C   0  0  0  0  0  0  0  0  0  0  0  0
   44.4357   32.2620   44.2416 C   0  0  0  0  0  0  0  0  0  0  0  0
   44.8017   30.8696   47.2392 H   0  0  0  0  0  0  0  0  0  0  0  0
   46.8438   30.5871   45.2555 H   0  0  0  0  0  0  0  0  0  0  0  0
   45.7639   31.3384   42.7769 H   0  0  0  0  0  0  0  0  0  0  0  0
   43.9966   30.8192   42.7468 H   0  0  0  0  0  0  0  0  0  0  0  0
   43.6505   32.8778   43.7534 H   0  0  0  0  0  0  0  0  0  0  0  0
   45.3043   32.9112   44.4860 H   0  0  0  0  0  0  0  0  0  0  0  0
  1  6  2  0
  2  1  1  0
  3  2  2  0
  3  4  1  0
  4  5  2  0
  5  6  1  0
  5  7  1  0
  1  8  1  0
  2  9  1  0
  3 10  1  0
 11 12  1  0
 12 13  1  0
 13 14  1  0
 14 15  1  1
 14 16  1  0
 16 17  1  0
 16 18  1  0
 18 19  1  0
 19 12  1  0
 13 20  1  1
 14 21  1  0
 18 22  1  0
 18 23  1  0
 19 24  1  0
 19 25  1  0
  7 13  1  0
M  ISO  6   8  14   9  14  10  14  11   5  15   8  17   5
M  END
>  <DihAtoms>  (1) 
4,6,12,11

>  <DihDeg>  (1) 
-179.92071705024233

$$$$
