
     RDKit          3D

 25 26  0  0  0  0  0  0  0  0999 V2000
   44.5133   35.9782   44.5346 C   0  0  0  0  0  0  0  0  0  0  0  0
   45.1902   35.9089   43.2960 C   0  0  0  0  0  0  0  0  0  0  0  0
   46.1124   34.8810   43.1028 C   0  0  0  0  0  0  0  0  0  0  0  0
   46.2973   34.0153   44.1200 N   0  0  0  0  0  0  0  0  0  0  0  0
   45.6443   34.0930   45.2978 C   0  0  0  0  0  0  0  0  0  0  0  0
   44.7577   35.0726   45.4972 N   0  0  0  0  0  0  0  0  0  0  0  0
   46.0988   32.8100   46.4445 S   0  0  0  0  0  0  0  0  0  0  0  0
   43.8156   36.7680   44.6599 H   0  0  0  0  0  0  0  0  0  0  0  0
   45.0614   36.5820   42.4759 H   0  0  0  0  0  0  0  0  0  0  0  0
   46.6524   34.7952   42.1642 H   0  0  0  0  0  0  0  0  0  0  0  0
   46.7199   30.1839   46.0195 H   0  0  0  0  0  0  0  0  0  0  0  0
   45.9144   30.2027   46.6689 N   0  0  0  0  0  0  0  0  0  0  0  0
   45.0722   31.3273   46.2798 C   0  0  1  0  0  0  0  0  0  0  0  0
   43.9285   31.3621   47.2956 C   0  0  2  0  0  0  0  0  0  0  0  0
   42.9333   31.2644   46.7787 H   0  0  0  0  0  0  0  0  0  0  0  0
   43.9889   30.2641   48.2337 N   0  0  0  0  0  0  0  0  0  0  0  0
   43.9309   29.3725   47.6676 H   0  0  0  0  0  0  0  0  0  0  0  0
   45.2425   30.2262   48.9549 C   0  0  0  0  0  0  0  0  0  0  0  0
   46.3851   30.4930   48.0157 C   0  0  0  0  0  0  0  0  0  0  0  0
   44.6281   31.2070   45.2841 H   0  0  0  0  0  0  0  0  0  0  0  0
   43.9007   32.3414   47.8078 H   0  0  0  0  0  0  0  0  0  0  0  0
   45.2387   30.9194   49.8231 H   0  0  0  0  0  0  0  0  0  0  0  0
   45.3465   29.1568   49.2981 H   0  0  0  0  0  0  0  0  0  0  0  0
   47.2778   29.8687   48.2331 H   0  0  0  0  0  0  0  0  0  0  0  0
   46.6755   31.5653   48.0555 H   0  0  0  0  0  0  0  0  0  0  0  0
  1  6  2  0
  2  1  1  0
  3  2  2  0
  3  4  1  0
  4  5  2  0
  5  6  1  0
  5  7  1  0
  1  8  1  0
  2  9  1  0
  3 10  1  0
 11 12  1  0
 12 13  1  0
 13 14  1  0
 14 15  1  6
 14 16  1  0
 16 17  1  0
 16 18  1  0
 18 19  1  0
 19 12  1  0
 13 20  1  6
 14 21  1  0
 18 22  1  0
 18 23  1  0
 19 24  1  0
 19 25  1  0
  7 13  1  0
M  ISO  6   8  14   9  14  10  14  11   5  15   8  17   5
M  END
>  <DihAtoms>  (1) 
4,6,12,11

>  <DihDeg>  (1) 
-179.92071705024233

$$$$
