
     RDKit          3D

 25 26  0  0  0  0  0  0  0  0999 V2000
   44.5133   35.9782   44.5346 C   0  0  0  0  0  0  0  0  0  0  0  0
   45.1902   35.9089   43.2960 C   0  0  0  0  0  0  0  0  0  0  0  0
   46.1124   34.8810   43.1028 C   0  0  0  0  0  0  0  0  0  0  0  0
   46.2973   34.0153   44.1200 N   0  0  0  0  0  0  0  0  0  0  0  0
   45.6443   34.0930   45.2978 C   0  0  0  0  0  0  0  0  0  0  0  0
   44.7577   35.0726   45.4972 N   0  0  0  0  0  0  0  0  0  0  0  0
   46.0988   32.8100   46.4445 S   0  0  0  0  0  0  0  0  0  0  0  0
   43.8156   36.7680   44.6599 H   0  0  0  0  0  0  0  0  0  0  0  0
   45.0614   36.5820   42.4759 H   0  0  0  0  0  0  0  0  0  0  0  0
   46.6524   34.7952   42.1642 H   0  0  0  0  0  0  0  0  0  0  0  0
   45.5933   30.7284   48.1399 H   0  0  0  0  0  0  0  0  0  0  0  0
   44.7123   30.9277   47.6349 N   0  0  0  0  0  0  0  0  0  0  0  0
   45.0722   31.3273   46.2798 C   0  0  1  0  0  0  0  0  0  0  0  0
   43.7543   31.6729   45.5836 C   0  0  2  0  0  0  0  0  0  0  0  0
   43.6065   31.0326   44.6697 H   0  0  0  0  0  0  0  0  0  0  0  0
   42.6041   31.4241   46.4229 N   0  0  0  0  0  0  0  0  0  0  0  0
   42.6162   30.3943   46.6638 H   0  0  0  0  0  0  0  0  0  0  0  0
   42.6679   32.1513   47.6719 C   0  0  0  0  0  0  0  0  0  0  0  0
   44.0579   32.0795   48.2390 C   0  0  0  0  0  0  0  0  0  0  0  0
   45.5490   30.5224   45.7071 H   0  0  0  0  0  0  0  0  0  0  0  0
   43.7779   32.7146   45.2140 H   0  0  0  0  0  0  0  0  0  0  0  0
   42.3120   33.1975   47.5575 H   0  0  0  0  0  0  0  0  0  0  0  0
   41.9994   31.5767   48.3757 H   0  0  0  0  0  0  0  0  0  0  0  0
   44.0684   31.9675   49.3441 H   0  0  0  0  0  0  0  0  0  0  0  0
   44.6354   32.9882   47.9623 H   0  0  0  0  0  0  0  0  0  0  0  0
  1  6  2  0
  2  1  1  0
  3  2  2  0
  3  4  1  0
  4  5  2  0
  5  6  1  0
  5  7  1  0
  1  8  1  0
  2  9  1  0
  3 10  1  0
 11 12  1  0
 12 13  1  0
 13 14  1  0
 14 15  1  6
 14 16  1  0
 16 17  1  0
 16 18  1  0
 18 19  1  0
 19 12  1  0
 13 20  1  6
 14 21  1  0
 18 22  1  0
 18 23  1  0
 19 24  1  0
 19 25  1  0
  7 13  1  0
M  ISO  6   8  14   9  14  10  14  11   5  15   8  17   5
M  END
>  <DihAtoms>  (1) 
4,6,12,11

>  <DihDeg>  (1) 
-179.92071705024233

$$$$
