
     RDKit          3D

 25 26  0  0  0  0  0  0  0  0999 V2000
   44.5133   35.9782   44.5346 C   0  0  0  0  0  0  0  0  0  0  0  0
   45.1902   35.9089   43.2960 C   0  0  0  0  0  0  0  0  0  0  0  0
   46.1124   34.8810   43.1028 C   0  0  0  0  0  0  0  0  0  0  0  0
   46.2973   34.0153   44.1200 N   0  0  0  0  0  0  0  0  0  0  0  0
   45.6443   34.0930   45.2978 C   0  0  0  0  0  0  0  0  0  0  0  0
   44.7577   35.0726   45.4972 N   0  0  0  0  0  0  0  0  0  0  0  0
   46.0988   32.8100   46.4445 S   0  0  0  0  0  0  0  0  0  0  0  0
   43.8156   36.7680   44.6599 H   0  0  0  0  0  0  0  0  0  0  0  0
   45.0614   36.5820   42.4759 H   0  0  0  0  0  0  0  0  0  0  0  0
   46.6524   34.7952   42.1642 H   0  0  0  0  0  0  0  0  0  0  0  0
   43.4801   32.3133   47.0436 H   0  0  0  0  0  0  0  0  0  0  0  0
   43.6951   31.7942   46.1745 N   0  0  0  0  0  0  0  0  0  0  0  0
   45.0722   31.3273   46.2798 C   0  0  1  0  0  0  0  0  0  0  0  0
   45.3747   30.6206   44.9569 C   0  0  2  0  0  0  0  0  0  0  0  0
   45.6728   29.5501   45.1360 H   0  0  0  0  0  0  0  0  0  0  0  0
   44.2230   30.5628   44.0853 N   0  0  0  0  0  0  0  0  0  0  0  0
   43.4704   30.0316   44.6050 H   0  0  0  0  0  0  0  0  0  0  0  0
   43.6889   31.8753   43.7931 C   0  0  0  0  0  0  0  0  0  0  0  0
   43.6607   32.7095   45.0429 C   0  0  0  0  0  0  0  0  0  0  0  0
   45.2180   30.5983   47.0864 H   0  0  0  0  0  0  0  0  0  0  0  0
   46.2440   31.0907   44.4614 H   0  0  0  0  0  0  0  0  0  0  0  0
   44.2430   32.3704   42.9672 H   0  0  0  0  0  0  0  0  0  0  0  0
   42.6152   31.6920   43.5000 H   0  0  0  0  0  0  0  0  0  0  0  0
   42.7540   33.3472   45.1163 H   0  0  0  0  0  0  0  0  0  0  0  0
   44.5630   33.3568   45.0956 H   0  0  0  0  0  0  0  0  0  0  0  0
  1  6  2  0
  2  1  1  0
  3  2  2  0
  3  4  1  0
  4  5  2  0
  5  6  1  0
  5  7  1  0
  1  8  1  0
  2  9  1  0
  3 10  1  0
 11 12  1  0
 12 13  1  0
 13 14  1  0
 14 15  1  1
 14 16  1  0
 16 17  1  0
 16 18  1  0
 18 19  1  0
 19 12  1  0
 13 20  1  1
 14 21  1  0
 18 22  1  0
 18 23  1  0
 19 24  1  0
 19 25  1  0
  7 13  1  0
M  ISO  6   8  14   9  14  10  14  11   5  15   8  17   5
M  END
>  <DihAtoms>  (1) 
4,6,12,11

>  <DihDeg>  (1) 
-179.92071705024233

$$$$
