
     RDKit          3D

 43 46  0  0  0  0  0  0  0  0999 V2000
   46.5575   32.3944   44.9787 C   0  0  2  0  0  0  0  0  0  0  0  0
   46.8557   31.1530   44.8900 N   0  0  0  0  0  0  0  0  0  0  0  0
   47.9253   30.5026   44.7218 C   0  0  0  0  0  0  0  0  0  0  0  0
   47.9680   30.2143   46.0271 N   0  0  0  0  0  0  0  0  0  0  0  0
   47.1414   30.8896   46.8731 C   0  0  0  0  0  0  0  0  0  0  0  0
   47.0855   30.4189   48.2098 C   0  0  0  0  0  0  0  0  0  0  0  0
   46.2382   31.0500   49.0575 C   0  0  0  0  0  0  0  0  0  0  0  0
   45.4349   32.0996   48.7272 C   0  0  0  0  0  0  0  0  0  0  0  0
   45.5773   32.4685   47.3989 C   0  0  0  0  0  0  0  0  0  0  0  0
   46.3730   31.9776   46.3620 C   0  0  0  0  0  0  0  0  0  0  0  0
   44.6127   35.5452   45.2621 C   0  0  0  0  0  0  0  0  0  0  0  0
   44.3249   35.6474   43.8875 C   0  0  0  0  0  0  0  0  0  0  0  0
   44.8105   34.6457   43.0617 C   0  0  0  0  0  0  0  0  0  0  0  0
   45.5165   33.6606   43.6513 N   0  0  0  0  0  0  0  0  0  0  0  0
   45.7829   33.5834   44.9856 C   0  0  0  0  0  0  0  0  0  0  0  0
   45.3095   34.5284   45.6701 N   0  0  0  0  0  0  0  0  0  0  0  0
   44.4702   34.7657   41.3075 S   0  0  0  0  0  0  0  0  0  0  0  0
   47.6240   32.8945   45.0243 H   0  0  0  0  0  0  0  0  0  0  0  0
   46.0400   30.6237   44.4739 H   0  0  0  0  0  0  0  0  0  0  0  0
   47.9088   29.5835   44.0725 H   0  0  0  0  0  0  0  0  0  0  0  0
   48.8327   31.0529   44.3530 H   0  0  0  0  0  0  0  0  0  0  0  0
   48.6635   29.4628   46.2910 H   0  0  0  0  0  0  0  0  0  0  0  0
   47.6660   29.6133   48.5656 H   0  0  0  0  0  0  0  0  0  0  0  0
   46.2028   30.6767   50.0977 H   0  0  0  0  0  0  0  0  0  0  0  0
   44.7856   32.5698   49.4068 H   0  0  0  0  0  0  0  0  0  0  0  0
   44.8907   33.2808   47.1915 H   0  0  0  0  0  0  0  0  0  0  0  0
   44.2586   36.2983   45.9517 H   0  0  0  0  0  0  0  0  0  0  0  0
   43.7444   36.4941   43.5449 H   0  0  0  0  0  0  0  0  0  0  0  0
   43.9797   32.9134   39.4568 H   0  0  0  0  0  0  0  0  0  0  0  0
   43.2647   32.6991   40.1888 N   0  0  0  0  0  0  0  0  0  0  0  0
   42.9321   33.9521   40.8522 C   0  0  2  0  0  0  0  0  0  0  0  0
   42.2010   34.7939   39.8005 C   0  0  1  0  0  0  0  0  0  0  0  0
   42.1877   35.8605   40.0459 H   0  0  0  0  0  0  0  0  0  0  0  0
   40.8882   34.2352   39.5509 N   0  0  0  0  0  0  0  0  0  0  0  0
   40.2526   34.7036   40.2458 H   0  0  0  0  0  0  0  0  0  0  0  0
   40.8234   32.8244   39.8126 C   0  0  0  0  0  0  0  0  0  0  0  0
   42.1277   32.1137   39.5531 C   0  0  0  0  0  0  0  0  0  0  0  0
   42.2705   33.7726   41.7170 H   0  0  0  0  0  0  0  0  0  0  0  0
   42.7904   34.6770   38.8679 H   0  0  0  0  0  0  0  0  0  0  0  0
   40.0782   32.3928   39.0990 H   0  0  0  0  0  0  0  0  0  0  0  0
   40.4250   32.5962   40.8224 H   0  0  0  0  0  0  0  0  0  0  0  0
   42.0074   31.0899   40.0128 H   0  0  0  0  0  0  0  0  0  0  0  0
   42.3036   31.9368   38.4783 H   0  0  0  0  0  0  0  0  0  0  0  0
  1 15  1  0
  1 10  1  0
  2  1  1  0
  3  2  1  0
  3  4  1  0
  4  5  1  0
  5  6  2  0
  6  7  1  0
  8  7  2  0
  9  8  1  0
 10  5  1  0
 10  9  2  0
 11 16  2  0
 12 11  1  0
 13 14  1  0
 13 12  2  0
 14 15  2  0
 15 16  1  0
 17 13  1  0
  1 18  1  1
  2 19  1  0
  3 20  1  0
  3 21  1  0
  4 22  1  0
  6 23  1  0
  7 24  1  0
  8 25  1  0
  9 26  1  0
 11 27  1  0
 12 28  1  0
 29 30  1  0
 30 31  1  0
 31 32  1  0
 32 33  1  1
 32 34  1  0
 34 35  1  0
 34 36  1  0
 36 37  1  0
 37 30  1  0
 31 38  1  1
 32 39  1  0
 36 40  1  0
 36 41  1  0
 37 42  1  0
 37 43  1  0
 17 31  1  0
M  END
>  <DihAtoms>  (1) 
12,16,30,29

>  <DihDeg>  (1) 
-179.99754936261752

$$$$
