
     RDKit          3D

 44 48  0  0  0  0  0  0  0  0999 V2000
   47.2030   31.2230   45.2250 C   0  0  0  0  0  0  0  0  0  0  0  0
   46.9230   32.5800   45.1440 C   0  0  0  0  0  0  0  0  0  0  0  0
   46.3520   33.2960   46.1700 C   0  0  0  0  0  0  0  0  0  0  0  0
   46.0290   32.6520   47.3610 C   0  0  0  0  0  0  0  0  0  0  0  0
   45.4740   33.0170   48.5500 N   0  0  0  0  0  0  0  0  0  0  0  0
   45.4100   31.9240   49.3490 C   0  0  0  0  0  0  0  0  0  0  0  0
   45.9280   30.8840   48.6450 N   0  0  0  0  0  0  0  0  0  0  0  0
   46.3100   31.3110   47.4310 C   0  0  0  0  0  0  0  0  0  0  0  0
   46.8760   30.5760   46.4290 C   0  0  0  0  0  0  0  0  0  0  0  0
   46.8010   34.9980   42.3750 C   0  0  0  0  0  0  0  0  0  0  0  0
   47.8750   34.6080   41.5830 C   0  0  0  0  0  0  0  0  0  0  0  0
   48.6410   33.5200   41.9950 C   0  0  0  0  0  0  0  0  0  0  0  0
   48.3030   32.8820   43.1590 N   0  0  0  0  0  0  0  0  0  0  0  0
   47.2500   33.2910   43.9040 C   0  0  0  0  0  0  0  0  0  0  0  0
   46.5090   34.3370   43.5130 N   0  0  0  0  0  0  0  0  0  0  0  0
   47.1420   29.1390   46.5940 C   0  0  0  0  0  0  0  0  0  0  0  0
   48.1200   28.4360   45.9330 C   0  0  0  0  0  0  0  0  0  0  0  0
   47.9990   27.1290   46.3990 C   0  0  0  0  0  0  0  0  0  0  0  0
   46.9630   27.1190   47.3070 C   0  0  0  0  0  0  0  0  0  0  0  0
   46.4750   28.3380   47.3970 O   0  0  0  0  0  0  0  0  0  0  0  0
   46.4470   26.0310   48.0580 N   0  0  0  0  0  0  0  0  0  0  0  0
   47.2610   25.1540   48.8440 C   0  0  0  0  0  0  0  0  0  0  0  0
   46.4920   24.1770   49.6580 C   0  0  0  0  0  0  0  0  0  0  0  0
   45.2810   24.6550   50.2440 N   0  0  0  0  0  0  0  0  0  0  0  0
   44.6280   25.7210   49.5500 C   0  0  0  0  0  0  0  0  0  0  0  0
   45.0380   25.6920   48.1100 C   0  0  0  0  0  0  0  0  0  0  0  0
   47.6599   30.6789   44.3853 H   0  0  0  0  0  0  0  0  0  0  0  0
   46.1518   34.3710   46.0502 H   0  0  0  0  0  0  0  0  0  0  0  0
   45.1563   33.9644   48.8000 H   0  0  0  0  0  0  0  0  0  0  0  0
   45.0134   31.8862   50.3743 H   0  0  0  0  0  0  0  0  0  0  0  0
   46.1829   35.8552   42.0698 H   0  0  0  0  0  0  0  0  0  0  0  0
   48.1141   35.1456   40.6536 H   0  0  0  0  0  0  0  0  0  0  0  0
   49.4999   33.1801   41.3977 H   0  0  0  0  0  0  0  0  0  0  0  0
   48.8409   28.8211   45.1968 H   0  0  0  0  0  0  0  0  0  0  0  0
   48.6141   26.2679   46.0989 H   0  0  0  0  0  0  0  0  0  0  0  0
   47.9206   24.5940   48.1648 H   0  0  0  0  0  0  0  0  0  0  0  0
   47.8170   25.7871   49.5512 H   0  0  0  0  0  0  0  0  0  0  0  0
   46.2369   23.3269   49.0082 H   0  0  0  0  0  0  0  0  0  0  0  0
   47.1463   23.9219   50.5046 H   0  0  0  0  0  0  0  0  0  0  0  0
   44.6232   23.8642   50.2979 H   0  0  0  0  0  0  0  0  0  0  0  0
   43.5377   25.5961   49.6251 H   0  0  0  0  0  0  0  0  0  0  0  0
   44.9139   26.6844   49.9974 H   0  0  0  0  0  0  0  0  0  0  0  0
   44.4525   26.4258   47.5367 H   0  0  0  0  0  0  0  0  0  0  0  0
   44.8592   24.6984   47.6732 H   0  0  0  0  0  0  0  0  0  0  0  0
  1  9  2  0
  2  1  1  0
  2  3  2  0
  3  4  1  0
  4  8  2  0
  4  5  1  0
  5  6  1  0
  7  6  2  0
  8  7  1  0
  9 16  1  0
  9  8  1  0
 10 15  2  0
 11 12  2  0
 11 10  1  0
 12 13  1  0
 13 14  2  0
 14  2  1  0
 15 14  1  0
 16 20  1  0
 17 18  1  0
 17 16  2  0
 18 19  2  0
 19 20  1  0
 19 21  1  0
 21 26  1  0
 21 22  1  0
 22 23  1  0
 23 24  1  0
 25 24  1  0
 26 25  1  0
  1 27  1  0
  3 28  1  0
  5 29  1  0
  6 30  1  0
 10 31  1  0
 11 32  1  0
 12 33  1  0
 17 34  1  0
 18 35  1  0
 22 36  1  0
 22 37  1  0
 23 38  1  0
 23 39  1  0
 24 40  1  0
 25 41  1  0
 25 42  1  0
 26 43  1  0
 26 44  1  0
M  ISO  8  27  14  28  14  29   9  30  14  31  14  32  14  33  14  34  14
M  ISO  8  35  14  36  13  37  13  38  13  39  13  40   5  41  13  42  13
M  ISO  2  43  13  44  13
M  END
>  <minimizedAffinity>  (1) 
-6.22877073

>  <minimizedRMSD>  (1) 
1.36510229

$$$$
