
     RDKit          3D

 47 50  0  0  0  0  0  0  0  0999 V2000
   45.0220   34.0310   40.8080 C   0  0  0  0  0  0  0  0  0  0  0  0
   43.9730   33.6620   39.9910 C   0  0  0  0  0  0  0  0  0  0  0  0
   44.2790   33.0800   38.7950 C   0  0  0  0  0  0  0  0  0  0  0  0
   45.5560   32.8430   38.3600 C   0  0  0  0  0  0  0  0  0  0  0  0
   46.5890   33.2200   39.1940 C   0  0  0  0  0  0  0  0  0  0  0  0
   46.3320   33.8130   40.4160 C   0  0  0  0  0  0  0  0  0  0  0  0
   40.7250   35.3730   40.8310 C   0  0  0  0  0  0  0  0  0  0  0  0
   42.0250   35.1720   40.3310 C   0  0  0  0  0  0  0  0  0  0  0  0
   42.6380   33.9260   40.4850 C   0  0  0  0  0  0  0  0  0  0  0  0
   41.8960   32.9820   41.1320 N   0  0  0  0  0  0  0  0  0  0  0  0
   40.6650   33.1970   41.5970 C   0  0  0  0  0  0  0  0  0  0  0  0
   40.0800   34.3890   41.4480 N   0  0  0  0  0  0  0  0  0  0  0  0
   40.1540   36.6570   40.6450 N   0  0  0  0  0  0  0  0  0  0  0  0
   47.4860   34.1710   41.2120 C   0  0  0  0  0  0  0  0  0  0  0  0
   48.1150   35.3500   40.8410 C   0  0  0  0  0  0  0  0  0  0  0  0
   49.2440   35.8630   41.4880 C   0  0  0  0  0  0  0  0  0  0  0  0
   49.7490   35.1550   42.5470 C   0  0  0  0  0  0  0  0  0  0  0  0
   49.1410   33.9890   42.9270 C   0  0  0  0  0  0  0  0  0  0  0  0
   48.0170   33.4910   42.2730 C   0  0  0  0  0  0  0  0  0  0  0  0
   47.3850   32.2810   42.6600 N   0  0  0  0  0  0  0  0  0  0  0  0
   46.7830   31.1710   41.8990 C   0  0  0  0  0  0  0  0  0  0  0  0
   45.7540   30.4650   42.7800 C   0  0  0  0  0  0  0  0  0  0  0  0
   45.0270   31.4060   43.5970 N   0  0  0  0  0  0  0  0  0  0  0  0
   45.8580   32.1470   44.5160 C   0  0  0  0  0  0  0  0  0  0  0  0
   47.2880   32.0490   44.0910 C   0  0  0  0  0  0  0  0  0  0  0  0
   44.6160   35.1400   43.1290 N   0  0  0  0  0  0  0  0  0  0  0  0
   44.7940   34.6480   42.0770 C   0  0  0  0  0  0  0  0  0  0  0  0
   43.4476   32.7825   38.1390 H   0  0  0  0  0  0  0  0  0  0  0  0
   45.7503   32.3713   37.3855 H   0  0  0  0  0  0  0  0  0  0  0  0
   47.6296   33.0465   38.8825 H   0  0  0  0  0  0  0  0  0  0  0  0
   42.5551   35.9906   39.8222 H   0  0  0  0  0  0  0  0  0  0  0  0
   40.1261   32.3856   42.1080 H   0  0  0  0  0  0  0  0  0  0  0  0
   40.6879   37.3929   40.1610 H   0  0  0  0  0  0  0  0  0  0  0  0
   39.2051   36.8541   40.9939 H   0  0  0  0  0  0  0  0  0  0  0  0
   47.7031   35.9131   39.9905 H   0  0  0  0  0  0  0  0  0  0  0  0
   49.7106   36.8028   41.1579 H   0  0  0  0  0  0  0  0  0  0  0  0
   50.6350   35.5204   43.0869 H   0  0  0  0  0  0  0  0  0  0  0  0
   49.5541   33.4266   43.7774 H   0  0  0  0  0  0  0  0  0  0  0  0
   46.2890   31.5660   40.9990 H   0  0  0  0  0  0  0  0  0  0  0  0
   47.5657   30.4591   41.5980 H   0  0  0  0  0  0  0  0  0  0  0  0
   45.0431   29.9248   42.1375 H   0  0  0  0  0  0  0  0  0  0  0  0
   46.2865   29.7685   43.4444 H   0  0  0  0  0  0  0  0  0  0  0  0
   44.5530   32.0767   42.9754 H   0  0  0  0  0  0  0  0  0  0  0  0
   45.5488   33.2026   44.5193 H   0  0  0  0  0  0  0  0  0  0  0  0
   45.7481   31.7275   45.5269 H   0  0  0  0  0  0  0  0  0  0  0  0
   47.6726   31.0457   44.3267 H   0  0  0  0  0  0  0  0  0  0  0  0
   47.8821   32.8045   44.6260 H   0  0  0  0  0  0  0  0  0  0  0  0
  1 27  1  0
  2  9  1  0
  2  1  2  0
  3  2  1  0
  4  3  2  0
  4  5  1  0
  5  6  2  0
  6  1  1  0
  6 14  1  0
  7 12  2  0
  8  9  2  0
  8  7  1  0
  9 10  1  0
 10 11  2  0
 12 11  1  0
 13  7  1  0
 14 19  1  0
 15 14  2  0
 15 16  1  0
 16 17  2  0
 17 18  1  0
 19 20  1  0
 19 18  2  0
 20 25  1  0
 21 20  1  0
 21 22  1  0
 22 23  1  0
 23 24  1  0
 25 24  1  0
 27 26  3  0
  3 28  1  0
  4 29  1  0
  5 30  1  0
  8 31  1  0
 11 32  1  0
 13 33  1  0
 13 34  1  0
 15 35  1  0
 16 36  1  0
 17 37  1  0
 18 38  1  0
 21 39  1  0
 21 40  1  0
 22 41  1  0
 22 42  1  0
 23 43  1  0
 24 44  1  0
 24 45  1  0
 25 46  1  0
 25 47  1  0
M  ISO  8  28  14  29  14  30  14  31  14  32  14  35  14  36  14  37  14
M  ISO  8  38  14  39  13  40  13  41  13  42  13  43   5  44  13  45  13
M  ISO  2  46  13  47  13
M  END
>  <minimizedAffinity>  (1) 
-6.27150536

>  <minimizedRMSD>  (1) 
0.647233486

$$$$
