
     RDKit          3D

 49 51  0  0  0  0  0  0  0  0999 V2000
   44.6564   35.2750   45.0647 O   0  0  0  0  0  0  0  0  0  0  0  0
   45.4940   34.2526   44.3324 P   0  0  2  0  0  0  0  0  0  0  0  0
   44.5348   33.0593   43.6399 O   0  0  0  0  0  0  0  0  0  0  0  0
   46.5168   33.4625   45.4142 O   0  0  0  0  0  0  0  0  0  0  0  0
   46.2059   32.1355   45.4183 C   0  0  0  0  0  0  0  0  0  0  0  0
   45.7571   32.0360   49.1190 C   0  0  0  0  0  0  0  0  0  0  0  0
   46.0602   32.5268   47.8385 C   0  0  0  0  0  0  0  0  0  0  0  0
   45.8951   31.6468   46.7763 C   0  0  0  0  0  0  0  0  0  0  0  0
   45.4575   30.3837   47.0304 N   0  0  0  0  0  0  0  0  0  0  0  0
   45.1738   29.9352   48.2577 C   0  0  0  0  0  0  0  0  0  0  0  0
   45.3271   30.7709   49.2992 N   0  0  0  0  0  0  0  0  0  0  0  0
   46.4168   35.0344   43.1705 O   0  0  0  0  0  0  0  0  0  0  0  0
   46.9406   34.0976   42.2984 C   0  0  1  0  0  0  0  0  0  0  0  0
   46.4029   34.2688   40.8845 C   0  0  0  0  0  0  0  0  0  0  0  0
   47.3242   33.3644   40.1037 C   0  0  0  0  0  0  0  0  0  0  0  0
   48.6309   33.3455   40.8676 C   0  0  0  0  0  0  0  0  0  0  0  0
   48.4147   34.2905   42.0343 C   0  0  1  0  0  0  0  0  0  0  0  0
   48.7652   35.7173   41.7055 C   0  0  0  0  0  0  0  0  0  0  0  0
   43.6563   33.4346   43.3859 H   0  0  0  0  0  0  0  0  0  0  0  0
   47.1412   31.5782   45.1125 H   0  0  0  0  0  0  0  0  0  0  0  0
   45.4322   31.7823   44.7478 H   0  0  0  0  0  0  0  0  0  0  0  0
   45.8711   32.6880   49.9956 H   0  0  0  0  0  0  0  0  0  0  0  0
   46.4032   33.5444   47.7207 H   0  0  0  0  0  0  0  0  0  0  0  0
   44.8306   28.9282   48.4386 H   0  0  0  0  0  0  0  0  0  0  0  0
   46.7467   33.0610   42.5921 H   0  0  0  0  0  0  0  0  0  0  0  0
   45.3484   33.8920   40.9096 H   0  0  0  0  0  0  0  0  0  0  0  0
   46.4005   35.3029   40.5524 H   0  0  0  0  0  0  0  0  0  0  0  0
   47.4357   33.6410   39.0598 H   0  0  0  0  0  0  0  0  0  0  0  0
   46.8985   32.3305   40.1974 H   0  0  0  0  0  0  0  0  0  0  0  0
   49.4193   33.8002   40.2174 H   0  0  0  0  0  0  0  0  0  0  0  0
   48.9516   32.3446   41.1875 H   0  0  0  0  0  0  0  0  0  0  0  0
   49.0456   33.9738   42.8870 H   0  0  0  0  0  0  0  0  0  0  0  0
   48.3030   36.0710   40.7587 H   0  0  0  0  0  0  0  0  0  0  0  0
   49.8524   35.7520   41.6010 H   0  0  0  0  0  0  0  0  0  0  0  0
   48.3928   36.5253   42.8498 N   0  0  0  0  0  0  0  0  0  0  0  0
   48.4737   37.9223   42.5289 C   0  0  1  0  0  0  0  0  0  0  0  0
   49.4777   38.3629   42.6974 H   0  0  0  0  0  0  0  0  0  0  0  0
   47.4633   38.7818   43.2237 C   0  0  1  0  0  0  0  0  0  0  0  0
   47.8120   39.0003   44.2733 H   0  0  0  0  0  0  0  0  0  0  0  0
   46.1403   38.2390   43.2012 N   0  0  0  0  0  0  0  0  0  0  0  0
   45.4835   38.7524   42.5865 H   0  0  0  0  0  0  0  0  0  0  0  0
   46.0443   36.8412   42.9146 C   0  0  0  0  0  0  0  0  0  0  0  0
   47.2128   36.1141   43.5339 C   0  0  0  0  0  0  0  0  0  0  0  0
   48.2820   38.0209   41.4136 H   0  0  0  0  0  0  0  0  0  0  0  0
   47.4625   39.7678   42.7008 H   0  0  0  0  0  0  0  0  0  0  0  0
   45.0743   36.4513   43.3107 H   0  0  0  0  0  0  0  0  0  0  0  0
   46.1243   36.6948   41.8151 H   0  0  0  0  0  0  0  0  0  0  0  0
   47.3145   36.4120   44.6143 H   0  0  0  0  0  0  0  0  0  0  0  0
   47.1099   35.0187   43.4959 H   0  0  0  0  0  0  0  0  0  0  0  0
  2  1  2  0
  2  4  1  1
  3  2  1  0
  4  5  1  0
  5  8  1  0
  6 11  2  0
  7  6  1  0
  8  9  1  0
  8  7  2  0
  9 10  2  0
 10 11  1  0
 12  2  1  0
 13 12  1  0
 14 13  1  0
 15 16  1  0
 15 14  1  0
 16 17  1  0
 17 13  1  0
 18 17  1  0
  3 19  1  0
  5 20  1  0
  5 21  1  0
  6 22  1  0
  7 23  1  0
 10 24  1  0
 13 25  1  1
 14 26  1  0
 14 27  1  0
 15 28  1  0
 15 29  1  0
 16 30  1  0
 16 31  1  0
 17 32  1  1
 18 33  1  0
 18 34  1  0
 35 36  1  0
 36 37  1  6
 36 38  1  0
 38 39  1  1
 38 40  1  0
 40 41  1  0
 40 42  1  0
 42 43  1  0
 43 35  1  0
 36 44  1  0
 38 45  1  0
 42 46  1  0
 42 47  1  0
 43 48  1  0
 43 49  1  0
 18 35  1  0
M  ISO  8  19   3  20   8  21   8  22  14  23  14  24  14  25  13  26  13
M  ISO  8  27  13  28  13  29  13  30  13  31  13  32  13  33   8  34   8
M  ISO  3  37   8  39   8  41   5
M  END
>  <DihAtoms>  (1) 
16,17,34,35

>  <DihDeg>  (1) 
70.21961736857222

$$$$
