
     RDKit          3D

 30 31  0  0  0  0  0  0  0  0999 V2000
   47.0220   34.8020   41.9630 C   0  0  0  0  0  0  0  0  0  0  0  0
   44.5180   36.0140   44.5230 C   0  0  0  0  0  0  0  0  0  0  0  0
   45.2900   35.9440   43.3340 C   0  0  0  0  0  0  0  0  0  0  0  0
   46.2040   34.9050   43.1850 C   0  0  0  0  0  0  0  0  0  0  0  0
   46.3020   34.0040   44.2120 N   0  0  0  0  0  0  0  0  0  0  0  0
   45.5570   34.0930   45.3310 C   0  0  0  0  0  0  0  0  0  0  0  0
   44.6810   35.0790   45.4850 N   0  0  0  0  0  0  0  0  0  0  0  0
   48.4760   34.6390   42.3670 C   0  0  0  0  0  0  0  0  0  0  0  0
   49.0160   33.3560   41.9080 N   0  0  0  0  0  0  0  0  0  0  0  0
   50.3990   33.3790   42.2690 C   0  0  0  0  0  0  0  0  0  0  0  0
   51.2560   32.3530   41.5930 C   0  0  0  0  0  0  0  0  0  0  0  0
   50.8610   32.0150   40.2600 N   0  0  0  0  0  0  0  0  0  0  0  0
   49.4390   31.8250   40.1480 C   0  0  0  0  0  0  0  0  0  0  0  0
   48.7820   33.1500   40.5040 C   0  0  0  0  0  0  0  0  0  0  0  0
   46.9047   35.7147   41.3603 H   0  0  0  0  0  0  0  0  0  0  0  0
   46.6984   33.9370   41.3655 H   0  0  0  0  0  0  0  0  0  0  0  0
   43.7895   36.8266   44.6609 H   0  0  0  0  0  0  0  0  0  0  0  0
   45.1679   36.6987   42.5431 H   0  0  0  0  0  0  0  0  0  0  0  0
   45.6756   33.3412   46.1252 H   0  0  0  0  0  0  0  0  0  0  0  0
   49.0649   35.4550   41.9228 H   0  0  0  0  0  0  0  0  0  0  0  0
   48.5365   34.6681   43.4649 H   0  0  0  0  0  0  0  0  0  0  0  0
   50.7986   34.3730   42.0193 H   0  0  0  0  0  0  0  0  0  0  0  0
   50.4361   33.1452   43.3432 H   0  0  0  0  0  0  0  0  0  0  0  0
   52.2851   32.7397   41.5557 H   0  0  0  0  0  0  0  0  0  0  0  0
   51.1553   31.4315   42.1852 H   0  0  0  0  0  0  0  0  0  0  0  0
   51.1452   32.7758   39.6265 H   0  0  0  0  0  0  0  0  0  0  0  0
   49.1764   31.5379   39.1191 H   0  0  0  0  0  0  0  0  0  0  0  0
   49.0965   31.0247   40.8204 H   0  0  0  0  0  0  0  0  0  0  0  0
   49.2315   33.9664   39.9198 H   0  0  0  0  0  0  0  0  0  0  0  0
   47.7057   33.1345   40.2776 H   0  0  0  0  0  0  0  0  0  0  0  0
  1  8  1  0
  1  4  1  0
  2  7  2  0
  3  2  1  0
  4  3  2  0
  4  5  1  0
  5  6  2  0
  6  7  1  0
  9 10  1  0
  9  8  1  0
 11 10  1  0
 12 11  1  0
 13 12  1  0
 13 14  1  0
 14  9  1  0
  1 15  1  0
  1 16  1  0
  2 17  1  0
  3 18  1  0
  6 19  1  0
  8 20  1  0
  8 21  1  0
 10 22  1  0
 10 23  1  0
 11 24  1  0
 11 25  1  0
 12 26  1  0
 13 27  1  0
 13 28  1  0
 14 29  1  0
 14 30  1  0
M  ISO  8  15   8  16   8  17  14  18  14  19  14  20   8  21   8  22  13
M  ISO  8  23  13  24  13  25  13  26   5  27  13  28  13  29  13  30  13
M  END
>  <minimizedAffinity>  (1) 
-4.30783081

>  <minimizedRMSD>  (1) 
2.48809004

$$$$
