
     RDKit          3D

 27 28  0  0  0  0  0  0  0  0999 V2000
   44.5623   36.0082   44.4947 C   0  0  0  0  0  0  0  0  0  0  0  0
   45.3050   35.9267   43.2908 C   0  0  0  0  0  0  0  0  0  0  0  0
   46.1934   34.8530   43.1792 C   0  0  0  0  0  0  0  0  0  0  0  0
   46.3123   33.9552   44.1903 N   0  0  0  0  0  0  0  0  0  0  0  0
   45.5663   34.0902   45.3271 C   0  0  0  0  0  0  0  0  0  0  0  0
   44.7071   35.1022   45.4709 N   0  0  0  0  0  0  0  0  0  0  0  0
   46.9555   34.7795   41.9301 C   0  0  0  0  0  0  0  0  0  0  0  0
   43.8520   36.8051   44.6676 H   0  0  0  0  0  0  0  0  0  0  0  0
   45.1563   36.6800   42.5291 H   0  0  0  0  0  0  0  0  0  0  0  0
   45.6606   33.3707   46.1392 H   0  0  0  0  0  0  0  0  0  0  0  0
   46.2961   35.0504   41.0823 H   0  0  0  0  0  0  0  0  0  0  0  0
   47.1888   33.6930   41.7620 H   0  0  0  0  0  0  0  0  0  0  0  0
   48.2055   35.4667   41.9391 N   0  0  0  0  0  0  0  0  0  0  0  0
   48.8820   35.1475   43.1837 C   0  0  1  0  0  0  0  0  0  0  0  0
   49.1812   36.0748   43.7252 H   0  0  0  0  0  0  0  0  0  0  0  0
   50.1520   34.3630   42.9495 C   0  0  2  0  0  0  0  0  0  0  0  0
   49.9711   33.3929   42.4542 H   0  0  0  0  0  0  0  0  0  0  0  0
   51.0712   35.1861   42.2197 N   0  0  0  0  0  0  0  0  0  0  0  0
   51.4328   35.9538   42.8193 H   0  0  0  0  0  0  0  0  0  0  0  0
   50.4192   35.7952   41.0688 C   0  0  0  0  0  0  0  0  0  0  0  0
   49.0533   35.1519   40.8245 C   0  0  0  0  0  0  0  0  0  0  0  0
   48.2332   34.5260   43.8615 H   0  0  0  0  0  0  0  0  0  0  0  0
   50.5679   34.1506   43.9680 H   0  0  0  0  0  0  0  0  0  0  0  0
   51.0438   35.7631   40.1641 H   0  0  0  0  0  0  0  0  0  0  0  0
   50.1846   36.8803   41.2781 H   0  0  0  0  0  0  0  0  0  0  0  0
   48.6519   35.6272   39.9116 H   0  0  0  0  0  0  0  0  0  0  0  0
   49.1730   34.0594   40.6628 H   0  0  0  0  0  0  0  0  0  0  0  0
  1  6  2  0
  2  1  1  0
  3  2  2  0
  3  4  1  0
  4  5  2  0
  5  6  1  0
  7  3  1  0
  1  8  1  0
  2  9  1  0
  5 10  1  0
  7 11  1  0
  7 12  1  0
 13 14  1  0
 14 15  1  1
 14 16  1  0
 16 17  1  6
 16 18  1  0
 18 19  1  0
 18 20  1  0
 20 21  1  0
 21 13  1  0
 14 22  1  0
 16 23  1  0
 20 24  1  0
 20 25  1  0
 21 26  1  0
 21 27  1  0
  7 13  1  0
M  ISO  8   8  14   9  14  10  14  11   8  12   8  15   8  17   8  19   5
M  END
>  <DihAtoms>  (1) 
2,6,12,13

>  <DihDeg>  (1) 
-179.9992368758695

$$$$
