
     RDKit          3D

 49 52  0  0  1  0  0  0  0  0999 V2000
   46.8250   33.4710   44.5870 F   0  0  0  0  0  0  0  0  0  0  0  0
   47.4630   32.2900   44.3780 C   0  0  0  0  0  0  0  0  0  0  0  0
   48.2690   32.1810   43.2730 C   0  0  0  0  0  0  0  0  0  0  0  0
   48.9160   30.9850   43.0610 C   0  0  0  0  0  0  0  0  0  0  0  0
   48.7340   29.9470   43.9550 C   0  0  0  0  0  0  0  0  0  0  0  0
   47.9270   30.0580   45.0620 C   0  0  0  0  0  0  0  0  0  0  0  0
   47.2780   31.2770   45.2630 C   0  0  0  0  0  0  0  0  0  0  0  0
   46.4600   31.3380   46.4150 N   0  0  0  0  0  0  0  0  0  0  0  0
   45.4210   30.4640   46.8890 C   0  0  0  0  0  0  0  0  0  0  0  0
   45.8130   30.2370   48.3600 C   0  0  0  0  0  0  0  0  0  0  0  0
   46.6520   31.4410   48.6950 C   0  0  0  0  0  0  0  0  0  0  0  0
   46.4260   32.3290   47.4950 C   0  0  2  0  0  0  0  0  0  0  0  0
   45.1830   33.1350   47.5500 C   0  0  0  0  0  0  0  0  0  0  0  0
   49.1320   35.4870   41.9470 C   0  0  0  0  0  0  0  0  0  0  0  0
   48.7180   35.4130   40.5940 C   0  0  0  0  0  0  0  0  0  0  0  0
   48.1570   34.2050   40.2140 C   0  0  0  0  0  0  0  0  0  0  0  0
   48.0380   33.2090   41.1080 N   0  0  0  0  0  0  0  0  0  0  0  0
   48.4300   33.3010   42.3580 C   0  0  0  0  0  0  0  0  0  0  0  0
   48.9780   34.4400   42.7860 N   0  0  0  0  0  0  0  0  0  0  0  0
   47.6860   33.9430   38.9060 N   0  0  0  0  0  0  0  0  0  0  0  0
   46.5460   33.1580   38.4920 C   0  0  0  0  0  0  0  0  0  0  0  0
   47.0780   31.9290   37.8320 C   0  0  0  0  0  0  0  0  0  0  0  0
   48.1120   32.1180   36.8920 N   0  0  0  0  0  0  0  0  0  0  0  0
   48.6890   33.3960   36.7350 C   0  0  0  0  0  0  0  0  0  0  0  0
   48.3220   34.4570   37.7200 C   0  0  0  0  0  0  0  0  0  0  0  0
   49.5722   30.8564   42.1876 H   0  0  0  0  0  0  0  0  0  0  0  0
   49.2550   28.9954   43.7737 H   0  0  0  0  0  0  0  0  0  0  0  0
   47.7978   29.2192   45.7618 H   0  0  0  0  0  0  0  0  0  0  0  0
   44.4338   30.9430   46.8112 H   0  0  0  0  0  0  0  0  0  0  0  0
   45.3380   29.5318   46.3110 H   0  0  0  0  0  0  0  0  0  0  0  0
   44.9204   30.1901   49.0012 H   0  0  0  0  0  0  0  0  0  0  0  0
   46.3466   29.2881   48.5176 H   0  0  0  0  0  0  0  0  0  0  0  0
   46.3050   31.9243   49.6202 H   0  0  0  0  0  0  0  0  0  0  0  0
   47.7108   31.2052   48.8775 H   0  0  0  0  0  0  0  0  0  0  0  0
   47.1690   33.1331   47.3887 H   0  0  0  0  0  0  0  0  0  0  0  0
   44.9078   33.3134   48.6000 H   0  0  0  0  0  0  0  0  0  0  0  0
   45.3481   34.0984   47.0454 H   0  0  0  0  0  0  0  0  0  0  0  0
   44.3708   32.5912   47.0454 H   0  0  0  0  0  0  0  0  0  0  0  0
   49.5878   36.4155   42.3214 H   0  0  0  0  0  0  0  0  0  0  0  0
   48.8338   36.2547   39.8954 H   0  0  0  0  0  0  0  0  0  0  0  0
   45.9384   32.8839   39.3670 H   0  0  0  0  0  0  0  0  0  0  0  0
   45.9067   33.7283   37.8021 H   0  0  0  0  0  0  0  0  0  0  0  0
   47.4606   31.2648   38.6209 H   0  0  0  0  0  0  0  0  0  0  0  0
   46.2343   31.5177   37.2585 H   0  0  0  0  0  0  0  0  0  0  0  0
   48.8741   31.4762   37.1532 H   0  0  0  0  0  0  0  0  0  0  0  0
   49.7808   33.2699   36.7817 H   0  0  0  0  0  0  0  0  0  0  0  0
   48.2909   33.7612   35.7768 H   0  0  0  0  0  0  0  0  0  0  0  0
   49.2383   34.9877   38.0181 H   0  0  0  0  0  0  0  0  0  0  0  0
   47.5979   35.1215   37.2259 H   0  0  0  0  0  0  0  0  0  0  0  0
  2  1  1  0
  2  7  2  0
  3  2  1  0
  4  3  2  0
  4  5  1  0
  5  6  2  0
  6  7  1  0
  7  8  1  0
  8  9  1  0
  8 12  1  0
  9 10  1  0
 10 11  1  0
 12 13  1  0
 12 11  1  0
 14 19  2  0
 15 14  1  0
 16 15  2  0
 16 17  1  0
 17 18  2  0
 18 19  1  0
 18  3  1  0
 20 16  1  0
 21 20  1  0
 22 21  1  0
 23 22  1  0
 24 23  1  0
 24 25  1  0
 25 20  1  0
  4 26  1  0
  5 27  1  0
  6 28  1  0
  9 29  1  0
  9 30  1  0
 10 31  1  0
 10 32  1  0
 11 33  1  0
 11 34  1  0
 12 35  1  6
 13 36  1  0
 13 37  1  0
 13 38  1  0
 14 39  1  0
 15 40  1  0
 21 41  1  0
 21 42  1  0
 22 43  1  0
 22 44  1  0
 23 45  1  0
 24 46  1  0
 24 47  1  0
 25 48  1  0
 25 49  1  0
M  ISO  8  26  14  27  14  28  14  29  13  30  13  31  13  32  13  33  13
M  ISO  8  34  13  35  13  36   8  37   8  38   8  39  14  40  14  41  13
M  ISO  8  42  13  43  13  44  13  45   5  46  13  47  13  48  13  49  13
M  END
>  <minimizedAffinity>  (1) 
-5.77319002

>  <minimizedRMSD>  (1) 
1.30809236

$$$$
