
     RDKit          3D

 37 40  0  0  0  0  0  0  0  0999 V2000
   47.2870   31.3820   45.1690 C   0  0  0  0  0  0  0  0  0  0  0  0
   46.8890   32.7030   45.1290 C   0  0  0  0  0  0  0  0  0  0  0  0
   46.2380   33.3210   46.1810 C   0  0  0  0  0  0  0  0  0  0  0  0
   45.9590   32.6100   47.3440 C   0  0  0  0  0  0  0  0  0  0  0  0
   45.3590   32.8740   48.5350 N   0  0  0  0  0  0  0  0  0  0  0  0
   45.3910   31.7360   49.2850 C   0  0  0  0  0  0  0  0  0  0  0  0
   46.0110   30.7850   48.5460 N   0  0  0  0  0  0  0  0  0  0  0  0
   46.3660   31.2980   47.3560 C   0  0  0  0  0  0  0  0  0  0  0  0
   47.0140   30.6540   46.3290 C   0  0  0  0  0  0  0  0  0  0  0  0
   46.5280   35.1660   42.4140 C   0  0  0  0  0  0  0  0  0  0  0  0
   47.7010   34.9910   41.6820 C   0  0  0  0  0  0  0  0  0  0  0  0
   48.6170   34.0240   42.1230 C   0  0  0  0  0  0  0  0  0  0  0  0
   48.2910   33.3140   43.2520 N   0  0  0  0  0  0  0  0  0  0  0  0
   47.1530   33.5030   43.9400 C   0  0  0  0  0  0  0  0  0  0  0  0
   46.2920   34.4240   43.5100 N   0  0  0  0  0  0  0  0  0  0  0  0
   47.4120   29.2900   46.4000 N   0  0  0  0  0  0  0  0  0  0  0  0
   46.4280   28.3420   45.9120 C   0  0  0  0  0  0  0  0  0  0  0  0
   46.9510   26.9260   45.9960 C   0  0  0  0  0  0  0  0  0  0  0  0
   47.7940   26.7260   47.1500 N   0  0  0  0  0  0  0  0  0  0  0  0
   48.9590   27.5480   47.1830 C   0  0  0  0  0  0  0  0  0  0  0  0
   48.7280   29.0050   46.9380 C   0  0  0  0  0  0  0  0  0  0  0  0
   47.8023   30.9179   44.3152 H   0  0  0  0  0  0  0  0  0  0  0  0
   45.9402   34.3767   46.0982 H   0  0  0  0  0  0  0  0  0  0  0  0
   44.9516   33.7758   48.8207 H   0  0  0  0  0  0  0  0  0  0  0  0
   44.9883   31.6129   50.3012 H   0  0  0  0  0  0  0  0  0  0  0  0
   45.7904   35.9162   42.0929 H   0  0  0  0  0  0  0  0  0  0  0  0
   47.9029   35.5937   40.7842 H   0  0  0  0  0  0  0  0  0  0  0  0
   49.5592   33.8419   41.5854 H   0  0  0  0  0  0  0  0  0  0  0  0
   46.1917   28.5765   44.8636 H   0  0  0  0  0  0  0  0  0  0  0  0
   45.5263   28.4200   46.5372 H   0  0  0  0  0  0  0  0  0  0  0  0
   46.0969   26.2355   46.0568 H   0  0  0  0  0  0  0  0  0  0  0  0
   47.5560   26.7346   45.0975 H   0  0  0  0  0  0  0  0  0  0  0  0
   47.2368   26.9242   47.9933 H   0  0  0  0  0  0  0  0  0  0  0  0
   49.4211   27.4407   48.1754 H   0  0  0  0  0  0  0  0  0  0  0  0
   49.5962   27.2008   46.3563 H   0  0  0  0  0  0  0  0  0  0  0  0
   49.4835   29.3639   46.2235 H   0  0  0  0  0  0  0  0  0  0  0  0
   48.8031   29.5167   47.9089 H   0  0  0  0  0  0  0  0  0  0  0  0
  1  9  2  0
  2  1  1  0
  2  3  2  0
  3  4  1  0
  4  8  2  0
  4  5  1  0
  5  6  1  0
  7  6  2  0
  8  7  1  0
  9 16  1  0
  9  8  1  0
 10 15  2  0
 11 12  2  0
 11 10  1  0
 12 13  1  0
 13 14  2  0
 14  2  1  0
 15 14  1  0
 16 21  1  0
 17 18  1  0
 17 16  1  0
 18 19  1  0
 19 20  1  0
 21 20  1  0
  1 22  1  0
  3 23  1  0
  5 24  1  0
  6 25  1  0
 10 26  1  0
 11 27  1  0
 12 28  1  0
 17 29  1  0
 17 30  1  0
 18 31  1  0
 18 32  1  0
 19 33  1  0
 20 34  1  0
 20 35  1  0
 21 36  1  0
 21 37  1  0
M  ISO  8  22  14  23  14  24   9  25  14  26  14  27  14  28  14  29  13
M  ISO  8  30  13  31  13  32  13  33   5  34  13  35  13  36  13  37  13
M  END
>  <minimizedAffinity>  (1) 
-5.23091841

>  <minimizedRMSD>  (1) 
0.208397821

$$$$
