
     RDKit          3D

 53 56  0  0  0  0  0  0  0  0999 V2000
   46.3720   32.1760   47.8240 C   0  0  0  0  0  0  0  0  0  0  0  0
   45.9040   31.8280   49.0560 C   0  0  0  0  0  0  0  0  0  0  0  0
   46.8820   31.1290   49.6410 N   0  0  0  0  0  0  0  0  0  0  0  0
   47.9430   31.0200   48.8370 C   0  0  0  0  0  0  0  0  0  0  0  0
   47.6120   31.6820   47.6970 N   0  0  0  0  0  0  0  0  0  0  0  0
   49.2120   30.3780   49.0130 N   0  0  0  0  0  0  0  0  0  0  0  0
   50.2980   31.1780   49.6180 C   0  0  0  0  0  0  0  0  0  0  0  0
   50.4010   30.6500   51.0480 C   0  0  0  0  0  0  0  0  0  0  0  0
   50.4270   29.1360   51.0540 C   0  0  0  0  0  0  0  0  0  0  0  0
   50.7410   28.6250   49.6650 C   0  0  0  0  0  0  0  0  0  0  0  0
   49.6570   29.0560   48.7040 C   0  0  0  0  0  0  0  0  0  0  0  0
   45.6420   32.9670   46.7880 C   0  0  0  0  0  0  0  0  0  0  0  0
   46.1390   33.9440   44.5850 C   0  0  0  0  0  0  0  0  0  0  0  0
   46.4550   33.1290   45.5670 C   0  0  0  0  0  0  0  0  0  0  0  0
   47.0410   34.0070   43.4260 C   0  0  0  0  0  0  0  0  0  0  0  0
   46.8960   34.9830   42.4220 C   0  0  0  0  0  0  0  0  0  0  0  0
   47.7900   34.9650   41.3710 C   0  0  0  0  0  0  0  0  0  0  0  0
   48.7550   34.0320   41.3380 N   0  0  0  0  0  0  0  0  0  0  0  0
   48.8770   33.1060   42.3090 C   0  0  0  0  0  0  0  0  0  0  0  0
   48.0390   33.1040   43.3170 N   0  0  0  0  0  0  0  0  0  0  0  0
   49.9260   32.1530   42.2010 N   0  0  0  0  0  0  0  0  0  0  0  0
   51.2000   32.4010   41.5510 C   0  0  0  0  0  0  0  0  0  0  0  0
   51.2200   31.4760   40.3370 C   0  0  0  0  0  0  0  0  0  0  0  0
   51.1650   30.1210   40.7940 N   0  0  0  0  0  0  0  0  0  0  0  0
   50.9710   29.9910   42.2160 C   0  0  0  0  0  0  0  0  0  0  0  0
   49.8110   30.8120   42.7440 C   0  0  0  0  0  0  0  0  0  0  0  0
   44.9202   32.0729   49.4828 H   0  0  0  0  0  0  0  0  0  0  0  0
   46.8248   30.7272   50.5877 H   0  0  0  0  0  0  0  0  0  0  0  0
   51.2433   31.0250   49.0767 H   0  0  0  0  0  0  0  0  0  0  0  0
   50.0956   32.2586   49.5816 H   0  0  0  0  0  0  0  0  0  0  0  0
   51.3251   31.0297   51.5083 H   0  0  0  0  0  0  0  0  0  0  0  0
   49.5247   30.9929   51.6177 H   0  0  0  0  0  0  0  0  0  0  0  0
   51.1991   28.7865   51.7552 H   0  0  0  0  0  0  0  0  0  0  0  0
   49.4434   28.7564   51.3677 H   0  0  0  0  0  0  0  0  0  0  0  0
   51.7065   29.0355   49.3344 H   0  0  0  0  0  0  0  0  0  0  0  0
   50.7929   27.5264   49.6852 H   0  0  0  0  0  0  0  0  0  0  0  0
   48.8079   28.3609   48.7805 H   0  0  0  0  0  0  0  0  0  0  0  0
   50.0631   29.0468   47.6818 H   0  0  0  0  0  0  0  0  0  0  0  0
   44.7084   32.4453   46.5305 H   0  0  0  0  0  0  0  0  0  0  0  0
   45.4290   33.9649   47.1988 H   0  0  0  0  0  0  0  0  0  0  0  0
   45.2283   34.5594   44.6293 H   0  0  0  0  0  0  0  0  0  0  0  0
   47.3761   32.5351   45.4734 H   0  0  0  0  0  0  0  0  0  0  0  0
   46.0957   35.7359   42.4736 H   0  0  0  0  0  0  0  0  0  0  0  0
   47.7126   35.7101   40.5655 H   0  0  0  0  0  0  0  0  0  0  0  0
   51.2734   33.4522   41.2356 H   0  0  0  0  0  0  0  0  0  0  0  0
   52.0481   32.2109   42.2252 H   0  0  0  0  0  0  0  0  0  0  0  0
   52.1452   31.6365   39.7641 H   0  0  0  0  0  0  0  0  0  0  0  0
   50.3575   31.6889   39.6883 H   0  0  0  0  0  0  0  0  0  0  0  0
   50.3843   29.6491   40.3158 H   0  0  0  0  0  0  0  0  0  0  0  0
   50.7820   28.9322   42.4466 H   0  0  0  0  0  0  0  0  0  0  0  0
   51.8827   30.3669   42.7034 H   0  0  0  0  0  0  0  0  0  0  0  0
   49.8500   30.8496   43.8427 H   0  0  0  0  0  0  0  0  0  0  0  0
   48.8546   30.3591   42.4436 H   0  0  0  0  0  0  0  0  0  0  0  0
  1  2  2  0
  2  3  1  0
  4  6  1  0
  4  3  1  0
  5  1  1  0
  5  4  2  0
  6  7  1  0
  7  8  1  0
  8  9  1  0
 10  9  1  0
 11  6  1  0
 11 10  1  0
 12  1  1  0
 13 14  2  0
 14 12  1  0
 15 13  1  0
 16 15  2  0
 17 16  1  0
 18 17  2  0
 18 19  1  0
 19 20  2  0
 20 15  1  0
 21 19  1  0
 21 26  1  0
 22 21  1  0
 23 24  1  0
 23 22  1  0
 24 25  1  0
 25 26  1  0
  2 27  1  0
  3 28  1  0
  7 29  1  0
  7 30  1  0
  8 31  1  0
  8 32  1  0
  9 33  1  0
  9 34  1  0
 10 35  1  0
 10 36  1  0
 11 37  1  0
 11 38  1  0
 12 39  1  0
 12 40  1  0
 13 41  1  0
 14 42  1  0
 16 43  1  0
 17 44  1  0
 22 45  1  0
 22 46  1  0
 23 47  1  0
 23 48  1  0
 24 49  1  0
 25 50  1  0
 25 51  1  0
 26 52  1  0
 26 53  1  0
M  ISO  8  27  14  28   9  29  13  30  13  31  13  32  13  33  13  34  13
M  ISO  8  35  13  36  13  37  13  38  13  39   8  40   8  43  14  44  14
M  ISO  8  45  13  46  13  47  13  48  13  49   5  50  13  51  13  52  13
M  ISO  1  53  13
M  END
>  <minimizedAffinity>  (1) 
-6.28871536

>  <minimizedRMSD>  (1) 
0.366726369

$$$$
