
     RDKit          3D

 46 49  0  0  1  0  0  0  0  0999 V2000
   47.0420   34.3160   42.4630 N   0  0  0  0  0  0  0  0  0  0  0  0
   48.3660   33.7650   42.3880 C   0  0  0  0  0  0  0  0  0  0  0  0
   48.9500   34.7110   41.3730 C   0  0  0  0  0  0  0  0  0  0  0  0
   47.8860   34.5510   40.2710 C   0  0  0  0  0  0  0  0  0  0  0  0
   46.6360   34.5780   41.0770 C   0  0  1  0  0  0  0  0  0  0  0  0
   43.9180   35.3800   40.9010 F   0  0  0  0  0  0  0  0  0  0  0  0
   44.2280   34.1000   40.5200 C   0  0  0  0  0  0  0  0  0  0  0  0
   45.5440   33.7160   40.6190 C   0  0  0  0  0  0  0  0  0  0  0  0
   45.8030   32.4240   40.2230 C   0  0  0  0  0  0  0  0  0  0  0  0
   44.8030   31.5890   39.7630 C   0  0  0  0  0  0  0  0  0  0  0  0
   43.4730   32.0420   39.6870 C   0  0  0  0  0  0  0  0  0  0  0  0
   43.1840   33.3600   40.0860 C   0  0  0  0  0  0  0  0  0  0  0  0
   41.8500   33.8600   40.0240 N   0  0  0  0  0  0  0  0  0  0  0  0
   40.6250   33.0630   39.8660 C   0  0  0  0  0  0  0  0  0  0  0  0
   39.5700   33.7700   40.7240 C   0  0  0  0  0  0  0  0  0  0  0  0
   40.1940   34.4090   41.8700 N   0  0  0  0  0  0  0  0  0  0  0  0
   40.9720   35.5620   41.4590 C   0  0  0  0  0  0  0  0  0  0  0  0
   41.5620   35.2870   40.1190 C   0  0  0  0  0  0  0  0  0  0  0  0
   44.5740   35.9350   44.7330 C   0  0  0  0  0  0  0  0  0  0  0  0
   45.3610   35.7220   43.6100 C   0  0  0  0  0  0  0  0  0  0  0  0
   46.2050   34.6060   43.5670 C   0  0  0  0  0  0  0  0  0  0  0  0
   46.2000   33.7930   44.6360 N   0  0  0  0  0  0  0  0  0  0  0  0
   45.4350   34.0020   45.7250 C   0  0  0  0  0  0  0  0  0  0  0  0
   44.6150   35.0860   45.7690 N   0  0  0  0  0  0  0  0  0  0  0  0
   48.8913   33.8180   43.3530 H   0  0  0  0  0  0  0  0  0  0  0  0
   48.4229   32.6970   42.1309 H   0  0  0  0  0  0  0  0  0  0  0  0
   49.0032   35.7427   41.7508 H   0  0  0  0  0  0  0  0  0  0  0  0
   49.9867   34.5041   41.0690 H   0  0  0  0  0  0  0  0  0  0  0  0
   48.0002   33.5975   39.7346 H   0  0  0  0  0  0  0  0  0  0  0  0
   47.9328   35.3152   39.4812 H   0  0  0  0  0  0  0  0  0  0  0  0
   46.1682   35.5671   40.9639 H   0  0  0  0  0  0  0  0  0  0  0  0
   46.8346   32.0455   40.2741 H   0  0  0  0  0  0  0  0  0  0  0  0
   45.0484   30.5623   39.4538 H   0  0  0  0  0  0  0  0  0  0  0  0
   42.6747   31.3787   39.3227 H   0  0  0  0  0  0  0  0  0  0  0  0
   40.3127   33.0412   38.8115 H   0  0  0  0  0  0  0  0  0  0  0  0
   40.7726   32.0178   40.1756 H   0  0  0  0  0  0  0  0  0  0  0  0
   39.0607   34.5327   40.1166 H   0  0  0  0  0  0  0  0  0  0  0  0
   38.8441   33.0252   41.0823 H   0  0  0  0  0  0  0  0  0  0  0  0
   39.4614   34.7132   42.5270 H   0  0  0  0  0  0  0  0  0  0  0  0
   40.3209   36.4468   41.4023 H   0  0  0  0  0  0  0  0  0  0  0  0
   41.7724   35.7535   42.1888 H   0  0  0  0  0  0  0  0  0  0  0  0
   42.4919   35.8621   39.9979 H   0  0  0  0  0  0  0  0  0  0  0  0
   40.8563   35.5825   39.3286 H   0  0  0  0  0  0  0  0  0  0  0  0
   43.9092   36.8104   44.7732 H   0  0  0  0  0  0  0  0  0  0  0  0
   45.3220   36.4225   42.7628 H   0  0  0  0  0  0  0  0  0  0  0  0
   45.4733   33.3013   46.5721 H   0  0  0  0  0  0  0  0  0  0  0  0
  1 21  1  0
  2  1  1  0
  3  2  1  0
  4  5  1  0
  4  3  1  0
  5  1  1  0
  7  8  2  0
  7  6  1  0
  8  5  1  0
  9  8  1  0
 10  9  2  0
 11 10  1  0
 11 12  2  0
 12  7  1  0
 13 12  1  0
 13 18  1  0
 14 13  1  0
 14 15  1  0
 15 16  1  0
 17 16  1  0
 18 17  1  0
 19 24  2  0
 20 19  1  0
 21 20  2  0
 21 22  1  0
 22 23  2  0
 23 24  1  0
  2 25  1  0
  2 26  1  0
  3 27  1  0
  3 28  1  0
  4 29  1  0
  4 30  1  0
  5 31  1  1
  9 32  1  0
 10 33  1  0
 11 34  1  0
 14 35  1  0
 14 36  1  0
 15 37  1  0
 15 38  1  0
 16 39  1  0
 17 40  1  0
 17 41  1  0
 18 42  1  0
 18 43  1  0
 19 44  1  0
 20 45  1  0
 23 46  1  0
M  ISO  8  25  13  26  13  27  13  28  13  29  13  30  13  31  13  32  14
M  ISO  8  33  14  34  14  35  13  36  13  37  13  38  13  39   5  40  13
M  ISO  6  41  13  42  13  43  13  44  14  45  14  46  14
M  END
>  <minimizedAffinity>  (1) 
-6.43707943

>  <minimizedRMSD>  (1) 
0.764644861

$$$$
