
     RDKit          3D

 45 47  0  0  0  0  0  0  0  0999 V2000
   46.3242   34.9007   41.8112 C   0  0  0  0  0  0  0  0  0  0  0  0
   44.4687   35.9867   44.8912 C   0  0  0  0  0  0  0  0  0  0  0  0
   44.9834   35.9779   43.5784 C   0  0  0  0  0  0  0  0  0  0  0  0
   45.7856   34.9294   43.1766 C   0  0  0  0  0  0  0  0  0  0  0  0
   46.0356   33.9574   44.0777 N   0  0  0  0  0  0  0  0  0  0  0  0
   45.5412   33.9671   45.3367 C   0  0  0  0  0  0  0  0  0  0  0  0
   44.7616   34.9748   45.7448 N   0  0  0  0  0  0  0  0  0  0  0  0
   47.8172   34.9016   41.8564 C   0  0  0  0  0  0  0  0  0  0  0  0
   48.3557   34.1845   40.7467 N   0  0  0  0  0  0  0  0  0  0  0  0
   49.2512   33.1390   41.1015 C   0  0  0  0  0  0  0  0  0  0  0  0
   49.1664   31.8670   40.3301 C   0  0  0  0  0  0  0  0  0  0  0  0
   48.6774   31.9972   38.9198 C   0  0  0  0  0  0  0  0  0  0  0  0
   48.4713   33.4338   38.5146 C   0  0  0  0  0  0  0  0  0  0  0  0
   47.5595   34.0099   39.6104 C   0  0  2  0  0  0  0  0  0  0  0  0
   45.9403   33.9183   41.4028 H   0  0  0  0  0  0  0  0  0  0  0  0
   45.9036   35.7243   41.2147 H   0  0  0  0  0  0  0  0  0  0  0  0
   43.8360   36.8319   45.1788 H   0  0  0  0  0  0  0  0  0  0  0  0
   44.7652   36.7771   42.8707 H   0  0  0  0  0  0  0  0  0  0  0  0
   45.8013   33.1279   46.0004 H   0  0  0  0  0  0  0  0  0  0  0  0
   48.1927   34.4057   42.7759 H   0  0  0  0  0  0  0  0  0  0  0  0
   48.1678   35.9511   41.9068 H   0  0  0  0  0  0  0  0  0  0  0  0
   50.2965   33.5531   41.0260 H   0  0  0  0  0  0  0  0  0  0  0  0
   49.1074   32.9056   42.1808 H   0  0  0  0  0  0  0  0  0  0  0  0
   48.5800   31.1045   40.8959 H   0  0  0  0  0  0  0  0  0  0  0  0
   50.2058   31.4301   40.2692 H   0  0  0  0  0  0  0  0  0  0  0  0
   47.6534   31.5248   38.8769 H   0  0  0  0  0  0  0  0  0  0  0  0
   49.2834   31.4436   38.1814 H   0  0  0  0  0  0  0  0  0  0  0  0
   49.4165   34.0006   38.4495 H   0  0  0  0  0  0  0  0  0  0  0  0
   47.8885   33.3905   37.5747 H   0  0  0  0  0  0  0  0  0  0  0  0
   46.7282   33.2895   39.6495 H   0  0  0  0  0  0  0  0  0  0  0  0
   47.1025   35.2747   39.1114 N   0  0  0  0  0  0  0  0  0  0  0  0
   47.9298   36.3860   39.4132 C   0  0  1  0  0  0  0  0  0  0  0  0
   48.9839   36.0207   39.5907 H   0  0  0  0  0  0  0  0  0  0  0  0
   47.4715   37.2962   40.4999 C   0  0  2  0  0  0  0  0  0  0  0  0
   47.3273   38.3539   40.1284 H   0  0  0  0  0  0  0  0  0  0  0  0
   46.2262   36.9446   41.1192 N   0  0  0  0  0  0  0  0  0  0  0  0
   45.8892   37.7541   41.6575 H   0  0  0  0  0  0  0  0  0  0  0  0
   45.2976   36.6926   40.0168 C   0  0  0  0  0  0  0  0  0  0  0  0
   45.7024   35.4812   39.2244 C   0  0  0  0  0  0  0  0  0  0  0  0
   48.0205   36.9841   38.4791 H   0  0  0  0  0  0  0  0  0  0  0  0
   48.2162   37.4198   41.3244 H   0  0  0  0  0  0  0  0  0  0  0  0
   44.2877   36.5894   40.4579 H   0  0  0  0  0  0  0  0  0  0  0  0
   45.2899   37.6173   39.4039 H   0  0  0  0  0  0  0  0  0  0  0  0
   45.2642   35.5991   38.2138 H   0  0  0  0  0  0  0  0  0  0  0  0
   45.2467   34.5924   39.7139 H   0  0  0  0  0  0  0  0  0  0  0  0
  1  8  1  0
  1  4  1  0
  2  7  2  0
  3  2  1  0
  4  3  2  0
  4  5  1  0
  5  6  2  0
  6  7  1  0
  9 10  1  0
  9  8  1  0
 11 10  1  0
 12 11  1  0
 13 12  1  0
 13 14  1  0
 14  9  1  0
  1 15  1  0
  1 16  1  0
  2 17  1  0
  3 18  1  0
  6 19  1  0
  8 20  1  0
  8 21  1  0
 10 22  1  0
 10 23  1  0
 11 24  1  0
 11 25  1  0
 12 26  1  0
 12 27  1  0
 13 28  1  0
 13 29  1  0
 14 30  1  1
 31 32  1  0
 32 33  1  1
 32 34  1  0
 34 35  1  6
 34 36  1  0
 36 37  1  0
 36 38  1  0
 38 39  1  0
 39 31  1  0
 32 40  1  0
 34 41  1  0
 38 42  1  0
 38 43  1  0
 39 44  1  0
 39 45  1  0
 14 31  1  0
M  ISO  8  15   8  16   8  17  14  18  14  19  14  20   8  21   8  22  13
M  ISO  8  23  13  24  13  25  13  26  13  27  13  28  13  29  13  30  13
M  ISO  3  33   8  35   8  37   5
M  END
>  <DihAtoms>  (1) 
12,13,30,31

>  <DihDeg>  (1) 
61.1671234708374

$$$$
