
     RDKit          3D

 31 33  0  0  0  0  0  0  0  0999 V2000
   44.7690   35.2380   44.9120 C   0  0  0  0  0  0  0  0  0  0  0  0
   45.5660   35.1000   43.7630 C   0  0  0  0  0  0  0  0  0  0  0  0
   46.5380   34.1110   43.8250 C   0  0  0  0  0  0  0  0  0  0  0  0
   46.6740   33.3470   44.9520 N   0  0  0  0  0  0  0  0  0  0  0  0
   45.8740   33.5180   46.0430 C   0  0  0  0  0  0  0  0  0  0  0  0
   44.9250   34.4770   45.9950 N   0  0  0  0  0  0  0  0  0  0  0  0
   46.0600   32.6930   47.1860 N   0  0  0  0  0  0  0  0  0  0  0  0
   44.8840   32.1340   47.8110 C   0  0  0  0  0  0  0  0  0  0  0  0
   45.1710   31.1910   48.9260 C   0  0  0  0  0  0  0  0  0  0  0  0
   46.4040   31.4770   49.6320 N   0  0  0  0  0  0  0  0  0  0  0  0
   47.4610   31.2840   48.6280 C   0  0  0  0  0  0  0  0  0  0  0  0
   47.3730   32.4380   47.6850 C   0  0  0  0  0  0  0  0  0  0  0  0
   47.4420   33.8430   42.6550 C   0  0  0  0  0  0  0  0  0  0  0  0
   47.7500   35.0940   41.8590 C   0  0  0  0  0  0  0  0  0  0  0  0
   48.8100   34.3410   42.7040 C   0  0  0  0  0  0  0  0  0  0  0  0
   43.9826   36.0071   44.9179 H   0  0  0  0  0  0  0  0  0  0  0  0
   45.4288   35.7332   42.8741 H   0  0  0  0  0  0  0  0  0  0  0  0
   44.2785   32.9622   48.2078 H   0  0  0  0  0  0  0  0  0  0  0  0
   44.3614   31.5545   47.0358 H   0  0  0  0  0  0  0  0  0  0  0  0
   44.3401   31.2412   49.6451 H   0  0  0  0  0  0  0  0  0  0  0  0
   45.2821   30.1918   48.4796 H   0  0  0  0  0  0  0  0  0  0  0  0
   46.4067   32.4461   49.9808 H   0  0  0  0  0  0  0  0  0  0  0  0
   48.4474   31.2664   49.1146 H   0  0  0  0  0  0  0  0  0  0  0  0
   47.3331   30.3289   48.0975 H   0  0  0  0  0  0  0  0  0  0  0  0
   48.0328   32.2338   46.8289 H   0  0  0  0  0  0  0  0  0  0  0  0
   47.6719   33.3312   48.2532 H   0  0  0  0  0  0  0  0  0  0  0  0
   47.0397   32.8417   42.4418 H   0  0  0  0  0  0  0  0  0  0  0  0
   47.7861   35.0624   40.7600 H   0  0  0  0  0  0  0  0  0  0  0  0
   47.3573   36.1201   41.8043 H   0  0  0  0  0  0  0  0  0  0  0  0
   49.1968   34.7932   43.6292 H   0  0  0  0  0  0  0  0  0  0  0  0
   49.8006   33.9087   42.4994 H   0  0  0  0  0  0  0  0  0  0  0  0
  1  6  2  0
  2  3  2  0
  2  1  1  0
  3  4  1  0
  4  5  2  0
  5  7  1  0
  6  5  1  0
  7 12  1  0
  7  8  1  0
  8  9  1  0
  9 10  1  0
 11 10  1  0
 12 11  1  0
 13 15  1  0
 13  3  1  0
 14 13  1  0
 14 15  1  0
  1 16  1  0
  2 17  1  0
  8 18  1  0
  8 19  1  0
  9 20  1  0
  9 21  1  0
 10 22  1  0
 11 23  1  0
 11 24  1  0
 12 25  1  0
 12 26  1  0
 13 27  1  0
 14 28  1  0
 14 29  1  0
 15 30  1  0
 15 31  1  0
M  ISO  8  16  14  17  14  18  13  19  13  20  13  21  13  22   5  23  13
M  ISO  8  24  13  25  13  26  13  27  13  28  13  29  13  30  13  31  13
M  END
>  <minimizedAffinity>  (1) 
-5.36671495

>  <minimizedRMSD>  (1) 
1.10865843

$$$$
