
     RDKit          3D

 28 30  0  0  0  0  0  0  0  0999 V2000
   45.2664   36.1617   43.1791 C   0  0  0  0  0  0  0  0  0  0  0  0
   45.8709   34.9099   42.9084 C   0  0  0  0  0  0  0  0  0  0  0  0
   45.8270   33.9526   43.8957 C   0  0  0  0  0  0  0  0  0  0  0  0
   45.2234   34.2253   45.0682 N   0  0  0  0  0  0  0  0  0  0  0  0
   44.6436   35.4415   45.3136 C   0  0  0  0  0  0  0  0  0  0  0  0
   44.6836   36.3722   44.3601 N   0  0  0  0  0  0  0  0  0  0  0  0
   46.4451   32.6598   43.6305 C   0  0  0  0  0  0  0  0  0  0  0  0
   45.6596   31.5720   43.2988 C   0  0  0  0  0  0  0  0  0  0  0  0
   46.2734   30.3664   43.0546 C   0  0  0  0  0  0  0  0  0  0  0  0
   47.6556   30.1824   43.1245 C   0  0  0  0  0  0  0  0  0  0  0  0
   48.3848   31.3022   43.4594 C   0  0  0  0  0  0  0  0  0  0  0  0
   47.7782   32.4853   43.6987 N   0  0  0  0  0  0  0  0  0  0  0  0
   46.4955   34.6862   41.6410 C   0  0  0  0  0  0  0  0  0  0  0  0
   47.6628   35.1405   41.4762 O   0  0  0  0  0  0  0  0  0  0  0  0
   45.2721   36.9557   42.4328 H   0  0  0  0  0  0  0  0  0  0  0  0
   44.1985   35.5029   46.3073 H   0  0  0  0  0  0  0  0  0  0  0  0
   44.5859   31.6724   43.2341 H   0  0  0  0  0  0  0  0  0  0  0  0
   45.6537   29.5152   42.7947 H   0  0  0  0  0  0  0  0  0  0  0  0
   48.1395   29.2322   42.9321 H   0  0  0  0  0  0  0  0  0  0  0  0
   49.4699   31.1879   43.5217 H   0  0  0  0  0  0  0  0  0  0  0  0
   45.8384   33.9540   40.5305 C   0  0  0  0  0  0  0  0  0  0  0  0
   44.5499   34.4993   39.9822 C   0  0  0  0  0  0  0  0  0  0  0  0
   45.7569   34.6144   39.1592 C   0  0  0  0  0  0  0  0  0  0  0  0
   46.0111   32.8589   40.5157 H   0  0  0  0  0  0  0  0  0  0  0  0
   43.7830   33.7554   39.6823 H   0  0  0  0  0  0  0  0  0  0  0  0
   44.1102   35.3642   40.5170 H   0  0  0  0  0  0  0  0  0  0  0  0
   46.3395   35.5509   39.0593 H   0  0  0  0  0  0  0  0  0  0  0  0
   45.8598   33.9747   38.2457 H   0  0  0  0  0  0  0  0  0  0  0  0
  1  6  2  0
  2  1  1  0
  2  3  2  0
  3  4  1  0
  4  5  2  0
  6  5  1  0
  7 12  1  0
  7  3  1  0
  8  7  2  0
  9 10  2  0
  9  8  1  0
 10 11  1  0
 11 12  2  0
 13  2  1  0
 14 13  2  0
  1 15  1  0
  5 16  1  0
  8 17  1  0
  9 18  1  0
 10 19  1  0
 11 20  1  0
 21 22  1  0
 22 23  1  0
 23 21  1  0
 21 24  1  0
 22 25  1  0
 22 26  1  0
 23 27  1  0
 23 28  1  0
 13 21  1  0
M  ISO  6  15  14  16  14  17  14  18  14  19  14  20  14
M  END
>  <DihAtoms>  (1) 
1,12,20,21

>  <DihDeg>  (1) 
150.1458697230137

$$$$
