
     RDKit          3D

 40 43  0  0  0  0  0  0  0  0999 V2000
   45.4170   35.2100   43.8540 C   0  0  0  0  0  0  0  0  0  0  0  0
   46.4810   34.4030   43.4120 C   0  0  0  0  0  0  0  0  0  0  0  0
   46.9680   33.3970   44.2760 C   0  0  0  0  0  0  0  0  0  0  0  0
   46.3620   33.2820   45.4880 N   0  0  0  0  0  0  0  0  0  0  0  0
   45.3490   34.0640   45.8850 C   0  0  0  0  0  0  0  0  0  0  0  0
   44.8860   35.0210   45.0610 N   0  0  0  0  0  0  0  0  0  0  0  0
   44.9280   36.2140   42.9970 N   0  0  0  0  0  0  0  0  0  0  0  0
   47.1020   34.5530   42.1130 C   0  0  0  0  0  0  0  0  0  0  0  0
   48.1870   35.3110   41.7550 C   0  0  0  0  0  0  0  0  0  0  0  0
   48.6410   35.3280   40.4490 C   0  0  0  0  0  0  0  0  0  0  0  0
   48.0270   34.5890   39.4560 C   0  0  0  0  0  0  0  0  0  0  0  0
   48.5350   34.6680   38.2220 N   0  0  0  0  0  0  0  0  0  0  0  0
   47.9440   33.9440   37.2120 C   0  0  0  0  0  0  0  0  0  0  0  0
   46.8530   33.1790   37.5540 C   0  0  0  0  0  0  0  0  0  0  0  0
   46.3140   33.0840   38.8190 C   0  0  0  0  0  0  0  0  0  0  0  0
   46.9280   33.8220   39.8140 C   0  0  0  0  0  0  0  0  0  0  0  0
   46.4650   33.7980   41.1210 C   0  0  0  0  0  0  0  0  0  0  0  0
   44.7760   33.8280   47.2370 C   0  0  0  0  0  0  0  0  0  0  0  0
   45.6160   32.7640   47.9670 C   0  0  0  0  0  0  0  0  0  0  0  0
   44.7390   31.6110   48.3650 C   0  0  0  0  0  0  0  0  0  0  0  0
   45.4090   30.6490   49.3490 C   0  0  0  0  0  0  0  0  0  0  0  0
   45.0850   30.2220   47.9810 C   0  0  0  0  0  0  0  0  0  0  0  0
   47.7982   32.7378   43.9823 H   0  0  0  0  0  0  0  0  0  0  0  0
   45.3496   36.3473   42.0667 H   0  0  0  0  0  0  0  0  0  0  0  0
   44.1486   36.8153   43.3002 H   0  0  0  0  0  0  0  0  0  0  0  0
   48.7032   35.9136   42.5169 H   0  0  0  0  0  0  0  0  0  0  0  0
   49.5142   35.9463   40.1938 H   0  0  0  0  0  0  0  0  0  0  0  0
   48.3256   33.9754   36.1808 H   0  0  0  0  0  0  0  0  0  0  0  0
   46.3724   32.5966   36.7541 H   0  0  0  0  0  0  0  0  0  0  0  0
   45.4381   32.4519   39.0268 H   0  0  0  0  0  0  0  0  0  0  0  0
   45.5915   33.1817   41.3800 H   0  0  0  0  0  0  0  0  0  0  0  0
   44.7913   34.7660   47.8114 H   0  0  0  0  0  0  0  0  0  0  0  0
   43.7382   33.4761   47.1411 H   0  0  0  0  0  0  0  0  0  0  0  0
   46.4116   32.4042   47.2980 H   0  0  0  0  0  0  0  0  0  0  0  0
   46.0636   33.2088   48.8680 H   0  0  0  0  0  0  0  0  0  0  0  0
   43.8138   32.1995   48.2774 H   0  0  0  0  0  0  0  0  0  0  0  0
   46.4569   30.8036   49.6457 H   0  0  0  0  0  0  0  0  0  0  0  0
   45.1810   30.2784   50.3593 H   0  0  0  0  0  0  0  0  0  0  0  0
   44.2823   29.4880   47.8170 H   0  0  0  0  0  0  0  0  0  0  0  0
   45.6701   29.7804   47.1608 H   0  0  0  0  0  0  0  0  0  0  0  0
  1  6  2  0
  2  1  1  0
  2  3  2  0
  3  4  1  0
  4  5  2  0
  5 18  1  0
  6  5  1  0
  7  1  1  0
  8  2  1  0
  9  8  2  0
 10  9  1  0
 11 16  1  0
 11 10  2  0
 12 11  1  0
 13 14  1  0
 13 12  2  0
 14 15  2  0
 15 16  1  0
 16 17  2  0
 17  8  1  0
 18 19  1  0
 19 20  1  0
 20 21  1  0
 22 20  1  0
 22 21  1  0
  3 23  1  0
  7 24  1  0
  7 25  1  0
  9 26  1  0
 10 27  1  0
 13 28  1  0
 14 29  1  0
 15 30  1  0
 17 31  1  0
 18 32  1  0
 18 33  1  0
 19 34  1  0
 19 35  1  0
 20 36  1  0
 21 37  1  0
 21 38  1  0
 22 39  1  0
 22 40  1  0
M  ISO  8  23  14  26  14  27  14  28  14  29  14  30  14  31  14  32   8
M  ISO  8  33   8  34   8  35   8  36  13  37  13  38  13  39  13  40  13
M  END
>  <minimizedAffinity>  (1) 
-6.32878542

>  <minimizedRMSD>  (1) 
0.705158412

$$$$
