
     RDKit          3D

 43 46  0  0  1  0  0  0  0  0999 V2000
   44.5710   35.5890   44.6080 C   0  0  0  0  0  0  0  0  0  0  0  0
   45.2310   35.5960   43.3580 C   0  0  0  0  0  0  0  0  0  0  0  0
   46.3070   34.6950   43.1790 C   0  0  0  0  0  0  0  0  0  0  0  0
   46.6740   33.8590   44.1970 N   0  0  0  0  0  0  0  0  0  0  0  0
   46.0130   33.8920   45.3690 C   0  0  0  0  0  0  0  0  0  0  0  0
   44.9620   34.7510   45.5860 N   0  0  0  0  0  0  0  0  0  0  0  0
   46.4350   32.9740   46.4660 C   0  0  2  0  0  0  0  0  0  0  0  0
   46.9620   31.7410   45.7630 C   0  0  0  0  0  0  0  0  0  0  0  0
   46.0870   30.5600   45.7790 C   0  0  0  0  0  0  0  0  0  0  0  0
   45.8170   30.2900   47.2570 C   0  0  0  0  0  0  0  0  0  0  0  0
   45.0170   31.3660   47.8670 C   0  0  0  0  0  0  0  0  0  0  0  0
   45.3880   32.7320   47.4150 C   0  0  0  0  0  0  0  0  0  0  0  0
   44.6830   33.8740   47.9280 N   0  0  0  0  0  0  0  0  0  0  0  0
   47.0010   34.6770   41.9000 C   0  0  0  0  0  0  0  0  0  0  0  0
   48.1430   35.3820   41.7690 C   0  0  0  0  0  0  0  0  0  0  0  0
   48.7650   35.3200   40.5060 C   0  0  0  0  0  0  0  0  0  0  0  0
   48.1650   34.5620   39.5370 C   0  0  0  0  0  0  0  0  0  0  0  0
   47.0180   33.8540   39.6710 C   0  0  0  0  0  0  0  0  0  0  0  0
   46.4450   33.9410   40.9130 N   0  0  0  0  0  0  0  0  0  0  0  0
   46.4410   33.0900   38.6530 O   0  0  0  0  0  0  0  0  0  0  0  0
   45.1350   32.6140   38.8490 C   0  0  0  0  0  0  0  0  0  0  0  0
   44.4120   32.0030   37.6140 C   0  0  0  0  0  0  0  0  0  0  0  0
   43.9860   33.3120   38.2440 C   0  0  0  0  0  0  0  0  0  0  0  0
   43.7294   36.2753   44.7832 H   0  0  0  0  0  0  0  0  0  0  0  0
   44.9191   36.2777   42.5531 H   0  0  0  0  0  0  0  0  0  0  0  0
   47.2208   33.4083   47.1015 H   0  0  0  0  0  0  0  0  0  0  0  0
   47.9116   31.4615   46.2427 H   0  0  0  0  0  0  0  0  0  0  0  0
   47.0551   32.0236   44.7040 H   0  0  0  0  0  0  0  0  0  0  0  0
   45.1475   30.7673   45.2457 H   0  0  0  0  0  0  0  0  0  0  0  0
   46.5487   29.6962   45.2783 H   0  0  0  0  0  0  0  0  0  0  0  0
   45.2700   29.3404   47.3524 H   0  0  0  0  0  0  0  0  0  0  0  0
   46.7834   30.2407   47.7801 H   0  0  0  0  0  0  0  0  0  0  0  0
   44.2143   31.1748   48.5943 H   0  0  0  0  0  0  0  0  0  0  0  0
   43.9235   33.7459   48.6118 H   0  0  0  0  0  0  0  0  0  0  0  0
   44.9371   34.8208   47.6119 H   0  0  0  0  0  0  0  0  0  0  0  0
   48.5637   35.9700   42.5980 H   0  0  0  0  0  0  0  0  0  0  0  0
   49.7008   35.8623   40.3057 H   0  0  0  0  0  0  0  0  0  0  0  0
   48.6615   34.5242   38.5561 H   0  0  0  0  0  0  0  0  0  0  0  0
   45.3742   32.2938   39.8738 H   0  0  0  0  0  0  0  0  0  0  0  0
   43.7881   31.1035   37.7223 H   0  0  0  0  0  0  0  0  0  0  0  0
   44.7068   31.6654   36.6094 H   0  0  0  0  0  0  0  0  0  0  0  0
   44.1490   34.2540   37.6999 H   0  0  0  0  0  0  0  0  0  0  0  0
   43.0322   33.6921   38.6388 H   0  0  0  0  0  0  0  0  0  0  0  0
  1  6  2  0
  2  1  1  0
  3  2  2  0
  3  4  1  0
  4  5  2  0
  5  6  1  0
  5  7  1  0
  7 12  1  0
  8  9  1  0
  8  7  1  0
  9 10  1  0
 10 11  1  0
 12 11  2  0
 12 13  1  0
 14  3  1  0
 15 14  2  0
 16 15  1  0
 17 18  1  0
 17 16  2  0
 18 19  2  0
 19 14  1  0
 20 21  1  0
 20 18  1  0
 22 23  1  0
 22 21  1  0
 23 21  1  0
  1 24  1  0
  2 25  1  0
  7 26  1  1
  8 27  1  0
  8 28  1  0
  9 29  1  0
  9 30  1  0
 10 31  1  0
 10 32  1  0
 11 33  1  0
 13 34  1  0
 13 35  1  0
 15 36  1  0
 16 37  1  0
 17 38  1  0
 21 39  1  0
 22 40  1  0
 22 41  1  0
 23 42  1  0
 23 43  1  0
M  ISO  8  24  14  25  14  26  13  27  13  28  13  29  13  30  13  31  13
M  ISO  8  32  13  33  13  36  14  37  14  38  14  39  13  40  13  41  13
M  ISO  2  42  13  43  13
M  END
>  <minimizedAffinity>  (1) 
-6.72273445

>  <minimizedRMSD>  (1) 
0.698918223

$$$$
