
     RDKit          3D

 33 35  0  0  0  0  0  0  0  0999 V2000
   46.5170   33.1750   45.4060 C   0  0  0  0  0  0  0  0  0  0  0  0
   45.4630   33.9740   45.8610 C   0  0  0  0  0  0  0  0  0  0  0  0
   44.9630   34.9060   44.9620 C   0  0  0  0  0  0  0  0  0  0  0  0
   45.5280   34.9680   43.7250 N   0  0  0  0  0  0  0  0  0  0  0  0
   46.5300   34.1940   43.3200 C   0  0  0  0  0  0  0  0  0  0  0  0
   47.0440   33.2730   44.1690 N   0  0  0  0  0  0  0  0  0  0  0  0
   45.1800   32.4760   41.1810 Cl  0  0  0  0  0  0  0  0  0  0  0  0
   46.5160   33.5890   40.9410 C   0  0  0  0  0  0  0  0  0  0  0  0
   47.0690   34.3340   41.9800 C   0  0  0  0  0  0  0  0  0  0  0  0
   48.1260   35.2070   41.7560 C   0  0  0  0  0  0  0  0  0  0  0  0
   48.6370   35.3360   40.4720 C   0  0  0  0  0  0  0  0  0  0  0  0
   48.0660   34.5830   39.4620 C   0  0  0  0  0  0  0  0  0  0  0  0
   48.7240   34.7610   37.8570 Cl  0  0  0  0  0  0  0  0  0  0  0  0
   47.0170   33.7090   39.6560 C   0  0  0  0  0  0  0  0  0  0  0  0
   44.9940   33.7610   47.2110 C   0  0  0  0  0  0  0  0  0  0  0  0
   45.7440   32.5890   47.8020 C   0  0  0  0  0  0  0  0  0  0  0  0
   44.8240   31.5250   48.3470 C   0  0  0  0  0  0  0  0  0  0  0  0
   45.1830   30.6970   49.5180 C   0  0  0  0  0  0  0  0  0  0  0  0
   45.0760   30.1010   48.1050 C   0  0  0  0  0  0  0  0  0  0  0  0
   46.9382   32.4271   46.0939 H   0  0  0  0  0  0  0  0  0  0  0  0
   44.1351   35.5744   45.2408 H   0  0  0  0  0  0  0  0  0  0  0  0
   48.5528   35.7890   42.5861 H   0  0  0  0  0  0  0  0  0  0  0  0
   49.4737   36.0188   40.2632 H   0  0  0  0  0  0  0  0  0  0  0  0
   46.5946   33.1295   38.8218 H   0  0  0  0  0  0  0  0  0  0  0  0
   45.1792   34.6620   47.8143 H   0  0  0  0  0  0  0  0  0  0  0  0
   43.9140   33.5522   47.2054 H   0  0  0  0  0  0  0  0  0  0  0  0
   46.3734   32.1424   47.0181 H   0  0  0  0  0  0  0  0  0  0  0  0
   46.3468   32.9685   48.6402 H   0  0  0  0  0  0  0  0  0  0  0  0
   43.9845   32.2017   48.1293 H   0  0  0  0  0  0  0  0  0  0  0  0
   46.1656   30.8121   49.9989 H   0  0  0  0  0  0  0  0  0  0  0  0
   44.7354   30.4835   50.4999 H   0  0  0  0  0  0  0  0  0  0  0  0
   44.2442   29.4277   47.8504 H   0  0  0  0  0  0  0  0  0  0  0  0
   45.7401   29.5233   47.4453 H   0  0  0  0  0  0  0  0  0  0  0  0
  1  2  2  0
  2 15  1  0
  3  2  1  0
  4  3  2  0
  5  4  1  0
  5  6  2  0
  6  1  1  0
  8  7  1  0
  8  9  2  0
  9  5  1  0
 10  9  1  0
 11 10  2  0
 12 14  2  0
 12 11  1  0
 13 12  1  0
 14  8  1  0
 15 16  1  0
 16 17  1  0
 17 18  1  0
 19 17  1  0
 19 18  1  0
  1 20  1  0
  3 21  1  0
 10 22  1  0
 11 23  1  0
 14 24  1  0
 15 25  1  0
 15 26  1  0
 16 27  1  0
 16 28  1  0
 17 29  1  0
 18 30  1  0
 18 31  1  0
 19 32  1  0
 19 33  1  0
M  ISO  8  20  14  21  14  22  14  23  14  24  14  25   8  26   8  27   8
M  ISO  6  28   8  29  13  30  13  31  13  32  13  33  13
M  END
>  <minimizedAffinity>  (1) 
-5.43608952

>  <minimizedRMSD>  (1) 
7.60905075

$$$$
