
     RDKit          3D

 34 36  0  0  1  0  0  0  0  0999 V2000
   45.0360   34.6610   44.8560 C   0  0  0  0  0  0  0  0  0  0  0  0
   45.9610   34.6180   43.7780 C   0  0  0  0  0  0  0  0  0  0  0  0
   47.0730   33.7650   43.9150 C   0  0  0  0  0  0  0  0  0  0  0  0
   47.1890   33.0470   45.0580 N   0  0  0  0  0  0  0  0  0  0  0  0
   46.3020   33.1090   46.0600 C   0  0  0  0  0  0  0  0  0  0  0  0
   45.2340   33.9190   45.9410 N   0  0  0  0  0  0  0  0  0  0  0  0
   46.5060   32.3340   47.1940 N   0  0  0  0  0  0  0  0  0  0  0  0
   47.7140   32.4780   47.9590 C   0  0  0  0  0  0  0  0  0  0  0  0
   47.9780   31.3640   48.9250 C   0  0  0  0  0  0  0  0  0  0  0  0
   46.8460   30.7020   49.4590 N   0  0  0  0  0  0  0  0  0  0  0  0
   45.6050   31.3300   49.1040 C   0  0  0  0  0  0  0  0  0  0  0  0
   45.5020   31.3620   47.6240 C   0  0  2  0  0  0  0  0  0  0  0  0
   45.7100   30.0260   46.9610 C   0  0  0  0  0  0  0  0  0  0  0  0
   44.4750   29.1820   47.1890 C   0  0  0  0  0  0  0  0  0  0  0  0
   44.5550   27.7100   47.0000 C   0  0  0  0  0  0  0  0  0  0  0  0
   43.9090   28.5620   45.9420 C   0  0  0  0  0  0  0  0  0  0  0  0
   44.1514   35.3118   44.7922 H   0  0  0  0  0  0  0  0  0  0  0  0
   45.8143   35.2263   42.8733 H   0  0  0  0  0  0  0  0  0  0  0  0
   47.8257   33.6840   43.1170 H   0  0  0  0  0  0  0  0  0  0  0  0
   48.5597   32.5314   47.2577 H   0  0  0  0  0  0  0  0  0  0  0  0
   47.5941   33.3906   48.5614 H   0  0  0  0  0  0  0  0  0  0  0  0
   48.5900   30.6114   48.4063 H   0  0  0  0  0  0  0  0  0  0  0  0
   48.4673   31.8401   49.7875 H   0  0  0  0  0  0  0  0  0  0  0  0
   46.8360   29.7343   49.1064 H   0  0  0  0  0  0  0  0  0  0  0  0
   44.7652   30.7558   49.5224 H   0  0  0  0  0  0  0  0  0  0  0  0
   45.5705   32.3529   49.5072 H   0  0  0  0  0  0  0  0  0  0  0  0
   44.4811   31.6405   47.3238 H   0  0  0  0  0  0  0  0  0  0  0  0
   46.5871   29.5267   47.3985 H   0  0  0  0  0  0  0  0  0  0  0  0
   45.8811   30.1617   45.8829 H   0  0  0  0  0  0  0  0  0  0  0  0
   44.1077   29.8110   48.0133 H   0  0  0  0  0  0  0  0  0  0  0  0
   45.5269   27.2337   46.8036 H   0  0  0  0  0  0  0  0  0  0  0  0
   44.2431   26.8343   47.5881 H   0  0  0  0  0  0  0  0  0  0  0  0
   44.4090   28.7138   44.9740 H   0  0  0  0  0  0  0  0  0  0  0  0
   42.9323   28.5744   45.4361 H   0  0  0  0  0  0  0  0  0  0  0  0
  1  6  2  0
  2  3  2  0
  2  1  1  0
  3  4  1  0
  4  5  2  0
  5  7  1  0
  6  5  1  0
  7 12  1  0
  7  8  1  0
  8  9  1  0
  9 10  1  0
 11 10  1  0
 12 11  1  0
 13 14  1  0
 13 12  1  0
 15 14  1  0
 16 15  1  0
 16 14  1  0
  1 17  1  0
  2 18  1  0
  3 19  1  0
  8 20  1  0
  8 21  1  0
  9 22  1  0
  9 23  1  0
 10 24  1  0
 11 25  1  0
 11 26  1  0
 12 27  1  1
 13 28  1  0
 13 29  1  0
 14 30  1  0
 15 31  1  0
 15 32  1  0
 16 33  1  0
 16 34  1  0
M  ISO  8  17  14  18  14  19  14  20  13  21  13  22  13  23  13  24   5
M  ISO  8  25  13  26  13  27  13  28   8  29   8  30  13  31  13  32  13
M  ISO  2  33  13  34  13
M  END
>  <minimizedAffinity>  (1) 
-4.8755188

>  <minimizedRMSD>  (1) 
0.792397261

$$$$
