
     RDKit          3D

 26 27  0  0  0  0  0  0  0  0999 V2000
   46.9520   32.2460   48.4560 O   0  0  0  0  0  0  0  0  0  0  0  0
   45.8960   32.4270   47.3610 P   0  0  1  0  0  0  0  0  0  0  0  0
   44.6070   33.3640   47.8750 O   0  0  0  0  0  0  0  0  0  0  0  0
   46.6730   33.1100   46.0170 O   0  0  0  0  0  0  0  0  0  0  0  0
   44.5020   35.6200   44.7580 C   0  0  0  0  0  0  0  0  0  0  0  0
   44.8890   35.8040   43.4170 C   0  0  0  0  0  0  0  0  0  0  0  0
   45.9620   34.9910   42.9820 C   0  0  0  0  0  0  0  0  0  0  0  0
   46.5410   34.1060   43.8480 N   0  0  0  0  0  0  0  0  0  0  0  0
   46.0990   34.0000   45.1210 C   0  0  0  0  0  0  0  0  0  0  0  0
   45.0990   34.7410   45.5740 N   0  0  0  0  0  0  0  0  0  0  0  0
   45.3130   30.8770   47.0000 O   0  0  0  0  0  0  0  0  0  0  0  0
   45.0990   30.2100   48.1930 C   0  0  0  0  0  0  0  0  0  0  0  0
   45.1160   28.7310   47.9150 C   0  0  0  0  0  0  0  0  0  0  0  0
   46.0070   28.1510   46.8880 C   0  0  0  0  0  0  0  0  0  0  0  0
   44.5030   28.2110   46.6590 C   0  0  0  0  0  0  0  0  0  0  0  0
   44.5847   33.3802   48.8646 H   0  0  0  0  0  0  0  0  0  0  0  0
   43.6726   36.2248   45.1534 H   0  0  0  0  0  0  0  0  0  0  0  0
   44.3925   36.5283   42.7546 H   0  0  0  0  0  0  0  0  0  0  0  0
   46.3298   35.0710   41.9484 H   0  0  0  0  0  0  0  0  0  0  0  0
   45.8946   30.4634   48.9091 H   0  0  0  0  0  0  0  0  0  0  0  0
   44.1308   30.5043   48.6242 H   0  0  0  0  0  0  0  0  0  0  0  0
   44.9728   28.5392   48.9886 H   0  0  0  0  0  0  0  0  0  0  0  0
   46.6790   28.8023   46.3098 H   0  0  0  0  0  0  0  0  0  0  0  0
   46.7674   27.3563   46.8734 H   0  0  0  0  0  0  0  0  0  0  0  0
   44.0833   28.9076   45.9183 H   0  0  0  0  0  0  0  0  0  0  0  0
   43.7167   27.4825   46.4122 H   0  0  0  0  0  0  0  0  0  0  0  0
  2  3  1  0
  2  1  2  0
  4  2  1  0
  5 10  2  0
  6  5  1  0
  7  6  2  0
  7  8  1  0
  8  9  2  0
  9 10  1  0
  9  4  1  0
 11  2  1  0
 11 12  1  0
 13 12  1  0
 14 13  1  0
 15 14  1  0
 15 13  1  0
  3 16  1  0
  5 17  1  0
  6 18  1  0
  7 19  1  0
 12 20  1  0
 12 21  1  0
 13 22  1  0
 14 23  1  0
 14 24  1  0
 15 25  1  0
 15 26  1  0
M  ISO  8  16   3  17  14  18  14  19  14  20   8  21   8  22  13  23  13
M  ISO  3  24  13  25  13  26  13
M  END
>  <minimizedAffinity>  (1) 
-4.39933348

>  <minimizedRMSD>  (1) 
0.562429905

$$$$
