
     RDKit          3D

 34 35  0  0  0  0  0  0  0  0999 V2000
   42.5349   35.2819   40.8859 O   0  0  0  0  0  0  0  0  0  0  0  0
   41.2707   35.7367   41.1773 C   0  0  0  0  0  0  0  0  0  0  0  0
   40.2573   33.5853   41.6145 C   0  0  0  0  0  0  0  0  0  0  0  0
   40.1984   34.7628   40.8373 C   0  0  0  0  0  0  0  0  0  0  0  0
   39.2046   34.8488   39.9156 C   0  0  0  0  0  0  0  0  0  0  0  0
   38.3658   33.8169   39.8184 N   0  0  0  0  0  0  0  0  0  0  0  0
   38.4176   32.7142   40.5433 C   0  0  0  0  0  0  0  0  0  0  0  0
   39.4073   32.5481   41.5107 N   0  0  0  0  0  0  0  0  0  0  0  0
   43.7205   35.6985   41.4760 C   0  0  0  0  0  0  0  0  0  0  0  0
   43.9628   35.2438   42.7129 C   0  0  0  0  0  0  0  0  0  0  0  0
   45.1933   35.5751   43.5317 C   0  0  0  0  0  0  0  0  0  0  0  0
   45.0558   34.9408   44.7495 O   0  0  0  0  0  0  0  0  0  0  0  0
   45.5536   32.3497   44.4268 O   0  0  0  0  0  0  0  0  0  0  0  0
   46.1496   33.6503   44.8801 P   0  0  1  0  0  0  0  0  0  0  0  0
   47.5242   33.9476   43.9348 O   0  0  0  0  0  0  0  0  0  0  0  0
   46.6517   33.5346   46.4990 O   0  0  0  0  0  0  0  0  0  0  0  0
   41.2067   35.8126   42.3067 H   0  0  0  0  0  0  0  0  0  0  0  0
   41.0626   36.7150   40.7416 H   0  0  0  0  0  0  0  0  0  0  0  0
   41.0090   33.4143   42.3770 H   0  0  0  0  0  0  0  0  0  0  0  0
   39.2146   35.7729   39.3548 H   0  0  0  0  0  0  0  0  0  0  0  0
   37.7024   31.9143   40.4112 H   0  0  0  0  0  0  0  0  0  0  0  0
   44.4709   36.3487   41.0503 H   0  0  0  0  0  0  0  0  0  0  0  0
   43.1752   34.5902   43.1004 H   0  0  0  0  0  0  0  0  0  0  0  0
   46.0295   35.0915   42.9653 H   0  0  0  0  0  0  0  0  0  0  0  0
   45.3697   36.6480   43.5645 H   0  0  0  0  0  0  0  0  0  0  0  0
   48.3599   33.7687   44.4155 H   0  0  0  0  0  0  0  0  0  0  0  0
   47.4649   34.5730   46.8714 C   0  0  0  0  0  0  0  0  0  0  0  0
   48.9085   34.3838   47.1525 C   0  0  0  0  0  0  0  0  0  0  0  0
   47.9500   34.4830   48.3168 C   0  0  0  0  0  0  0  0  0  0  0  0
   47.1522   35.5945   46.5662 H   0  0  0  0  0  0  0  0  0  0  0  0
   49.5757   35.2499   47.0468 H   0  0  0  0  0  0  0  0  0  0  0  0
   49.4238   33.4239   46.9553 H   0  0  0  0  0  0  0  0  0  0  0  0
   47.9475   35.3746   48.9573 H   0  0  0  0  0  0  0  0  0  0  0  0
   47.8332   33.5270   48.8670 H   0  0  0  0  0  0  0  0  0  0  0  0
  1  2  1  0
  1  9  1  0
  4  2  1  0
  4  3  2  0
  5  4  1  0
  6  5  2  0
  6  7  1  0
  7  8  2  0
  8  3  1  0
  9 10  2  0
 10 11  1  0
 11 12  1  0
 14 12  1  1
 13 14  2  0
 14 16  1  0
 15 14  1  0
  2 17  1  0
  2 18  1  0
  3 19  1  0
  5 20  1  0
  7 21  1  0
  9 22  1  0
 10 23  1  0
 11 24  1  0
 11 25  1  0
 15 26  1  0
 27 28  1  0
 28 29  1  0
 29 27  1  0
 27 30  1  0
 28 31  1  0
 28 32  1  0
 29 33  1  0
 29 34  1  0
 16 27  1  0
M  ISO  8  17   8  18   8  19  14  20  14  21  14  24   8  25   8  26   3
M  END
>  <DihAtoms>  (1) 
13,15,26,27

>  <DihDeg>  (1) 
-155.4524326881048

$$$$
