
     RDKit          3D

 24 26  0  0  0  0  0  0  0  0999 V2000
   44.3490   34.4410   41.0670 C   0  0  0  0  0  0  0  0  0  0  0  0
   43.4960   33.4980   41.5730 C   0  0  0  0  0  0  0  0  0  0  0  0
   42.2010   33.7520   41.1880 C   0  0  0  0  0  0  0  0  0  0  0  0
   42.2820   34.8650   40.4400 N   0  0  0  0  0  0  0  0  0  0  0  0
   43.5440   35.2840   40.3590 N   0  0  0  0  0  0  0  0  0  0  0  0
   47.7970   35.0290   42.4450 C   0  0  0  0  0  0  0  0  0  0  0  0
   46.3750   35.0140   42.4030 C   0  0  0  0  0  0  0  0  0  0  0  0
   45.7930   34.5150   41.2490 C   0  0  0  0  0  0  0  0  0  0  0  0
   46.5880   34.0720   40.2350 N   0  0  0  0  0  0  0  0  0  0  0  0
   47.9330   34.0950   40.2990 C   0  0  0  0  0  0  0  0  0  0  0  0
   48.5230   34.5760   41.4100 N   0  0  0  0  0  0  0  0  0  0  0  0
   41.1130   35.4980   39.8170 C   0  0  0  0  0  0  0  0  0  0  0  0
   39.7580   35.0110   40.1900 C   0  0  0  0  0  0  0  0  0  0  0  0
   40.2400   36.3630   40.7040 C   0  0  0  0  0  0  0  0  0  0  0  0
   43.8050   32.6509   42.2030 H   0  0  0  0  0  0  0  0  0  0  0  0
   41.2994   33.1730   41.4369 H   0  0  0  0  0  0  0  0  0  0  0  0
   48.3090   35.4171   43.3378 H   0  0  0  0  0  0  0  0  0  0  0  0
   45.7683   35.3801   43.2443 H   0  0  0  0  0  0  0  0  0  0  0  0
   48.5394   33.7272   39.4582 H   0  0  0  0  0  0  0  0  0  0  0  0
   41.6372   35.6406   38.8605 H   0  0  0  0  0  0  0  0  0  0  0  0
   38.9634   34.9640   39.4308 H   0  0  0  0  0  0  0  0  0  0  0  0
   39.3646   34.0979   40.6606 H   0  0  0  0  0  0  0  0  0  0  0  0
   40.4891   36.4946   41.7673 H   0  0  0  0  0  0  0  0  0  0  0  0
   39.8644   37.3963   40.6698 H   0  0  0  0  0  0  0  0  0  0  0  0
  1  8  1  0
  1  2  1  0
  3  2  2  0
  4  3  1  0
  5  4  1  0
  5  1  2  0
  7  6  2  0
  8  7  1  0
  9 10  1  0
  9  8  2  0
 10 11  2  0
 11  6  1  0
 12 13  1  0
 12  4  1  0
 12 14  1  0
 13 14  1  0
  2 15  1  0
  3 16  1  0
  6 17  1  0
  7 18  1  0
 10 19  1  0
 12 20  1  0
 13 21  1  0
 13 22  1  0
 14 23  1  0
 14 24  1  0
M  ISO  8  15  14  16  14  17  14  18  14  19  14  20  13  21  13  22  13
M  ISO  2  23  13  24  13
M  END
>  <minimizedAffinity>  (1) 
-4.18603849

>  <minimizedRMSD>  (1) 
6.06567669

$$$$
