
     RDKit          3D

 27 29  0  0  0  0  0  0  0  0999 V2000
   46.0826   34.1523   41.0067 C   0  0  0  0  0  0  0  0  0  0  0  0
   46.6132   34.8299   42.1000 C   0  0  0  0  0  0  0  0  0  0  0  0
   47.9381   35.2863   41.9934 C   0  0  0  0  0  0  0  0  0  0  0  0
   48.6134   35.0370   40.8325 N   0  0  0  0  0  0  0  0  0  0  0  0
   48.0474   34.3750   39.8059 C   0  0  0  0  0  0  0  0  0  0  0  0
   46.7781   33.9233   39.8752 N   0  0  0  0  0  0  0  0  0  0  0  0
   45.8089   35.0432   43.2908 C   0  0  0  0  0  0  0  0  0  0  0  0
   45.0557   36.1811   43.4970 C   0  0  0  0  0  0  0  0  0  0  0  0
   44.4693   35.9669   44.7237 C   0  0  0  0  0  0  0  0  0  0  0  0
   44.8400   34.7726   45.2371 N   0  0  0  0  0  0  0  0  0  0  0  0
   45.6477   34.2361   44.3532 N   0  0  0  0  0  0  0  0  0  0  0  0
   44.7743   33.6968   41.1007 O   0  0  0  0  0  0  0  0  0  0  0  0
   43.6964   34.1994   40.4238 C   0  0  0  0  0  0  0  0  0  0  0  0
   43.2448   35.3891   40.4231 O   0  0  0  0  0  0  0  0  0  0  0  0
   48.3662   35.8158   42.8361 H   0  0  0  0  0  0  0  0  0  0  0  0
   48.6315   34.2027   38.9014 H   0  0  0  0  0  0  0  0  0  0  0  0
   44.9515   37.0428   42.8429 H   0  0  0  0  0  0  0  0  0  0  0  0
   43.7921   36.6889   45.2009 H   0  0  0  0  0  0  0  0  0  0  0  0
   44.5383   34.3592   46.1621 H   0  0  0  0  0  0  0  0  0  0  0  0
   42.6613   33.6396   39.4729 C   0  0  0  0  0  0  0  0  0  0  0  0
   42.7244   34.0421   38.0242 C   0  0  0  0  0  0  0  0  0  0  0  0
   43.0421   32.6483   38.4681 C   0  0  0  0  0  0  0  0  0  0  0  0
   41.6984   33.5175   39.9917 H   0  0  0  0  0  0  0  0  0  0  0  0
   41.7441   34.2931   37.5871 H   0  0  0  0  0  0  0  0  0  0  0  0
   43.5747   34.7446   37.8070 H   0  0  0  0  0  0  0  0  0  0  0  0
   42.3312   31.8955   38.1229 H   0  0  0  0  0  0  0  0  0  0  0  0
   44.1157   32.3581   38.2974 H   0  0  0  0  0  0  0  0  0  0  0  0
  1 12  1  0
  1  2  1  0
  2  7  1  0
  3  2  2  0
  4  3  1  0
  5  6  1  0
  5  4  2  0
  6  1  2  0
  7  8  1  0
  7 11  2  0
  8  9  2  0
  9 10  1  0
 11 10  1  0
 13 14  2  0
 13 12  1  0
  3 15  1  0
  5 16  1  0
  8 17  1  0
  9 18  1  0
 10 19  1  0
 20 21  1  0
 21 22  1  0
 22 20  1  0
 20 23  1  0
 21 24  1  0
 21 25  1  0
 22 26  1  0
 22 27  1  0
 13 20  1  0
M  ISO  5  15  14  16  14  17  14  18  14  19   9
M  END
>  <DihAtoms>  (1) 
13,12,19,20

>  <DihDeg>  (1) 
145.98588242952806

$$$$
