
     RDKit          3D

 26 27  0  0  0  0  0  0  0  0999 V2000
   45.7860   34.0650   45.1640 C   0  0  0  0  0  0  0  0  0  0  0  0
   44.7730   35.0160   45.3850 C   0  0  0  0  0  0  0  0  0  0  0  0
   44.5210   35.9660   44.3650 C   0  0  0  0  0  0  0  0  0  0  0  0
   45.2630   35.8990   43.2510 N   0  0  0  0  0  0  0  0  0  0  0  0
   46.2270   34.9670   43.0800 C   0  0  0  0  0  0  0  0  0  0  0  0
   46.4950   34.0480   44.0290 N   0  0  0  0  0  0  0  0  0  0  0  0
   46.0370   33.0770   46.2460 C   0  0  0  0  0  0  0  0  0  0  0  0
   46.9070   35.0330   41.8690 O   0  0  0  0  0  0  0  0  0  0  0  0
   46.3040   32.5720   41.3320 O   0  0  0  0  0  0  0  0  0  0  0  0
   47.1690   33.7320   40.8290 P   0  0  1  0  0  0  0  0  0  0  0  0
   46.6860   34.0370   39.2460 O   0  0  0  0  0  0  0  0  0  0  0  0
   48.8030   33.2900   40.8300 O   0  0  0  0  0  0  0  0  0  0  0  0
   49.3610   33.3430   42.0940 C   0  0  0  0  0  0  0  0  0  0  0  0
   50.2410   34.4280   42.5540 C   0  0  0  0  0  0  0  0  0  0  0  0
   50.8840   33.1090   42.1770 C   0  0  0  0  0  0  0  0  0  0  0  0
   44.1947   35.0216   46.3207 H   0  0  0  0  0  0  0  0  0  0  0  0
   43.7419   36.7335   44.4834 H   0  0  0  0  0  0  0  0  0  0  0  0
   45.9130   33.5649   47.2240 H   0  0  0  0  0  0  0  0  0  0  0  0
   45.3213   32.2464   46.1573 H   0  0  0  0  0  0  0  0  0  0  0  0
   47.0623   32.6886   46.1573 H   0  0  0  0  0  0  0  0  0  0  0  0
   45.8489   34.5656   39.2524 H   0  0  0  0  0  0  0  0  0  0  0  0
   48.4410   32.9166   42.5203 H   0  0  0  0  0  0  0  0  0  0  0  0
   50.3956   35.3104   41.9156 H   0  0  0  0  0  0  0  0  0  0  0  0
   50.2673   35.0622   43.4524 H   0  0  0  0  0  0  0  0  0  0  0  0
   51.3051   32.4529   42.9530 H   0  0  0  0  0  0  0  0  0  0  0  0
   51.6742   32.7819   41.4852 H   0  0  0  0  0  0  0  0  0  0  0  0
  1  2  2  0
  1  7  1  0
  3  2  1  0
  4  3  2  0
  5  4  1  0
  5  6  2  0
  6  1  1  0
  8  5  1  0
 10 12  1  0
 10  9  2  0
 10  8  1  0
 11 10  1  0
 12 13  1  0
 13 15  1  0
 13 14  1  0
 15 14  1  0
  2 16  1  0
  3 17  1  0
  7 18  1  0
  7 19  1  0
  7 20  1  0
 11 21  1  0
 13 22  1  0
 14 23  1  0
 14 24  1  0
 15 25  1  0
 15 26  1  0
M  ISO  8  16  14  17  14  18   8  19   8  20   8  21   3  22  13  23  13
M  ISO  3  24  13  25  13  26  13
M  END
>  <minimizedAffinity>  (1) 
-4.4925437

>  <minimizedRMSD>  (1) 
6.26420212

$$$$
