
     RDKit          3D

 18 19  0  0  0  0  0  0  0  0999 V2000
   48.0930   33.8780   42.9950 C   0  0  0  0  0  0  0  0  0  0  0  0
   49.1650   34.7480   42.7400 C   0  0  0  0  0  0  0  0  0  0  0  0
   50.3950   34.1600   42.3830 C   0  0  0  0  0  0  0  0  0  0  0  0
   50.4800   32.8010   42.3070 N   0  0  0  0  0  0  0  0  0  0  0  0
   49.4040   32.0170   42.5670 C   0  0  0  0  0  0  0  0  0  0  0  0
   48.2330   32.5540   42.9050 N   0  0  0  0  0  0  0  0  0  0  0  0
   46.9030   34.4430   43.3390 O   0  0  0  0  0  0  0  0  0  0  0  0
   46.1350   35.3330   42.5910 C   0  0  0  0  0  0  0  0  0  0  0  0
   45.1240   36.2100   43.2830 C   0  0  0  0  0  0  0  0  0  0  0  0
   44.6460   35.0040   42.5820 C   0  0  0  0  0  0  0  0  0  0  0  0
   49.0500   35.8394   42.8155 H   0  0  0  0  0  0  0  0  0  0  0  0
   51.2728   34.7874   42.1690 H   0  0  0  0  0  0  0  0  0  0  0  0
   49.4998   30.9234   42.4978 H   0  0  0  0  0  0  0  0  0  0  0  0
   46.9378   35.5325   41.8659 H   0  0  0  0  0  0  0  0  0  0  0  0
   45.0969   36.2492   44.3820 H   0  0  0  0  0  0  0  0  0  0  0  0
   44.8714   37.2794   43.2325 H   0  0  0  0  0  0  0  0  0  0  0  0
   44.0674   35.1026   41.6517 H   0  0  0  0  0  0  0  0  0  0  0  0
   44.0427   34.1291   42.8659 H   0  0  0  0  0  0  0  0  0  0  0  0
  1  7  1  0
  2  1  2  0
  3  2  1  0
  4  3  2  0
  4  5  1  0
  5  6  2  0
  6  1  1  0
  8  9  1  0
  8  7  1  0
 10  8  1  0
 10  9  1  0
  2 11  1  0
  3 12  1  0
  5 13  1  0
  8 14  1  0
  9 15  1  0
  9 16  1  0
 10 17  1  0
 10 18  1  0
M  ISO  8  11  14  12  14  13  14  14  13  15  13  16  13  17  13  18  13
M  END
>  <minimizedAffinity>  (1) 
-3.02062941

>  <minimizedRMSD>  (1) 
4.15414476

$$$$
