
     RDKit          3D

 46 49  0  0  1  0  0  0  0  0999 V2000
   46.0420   33.8220   43.2040 C   0  0  2  0  0  0  0  0  0  0  0  0
   45.2310   34.8760   42.5320 C   0  0  2  0  0  0  0  0  0  0  0  0
   45.0690   36.0980   43.3590 C   0  0  0  0  0  0  0  0  0  0  0  0
   44.5730   35.8470   44.7580 C   0  0  0  0  0  0  0  0  0  0  0  0
   45.0780   34.5700   45.3630 C   0  0  0  0  0  0  0  0  0  0  0  0
   46.3230   34.0640   44.6580 C   0  0  0  0  0  0  0  0  0  0  0  0
   42.9570   35.2960   41.5110 C   0  0  1  0  0  0  0  0  0  0  0  0
   43.8880   34.3150   42.1190 C   0  0  1  0  0  0  0  0  0  0  0  0
   44.1110   33.2900   41.2080 O   0  0  0  0  0  0  0  0  0  0  0  0
   43.7700   33.7520   39.9490 C   0  0  0  0  0  0  0  0  0  0  0  0
   42.5040   34.5350   40.2560 C   0  0  2  0  0  0  0  0  0  0  0  0
   41.8440   35.5640   42.2790 O   0  0  0  0  0  0  0  0  0  0  0  0
   42.1960   35.4510   39.2660 O   0  0  0  0  0  0  0  0  0  0  0  0
   40.8510   35.6330   39.0650 C   0  0  0  0  0  0  0  0  0  0  0  0
   40.3460   35.0210   37.7480 C   0  0  0  0  0  0  0  0  0  0  0  0
   39.8860   34.5150   39.0620 C   0  0  0  0  0  0  0  0  0  0  0  0
   47.3230   33.5730   42.5150 C   0  0  0  0  0  0  0  0  0  0  0  0
   48.3930   34.3490   42.9630 C   0  0  0  0  0  0  0  0  0  0  0  0
   49.6630   34.2010   42.3870 C   0  0  0  0  0  0  0  0  0  0  0  0
   49.7580   33.2540   41.3730 N   0  0  0  0  0  0  0  0  0  0  0  0
   48.6960   32.5210   40.9690 C   0  0  0  0  0  0  0  0  0  0  0  0
   47.4740   32.6760   41.5340 N   0  0  0  0  0  0  0  0  0  0  0  0
   45.3945   32.9352   43.1393 H   0  0  0  0  0  0  0  0  0  0  0  0
   45.7840   35.1876   41.6336 H   0  0  0  0  0  0  0  0  0  0  0  0
   46.0461   36.5988   43.4261 H   0  0  0  0  0  0  0  0  0  0  0  0
   44.3029   36.7113   42.8621 H   0  0  0  0  0  0  0  0  0  0  0  0
   44.8961   36.6834   45.3951 H   0  0  0  0  0  0  0  0  0  0  0  0
   43.4781   35.7601   44.6974 H   0  0  0  0  0  0  0  0  0  0  0  0
   45.3164   34.7480   46.4220 H   0  0  0  0  0  0  0  0  0  0  0  0
   44.2920   33.8078   45.2564 H   0  0  0  0  0  0  0  0  0  0  0  0
   46.6464   33.1224   45.1258 H   0  0  0  0  0  0  0  0  0  0  0  0
   47.1147   34.8226   44.7458 H   0  0  0  0  0  0  0  0  0  0  0  0
   43.4386   36.2732   41.3586 H   0  0  0  0  0  0  0  0  0  0  0  0
   43.3984   33.9718   43.0423 H   0  0  0  0  0  0  0  0  0  0  0  0
   43.5725   32.9220   39.2547 H   0  0  0  0  0  0  0  0  0  0  0  0
   44.5570   34.3409   39.4553 H   0  0  0  0  0  0  0  0  0  0  0  0
   41.6106   33.9010   40.3552 H   0  0  0  0  0  0  0  0  0  0  0  0
   42.0831   35.5064   43.2380 H   0  0  0  0  0  0  0  0  0  0  0  0
   40.8522   36.5956   39.5973 H   0  0  0  0  0  0  0  0  0  0  0  0
   41.0193   34.4136   37.1253 H   0  0  0  0  0  0  0  0  0  0  0  0
   39.8595   35.4038   36.8387 H   0  0  0  0  0  0  0  0  0  0  0  0
   38.8479   34.6935   39.3789 H   0  0  0  0  0  0  0  0  0  0  0  0
   39.8701   33.5209   39.5326 H   0  0  0  0  0  0  0  0  0  0  0  0
   48.2396   35.0795   43.7710 H   0  0  0  0  0  0  0  0  0  0  0  0
   50.5281   34.7955   42.7160 H   0  0  0  0  0  0  0  0  0  0  0  0
   48.8268   31.7827   40.1641 H   0  0  0  0  0  0  0  0  0  0  0  0
  1  6  1  0
  2  1  1  0
  2  3  1  0
  3  4  1  0
  4  5  1  0
  6  5  1  0
  7  8  1  0
  7 12  1  0
  8  2  1  0
  9  8  1  0
 10 11  1  0
 10  9  1  0
 11  7  1  0
 13 11  1  0
 14 13  1  0
 15 16  1  0
 15 14  1  0
 16 14  1  0
 17 18  2  0
 17  1  1  0
 19 18  1  0
 20 19  2  0
 21 20  1  0
 21 22  2  0
 22 17  1  0
  1 23  1  1
  2 24  1  6
  3 25  1  0
  3 26  1  0
  4 27  1  0
  4 28  1  0
  5 29  1  0
  5 30  1  0
  6 31  1  0
  6 32  1  0
  7 33  1  6
  8 34  1  1
 10 35  1  0
 10 36  1  0
 11 37  1  1
 12 38  1  0
 14 39  1  0
 15 40  1  0
 15 41  1  0
 16 42  1  0
 16 43  1  0
 18 44  1  0
 19 45  1  0
 21 46  1  0
M  ISO  8  23  13  24  13  25  13  26  13  27  13  28  13  29  13  30  13
M  ISO  8  31  13  32  13  33  13  34  13  35  13  36  13  37  13  38   3
M  ISO  8  39  13  40  13  41  13  42  13  43  13  44  14  45  14  46  14
M  END
>  <minimizedAffinity>  (1) 
-6.12350368

>  <minimizedRMSD>  (1) 
0.549005568

$$$$
