
     RDKit          3D

 47 51  0  0  0  0  0  0  0  0999 V2000
   45.8030   32.3080   46.0470 C   0  0  0  0  0  0  0  0  0  0  0  0
   45.6060   32.9900   47.2440 C   0  0  0  0  0  0  0  0  0  0  0  0
   45.7860   32.3980   48.5000 C   0  0  0  0  0  0  0  0  0  0  0  0
   46.1760   31.0920   48.6020 C   0  0  0  0  0  0  0  0  0  0  0  0
   46.3740   30.3790   47.4090 C   0  0  0  0  0  0  0  0  0  0  0  0
   46.7080   29.0650   47.5500 C   0  0  0  0  0  0  0  0  0  0  0  0
   46.8410   28.3050   46.3850 C   0  0  0  0  0  0  0  0  0  0  0  0
   46.6130   28.9450   45.1160 C   0  0  0  0  0  0  0  0  0  0  0  0
   46.2820   30.2790   45.1420 C   0  0  0  0  0  0  0  0  0  0  0  0
   46.1610   31.0560   46.2050 C   0  0  0  0  0  0  0  0  0  0  0  0
   44.4510   29.7650   43.7870 C   0  0  0  0  0  0  0  0  0  0  0  0
   45.8160   30.2550   43.7700 C   0  0  0  0  0  0  0  0  0  0  0  0
   46.2510   30.3880   42.5180 C   0  0  0  0  0  0  0  0  0  0  0  0
   45.5280   30.1020   41.3800 C   0  0  0  0  0  0  0  0  0  0  0  0
   44.2390   29.6350   41.4250 C   0  0  0  0  0  0  0  0  0  0  0  0
   43.6980   29.4660   42.6720 C   0  0  0  0  0  0  0  0  0  0  0  0
   43.6640   29.5120   44.9430 O   0  0  0  0  0  0  0  0  0  0  0  0
   42.4120   28.9910   42.6610 O   0  0  0  0  0  0  0  0  0  0  0  0
   41.2590   29.5780   42.2510 C   0  0  0  0  0  0  0  0  0  0  0  0
   40.0360   29.4300   43.1480 C   0  0  0  0  0  0  0  0  0  0  0  0
   40.6830   30.7590   42.9430 C   0  0  0  0  0  0  0  0  0  0  0  0
   45.2480   34.1450   42.8480 C   0  0  0  0  0  0  0  0  0  0  0  0
   46.5810   34.5140   42.5460 C   0  0  0  0  0  0  0  0  0  0  0  0
   47.5440   34.0890   43.4300 C   0  0  0  0  0  0  0  0  0  0  0  0
   47.0980   33.3830   44.4660 N   0  0  0  0  0  0  0  0  0  0  0  0
   45.8590   33.0210   44.7810 C   0  0  0  0  0  0  0  0  0  0  0  0
   44.9580   33.4250   43.9370 N   0  0  0  0  0  0  0  0  0  0  0  0
   48.9210   34.3360   43.2150 N   0  0  0  0  0  0  0  0  0  0  0  0
   45.2941   34.0440   47.2014 H   0  0  0  0  0  0  0  0  0  0  0  0
   45.6122   32.9885   49.4117 H   0  0  0  0  0  0  0  0  0  0  0  0
   46.3290   30.6173   49.5824 H   0  0  0  0  0  0  0  0  0  0  0  0
   46.8668   28.6198   48.5433 H   0  0  0  0  0  0  0  0  0  0  0  0
   47.1140   27.2407   46.4365 H   0  0  0  0  0  0  0  0  0  0  0  0
   46.6996   28.3921   44.1690 H   0  0  0  0  0  0  0  0  0  0  0  0
   47.2775   30.7587   42.3803 H   0  0  0  0  0  0  0  0  0  0  0  0
   46.0023   30.2539   40.3992 H   0  0  0  0  0  0  0  0  0  0  0  0
   43.6713   29.4088   40.5104 H   0  0  0  0  0  0  0  0  0  0  0  0
   42.7375   29.1766   44.8474 H   0  0  0  0  0  0  0  0  0  0  0  0
   41.5224   29.3728   41.2029 H   0  0  0  0  0  0  0  0  0  0  0  0
   39.0496   29.2216   42.7079 H   0  0  0  0  0  0  0  0  0  0  0  0
   39.7733   28.8123   44.0194 H   0  0  0  0  0  0  0  0  0  0  0  0
   41.2353   31.2302   43.7694 H   0  0  0  0  0  0  0  0  0  0  0  0
   40.3252   31.7450   42.6116 H   0  0  0  0  0  0  0  0  0  0  0  0
   44.4359   34.4562   42.1745 H   0  0  0  0  0  0  0  0  0  0  0  0
   46.8319   35.1073   41.6543 H   0  0  0  0  0  0  0  0  0  0  0  0
   49.6166   34.0034   43.8979 H   0  0  0  0  0  0  0  0  0  0  0  0
   49.2274   34.8484   42.3757 H   0  0  0  0  0  0  0  0  0  0  0  0
  1 10  1  0
  1  2  2  0
  2  3  1  0
  3  4  2  0
  5  6  2  0
  5  4  1  0
  7  6  1  0
  8  9  1  0
  8  7  2  0
  9 10  2  0
 10  5  1  0
 11 17  1  0
 12 11  2  0
 12  9  1  0
 13 12  1  0
 14 15  1  0
 14 13  2  0
 15 16  2  0
 16 11  1  0
 18 16  1  0
 19 18  1  0
 19 21  1  0
 19 20  1  0
 21 20  1  0
 22 27  2  0
 23 22  1  0
 23 24  2  0
 24 25  1  0
 25 26  2  0
 26  1  1  0
 27 26  1  0
 28 24  1  0
  2 29  1  0
  3 30  1  0
  4 31  1  0
  6 32  1  0
  7 33  1  0
  8 34  1  0
 13 35  1  0
 14 36  1  0
 15 37  1  0
 17 38  1  0
 19 39  1  0
 20 40  1  0
 20 41  1  0
 21 42  1  0
 21 43  1  0
 22 44  1  0
 23 45  1  0
 28 46  1  0
 28 47  1  0
M  ISO  8  29  14  30  14  31  14  32  14  33  14  34  14  35  14  36  14
M  ISO  8  37  14  38   3  39  13  40  13  41  13  42  13  43  13  44  14
M  ISO  1  45  14
M  END
>  <minimizedAffinity>  (1) 
-5.05800772

>  <minimizedRMSD>  (1) 
0.978655875

$$$$
