
     RDKit          3D

 34 37  0  0  1  0  0  0  0  0999 V2000
   45.9160   33.7300   42.8530 C   0  0  0  0  0  0  0  0  0  0  0  0
   47.1360   33.1170   42.4030 C   0  0  0  0  0  0  0  0  0  0  0  0
   47.8850   32.4600   43.3440 C   0  0  0  0  0  0  0  0  0  0  0  0
   47.4580   32.4140   44.6300 N   0  0  0  0  0  0  0  0  0  0  0  0
   46.3150   32.9970   45.0150 C   0  0  0  0  0  0  0  0  0  0  0  0
   45.5410   33.6590   44.1190 N   0  0  0  0  0  0  0  0  0  0  0  0
   47.5720   33.2040   40.9880 C   0  0  1  0  0  0  0  0  0  0  0  0
   47.0340   34.1870   40.0950 C   0  0  0  0  0  0  0  0  0  0  0  0
   48.4080   34.4280   40.5760 C   0  0  1  0  0  0  0  0  0  0  0  0
   48.7590   35.4700   41.5680 C   0  0  0  0  0  0  0  0  0  0  0  0
   49.3710   36.5620   40.9780 F   0  0  0  0  0  0  0  0  0  0  0  0
   49.5890   34.9720   42.5790 F   0  0  0  0  0  0  0  0  0  0  0  0
   47.5840   35.9210   42.1210 F   0  0  0  0  0  0  0  0  0  0  0  0
   45.9020   32.9010   46.4570 C   0  0  2  0  0  0  0  0  0  0  0  0
   47.0740   32.6210   47.3820 C   0  0  0  0  0  0  0  0  0  0  0  0
   45.9890   31.6040   47.1610 C   0  0  1  0  0  0  0  0  0  0  0  0
   44.9590   31.2940   48.1860 C   0  0  0  0  0  0  0  0  0  0  0  0
   45.0480   30.0580   49.0030 C   0  0  0  0  0  0  0  0  0  0  0  0
   45.2840   31.4270   49.6450 C   0  0  0  0  0  0  0  0  0  0  0  0
   45.2833   34.2676   42.1314 H   0  0  0  0  0  0  0  0  0  0  0  0
   48.8283   31.9722   43.0573 H   0  0  0  0  0  0  0  0  0  0  0  0
   47.6689   32.1094   40.9395 H   0  0  0  0  0  0  0  0  0  0  0  0
   46.2195   34.8407   40.4404 H   0  0  0  0  0  0  0  0  0  0  0  0
   46.5847   34.1302   39.0926 H   0  0  0  0  0  0  0  0  0  0  0  0
   49.3777   34.6280   40.0967 H   0  0  0  0  0  0  0  0  0  0  0  0
   45.0884   33.6355   46.3644 H   0  0  0  0  0  0  0  0  0  0  0  0
   48.0797   32.4569   46.9678 H   0  0  0  0  0  0  0  0  0  0  0  0
   47.5211   33.1162   48.2566 H   0  0  0  0  0  0  0  0  0  0  0  0
   46.0130   30.5418   46.8762 H   0  0  0  0  0  0  0  0  0  0  0  0
   44.1893   31.7190   47.5250 H   0  0  0  0  0  0  0  0  0  0  0  0
   44.1378   29.4878   49.2403 H   0  0  0  0  0  0  0  0  0  0  0  0
   45.6174   29.1192   48.9371 H   0  0  0  0  0  0  0  0  0  0  0  0
   46.2948   31.7229   49.9624 H   0  0  0  0  0  0  0  0  0  0  0  0
   44.8606   31.9787   50.4972 H   0  0  0  0  0  0  0  0  0  0  0  0
  1  6  2  0
  2  1  1  0
  2  3  2  0
  3  4  1  0
  4  5  2  0
  5 14  1  0
  6  5  1  0
  7  2  1  0
  8  9  1  0
  8  7  1  0
  9  7  1  0
  9 10  1  0
 10 13  1  0
 10 12  1  0
 11 10  1  0
 14 16  1  0
 14 15  1  0
 16 15  1  0
 16 17  1  0
 17 18  1  0
 17 19  1  0
 18 19  1  0
  1 20  1  0
  3 21  1  0
  7 22  1  6
  8 23  1  0
  8 24  1  0
  9 25  1  6
 14 26  1  1
 15 27  1  0
 15 28  1  0
 16 29  1  6
 17 30  1  0
 18 31  1  0
 18 32  1  0
 19 33  1  0
 19 34  1  0
M  ISO  8  20  14  21  14  22  13  23  13  24  13  25  13  26  13  27  13
M  ISO  7  28  13  29  13  30  13  31  13  32  13  33  13  34  13
M  END
>  <minimizedAffinity>  (1) 
-5.63193083

>  <minimizedRMSD>  (1) 
0.240878686

$$$$
