
     RDKit          3D

 42 46  0  0  0  0  0  0  0  0999 V2000
   44.8140   35.9940   43.2430 Cl  0  0  0  0  0  0  0  0  0  0  0  0
   45.5590   34.7450   44.2020 C   0  0  0  0  0  0  0  0  0  0  0  0
   46.6540   34.0610   43.7120 C   0  0  0  0  0  0  0  0  0  0  0  0
   47.1680   33.0950   44.5460 C   0  0  0  0  0  0  0  0  0  0  0  0
   46.6650   32.7850   45.7960 C   0  0  0  0  0  0  0  0  0  0  0  0
   45.5770   33.4850   46.2490 C   0  0  0  0  0  0  0  0  0  0  0  0
   44.9720   33.0630   47.8340 Cl  0  0  0  0  0  0  0  0  0  0  0  0
   45.0320   34.4580   45.4500 C   0  0  0  0  0  0  0  0  0  0  0  0
   47.3560   31.7190   46.5340 C   0  0  0  0  0  0  0  0  0  0  0  0
   47.4710   30.4230   46.0570 C   0  0  0  0  0  0  0  0  0  0  0  0
   48.1180   29.4220   46.7460 C   0  0  0  0  0  0  0  0  0  0  0  0
   48.6870   29.6820   47.9630 C   0  0  0  0  0  0  0  0  0  0  0  0
   49.3060   28.6820   48.6010 N   0  0  0  0  0  0  0  0  0  0  0  0
   49.8940   28.8640   49.8090 C   0  0  0  0  0  0  0  0  0  0  0  0
   49.8230   30.1390   50.3590 C   0  0  0  0  0  0  0  0  0  0  0  0
   49.1900   31.1530   49.7030 C   0  0  0  0  0  0  0  0  0  0  0  0
   48.5960   30.9620   48.4750 C   0  0  0  0  0  0  0  0  0  0  0  0
   47.9460   31.9640   47.7810 C   0  0  0  0  0  0  0  0  0  0  0  0
   48.7990   35.4920   41.1450 C   0  0  0  0  0  0  0  0  0  0  0  0
   48.3390   34.8990   39.9690 C   0  0  0  0  0  0  0  0  0  0  0  0
   47.2550   33.9750   40.0540 C   0  0  0  0  0  0  0  0  0  0  0  0
   46.7670   33.7590   41.2910 N   0  0  0  0  0  0  0  0  0  0  0  0
   47.2290   34.3410   42.4050 C   0  0  0  0  0  0  0  0  0  0  0  0
   48.2540   35.2190   42.3410 N   0  0  0  0  0  0  0  0  0  0  0  0
   46.6830   33.2850   38.8730 C   0  0  0  0  0  0  0  0  0  0  0  0
   47.4420   32.2920   38.1110 C   0  0  0  0  0  0  0  0  0  0  0  0
   47.3770   33.6850   37.5370 C   0  0  0  0  0  0  0  0  0  0  0  0
   48.0422   32.5284   44.1928 H   0  0  0  0  0  0  0  0  0  0  0  0
   44.1581   35.0220   45.8082 H   0  0  0  0  0  0  0  0  0  0  0  0
   47.0239   30.1826   45.0811 H   0  0  0  0  0  0  0  0  0  0  0  0
   48.1777   28.4108   46.3172 H   0  0  0  0  0  0  0  0  0  0  0  0
   50.4040   28.0405   50.3302 H   0  0  0  0  0  0  0  0  0  0  0  0
   50.2846   30.3327   51.3385 H   0  0  0  0  0  0  0  0  0  0  0  0
   49.1527   32.1498   50.1667 H   0  0  0  0  0  0  0  0  0  0  0  0
   47.8906   32.9730   48.2154 H   0  0  0  0  0  0  0  0  0  0  0  0
   49.6344   36.2056   41.0905 H   0  0  0  0  0  0  0  0  0  0  0  0
   48.8008   35.1380   38.9996 H   0  0  0  0  0  0  0  0  0  0  0  0
   45.6732   33.2522   39.3081 H   0  0  0  0  0  0  0  0  0  0  0  0
   48.3950   31.9159   38.5113 H   0  0  0  0  0  0  0  0  0  0  0  0
   47.2010   31.2954   37.7125 H   0  0  0  0  0  0  0  0  0  0  0  0
   48.2660   34.3327   37.5420 H   0  0  0  0  0  0  0  0  0  0  0  0
   47.0659   34.1385   36.5843 H   0  0  0  0  0  0  0  0  0  0  0  0
  1  2  1  0
  2  8  2  0
  3  2  1  0
  3  4  2  0
  4  5  1  0
  5  6  2  0
  5  9  1  0
  6  7  1  0
  8  6  1  0
  9 18  1  0
 10  9  2  0
 10 11  1  0
 11 12  2  0
 12 17  1  0
 12 13  1  0
 13 14  2  0
 14 15  1  0
 16 15  2  0
 17 16  1  0
 18 17  2  0
 19 24  2  0
 20 21  2  0
 20 19  1  0
 21 22  1  0
 22 23  2  0
 23  3  1  0
 24 23  1  0
 25 21  1  0
 26 25  1  0
 27 26  1  0
 27 25  1  0
  4 28  1  0
  8 29  1  0
 10 30  1  0
 11 31  1  0
 14 32  1  0
 15 33  1  0
 16 34  1  0
 18 35  1  0
 19 36  1  0
 20 37  1  0
 25 38  1  0
 26 39  1  0
 26 40  1  0
 27 41  1  0
 27 42  1  0
M  ISO  8  28  14  29  14  30  14  31  14  32  14  33  14  34  14  35  14
M  ISO  7  36  14  37  14  38  13  39  13  40  13  41  13  42  13
M  END
>  <minimizedAffinity>  (1) 
-6.82274532

>  <minimizedRMSD>  (1) 
0.141201526

$$$$
