
     RDKit          3D

 34 36  0  0  0  0  0  0  0  0999 V2000
   45.2172   36.1217   43.0143 C   0  0  0  0  0  0  0  0  0  0  0  0
   44.2137   35.7892   42.0888 C   0  0  0  0  0  0  0  0  0  0  0  0
   44.4763   34.6964   41.2287 C   0  0  0  0  0  0  0  0  0  0  0  0
   45.6554   34.0389   41.3368 N   0  0  0  0  0  0  0  0  0  0  0  0
   46.5892   34.4070   42.2529 C   0  0  0  0  0  0  0  0  0  0  0  0
   46.3670   35.4489   43.0902 N   0  0  0  0  0  0  0  0  0  0  0  0
   49.0514   35.9223   41.3711 Cl  0  0  0  0  0  0  0  0  0  0  0  0
   49.0106   34.2703   41.9058 C   0  0  0  0  0  0  0  0  0  0  0  0
   47.8312   33.6403   42.2976 C   0  0  0  0  0  0  0  0  0  0  0  0
   47.7629   32.3382   42.7250 C   0  0  0  0  0  0  0  0  0  0  0  0
   48.9593   31.6357   42.7565 C   0  0  0  0  0  0  0  0  0  0  0  0
   50.1834   32.1652   42.3896 C   0  0  0  0  0  0  0  0  0  0  0  0
   50.1472   33.4926   41.9710 C   0  0  0  0  0  0  0  0  0  0  0  0
   44.9495   37.2517   43.9060 C   0  0  0  0  0  0  0  0  0  0  0  0
   45.5036   38.4090   43.6441 C   0  0  0  0  0  0  0  0  0  0  0  0
   45.2860   39.6074   44.4957 C   0  0  0  0  0  0  0  0  0  0  0  0
   43.3185   36.3576   42.0713 H   0  0  0  0  0  0  0  0  0  0  0  0
   43.7199   34.4410   40.5266 H   0  0  0  0  0  0  0  0  0  0  0  0
   46.8370   31.8884   43.0183 H   0  0  0  0  0  0  0  0  0  0  0  0
   48.8910   30.6042   43.0973 H   0  0  0  0  0  0  0  0  0  0  0  0
   51.0843   31.5989   42.4252 H   0  0  0  0  0  0  0  0  0  0  0  0
   51.0865   33.9380   41.6769 H   0  0  0  0  0  0  0  0  0  0  0  0
   44.3108   37.1694   44.7749 H   0  0  0  0  0  0  0  0  0  0  0  0
   46.1516   38.5422   42.7852 H   0  0  0  0  0  0  0  0  0  0  0  0
   44.6071   39.3090   45.3203 H   0  0  0  0  0  0  0  0  0  0  0  0
   44.7225   40.3936   43.9192 H   0  0  0  0  0  0  0  0  0  0  0  0
   46.5699   40.1392   45.0795 C   0  0  0  0  0  0  0  0  0  0  0  0
   47.0736   39.6675   46.3833 C   0  0  0  0  0  0  0  0  0  0  0  0
   47.6985   39.0965   45.1208 C   0  0  0  0  0  0  0  0  0  0  0  0
   46.8634   41.1614   44.7418 H   0  0  0  0  0  0  0  0  0  0  0  0
   47.7479   40.3229   46.9489 H   0  0  0  0  0  0  0  0  0  0  0  0
   46.4428   39.0026   47.0061 H   0  0  0  0  0  0  0  0  0  0  0  0
   48.6992   39.4630   44.8062 H   0  0  0  0  0  0  0  0  0  0  0  0
   47.4629   38.0487   44.9380 H   0  0  0  0  0  0  0  0  0  0  0  0
  1  6  1  0
  1 14  1  0
  2  1  2  0
  3  4  2  0
  3  2  1  0
  4  5  1  0
  5  9  1  0
  5  6  2  0
  7  8  1  0
  8 13  2  0
  8  9  1  0
  9 10  2  0
 10 11  1  0
 12 11  2  0
 13 12  1  0
 15 14  2  0
 15 16  1  0
  2 17  1  0
  3 18  1  0
 10 19  1  0
 11 20  1  0
 12 21  1  0
 13 22  1  0
 14 23  1  0
 15 24  1  0
 16 25  1  0
 16 26  1  0
 27 28  1  0
 28 29  1  0
 29 27  1  0
 27 30  1  0
 28 31  1  0
 28 32  1  0
 29 33  1  0
 29 34  1  0
 16 27  1  0
M  ISO  8  17  14  18  14  19  14  20  14  21  14  22  14  25   8  26   8
M  END
>  <DihAtoms>  (1) 
14,15,26,27

>  <DihDeg>  (1) 
59.99977146171328

$$$$
