
     RDKit          3D

 46 49  0  0  0  0  0  0  0  0999 V2000
   45.6748   32.9559   46.7516 C   0  0  0  0  0  0  0  0  0  0  0  0
   46.3983   32.1603   47.7884 C   0  0  0  0  0  0  0  0  0  0  0  0
   45.9257   31.8147   49.0192 C   0  0  0  0  0  0  0  0  0  0  0  0
   46.8930   31.1147   49.6137 N   0  0  0  0  0  0  0  0  0  0  0  0
   47.9600   30.9998   48.8155 C   0  0  0  0  0  0  0  0  0  0  0  0
   47.6382   31.6615   47.6683 N   0  0  0  0  0  0  0  0  0  0  0  0
   49.2180   30.3600   48.9979 N   0  0  0  0  0  0  0  0  0  0  0  0
   50.2957   31.1647   49.6203 C   0  0  0  0  0  0  0  0  0  0  0  0
   50.3856   30.6404   51.0523 C   0  0  0  0  0  0  0  0  0  0  0  0
   50.4442   29.1358   51.0541 C   0  0  0  0  0  0  0  0  0  0  0  0
   50.7813   28.6309   49.6598 C   0  0  0  0  0  0  0  0  0  0  0  0
   49.6897   29.0470   48.6967 C   0  0  0  0  0  0  0  0  0  0  0  0
   46.1580   33.9002   44.5253 C   0  0  0  0  0  0  0  0  0  0  0  0
   46.5293   33.1851   45.5688 C   0  0  0  0  0  0  0  0  0  0  0  0
   47.1063   34.0375   43.4253 C   0  0  0  0  0  0  0  0  0  0  0  0
   46.9217   35.0098   42.4024 C   0  0  0  0  0  0  0  0  0  0  0  0
   47.8653   35.0686   41.3976 C   0  0  0  0  0  0  0  0  0  0  0  0
   48.9142   34.2224   41.4106 N   0  0  0  0  0  0  0  0  0  0  0  0
   49.0666   33.3104   42.3907 C   0  0  0  0  0  0  0  0  0  0  0  0
   48.1930   33.2153   43.3714 N   0  0  0  0  0  0  0  0  0  0  0  0
   45.4036   33.9474   47.1831 H   0  0  0  0  0  0  0  0  0  0  0  0
   44.7357   32.4301   46.4572 H   0  0  0  0  0  0  0  0  0  0  0  0
   44.9494   32.0631   49.4326 H   0  0  0  0  0  0  0  0  0  0  0  0
   46.8635   30.6943   50.5731 H   0  0  0  0  0  0  0  0  0  0  0  0
   51.2365   31.0459   49.0708 H   0  0  0  0  0  0  0  0  0  0  0  0
   49.9984   32.2287   49.6976 H   0  0  0  0  0  0  0  0  0  0  0  0
   49.4986   30.9535   51.6059 H   0  0  0  0  0  0  0  0  0  0  0  0
   51.3228   31.0433   51.5110 H   0  0  0  0  0  0  0  0  0  0  0  0
   49.4628   28.6835   51.3062 H   0  0  0  0  0  0  0  0  0  0  0  0
   51.2097   28.7278   51.7609 H   0  0  0  0  0  0  0  0  0  0  0  0
   50.8713   27.5307   49.6807 H   0  0  0  0  0  0  0  0  0  0  0  0
   51.7475   29.0907   49.3815 H   0  0  0  0  0  0  0  0  0  0  0  0
   50.0447   28.9602   47.6470 H   0  0  0  0  0  0  0  0  0  0  0  0
   48.8595   28.3043   48.8641 H   0  0  0  0  0  0  0  0  0  0  0  0
   45.1963   34.3587   44.4875 H   0  0  0  0  0  0  0  0  0  0  0  0
   47.5319   32.7277   45.5697 H   0  0  0  0  0  0  0  0  0  0  0  0
   46.0536   35.6439   42.4738 H   0  0  0  0  0  0  0  0  0  0  0  0
   47.6977   35.8163   40.6363 H   0  0  0  0  0  0  0  0  0  0  0  0
   50.2405   32.4000   42.3598 C   0  0  0  0  0  0  0  0  0  0  0  0
   50.4587   31.4433   43.4971 C   0  0  0  0  0  0  0  0  0  0  0  0
   51.3969   32.5950   43.2491 C   0  0  0  0  0  0  0  0  0  0  0  0
   50.4932   31.9231   41.3683 H   0  0  0  0  0  0  0  0  0  0  0  0
   50.8111   30.4041   43.3137 H   0  0  0  0  0  0  0  0  0  0  0  0
   49.7224   31.4895   44.3224 H   0  0  0  0  0  0  0  0  0  0  0  0
   51.3788   33.4711   43.9360 H   0  0  0  0  0  0  0  0  0  0  0  0
   52.4127   32.3231   42.9244 H   0  0  0  0  0  0  0  0  0  0  0  0
  1  2  1  0
  2  3  2  0
  3  4  1  0
  5  7  1  0
  5  4  1  0
  6  2  1  0
  6  5  2  0
  7  8  1  0
  8  9  1  0
  9 10  1  0
 11 10  1  0
 12  7  1  0
 12 11  1  0
 13 14  2  0
 14  1  1  0
 15 13  1  0
 16 15  2  0
 17 18  2  0
 17 16  1  0
 18 19  1  0
 19 20  2  0
 20 15  1  0
  1 21  1  0
  1 22  1  0
  3 23  1  0
  4 24  1  0
  8 25  1  0
  8 26  1  0
  9 27  1  0
  9 28  1  0
 10 29  1  0
 10 30  1  0
 11 31  1  0
 11 32  1  0
 12 33  1  0
 12 34  1  0
 13 35  1  0
 14 36  1  0
 16 37  1  0
 17 38  1  0
 39 40  1  0
 40 41  1  0
 41 39  1  0
 39 42  1  0
 40 43  1  0
 40 44  1  0
 41 45  1  0
 41 46  1  0
 19 39  1  0
M  ISO  8  21   8  22   8  23  14  24   9  25  13  26  13  27  13  28  13
M  ISO  8  29  13  30  13  31  13  32  13  33  13  34  13  37  14  38  14
M  END
>  <DihAtoms>  (1) 
17,18,38,39

>  <DihDeg>  (1) 
41.10809227975486

$$$$
