
     RDKit          3D

 20 21  0  0  0  0  0  0  0  0999 V2000
   44.9880   34.8990   44.8880 C   0  0  0  0  0  0  0  0  0  0  0  0
   45.5310   35.1810   43.6380 C   0  0  0  0  0  0  0  0  0  0  0  0
   46.6430   34.4430   43.2210 C   0  0  0  0  0  0  0  0  0  0  0  0
   47.1230   33.4990   44.0560 N   0  0  0  0  0  0  0  0  0  0  0  0
   46.5820   33.2410   45.2600 C   0  0  0  0  0  0  0  0  0  0  0  0
   45.5040   33.9370   45.6990 N   0  0  0  0  0  0  0  0  0  0  0  0
   44.8640   36.2520   42.8700 C   0  0  0  0  0  0  0  0  0  0  0  0
   47.1850   34.7760   41.8910 C   0  0  0  0  0  0  0  0  0  0  0  0
   48.5150   34.0440   41.5670 C   0  0  0  0  0  0  0  0  0  0  0  0
   48.5070   35.5070   41.7890 C   0  0  0  0  0  0  0  0  0  0  0  0
   44.1140   35.4722   45.2308 H   0  0  0  0  0  0  0  0  0  0  0  0
   47.0188   32.4567   45.8957 H   0  0  0  0  0  0  0  0  0  0  0  0
   44.4134   36.9756   43.5652 H   0  0  0  0  0  0  0  0  0  0  0  0
   45.6033   36.7638   42.2364 H   0  0  0  0  0  0  0  0  0  0  0  0
   44.0786   35.8142   42.2364 H   0  0  0  0  0  0  0  0  0  0  0  0
   46.1956   34.9319   41.4363 H   0  0  0  0  0  0  0  0  0  0  0  0
   48.6901   33.6413   40.5584 H   0  0  0  0  0  0  0  0  0  0  0  0
   49.0614   33.1936   42.0008 H   0  0  0  0  0  0  0  0  0  0  0  0
   48.9701   35.9211   42.6968 H   0  0  0  0  0  0  0  0  0  0  0  0
   48.8589   36.3695   41.2040 H   0  0  0  0  0  0  0  0  0  0  0  0
  1  6  2  0
  2  1  1  0
  3  2  2  0
  3  4  1  0
  4  5  2  0
  5  6  1  0
  7  2  1  0
  8  3  1  0
  9 10  1  0
  9  8  1  0
 10  8  1  0
  1 11  1  0
  5 12  1  0
  7 13  1  0
  7 14  1  0
  7 15  1  0
  8 16  1  0
  9 17  1  0
  9 18  1  0
 10 19  1  0
 10 20  1  0
M  ISO  8  11  14  12  14  13   8  14   8  15   8  16  13  17  13  18  13
M  ISO  2  19  13  20  13
M  END
>  <minimizedAffinity>  (1) 
-3.79082751

>  <minimizedRMSD>  (1) 
1.89145887

$$$$
