
     RDKit          3D

 31 33  0  0  1  0  0  0  0  0999 V2000
   46.1920   33.7490   43.2940 C   0  0  2  0  0  0  0  0  0  0  0  0
   45.6050   34.7960   42.4210 C   0  0  0  0  0  0  0  0  0  0  0  0
   45.3030   36.0920   43.0960 C   0  0  0  0  0  0  0  0  0  0  0  0
   44.3320   35.7230   44.2060 C   0  0  0  0  0  0  0  0  0  0  0  0
   45.0110   34.9180   45.2580 C   0  0  0  0  0  0  0  0  0  0  0  0
   45.9840   33.9080   44.7360 C   0  0  0  0  0  0  0  0  0  0  0  0
   49.6960   34.7090   42.6170 C   0  0  0  0  0  0  0  0  0  0  0  0
   50.3000   33.4540   42.3580 C   0  0  0  0  0  0  0  0  0  0  0  0
   49.4890   32.3030   42.4180 C   0  0  0  0  0  0  0  0  0  0  0  0
   48.1820   32.4650   42.7170 N   0  0  0  0  0  0  0  0  0  0  0  0
   47.6270   33.6660   42.9590 C   0  0  0  0  0  0  0  0  0  0  0  0
   48.3710   34.7850   42.9120 N   0  0  0  0  0  0  0  0  0  0  0  0
   46.6650   33.1360   45.7690 C   0  0  0  0  0  0  0  0  0  0  0  0
   45.8920   32.4710   46.8750 C   0  0  0  0  0  0  0  0  0  0  0  0
   46.5850   31.6430   45.8660 C   0  0  0  0  0  0  0  0  0  0  0  0
   45.6544   32.8123   43.0854 H   0  0  0  0  0  0  0  0  0  0  0  0
   44.6662   34.4034   42.0032 H   0  0  0  0  0  0  0  0  0  0  0  0
   46.3664   35.0195   41.6592 H   0  0  0  0  0  0  0  0  0  0  0  0
   46.2190   36.5369   43.5121 H   0  0  0  0  0  0  0  0  0  0  0  0
   44.8848   36.8377   42.4039 H   0  0  0  0  0  0  0  0  0  0  0  0
   43.9340   36.6437   44.6575 H   0  0  0  0  0  0  0  0  0  0  0  0
   43.5165   35.1234   43.7754 H   0  0  0  0  0  0  0  0  0  0  0  0
   44.8136   35.0544   46.3315 H   0  0  0  0  0  0  0  0  0  0  0  0
   50.3019   35.6263   42.5793 H   0  0  0  0  0  0  0  0  0  0  0  0
   51.3707   33.3801   42.1171 H   0  0  0  0  0  0  0  0  0  0  0  0
   49.9075   31.3038   42.2272 H   0  0  0  0  0  0  0  0  0  0  0  0
   47.4893   33.8607   45.6960 H   0  0  0  0  0  0  0  0  0  0  0  0
   46.2690   32.5081   47.9077 H   0  0  0  0  0  0  0  0  0  0  0  0
   44.8594   32.5368   47.2483 H   0  0  0  0  0  0  0  0  0  0  0  0
   46.0000   31.0764   45.1266 H   0  0  0  0  0  0  0  0  0  0  0  0
   47.3246   30.8298   45.9083 H   0  0  0  0  0  0  0  0  0  0  0  0
  1  6  1  0
  2  3  1  0
  2  1  1  0
  3  4  1  0
  4  5  1  0
  6  5  2  0
  6 13  1  0
  7 12  2  0
  8  9  2  0
  8  7  1  0
  9 10  1  0
 10 11  2  0
 11  1  1  0
 12 11  1  0
 13 15  1  0
 13 14  1  0
 15 14  1  0
  1 16  1  6
  2 17  1  0
  2 18  1  0
  3 19  1  0
  3 20  1  0
  4 21  1  0
  4 22  1  0
  5 23  1  0
  7 24  1  0
  8 25  1  0
  9 26  1  0
 13 27  1  0
 14 28  1  0
 14 29  1  0
 15 30  1  0
 15 31  1  0
M  ISO  8  16  13  17  13  18  13  19  13  20  13  21  13  22  13  23  13
M  ISO  8  24  14  25  14  26  14  27  13  28  13  29  13  30  13  31  13
M  END
>  <minimizedAffinity>  (1) 
-4.70419455

>  <minimizedRMSD>  (1) 
4.57089138

$$$$
