
     RDKit          3D

 24 26  0  0  1  0  0  0  0  0999 V2000
   45.6380   34.0800   42.7740 C   0  0  1  0  0  0  0  0  0  0  0  0
   45.6410   35.6140   42.9430 C   0  0  0  0  0  0  0  0  0  0  0  0
   46.5480   34.9130   42.0140 C   0  0  1  0  0  0  0  0  0  0  0  0
   46.0740   33.3670   44.0130 C   0  0  0  0  0  0  0  0  0  0  0  0
   46.7830   32.1390   43.8490 C   0  0  0  0  0  0  0  0  0  0  0  0
   47.2040   31.4790   44.9990 C   0  0  0  0  0  0  0  0  0  0  0  0
   46.9120   32.0510   46.2000 N   0  0  0  0  0  0  0  0  0  0  0  0
   46.2350   33.2210   46.3140 C   0  0  0  0  0  0  0  0  0  0  0  0
   45.8230   33.8670   45.2240 N   0  0  0  0  0  0  0  0  0  0  0  0
   48.0150   35.0080   42.4250 C   0  0  0  0  0  0  0  0  0  0  0  0
   48.8890   35.6830   41.3380 C   0  0  0  0  0  0  0  0  0  0  0  0
   49.0650   34.2600   41.6990 C   0  0  0  0  0  0  0  0  0  0  0  0
   44.9565   33.2727   42.4678 H   0  0  0  0  0  0  0  0  0  0  0  0
   44.8070   36.2188   42.5575 H   0  0  0  0  0  0  0  0  0  0  0  0
   45.7527   36.3197   43.7794 H   0  0  0  0  0  0  0  0  0  0  0  0
   46.7615   34.9415   40.9353 H   0  0  0  0  0  0  0  0  0  0  0  0
   46.9891   31.7293   42.8492 H   0  0  0  0  0  0  0  0  0  0  0  0
   47.7537   30.5280   44.9403 H   0  0  0  0  0  0  0  0  0  0  0  0
   46.0254   33.6380   47.3101 H   0  0  0  0  0  0  0  0  0  0  0  0
   47.7858   35.1049   43.4965 H   0  0  0  0  0  0  0  0  0  0  0  0
   49.6504   36.4248   41.6207 H   0  0  0  0  0  0  0  0  0  0  0  0
   48.6982   36.2415   40.4097 H   0  0  0  0  0  0  0  0  0  0  0  0
   48.7744   33.4796   40.9803 H   0  0  0  0  0  0  0  0  0  0  0  0
   49.9292   33.6602   42.0207 H   0  0  0  0  0  0  0  0  0  0  0  0
  1  2  1  0
  1  4  1  0
  3 10  1  0
  3  1  1  0
  3  2  1  0
  4  9  1  0
  5  4  2  0
  5  6  1  0
  6  7  2  0
  7  8  1  0
  9  8  2  0
 11 12  1  0
 11 10  1  0
 12 10  1  0
  1 13  1  6
  2 14  1  0
  2 15  1  0
  3 16  1  6
  5 17  1  0
  6 18  1  0
  8 19  1  0
 10 20  1  0
 11 21  1  0
 11 22  1  0
 12 23  1  0
 12 24  1  0
M  ISO  8  13  13  14  13  15  13  16  13  17  14  18  14  19  14  20  13
M  ISO  4  21  13  22  13  23  13  24  13
M  END
>  <minimizedAffinity>  (1) 
-3.82942104

>  <minimizedRMSD>  (1) 
1.4303571

$$$$
