
     RDKit          3D

 23 24  0  0  0  0  0  0  0  0999 V2000
   46.8680   33.6500   43.7160 C   0  0  0  0  0  0  0  0  0  0  0  0
   45.7910   33.6500   44.6020 C   0  0  0  0  0  0  0  0  0  0  0  0
   44.8720   34.7330   44.6010 C   0  0  0  0  0  0  0  0  0  0  0  0
   45.0900   35.7400   43.7230 N   0  0  0  0  0  0  0  0  0  0  0  0
   46.1350   35.7150   42.8890 C   0  0  0  0  0  0  0  0  0  0  0  0
   47.0200   34.6840   42.8790 N   0  0  0  0  0  0  0  0  0  0  0  0
   47.9820   32.7030   43.4040 C   0  0  0  0  0  0  0  0  0  0  0  0
   47.8860   31.2880   43.7730 C   0  0  0  0  0  0  0  0  0  0  0  0
   47.6030   31.5710   42.3790 C   0  0  0  0  0  0  0  0  0  0  0  0
   45.7280   32.5360   45.4400 O   0  0  0  0  0  0  0  0  0  0  0  0
   45.7040   31.3710   47.8140 O   0  0  0  0  0  0  0  0  0  0  0  0
   45.8510   32.6970   47.1380 P   0  0  0  0  0  0  0  0  0  0  0  0
   47.3840   33.2910   47.5290 O   0  0  0  0  0  0  0  0  0  0  0  0
   44.7360   33.7870   47.7810 O   0  0  0  0  0  0  0  0  0  0  0  0
   44.0139   34.7527   45.2890 H   0  0  0  0  0  0  0  0  0  0  0  0
   46.2823   36.5527   42.1914 H   0  0  0  0  0  0  0  0  0  0  0  0
   48.7535   33.4745   43.5441 H   0  0  0  0  0  0  0  0  0  0  0  0
   48.8037   30.7394   44.0316 H   0  0  0  0  0  0  0  0  0  0  0  0
   47.3223   30.7585   44.5552 H   0  0  0  0  0  0  0  0  0  0  0  0
   46.5760   31.4916   41.9929 H   0  0  0  0  0  0  0  0  0  0  0  0
   47.9859   31.2231   41.4082 H   0  0  0  0  0  0  0  0  0  0  0  0
   47.4820   33.3290   48.5134 H   0  0  0  0  0  0  0  0  0  0  0  0
   44.7723   33.7515   48.7697 H   0  0  0  0  0  0  0  0  0  0  0  0
  1  2  2  0
  2 10  1  0
  3  2  1  0
  4  3  2  0
  5  4  1  0
  6  5  2  0
  6  1  1  0
  7  1  1  0
  7  8  1  0
  9  7  1  0
  9  8  1  0
 10 12  1  0
 12 13  1  0
 12 14  1  0
 12 11  2  0
  3 15  1  0
  5 16  1  0
  7 17  1  0
  8 18  1  0
  8 19  1  0
  9 20  1  0
  9 21  1  0
 13 22  1  0
 14 23  1  0
M  ISO  8  15  14  16  14  17  13  18  13  19  13  20  13  21  13  22   3
M  ISO  1  23   3
M  END
>  <minimizedAffinity>  (1) 
-4.28682613

>  <minimizedRMSD>  (1) 
4.6224947

$$$$
