
     RDKit          3D

 41 44  0  0  1  0  0  0  0  0999 V2000
   47.9180   35.1220   41.9820 C   0  0  0  0  0  0  0  0  0  0  0  0
   48.3180   34.2150   40.9300 C   0  0  0  0  0  0  0  0  0  0  0  0
   47.8110   34.3100   39.6530 C   0  0  0  0  0  0  0  0  0  0  0  0
   48.1750   33.4360   38.6210 C   0  0  0  0  0  0  0  0  0  0  0  0
   49.0740   32.4720   38.9660 N   0  0  0  0  0  0  0  0  0  0  0  0
   49.5600   32.3900   40.2140 C   0  0  0  0  0  0  0  0  0  0  0  0
   49.1890   33.2450   41.1750 N   0  0  0  0  0  0  0  0  0  0  0  0
   50.5280   31.3120   40.6020 C   0  0  2  0  0  0  0  0  0  0  0  0
   51.1720   31.3820   41.9500 C   0  0  0  0  0  0  0  0  0  0  0  0
   51.9620   31.7030   40.6720 C   0  0  1  0  0  0  0  0  0  0  0  0
   52.9500   30.6950   40.1660 C   0  0  0  0  0  0  0  0  0  0  0  0
   52.6290   29.9290   38.9350 C   0  0  0  0  0  0  0  0  0  0  0  0
   53.7970   30.8980   38.9880 C   0  0  0  0  0  0  0  0  0  0  0  0
   46.4670   34.9430   42.2920 C   0  0  0  0  0  0  0  0  0  0  0  0
   44.5470   36.4160   44.0380 Cl  0  0  0  0  0  0  0  0  0  0  0  0
   45.3690   34.9780   44.5510 C   0  0  0  0  0  0  0  0  0  0  0  0
   46.2310   34.3830   43.6610 C   0  0  0  0  0  0  0  0  0  0  0  0
   46.8890   33.2380   44.0630 C   0  0  0  0  0  0  0  0  0  0  0  0
   46.6850   32.7080   45.3220 C   0  0  0  0  0  0  0  0  0  0  0  0
   45.8090   33.3190   46.2160 C   0  0  0  0  0  0  0  0  0  0  0  0
   45.1520   34.4690   45.8040 C   0  0  0  0  0  0  0  0  0  0  0  0
   44.2570   35.1490   46.6310 O   0  0  0  0  0  0  0  0  0  0  0  0
   48.0951   36.1576   41.6561 H   0  0  0  0  0  0  0  0  0  0  0  0
   48.5078   34.9072   42.8854 H   0  0  0  0  0  0  0  0  0  0  0  0
   47.0872   35.1087   39.4336 H   0  0  0  0  0  0  0  0  0  0  0  0
   47.7643   33.5217   37.6042 H   0  0  0  0  0  0  0  0  0  0  0  0
   49.9587   30.5303   40.0777 H   0  0  0  0  0  0  0  0  0  0  0  0
   50.9028   32.1860   42.6508 H   0  0  0  0  0  0  0  0  0  0  0  0
   51.2965   30.6917   42.7973 H   0  0  0  0  0  0  0  0  0  0  0  0
   52.5722   32.5554   40.3387 H   0  0  0  0  0  0  0  0  0  0  0  0
   53.1899   30.4567   41.2127 H   0  0  0  0  0  0  0  0  0  0  0  0
   51.7317   30.1739   38.3478 H   0  0  0  0  0  0  0  0  0  0  0  0
   52.4982   28.8669   38.6803 H   0  0  0  0  0  0  0  0  0  0  0  0
   54.8291   30.5177   38.9794 H   0  0  0  0  0  0  0  0  0  0  0  0
   54.1146   31.7695   38.3968 H   0  0  0  0  0  0  0  0  0  0  0  0
   45.9693   35.9214   42.2219 H   0  0  0  0  0  0  0  0  0  0  0  0
   46.0591   34.2248   41.5654 H   0  0  0  0  0  0  0  0  0  0  0  0
   47.5852   32.7410   43.3713 H   0  0  0  0  0  0  0  0  0  0  0  0
   47.2195   31.7945   45.6216 H   0  0  0  0  0  0  0  0  0  0  0  0
   45.6430   32.9015   47.2200 H   0  0  0  0  0  0  0  0  0  0  0  0
   44.0733   34.8128   47.5439 H   0  0  0  0  0  0  0  0  0  0  0  0
  1 14  1  0
  2  7  1  0
  2  1  1  0
  3  2  2  0
  4  5  2  0
  4  3  1  0
  5  6  1  0
  6  8  1  0
  6  7  2  0
  8 10  1  0
  8  9  1  0
 10  9  1  0
 11 10  1  0
 12 13  1  0
 12 11  1  0
 13 11  1  0
 14 17  1  0
 15 16  1  0
 16 21  2  0
 17 18  2  0
 17 16  1  0
 18 19  1  0
 19 20  2  0
 21 20  1  0
 21 22  1  0
  1 23  1  0
  1 24  1  0
  3 25  1  0
  4 26  1  0
  8 27  1  6
  9 28  1  0
  9 29  1  0
 10 30  1  1
 11 31  1  0
 12 32  1  0
 12 33  1  0
 13 34  1  0
 13 35  1  0
 14 36  1  0
 14 37  1  0
 18 38  1  0
 19 39  1  0
 20 40  1  0
 22 41  1  0
M  ISO  8  23   8  24   8  25  14  26  14  27  13  28  13  29  13  30  13
M  ISO  8  31  13  32  13  33  13  34  13  35  13  36   8  37   8  38  14
M  ISO  3  39  14  40  14  41   3
M  END
>  <minimizedAffinity>  (1) 
-5.70608711

>  <minimizedRMSD>  (1) 
0.647546828

$$$$
