
     RDKit          3D

 27 29  0  0  0  0  0  0  0  0999 V2000
   44.8840   33.1790   41.1160 Cl  0  0  0  0  0  0  0  0  0  0  0  0
   46.4040   34.0240   40.9520 C   0  0  0  0  0  0  0  0  0  0  0  0
   46.9040   34.7680   41.9770 C   0  0  0  0  0  0  0  0  0  0  0  0
   48.1140   35.4510   41.8720 C   0  0  0  0  0  0  0  0  0  0  0  0
   48.7830   35.3350   40.6740 C   0  0  0  0  0  0  0  0  0  0  0  0
   48.2840   34.5900   39.6450 C   0  0  0  0  0  0  0  0  0  0  0  0
   47.1050   33.9310   39.7640 C   0  0  0  0  0  0  0  0  0  0  0  0
   45.6140   34.0090   45.3520 C   0  0  0  0  0  0  0  0  0  0  0  0
   44.7040   35.0520   45.5740 C   0  0  0  0  0  0  0  0  0  0  0  0
   44.5420   36.0070   44.5640 C   0  0  0  0  0  0  0  0  0  0  0  0
   45.2660   35.8820   43.4240 N   0  0  0  0  0  0  0  0  0  0  0  0
   46.1430   34.8550   43.2370 C   0  0  0  0  0  0  0  0  0  0  0  0
   46.3020   33.9380   44.2030 N   0  0  0  0  0  0  0  0  0  0  0  0
   46.5230   33.1070   38.6680 C   0  0  0  0  0  0  0  0  0  0  0  0
   46.8270   33.4230   37.2540 C   0  0  0  0  0  0  0  0  0  0  0  0
   47.3880   32.1750   37.8970 C   0  0  0  0  0  0  0  0  0  0  0  0
   48.5138   36.0513   42.7025 H   0  0  0  0  0  0  0  0  0  0  0  0
   49.7432   35.8555   40.5431 H   0  0  0  0  0  0  0  0  0  0  0  0
   48.8480   34.5231   38.7030 H   0  0  0  0  0  0  0  0  0  0  0  0
   45.7650   33.2426   46.1265 H   0  0  0  0  0  0  0  0  0  0  0  0
   44.1349   35.1177   46.5130 H   0  0  0  0  0  0  0  0  0  0  0  0
   43.8400   36.8441   44.6924 H   0  0  0  0  0  0  0  0  0  0  0  0
   45.5955   32.9968   39.2491 H   0  0  0  0  0  0  0  0  0  0  0  0
   47.4929   34.2632   37.0079 H   0  0  0  0  0  0  0  0  0  0  0  0
   46.2285   33.6365   36.3561 H   0  0  0  0  0  0  0  0  0  0  0  0
   47.0093   31.1847   37.6040 H   0  0  0  0  0  0  0  0  0  0  0  0
   48.3926   31.7475   38.0312 H   0  0  0  0  0  0  0  0  0  0  0  0
  2  1  1  0
  2  3  2  0
  3 12  1  0
  4  3  1  0
  5  4  2  0
  6  7  2  0
  6  5  1  0
  7  2  1  0
  8  9  2  0
 10  9  1  0
 11 10  2  0
 12 11  1  0
 12 13  2  0
 13  8  1  0
 14  7  1  0
 15 16  1  0
 15 14  1  0
 16 14  1  0
  4 17  1  0
  5 18  1  0
  6 19  1  0
  8 20  1  0
  9 21  1  0
 10 22  1  0
 14 23  1  0
 15 24  1  0
 15 25  1  0
 16 26  1  0
 16 27  1  0
M  ISO  8  17  14  18  14  19  14  20  14  21  14  22  14  23  13  24  13
M  ISO  3  25  13  26  13  27  13
M  END
>  <minimizedAffinity>  (1) 
-5.27669239

>  <minimizedRMSD>  (1) 
0.822659075

$$$$
