
     RDKit          3D

 24 26  0  0  0  0  0  0  0  0999 V2000
   44.9330   34.2710   43.9660 C   0  0  0  0  0  0  0  0  0  0  0  0
   45.5370   34.7370   42.7720 C   0  0  0  0  0  0  0  0  0  0  0  0
   46.8970   34.4470   42.6560 C   0  0  0  0  0  0  0  0  0  0  0  0
   47.5720   33.7560   43.6460 N   0  0  0  0  0  0  0  0  0  0  0  0
   46.9360   33.3410   44.7550 C   0  0  0  0  0  0  0  0  0  0  0  0
   45.6270   33.6010   44.9060 N   0  0  0  0  0  0  0  0  0  0  0  0
   47.5720   34.8450   41.3640 C   0  0  0  0  0  0  0  0  0  0  0  0
   48.8380   35.6680   41.6350 C   0  0  0  0  0  0  0  0  0  0  0  0
   48.8300   34.2200   41.0460 C   0  0  0  0  0  0  0  0  0  0  0  0
   44.8220   35.4710   41.7190 C   0  0  0  0  0  0  0  0  0  0  0  0
   44.0560   34.5790   40.7640 C   0  0  0  0  0  0  0  0  0  0  0  0
   43.3390   35.5230   41.6920 C   0  0  0  0  0  0  0  0  0  0  0  0
   43.8624   34.4627   44.1306 H   0  0  0  0  0  0  0  0  0  0  0  0
   47.4844   32.7916   45.5344 H   0  0  0  0  0  0  0  0  0  0  0  0
   46.6541   34.9630   40.7695 H   0  0  0  0  0  0  0  0  0  0  0  0
   49.0938   36.5309   41.0025 H   0  0  0  0  0  0  0  0  0  0  0  0
   49.2928   36.1840   42.4934 H   0  0  0  0  0  0  0  0  0  0  0  0
   49.1925   33.3798   41.6564 H   0  0  0  0  0  0  0  0  0  0  0  0
   49.2518   33.7531   40.1437 H   0  0  0  0  0  0  0  0  0  0  0  0
   45.5857   36.2610   41.6680 H   0  0  0  0  0  0  0  0  0  0  0  0
   44.0113   33.4935   40.9364 H   0  0  0  0  0  0  0  0  0  0  0  0
   44.0646   34.4018   39.6784 H   0  0  0  0  0  0  0  0  0  0  0  0
   42.8295   36.4090   41.2853 H   0  0  0  0  0  0  0  0  0  0  0  0
   42.5481   35.4110   42.4482 H   0  0  0  0  0  0  0  0  0  0  0  0
  1  6  2  0
  2  1  1  0
  3  2  2  0
  3  4  1  0
  4  5  2  0
  5  6  1  0
  7  8  1  0
  7  3  1  0
  9  7  1  0
  9  8  1  0
 10  2  1  0
 11 12  1  0
 11 10  1  0
 12 10  1  0
  1 13  1  0
  5 14  1  0
  7 15  1  0
  8 16  1  0
  8 17  1  0
  9 18  1  0
  9 19  1  0
 10 20  1  0
 11 21  1  0
 11 22  1  0
 12 23  1  0
 12 24  1  0
M  ISO  8  13  14  14  14  15  13  16  13  17  13  18  13  19  13  20  13
M  ISO  4  21  13  22  13  23  13  24  13
M  END
>  <minimizedAffinity>  (1) 
-3.86634541

>  <minimizedRMSD>  (1) 
1.33298278

$$$$
