
     RDKit          3D

 31 33  0  0  1  0  0  0  0  0999 V2000
   44.5580   35.7910   44.9700 C   0  0  0  0  0  0  0  0  0  0  0  0
   44.7900   35.5520   43.6190 C   0  0  0  0  0  0  0  0  0  0  0  0
   45.3350   34.3440   43.2570 C   0  0  0  0  0  0  0  0  0  0  0  0
   45.6170   33.4490   44.2460 N   0  0  0  0  0  0  0  0  0  0  0  0
   45.3830   33.7060   45.5360 C   0  0  0  0  0  0  0  0  0  0  0  0
   44.8540   34.8740   45.8990 N   0  0  0  0  0  0  0  0  0  0  0  0
   45.7070   32.7160   46.4920 N   0  0  0  0  0  0  0  0  0  0  0  0
   45.2370   32.6900   47.8710 C   0  0  0  0  0  0  0  0  0  0  0  0
   46.4640   32.1890   48.6110 C   0  0  0  0  0  0  0  0  0  0  0  0
   47.4320   31.6920   47.5720 C   0  0  0  0  0  0  0  0  0  0  0  0
   46.5380   31.5450   46.3600 C   0  0  2  0  0  0  0  0  0  0  0  0
   44.4390   36.5970   42.6980 N   0  0  0  0  0  0  0  0  0  0  0  0
   47.2680   31.4370   45.0670 C   0  0  0  0  0  0  0  0  0  0  0  0
   48.1410   30.2500   44.7750 C   0  0  0  0  0  0  0  0  0  0  0  0
   46.8260   30.4270   44.0990 C   0  0  0  0  0  0  0  0  0  0  0  0
   44.1228   36.7523   45.2806 H   0  0  0  0  0  0  0  0  0  0  0  0
   45.5375   34.1063   42.2022 H   0  0  0  0  0  0  0  0  0  0  0  0
   44.9456   33.6940   48.2133 H   0  0  0  0  0  0  0  0  0  0  0  0
   44.3418   32.0693   48.0237 H   0  0  0  0  0  0  0  0  0  0  0  0
   46.9174   33.0080   49.1886 H   0  0  0  0  0  0  0  0  0  0  0  0
   46.1975   31.3868   49.3148 H   0  0  0  0  0  0  0  0  0  0  0  0
   48.2349   32.4218   47.3911 H   0  0  0  0  0  0  0  0  0  0  0  0
   47.9530   30.7657   47.8559 H   0  0  0  0  0  0  0  0  0  0  0  0
   45.9699   30.6034   46.3330 H   0  0  0  0  0  0  0  0  0  0  0  0
   44.5923   36.4662   41.6879 H   0  0  0  0  0  0  0  0  0  0  0  0
   44.0340   37.4771   43.0477 H   0  0  0  0  0  0  0  0  0  0  0  0
   47.4308   32.5248   45.0559 H   0  0  0  0  0  0  0  0  0  0  0  0
   49.0757   30.3763   44.2090 H   0  0  0  0  0  0  0  0  0  0  0  0
   48.6160   29.4586   45.3734 H   0  0  0  0  0  0  0  0  0  0  0  0
   46.7905   30.6746   43.0278 H   0  0  0  0  0  0  0  0  0  0  0  0
   45.9250   29.8056   43.9896 H   0  0  0  0  0  0  0  0  0  0  0  0
  1  6  2  0
  2  1  1  0
  3  2  2  0
  3  4  1  0
  4  5  2  0
  5  6  1  0
  5  7  1  0
  7  8  1  0
  8  9  1  0
 10  9  1  0
 11  7  1  0
 11 10  1  0
 12  2  1  0
 13 11  1  0
 14 13  1  0
 15 14  1  0
 15 13  1  0
  1 16  1  0
  3 17  1  0
  8 18  1  0
  8 19  1  0
  9 20  1  0
  9 21  1  0
 10 22  1  0
 10 23  1  0
 11 24  1  1
 12 25  1  0
 12 26  1  0
 13 27  1  0
 14 28  1  0
 14 29  1  0
 15 30  1  0
 15 31  1  0
M  ISO  8  16  14  17  14  18  13  19  13  20  13  21  13  22  13  23  13
M  ISO  6  24  13  27  13  28  13  29  13  30  13  31  13
M  END
>  <minimizedAffinity>  (1) 
-4.58096981

>  <minimizedRMSD>  (1) 
0.702387512

$$$$
