
     RDKit          3D

 24 26  0  0  0  0  0  0  0  0999 V2000
   44.5775   35.9111   44.3107 C   0  0  0  0  0  0  0  0  0  0  0  0
   45.3361   35.9115   43.1135 C   0  0  0  0  0  0  0  0  0  0  0  0
   46.3061   34.9111   43.0395 C   0  0  0  0  0  0  0  0  0  0  0  0
   46.4872   34.0064   44.0692 N   0  0  0  0  0  0  0  0  0  0  0  0
   45.7305   34.0618   45.1790 C   0  0  0  0  0  0  0  0  0  0  0  0
   44.7858   35.0095   45.2913 N   0  0  0  0  0  0  0  0  0  0  0  0
   47.0846   34.8110   41.7476 C   0  0  0  0  0  0  0  0  0  0  0  0
   48.4665   35.4630   41.8868 C   0  0  0  0  0  0  0  0  0  0  0  0
   48.2227   33.9285   41.7203 C   0  0  0  0  0  0  0  0  0  0  0  0
   43.8235   36.6598   44.4130 H   0  0  0  0  0  0  0  0  0  0  0  0
   46.0109   33.2808   45.8697 H   0  0  0  0  0  0  0  0  0  0  0  0
   46.5636   35.3064   40.9149 H   0  0  0  0  0  0  0  0  0  0  0  0
   48.9022   35.9798   41.0246 H   0  0  0  0  0  0  0  0  0  0  0  0
   48.7709   35.7943   42.8786 H   0  0  0  0  0  0  0  0  0  0  0  0
   48.5684   33.5450   40.7204 H   0  0  0  0  0  0  0  0  0  0  0  0
   48.5709   33.3334   42.5728 H   0  0  0  0  0  0  0  0  0  0  0  0
   45.1445   36.8710   42.0183 C   0  0  0  0  0  0  0  0  0  0  0  0
   44.9921   38.3053   42.4809 C   0  0  0  0  0  0  0  0  0  0  0  0
   46.1891   37.8678   41.6793 C   0  0  0  0  0  0  0  0  0  0  0  0
   44.5210   36.5083   41.2022 H   0  0  0  0  0  0  0  0  0  0  0  0
   45.1760   38.5451   43.5473 H   0  0  0  0  0  0  0  0  0  0  0  0
   44.1827   38.8515   41.9728 H   0  0  0  0  0  0  0  0  0  0  0  0
   46.2525   38.1994   40.6326 H   0  0  0  0  0  0  0  0  0  0  0  0
   47.1709   37.7650   42.1659 H   0  0  0  0  0  0  0  0  0  0  0  0
  1  6  2  0
  2  1  1  0
  3  2  2  0
  3  4  1  0
  4  5  2  0
  5  6  1  0
  7  8  1  0
  7  9  1  0
  7  3  1  0
  8  9  1  0
  1 10  1  0
  5 11  1  0
  7 12  1  0
  8 13  1  0
  8 14  1  0
  9 15  1  0
  9 16  1  0
 17 18  1  0
 18 19  1  0
 19 17  1  0
 17 20  1  0
 18 21  1  0
 18 22  1  0
 19 23  1  0
 19 24  1  0
  2 17  1  0
M  ISO  7  10  14  11  14  12  13  13  13  14  13  15  13  16  13
M  END
>  <DihAtoms>  (1) 
0,1,16,17

>  <DihDeg>  (1) 
-90.22856887760493

$$$$
