
     RDKit          3D

 25 26  0  0  0  0  0  0  0  0999 V2000
   44.9230   35.0790   44.1850 C   0  0  0  0  0  0  0  0  0  0  0  0
   45.8460   35.2480   43.1430 C   0  0  0  0  0  0  0  0  0  0  0  0
   47.0150   34.4950   43.1530 C   0  0  0  0  0  0  0  0  0  0  0  0
   47.1760   33.6460   44.1840 N   0  0  0  0  0  0  0  0  0  0  0  0
   46.2860   33.4940   45.1750 C   0  0  0  0  0  0  0  0  0  0  0  0
   45.1460   34.2190   45.1760 N   0  0  0  0  0  0  0  0  0  0  0  0
   43.7210   35.8490   44.1730 N   0  0  0  0  0  0  0  0  0  0  0  0
   47.9950   34.6740   42.0450 C   0  0  0  0  0  0  0  0  0  0  0  0
   49.3770   34.6490   42.6290 C   0  0  0  0  0  0  0  0  0  0  0  0
   50.1670   33.5080   41.9880 C   0  0  0  0  0  0  0  0  0  0  0  0
   49.8320   32.1230   42.4330 C   0  0  0  0  0  0  0  0  0  0  0  0
   49.5380   32.6040   41.0210 C   0  0  0  0  0  0  0  0  0  0  0  0
   45.6487   35.9640   42.3316 H   0  0  0  0  0  0  0  0  0  0  0  0
   46.4839   32.7791   45.9872 H   0  0  0  0  0  0  0  0  0  0  0  0
   43.5441   36.5158   43.4081 H   0  0  0  0  0  0  0  0  0  0  0  0
   43.0306   35.7378   44.9292 H   0  0  0  0  0  0  0  0  0  0  0  0
   47.8197   35.6383   41.5457 H   0  0  0  0  0  0  0  0  0  0  0  0
   47.8818   33.8678   41.3053 H   0  0  0  0  0  0  0  0  0  0  0  0
   49.8805   35.6058   42.4263 H   0  0  0  0  0  0  0  0  0  0  0  0
   49.3184   34.4956   43.7167 H   0  0  0  0  0  0  0  0  0  0  0  0
   51.0750   34.1273   41.9433 H   0  0  0  0  0  0  0  0  0  0  0  0
   50.6316   31.3897   42.6142 H   0  0  0  0  0  0  0  0  0  0  0  0
   49.2477   31.6778   43.2518 H   0  0  0  0  0  0  0  0  0  0  0  0
   48.4989   32.7750   40.7033 H   0  0  0  0  0  0  0  0  0  0  0  0
   49.7885   32.2494   40.0103 H   0  0  0  0  0  0  0  0  0  0  0  0
  1  6  2  0
  2  3  2  0
  2  1  1  0
  3  4  1  0
  4  5  2  0
  5  6  1  0
  7  1  1  0
  8  9  1  0
  8  3  1  0
 10 11  1  0
 10  9  1  0
 12 10  1  0
 12 11  1  0
  2 13  1  0
  5 14  1  0
  7 15  1  0
  7 16  1  0
  8 17  1  0
  8 18  1  0
  9 19  1  0
  9 20  1  0
 10 21  1  0
 11 22  1  0
 11 23  1  0
 12 24  1  0
 12 25  1  0
M  ISO  8  13  14  14  14  17   8  18   8  19   8  20   8  21  13  22  13
M  ISO  3  23  13  24  13  25  13
M  END
>  <minimizedAffinity>  (1) 
-4.15025282

>  <minimizedRMSD>  (1) 
2.22457457

$$$$
