
     RDKit          3D

 25 26  0  0  0  0  0  0  0  0999 V2000
   46.1307   35.2825   42.6928 C   0  0  0  0  0  0  0  0  0  0  0  0
   46.6870   34.1807   43.3450 C   0  0  0  0  0  0  0  0  0  0  0  0
   46.2092   33.8285   44.6179 C   0  0  0  0  0  0  0  0  0  0  0  0
   45.2151   34.5941   45.1510 N   0  0  0  0  0  0  0  0  0  0  0  0
   44.6974   35.6576   44.4902 C   0  0  0  0  0  0  0  0  0  0  0  0
   45.1536   35.9928   43.2764 N   0  0  0  0  0  0  0  0  0  0  0  0
   47.7036   33.4701   42.6979 O   0  0  0  0  0  0  0  0  0  0  0  0
   49.5404   35.3540   42.7917 O   0  0  0  0  0  0  0  0  0  0  0  0
   48.9799   34.3063   41.9077 P   0  0  1  0  0  0  0  0  0  0  0  0
   50.2374   33.2590   41.4998 O   0  0  0  0  0  0  0  0  0  0  0  0
   48.4087   35.0338   40.5026 O   0  0  0  0  0  0  0  0  0  0  0  0
   48.0639   34.3705   39.3719 C   0  0  0  0  0  0  0  0  0  0  0  0
   46.9403   33.7590   39.5051 O   0  0  0  0  0  0  0  0  0  0  0  0
   46.4573   35.5955   41.7207 H   0  0  0  0  0  0  0  0  0  0  0  0
   46.6413   32.9835   45.1093 H   0  0  0  0  0  0  0  0  0  0  0  0
   43.9298   36.1140   45.0920 H   0  0  0  0  0  0  0  0  0  0  0  0
   49.8936   32.3137   41.4356 H   0  0  0  0  0  0  0  0  0  0  0  0
   47.4808   33.5756   38.2640 C   0  0  0  0  0  0  0  0  0  0  0  0
   47.4557   32.0385   38.4831 C   0  0  0  0  0  0  0  0  0  0  0  0
   46.2135   32.8425   38.4315 C   0  0  0  0  0  0  0  0  0  0  0  0
   47.7512   33.9512   37.2741 H   0  0  0  0  0  0  0  0  0  0  0  0
   47.8385   31.4716   37.6338 H   0  0  0  0  0  0  0  0  0  0  0  0
   47.8217   31.6806   39.4846 H   0  0  0  0  0  0  0  0  0  0  0  0
   45.6002   32.9278   39.3473 H   0  0  0  0  0  0  0  0  0  0  0  0
   45.6028   32.7243   37.5126 H   0  0  0  0  0  0  0  0  0  0  0  0
  1  6  2  0
  1  2  1  0
  2  3  2  0
  3  4  1  0
  5  4  2  0
  6  5  1  0
  7  2  1  0
  9  7  1  1
  9  8  2  0
 10  9  1  0
 11  9  1  0
 12 13  2  0
 12 11  1  0
  1 14  1  0
  3 15  1  0
  5 16  1  0
 10 17  1  0
 18 19  1  0
 19 20  1  0
 20 18  1  0
 18 21  1  0
 19 22  1  0
 19 23  1  0
 20 24  1  0
 20 25  1  0
 12 18  1  0
M  ISO  4  14  14  15  14  16  14  17   3
M  END
>  <DihAtoms>  (1) 
12,11,17,18

>  <DihDeg>  (1) 
140.88854232221607

$$$$
