
     RDKit          3D

 33 35  0  0  0  0  0  0  0  0999 V2000
   46.0462   34.3281   41.5286 N   0  0  0  0  0  0  0  0  0  0  0  0
   45.1025   34.0931   40.4731 C   0  0  0  0  0  0  0  0  0  0  0  0
   45.6679   33.2669   39.3640 C   0  0  0  0  0  0  0  0  0  0  0  0
   46.9372   33.6833   38.8722 N   0  0  0  0  0  0  0  0  0  0  0  0
   47.8295   34.2159   39.8242 C   0  0  0  0  0  0  0  0  0  0  0  0
   47.4545   34.2186   41.2396 C   0  0  1  0  0  0  0  0  0  0  0  0
   44.5928   36.0495   44.5065 C   0  0  0  0  0  0  0  0  0  0  0  0
   44.9726   35.8430   43.1652 C   0  0  0  0  0  0  0  0  0  0  0  0
   45.6131   34.6615   42.8327 C   0  0  0  0  0  0  0  0  0  0  0  0
   45.8350   33.7586   43.8609 N   0  0  0  0  0  0  0  0  0  0  0  0
   45.4527   34.0026   45.1278 C   0  0  0  0  0  0  0  0  0  0  0  0
   44.8326   35.1451   45.4525 N   0  0  0  0  0  0  0  0  0  0  0  0
   48.1602   35.3029   41.9459 C   0  0  0  0  0  0  0  0  0  0  0  0
   48.9612   36.0830   41.3876 O   0  0  0  0  0  0  0  0  0  0  0  0
   44.6955   35.0280   40.0347 H   0  0  0  0  0  0  0  0  0  0  0  0
   44.2095   33.5416   40.8637 H   0  0  0  0  0  0  0  0  0  0  0  0
   44.9426   33.3109   38.5126 H   0  0  0  0  0  0  0  0  0  0  0  0
   45.7345   32.1982   39.6698 H   0  0  0  0  0  0  0  0  0  0  0  0
   47.3136   32.9208   38.2678 H   0  0  0  0  0  0  0  0  0  0  0  0
   48.0477   35.2784   39.5068 H   0  0  0  0  0  0  0  0  0  0  0  0
   48.8177   33.7090   39.7110 H   0  0  0  0  0  0  0  0  0  0  0  0
   47.7692   33.2238   41.6751 H   0  0  0  0  0  0  0  0  0  0  0  0
   44.1008   36.9804   44.7072 H   0  0  0  0  0  0  0  0  0  0  0  0
   44.8141   36.5204   42.3553 H   0  0  0  0  0  0  0  0  0  0  0  0
   45.6828   33.2143   45.8514 H   0  0  0  0  0  0  0  0  0  0  0  0
   48.8518   36.3822   42.6889 C   0  0  0  0  0  0  0  0  0  0  0  0
   50.0640   35.9578   43.5875 C   0  0  0  0  0  0  0  0  0  0  0  0
   48.8081   36.5002   44.1471 C   0  0  0  0  0  0  0  0  0  0  0  0
   49.1039   37.3078   42.0898 H   0  0  0  0  0  0  0  0  0  0  0  0
   50.9583   36.5736   43.5649 H   0  0  0  0  0  0  0  0  0  0  0  0
   50.2543   34.8617   43.6118 H   0  0  0  0  0  0  0  0  0  0  0  0
   48.8770   37.5557   44.5412 H   0  0  0  0  0  0  0  0  0  0  0  0
   48.2451   35.8356   44.7962 H   0  0  0  0  0  0  0  0  0  0  0  0
  1  9  1  0
  2  1  1  0
  3  2  1  0
  4  3  1  0
  4  5  1  0
  5  6  1  0
  6  1  1  0
  6 13  1  0
  7 12  2  0
  8  7  1  0
  9  8  2  0
  9 10  1  0
 10 11  2  0
 11 12  1  0
 14 13  2  0
  2 15  1  0
  2 16  1  0
  3 17  1  0
  3 18  1  0
  4 19  1  0
  5 20  1  0
  5 21  1  0
  6 22  1  1
  7 23  1  0
  8 24  1  0
 11 25  1  0
 26 27  1  0
 27 28  1  0
 28 26  1  0
 26 29  1  0
 27 30  1  0
 27 31  1  0
 28 32  1  0
 28 33  1  0
 13 26  1  0
M  ISO  8  15  13  16  13  17  13  18  13  19   5  20  13  21  13  22  13
M  ISO  3  23  14  24  14  25  14
M  END
>  <DihAtoms>  (1) 
5,12,25,26

>  <DihDeg>  (1) 
46.97710043347646

$$$$
