
     RDKit          3D

 37 39  0  0  1  0  0  0  0  0999 V2000
   45.2120   35.5100   44.3120 C   0  0  0  0  0  0  0  0  0  0  0  0
   46.1680   34.7890   43.5960 C   0  0  0  0  0  0  0  0  0  0  0  0
   46.7150   33.6240   44.1530 C   0  0  0  0  0  0  0  0  0  0  0  0
   46.2780   33.2640   45.3610 N   0  0  0  0  0  0  0  0  0  0  0  0
   45.3490   33.9700   46.0450 C   0  0  0  0  0  0  0  0  0  0  0  0
   44.8120   35.0910   45.5280 N   0  0  0  0  0  0  0  0  0  0  0  0
   48.6490   33.7920   42.6070 C   0  0  2  0  0  0  0  0  0  0  0  0
   47.7040   32.9220   43.3580 C   0  0  2  0  0  0  0  0  0  0  0  0
   47.1550   32.1430   42.2960 O   0  0  0  0  0  0  0  0  0  0  0  0
   48.2980   31.6930   41.6610 C   0  0  0  0  0  0  0  0  0  0  0  0
   49.3980   32.6880   41.8330 C   0  0  1  0  0  0  0  0  0  0  0  0
   49.4550   34.5720   43.3800 O   0  0  0  0  0  0  0  0  0  0  0  0
   49.8650   33.2280   40.6360 O   0  0  0  0  0  0  0  0  0  0  0  0
   44.6420   36.7630   43.7050 C   0  0  0  0  0  0  0  0  0  0  0  0
   45.3190   39.1730   44.3290 C   0  0  0  0  0  0  0  0  0  0  0  0
   45.4180   39.4340   43.0910 O   0  0  0  0  0  0  0  0  0  0  0  0
   44.9340   37.8390   44.6350 N   0  0  0  0  0  0  0  0  0  0  0  0
   45.5740   40.1510   45.4160 C   0  0  0  0  0  0  0  0  0  0  0  0
   44.5120   41.2260   45.6740 C   0  0  0  0  0  0  0  0  0  0  0  0
   44.7610   40.1430   46.6590 C   0  0  0  0  0  0  0  0  0  0  0  0
   46.4904   35.1319   42.6018 H   0  0  0  0  0  0  0  0  0  0  0  0
   45.0276   33.6232   47.0382 H   0  0  0  0  0  0  0  0  0  0  0  0
   48.1745   34.5731   41.9949 H   0  0  0  0  0  0  0  0  0  0  0  0
   48.1909   32.3322   44.1486 H   0  0  0  0  0  0  0  0  0  0  0  0
   48.0913   31.5590   40.5889 H   0  0  0  0  0  0  0  0  0  0  0  0
   48.6045   30.7332   42.1025 H   0  0  0  0  0  0  0  0  0  0  0  0
   50.2885   32.2495   42.3070 H   0  0  0  0  0  0  0  0  0  0  0  0
   49.2696   34.3926   44.3358 H   0  0  0  0  0  0  0  0  0  0  0  0
   50.4999   33.9622   40.8307 H   0  0  0  0  0  0  0  0  0  0  0  0
   45.1140   36.9629   42.7317 H   0  0  0  0  0  0  0  0  0  0  0  0
   43.5596   36.6665   43.5342 H   0  0  0  0  0  0  0  0  0  0  0  0
   44.8525   37.6085   45.6356 H   0  0  0  0  0  0  0  0  0  0  0  0
   46.6537   40.1227   45.2074 H   0  0  0  0  0  0  0  0  0  0  0  0
   44.8146   42.2592   45.8999 H   0  0  0  0  0  0  0  0  0  0  0  0
   43.6335   41.6061   45.1321 H   0  0  0  0  0  0  0  0  0  0  0  0
   44.0038   39.3592   46.8087 H   0  0  0  0  0  0  0  0  0  0  0  0
   45.0037   40.1256   47.7317 H   0  0  0  0  0  0  0  0  0  0  0  0
  1  6  2  0
  2  3  2  0
  2  1  1  0
  3  4  1  0
  4  5  2  0
  6  5  1  0
  7  8  1  0
  7 12  1  0
  8  3  1  0
  9  8  1  0
 10 11  1  0
 10  9  1  0
 11  7  1  0
 13 11  1  0
 14  1  1  0
 14 17  1  0
 15 17  1  0
 15 18  1  0
 16 15  2  0
 18 19  1  0
 18 20  1  0
 19 20  1  0
  2 21  1  0
  5 22  1  0
  7 23  1  6
  8 24  1  1
 10 25  1  0
 10 26  1  0
 11 27  1  1
 12 28  1  0
 13 29  1  0
 14 30  1  0
 14 31  1  0
 17 32  1  0
 18 33  1  0
 19 34  1  0
 19 35  1  0
 20 36  1  0
 20 37  1  0
M  ISO  8  21  14  22  14  23  13  24  13  25  13  26  13  27  13  28   3
M  ISO  8  29   3  30   8  31   8  33  13  34  13  35  13  36  13  37  13
M  END
>  <minimizedAffinity>  (1) 
-5.19121933

>  <minimizedRMSD>  (1) 
0.66133374

$$$$
