
     RDKit          3D

 31 32  0  0  0  0  0  0  0  0999 V2000
   44.7672   34.4951   40.4559 C   0  0  0  0  0  0  0  0  0  0  0  0
   45.9210   34.1241   40.9996 N   0  0  0  0  0  0  0  0  0  0  0  0
   46.8348   33.1331   40.5594 C   0  0  0  0  0  0  0  0  0  0  0  0
   47.9058   34.0621   39.9378 C   0  0  0  0  0  0  0  0  0  0  0  0
   48.5094   34.9744   40.9110 C   0  0  0  0  0  0  0  0  0  0  0  0
   47.7589   35.3085   42.1203 C   0  0  0  0  0  0  0  0  0  0  0  0
   46.3285   34.8728   42.1949 C   0  0  0  0  0  0  0  0  0  0  0  0
   45.3015   35.2911   43.5739 S   0  0  0  0  0  0  0  0  0  0  0  0
   43.6415   33.5547   40.7649 C   0  0  0  0  0  0  0  0  0  0  0  0
   42.3761   34.3010   40.5439 C   0  0  0  0  0  0  0  0  0  0  0  0
   41.6309   34.1249   39.3946 C   0  0  0  0  0  0  0  0  0  0  0  0
   40.4542   34.8782   39.2569 C   0  0  0  0  0  0  0  0  0  0  0  0
   40.1154   35.7366   40.2606 N   0  0  0  0  0  0  0  0  0  0  0  0
   40.8701   35.8706   41.3530 C   0  0  0  0  0  0  0  0  0  0  0  0
   41.9887   35.1534   41.4821 N   0  0  0  0  0  0  0  0  0  0  0  0
   44.3605   35.5337   40.6860 H   0  0  0  0  0  0  0  0  0  0  0  0
   44.8453   34.5442   39.3433 H   0  0  0  0  0  0  0  0  0  0  0  0
   47.2754   32.4499   41.2609 H   0  0  0  0  0  0  0  0  0  0  0  0
   46.4324   32.5439   39.7071 H   0  0  0  0  0  0  0  0  0  0  0  0
   48.6734   33.3804   39.4701 H   0  0  0  0  0  0  0  0  0  0  0  0
   47.4214   34.6345   39.1200 H   0  0  0  0  0  0  0  0  0  0  0  0
   49.5017   34.5505   41.2373 H   0  0  0  0  0  0  0  0  0  0  0  0
   48.7959   35.9282   40.3831 H   0  0  0  0  0  0  0  0  0  0  0  0
   48.1082   35.8505   42.9576 H   0  0  0  0  0  0  0  0  0  0  0  0
   45.1803   36.6985   43.6805 H   0  0  0  0  0  0  0  0  0  0  0  0
   43.6863   33.2456   41.8377 H   0  0  0  0  0  0  0  0  0  0  0  0
   43.6627   32.6284   40.1429 H   0  0  0  0  0  0  0  0  0  0  0  0
   41.9335   33.4339   38.6213 H   0  0  0  0  0  0  0  0  0  0  0  0
   39.8326   34.7836   38.3830 H   0  0  0  0  0  0  0  0  0  0  0  0
   40.3411   37.0216   42.6128 S   0  0  0  0  0  0  0  0  0  0  0  0
   39.4522   37.9947   42.1172 H   0  0  0  0  0  0  0  0  0  0  0  0
  1  9  1  0
  1  2  1  0
  2  7  1  0
  3  2  1  0
  4  3  1  0
  4  5  1  0
  5  6  1  0
  6  7  2  0
  7  8  1  0
 10  9  1  0
 10 15  1  0
 11 10  2  0
 12 11  1  0
 12 13  2  0
 13 14  1  0
 14 15  2  0
  1 16  1  0
  1 17  1  0
  3 18  1  0
  3 19  1  0
  4 20  1  0
  4 21  1  0
  5 22  1  0
  5 23  1  0
  6 24  1  0
  8 25  1  0
  9 26  1  0
  9 27  1  0
 11 28  1  0
 12 29  1  0
 30 31  1  0
 14 30  1  0
M  ISO  8  16   8  17   8  18  13  19  13  20  13  21  13  22  13  23  13
M  ISO  7  24  13  25  11  26   8  27   8  28  14  29  14  31  11
M  END
>  <DihAtoms>  (1) 
12,13,29,30

>  <DihDeg>  (1) 
158.82401634024228

$$$$
