
     RDKit          3D

 18 19  0  0  0  0  0  0  0  0999 V2000
   44.5837   35.7864   44.7275 C   0  0  0  0  0  0  0  0  0  0  0  0
   45.2757   35.5687   43.5068 C   0  0  0  0  0  0  0  0  0  0  0  0
   46.1406   34.4619   43.4269 C   0  0  0  0  0  0  0  0  0  0  0  0
   46.2592   33.6645   44.5342 N   0  0  0  0  0  0  0  0  0  0  0  0
   45.5735   33.9233   45.6692 C   0  0  0  0  0  0  0  0  0  0  0  0
   44.7326   34.9850   45.7718 N   0  0  0  0  0  0  0  0  0  0  0  0
   45.8671   32.9285   46.7094 C   0  0  0  0  0  0  0  0  0  0  0  0
   45.1219   32.7882   47.9046 C   0  0  0  0  0  0  0  0  0  0  0  0
   45.4963   31.8301   48.7816 C   0  0  0  0  0  0  0  0  0  0  0  0
   46.6122   31.0027   48.4825 C   0  0  0  0  0  0  0  0  0  0  0  0
   47.1483   31.6398   46.8525 S   0  0  0  0  0  0  0  0  0  0  0  0
   43.9187   36.6262   44.8081 H   0  0  0  0  0  0  0  0  0  0  0  0
   45.1572   36.2208   42.6507 H   0  0  0  0  0  0  0  0  0  0  0  0
   46.6993   34.2309   42.5369 H   0  0  0  0  0  0  0  0  0  0  0  0
   44.2781   33.4340   48.1020 H   0  0  0  0  0  0  0  0  0  0  0  0
   45.0331   31.6167   49.7049 H   0  0  0  0  0  0  0  0  0  0  0  0
   47.3509   29.6787   49.3994 S   0  0  0  0  0  0  0  0  0  0  0  0
   48.2367   30.1734   50.4016 H   0  0  0  0  0  0  0  0  0  0  0  0
  1  6  2  0
  2  1  1  0
  3  2  2  0
  3  4  1  0
  4  5  2  0
  5  6  1  0
  5  7  1  0
  7 11  1  0
  7  8  2  0
  8  9  1  0
 10  9  2  0
 11 10  1  0
  1 12  1  0
  2 13  1  0
  3 14  1  0
  8 15  1  0
  9 16  1  0
 17 18  1  0
 10 17  1  0
M  ISO  6  12  14  13  14  14  14  15  14  16  14  18  11
M  END
>  <DihAtoms>  (1) 
8,9,16,17

>  <DihDeg>  (1) 
-111.8761089962643

$$$$
