
     RDKit          3D

 34 36  0  0  1  0  0  0  0  0999 V2000
   47.7920   34.4660   41.1300 C   0  0  1  0  0  0  0  0  0  0  0  0
   48.5520   35.7460   41.6670 C   0  0  0  0  0  0  0  0  0  0  0  0
   48.7890   34.4390   42.2280 C   0  0  2  0  0  0  0  0  0  0  0  0
   46.3380   34.5220   41.4580 C   0  0  0  0  0  0  0  0  0  0  0  0
   45.5480   34.2930   40.5480 O   0  0  0  0  0  0  0  0  0  0  0  0
   45.2440   35.9860   43.0930 C   0  0  0  0  0  0  0  0  0  0  0  0
   45.7990   34.8160   42.7380 C   0  0  0  0  0  0  0  0  0  0  0  0
   45.8370   33.8020   43.7510 C   0  0  0  0  0  0  0  0  0  0  0  0
   45.3380   34.0330   44.9870 N   0  0  0  0  0  0  0  0  0  0  0  0
   44.7900   35.2400   45.2820 C   0  0  0  0  0  0  0  0  0  0  0  0
   44.7490   36.1770   44.3600 N   0  0  0  0  0  0  0  0  0  0  0  0
   50.0460   33.9250   41.9680 O   0  0  0  0  0  0  0  0  0  0  0  0
   48.9210   32.0410   43.3290 O   0  0  0  0  0  0  0  0  0  0  0  0
   49.9980   32.2650   42.2770 P   0  0  2  0  0  0  0  0  0  0  0  0
   51.4390   31.5800   42.7080 O   0  0  0  0  0  0  0  0  0  0  0  0
   49.3430   31.5050   40.8560 O   0  0  0  0  0  0  0  0  0  0  0  0
   49.8950   31.6140   39.6010 C   0  0  0  0  0  0  0  0  0  0  0  0
   49.2730   31.9020   38.4040 C   0  0  0  0  0  0  0  0  0  0  0  0
   50.0150   31.9680   37.2310 C   0  0  0  0  0  0  0  0  0  0  0  0
   51.3640   31.7450   37.2800 N   0  0  0  0  0  0  0  0  0  0  0  0
   51.9470   31.4660   38.4660 C   0  0  0  0  0  0  0  0  0  0  0  0
   51.2410   31.3970   39.6190 N   0  0  0  0  0  0  0  0  0  0  0  0
   53.7270   31.1850   38.4460 S   0  0  0  0  0  0  0  0  0  0  0  0
   47.6661   33.8787   40.2085 H   0  0  0  0  0  0  0  0  0  0  0  0
   49.3223   36.2323   41.0504 H   0  0  0  0  0  0  0  0  0  0  0  0
   48.2552   36.7290   42.0614 H   0  0  0  0  0  0  0  0  0  0  0  0
   48.7332   34.0138   43.2410 H   0  0  0  0  0  0  0  0  0  0  0  0
   45.1849   36.8030   42.3589 H   0  0  0  0  0  0  0  0  0  0  0  0
   46.2786   32.8214   43.5196 H   0  0  0  0  0  0  0  0  0  0  0  0
   44.3830   35.4328   46.2856 H   0  0  0  0  0  0  0  0  0  0  0  0
   51.5069   31.5477   43.6951 H   0  0  0  0  0  0  0  0  0  0  0  0
   48.1878   32.0797   38.3780 H   0  0  0  0  0  0  0  0  0  0  0  0
   49.5234   32.1969   36.2740 H   0  0  0  0  0  0  0  0  0  0  0  0
   54.1922   31.1116   39.7325 H   0  0  0  0  0  0  0  0  0  0  0  0
  1  4  1  0
  1  2  1  0
  1  3  1  0
  2  3  1  0
  4  7  1  0
  5  4  2  0
  6 11  2  0
  7  6  1  0
  7  8  2  0
  8  9  1  0
  9 10  2  0
 11 10  1  0
 12  3  1  0
 12 14  1  0
 14 15  1  0
 14 13  2  0
 16 14  1  0
 17 22  1  0
 17 16  1  0
 18 17  2  0
 19 20  2  0
 19 18  1  0
 20 21  1  0
 21 22  2  0
 23 21  1  0
  1 24  1  6
  2 25  1  0
  2 26  1  0
  3 27  1  1
  6 28  1  0
  8 29  1  0
 10 30  1  0
 15 31  1  0
 18 32  1  0
 19 33  1  0
 23 34  1  0
M  ISO  8  24  13  25  13  26  13  27  13  28  14  29  14  30  14  31   3
M  ISO  3  32  14  33  14  34  11
M  END
>  <minimizedAffinity>  (1) 
-5.0306778

>  <minimizedRMSD>  (1) 
0.777782798

$$$$
