
     RDKit          3D

 18 19  0  0  0  0  0  0  0  0999 V2000
   44.5920   35.9015   44.3109 C   0  0  0  0  0  0  0  0  0  0  0  0
   45.3312   35.9145   43.1170 C   0  0  0  0  0  0  0  0  0  0  0  0
   46.3028   34.9113   43.0363 C   0  0  0  0  0  0  0  0  0  0  0  0
   46.4818   34.0054   44.0705 N   0  0  0  0  0  0  0  0  0  0  0  0
   45.7323   34.0613   45.1767 C   0  0  0  0  0  0  0  0  0  0  0  0
   44.7871   35.0172   45.2871 N   0  0  0  0  0  0  0  0  0  0  0  0
   47.0822   34.8049   41.7389 C   0  0  0  0  0  0  0  0  0  0  0  0
   48.4630   35.4636   41.8938 C   0  0  0  0  0  0  0  0  0  0  0  0
   48.2247   33.9344   41.7269 C   0  0  0  0  0  0  0  0  0  0  0  0
   43.8300   36.6620   44.4158 H   0  0  0  0  0  0  0  0  0  0  0  0
   46.0253   33.2735   45.8556 H   0  0  0  0  0  0  0  0  0  0  0  0
   46.5621   35.2391   40.8626 H   0  0  0  0  0  0  0  0  0  0  0  0
   48.8422   35.9978   41.0260 H   0  0  0  0  0  0  0  0  0  0  0  0
   48.7434   35.8304   42.8722 H   0  0  0  0  0  0  0  0  0  0  0  0
   48.5990   33.3669   42.5944 H   0  0  0  0  0  0  0  0  0  0  0  0
   48.6211   33.5374   40.7690 H   0  0  0  0  0  0  0  0  0  0  0  0
   45.0906   37.0839   41.7934 S   0  0  0  0  0  0  0  0  0  0  0  0
   43.8450   37.7158   42.0238 H   0  0  0  0  0  0  0  0  0  0  0  0
  1  6  2  0
  2  1  1  0
  3  2  2  0
  3  4  1  0
  4  5  2  0
  5  6  1  0
  7  8  1  0
  7  9  1  0
  7  3  1  0
  8  9  1  0
  1 10  1  0
  5 11  1  0
  7 12  1  0
  8 13  1  0
  8 14  1  0
  9 15  1  0
  9 16  1  0
 17 18  1  0
  2 17  1  0
M  ISO  8  10  14  11  14  12  13  13  13  14  13  15  13  16  13  18  11
M  END
>  <DihAtoms>  (1) 
0,1,16,17

>  <DihDeg>  (1) 
90.11181717474904

$$$$
