
     RDKit          3D

 24 25  0  0  0  0  0  0  0  0999 V2000
   46.4820   33.0410   45.5640 C   0  0  0  0  0  0  0  0  0  0  0  0
   46.6850   31.7180   45.1240 C   0  0  0  0  0  0  0  0  0  0  0  0
   47.1840   30.9920   46.1480 C   0  0  0  0  0  0  0  0  0  0  0  0
   47.2880   31.8430   47.1910 N   0  0  0  0  0  0  0  0  0  0  0  0
   46.8680   33.0610   46.8390 N   0  0  0  0  0  0  0  0  0  0  0  0
   44.4610   35.8700   44.4390 C   0  0  0  0  0  0  0  0  0  0  0  0
   44.9510   36.1300   43.1600 C   0  0  0  0  0  0  0  0  0  0  0  0
   45.9870   35.3150   42.6960 C   0  0  0  0  0  0  0  0  0  0  0  0
   46.4550   34.3250   43.5040 N   0  0  0  0  0  0  0  0  0  0  0  0
   45.9570   34.1040   44.7310 C   0  0  0  0  0  0  0  0  0  0  0  0
   44.9620   34.8730   45.2030 N   0  0  0  0  0  0  0  0  0  0  0  0
   47.7860   31.4560   48.4870 C   0  0  0  0  0  0  0  0  0  0  0  0
   46.7910   30.4980   49.0940 C   0  0  0  0  0  0  0  0  0  0  0  0
   45.1870   31.2660   49.3820 S   0  0  0  0  0  0  0  0  0  0  0  0
   46.4723   31.3389   44.1135 H   0  0  0  0  0  0  0  0  0  0  0  0
   47.4511   29.9250   46.1348 H   0  0  0  0  0  0  0  0  0  0  0  0
   43.6457   36.4920   44.8370 H   0  0  0  0  0  0  0  0  0  0  0  0
   44.5397   36.9420   42.5424 H   0  0  0  0  0  0  0  0  0  0  0  0
   46.4166   35.4709   41.6954 H   0  0  0  0  0  0  0  0  0  0  0  0
   48.7636   30.9631   48.3807 H   0  0  0  0  0  0  0  0  0  0  0  0
   47.9121   32.3392   49.1305 H   0  0  0  0  0  0  0  0  0  0  0  0
   46.6575   29.6468   48.4102 H   0  0  0  0  0  0  0  0  0  0  0  0
   47.1877   30.1742   50.0675 H   0  0  0  0  0  0  0  0  0  0  0  0
   44.9667   31.3715   50.7300 H   0  0  0  0  0  0  0  0  0  0  0  0
  1  5  2  0
  2  1  1  0
  2  3  2  0
  3  4  1  0
  4 12  1  0
  5  4  1  0
  6 11  2  0
  7  6  1  0
  8  7  2  0
  8  9  1  0
  9 10  2  0
 10 11  1  0
 10  1  1  0
 12 13  1  0
 13 14  1  0
  2 15  1  0
  3 16  1  0
  6 17  1  0
  7 18  1  0
  8 19  1  0
 12 20  1  0
 12 21  1  0
 13 22  1  0
 13 23  1  0
 14 24  1  0
M  ISO  8  15  14  16  14  17  14  18  14  19  14  20   8  21   8  22   8
M  ISO  2  23   8  24  11
M  END
>  <minimizedAffinity>  (1) 
-4.01967859

>  <minimizedRMSD>  (1) 
0.903036594

$$$$
