
     RDKit          3D

 12 12  0  0  0  0  0  0  0  0999 V2000
   47.0170   33.9680   43.1760 C   0  0  0  0  0  0  0  0  0  0  0  0
   46.1510   33.9390   42.0520 C   0  0  0  0  0  0  0  0  0  0  0  0
   46.6570   34.3100   40.8030 C   0  0  0  0  0  0  0  0  0  0  0  0
   47.9640   34.6800   40.7410 N   0  0  0  0  0  0  0  0  0  0  0  0
   48.7640   34.6950   41.8370 C   0  0  0  0  0  0  0  0  0  0  0  0
   48.3060   34.3450   43.0460 N   0  0  0  0  0  0  0  0  0  0  0  0
   44.4480   33.4360   42.2500 S   0  0  0  0  0  0  0  0  0  0  0  0
   46.3640   33.4940   44.7630 S   0  0  0  0  0  0  0  0  0  0  0  0
   46.0222   34.3029   39.9047 H   0  0  0  0  0  0  0  0  0  0  0  0
   49.8148   35.0022   41.7298 H   0  0  0  0  0  0  0  0  0  0  0  0
   44.1500   33.3480   43.5843 H   0  0  0  0  0  0  0  0  0  0  0  0
   47.1283   34.0488   45.7555 H   0  0  0  0  0  0  0  0  0  0  0  0
  1  8  1  0
  2  7  1  0
  2  1  2  0
  3  2  1  0
  4  3  2  0
  4  5  1  0
  5  6  2  0
  6  1  1  0
  3  9  1  0
  5 10  1  0
  7 11  1  0
  8 12  1  0
M  ISO  4   9  14  10  14  11  11  12  11
M  END
>  <minimizedAffinity>  (1) 
-2.30708981

>  <minimizedRMSD>  (1) 
3.90880561

$$$$
