
     RDKit          3D

 36 38  0  0  1  0  0  0  0  0999 V2000
   46.7270   33.3780   44.6840 F   0  0  0  0  0  0  0  0  0  0  0  0
   47.3850   32.1910   44.4890 C   0  0  0  0  0  0  0  0  0  0  0  0
   48.1990   32.0890   43.3970 C   0  0  0  0  0  0  0  0  0  0  0  0
   48.8540   30.8940   43.2110 C   0  0  0  0  0  0  0  0  0  0  0  0
   48.6730   29.8610   44.1100 C   0  0  0  0  0  0  0  0  0  0  0  0
   47.8500   29.9760   45.2070 C   0  0  0  0  0  0  0  0  0  0  0  0
   47.1950   31.1850   45.3830 C   0  0  0  0  0  0  0  0  0  0  0  0
   46.3550   31.2560   46.5320 N   0  0  0  0  0  0  0  0  0  0  0  0
   45.2790   30.4200   46.9520 C   0  0  0  0  0  0  0  0  0  0  0  0
   45.5900   30.1330   48.4200 C   0  0  0  0  0  0  0  0  0  0  0  0
   46.5000   31.2780   48.8060 C   0  0  0  0  0  0  0  0  0  0  0  0
   46.3430   32.2080   47.6240 C   0  0  2  0  0  0  0  0  0  0  0  0
   45.1290   33.0670   47.6910 C   0  0  0  0  0  0  0  0  0  0  0  0
   49.0190   35.3950   42.0540 C   0  0  0  0  0  0  0  0  0  0  0  0
   48.6510   35.2910   40.6980 C   0  0  0  0  0  0  0  0  0  0  0  0
   48.1250   34.0570   40.2970 C   0  0  0  0  0  0  0  0  0  0  0  0
   48.0000   33.0580   41.2040 N   0  0  0  0  0  0  0  0  0  0  0  0
   48.3610   33.2000   42.4770 C   0  0  0  0  0  0  0  0  0  0  0  0
   48.8640   34.3550   42.8950 N   0  0  0  0  0  0  0  0  0  0  0  0
   47.6050   33.7450   38.6180 S   0  0  0  0  0  0  0  0  0  0  0  0
   49.5216   30.7610   42.3469 H   0  0  0  0  0  0  0  0  0  0  0  0
   49.2055   28.9130   43.9432 H   0  0  0  0  0  0  0  0  0  0  0  0
   47.7176   29.1439   45.9141 H   0  0  0  0  0  0  0  0  0  0  0  0
   44.3156   30.9411   46.8504 H   0  0  0  0  0  0  0  0  0  0  0  0
   45.1925   29.5040   46.3492 H   0  0  0  0  0  0  0  0  0  0  0  0
   44.6722   30.1359   49.0263 H   0  0  0  0  0  0  0  0  0  0  0  0
   46.0452   29.1446   48.5812 H   0  0  0  0  0  0  0  0  0  0  0  0
   46.1682   31.7565   49.7393 H   0  0  0  0  0  0  0  0  0  0  0  0
   47.5395   30.9755   49.0005 H   0  0  0  0  0  0  0  0  0  0  0  0
   47.1233   32.9791   47.5431 H   0  0  0  0  0  0  0  0  0  0  0  0
   44.8681   33.2516   48.7435 H   0  0  0  0  0  0  0  0  0  0  0  0
   45.3297   34.0252   47.1895 H   0  0  0  0  0  0  0  0  0  0  0  0
   44.2922   32.5589   47.1895 H   0  0  0  0  0  0  0  0  0  0  0  0
   49.4389   36.3392   42.4310 H   0  0  0  0  0  0  0  0  0  0  0  0
   48.7699   36.1295   39.9960 H   0  0  0  0  0  0  0  0  0  0  0  0
   46.4303   33.0402   38.6273 H   0  0  0  0  0  0  0  0  0  0  0  0
  2  1  1  0
  2  7  2  0
  3  2  1  0
  4  3  2  0
  4  5  1  0
  5  6  2  0
  6  7  1  0
  7  8  1  0
  8  9  1  0
  8 12  1  0
  9 10  1  0
 10 11  1  0
 12 13  1  0
 12 11  1  0
 14 19  2  0
 15 14  1  0
 16 15  2  0
 16 17  1  0
 17 18  2  0
 18 19  1  0
 18  3  1  0
 20 16  1  0
  4 21  1  0
  5 22  1  0
  6 23  1  0
  9 24  1  0
  9 25  1  0
 10 26  1  0
 10 27  1  0
 11 28  1  0
 11 29  1  0
 12 30  1  6
 13 31  1  0
 13 32  1  0
 13 33  1  0
 14 34  1  0
 15 35  1  0
 20 36  1  0
M  ISO  8  21  14  22  14  23  14  24  13  25  13  26  13  27  13  28  13
M  ISO  8  29  13  30  13  31   8  32   8  33   8  34  14  35  14  36  11
M  END
>  <minimizedAffinity>  (1) 
-4.88652182

>  <minimizedRMSD>  (1) 
0.478743881

$$$$
