
     RDKit          3D

 24 25  0  0  0  0  0  0  0  0999 V2000
   44.5155   35.8892   44.7150 C   0  0  0  0  0  0  0  0  0  0  0  0
   45.1108   36.0399   43.4671 C   0  0  0  0  0  0  0  0  0  0  0  0
   46.0583   35.0971   43.0836 C   0  0  0  0  0  0  0  0  0  0  0  0
   46.3446   34.0812   43.9573 N   0  0  0  0  0  0  0  0  0  0  0  0
   45.7507   33.9614   45.1598 C   0  0  0  0  0  0  0  0  0  0  0  0
   44.8409   34.8555   45.5438 N   0  0  0  0  0  0  0  0  0  0  0  0
   46.7680   35.1230   41.7958 C   0  0  2  0  0  0  0  0  0  0  0  0
   46.8478   33.8227   41.0716 C   0  0  0  0  0  0  0  0  0  0  0  0
   47.8066   34.2036   39.9436 C   0  0  0  0  0  0  0  0  0  0  0  0
   48.7044   35.2586   40.5263 C   0  0  1  0  0  0  0  0  0  0  0  0
   48.2535   35.4469   41.9701 C   0  0  0  0  0  0  0  0  0  0  0  0
   43.7608   36.6174   45.0526 H   0  0  0  0  0  0  0  0  0  0  0  0
   44.8752   36.8339   42.8042 H   0  0  0  0  0  0  0  0  0  0  0  0
   46.0011   33.1429   45.8288 H   0  0  0  0  0  0  0  0  0  0  0  0
   46.3638   35.8991   41.1316 H   0  0  0  0  0  0  0  0  0  0  0  0
   45.8731   33.4964   40.6925 H   0  0  0  0  0  0  0  0  0  0  0  0
   47.3215   33.0413   41.6958 H   0  0  0  0  0  0  0  0  0  0  0  0
   47.2654   34.5767   39.0432 H   0  0  0  0  0  0  0  0  0  0  0  0
   48.3811   33.3081   39.6448 H   0  0  0  0  0  0  0  0  0  0  0  0
   48.6560   36.2142   39.9598 H   0  0  0  0  0  0  0  0  0  0  0  0
   48.7440   34.7720   42.6745 H   0  0  0  0  0  0  0  0  0  0  0  0
   48.3857   36.5165   42.2556 H   0  0  0  0  0  0  0  0  0  0  0  0
   50.4077   34.6636   40.5553 S   0  0  0  0  0  0  0  0  0  0  0  0
   50.4886   33.3475   41.0261 H   0  0  0  0  0  0  0  0  0  0  0  0
  1  6  2  0
  2  1  1  0
  3  2  2  0
  3  4  1  0
  4  5  2  0
  5  6  1  0
  7 11  1  0
  7  3  1  0
  8  7  1  0
  9 10  1  0
  9  8  1  0
 10 11  1  0
  1 12  1  0
  2 13  1  0
  5 14  1  0
  7 15  1  6
  8 16  1  0
  8 17  1  0
  9 18  1  0
  9 19  1  0
 10 20  1  6
 11 21  1  0
 11 22  1  0
 23 24  1  0
 10 23  1  0
M  ISO  8  12  14  13  14  14  14  15  13  16  13  17  13  18  13  19  13
M  ISO  4  20  13  21  13  22  13  24  11
M  END
>  <DihAtoms>  (1) 
8,9,22,23

>  <DihDeg>  (1) 
-149.80466480363185

$$$$
