
     RDKit          3D

 24 25  0  0  0  0  0  0  0  0999 V2000
   46.6975   34.2525   40.6989 C   0  0  0  0  0  0  0  0  0  0  0  0
   48.0400   34.1848   41.3020 C   0  0  0  0  0  0  0  0  0  0  0  0
   48.7382   32.9862   41.1643 C   0  0  0  0  0  0  0  0  0  0  0  0
   50.0094   32.8795   41.7193 C   0  0  0  0  0  0  0  0  0  0  0  0
   50.5258   33.9491   42.3768 N   0  0  0  0  0  0  0  0  0  0  0  0
   49.8186   35.0976   42.4907 C   0  0  0  0  0  0  0  0  0  0  0  0
   48.6073   35.1907   41.9586 N   0  0  0  0  0  0  0  0  0  0  0  0
   48.0017   31.5981   40.2787 S   0  0  0  0  0  0  0  0  0  0  0  0
   45.6141   34.5786   41.6851 C   0  0  0  0  0  0  0  0  0  0  0  0
   44.2526   34.6525   41.0610 C   0  0  0  0  0  0  0  0  0  0  0  0
   43.2390   35.4554   41.6810 C   0  0  0  0  0  0  0  0  0  0  0  0
   41.7903   35.2230   40.5664 S   0  0  0  0  0  0  0  0  0  0  0  0
   42.8208   34.0805   39.4629 C   0  0  0  0  0  0  0  0  0  0  0  0
   43.8268   34.0595   39.9725 N   0  0  0  0  0  0  0  0  0  0  0  0
   46.7056   35.0907   39.9480 H   0  0  0  0  0  0  0  0  0  0  0  0
   46.4353   33.3600   40.1464 H   0  0  0  0  0  0  0  0  0  0  0  0
   50.5643   31.9537   41.6203 H   0  0  0  0  0  0  0  0  0  0  0  0
   50.3112   35.8964   43.0318 H   0  0  0  0  0  0  0  0  0  0  0  0
   48.9120   31.0928   39.3304 H   0  0  0  0  0  0  0  0  0  0  0  0
   45.5537   33.7761   42.4484 H   0  0  0  0  0  0  0  0  0  0  0  0
   45.8645   35.5400   42.1762 H   0  0  0  0  0  0  0  0  0  0  0  0
   43.1954   36.0694   42.5481 H   0  0  0  0  0  0  0  0  0  0  0  0
   42.4725   33.0817   37.8277 S   0  0  0  0  0  0  0  0  0  0  0  0
   43.5003   32.1425   37.9092 H   0  0  0  0  0  0  0  0  0  0  0  0
  1  2  1  0
  1  9  1  0
  2  7  1  0
  3  2  2  0
  3  4  1  0
  4  5  2  0
  5  6  1  0
  7  6  2  0
  8  3  1  0
 10  9  1  0
 10 11  2  0
 12 11  1  0
 13 14  2  0
 13 12  1  0
 14 10  1  0
  1 15  1  0
  1 16  1  0
  4 17  1  0
  6 18  1  0
  8 19  1  0
  9 20  1  0
  9 21  1  0
 11 22  1  0
 23 24  1  0
 13 23  1  0
M  ISO  8  15   8  16   8  17  14  18  14  19  11  20   8  21   8  22  14
M  ISO  1  24  11
M  END
>  <DihAtoms>  (1) 
13,12,22,23

>  <DihDeg>  (1) 
65.60708416404167

$$$$
