
     RDKit          3D

 35 36  0  0  1  0  0  0  0  0999 V2000
   50.2400   34.8280   42.7040 O   0  0  0  0  0  0  0  0  0  0  0  0
   49.0260   34.5940   41.8890 P   0  0  1  0  0  0  0  0  0  0  0  0
   49.0110   35.7810   40.6680 O   0  0  0  0  0  0  0  0  0  0  0  0
   49.1230   33.0660   41.0970 O   0  0  0  0  0  0  0  0  0  0  0  0
   49.6210   31.3090   42.5890 C   0  0  0  0  0  0  0  0  0  0  0  0
   50.0000   32.0870   41.5210 C   0  0  0  0  0  0  0  0  0  0  0  0
   51.2580   31.8500   40.9120 C   0  0  0  0  0  0  0  0  0  0  0  0
   52.0160   30.8550   41.4330 N   0  0  0  0  0  0  0  0  0  0  0  0
   51.6200   30.1270   42.4610 C   0  0  0  0  0  0  0  0  0  0  0  0
   50.4120   30.3640   43.0340 N   0  0  0  0  0  0  0  0  0  0  0  0
   47.2550   30.6410   42.9880 C   0  0  0  0  0  0  0  0  0  0  0  0
   47.0380   30.3480   41.7520 O   0  0  0  0  0  0  0  0  0  0  0  0
   48.5400   31.1470   43.4930 N   0  0  0  0  0  0  0  0  0  0  0  0
   47.6210   34.7120   42.7450 O   0  0  0  0  0  0  0  0  0  0  0  0
   46.4730   34.9330   42.1080 C   0  0  2  0  0  0  0  0  0  0  0  0
   45.4650   35.8050   42.7390 C   0  0  0  0  0  0  0  0  0  0  0  0
   44.1230   35.5390   42.0940 C   0  0  0  0  0  0  0  0  0  0  0  0
   43.6090   34.3140   42.5100 O   0  0  0  0  0  0  0  0  0  0  0  0
   44.6310   33.3930   42.6920 C   0  0  0  0  0  0  0  0  0  0  0  0
   45.7590   33.6270   41.7170 C   0  0  1  0  0  0  0  0  0  0  0  0
   45.2610   33.5590   40.0110 S   0  0  0  0  0  0  0  0  0  0  0  0
   48.9996   36.6802   41.0820 H   0  0  0  0  0  0  0  0  0  0  0  0
   51.6033   32.4470   40.0550 H   0  0  0  0  0  0  0  0  0  0  0  0
   52.2681   29.3293   42.8528 H   0  0  0  0  0  0  0  0  0  0  0  0
   46.4326   30.5049   43.7057 H   0  0  0  0  0  0  0  0  0  0  0  0
   48.6536   31.3806   44.4897 H   0  0  0  0  0  0  0  0  0  0  0  0
   46.8518   35.4952   41.2417 H   0  0  0  0  0  0  0  0  0  0  0  0
   45.4082   35.5866   43.8156 H   0  0  0  0  0  0  0  0  0  0  0  0
   45.7440   36.8603   42.6031 H   0  0  0  0  0  0  0  0  0  0  0  0
   44.2444   35.5267   41.0008 H   0  0  0  0  0  0  0  0  0  0  0  0
   43.4243   36.3344   42.3926 H   0  0  0  0  0  0  0  0  0  0  0  0
   45.0185   33.4854   43.7173 H   0  0  0  0  0  0  0  0  0  0  0  0
   44.2255   32.3852   42.5190 H   0  0  0  0  0  0  0  0  0  0  0  0
   46.4745   32.7948   41.7921 H   0  0  0  0  0  0  0  0  0  0  0  0
   43.9055   33.3739   39.9380 H   0  0  0  0  0  0  0  0  0  0  0  0
  2  1  2  0
  2 14  1  0
  3  2  1  0
  4  6  1  0
  4  2  1  0
  5 10  2  0
  5 13  1  0
  6  5  1  0
  7  8  1  0
  7  6  2  0
  8  9  2  0
  9 10  1  0
 11 13  1  0
 12 11  2  0
 15 16  1  0
 15 14  1  0
 17 18  1  0
 17 16  1  0
 18 19  1  0
 20 15  1  0
 20 19  1  0
 21 20  1  0
  3 22  1  0
  7 23  1  0
  9 24  1  0
 11 25  1  0
 13 26  1  0
 15 27  1  6
 16 28  1  0
 16 29  1  0
 17 30  1  0
 17 31  1  0
 19 32  1  0
 19 33  1  0
 20 34  1  6
 21 35  1  0
M  ISO  8  22   3  23  14  24  14  25   6  27  13  28  13  29  13  30  13
M  ISO  5  31  13  32  13  33  13  34  13  35  11
M  END
>  <minimizedAffinity>  (1) 
-4.18592405

>  <minimizedRMSD>  (1) 
0.520344496

$$$$
