
     RDKit          3D

 36 37  0  0  0  0  0  0  0  0999 V2000
   47.1930   34.4300   40.8630 C   0  0  0  0  0  0  0  0  0  0  0  0
   48.5160   33.9560   41.2930 C   0  0  0  0  0  0  0  0  0  0  0  0
   48.9540   32.7440   40.7590 C   0  0  0  0  0  0  0  0  0  0  0  0
   50.1820   32.2100   41.0990 C   0  0  0  0  0  0  0  0  0  0  0  0
   50.9510   32.9260   41.9860 N   0  0  0  0  0  0  0  0  0  0  0  0
   50.4810   34.1150   42.4880 C   0  0  0  0  0  0  0  0  0  0  0  0
   49.2980   34.5960   42.1390 N   0  0  0  0  0  0  0  0  0  0  0  0
   47.9120   31.8480   39.6060 S   0  0  0  0  0  0  0  0  0  0  0  0
   48.7140   31.7090   38.0000 C   0  0  0  0  0  0  0  0  0  0  0  0
   48.5300   33.0060   37.2570 C   0  0  0  0  0  0  0  0  0  0  0  0
   48.4790   32.7170   35.4680 S   0  0  0  0  0  0  0  0  0  0  0  0
   46.3840   35.0130   41.9800 C   0  0  0  0  0  0  0  0  0  0  0  0
   44.9150   34.9530   41.7370 C   0  0  0  0  0  0  0  0  0  0  0  0
   44.0120   35.4570   42.7090 C   0  0  0  0  0  0  0  0  0  0  0  0
   42.3700   35.1660   41.9700 S   0  0  0  0  0  0  0  0  0  0  0  0
   43.1760   34.3880   40.4220 C   0  0  0  0  0  0  0  0  0  0  0  0
   44.2870   34.4770   40.6970 N   0  0  0  0  0  0  0  0  0  0  0  0
   42.4430   33.9020   39.3510 O   0  0  0  0  0  0  0  0  0  0  0  0
   40.4700   34.3180   37.6310 O   0  0  0  0  0  0  0  0  0  0  0  0
   41.5460   35.0290   38.4400 P   0  0  0  0  0  0  0  0  0  0  0  0
   40.8020   36.1080   39.5260 O   0  0  0  0  0  0  0  0  0  0  0  0
   42.5810   35.9260   37.4510 O   0  0  0  0  0  0  0  0  0  0  0  0
   47.3318   35.2020   40.0918 H   0  0  0  0  0  0  0  0  0  0  0  0
   46.6418   33.5584   40.4803 H   0  0  0  0  0  0  0  0  0  0  0  0
   50.5291   31.2545   40.6788 H   0  0  0  0  0  0  0  0  0  0  0  0
   51.1026   34.6813   43.1972 H   0  0  0  0  0  0  0  0  0  0  0  0
   49.7870   31.5098   38.1377 H   0  0  0  0  0  0  0  0  0  0  0  0
   48.2685   30.8818   37.4279 H   0  0  0  0  0  0  0  0  0  0  0  0
   47.5862   33.4734   37.5744 H   0  0  0  0  0  0  0  0  0  0  0  0
   49.3787   33.6678   37.4846 H   0  0  0  0  0  0  0  0  0  0  0  0
   48.2446   31.3890   35.2264 H   0  0  0  0  0  0  0  0  0  0  0  0
   46.6086   34.4559   42.9015 H   0  0  0  0  0  0  0  0  0  0  0  0
   46.6579   36.0753   42.0609 H   0  0  0  0  0  0  0  0  0  0  0  0
   44.2473   35.9158   43.6807 H   0  0  0  0  0  0  0  0  0  0  0  0
   40.9958   35.8269   40.4553 H   0  0  0  0  0  0  0  0  0  0  0  0
   43.1961   36.4591   38.0145 H   0  0  0  0  0  0  0  0  0  0  0  0
  1  2  1  0
  1 12  1  0
  2  7  2  0
  3  4  2  0
  3  2  1  0
  4  5  1  0
  5  6  2  0
  7  6  1  0
  8  3  1  0
  9  8  1  0
 10  9  1  0
 11 10  1  0
 13 12  1  0
 13 14  2  0
 15 14  1  0
 16 17  2  0
 16 15  1  0
 17 13  1  0
 18 16  1  0
 19 20  2  0
 20 18  1  0
 20 21  1  0
 22 20  1  0
  1 23  1  0
  1 24  1  0
  4 25  1  0
  6 26  1  0
  9 27  1  0
  9 28  1  0
 10 29  1  0
 10 30  1  0
 11 31  1  0
 12 32  1  0
 12 33  1  0
 14 34  1  0
 21 35  1  0
 22 36  1  0
M  ISO  8  23   8  24   8  25  14  26  14  27   8  28   8  29   8  30   8
M  ISO  6  31  11  32   8  33   8  34  14  35   3  36   3
M  END
>  <minimizedAffinity>  (1) 
-4.41612625

>  <minimizedRMSD>  (1) 
0.796756983

$$$$
