
     RDKit          3D

 38 39  0  0  0  0  0  0  0  0999 V2000
   43.6640   34.9450   41.8820 C   0  0  0  0  0  0  0  0  0  0  0  0
   43.9140   33.6060   42.1920 C   0  0  0  0  0  0  0  0  0  0  0  0
   44.9730   33.3110   43.0160 C   0  0  0  0  0  0  0  0  0  0  0  0
   45.7560   34.3180   43.5100 C   0  0  0  0  0  0  0  0  0  0  0  0
   45.5400   35.6330   43.2270 C   0  0  0  0  0  0  0  0  0  0  0  0
   44.4650   35.8930   42.3960 C   0  0  0  0  0  0  0  0  0  0  0  0
   40.2360   35.8050   40.5250 C   0  0  0  0  0  0  0  0  0  0  0  0
   41.2710   35.5840   41.4660 C   0  0  0  0  0  0  0  0  0  0  0  0
   42.5270   35.1990   41.0040 C   0  0  0  0  0  0  0  0  0  0  0  0
   42.6920   35.0560   39.6580 N   0  0  0  0  0  0  0  0  0  0  0  0
   41.6890   35.2720   38.7720 C   0  0  0  0  0  0  0  0  0  0  0  0
   40.4760   35.6440   39.2150 N   0  0  0  0  0  0  0  0  0  0  0  0
   43.0420   32.5350   41.6350 C   0  0  0  0  0  0  0  0  0  0  0  0
   42.7030   31.4990   42.5770 N   0  0  0  0  0  0  0  0  0  0  0  0
   41.0200   31.1400   42.5750 S   0  0  0  0  0  0  0  0  0  0  0  0
   40.1980   32.3950   42.4430 O   0  0  0  0  0  0  0  0  0  0  0  0
   40.6200   30.3930   43.7950 O   0  0  0  0  0  0  0  0  0  0  0  0
   40.7220   30.1740   41.2260 O   0  0  0  0  0  0  0  0  0  0  0  0
   40.0780   29.0340   41.6620 C   0  0  0  0  0  0  0  0  0  0  0  0
   40.9880   27.8160   41.4440 C   0  0  0  0  0  0  0  0  0  0  0  0
   40.8530   26.8160   42.9710 S   0  0  0  0  0  0  0  0  0  0  0  0
   45.1912   32.2653   43.2784 H   0  0  0  0  0  0  0  0  0  0  0  0
   46.5987   34.0539   44.1658 H   0  0  0  0  0  0  0  0  0  0  0  0
   46.1769   36.4334   43.6316 H   0  0  0  0  0  0  0  0  0  0  0  0
   44.2529   36.9416   42.1401 H   0  0  0  0  0  0  0  0  0  0  0  0
   39.2359   36.1085   40.8680 H   0  0  0  0  0  0  0  0  0  0  0  0
   41.0861   35.7141   42.5425 H   0  0  0  0  0  0  0  0  0  0  0  0
   41.8674   35.1432   37.6942 H   0  0  0  0  0  0  0  0  0  0  0  0
   42.1091   32.9987   41.2819 H   0  0  0  0  0  0  0  0  0  0  0  0
   43.6113   32.0528   40.8267 H   0  0  0  0  0  0  0  0  0  0  0  0
   43.2242   30.6450   42.3320 H   0  0  0  0  0  0  0  0  0  0  0  0
   39.9731   32.7384   43.3439 H   0  0  0  0  0  0  0  0  0  0  0  0
   40.8930   30.9029   44.5985 H   0  0  0  0  0  0  0  0  0  0  0  0
   39.8457   29.1310   42.7328 H   0  0  0  0  0  0  0  0  0  0  0  0
   39.1450   28.9005   41.0947 H   0  0  0  0  0  0  0  0  0  0  0  0
   40.6488   27.2348   40.5739 H   0  0  0  0  0  0  0  0  0  0  0  0
   42.0276   28.1165   41.2465 H   0  0  0  0  0  0  0  0  0  0  0  0
   40.9635   27.6344   44.0641 H   0  0  0  0  0  0  0  0  0  0  0  0
  1  2  2  0
  1  6  1  0
  2  3  1  0
  3  4  2  0
  5  4  1  0
  6  5  2  0
  7  8  2  0
  9  8  1  0
  9  1  1  0
 10  9  2  0
 11 12  2  0
 11 10  1  0
 12  7  1  0
 13  2  1  0
 13 14  1  0
 15 14  1  0
 15 17  1  0
 16 15  1  0
 18 19  1  0
 18 15  1  0
 20 19  1  0
 20 21  1  0
  3 22  1  0
  4 23  1  0
  5 24  1  0
  6 25  1  0
  7 26  1  0
  8 27  1  0
 11 28  1  0
 13 29  1  0
 13 30  1  0
 14 31  1  0
 16 32  1  0
 17 33  1  0
 19 34  1  0
 19 35  1  0
 20 36  1  0
 20 37  1  0
 21 38  1  0
M  ISO  8  22  14  23  14  24  14  25  14  26  14  27  14  28  14  29   8
M  ISO  8  30   8  31   5  32   3  33   3  34   8  35   8  36   8  37   8
M  ISO  1  38  11
M  END
>  <minimizedAffinity>  (1) 
-4.72259378

>  <minimizedRMSD>  (1) 
0.33209005

$$$$
