
     RDKit          3D

 37 39  0  0  0  0  0  0  0  0999 V2000
   45.2640   36.1562   43.1801 C   0  0  0  0  0  0  0  0  0  0  0  0
   45.8743   34.9104   42.8912 C   0  0  0  0  0  0  0  0  0  0  0  0
   45.8269   33.9514   43.9011 C   0  0  0  0  0  0  0  0  0  0  0  0
   45.2265   34.2270   45.0738 N   0  0  0  0  0  0  0  0  0  0  0  0
   44.6465   35.4465   45.3152 C   0  0  0  0  0  0  0  0  0  0  0  0
   44.6821   36.3729   44.3640 N   0  0  0  0  0  0  0  0  0  0  0  0
   46.4479   32.6567   43.6321 C   0  0  0  0  0  0  0  0  0  0  0  0
   45.6661   31.5760   43.2982 C   0  0  0  0  0  0  0  0  0  0  0  0
   46.2775   30.3676   43.0498 C   0  0  0  0  0  0  0  0  0  0  0  0
   47.6519   30.1807   43.1191 C   0  0  0  0  0  0  0  0  0  0  0  0
   48.3810   31.3158   43.4621 C   0  0  0  0  0  0  0  0  0  0  0  0
   47.7664   32.4829   43.6999 N   0  0  0  0  0  0  0  0  0  0  0  0
   46.4930   34.6759   41.6360 C   0  0  0  0  0  0  0  0  0  0  0  0
   47.6657   35.1380   41.4864 O   0  0  0  0  0  0  0  0  0  0  0  0
   45.2755   36.9454   42.4145 H   0  0  0  0  0  0  0  0  0  0  0  0
   44.2074   35.5124   46.2999 H   0  0  0  0  0  0  0  0  0  0  0  0
   44.5704   31.6418   43.2223 H   0  0  0  0  0  0  0  0  0  0  0  0
   45.6863   29.4829   42.7806 H   0  0  0  0  0  0  0  0  0  0  0  0
   48.1446   29.2424   42.9278 H   0  0  0  0  0  0  0  0  0  0  0  0
   49.4619   31.2711   43.5419 H   0  0  0  0  0  0  0  0  0  0  0  0
   46.0432   33.9720   40.3978 C   0  0  0  0  0  0  0  0  0  0  0  0
   47.1680   34.0748   39.4167 C   0  0  0  0  0  0  0  0  0  0  0  0
   46.7775   33.8216   37.9894 C   0  0  0  0  0  0  0  0  0  0  0  0
   45.5339   34.5389   37.5723 C   0  0  0  0  0  0  0  0  0  0  0  0
   44.8807   35.3265   38.6622 C   0  0  0  0  0  0  0  0  0  0  0  0
   44.7402   34.5234   39.9271 C   0  0  0  0  0  0  0  0  0  0  0  0
   45.8722   32.9018   40.6583 H   0  0  0  0  0  0  0  0  0  0  0  0
   47.7089   35.0303   39.5593 H   0  0  0  0  0  0  0  0  0  0  0  0
   47.9206   33.2823   39.6996 H   0  0  0  0  0  0  0  0  0  0  0  0
   46.7057   32.7059   37.8509 H   0  0  0  0  0  0  0  0  0  0  0  0
   47.6302   34.2007   37.3636 H   0  0  0  0  0  0  0  0  0  0  0  0
   45.7271   35.2414   36.7369 H   0  0  0  0  0  0  0  0  0  0  0  0
   44.7940   33.7902   37.1930 H   0  0  0  0  0  0  0  0  0  0  0  0
   43.8489   35.5564   38.3078 H   0  0  0  0  0  0  0  0  0  0  0  0
   45.3983   36.3101   38.8311 H   0  0  0  0  0  0  0  0  0  0  0  0
   44.2538   35.1902   40.6808 H   0  0  0  0  0  0  0  0  0  0  0  0
   43.9889   33.7394   39.7229 H   0  0  0  0  0  0  0  0  0  0  0  0
  1  6  2  0
  2  1  1  0
  2  3  2  0
  3  4  1  0
  4  5  2  0
  6  5  1  0
  7 12  1  0
  7  3  1  0
  8  7  2  0
  9 10  2  0
  9  8  1  0
 10 11  1  0
 11 12  2  0
 13  2  1  0
 14 13  2  0
  1 15  1  0
  5 16  1  0
  8 17  1  0
  9 18  1  0
 10 19  1  0
 11 20  1  0
 21 22  1  0
 22 23  1  0
 23 24  1  0
 24 25  1  0
 25 26  1  0
 26 21  1  0
 21 27  1  0
 22 28  1  0
 22 29  1  0
 23 30  1  0
 23 31  1  0
 24 32  1  0
 24 33  1  0
 25 34  1  0
 25 35  1  0
 26 36  1  0
 26 37  1  0
 13 21  1  0
M  ISO  6  15  14  16  14  17  14  18  14  19  14  20  14
M  END
>  <DihAtoms>  (1) 
1,12,20,21

>  <DihDeg>  (1) 
179.99079589226383

$$$$
