
     RDKit          3D

 51 54  0  0  0  0  0  0  0  0999 V2000
   47.5890   29.9943   48.2553 C   0  0  1  0  0  0  0  0  0  0  0  0
   47.4452   28.7877   47.3879 C   0  0  0  0  0  0  0  0  0  0  0  0
   48.7204   28.0155   47.1687 C   0  0  0  0  0  0  0  0  0  0  0  0
   49.5247   27.8429   48.4290 C   0  0  0  0  0  0  0  0  0  0  0  0
   49.6105   29.1107   49.2516 C   0  0  0  0  0  0  0  0  0  0  0  0
   49.0821   30.2754   48.4271 C   0  0  2  0  0  0  0  0  0  0  0  0
   45.9126   33.1491   46.2507 C   0  0  0  0  0  0  0  0  0  0  0  0
   45.3605   32.9625   47.5151 C   0  0  0  0  0  0  0  0  0  0  0  0
   45.8314   31.9594   48.2587 C   0  0  0  0  0  0  0  0  0  0  0  0
   46.8491   31.1233   47.7809 C   0  0  0  0  0  0  0  0  0  0  0  0
   47.1677   31.8178   46.1280 S   0  0  0  0  0  0  0  0  0  0  0  0
   44.4378   36.1047   44.5463 C   0  0  0  0  0  0  0  0  0  0  0  0
   45.0559   36.0083   43.2886 C   0  0  0  0  0  0  0  0  0  0  0  0
   45.9449   34.9391   43.0738 C   0  0  0  0  0  0  0  0  0  0  0  0
   46.1538   34.0586   44.1020 N   0  0  0  0  0  0  0  0  0  0  0  0
   45.5320   34.2059   45.2818 C   0  0  0  0  0  0  0  0  0  0  0  0
   44.6637   35.2333   45.5199 N   0  0  0  0  0  0  0  0  0  0  0  0
   49.2547   31.5223   49.2036 C   0  0  0  0  0  0  0  0  0  0  0  0
   49.8229   31.5553   50.2859 O   0  0  0  0  0  0  0  0  0  0  0  0
   47.2325   29.7441   49.2661 H   0  0  0  0  0  0  0  0  0  0  0  0
   46.6225   28.1522   47.7903 H   0  0  0  0  0  0  0  0  0  0  0  0
   47.1021   29.1346   46.3720 H   0  0  0  0  0  0  0  0  0  0  0  0
   49.3308   28.5100   46.3988 H   0  0  0  0  0  0  0  0  0  0  0  0
   48.4410   27.0042   46.8302 H   0  0  0  0  0  0  0  0  0  0  0  0
   49.0329   27.0336   49.0308 H   0  0  0  0  0  0  0  0  0  0  0  0
   50.5430   27.5249   48.1807 H   0  0  0  0  0  0  0  0  0  0  0  0
   50.6068   29.2991   49.6490 H   0  0  0  0  0  0  0  0  0  0  0  0
   48.9065   29.0023   50.1254 H   0  0  0  0  0  0  0  0  0  0  0  0
   49.5712   30.3136   47.4335 H   0  0  0  0  0  0  0  0  0  0  0  0
   44.5764   33.6172   47.8686 H   0  0  0  0  0  0  0  0  0  0  0  0
   45.5200   31.6752   49.2502 H   0  0  0  0  0  0  0  0  0  0  0  0
   43.7489   36.9251   44.7266 H   0  0  0  0  0  0  0  0  0  0  0  0
   44.8791   36.7149   42.4847 H   0  0  0  0  0  0  0  0  0  0  0  0
   46.4647   34.7871   42.1371 H   0  0  0  0  0  0  0  0  0  0  0  0
   48.9545   32.9694   49.1577 C   0  0  0  0  0  0  0  0  0  0  0  0
   50.2143   33.7485   48.6987 C   0  0  0  0  0  0  0  0  0  0  0  0
   50.3706   35.0415   49.4228 C   0  0  0  0  0  0  0  0  0  0  0  0
   49.1009   35.7239   49.8104 C   0  0  0  0  0  0  0  0  0  0  0  0
   48.1483   34.8190   50.5570 C   0  0  0  0  0  0  0  0  0  0  0  0
   48.7432   33.4543   50.5805 C   0  0  0  0  0  0  0  0  0  0  0  0
   48.1923   33.2931   48.4681 H   0  0  0  0  0  0  0  0  0  0  0  0
   50.1729   33.9420   47.5997 H   0  0  0  0  0  0  0  0  0  0  0  0
   51.0815   33.0783   48.8585 H   0  0  0  0  0  0  0  0  0  0  0  0
   51.0586   34.9955   50.3040 H   0  0  0  0  0  0  0  0  0  0  0  0
   50.8981   35.7621   48.7275 H   0  0  0  0  0  0  0  0  0  0  0  0
   49.3835   36.5432   50.5123 H   0  0  0  0  0  0  0  0  0  0  0  0
   48.5669   36.1809   48.9664 H   0  0  0  0  0  0  0  0  0  0  0  0
   47.9619   35.1708   51.5982 H   0  0  0  0  0  0  0  0  0  0  0  0
   47.1618   34.7932   50.0551 H   0  0  0  0  0  0  0  0  0  0  0  0
   48.2667   32.7257   51.2427 H   0  0  0  0  0  0  0  0  0  0  0  0
   49.7814   33.5822   51.0169 H   0  0  0  0  0  0  0  0  0  0  0  0
  1  6  1  0
  2  1  1  0
  3  2  1  0
  3  4  1  0
  4  5  1  0
  6 18  1  0
  6  5  1  0
  7  8  2  0
  8  9  1  0
 10  1  1  0
 10  9  2  0
 11  7  1  0
 11 10  1  0
 12 17  2  0
 13 12  1  0
 14 13  2  0
 14 15  1  0
 15 16  2  0
 16 17  1  0
 16  7  1  0
 18 19  2  0
  1 20  1  1
  2 21  1  0
  2 22  1  0
  3 23  1  0
  3 24  1  0
  4 25  1  0
  4 26  1  0
  5 27  1  0
  5 28  1  0
  6 29  1  6
  8 30  1  0
  9 31  1  0
 12 32  1  0
 13 33  1  0
 14 34  1  0
 35 36  1  0
 36 37  1  0
 37 38  1  0
 38 39  1  0
 39 40  1  0
 40 35  1  0
 35 41  1  0
 36 42  1  0
 36 43  1  0
 37 44  1  0
 37 45  1  0
 38 46  1  0
 38 47  1  0
 39 48  1  0
 39 49  1  0
 40 50  1  0
 40 51  1  0
 18 35  1  0
M  ISO  8  20  13  21  13  22  13  23  13  24  13  25  13  26  13  27  13
M  ISO  7  28  13  29  13  30  14  31  14  32  14  33  14  34  14
M  END
>  <DihAtoms>  (1) 
5,17,34,35

>  <DihDeg>  (1) 
-129.7917250834384

$$$$
