
     RDKit          3D

 30 31  0  0  0  0  0  0  0  0999 V2000
   44.9148   35.1057   44.9432 C   0  0  0  0  0  0  0  0  0  0  0  0
   45.8265   34.7551   43.9485 C   0  0  0  0  0  0  0  0  0  0  0  0
   46.6824   33.6977   44.2188 C   0  0  0  0  0  0  0  0  0  0  0  0
   46.6051   33.0593   45.4078 N   0  0  0  0  0  0  0  0  0  0  0  0
   45.7088   33.4327   46.3383 C   0  0  0  0  0  0  0  0  0  0  0  0
   44.8536   34.4533   46.1276 N   0  0  0  0  0  0  0  0  0  0  0  0
   45.7967   35.5537   42.6794 C   0  0  0  0  0  0  0  0  0  0  0  0
   45.3491   36.8055   43.0307 F   0  0  0  0  0  0  0  0  0  0  0  0
   44.9101   34.9457   41.8287 F   0  0  0  0  0  0  0  0  0  0  0  0
   47.0755   35.5490   42.1553 F   0  0  0  0  0  0  0  0  0  0  0  0
   45.6234   32.7772   47.5696 O   0  0  0  0  0  0  0  0  0  0  0  0
   44.2201   35.9163   44.8026 H   0  0  0  0  0  0  0  0  0  0  0  0
   47.3775   33.4447   43.4367 H   0  0  0  0  0  0  0  0  0  0  0  0
   46.4690   31.6929   47.9022 C   0  0  0  0  0  0  0  0  0  0  0  0
   45.8653   30.3935   47.4532 C   0  0  0  0  0  0  0  0  0  0  0  0
   45.2392   29.5982   48.5526 C   0  0  0  0  0  0  0  0  0  0  0  0
   46.1371   29.3909   49.7390 C   0  0  0  0  0  0  0  0  0  0  0  0
   47.2125   30.4310   49.8896 C   0  0  0  0  0  0  0  0  0  0  0  0
   46.6778   31.7446   49.4014 C   0  0  0  0  0  0  0  0  0  0  0  0
   47.4576   31.7692   47.4029 H   0  0  0  0  0  0  0  0  0  0  0  0
   46.5938   29.7400   46.8964 H   0  0  0  0  0  0  0  0  0  0  0  0
   45.0651   30.6300   46.7171 H   0  0  0  0  0  0  0  0  0  0  0  0
   45.0214   28.5832   48.1249 H   0  0  0  0  0  0  0  0  0  0  0  0
   44.2879   30.0661   48.8257 H   0  0  0  0  0  0  0  0  0  0  0  0
   45.4953   29.4356   50.6466 H   0  0  0  0  0  0  0  0  0  0  0  0
   46.6101   28.3761   49.7382 H   0  0  0  0  0  0  0  0  0  0  0  0
   48.1137   30.1338   49.3439 H   0  0  0  0  0  0  0  0  0  0  0  0
   47.4392   30.5591   50.9868 H   0  0  0  0  0  0  0  0  0  0  0  0
   47.3499   32.5827   49.6510 H   0  0  0  0  0  0  0  0  0  0  0  0
   45.6412   31.8868   49.8272 H   0  0  0  0  0  0  0  0  0  0  0  0
  1  6  2  0
  2  3  2  0
  2  1  1  0
  3  4  1  0
  4  5  2  0
  5 11  1  0
  6  5  1  0
  7  8  1  0
  7  2  1  0
  9  7  1  0
 10  7  1  0
  1 12  1  0
  3 13  1  0
 14 15  1  0
 15 16  1  0
 16 17  1  0
 17 18  1  0
 18 19  1  0
 19 14  1  0
 14 20  1  0
 15 21  1  0
 15 22  1  0
 16 23  1  0
 16 24  1  0
 17 25  1  0
 17 26  1  0
 18 27  1  0
 18 28  1  0
 19 29  1  0
 19 30  1  0
 11 14  1  0
M  ISO  2  12  14  13  14
M  END
>  <DihAtoms>  (1) 
4,10,13,14

>  <DihDeg>  (1) 
-118.56017576723124

$$$$
