
     RDKit          3D

 51 54  0  0  0  0  0  0  0  0999 V2000
   47.5890   29.9943   48.2553 C   0  0  1  0  0  0  0  0  0  0  0  0
   47.4452   28.7877   47.3879 C   0  0  0  0  0  0  0  0  0  0  0  0
   48.7204   28.0155   47.1687 C   0  0  0  0  0  0  0  0  0  0  0  0
   49.5247   27.8429   48.4290 C   0  0  0  0  0  0  0  0  0  0  0  0
   49.6105   29.1107   49.2516 C   0  0  0  0  0  0  0  0  0  0  0  0
   49.0821   30.2754   48.4271 C   0  0  2  0  0  0  0  0  0  0  0  0
   45.9126   33.1491   46.2507 C   0  0  0  0  0  0  0  0  0  0  0  0
   45.3605   32.9625   47.5151 C   0  0  0  0  0  0  0  0  0  0  0  0
   45.8314   31.9594   48.2587 C   0  0  0  0  0  0  0  0  0  0  0  0
   46.8491   31.1233   47.7809 C   0  0  0  0  0  0  0  0  0  0  0  0
   47.1677   31.8178   46.1280 S   0  0  0  0  0  0  0  0  0  0  0  0
   44.4378   36.1047   44.5463 C   0  0  0  0  0  0  0  0  0  0  0  0
   45.0559   36.0083   43.2886 C   0  0  0  0  0  0  0  0  0  0  0  0
   45.9449   34.9391   43.0738 C   0  0  0  0  0  0  0  0  0  0  0  0
   46.1538   34.0586   44.1020 N   0  0  0  0  0  0  0  0  0  0  0  0
   45.5320   34.2059   45.2818 C   0  0  0  0  0  0  0  0  0  0  0  0
   44.6637   35.2333   45.5199 N   0  0  0  0  0  0  0  0  0  0  0  0
   49.2547   31.5223   49.2036 C   0  0  0  0  0  0  0  0  0  0  0  0
   49.8229   31.5553   50.2859 O   0  0  0  0  0  0  0  0  0  0  0  0
   47.2325   29.7441   49.2661 H   0  0  0  0  0  0  0  0  0  0  0  0
   46.6225   28.1522   47.7903 H   0  0  0  0  0  0  0  0  0  0  0  0
   47.1021   29.1346   46.3720 H   0  0  0  0  0  0  0  0  0  0  0  0
   49.3308   28.5100   46.3988 H   0  0  0  0  0  0  0  0  0  0  0  0
   48.4410   27.0042   46.8302 H   0  0  0  0  0  0  0  0  0  0  0  0
   49.0329   27.0336   49.0308 H   0  0  0  0  0  0  0  0  0  0  0  0
   50.5430   27.5249   48.1807 H   0  0  0  0  0  0  0  0  0  0  0  0
   50.6068   29.2991   49.6490 H   0  0  0  0  0  0  0  0  0  0  0  0
   48.9065   29.0023   50.1254 H   0  0  0  0  0  0  0  0  0  0  0  0
   49.5712   30.3136   47.4335 H   0  0  0  0  0  0  0  0  0  0  0  0
   44.5764   33.6172   47.8686 H   0  0  0  0  0  0  0  0  0  0  0  0
   45.5200   31.6752   49.2502 H   0  0  0  0  0  0  0  0  0  0  0  0
   43.7489   36.9251   44.7266 H   0  0  0  0  0  0  0  0  0  0  0  0
   44.8791   36.7149   42.4847 H   0  0  0  0  0  0  0  0  0  0  0  0
   46.4647   34.7871   42.1371 H   0  0  0  0  0  0  0  0  0  0  0  0
   48.9545   32.9694   49.1577 C   0  0  0  0  0  0  0  0  0  0  0  0
   49.5138   33.5761   47.8448 C   0  0  0  0  0  0  0  0  0  0  0  0
   50.0818   34.9381   48.0519 C   0  0  0  0  0  0  0  0  0  0  0  0
   49.4128   35.7660   49.0984 C   0  0  0  0  0  0  0  0  0  0  0  0
   49.2786   35.0492   50.4220 C   0  0  0  0  0  0  0  0  0  0  0  0
   49.7722   33.6569   50.2361 C   0  0  0  0  0  0  0  0  0  0  0  0
   47.9161   33.2574   49.1466 H   0  0  0  0  0  0  0  0  0  0  0  0
   48.7144   33.6225   47.0663 H   0  0  0  0  0  0  0  0  0  0  0  0
   50.2727   32.8662   47.4614 H   0  0  0  0  0  0  0  0  0  0  0  0
   51.1897   34.9562   48.2074 H   0  0  0  0  0  0  0  0  0  0  0  0
   49.9525   35.5139   47.0862 H   0  0  0  0  0  0  0  0  0  0  0  0
   50.0734   36.6471   49.2750 H   0  0  0  0  0  0  0  0  0  0  0  0
   48.4266   36.1465   48.8003 H   0  0  0  0  0  0  0  0  0  0  0  0
   49.8543   35.5518   51.2335 H   0  0  0  0  0  0  0  0  0  0  0  0
   48.2218   35.0352   50.7518 H   0  0  0  0  0  0  0  0  0  0  0  0
   49.9154   33.0646   51.1445 H   0  0  0  0  0  0  0  0  0  0  0  0
   50.8171   33.7587   49.8087 H   0  0  0  0  0  0  0  0  0  0  0  0
  1  6  1  0
  2  1  1  0
  3  2  1  0
  3  4  1  0
  4  5  1  0
  6 18  1  0
  6  5  1  0
  7  8  2  0
  8  9  1  0
 10  1  1  0
 10  9  2  0
 11  7  1  0
 11 10  1  0
 12 17  2  0
 13 12  1  0
 14 13  2  0
 14 15  1  0
 15 16  2  0
 16 17  1  0
 16  7  1  0
 18 19  2  0
  1 20  1  1
  2 21  1  0
  2 22  1  0
  3 23  1  0
  3 24  1  0
  4 25  1  0
  4 26  1  0
  5 27  1  0
  5 28  1  0
  6 29  1  6
  8 30  1  0
  9 31  1  0
 12 32  1  0
 13 33  1  0
 14 34  1  0
 35 36  1  0
 36 37  1  0
 37 38  1  0
 38 39  1  0
 39 40  1  0
 40 35  1  0
 35 41  1  0
 36 42  1  0
 36 43  1  0
 37 44  1  0
 37 45  1  0
 38 46  1  0
 38 47  1  0
 39 48  1  0
 39 49  1  0
 40 50  1  0
 40 51  1  0
 18 35  1  0
M  ISO  8  20  13  21  13  22  13  23  13  24  13  25  13  26  13  27  13
M  ISO  7  28  13  29  13  30  14  31  14  32  14  33  14  34  14
M  END
>  <DihAtoms>  (1) 
5,17,34,35

>  <DihDeg>  (1) 
-129.7917250834384

$$$$
