
     RDKit          3D

 45 47  0  0  0  0  0  0  0  0999 V2000
   42.2140   34.7990   41.5060 C   0  0  0  0  0  0  0  0  0  0  0  0
   41.3740   35.8210   40.8120 C   0  0  0  0  0  0  0  0  0  0  0  0
   42.0780   36.0670   37.8610 Cl  0  0  0  0  0  0  0  0  0  0  0  0
   40.6860   35.2300   38.4600 C   0  0  0  0  0  0  0  0  0  0  0  0
   40.4490   35.1740   39.8510 C   0  0  0  0  0  0  0  0  0  0  0  0
   39.3280   34.4950   40.2370 C   0  0  0  0  0  0  0  0  0  0  0  0
   38.4070   33.8600   39.4190 C   0  0  0  0  0  0  0  0  0  0  0  0
   38.6560   33.9280   38.0580 C   0  0  0  0  0  0  0  0  0  0  0  0
   37.5490   33.1550   36.9260 Cl  0  0  0  0  0  0  0  0  0  0  0  0
   39.7730   34.6000   37.6030 C   0  0  0  0  0  0  0  0  0  0  0  0
   43.8680   34.6350   40.8100 S   0  0  0  0  0  0  0  0  0  0  0  0
   45.1280   34.4170   42.0730 C   0  0  0  0  0  0  0  0  0  0  0  0
   46.4580   34.4330   41.6380 C   0  0  0  0  0  0  0  0  0  0  0  0
   47.4710   34.2670   42.5830 C   0  0  0  0  0  0  0  0  0  0  0  0
   47.1050   34.1000   43.8810 N   0  0  0  0  0  0  0  0  0  0  0  0
   45.8240   34.0870   44.2830 C   0  0  0  0  0  0  0  0  0  0  0  0
   44.8590   34.2460   43.3700 N   0  0  0  0  0  0  0  0  0  0  0  0
   45.5390   33.9000   45.6910 C   0  0  0  0  0  0  0  0  0  0  0  0
   44.6680   34.6500   46.2040 O   0  0  0  0  0  0  0  0  0  0  0  0
   46.2360   32.8660   46.5350 C   0  0  0  0  0  0  0  0  0  0  0  0
   45.4460   32.7140   47.8180 C   0  0  0  0  0  0  0  0  0  0  0  0
   45.9160   31.5590   48.6380 C   0  0  0  0  0  0  0  0  0  0  0  0
   45.7820   30.2820   47.8760 C   0  0  0  0  0  0  0  0  0  0  0  0
   45.3680   30.5810   46.4500 C   0  0  0  0  0  0  0  0  0  0  0  0
   46.3770   31.5530   45.8320 C   0  0  0  0  0  0  0  0  0  0  0  0
   42.3082   35.0858   42.5638 H   0  0  0  0  0  0  0  0  0  0  0  0
   41.7123   33.8282   41.3800 H   0  0  0  0  0  0  0  0  0  0  0  0
   40.7880   36.3751   41.5600 H   0  0  0  0  0  0  0  0  0  0  0  0
   42.0344   36.5063   40.2605 H   0  0  0  0  0  0  0  0  0  0  0  0
   39.1347   34.4469   41.3188 H   0  0  0  0  0  0  0  0  0  0  0  0
   37.5310   33.3337   39.8260 H   0  0  0  0  0  0  0  0  0  0  0  0
   39.9547   34.6429   36.5190 H   0  0  0  0  0  0  0  0  0  0  0  0
   46.6996   34.5734   40.5741 H   0  0  0  0  0  0  0  0  0  0  0  0
   48.5305   34.2712   42.2872 H   0  0  0  0  0  0  0  0  0  0  0  0
   47.2620   33.2017   46.7461 H   0  0  0  0  0  0  0  0  0  0  0  0
   45.5521   33.6349   48.4102 H   0  0  0  0  0  0  0  0  0  0  0  0
   44.3959   32.5298   47.5473 H   0  0  0  0  0  0  0  0  0  0  0  0
   46.9723   31.7114   48.9045 H   0  0  0  0  0  0  0  0  0  0  0  0
   45.2987   31.4955   49.5463 H   0  0  0  0  0  0  0  0  0  0  0  0
   46.7471   29.7542   47.8738 H   0  0  0  0  0  0  0  0  0  0  0  0
   45.0177   29.6509   48.3531 H   0  0  0  0  0  0  0  0  0  0  0  0
   45.3503   29.6480   45.8677 H   0  0  0  0  0  0  0  0  0  0  0  0
   44.3643   31.0311   46.4407 H   0  0  0  0  0  0  0  0  0  0  0  0
   47.3983   31.1659   45.9632 H   0  0  0  0  0  0  0  0  0  0  0  0
   46.1869   31.6712   44.7550 H   0  0  0  0  0  0  0  0  0  0  0  0
  2  1  1  0
  3  4  1  0
  4  5  2  0
  5  6  1  0
  5  2  1  0
  7  6  2  0
  8  7  1  0
  9  8  1  0
 10  8  2  0
 10  4  1  0
 11  1  1  0
 11 12  1  0
 12 17  1  0
 13 12  2  0
 13 14  1  0
 14 15  2  0
 15 16  1  0
 16 18  1  0
 17 16  2  0
 18 19  2  0
 18 20  1  0
 20 21  1  0
 21 22  1  0
 23 22  1  0
 24 23  1  0
 25 24  1  0
 25 20  1  0
  1 26  1  0
  1 27  1  0
  2 28  1  0
  2 29  1  0
  6 30  1  0
  7 31  1  0
 10 32  1  0
 13 33  1  0
 14 34  1  0
 20 35  1  0
 21 36  1  0
 21 37  1  0
 22 38  1  0
 22 39  1  0
 23 40  1  0
 23 41  1  0
 24 42  1  0
 24 43  1  0
 25 44  1  0
 25 45  1  0
M  ISO  8  26   8  27   8  28   8  29   8  30  14  31  14  32  14  33  14
M  ISO  8  34  14  35  13  36  13  37  13  38  13  39  13  40  13  41  13
M  ISO  4  42  13  43  13  44  13  45  13
M  END
>  <minimizedAffinity>  (1) 
-6.83355379

>  <minimizedRMSD>  (1) 
0.416523755

$$$$
