
     RDKit          3D

 29 30  0  0  0  0  0  0  0  0999 V2000
   44.5600   36.0103   44.4959 C   0  0  0  0  0  0  0  0  0  0  0  0
   45.3058   35.9229   43.2947 C   0  0  0  0  0  0  0  0  0  0  0  0
   46.1939   34.8585   43.1708 C   0  0  0  0  0  0  0  0  0  0  0  0
   46.3108   33.9588   44.1881 N   0  0  0  0  0  0  0  0  0  0  0  0
   45.5691   34.0859   45.3280 C   0  0  0  0  0  0  0  0  0  0  0  0
   44.7024   35.1043   45.4764 N   0  0  0  0  0  0  0  0  0  0  0  0
   46.9601   34.7743   41.9291 C   0  0  0  0  0  0  0  0  0  0  0  0
   43.8673   36.8277   44.6099 H   0  0  0  0  0  0  0  0  0  0  0  0
   45.1559   36.6696   42.5439 H   0  0  0  0  0  0  0  0  0  0  0  0
   45.6607   33.3798   46.1265 H   0  0  0  0  0  0  0  0  0  0  0  0
   47.2149   33.7053   41.7702 H   0  0  0  0  0  0  0  0  0  0  0  0
   46.4079   35.1105   41.0431 H   0  0  0  0  0  0  0  0  0  0  0  0
   48.2732   35.5063   41.9812 C   0  0  0  0  0  0  0  0  0  0  0  0
   49.4354   34.7468   41.4163 C   0  0  0  0  0  0  0  0  0  0  0  0
   50.6852   35.4566   41.9414 C   0  0  0  0  0  0  0  0  0  0  0  0
   50.6847   36.8388   41.3467 C   0  0  0  0  0  0  0  0  0  0  0  0
   49.4540   37.6039   41.7742 C   0  0  0  0  0  0  0  0  0  0  0  0
   48.2173   36.8469   41.2750 C   0  0  0  0  0  0  0  0  0  0  0  0
   48.5266   35.7311   43.0368 H   0  0  0  0  0  0  0  0  0  0  0  0
   49.5037   34.7982   40.3094 H   0  0  0  0  0  0  0  0  0  0  0  0
   49.4750   33.6938   41.7555 H   0  0  0  0  0  0  0  0  0  0  0  0
   50.5261   35.5675   43.0439 H   0  0  0  0  0  0  0  0  0  0  0  0
   51.5990   34.9190   41.6687 H   0  0  0  0  0  0  0  0  0  0  0  0
   51.5633   37.4311   41.7208 H   0  0  0  0  0  0  0  0  0  0  0  0
   50.7177   36.7316   40.2481 H   0  0  0  0  0  0  0  0  0  0  0  0
   49.3656   37.5719   42.8785 H   0  0  0  0  0  0  0  0  0  0  0  0
   49.4715   38.6280   41.3977 H   0  0  0  0  0  0  0  0  0  0  0  0
   47.3044   37.3692   41.6118 H   0  0  0  0  0  0  0  0  0  0  0  0
   48.2480   36.7459   40.1660 H   0  0  0  0  0  0  0  0  0  0  0  0
  1  6  2  0
  2  1  1  0
  3  2  2  0
  3  4  1  0
  4  5  2  0
  5  6  1  0
  7  3  1  0
  1  8  1  0
  2  9  1  0
  5 10  1  0
  7 11  1  0
  7 12  1  0
 13 14  1  0
 14 15  1  0
 15 16  1  0
 16 17  1  0
 17 18  1  0
 18 13  1  0
 13 19  1  0
 14 20  1  0
 14 21  1  0
 15 22  1  0
 15 23  1  0
 16 24  1  0
 16 25  1  0
 17 26  1  0
 17 27  1  0
 18 28  1  0
 18 29  1  0
  7 13  1  0
M  ISO  5   8  14   9  14  10  14  11   8  12   8
M  END
>  <DihAtoms>  (1) 
2,6,12,13

>  <DihDeg>  (1) 
-59.99933838426612

$$$$
