
     RDKit          3D

 42 43  0  0  0  0  0  0  0  0999 V2000
   43.7611   35.7088   41.6996 C   0  0  0  0  0  0  0  0  0  0  0  0
   43.4358   35.6555   43.1183 N   0  0  0  0  0  0  0  0  0  0  0  0
   44.8263   35.8371   44.1043 S   0  0  0  0  0  0  0  0  0  0  0  0
   46.0721   35.3482   43.4304 O   0  0  0  0  0  0  0  0  0  0  0  0
   44.9612   37.3287   44.3661 O   0  0  0  0  0  0  0  0  0  0  0  0
   44.5880   35.0851   45.5732 O   0  0  0  0  0  0  0  0  0  0  0  0
   45.4185   34.0047   45.7495 C   0  0  0  0  0  0  0  0  0  0  0  0
   43.4054   34.1047   41.0033 S   0  0  0  0  0  0  0  0  0  0  0  0
   40.8842   33.0304   41.3637 C   0  0  0  0  0  0  0  0  0  0  0  0
   41.6318   33.9714   40.6759 C   0  0  0  0  0  0  0  0  0  0  0  0
   41.0385   34.8084   39.7399 C   0  0  0  0  0  0  0  0  0  0  0  0
   39.7064   34.6610   39.5344 N   0  0  0  0  0  0  0  0  0  0  0  0
   39.0088   33.7329   40.2227 C   0  0  0  0  0  0  0  0  0  0  0  0
   39.5573   32.9167   41.1281 N   0  0  0  0  0  0  0  0  0  0  0  0
   37.6318   33.5775   40.0116 O   0  0  0  0  0  0  0  0  0  0  0  0
   44.8676   35.8656   41.6445 H   0  0  0  0  0  0  0  0  0  0  0  0
   43.2470   36.5398   41.1907 H   0  0  0  0  0  0  0  0  0  0  0  0
   42.7790   36.4408   43.3283 H   0  0  0  0  0  0  0  0  0  0  0  0
   46.0892   34.5395   42.8351 H   0  0  0  0  0  0  0  0  0  0  0  0
   45.5974   37.7139   45.0170 H   0  0  0  0  0  0  0  0  0  0  0  0
   44.8841   33.2390   46.3466 H   0  0  0  0  0  0  0  0  0  0  0  0
   45.6379   33.5765   44.7397 H   0  0  0  0  0  0  0  0  0  0  0  0
   46.3639   34.2969   46.2611 H   0  0  0  0  0  0  0  0  0  0  0  0
   41.3617   32.3846   42.0913 H   0  0  0  0  0  0  0  0  0  0  0  0
   41.6322   35.5391   39.2093 H   0  0  0  0  0  0  0  0  0  0  0  0
   37.0553   34.4469   39.0481 C   0  0  0  0  0  0  0  0  0  0  0  0
   37.2382   35.8666   39.5428 C   0  0  0  0  0  0  0  0  0  0  0  0
   36.6225   36.8254   38.5469 C   0  0  0  0  0  0  0  0  0  0  0  0
   37.2060   36.6270   37.1636 C   0  0  0  0  0  0  0  0  0  0  0  0
   36.9815   35.1835   36.7204 C   0  0  0  0  0  0  0  0  0  0  0  0
   37.6672   34.2774   37.6911 C   0  0  0  0  0  0  0  0  0  0  0  0
   35.9648   34.2451   38.9547 H   0  0  0  0  0  0  0  0  0  0  0  0
   38.2962   36.1046   39.6662 H   0  0  0  0  0  0  0  0  0  0  0  0
   36.7044   35.9837   40.5033 H   0  0  0  0  0  0  0  0  0  0  0  0
   36.7813   37.8663   38.8489 H   0  0  0  0  0  0  0  0  0  0  0  0
   35.5387   36.6407   38.4887 H   0  0  0  0  0  0  0  0  0  0  0  0
   36.6248   37.2827   36.4735 H   0  0  0  0  0  0  0  0  0  0  0  0
   38.2665   36.8805   37.1092 H   0  0  0  0  0  0  0  0  0  0  0  0
   35.9171   34.9762   36.6081 H   0  0  0  0  0  0  0  0  0  0  0  0
   37.4580   35.1062   35.7043 H   0  0  0  0  0  0  0  0  0  0  0  0
   37.4593   33.2201   37.3631 H   0  0  0  0  0  0  0  0  0  0  0  0
   38.7411   34.5102   37.6601 H   0  0  0  0  0  0  0  0  0  0  0  0
  1  2  1  0
  2  3  1  0
  3  5  1  0
  3  6  1  0
  4  3  1  0
  6  7  1  0
  8  1  1  0
 10  8  1  0
 10  9  2  0
 11 10  1  0
 12 11  2  0
 12 13  1  0
 13 14  2  0
 14  9  1  0
 15 13  1  0
  1 16  1  0
  1 17  1  0
  2 18  1  0
  4 19  1  0
  5 20  1  0
  7 21  1  0
  7 22  1  0
  7 23  1  0
  9 24  1  0
 11 25  1  0
 26 27  1  0
 27 28  1  0
 28 29  1  0
 29 30  1  0
 30 31  1  0
 31 26  1  0
 26 32  1  0
 27 33  1  0
 27 34  1  0
 28 35  1  0
 28 36  1  0
 29 37  1  0
 29 38  1  0
 30 39  1  0
 30 40  1  0
 31 41  1  0
 31 42  1  0
 15 26  1  0
M  ISO  8  16   8  17   8  18   5  19   3  20   3  21   8  22   8  23   8
M  ISO  2  24  14  25  14
M  END
>  <DihAtoms>  (1) 
12,14,25,26

>  <DihDeg>  (1) 
117.9896095813171

$$$$
