
     RDKit          3D

 40 42  0  0  0  0  0  0  0  0999 V2000
   46.5800   34.7390   41.9670 C   0  0  0  0  0  0  0  0  0  0  0  0
   47.8950   35.1670   41.9090 C   0  0  0  0  0  0  0  0  0  0  0  0
   48.6090   34.9620   40.7420 C   0  0  0  0  0  0  0  0  0  0  0  0
   48.0080   34.3430   39.6750 C   0  0  0  0  0  0  0  0  0  0  0  0
   46.7120   33.9100   39.7040 C   0  0  0  0  0  0  0  0  0  0  0  0
   46.0110   34.1290   40.8940 C   0  0  0  0  0  0  0  0  0  0  0  0
   44.5070   36.2230   44.7570 C   0  0  0  0  0  0  0  0  0  0  0  0
   45.1400   36.1100   43.5010 C   0  0  0  0  0  0  0  0  0  0  0  0
   45.8760   34.9830   43.2230 C   0  0  0  0  0  0  0  0  0  0  0  0
   45.9460   34.0320   44.2000 N   0  0  0  0  0  0  0  0  0  0  0  0
   45.3440   34.1360   45.4000 C   0  0  0  0  0  0  0  0  0  0  0  0
   44.6080   35.2580   45.6800 N   0  0  0  0  0  0  0  0  0  0  0  0
   43.4050   34.3280   40.7860 C   0  0  0  0  0  0  0  0  0  0  0  0
   43.1920   35.4420   40.3050 O   0  0  0  0  0  0  0  0  0  0  0  0
   44.6610   33.7290   41.0580 N   0  0  0  0  0  0  0  0  0  0  0  0
   42.2290   33.4510   41.1500 C   0  0  0  0  0  0  0  0  0  0  0  0
   42.0290   32.5470   39.9750 C   0  0  0  0  0  0  0  0  0  0  0  0
   40.9530   33.1990   39.1110 C   0  0  0  0  0  0  0  0  0  0  0  0
   39.6520   32.9500   39.8830 C   0  0  0  0  0  0  0  0  0  0  0  0
   39.7260   33.8170   41.1040 C   0  0  0  0  0  0  0  0  0  0  0  0
   41.0800   34.3640   41.4200 C   0  0  0  0  0  0  0  0  0  0  0  0
   48.3630   35.6603   42.7736 H   0  0  0  0  0  0  0  0  0  0  0  0
   49.6552   35.2941   40.6696 H   0  0  0  0  0  0  0  0  0  0  0  0
   48.5943   34.1887   38.7571 H   0  0  0  0  0  0  0  0  0  0  0  0
   46.2459   33.4162   38.8386 H   0  0  0  0  0  0  0  0  0  0  0  0
   43.9175   37.1238   44.9830 H   0  0  0  0  0  0  0  0  0  0  0  0
   45.0458   36.9127   42.7548 H   0  0  0  0  0  0  0  0  0  0  0  0
   45.4414   33.3323   46.1447 H   0  0  0  0  0  0  0  0  0  0  0  0
   44.5722   32.7885   41.4685 H   0  0  0  0  0  0  0  0  0  0  0  0
   42.3623   32.8277   42.0465 H   0  0  0  0  0  0  0  0  0  0  0  0
   42.9656   32.4482   39.4067 H   0  0  0  0  0  0  0  0  0  0  0  0
   41.7287   31.5379   40.2936 H   0  0  0  0  0  0  0  0  0  0  0  0
   40.9131   32.7299   38.1169 H   0  0  0  0  0  0  0  0  0  0  0  0
   41.1423   34.2684   38.9364 H   0  0  0  0  0  0  0  0  0  0  0  0
   38.7832   33.2282   39.2684 H   0  0  0  0  0  0  0  0  0  0  0  0
   39.5365   31.8886   40.1479 H   0  0  0  0  0  0  0  0  0  0  0  0
   39.0421   34.6663   40.9592 H   0  0  0  0  0  0  0  0  0  0  0  0
   39.4546   33.1707   41.9517 H   0  0  0  0  0  0  0  0  0  0  0  0
   41.0984   34.6225   42.4890 H   0  0  0  0  0  0  0  0  0  0  0  0
   41.2184   35.2245   40.7489 H   0  0  0  0  0  0  0  0  0  0  0  0
  1  9  1  0
  2  1  2  0
  3  2  1  0
  4  5  1  0
  4  3  2  0
  5  6  2  0
  6 15  1  0
  6  1  1  0
  7 12  2  0
  8  7  1  0
  9  8  2  0
  9 10  1  0
 10 11  2  0
 11 12  1  0
 13 15  1  0
 13 16  1  0
 14 13  2  0
 16 21  1  0
 17 16  1  0
 18 19  1  0
 18 17  1  0
 19 20  1  0
 20 21  1  0
  2 22  1  0
  3 23  1  0
  4 24  1  0
  5 25  1  0
  7 26  1  0
  8 27  1  0
 11 28  1  0
 15 29  1  0
 16 30  1  0
 17 31  1  0
 17 32  1  0
 18 33  1  0
 18 34  1  0
 19 35  1  0
 19 36  1  0
 20 37  1  0
 20 38  1  0
 21 39  1  0
 21 40  1  0
M  ISO  8  22  14  23  14  24  14  25  14  26  14  27  14  28  14  30  13
M  ISO  8  31  13  32  13  33  13  34  13  35  13  36  13  37  13  38  13
M  ISO  2  39  13  40  13
M  END
>  <minimizedAffinity>  (1) 
-6.26613712

>  <minimizedRMSD>  (1) 
0.965750813

$$$$
