
     RDKit          3D

 30 31  0  0  0  0  0  0  0  0999 V2000
   44.9148   35.1057   44.9432 C   0  0  0  0  0  0  0  0  0  0  0  0
   45.8265   34.7551   43.9485 C   0  0  0  0  0  0  0  0  0  0  0  0
   46.6824   33.6977   44.2188 C   0  0  0  0  0  0  0  0  0  0  0  0
   46.6051   33.0593   45.4078 N   0  0  0  0  0  0  0  0  0  0  0  0
   45.7088   33.4327   46.3383 C   0  0  0  0  0  0  0  0  0  0  0  0
   44.8536   34.4533   46.1276 N   0  0  0  0  0  0  0  0  0  0  0  0
   45.7967   35.5537   42.6794 C   0  0  0  0  0  0  0  0  0  0  0  0
   45.3491   36.8055   43.0307 F   0  0  0  0  0  0  0  0  0  0  0  0
   44.9101   34.9457   41.8287 F   0  0  0  0  0  0  0  0  0  0  0  0
   47.0755   35.5490   42.1553 F   0  0  0  0  0  0  0  0  0  0  0  0
   45.6234   32.7772   47.5696 O   0  0  0  0  0  0  0  0  0  0  0  0
   44.2201   35.9163   44.8026 H   0  0  0  0  0  0  0  0  0  0  0  0
   47.3775   33.4447   43.4367 H   0  0  0  0  0  0  0  0  0  0  0  0
   46.4690   31.6929   47.9022 C   0  0  0  0  0  0  0  0  0  0  0  0
   47.8082   31.8433   47.2401 C   0  0  0  0  0  0  0  0  0  0  0  0
   47.9961   30.9767   46.0372 C   0  0  0  0  0  0  0  0  0  0  0  0
   47.6757   29.5287   46.2764 C   0  0  0  0  0  0  0  0  0  0  0  0
   46.7195   29.2864   47.4114 C   0  0  0  0  0  0  0  0  0  0  0  0
   45.7514   30.4303   47.4723 C   0  0  0  0  0  0  0  0  0  0  0  0
   46.6628   31.6373   48.9939 H   0  0  0  0  0  0  0  0  0  0  0  0
   48.6687   31.6806   47.9478 H   0  0  0  0  0  0  0  0  0  0  0  0
   47.9022   32.9004   46.9057 H   0  0  0  0  0  0  0  0  0  0  0  0
   49.0863   31.0321   45.7741 H   0  0  0  0  0  0  0  0  0  0  0  0
   47.4215   31.3999   45.2072 H   0  0  0  0  0  0  0  0  0  0  0  0
   47.2017   29.1410   45.3477 H   0  0  0  0  0  0  0  0  0  0  0  0
   48.5970   28.9137   46.4394 H   0  0  0  0  0  0  0  0  0  0  0  0
   47.2638   29.1673   48.3536 H   0  0  0  0  0  0  0  0  0  0  0  0
   46.1166   28.3611   47.1837 H   0  0  0  0  0  0  0  0  0  0  0  0
   44.9159   30.2281   48.1633 H   0  0  0  0  0  0  0  0  0  0  0  0
   45.3946   30.6503   46.4233 H   0  0  0  0  0  0  0  0  0  0  0  0
  1  6  2  0
  2  3  2  0
  2  1  1  0
  3  4  1  0
  4  5  2  0
  5 11  1  0
  6  5  1  0
  7  8  1  0
  7  2  1  0
  9  7  1  0
 10  7  1  0
  1 12  1  0
  3 13  1  0
 14 15  1  0
 15 16  1  0
 16 17  1  0
 17 18  1  0
 18 19  1  0
 19 14  1  0
 14 20  1  0
 15 21  1  0
 15 22  1  0
 16 23  1  0
 16 24  1  0
 17 25  1  0
 17 26  1  0
 18 27  1  0
 18 28  1  0
 19 29  1  0
 19 30  1  0
 11 14  1  0
M  ISO  2  12  14  13  14
M  END
>  <DihAtoms>  (1) 
4,10,13,14

>  <DihDeg>  (1) 
-118.56017576723124

$$$$
