
     RDKit          3D

 37 39  0  0  0  0  0  0  0  0999 V2000
   45.2640   36.1562   43.1801 C   0  0  0  0  0  0  0  0  0  0  0  0
   45.8743   34.9104   42.8912 C   0  0  0  0  0  0  0  0  0  0  0  0
   45.8269   33.9514   43.9011 C   0  0  0  0  0  0  0  0  0  0  0  0
   45.2265   34.2270   45.0738 N   0  0  0  0  0  0  0  0  0  0  0  0
   44.6465   35.4465   45.3152 C   0  0  0  0  0  0  0  0  0  0  0  0
   44.6821   36.3729   44.3640 N   0  0  0  0  0  0  0  0  0  0  0  0
   46.4479   32.6567   43.6321 C   0  0  0  0  0  0  0  0  0  0  0  0
   45.6661   31.5760   43.2982 C   0  0  0  0  0  0  0  0  0  0  0  0
   46.2775   30.3676   43.0498 C   0  0  0  0  0  0  0  0  0  0  0  0
   47.6519   30.1807   43.1191 C   0  0  0  0  0  0  0  0  0  0  0  0
   48.3810   31.3158   43.4621 C   0  0  0  0  0  0  0  0  0  0  0  0
   47.7664   32.4829   43.6999 N   0  0  0  0  0  0  0  0  0  0  0  0
   46.4930   34.6759   41.6360 C   0  0  0  0  0  0  0  0  0  0  0  0
   47.6657   35.1380   41.4864 O   0  0  0  0  0  0  0  0  0  0  0  0
   45.2755   36.9454   42.4145 H   0  0  0  0  0  0  0  0  0  0  0  0
   44.2074   35.5124   46.2999 H   0  0  0  0  0  0  0  0  0  0  0  0
   44.5704   31.6418   43.2223 H   0  0  0  0  0  0  0  0  0  0  0  0
   45.6863   29.4829   42.7806 H   0  0  0  0  0  0  0  0  0  0  0  0
   48.1446   29.2424   42.9278 H   0  0  0  0  0  0  0  0  0  0  0  0
   49.4619   31.2711   43.5419 H   0  0  0  0  0  0  0  0  0  0  0  0
   46.0432   33.9720   40.3978 C   0  0  0  0  0  0  0  0  0  0  0  0
   46.4625   32.5433   40.5437 C   0  0  0  0  0  0  0  0  0  0  0  0
   46.4975   31.7679   39.2586 C   0  0  0  0  0  0  0  0  0  0  0  0
   47.1736   32.4931   38.1397 C   0  0  0  0  0  0  0  0  0  0  0  0
   47.6375   33.8708   38.4883 C   0  0  0  0  0  0  0  0  0  0  0  0
   46.5647   34.6641   39.1843 C   0  0  0  0  0  0  0  0  0  0  0  0
   44.9309   34.0320   40.3577 H   0  0  0  0  0  0  0  0  0  0  0  0
   47.4076   32.4825   41.1171 H   0  0  0  0  0  0  0  0  0  0  0  0
   45.6986   32.0459   41.2097 H   0  0  0  0  0  0  0  0  0  0  0  0
   45.4385   31.4736   39.0118 H   0  0  0  0  0  0  0  0  0  0  0  0
   47.0816   30.8333   39.4772 H   0  0  0  0  0  0  0  0  0  0  0  0
   48.0583   31.9384   37.7677 H   0  0  0  0  0  0  0  0  0  0  0  0
   46.4637   32.5728   37.2786 H   0  0  0  0  0  0  0  0  0  0  0  0
   47.8457   34.3856   37.5215 H   0  0  0  0  0  0  0  0  0  0  0  0
   48.6020   33.8505   39.0655 H   0  0  0  0  0  0  0  0  0  0  0  0
   47.0009   35.6678   39.4113 H   0  0  0  0  0  0  0  0  0  0  0  0
   45.7806   34.8649   38.4322 H   0  0  0  0  0  0  0  0  0  0  0  0
  1  6  2  0
  2  1  1  0
  2  3  2  0
  3  4  1  0
  4  5  2  0
  6  5  1  0
  7 12  1  0
  7  3  1  0
  8  7  2  0
  9 10  2  0
  9  8  1  0
 10 11  1  0
 11 12  2  0
 13  2  1  0
 14 13  2  0
  1 15  1  0
  5 16  1  0
  8 17  1  0
  9 18  1  0
 10 19  1  0
 11 20  1  0
 21 22  1  0
 22 23  1  0
 23 24  1  0
 24 25  1  0
 25 26  1  0
 26 21  1  0
 21 27  1  0
 22 28  1  0
 22 29  1  0
 23 30  1  0
 23 31  1  0
 24 32  1  0
 24 33  1  0
 25 34  1  0
 25 35  1  0
 26 36  1  0
 26 37  1  0
 13 21  1  0
M  ISO  6  15  14  16  14  17  14  18  14  19  14  20  14
M  END
>  <DihAtoms>  (1) 
1,12,20,21

>  <DihDeg>  (1) 
179.99079589226383

$$$$
