
     RDKit          3D

 55 58  0  0  1  0  0  0  0  0999 V2000
   46.0540   33.7980   43.2700 C   0  0  2  0  0  0  0  0  0  0  0  0
   45.1960   34.8440   42.6500 C   0  0  2  0  0  0  0  0  0  0  0  0
   45.0410   36.0500   43.5020 C   0  0  0  0  0  0  0  0  0  0  0  0
   44.6020   35.7590   44.9170 C   0  0  0  0  0  0  0  0  0  0  0  0
   45.1610   34.4860   45.4800 C   0  0  0  0  0  0  0  0  0  0  0  0
   46.3910   34.0300   44.7170 C   0  0  0  0  0  0  0  0  0  0  0  0
   42.8870   35.2270   41.6960 C   0  0  1  0  0  0  0  0  0  0  0  0
   43.8500   34.2630   42.2810 C   0  0  1  0  0  0  0  0  0  0  0  0
   44.0590   33.2350   41.3690 O   0  0  0  0  0  0  0  0  0  0  0  0
   43.6750   33.6830   40.1170 C   0  0  0  0  0  0  0  0  0  0  0  0
   42.4100   34.4560   40.4580 C   0  0  2  0  0  0  0  0  0  0  0  0
   41.7920   35.4850   42.4920 O   0  0  0  0  0  0  0  0  0  0  0  0
   42.0650   35.3540   39.4590 O   0  0  0  0  0  0  0  0  0  0  0  0
   40.8290   34.9860   38.9370 C   0  0  0  0  0  0  0  0  0  0  0  0
   40.8800   33.4930   38.6680 C   0  0  0  0  0  0  0  0  0  0  0  0
   39.7340   33.1810   37.7110 C   0  0  0  0  0  0  0  0  0  0  0  0
   38.5920   34.1120   38.0610 C   0  0  0  0  0  0  0  0  0  0  0  0
   38.5520   34.3630   39.5560 C   0  0  0  0  0  0  0  0  0  0  0  0
   39.7200   35.2230   39.9550 C   0  0  0  0  0  0  0  0  0  0  0  0
   47.3110   33.5840   42.5270 C   0  0  0  0  0  0  0  0  0  0  0  0
   48.3880   34.3590   42.9590 C   0  0  0  0  0  0  0  0  0  0  0  0
   49.6400   34.2450   42.3370 C   0  0  0  0  0  0  0  0  0  0  0  0
   49.7070   33.3280   41.2930 N   0  0  0  0  0  0  0  0  0  0  0  0
   48.6390   32.5970   40.9050 C   0  0  0  0  0  0  0  0  0  0  0  0
   47.4280   32.7160   41.5170 N   0  0  0  0  0  0  0  0  0  0  0  0
   45.4232   32.8984   43.2167 H   0  0  0  0  0  0  0  0  0  0  0  0
   45.7079   35.1805   41.7364 H   0  0  0  0  0  0  0  0  0  0  0  0
   46.0093   36.5704   43.5419 H   0  0  0  0  0  0  0  0  0  0  0  0
   44.2470   36.6587   43.0448 H   0  0  0  0  0  0  0  0  0  0  0  0
   44.9260   36.5922   45.5579 H   0  0  0  0  0  0  0  0  0  0  0  0
   43.5084   35.6431   44.8933 H   0  0  0  0  0  0  0  0  0  0  0  0
   45.4348   34.6512   46.5325 H   0  0  0  0  0  0  0  0  0  0  0  0
   44.3922   33.7042   45.3919 H   0  0  0  0  0  0  0  0  0  0  0  0
   46.7639   33.0933   45.1570 H   0  0  0  0  0  0  0  0  0  0  0  0
   47.1620   34.8118   44.7829 H   0  0  0  0  0  0  0  0  0  0  0  0
   43.3513   36.2099   41.5277 H   0  0  0  0  0  0  0  0  0  0  0  0
   43.3939   33.9193   43.2211 H   0  0  0  0  0  0  0  0  0  0  0  0
   43.4648   32.8454   39.4356 H   0  0  0  0  0  0  0  0  0  0  0  0
   44.4402   34.2754   39.5940 H   0  0  0  0  0  0  0  0  0  0  0  0
   41.5234   33.8193   40.5946 H   0  0  0  0  0  0  0  0  0  0  0  0
   42.0545   35.4231   43.4445 H   0  0  0  0  0  0  0  0  0  0  0  0
   40.6257   35.5757   38.0309 H   0  0  0  0  0  0  0  0  0  0  0  0
   41.8421   33.2232   38.2081 H   0  0  0  0  0  0  0  0  0  0  0  0
   40.7835   32.9191   39.6015 H   0  0  0  0  0  0  0  0  0  0  0  0
   39.4173   32.1344   37.8309 H   0  0  0  0  0  0  0  0  0  0  0  0
   40.0479   33.3236   36.6664 H   0  0  0  0  0  0  0  0  0  0  0  0
   38.7311   35.0689   37.5367 H   0  0  0  0  0  0  0  0  0  0  0  0
   37.6448   33.6455   37.7526 H   0  0  0  0  0  0  0  0  0  0  0  0
   37.6142   34.8757   39.8161 H   0  0  0  0  0  0  0  0  0  0  0  0
   38.6068   33.4024   40.0892 H   0  0  0  0  0  0  0  0  0  0  0  0
   40.0667   34.9432   40.9607 H   0  0  0  0  0  0  0  0  0  0  0  0
   39.4318   36.2844   39.9755 H   0  0  0  0  0  0  0  0  0  0  0  0
   48.2543   35.0639   43.7928 H   0  0  0  0  0  0  0  0  0  0  0  0
   50.5095   34.8400   42.6531 H   0  0  0  0  0  0  0  0  0  0  0  0
   48.7505   31.8867   40.0725 H   0  0  0  0  0  0  0  0  0  0  0  0
  1  6  1  0
  2  1  1  0
  2  3  1  0
  3  4  1  0
  4  5  1  0
  6  5  1  0
  7  8  1  0
  7 12  1  0
  8  2  1  0
  9  8  1  0
 10 11  1  0
 10  9  1  0
 11  7  1  0
 13 11  1  0
 14 13  1  0
 14 19  1  0
 15 14  1  0
 16 17  1  0
 16 15  1  0
 17 18  1  0
 18 19  1  0
 20 21  2  0
 20  1  1  0
 22 21  1  0
 23 22  2  0
 24 23  1  0
 24 25  2  0
 25 20  1  0
  1 26  1  1
  2 27  1  6
  3 28  1  0
  3 29  1  0
  4 30  1  0
  4 31  1  0
  5 32  1  0
  5 33  1  0
  6 34  1  0
  6 35  1  0
  7 36  1  6
  8 37  1  1
 10 38  1  0
 10 39  1  0
 11 40  1  1
 12 41  1  0
 14 42  1  0
 15 43  1  0
 15 44  1  0
 16 45  1  0
 16 46  1  0
 17 47  1  0
 17 48  1  0
 18 49  1  0
 18 50  1  0
 19 51  1  0
 19 52  1  0
 21 53  1  0
 22 54  1  0
 24 55  1  0
M  ISO  8  26  13  27  13  28  13  29  13  30  13  31  13  32  13  33  13
M  ISO  8  34  13  35  13  36  13  37  13  38  13  39  13  40  13  41   3
M  ISO  8  42  13  43  13  44  13  45  13  46  13  47  13  48  13  49  13
M  ISO  6  50  13  51  13  52  13  53  14  54  14  55  14
M  END
>  <minimizedAffinity>  (1) 
-6.95891094

>  <minimizedRMSD>  (1) 
0.682048559

$$$$
