
     RDKit          3D

 37 39  0  0  0  0  0  0  0  0999 V2000
   45.2640   36.1562   43.1801 C   0  0  0  0  0  0  0  0  0  0  0  0
   45.8743   34.9104   42.8912 C   0  0  0  0  0  0  0  0  0  0  0  0
   45.8269   33.9514   43.9011 C   0  0  0  0  0  0  0  0  0  0  0  0
   45.2265   34.2270   45.0738 N   0  0  0  0  0  0  0  0  0  0  0  0
   44.6465   35.4465   45.3152 C   0  0  0  0  0  0  0  0  0  0  0  0
   44.6821   36.3729   44.3640 N   0  0  0  0  0  0  0  0  0  0  0  0
   46.4479   32.6567   43.6321 C   0  0  0  0  0  0  0  0  0  0  0  0
   45.6661   31.5760   43.2982 C   0  0  0  0  0  0  0  0  0  0  0  0
   46.2775   30.3676   43.0498 C   0  0  0  0  0  0  0  0  0  0  0  0
   47.6519   30.1807   43.1191 C   0  0  0  0  0  0  0  0  0  0  0  0
   48.3810   31.3158   43.4621 C   0  0  0  0  0  0  0  0  0  0  0  0
   47.7664   32.4829   43.6999 N   0  0  0  0  0  0  0  0  0  0  0  0
   46.4930   34.6759   41.6360 C   0  0  0  0  0  0  0  0  0  0  0  0
   47.6657   35.1380   41.4864 O   0  0  0  0  0  0  0  0  0  0  0  0
   45.2755   36.9454   42.4145 H   0  0  0  0  0  0  0  0  0  0  0  0
   44.2074   35.5124   46.2999 H   0  0  0  0  0  0  0  0  0  0  0  0
   44.5704   31.6418   43.2223 H   0  0  0  0  0  0  0  0  0  0  0  0
   45.6863   29.4829   42.7806 H   0  0  0  0  0  0  0  0  0  0  0  0
   48.1446   29.2424   42.9278 H   0  0  0  0  0  0  0  0  0  0  0  0
   49.4619   31.2711   43.5419 H   0  0  0  0  0  0  0  0  0  0  0  0
   46.0432   33.9720   40.3978 C   0  0  0  0  0  0  0  0  0  0  0  0
   44.8462   33.1601   40.7802 C   0  0  0  0  0  0  0  0  0  0  0  0
   44.5024   32.0615   39.8165 C   0  0  0  0  0  0  0  0  0  0  0  0
   45.6821   31.2488   39.3888 C   0  0  0  0  0  0  0  0  0  0  0  0
   46.9873   31.7119   39.9518 C   0  0  0  0  0  0  0  0  0  0  0  0
   47.1680   33.1980   39.7986 C   0  0  0  0  0  0  0  0  0  0  0  0
   45.7457   34.7478   39.6548 H   0  0  0  0  0  0  0  0  0  0  0  0
   44.9443   32.8098   41.8259 H   0  0  0  0  0  0  0  0  0  0  0  0
   43.9666   33.8674   40.8034 H   0  0  0  0  0  0  0  0  0  0  0  0
   43.9572   32.5302   38.9492 H   0  0  0  0  0  0  0  0  0  0  0  0
   43.7871   31.3863   40.3596 H   0  0  0  0  0  0  0  0  0  0  0  0
   45.5685   30.1827   39.6703 H   0  0  0  0  0  0  0  0  0  0  0  0
   45.7554   31.2765   38.2727 H   0  0  0  0  0  0  0  0  0  0  0  0
   47.7827   31.2239   39.3418 H   0  0  0  0  0  0  0  0  0  0  0  0
   47.1273   31.3675   41.0128 H   0  0  0  0  0  0  0  0  0  0  0  0
   48.1582   33.4513   40.2510 H   0  0  0  0  0  0  0  0  0  0  0  0
   47.2975   33.3918   38.7186 H   0  0  0  0  0  0  0  0  0  0  0  0
  1  6  2  0
  2  1  1  0
  2  3  2  0
  3  4  1  0
  4  5  2  0
  6  5  1  0
  7 12  1  0
  7  3  1  0
  8  7  2  0
  9 10  2  0
  9  8  1  0
 10 11  1  0
 11 12  2  0
 13  2  1  0
 14 13  2  0
  1 15  1  0
  5 16  1  0
  8 17  1  0
  9 18  1  0
 10 19  1  0
 11 20  1  0
 21 22  1  0
 22 23  1  0
 23 24  1  0
 24 25  1  0
 25 26  1  0
 26 21  1  0
 21 27  1  0
 22 28  1  0
 22 29  1  0
 23 30  1  0
 23 31  1  0
 24 32  1  0
 24 33  1  0
 25 34  1  0
 25 35  1  0
 26 36  1  0
 26 37  1  0
 13 21  1  0
M  ISO  6  15  14  16  14  17  14  18  14  19  14  20  14
M  END
>  <DihAtoms>  (1) 
1,12,20,21

>  <DihDeg>  (1) 
179.99079589226383

$$$$
