
     RDKit          3D

 30 31  0  0  0  0  0  0  0  0999 V2000
   44.9148   35.1057   44.9432 C   0  0  0  0  0  0  0  0  0  0  0  0
   45.8265   34.7551   43.9485 C   0  0  0  0  0  0  0  0  0  0  0  0
   46.6824   33.6977   44.2188 C   0  0  0  0  0  0  0  0  0  0  0  0
   46.6051   33.0593   45.4078 N   0  0  0  0  0  0  0  0  0  0  0  0
   45.7088   33.4327   46.3383 C   0  0  0  0  0  0  0  0  0  0  0  0
   44.8536   34.4533   46.1276 N   0  0  0  0  0  0  0  0  0  0  0  0
   45.7967   35.5537   42.6794 C   0  0  0  0  0  0  0  0  0  0  0  0
   45.3491   36.8055   43.0307 F   0  0  0  0  0  0  0  0  0  0  0  0
   44.9101   34.9457   41.8287 F   0  0  0  0  0  0  0  0  0  0  0  0
   47.0755   35.5490   42.1553 F   0  0  0  0  0  0  0  0  0  0  0  0
   45.6234   32.7772   47.5696 O   0  0  0  0  0  0  0  0  0  0  0  0
   44.2201   35.9163   44.8026 H   0  0  0  0  0  0  0  0  0  0  0  0
   47.3775   33.4447   43.4367 H   0  0  0  0  0  0  0  0  0  0  0  0
   46.4690   31.6929   47.9022 C   0  0  0  0  0  0  0  0  0  0  0  0
   47.6512   31.6404   46.9780 C   0  0  0  0  0  0  0  0  0  0  0  0
   47.5514   30.5929   45.9168 C   0  0  0  0  0  0  0  0  0  0  0  0
   47.2210   29.2253   46.4432 C   0  0  0  0  0  0  0  0  0  0  0  0
   46.5055   29.2282   47.7658 C   0  0  0  0  0  0  0  0  0  0  0  0
   45.6226   30.4391   47.8281 C   0  0  0  0  0  0  0  0  0  0  0  0
   46.8778   31.7855   48.9302 H   0  0  0  0  0  0  0  0  0  0  0  0
   48.6293   31.5194   47.5225 H   0  0  0  0  0  0  0  0  0  0  0  0
   47.7230   32.6258   46.4662 H   0  0  0  0  0  0  0  0  0  0  0  0
   48.5667   30.5251   45.4423 H   0  0  0  0  0  0  0  0  0  0  0  0
   46.8399   30.9308   45.1566 H   0  0  0  0  0  0  0  0  0  0  0  0
   46.5512   28.7413   45.6985 H   0  0  0  0  0  0  0  0  0  0  0  0
   48.1275   28.5728   46.5216 H   0  0  0  0  0  0  0  0  0  0  0  0
   47.2239   29.2091   48.5914 H   0  0  0  0  0  0  0  0  0  0  0  0
   45.8276   28.3281   47.8109 H   0  0  0  0  0  0  0  0  0  0  0  0
   44.9367   30.4063   48.6911 H   0  0  0  0  0  0  0  0  0  0  0  0
   45.0705   30.5274   46.8466 H   0  0  0  0  0  0  0  0  0  0  0  0
  1  6  2  0
  2  3  2  0
  2  1  1  0
  3  4  1  0
  4  5  2  0
  5 11  1  0
  6  5  1  0
  7  8  1  0
  7  2  1  0
  9  7  1  0
 10  7  1  0
  1 12  1  0
  3 13  1  0
 14 15  1  0
 15 16  1  0
 16 17  1  0
 17 18  1  0
 18 19  1  0
 19 14  1  0
 14 20  1  0
 15 21  1  0
 15 22  1  0
 16 23  1  0
 16 24  1  0
 17 25  1  0
 17 26  1  0
 18 27  1  0
 18 28  1  0
 19 29  1  0
 19 30  1  0
 11 14  1  0
M  ISO  2  12  14  13  14
M  END
>  <DihAtoms>  (1) 
4,10,13,14

>  <DihDeg>  (1) 
-118.56017576723124

$$$$
