
     RDKit          3D

 37 39  0  0  0  0  0  0  0  0999 V2000
   45.2640   36.1562   43.1801 C   0  0  0  0  0  0  0  0  0  0  0  0
   45.8743   34.9104   42.8912 C   0  0  0  0  0  0  0  0  0  0  0  0
   45.8269   33.9514   43.9011 C   0  0  0  0  0  0  0  0  0  0  0  0
   45.2265   34.2270   45.0738 N   0  0  0  0  0  0  0  0  0  0  0  0
   44.6465   35.4465   45.3152 C   0  0  0  0  0  0  0  0  0  0  0  0
   44.6821   36.3729   44.3640 N   0  0  0  0  0  0  0  0  0  0  0  0
   46.4479   32.6567   43.6321 C   0  0  0  0  0  0  0  0  0  0  0  0
   45.6661   31.5760   43.2982 C   0  0  0  0  0  0  0  0  0  0  0  0
   46.2775   30.3676   43.0498 C   0  0  0  0  0  0  0  0  0  0  0  0
   47.6519   30.1807   43.1191 C   0  0  0  0  0  0  0  0  0  0  0  0
   48.3810   31.3158   43.4621 C   0  0  0  0  0  0  0  0  0  0  0  0
   47.7664   32.4829   43.6999 N   0  0  0  0  0  0  0  0  0  0  0  0
   46.4930   34.6759   41.6360 C   0  0  0  0  0  0  0  0  0  0  0  0
   47.6657   35.1380   41.4864 O   0  0  0  0  0  0  0  0  0  0  0  0
   45.2755   36.9454   42.4145 H   0  0  0  0  0  0  0  0  0  0  0  0
   44.2074   35.5124   46.2999 H   0  0  0  0  0  0  0  0  0  0  0  0
   44.5704   31.6418   43.2223 H   0  0  0  0  0  0  0  0  0  0  0  0
   45.6863   29.4829   42.7806 H   0  0  0  0  0  0  0  0  0  0  0  0
   48.1446   29.2424   42.9278 H   0  0  0  0  0  0  0  0  0  0  0  0
   49.4619   31.2711   43.5419 H   0  0  0  0  0  0  0  0  0  0  0  0
   46.0432   33.9720   40.3978 C   0  0  0  0  0  0  0  0  0  0  0  0
   44.5627   33.7957   40.5218 C   0  0  0  0  0  0  0  0  0  0  0  0
   43.9794   32.7520   39.6139 C   0  0  0  0  0  0  0  0  0  0  0  0
   44.7495   31.4707   39.6015 C   0  0  0  0  0  0  0  0  0  0  0  0
   45.9826   31.4836   40.4466 C   0  0  0  0  0  0  0  0  0  0  0  0
   46.8166   32.7122   40.2024 C   0  0  0  0  0  0  0  0  0  0  0  0
   46.2685   34.6338   39.5297 H   0  0  0  0  0  0  0  0  0  0  0  0
   44.2856   33.6553   41.5845 H   0  0  0  0  0  0  0  0  0  0  0  0
   44.0922   34.7818   40.2379 H   0  0  0  0  0  0  0  0  0  0  0  0
   43.8792   33.2115   38.5903 H   0  0  0  0  0  0  0  0  0  0  0  0
   42.9487   32.5403   40.0081 H   0  0  0  0  0  0  0  0  0  0  0  0
   44.1308   30.6177   39.9453 H   0  0  0  0  0  0  0  0  0  0  0  0
   45.0516   31.2401   38.5491 H   0  0  0  0  0  0  0  0  0  0  0  0
   46.5930   30.6080   40.1240 H   0  0  0  0  0  0  0  0  0  0  0  0
   45.7418   31.3350   41.5346 H   0  0  0  0  0  0  0  0  0  0  0  0
   47.7045   32.6393   40.8774 H   0  0  0  0  0  0  0  0  0  0  0  0
   47.2327   32.6155   39.1835 H   0  0  0  0  0  0  0  0  0  0  0  0
  1  6  2  0
  2  1  1  0
  2  3  2  0
  3  4  1  0
  4  5  2  0
  6  5  1  0
  7 12  1  0
  7  3  1  0
  8  7  2  0
  9 10  2  0
  9  8  1  0
 10 11  1  0
 11 12  2  0
 13  2  1  0
 14 13  2  0
  1 15  1  0
  5 16  1  0
  8 17  1  0
  9 18  1  0
 10 19  1  0
 11 20  1  0
 21 22  1  0
 22 23  1  0
 23 24  1  0
 24 25  1  0
 25 26  1  0
 26 21  1  0
 21 27  1  0
 22 28  1  0
 22 29  1  0
 23 30  1  0
 23 31  1  0
 24 32  1  0
 24 33  1  0
 25 34  1  0
 25 35  1  0
 26 36  1  0
 26 37  1  0
 13 21  1  0
M  ISO  6  15  14  16  14  17  14  18  14  19  14  20  14
M  END
>  <DihAtoms>  (1) 
1,12,20,21

>  <DihDeg>  (1) 
179.99079589226383

$$$$
