
     RDKit          3D

 30 31  0  0  0  0  0  0  0  0999 V2000
   44.9148   35.1057   44.9432 C   0  0  0  0  0  0  0  0  0  0  0  0
   45.8265   34.7551   43.9485 C   0  0  0  0  0  0  0  0  0  0  0  0
   46.6824   33.6977   44.2188 C   0  0  0  0  0  0  0  0  0  0  0  0
   46.6051   33.0593   45.4078 N   0  0  0  0  0  0  0  0  0  0  0  0
   45.7088   33.4327   46.3383 C   0  0  0  0  0  0  0  0  0  0  0  0
   44.8536   34.4533   46.1276 N   0  0  0  0  0  0  0  0  0  0  0  0
   45.7967   35.5537   42.6794 C   0  0  0  0  0  0  0  0  0  0  0  0
   45.3491   36.8055   43.0307 F   0  0  0  0  0  0  0  0  0  0  0  0
   44.9101   34.9457   41.8287 F   0  0  0  0  0  0  0  0  0  0  0  0
   47.0755   35.5490   42.1553 F   0  0  0  0  0  0  0  0  0  0  0  0
   45.6234   32.7772   47.5696 O   0  0  0  0  0  0  0  0  0  0  0  0
   44.2201   35.9163   44.8026 H   0  0  0  0  0  0  0  0  0  0  0  0
   47.3775   33.4447   43.4367 H   0  0  0  0  0  0  0  0  0  0  0  0
   46.4690   31.6929   47.9022 C   0  0  0  0  0  0  0  0  0  0  0  0
   47.1748   31.1779   46.6811 C   0  0  0  0  0  0  0  0  0  0  0  0
   46.5982   29.9146   46.1290 C   0  0  0  0  0  0  0  0  0  0  0  0
   46.4311   28.8263   47.1509 C   0  0  0  0  0  0  0  0  0  0  0  0
   46.3090   29.3204   48.5659 C   0  0  0  0  0  0  0  0  0  0  0  0
   45.5953   30.6395   48.5509 C   0  0  0  0  0  0  0  0  0  0  0  0
   47.2611   31.9896   48.6212 H   0  0  0  0  0  0  0  0  0  0  0  0
   48.2808   31.0381   46.8394 H   0  0  0  0  0  0  0  0  0  0  0  0
   47.0901   31.9554   45.8896 H   0  0  0  0  0  0  0  0  0  0  0  0
   47.3315   29.5385   45.3664 H   0  0  0  0  0  0  0  0  0  0  0  0
   45.6613   30.1523   45.6151 H   0  0  0  0  0  0  0  0  0  0  0  0
   45.4923   28.2843   46.9009 H   0  0  0  0  0  0  0  0  0  0  0  0
   47.2544   28.0692   47.0998 H   0  0  0  0  0  0  0  0  0  0  0  0
   47.2964   29.4007   49.0314 H   0  0  0  0  0  0  0  0  0  0  0  0
   45.6572   28.6038   49.1430 H   0  0  0  0  0  0  0  0  0  0  0  0
   45.3135   30.9683   49.5652 H   0  0  0  0  0  0  0  0  0  0  0  0
   44.7010   30.5521   47.8663 H   0  0  0  0  0  0  0  0  0  0  0  0
  1  6  2  0
  2  3  2  0
  2  1  1  0
  3  4  1  0
  4  5  2  0
  5 11  1  0
  6  5  1  0
  7  8  1  0
  7  2  1  0
  9  7  1  0
 10  7  1  0
  1 12  1  0
  3 13  1  0
 14 15  1  0
 15 16  1  0
 16 17  1  0
 17 18  1  0
 18 19  1  0
 19 14  1  0
 14 20  1  0
 15 21  1  0
 15 22  1  0
 16 23  1  0
 16 24  1  0
 17 25  1  0
 17 26  1  0
 18 27  1  0
 18 28  1  0
 19 29  1  0
 19 30  1  0
 11 14  1  0
M  ISO  2  12  14  13  14
M  END
>  <DihAtoms>  (1) 
4,10,13,14

>  <DihDeg>  (1) 
-118.56017576723124

$$$$
