
     RDKit          3D

 30 31  0  0  0  0  0  0  0  0999 V2000
   44.9148   35.1057   44.9432 C   0  0  0  0  0  0  0  0  0  0  0  0
   45.8265   34.7551   43.9485 C   0  0  0  0  0  0  0  0  0  0  0  0
   46.6824   33.6977   44.2188 C   0  0  0  0  0  0  0  0  0  0  0  0
   46.6051   33.0593   45.4078 N   0  0  0  0  0  0  0  0  0  0  0  0
   45.7088   33.4327   46.3383 C   0  0  0  0  0  0  0  0  0  0  0  0
   44.8536   34.4533   46.1276 N   0  0  0  0  0  0  0  0  0  0  0  0
   45.7967   35.5537   42.6794 C   0  0  0  0  0  0  0  0  0  0  0  0
   45.3491   36.8055   43.0307 F   0  0  0  0  0  0  0  0  0  0  0  0
   44.9101   34.9457   41.8287 F   0  0  0  0  0  0  0  0  0  0  0  0
   47.0755   35.5490   42.1553 F   0  0  0  0  0  0  0  0  0  0  0  0
   45.6234   32.7772   47.5696 O   0  0  0  0  0  0  0  0  0  0  0  0
   44.2201   35.9163   44.8026 H   0  0  0  0  0  0  0  0  0  0  0  0
   47.3775   33.4447   43.4367 H   0  0  0  0  0  0  0  0  0  0  0  0
   46.4690   31.6929   47.9022 C   0  0  0  0  0  0  0  0  0  0  0  0
   46.0648   30.4567   47.1520 C   0  0  0  0  0  0  0  0  0  0  0  0
   45.3004   29.4674   47.9706 C   0  0  0  0  0  0  0  0  0  0  0  0
   45.9648   29.1128   49.2704 C   0  0  0  0  0  0  0  0  0  0  0  0
   46.9080   30.1628   49.7892 C   0  0  0  0  0  0  0  0  0  0  0  0
   46.3791   31.5121   49.4033 C   0  0  0  0  0  0  0  0  0  0  0  0
   47.5268   31.8931   47.6311 H   0  0  0  0  0  0  0  0  0  0  0  0
   46.9351   29.9349   46.6640 H   0  0  0  0  0  0  0  0  0  0  0  0
   45.4065   30.7721   46.3122 H   0  0  0  0  0  0  0  0  0  0  0  0
   45.2478   28.5256   47.3616 H   0  0  0  0  0  0  0  0  0  0  0  0
   44.2813   29.8417   48.1111 H   0  0  0  0  0  0  0  0  0  0  0  0
   45.1580   28.9819   50.0251 H   0  0  0  0  0  0  0  0  0  0  0  0
   46.5052   28.1338   49.2150 H   0  0  0  0  0  0  0  0  0  0  0  0
   47.9178   29.9983   49.4000 H   0  0  0  0  0  0  0  0  0  0  0  0
   46.9075   30.1227   50.9162 H   0  0  0  0  0  0  0  0  0  0  0  0
   46.9240   32.3287   49.9058 H   0  0  0  0  0  0  0  0  0  0  0  0
   45.2719   31.5370   49.6259 H   0  0  0  0  0  0  0  0  0  0  0  0
  1  6  2  0
  2  3  2  0
  2  1  1  0
  3  4  1  0
  4  5  2  0
  5 11  1  0
  6  5  1  0
  7  8  1  0
  7  2  1  0
  9  7  1  0
 10  7  1  0
  1 12  1  0
  3 13  1  0
 14 15  1  0
 15 16  1  0
 16 17  1  0
 17 18  1  0
 18 19  1  0
 19 14  1  0
 14 20  1  0
 15 21  1  0
 15 22  1  0
 16 23  1  0
 16 24  1  0
 17 25  1  0
 17 26  1  0
 18 27  1  0
 18 28  1  0
 19 29  1  0
 19 30  1  0
 11 14  1  0
M  ISO  2  12  14  13  14
M  END
>  <DihAtoms>  (1) 
4,10,13,14

>  <DihDeg>  (1) 
-118.56017576723124

$$$$
