
     RDKit          3D

 32 33  0  0  0  0  0  0  0  0999 V2000
   44.5581   36.0421   44.4781 C   0  0  0  0  0  0  0  0  0  0  0  0
   45.2238   35.9353   43.2487 C   0  0  0  0  0  0  0  0  0  0  0  0
   46.0867   34.8733   43.0262 C   0  0  0  0  0  0  0  0  0  0  0  0
   46.2371   33.9785   44.0405 N   0  0  0  0  0  0  0  0  0  0  0  0
   45.5880   34.1013   45.2116 C   0  0  0  0  0  0  0  0  0  0  0  0
   44.7580   35.1113   45.4427 N   0  0  0  0  0  0  0  0  0  0  0  0
   46.7834   34.7759   41.7183 C   0  0  0  0  0  0  0  0  0  0  0  0
   48.1829   35.3075   41.8749 C   0  0  0  0  0  0  0  0  0  0  0  0
   43.9138   36.9102   44.5326 H   0  0  0  0  0  0  0  0  0  0  0  0
   45.0966   36.6517   42.4507 H   0  0  0  0  0  0  0  0  0  0  0  0
   45.7373   33.3559   46.0066 H   0  0  0  0  0  0  0  0  0  0  0  0
   46.7620   33.6963   41.4541 H   0  0  0  0  0  0  0  0  0  0  0  0
   46.2039   35.3200   40.9681 H   0  0  0  0  0  0  0  0  0  0  0  0
   48.1078   36.3525   42.2197 H   0  0  0  0  0  0  0  0  0  0  0  0
   48.6710   34.7405   42.6940 H   0  0  0  0  0  0  0  0  0  0  0  0
   49.0041   35.2668   40.6170 C   0  0  0  0  0  0  0  0  0  0  0  0
   49.9845   34.1367   40.7463 C   0  0  0  0  0  0  0  0  0  0  0  0
   50.1576   33.3591   39.4668 C   0  0  0  0  0  0  0  0  0  0  0  0
   50.2918   34.3992   38.3556 C   0  0  0  0  0  0  0  0  0  0  0  0
   48.9276   34.9915   38.1502 C   0  0  0  0  0  0  0  0  0  0  0  0
   48.1260   35.1655   39.3904 C   0  0  0  0  0  0  0  0  0  0  0  0
   49.5508   36.2272   40.5177 H   0  0  0  0  0  0  0  0  0  0  0  0
   49.6798   33.4321   41.5636 H   0  0  0  0  0  0  0  0  0  0  0  0
   50.9509   34.5544   41.0863 H   0  0  0  0  0  0  0  0  0  0  0  0
   51.0494   32.7218   39.5668 H   0  0  0  0  0  0  0  0  0  0  0  0
   49.3081   32.7073   39.2564 H   0  0  0  0  0  0  0  0  0  0  0  0
   51.0109   35.1898   38.6472 H   0  0  0  0  0  0  0  0  0  0  0  0
   50.6095   33.8298   37.4687 H   0  0  0  0  0  0  0  0  0  0  0  0
   49.0534   35.9392   37.5621 H   0  0  0  0  0  0  0  0  0  0  0  0
   48.4061   34.3091   37.4174 H   0  0  0  0  0  0  0  0  0  0  0  0
   47.3733   34.3645   39.4501 H   0  0  0  0  0  0  0  0  0  0  0  0
   47.6268   36.1715   39.3039 H   0  0  0  0  0  0  0  0  0  0  0  0
  1  6  2  0
  2  1  1  0
  3  2  2  0
  3  4  1  0
  4  5  2  0
  5  6  1  0
  7  8  1  0
  7  3  1  0
  1  9  1  0
  2 10  1  0
  5 11  1  0
  7 12  1  0
  7 13  1  0
  8 14  1  0
  8 15  1  0
 16 17  1  0
 17 18  1  0
 18 19  1  0
 19 20  1  0
 20 21  1  0
 21 16  1  0
 16 22  1  0
 17 23  1  0
 17 24  1  0
 18 25  1  0
 18 26  1  0
 19 27  1  0
 19 28  1  0
 20 29  1  0
 20 30  1  0
 21 31  1  0
 21 32  1  0
  8 16  1  0
M  ISO  7   9  14  10  14  11  14  12   8  13   8  14   8  15   8
M  END
>  <DihAtoms>  (1) 
6,7,15,16

>  <DihDeg>  (1) 
-179.9996757427047

$$$$
