
     RDKit          3D

 38 40  0  0  0  0  0  0  0  0999 V2000
   44.6761   35.3774   45.1515 C   0  0  0  0  0  0  0  0  0  0  0  0
   45.1280   35.6979   43.8388 C   0  0  0  0  0  0  0  0  0  0  0  0
   46.0689   34.8615   43.3358 C   0  0  0  0  0  0  0  0  0  0  0  0
   46.5505   33.7834   44.0482 N   0  0  0  0  0  0  0  0  0  0  0  0
   46.0953   33.5106   45.2971 C   0  0  0  0  0  0  0  0  0  0  0  0
   45.1492   34.3196   45.8463 N   0  0  0  0  0  0  0  0  0  0  0  0
   46.5746   35.0677   41.9286 C   0  0  1  0  0  0  0  0  0  0  0  0
   48.1151   35.2897   41.9314 C   0  0  0  0  0  0  0  0  0  0  0  0
   47.3514   34.0746   41.3115 C   0  0  2  0  0  0  0  0  0  0  0  0
   47.3943   33.9089   39.8072 C   0  0  0  0  0  0  0  0  0  0  0  0
   44.6545   36.8157   43.1125 N   0  0  0  0  0  0  0  0  0  0  0  0
   43.9157   36.0548   45.5536 H   0  0  0  0  0  0  0  0  0  0  0  0
   46.4390   32.6871   45.8853 H   0  0  0  0  0  0  0  0  0  0  0  0
   46.0261   35.8523   41.3645 H   0  0  0  0  0  0  0  0  0  0  0  0
   48.4889   35.9910   41.1576 H   0  0  0  0  0  0  0  0  0  0  0  0
   48.6739   35.1359   42.8478 H   0  0  0  0  0  0  0  0  0  0  0  0
   47.5500   33.1331   41.9116 H   0  0  0  0  0  0  0  0  0  0  0  0
   46.3697   33.7090   39.4240 H   0  0  0  0  0  0  0  0  0  0  0  0
   47.7564   34.8665   39.3511 H   0  0  0  0  0  0  0  0  0  0  0  0
   43.9994   36.8097   42.2823 H   0  0  0  0  0  0  0  0  0  0  0  0
   44.9203   37.8210   43.3367 H   0  0  0  0  0  0  0  0  0  0  0  0
   48.3194   32.7558   39.4652 C   0  0  0  0  0  0  0  0  0  0  0  0
   49.7504   33.1258   39.6236 C   0  0  0  0  0  0  0  0  0  0  0  0
   50.6900   32.0803   40.0807 C   0  0  0  0  0  0  0  0  0  0  0  0
   50.1000   30.7065   39.8365 C   0  0  0  0  0  0  0  0  0  0  0  0
   48.8990   30.6665   40.7644 C   0  0  0  0  0  0  0  0  0  0  0  0
   47.8443   31.5363   40.1438 C   0  0  0  0  0  0  0  0  0  0  0  0
   48.1651   32.6170   38.3592 H   0  0  0  0  0  0  0  0  0  0  0  0
   50.1651   33.6032   38.7025 H   0  0  0  0  0  0  0  0  0  0  0  0
   49.7693   33.9581   40.3875 H   0  0  0  0  0  0  0  0  0  0  0  0
   51.6465   32.1132   39.5243 H   0  0  0  0  0  0  0  0  0  0  0  0
   50.9447   32.1451   41.1590 H   0  0  0  0  0  0  0  0  0  0  0  0
   50.7876   29.8784   40.0579 H   0  0  0  0  0  0  0  0  0  0  0  0
   49.6919   30.6834   38.7938 H   0  0  0  0  0  0  0  0  0  0  0  0
   48.4863   29.6531   40.8892 H   0  0  0  0  0  0  0  0  0  0  0  0
   49.1756   31.1174   41.7611 H   0  0  0  0  0  0  0  0  0  0  0  0
   47.2457   30.8741   39.4554 H   0  0  0  0  0  0  0  0  0  0  0  0
   47.1263   31.7625   40.9789 H   0  0  0  0  0  0  0  0  0  0  0  0
  1  6  2  0
  2  1  1  0
  3  2  2  0
  3  4  1  0
  4  5  2  0
  5  6  1  0
  7  3  1  0
  8  7  1  0
  9  8  1  0
  9  7  1  0
 10  9  1  0
 11  2  1  0
  1 12  1  0
  5 13  1  0
  7 14  1  6
  8 15  1  0
  8 16  1  0
  9 17  1  1
 10 18  1  0
 10 19  1  0
 11 20  1  0
 11 21  1  0
 22 23  1  0
 23 24  1  0
 24 25  1  0
 25 26  1  0
 26 27  1  0
 27 22  1  0
 22 28  1  0
 23 29  1  0
 23 30  1  0
 24 31  1  0
 24 32  1  0
 25 33  1  0
 25 34  1  0
 26 35  1  0
 26 36  1  0
 27 37  1  0
 27 38  1  0
 10 22  1  0
M  ISO  8  12  14  13  14  14  13  15  13  16  13  17  13  18   8  19   8
M  END
>  <DihAtoms>  (1) 
8,9,21,22

>  <DihDeg>  (1) 
179.99900460009806

$$$$
