
     RDKit          3D

 42 43  0  0  0  0  0  0  0  0999 V2000
   43.7611   35.7088   41.6996 C   0  0  0  0  0  0  0  0  0  0  0  0
   43.4358   35.6555   43.1183 N   0  0  0  0  0  0  0  0  0  0  0  0
   44.8263   35.8371   44.1043 S   0  0  0  0  0  0  0  0  0  0  0  0
   46.0721   35.3482   43.4304 O   0  0  0  0  0  0  0  0  0  0  0  0
   44.9612   37.3287   44.3661 O   0  0  0  0  0  0  0  0  0  0  0  0
   44.5880   35.0851   45.5732 O   0  0  0  0  0  0  0  0  0  0  0  0
   45.4185   34.0047   45.7495 C   0  0  0  0  0  0  0  0  0  0  0  0
   43.4054   34.1047   41.0033 S   0  0  0  0  0  0  0  0  0  0  0  0
   40.8842   33.0304   41.3637 C   0  0  0  0  0  0  0  0  0  0  0  0
   41.6318   33.9714   40.6759 C   0  0  0  0  0  0  0  0  0  0  0  0
   41.0385   34.8084   39.7399 C   0  0  0  0  0  0  0  0  0  0  0  0
   39.7064   34.6610   39.5344 N   0  0  0  0  0  0  0  0  0  0  0  0
   39.0088   33.7329   40.2227 C   0  0  0  0  0  0  0  0  0  0  0  0
   39.5573   32.9167   41.1281 N   0  0  0  0  0  0  0  0  0  0  0  0
   37.6318   33.5775   40.0116 O   0  0  0  0  0  0  0  0  0  0  0  0
   44.8676   35.8656   41.6445 H   0  0  0  0  0  0  0  0  0  0  0  0
   43.2470   36.5398   41.1907 H   0  0  0  0  0  0  0  0  0  0  0  0
   42.7790   36.4408   43.3283 H   0  0  0  0  0  0  0  0  0  0  0  0
   46.0892   34.5395   42.8351 H   0  0  0  0  0  0  0  0  0  0  0  0
   45.5974   37.7139   45.0170 H   0  0  0  0  0  0  0  0  0  0  0  0
   44.8841   33.2390   46.3466 H   0  0  0  0  0  0  0  0  0  0  0  0
   45.6379   33.5765   44.7397 H   0  0  0  0  0  0  0  0  0  0  0  0
   46.3639   34.2969   46.2611 H   0  0  0  0  0  0  0  0  0  0  0  0
   41.3617   32.3846   42.0913 H   0  0  0  0  0  0  0  0  0  0  0  0
   41.6322   35.5391   39.2093 H   0  0  0  0  0  0  0  0  0  0  0  0
   37.0553   34.4469   39.0481 C   0  0  0  0  0  0  0  0  0  0  0  0
   35.7124   33.8688   38.6530 C   0  0  0  0  0  0  0  0  0  0  0  0
   35.0705   34.7623   37.6139 C   0  0  0  0  0  0  0  0  0  0  0  0
   34.9499   36.1860   38.1156 C   0  0  0  0  0  0  0  0  0  0  0  0
   36.3339   36.7122   38.4872 C   0  0  0  0  0  0  0  0  0  0  0  0
   36.8974   35.8441   39.5654 C   0  0  0  0  0  0  0  0  0  0  0  0
   37.6985   34.4930   38.1411 H   0  0  0  0  0  0  0  0  0  0  0  0
   35.0514   33.7885   39.5178 H   0  0  0  0  0  0  0  0  0  0  0  0
   35.8696   32.8745   38.1972 H   0  0  0  0  0  0  0  0  0  0  0  0
   34.0731   34.4003   37.3417 H   0  0  0  0  0  0  0  0  0  0  0  0
   35.6968   34.7725   36.7084 H   0  0  0  0  0  0  0  0  0  0  0  0
   34.5788   36.7972   37.2596 H   0  0  0  0  0  0  0  0  0  0  0  0
   34.2671   36.2820   38.9621 H   0  0  0  0  0  0  0  0  0  0  0  0
   36.9703   36.7789   37.6045 H   0  0  0  0  0  0  0  0  0  0  0  0
   36.1631   37.7560   38.8701 H   0  0  0  0  0  0  0  0  0  0  0  0
   37.9295   36.2304   39.7980 H   0  0  0  0  0  0  0  0  0  0  0  0
   36.2285   35.9188   40.4346 H   0  0  0  0  0  0  0  0  0  0  0  0
  1  2  1  0
  2  3  1  0
  3  5  1  0
  3  6  1  0
  4  3  1  0
  6  7  1  0
  8  1  1  0
 10  8  1  0
 10  9  2  0
 11 10  1  0
 12 11  2  0
 12 13  1  0
 13 14  2  0
 14  9  1  0
 15 13  1  0
  1 16  1  0
  1 17  1  0
  2 18  1  0
  4 19  1  0
  5 20  1  0
  7 21  1  0
  7 22  1  0
  7 23  1  0
  9 24  1  0
 11 25  1  0
 26 27  1  0
 27 28  1  0
 28 29  1  0
 29 30  1  0
 30 31  1  0
 31 26  1  0
 26 32  1  0
 27 33  1  0
 27 34  1  0
 28 35  1  0
 28 36  1  0
 29 37  1  0
 29 38  1  0
 30 39  1  0
 30 40  1  0
 31 41  1  0
 31 42  1  0
 15 26  1  0
M  ISO  8  16   8  17   8  18   5  19   3  20   3  21   8  22   8  23   8
M  ISO  2  24  14  25  14
M  END
>  <DihAtoms>  (1) 
12,14,25,26

>  <DihDeg>  (1) 
117.9896095813171

$$$$
