
     RDKit          3D

 30 31  0  0  0  0  0  0  0  0999 V2000
   44.9148   35.1057   44.9432 C   0  0  0  0  0  0  0  0  0  0  0  0
   45.8265   34.7551   43.9485 C   0  0  0  0  0  0  0  0  0  0  0  0
   46.6824   33.6977   44.2188 C   0  0  0  0  0  0  0  0  0  0  0  0
   46.6051   33.0593   45.4078 N   0  0  0  0  0  0  0  0  0  0  0  0
   45.7088   33.4327   46.3383 C   0  0  0  0  0  0  0  0  0  0  0  0
   44.8536   34.4533   46.1276 N   0  0  0  0  0  0  0  0  0  0  0  0
   45.7967   35.5537   42.6794 C   0  0  0  0  0  0  0  0  0  0  0  0
   45.3491   36.8055   43.0307 F   0  0  0  0  0  0  0  0  0  0  0  0
   44.9101   34.9457   41.8287 F   0  0  0  0  0  0  0  0  0  0  0  0
   47.0755   35.5490   42.1553 F   0  0  0  0  0  0  0  0  0  0  0  0
   45.6234   32.7772   47.5696 O   0  0  0  0  0  0  0  0  0  0  0  0
   44.2201   35.9163   44.8026 H   0  0  0  0  0  0  0  0  0  0  0  0
   47.3775   33.4447   43.4367 H   0  0  0  0  0  0  0  0  0  0  0  0
   46.4690   31.6929   47.9022 C   0  0  0  0  0  0  0  0  0  0  0  0
   47.9072   32.1241   47.9037 C   0  0  0  0  0  0  0  0  0  0  0  0
   48.6724   31.7044   46.6905 C   0  0  0  0  0  0  0  0  0  0  0  0
   48.5515   30.2412   46.3728 C   0  0  0  0  0  0  0  0  0  0  0  0
   47.3074   29.5920   46.9131 C   0  0  0  0  0  0  0  0  0  0  0  0
   46.1957   30.5986   46.8913 C   0  0  0  0  0  0  0  0  0  0  0  0
   46.2582   31.2987   48.9184 H   0  0  0  0  0  0  0  0  0  0  0  0
   48.4649   31.7902   48.8231 H   0  0  0  0  0  0  0  0  0  0  0  0
   47.9258   33.2361   47.9398 H   0  0  0  0  0  0  0  0  0  0  0  0
   49.7546   31.9030   46.9142 H   0  0  0  0  0  0  0  0  0  0  0  0
   48.3740   32.3401   45.8507 H   0  0  0  0  0  0  0  0  0  0  0  0
   48.5261   30.1483   45.2645 H   0  0  0  0  0  0  0  0  0  0  0  0
   49.4441   29.6593   46.7167 H   0  0  0  0  0  0  0  0  0  0  0  0
   47.4828   29.2057   47.9222 H   0  0  0  0  0  0  0  0  0  0  0  0
   47.0050   28.7575   46.2176 H   0  0  0  0  0  0  0  0  0  0  0  0
   45.2166   30.1375   47.1034 H   0  0  0  0  0  0  0  0  0  0  0  0
   46.2126   31.1253   45.8921 H   0  0  0  0  0  0  0  0  0  0  0  0
  1  6  2  0
  2  3  2  0
  2  1  1  0
  3  4  1  0
  4  5  2  0
  5 11  1  0
  6  5  1  0
  7  8  1  0
  7  2  1  0
  9  7  1  0
 10  7  1  0
  1 12  1  0
  3 13  1  0
 14 15  1  0
 15 16  1  0
 16 17  1  0
 17 18  1  0
 18 19  1  0
 19 14  1  0
 14 20  1  0
 15 21  1  0
 15 22  1  0
 16 23  1  0
 16 24  1  0
 17 25  1  0
 17 26  1  0
 18 27  1  0
 18 28  1  0
 19 29  1  0
 19 30  1  0
 11 14  1  0
M  ISO  2  12  14  13  14
M  END
>  <DihAtoms>  (1) 
4,10,13,14

>  <DihDeg>  (1) 
-118.56017576723124

$$$$
