
     RDKit          3D

 30 31  0  0  0  0  0  0  0  0999 V2000
   44.9148   35.1057   44.9432 C   0  0  0  0  0  0  0  0  0  0  0  0
   45.8265   34.7551   43.9485 C   0  0  0  0  0  0  0  0  0  0  0  0
   46.6824   33.6977   44.2188 C   0  0  0  0  0  0  0  0  0  0  0  0
   46.6051   33.0593   45.4078 N   0  0  0  0  0  0  0  0  0  0  0  0
   45.7088   33.4327   46.3383 C   0  0  0  0  0  0  0  0  0  0  0  0
   44.8536   34.4533   46.1276 N   0  0  0  0  0  0  0  0  0  0  0  0
   45.7967   35.5537   42.6794 C   0  0  0  0  0  0  0  0  0  0  0  0
   45.3491   36.8055   43.0307 F   0  0  0  0  0  0  0  0  0  0  0  0
   44.9101   34.9457   41.8287 F   0  0  0  0  0  0  0  0  0  0  0  0
   47.0755   35.5490   42.1553 F   0  0  0  0  0  0  0  0  0  0  0  0
   45.6234   32.7772   47.5696 O   0  0  0  0  0  0  0  0  0  0  0  0
   44.2201   35.9163   44.8026 H   0  0  0  0  0  0  0  0  0  0  0  0
   47.3775   33.4447   43.4367 H   0  0  0  0  0  0  0  0  0  0  0  0
   46.4690   31.6929   47.9022 C   0  0  0  0  0  0  0  0  0  0  0  0
   47.5062   32.1174   48.9014 C   0  0  0  0  0  0  0  0  0  0  0  0
   48.8609   32.3498   48.3149 C   0  0  0  0  0  0  0  0  0  0  0  0
   49.3615   31.2105   47.4734 C   0  0  0  0  0  0  0  0  0  0  0  0
   48.2760   30.3430   46.8986 C   0  0  0  0  0  0  0  0  0  0  0  0
   47.0822   31.2027   46.6069 C   0  0  0  0  0  0  0  0  0  0  0  0
   45.9074   30.8564   48.3684 H   0  0  0  0  0  0  0  0  0  0  0  0
   47.5988   31.4046   49.7681 H   0  0  0  0  0  0  0  0  0  0  0  0
   47.1691   33.0784   49.3497 H   0  0  0  0  0  0  0  0  0  0  0  0
   49.5678   32.4527   49.1813 H   0  0  0  0  0  0  0  0  0  0  0  0
   48.8483   33.2983   47.7686 H   0  0  0  0  0  0  0  0  0  0  0  0
   49.9238   31.6549   46.6226 H   0  0  0  0  0  0  0  0  0  0  0  0
   50.0887   30.5641   48.0274 H   0  0  0  0  0  0  0  0  0  0  0  0
   48.0291   29.5293   47.5879 H   0  0  0  0  0  0  0  0  0  0  0  0
   48.6296   29.9303   45.9105 H   0  0  0  0  0  0  0  0  0  0  0  0
   46.3197   30.6651   46.0188 H   0  0  0  0  0  0  0  0  0  0  0  0
   47.4380   32.1413   46.0888 H   0  0  0  0  0  0  0  0  0  0  0  0
  1  6  2  0
  2  3  2  0
  2  1  1  0
  3  4  1  0
  4  5  2  0
  5 11  1  0
  6  5  1  0
  7  8  1  0
  7  2  1  0
  9  7  1  0
 10  7  1  0
  1 12  1  0
  3 13  1  0
 14 15  1  0
 15 16  1  0
 16 17  1  0
 17 18  1  0
 18 19  1  0
 19 14  1  0
 14 20  1  0
 15 21  1  0
 15 22  1  0
 16 23  1  0
 16 24  1  0
 17 25  1  0
 17 26  1  0
 18 27  1  0
 18 28  1  0
 19 29  1  0
 19 30  1  0
 11 14  1  0
M  ISO  2  12  14  13  14
M  END
>  <DihAtoms>  (1) 
4,10,13,14

>  <DihDeg>  (1) 
-118.56017576723124

$$$$
