
     RDKit          3D

 48 50  0  0  1  0  0  0  0  0999 V2000
   47.4620   34.0600   42.4450 C   0  0  2  0  0  0  0  0  0  0  0  0
   48.8050   34.6530   42.6210 C   0  0  0  0  0  0  0  0  0  0  0  0
   49.0630   35.7800   41.6780 C   0  0  0  0  0  0  0  0  0  0  0  0
   48.8540   35.4150   40.2310 C   0  0  0  0  0  0  0  0  0  0  0  0
   47.7150   34.4700   39.9990 C   0  0  2  0  0  0  0  0  0  0  0  0
   46.7670   34.4420   41.1810 C   0  0  0  0  0  0  0  0  0  0  0  0
   46.5570   34.2930   43.5840 C   0  0  0  0  0  0  0  0  0  0  0  0
   45.6510   35.3320   43.3840 C   0  0  0  0  0  0  0  0  0  0  0  0
   44.7220   35.6450   44.3800 C   0  0  0  0  0  0  0  0  0  0  0  0
   44.7750   34.8740   45.5290 N   0  0  0  0  0  0  0  0  0  0  0  0
   45.6700   33.8780   45.6810 C   0  0  0  0  0  0  0  0  0  0  0  0
   46.5440   33.6020   44.7130 N   0  0  0  0  0  0  0  0  0  0  0  0
   48.2420   33.1410   39.6190 C   0  0  0  0  0  0  0  0  0  0  0  0
   47.2680   32.1780   39.0590 C   0  0  0  0  0  0  0  0  0  0  0  0
   47.5420   31.8070   37.6180 C   0  0  0  0  0  0  0  0  0  0  0  0
   46.2230   31.5440   36.9320 C   0  0  0  0  0  0  0  0  0  0  0  0
   46.1430   32.2190   35.5920 C   0  0  0  0  0  0  0  0  0  0  0  0
   47.4240   32.1070   34.7930 C   0  0  0  0  0  0  0  0  0  0  0  0
   48.5720   32.7210   35.5270 C   0  0  0  0  0  0  0  0  0  0  0  0
   48.1730   33.0130   36.9600 C   0  0  0  0  0  0  0  0  0  0  0  0
   47.6884   32.9852   42.3856 H   0  0  0  0  0  0  0  0  0  0  0  0
   48.8919   35.0288   43.6512 H   0  0  0  0  0  0  0  0  0  0  0  0
   49.5459   33.8674   42.4117 H   0  0  0  0  0  0  0  0  0  0  0  0
   48.3828   36.6070   41.9299 H   0  0  0  0  0  0  0  0  0  0  0  0
   50.1209   36.0596   41.7909 H   0  0  0  0  0  0  0  0  0  0  0  0
   48.6578   36.3384   39.6663 H   0  0  0  0  0  0  0  0  0  0  0  0
   49.7672   34.9004   39.8977 H   0  0  0  0  0  0  0  0  0  0  0  0
   47.1044   34.8257   39.1560 H   0  0  0  0  0  0  0  0  0  0  0  0
   46.3258   35.4418   41.3063 H   0  0  0  0  0  0  0  0  0  0  0  0
   45.9921   33.6882   40.9777 H   0  0  0  0  0  0  0  0  0  0  0  0
   45.6667   35.9044   42.4448 H   0  0  0  0  0  0  0  0  0  0  0  0
   43.9905   36.4574   44.2582 H   0  0  0  0  0  0  0  0  0  0  0  0
   45.6794   33.2889   46.6099 H   0  0  0  0  0  0  0  0  0  0  0  0
   49.0284   33.2966   38.8658 H   0  0  0  0  0  0  0  0  0  0  0  0
   48.5910   32.6877   40.5585 H   0  0  0  0  0  0  0  0  0  0  0  0
   47.2977   31.2610   39.6657 H   0  0  0  0  0  0  0  0  0  0  0  0
   46.2821   32.6652   39.0845 H   0  0  0  0  0  0  0  0  0  0  0  0
   48.1916   30.9216   37.5540 H   0  0  0  0  0  0  0  0  0  0  0  0
   46.1056   30.4594   36.7912 H   0  0  0  0  0  0  0  0  0  0  0  0
   45.4220   31.9510   37.5666 H   0  0  0  0  0  0  0  0  0  0  0  0
   45.3289   31.7561   35.0149 H   0  0  0  0  0  0  0  0  0  0  0  0
   45.9625   33.2887   35.7739 H   0  0  0  0  0  0  0  0  0  0  0  0
   47.2940   32.6252   33.8315 H   0  0  0  0  0  0  0  0  0  0  0  0
   47.6427   31.0411   34.6316 H   0  0  0  0  0  0  0  0  0  0  0  0
   49.4233   32.0244   35.5204 H   0  0  0  0  0  0  0  0  0  0  0  0
   48.8563   33.6613   35.0320 H   0  0  0  0  0  0  0  0  0  0  0  0
   49.0693   33.3019   37.5285 H   0  0  0  0  0  0  0  0  0  0  0  0
   47.4336   33.8274   36.9525 H   0  0  0  0  0  0  0  0  0  0  0  0
  1  2  1  0
  1  7  1  0
  3  2  1  0
  4  3  1  0
  5  4  1  0
  5  6  1  0
  6  1  1  0
  7 12  1  0
  8  7  2  0
  8  9  1  0
  9 10  2  0
 10 11  1  0
 12 11  2  0
 13  5  1  0
 14 13  1  0
 15 14  1  0
 16 15  1  0
 17 16  1  0
 18 19  1  0
 18 17  1  0
 19 20  1  0
 20 15  1  0
  1 21  1  6
  2 22  1  0
  2 23  1  0
  3 24  1  0
  3 25  1  0
  4 26  1  0
  4 27  1  0
  5 28  1  6
  6 29  1  0
  6 30  1  0
  8 31  1  0
  9 32  1  0
 11 33  1  0
 13 34  1  0
 13 35  1  0
 14 36  1  0
 14 37  1  0
 15 38  1  0
 16 39  1  0
 16 40  1  0
 17 41  1  0
 17 42  1  0
 18 43  1  0
 18 44  1  0
 19 45  1  0
 19 46  1  0
 20 47  1  0
 20 48  1  0
M  ISO  8  21  13  22  13  23  13  24  13  25  13  26  13  27  13  28  13
M  ISO  8  29  13  30  13  31  14  32  14  33  14  34   8  35   8  36   8
M  ISO  8  37   8  38  13  39  13  40  13  41  13  42  13  43  13  44  13
M  ISO  4  45  13  46  13  47  13  48  13
M  END
>  <minimizedAffinity>  (1) 
-5.44565439

>  <minimizedRMSD>  (1) 
2.04839182

$$$$
