
     RDKit          3D

 32 33  0  0  0  0  0  0  0  0999 V2000
   44.5581   36.0421   44.4781 C   0  0  0  0  0  0  0  0  0  0  0  0
   45.2238   35.9353   43.2487 C   0  0  0  0  0  0  0  0  0  0  0  0
   46.0867   34.8733   43.0262 C   0  0  0  0  0  0  0  0  0  0  0  0
   46.2371   33.9785   44.0405 N   0  0  0  0  0  0  0  0  0  0  0  0
   45.5880   34.1013   45.2116 C   0  0  0  0  0  0  0  0  0  0  0  0
   44.7580   35.1113   45.4427 N   0  0  0  0  0  0  0  0  0  0  0  0
   46.7834   34.7759   41.7183 C   0  0  0  0  0  0  0  0  0  0  0  0
   48.1829   35.3075   41.8749 C   0  0  0  0  0  0  0  0  0  0  0  0
   43.9138   36.9102   44.5326 H   0  0  0  0  0  0  0  0  0  0  0  0
   45.0966   36.6517   42.4507 H   0  0  0  0  0  0  0  0  0  0  0  0
   45.7373   33.3559   46.0066 H   0  0  0  0  0  0  0  0  0  0  0  0
   46.7620   33.6963   41.4541 H   0  0  0  0  0  0  0  0  0  0  0  0
   46.2039   35.3200   40.9681 H   0  0  0  0  0  0  0  0  0  0  0  0
   48.1078   36.3525   42.2197 H   0  0  0  0  0  0  0  0  0  0  0  0
   48.6710   34.7405   42.6940 H   0  0  0  0  0  0  0  0  0  0  0  0
   49.0041   35.2668   40.6170 C   0  0  0  0  0  0  0  0  0  0  0  0
   48.5263   34.1042   39.7954 C   0  0  0  0  0  0  0  0  0  0  0  0
   48.4565   34.4145   38.3221 C   0  0  0  0  0  0  0  0  0  0  0  0
   49.7562   35.1422   37.9820 C   0  0  0  0  0  0  0  0  0  0  0  0
   49.6486   36.5187   38.5715 C   0  0  0  0  0  0  0  0  0  0  0  0
   48.9497   36.5870   39.8821 C   0  0  0  0  0  0  0  0  0  0  0  0
   50.0688   35.1186   40.8918 H   0  0  0  0  0  0  0  0  0  0  0  0
   47.5195   33.7535   40.1429 H   0  0  0  0  0  0  0  0  0  0  0  0
   49.1993   33.2468   39.9850 H   0  0  0  0  0  0  0  0  0  0  0  0
   48.3399   33.4673   37.7738 H   0  0  0  0  0  0  0  0  0  0  0  0
   47.6056   35.0491   38.0692 H   0  0  0  0  0  0  0  0  0  0  0  0
   50.6256   34.6089   38.4145 H   0  0  0  0  0  0  0  0  0  0  0  0
   49.7786   35.1873   36.8823 H   0  0  0  0  0  0  0  0  0  0  0  0
   50.6797   36.9620   38.5907 H   0  0  0  0  0  0  0  0  0  0  0  0
   49.1215   37.1436   37.7928 H   0  0  0  0  0  0  0  0  0  0  0  0
   47.9276   36.9656   39.7278 H   0  0  0  0  0  0  0  0  0  0  0  0
   49.5438   37.3012   40.5189 H   0  0  0  0  0  0  0  0  0  0  0  0
  1  6  2  0
  2  1  1  0
  3  2  2  0
  3  4  1  0
  4  5  2  0
  5  6  1  0
  7  8  1  0
  7  3  1  0
  1  9  1  0
  2 10  1  0
  5 11  1  0
  7 12  1  0
  7 13  1  0
  8 14  1  0
  8 15  1  0
 16 17  1  0
 17 18  1  0
 18 19  1  0
 19 20  1  0
 20 21  1  0
 21 16  1  0
 16 22  1  0
 17 23  1  0
 17 24  1  0
 18 25  1  0
 18 26  1  0
 19 27  1  0
 19 28  1  0
 20 29  1  0
 20 30  1  0
 21 31  1  0
 21 32  1  0
  8 16  1  0
M  ISO  7   9  14  10  14  11  14  12   8  13   8  14   8  15   8
M  END
>  <DihAtoms>  (1) 
6,7,15,16

>  <DihDeg>  (1) 
-179.9996757427047

$$$$
