
     RDKit          3D

 42 43  0  0  0  0  0  0  0  0999 V2000
   43.7611   35.7088   41.6996 C   0  0  0  0  0  0  0  0  0  0  0  0
   43.4358   35.6555   43.1183 N   0  0  0  0  0  0  0  0  0  0  0  0
   44.8263   35.8371   44.1043 S   0  0  0  0  0  0  0  0  0  0  0  0
   46.0721   35.3482   43.4304 O   0  0  0  0  0  0  0  0  0  0  0  0
   44.9612   37.3287   44.3661 O   0  0  0  0  0  0  0  0  0  0  0  0
   44.5880   35.0851   45.5732 O   0  0  0  0  0  0  0  0  0  0  0  0
   45.4185   34.0047   45.7495 C   0  0  0  0  0  0  0  0  0  0  0  0
   43.4054   34.1047   41.0033 S   0  0  0  0  0  0  0  0  0  0  0  0
   40.8842   33.0304   41.3637 C   0  0  0  0  0  0  0  0  0  0  0  0
   41.6318   33.9714   40.6759 C   0  0  0  0  0  0  0  0  0  0  0  0
   41.0385   34.8084   39.7399 C   0  0  0  0  0  0  0  0  0  0  0  0
   39.7064   34.6610   39.5344 N   0  0  0  0  0  0  0  0  0  0  0  0
   39.0088   33.7329   40.2227 C   0  0  0  0  0  0  0  0  0  0  0  0
   39.5573   32.9167   41.1281 N   0  0  0  0  0  0  0  0  0  0  0  0
   37.6318   33.5775   40.0116 O   0  0  0  0  0  0  0  0  0  0  0  0
   44.8676   35.8656   41.6445 H   0  0  0  0  0  0  0  0  0  0  0  0
   43.2470   36.5398   41.1907 H   0  0  0  0  0  0  0  0  0  0  0  0
   42.7790   36.4408   43.3283 H   0  0  0  0  0  0  0  0  0  0  0  0
   46.0892   34.5395   42.8351 H   0  0  0  0  0  0  0  0  0  0  0  0
   45.5974   37.7139   45.0170 H   0  0  0  0  0  0  0  0  0  0  0  0
   44.8841   33.2390   46.3466 H   0  0  0  0  0  0  0  0  0  0  0  0
   45.6379   33.5765   44.7397 H   0  0  0  0  0  0  0  0  0  0  0  0
   46.3639   34.2969   46.2611 H   0  0  0  0  0  0  0  0  0  0  0  0
   41.3617   32.3846   42.0913 H   0  0  0  0  0  0  0  0  0  0  0  0
   41.6322   35.5391   39.2093 H   0  0  0  0  0  0  0  0  0  0  0  0
   37.0553   34.4469   39.0481 C   0  0  0  0  0  0  0  0  0  0  0  0
   35.7415   34.9486   39.6100 C   0  0  0  0  0  0  0  0  0  0  0  0
   35.0875   35.8702   38.6035 C   0  0  0  0  0  0  0  0  0  0  0  0
   36.0120   37.0070   38.2209 C   0  0  0  0  0  0  0  0  0  0  0  0
   37.3101   36.4369   37.6547 C   0  0  0  0  0  0  0  0  0  0  0  0
   37.9562   35.5942   38.7064 C   0  0  0  0  0  0  0  0  0  0  0  0
   36.8455   33.8902   38.1076 H   0  0  0  0  0  0  0  0  0  0  0  0
   35.8969   35.4884   40.5458 H   0  0  0  0  0  0  0  0  0  0  0  0
   35.0678   34.0876   39.7716 H   0  0  0  0  0  0  0  0  0  0  0  0
   34.1571   36.2923   38.9987 H   0  0  0  0  0  0  0  0  0  0  0  0
   34.8522   35.3012   37.6908 H   0  0  0  0  0  0  0  0  0  0  0  0
   35.5073   37.5681   37.3997 H   0  0  0  0  0  0  0  0  0  0  0  0
   36.2243   37.6808   39.0533 H   0  0  0  0  0  0  0  0  0  0  0  0
   37.1221   35.9027   36.7232 H   0  0  0  0  0  0  0  0  0  0  0  0
   37.9500   37.3312   37.4176 H   0  0  0  0  0  0  0  0  0  0  0  0
   38.8917   35.1584   38.2551 H   0  0  0  0  0  0  0  0  0  0  0  0
   38.1818   36.2468   39.5618 H   0  0  0  0  0  0  0  0  0  0  0  0
  1  2  1  0
  2  3  1  0
  3  5  1  0
  3  6  1  0
  4  3  1  0
  6  7  1  0
  8  1  1  0
 10  8  1  0
 10  9  2  0
 11 10  1  0
 12 11  2  0
 12 13  1  0
 13 14  2  0
 14  9  1  0
 15 13  1  0
  1 16  1  0
  1 17  1  0
  2 18  1  0
  4 19  1  0
  5 20  1  0
  7 21  1  0
  7 22  1  0
  7 23  1  0
  9 24  1  0
 11 25  1  0
 26 27  1  0
 27 28  1  0
 28 29  1  0
 29 30  1  0
 30 31  1  0
 31 26  1  0
 26 32  1  0
 27 33  1  0
 27 34  1  0
 28 35  1  0
 28 36  1  0
 29 37  1  0
 29 38  1  0
 30 39  1  0
 30 40  1  0
 31 41  1  0
 31 42  1  0
 15 26  1  0
M  ISO  8  16   8  17   8  18   5  19   3  20   3  21   8  22   8  23   8
M  ISO  2  24  14  25  14
M  END
>  <DihAtoms>  (1) 
12,14,25,26

>  <DihDeg>  (1) 
117.9896095813171

$$$$
