
     RDKit          3D

 39 41  0  0  0  0  0  0  0  0999 V2000
   45.6270   34.0830   45.5100 C   0  0  0  0  0  0  0  0  0  0  0  0
   46.3500   33.9090   44.3160 C   0  0  0  0  0  0  0  0  0  0  0  0
   46.0410   34.8170   43.3010 C   0  0  0  0  0  0  0  0  0  0  0  0
   45.1030   35.7750   43.5080 N   0  0  0  0  0  0  0  0  0  0  0  0
   44.4410   35.8880   44.6870 C   0  0  0  0  0  0  0  0  0  0  0  0
   44.7080   35.0280   45.7030 N   0  0  0  0  0  0  0  0  0  0  0  0
   46.7490   34.7000   42.0290 C   0  0  0  0  0  0  0  0  0  0  0  0
   46.3760   34.0110   40.9070 C   0  0  0  0  0  0  0  0  0  0  0  0
   47.2160   34.0290   39.7990 C   0  0  0  0  0  0  0  0  0  0  0  0
   48.3990   34.7180   39.8100 C   0  0  0  0  0  0  0  0  0  0  0  0
   48.7860   35.4160   40.9330 C   0  0  0  0  0  0  0  0  0  0  0  0
   47.9590   35.4090   42.0450 C   0  0  0  0  0  0  0  0  0  0  0  0
   47.3370   32.8590   44.1880 C   0  0  0  0  0  0  0  0  0  0  0  0
   46.9010   31.4510   44.1010 C   0  0  0  0  0  0  0  0  0  0  0  0
   48.0650   30.6880   43.4080 C   0  0  0  0  0  0  0  0  0  0  0  0
   47.9560   30.8360   41.8870 C   0  0  0  0  0  0  0  0  0  0  0  0
   46.7170   30.1100   41.3840 C   0  0  0  0  0  0  0  0  0  0  0  0
   45.7110   29.9690   42.5030 C   0  0  0  0  0  0  0  0  0  0  0  0
   45.6820   31.3400   43.1890 C   0  0  0  0  0  0  0  0  0  0  0  0
   45.8344   33.3921   46.3405 H   0  0  0  0  0  0  0  0  0  0  0  0
   43.6868   36.6776   44.8198 H   0  0  0  0  0  0  0  0  0  0  0  0
   45.4285   33.4528   40.8821 H   0  0  0  0  0  0  0  0  0  0  0  0
   46.9234   33.4773   38.8934 H   0  0  0  0  0  0  0  0  0  0  0  0
   49.0433   34.7143   38.9184 H   0  0  0  0  0  0  0  0  0  0  0  0
   49.7362   35.9700   40.9468 H   0  0  0  0  0  0  0  0  0  0  0  0
   48.2540   35.9641   42.9477 H   0  0  0  0  0  0  0  0  0  0  0  0
   47.9122   33.0717   43.2748 H   0  0  0  0  0  0  0  0  0  0  0  0
   47.8798   32.9002   45.1439 H   0  0  0  0  0  0  0  0  0  0  0  0
   46.6527   31.0561   45.0972 H   0  0  0  0  0  0  0  0  0  0  0  0
   49.0256   31.1035   43.7466 H   0  0  0  0  0  0  0  0  0  0  0  0
   48.0060   29.6219   43.6723 H   0  0  0  0  0  0  0  0  0  0  0  0
   47.8839   31.9028   41.6285 H   0  0  0  0  0  0  0  0  0  0  0  0
   48.8485   30.3989   41.4155 H   0  0  0  0  0  0  0  0  0  0  0  0
   46.2676   30.6840   40.5603 H   0  0  0  0  0  0  0  0  0  0  0  0
   47.0041   29.1095   41.0281 H   0  0  0  0  0  0  0  0  0  0  0  0
   44.7186   29.7174   42.1007 H   0  0  0  0  0  0  0  0  0  0  0  0
   45.9820   29.1640   43.2019 H   0  0  0  0  0  0  0  0  0  0  0  0
   45.7128   32.1355   42.4299 H   0  0  0  0  0  0  0  0  0  0  0  0
   44.7594   31.4472   43.7783 H   0  0  0  0  0  0  0  0  0  0  0  0
  1  6  2  0
  2  1  1  0
  3  4  1  0
  3  2  2  0
  4  5  2  0
  5  6  1  0
  7 12  1  0
  7  3  1  0
  8  7  2  0
  9 10  2  0
  9  8  1  0
 10 11  1  0
 11 12  2  0
 13  2  1  0
 14 13  1  0
 15 14  1  0
 16 15  1  0
 17 16  1  0
 17 18  1  0
 18 19  1  0
 19 14  1  0
  1 20  1  0
  5 21  1  0
  8 22  1  0
  9 23  1  0
 10 24  1  0
 11 25  1  0
 12 26  1  0
 13 27  1  0
 13 28  1  0
 14 29  1  0
 15 30  1  0
 15 31  1  0
 16 32  1  0
 16 33  1  0
 17 34  1  0
 17 35  1  0
 18 36  1  0
 18 37  1  0
 19 38  1  0
 19 39  1  0
M  ISO  8  20  14  21  14  22  14  23  14  24  14  25  14  26  14  27   8
M  ISO  8  28   8  29  13  30  13  31  13  32  13  33  13  34  13  35  13
M  ISO  4  36  13  37  13  38  13  39  13
M  END
>  <minimizedAffinity>  (1) 
-5.19764805

>  <minimizedRMSD>  (1) 
5.3579917

$$$$
