
     RDKit          3D

 30 31  0  0  0  0  0  0  0  0999 V2000
   44.9148   35.1057   44.9432 C   0  0  0  0  0  0  0  0  0  0  0  0
   45.8265   34.7551   43.9485 C   0  0  0  0  0  0  0  0  0  0  0  0
   46.6824   33.6977   44.2188 C   0  0  0  0  0  0  0  0  0  0  0  0
   46.6051   33.0593   45.4078 N   0  0  0  0  0  0  0  0  0  0  0  0
   45.7088   33.4327   46.3383 C   0  0  0  0  0  0  0  0  0  0  0  0
   44.8536   34.4533   46.1276 N   0  0  0  0  0  0  0  0  0  0  0  0
   45.7967   35.5537   42.6794 C   0  0  0  0  0  0  0  0  0  0  0  0
   45.3491   36.8055   43.0307 F   0  0  0  0  0  0  0  0  0  0  0  0
   44.9101   34.9457   41.8287 F   0  0  0  0  0  0  0  0  0  0  0  0
   47.0755   35.5490   42.1553 F   0  0  0  0  0  0  0  0  0  0  0  0
   45.6234   32.7772   47.5696 O   0  0  0  0  0  0  0  0  0  0  0  0
   44.2201   35.9163   44.8026 H   0  0  0  0  0  0  0  0  0  0  0  0
   47.3775   33.4447   43.4367 H   0  0  0  0  0  0  0  0  0  0  0  0
   46.4690   31.6929   47.9022 C   0  0  0  0  0  0  0  0  0  0  0  0
   47.2576   31.9976   49.1430 C   0  0  0  0  0  0  0  0  0  0  0  0
   48.6784   32.3824   48.8852 C   0  0  0  0  0  0  0  0  0  0  0  0
   49.4181   31.4171   48.0031 C   0  0  0  0  0  0  0  0  0  0  0  0
   48.5340   30.6051   47.0975 C   0  0  0  0  0  0  0  0  0  0  0  0
   47.3570   31.4457   46.7004 C   0  0  0  0  0  0  0  0  0  0  0  0
   45.8934   30.7678   48.1151 H   0  0  0  0  0  0  0  0  0  0  0  0
   47.2349   31.1596   49.8947 H   0  0  0  0  0  0  0  0  0  0  0  0
   46.7677   32.8578   49.6512 H   0  0  0  0  0  0  0  0  0  0  0  0
   49.1942   32.3765   49.8825 H   0  0  0  0  0  0  0  0  0  0  0  0
   48.6993   33.4049   48.4948 H   0  0  0  0  0  0  0  0  0  0  0  0
   50.0988   32.0176   47.3600 H   0  0  0  0  0  0  0  0  0  0  0  0
   50.0715   30.7236   48.5910 H   0  0  0  0  0  0  0  0  0  0  0  0
   48.2212   29.6808   47.5935 H   0  0  0  0  0  0  0  0  0  0  0  0
   49.1026   30.3731   46.1517 H   0  0  0  0  0  0  0  0  0  0  0  0
   46.7661   30.9757   45.8964 H   0  0  0  0  0  0  0  0  0  0  0  0
   47.7336   32.4705   46.4107 H   0  0  0  0  0  0  0  0  0  0  0  0
  1  6  2  0
  2  3  2  0
  2  1  1  0
  3  4  1  0
  4  5  2  0
  5 11  1  0
  6  5  1  0
  7  8  1  0
  7  2  1  0
  9  7  1  0
 10  7  1  0
  1 12  1  0
  3 13  1  0
 14 15  1  0
 15 16  1  0
 16 17  1  0
 17 18  1  0
 18 19  1  0
 19 14  1  0
 14 20  1  0
 15 21  1  0
 15 22  1  0
 16 23  1  0
 16 24  1  0
 17 25  1  0
 17 26  1  0
 18 27  1  0
 18 28  1  0
 19 29  1  0
 19 30  1  0
 11 14  1  0
M  ISO  2  12  14  13  14
M  END
>  <DihAtoms>  (1) 
4,10,13,14

>  <DihDeg>  (1) 
-118.56017576723124

$$$$
