
     RDKit          3D

 29 30  0  0  0  0  0  0  0  0999 V2000
   44.5600   36.0103   44.4959 C   0  0  0  0  0  0  0  0  0  0  0  0
   45.3058   35.9229   43.2947 C   0  0  0  0  0  0  0  0  0  0  0  0
   46.1939   34.8585   43.1708 C   0  0  0  0  0  0  0  0  0  0  0  0
   46.3108   33.9588   44.1881 N   0  0  0  0  0  0  0  0  0  0  0  0
   45.5691   34.0859   45.3280 C   0  0  0  0  0  0  0  0  0  0  0  0
   44.7024   35.1043   45.4764 N   0  0  0  0  0  0  0  0  0  0  0  0
   46.9601   34.7743   41.9291 C   0  0  0  0  0  0  0  0  0  0  0  0
   43.8673   36.8277   44.6099 H   0  0  0  0  0  0  0  0  0  0  0  0
   45.1559   36.6696   42.5439 H   0  0  0  0  0  0  0  0  0  0  0  0
   45.6607   33.3798   46.1265 H   0  0  0  0  0  0  0  0  0  0  0  0
   47.2149   33.7053   41.7702 H   0  0  0  0  0  0  0  0  0  0  0  0
   46.4079   35.1105   41.0431 H   0  0  0  0  0  0  0  0  0  0  0  0
   48.2732   35.5063   41.9812 C   0  0  0  0  0  0  0  0  0  0  0  0
   48.1594   36.9763   42.2513 C   0  0  0  0  0  0  0  0  0  0  0  0
   49.5082   37.5747   41.8461 C   0  0  0  0  0  0  0  0  0  0  0  0
   50.5395   36.9974   42.7774 C   0  0  0  0  0  0  0  0  0  0  0  0
   50.5960   35.4933   42.6457 C   0  0  0  0  0  0  0  0  0  0  0  0
   49.2200   34.9245   43.0128 C   0  0  0  0  0  0  0  0  0  0  0  0
   48.7895   35.4041   41.0055 H   0  0  0  0  0  0  0  0  0  0  0  0
   48.0330   37.2217   43.3266 H   0  0  0  0  0  0  0  0  0  0  0  0
   47.3735   37.4712   41.6489 H   0  0  0  0  0  0  0  0  0  0  0  0
   49.7196   37.1722   40.8231 H   0  0  0  0  0  0  0  0  0  0  0  0
   49.4998   38.6676   41.9087 H   0  0  0  0  0  0  0  0  0  0  0  0
   51.5657   37.3704   42.5119 H   0  0  0  0  0  0  0  0  0  0  0  0
   50.2648   37.2908   43.8059 H   0  0  0  0  0  0  0  0  0  0  0  0
   50.7273   35.2217   41.5793 H   0  0  0  0  0  0  0  0  0  0  0  0
   51.3815   35.0683   43.2727 H   0  0  0  0  0  0  0  0  0  0  0  0
   49.2281   33.8277   42.8844 H   0  0  0  0  0  0  0  0  0  0  0  0
   48.9472   35.2149   44.0532 H   0  0  0  0  0  0  0  0  0  0  0  0
  1  6  2  0
  2  1  1  0
  3  2  2  0
  3  4  1  0
  4  5  2  0
  5  6  1  0
  7  3  1  0
  1  8  1  0
  2  9  1  0
  5 10  1  0
  7 11  1  0
  7 12  1  0
 13 14  1  0
 14 15  1  0
 15 16  1  0
 16 17  1  0
 17 18  1  0
 18 13  1  0
 13 19  1  0
 14 20  1  0
 14 21  1  0
 15 22  1  0
 15 23  1  0
 16 24  1  0
 16 25  1  0
 17 26  1  0
 17 27  1  0
 18 28  1  0
 18 29  1  0
  7 13  1  0
M  ISO  5   8  14   9  14  10  14  11   8  12   8
M  END
>  <DihAtoms>  (1) 
2,6,12,13

>  <DihDeg>  (1) 
-59.99933838426612

$$$$
