
     RDKit          3D

 32 33  0  0  0  0  0  0  0  0999 V2000
   44.5581   36.0421   44.4781 C   0  0  0  0  0  0  0  0  0  0  0  0
   45.2238   35.9353   43.2487 C   0  0  0  0  0  0  0  0  0  0  0  0
   46.0867   34.8733   43.0262 C   0  0  0  0  0  0  0  0  0  0  0  0
   46.2371   33.9785   44.0405 N   0  0  0  0  0  0  0  0  0  0  0  0
   45.5880   34.1013   45.2116 C   0  0  0  0  0  0  0  0  0  0  0  0
   44.7580   35.1113   45.4427 N   0  0  0  0  0  0  0  0  0  0  0  0
   46.7834   34.7759   41.7183 C   0  0  0  0  0  0  0  0  0  0  0  0
   48.1829   35.3075   41.8749 C   0  0  0  0  0  0  0  0  0  0  0  0
   43.9138   36.9102   44.5326 H   0  0  0  0  0  0  0  0  0  0  0  0
   45.0966   36.6517   42.4507 H   0  0  0  0  0  0  0  0  0  0  0  0
   45.7373   33.3559   46.0066 H   0  0  0  0  0  0  0  0  0  0  0  0
   46.7620   33.6963   41.4541 H   0  0  0  0  0  0  0  0  0  0  0  0
   46.2039   35.3200   40.9681 H   0  0  0  0  0  0  0  0  0  0  0  0
   48.1078   36.3525   42.2197 H   0  0  0  0  0  0  0  0  0  0  0  0
   48.6710   34.7405   42.6940 H   0  0  0  0  0  0  0  0  0  0  0  0
   49.0041   35.2668   40.6170 C   0  0  0  0  0  0  0  0  0  0  0  0
   49.0993   33.8338   40.1782 C   0  0  0  0  0  0  0  0  0  0  0  0
   48.9759   33.6665   38.6854 C   0  0  0  0  0  0  0  0  0  0  0  0
   49.8638   34.7442   38.0650 C   0  0  0  0  0  0  0  0  0  0  0  0
   49.1593   36.0545   38.2671 C   0  0  0  0  0  0  0  0  0  0  0  0
   48.4347   36.1846   39.5590 C   0  0  0  0  0  0  0  0  0  0  0  0
   50.0180   35.6578   40.8411 H   0  0  0  0  0  0  0  0  0  0  0  0
   48.3180   33.2067   40.6819 H   0  0  0  0  0  0  0  0  0  0  0  0
   50.0606   33.4239   40.5416 H   0  0  0  0  0  0  0  0  0  0  0  0
   49.2948   32.6461   38.4237 H   0  0  0  0  0  0  0  0  0  0  0  0
   47.9502   33.7918   38.3348 H   0  0  0  0  0  0  0  0  0  0  0  0
   50.8551   34.7639   38.5592 H   0  0  0  0  0  0  0  0  0  0  0  0
   49.9175   34.4888   36.9956 H   0  0  0  0  0  0  0  0  0  0  0  0
   49.9061   36.8732   38.0885 H   0  0  0  0  0  0  0  0  0  0  0  0
   48.4561   36.1610   37.3901 H   0  0  0  0  0  0  0  0  0  0  0  0
   47.3569   36.0441   39.3850 H   0  0  0  0  0  0  0  0  0  0  0  0
   48.6423   37.2265   39.9328 H   0  0  0  0  0  0  0  0  0  0  0  0
  1  6  2  0
  2  1  1  0
  3  2  2  0
  3  4  1  0
  4  5  2  0
  5  6  1  0
  7  8  1  0
  7  3  1  0
  1  9  1  0
  2 10  1  0
  5 11  1  0
  7 12  1  0
  7 13  1  0
  8 14  1  0
  8 15  1  0
 16 17  1  0
 17 18  1  0
 18 19  1  0
 19 20  1  0
 20 21  1  0
 21 16  1  0
 16 22  1  0
 17 23  1  0
 17 24  1  0
 18 25  1  0
 18 26  1  0
 19 27  1  0
 19 28  1  0
 20 29  1  0
 20 30  1  0
 21 31  1  0
 21 32  1  0
  8 16  1  0
M  ISO  7   9  14  10  14  11  14  12   8  13   8  14   8  15   8
M  END
>  <DihAtoms>  (1) 
6,7,15,16

>  <DihDeg>  (1) 
-179.9996757427047

$$$$
