
     RDKit          3D

 29 30  0  0  0  0  0  0  0  0999 V2000
   44.5600   36.0103   44.4959 C   0  0  0  0  0  0  0  0  0  0  0  0
   45.3058   35.9229   43.2947 C   0  0  0  0  0  0  0  0  0  0  0  0
   46.1939   34.8585   43.1708 C   0  0  0  0  0  0  0  0  0  0  0  0
   46.3108   33.9588   44.1881 N   0  0  0  0  0  0  0  0  0  0  0  0
   45.5691   34.0859   45.3280 C   0  0  0  0  0  0  0  0  0  0  0  0
   44.7024   35.1043   45.4764 N   0  0  0  0  0  0  0  0  0  0  0  0
   46.9601   34.7743   41.9291 C   0  0  0  0  0  0  0  0  0  0  0  0
   43.8673   36.8277   44.6099 H   0  0  0  0  0  0  0  0  0  0  0  0
   45.1559   36.6696   42.5439 H   0  0  0  0  0  0  0  0  0  0  0  0
   45.6607   33.3798   46.1265 H   0  0  0  0  0  0  0  0  0  0  0  0
   47.2149   33.7053   41.7702 H   0  0  0  0  0  0  0  0  0  0  0  0
   46.4079   35.1105   41.0431 H   0  0  0  0  0  0  0  0  0  0  0  0
   48.2732   35.5063   41.9812 C   0  0  0  0  0  0  0  0  0  0  0  0
   48.7262   35.8806   43.3601 C   0  0  0  0  0  0  0  0  0  0  0  0
   49.8059   36.9469   43.1632 C   0  0  0  0  0  0  0  0  0  0  0  0
   50.9514   36.2818   42.4493 C   0  0  0  0  0  0  0  0  0  0  0  0
   50.5098   35.7578   41.1028 C   0  0  0  0  0  0  0  0  0  0  0  0
   49.3972   34.7265   41.3273 C   0  0  0  0  0  0  0  0  0  0  0  0
   48.1891   36.4523   41.4094 H   0  0  0  0  0  0  0  0  0  0  0  0
   49.2207   35.0499   43.9058 H   0  0  0  0  0  0  0  0  0  0  0  0
   47.9216   36.3222   43.9791 H   0  0  0  0  0  0  0  0  0  0  0  0
   49.3629   37.6956   42.4586 H   0  0  0  0  0  0  0  0  0  0  0  0
   50.1374   37.3666   44.1184 H   0  0  0  0  0  0  0  0  0  0  0  0
   51.7708   37.0218   42.2402 H   0  0  0  0  0  0  0  0  0  0  0  0
   51.3143   35.4592   43.0903 H   0  0  0  0  0  0  0  0  0  0  0  0
   50.0163   36.5715   40.5348 H   0  0  0  0  0  0  0  0  0  0  0  0
   51.3459   35.3260   40.5502 H   0  0  0  0  0  0  0  0  0  0  0  0
   49.0320   34.3597   40.3518 H   0  0  0  0  0  0  0  0  0  0  0  0
   49.7667   33.8933   41.9680 H   0  0  0  0  0  0  0  0  0  0  0  0
  1  6  2  0
  2  1  1  0
  3  2  2  0
  3  4  1  0
  4  5  2  0
  5  6  1  0
  7  3  1  0
  1  8  1  0
  2  9  1  0
  5 10  1  0
  7 11  1  0
  7 12  1  0
 13 14  1  0
 14 15  1  0
 15 16  1  0
 16 17  1  0
 17 18  1  0
 18 13  1  0
 13 19  1  0
 14 20  1  0
 14 21  1  0
 15 22  1  0
 15 23  1  0
 16 24  1  0
 16 25  1  0
 17 26  1  0
 17 27  1  0
 18 28  1  0
 18 29  1  0
  7 13  1  0
M  ISO  5   8  14   9  14  10  14  11   8  12   8
M  END
>  <DihAtoms>  (1) 
2,6,12,13

>  <DihDeg>  (1) 
-59.99933838426612

$$$$
