
     RDKit          3D

 39 42  0  0  0  0  0  0  0  0999 V2000
   47.2214   31.3611   45.0834 C   0  0  0  0  0  0  0  0  0  0  0  0
   46.9158   32.7202   45.1184 C   0  0  0  0  0  0  0  0  0  0  0  0
   46.3229   33.3664   46.2170 C   0  0  0  0  0  0  0  0  0  0  0  0
   46.0242   32.5784   47.3351 C   0  0  0  0  0  0  0  0  0  0  0  0
   45.4657   32.8055   48.5435 N   0  0  0  0  0  0  0  0  0  0  0  0
   45.4158   31.6457   49.2479 C   0  0  0  0  0  0  0  0  0  0  0  0
   45.9544   30.6988   48.4504 N   0  0  0  0  0  0  0  0  0  0  0  0
   46.3367   31.2240   47.2783 C   0  0  0  0  0  0  0  0  0  0  0  0
   46.9189   30.5903   46.2066 C   0  0  0  0  0  0  0  0  0  0  0  0
   46.4661   35.1751   42.4032 C   0  0  0  0  0  0  0  0  0  0  0  0
   47.6831   35.0409   41.6939 C   0  0  0  0  0  0  0  0  0  0  0  0
   48.6533   34.1094   42.1557 C   0  0  0  0  0  0  0  0  0  0  0  0
   48.3453   33.3834   43.2827 N   0  0  0  0  0  0  0  0  0  0  0  0
   47.1741   33.5347   43.9377 C   0  0  0  0  0  0  0  0  0  0  0  0
   46.2674   34.4181   43.4892 N   0  0  0  0  0  0  0  0  0  0  0  0
   47.6743   30.9895   44.1867 H   0  0  0  0  0  0  0  0  0  0  0  0
   45.1155   33.6740   48.9378 H   0  0  0  0  0  0  0  0  0  0  0  0
   45.0467   31.4325   50.2304 H   0  0  0  0  0  0  0  0  0  0  0  0
   47.1506   29.5471   46.1873 H   0  0  0  0  0  0  0  0  0  0  0  0
   45.7104   35.8701   42.0817 H   0  0  0  0  0  0  0  0  0  0  0  0
   47.8762   35.6354   40.8141 H   0  0  0  0  0  0  0  0  0  0  0  0
   49.5916   33.9821   41.6381 H   0  0  0  0  0  0  0  0  0  0  0  0
   46.0073   34.7841   46.4098 C   0  0  0  0  0  0  0  0  0  0  0  0
   44.7886   35.2344   45.5816 C   0  0  0  0  0  0  0  0  0  0  0  0
   44.3902   36.5660   46.2060 C   0  0  0  0  0  0  0  0  0  0  0  0
   45.4620   37.5771   46.0047 C   0  0  0  0  0  0  0  0  0  0  0  0
   46.8212   37.0501   45.6882 C   0  0  0  0  0  0  0  0  0  0  0  0
   47.1411   35.7397   46.3279 C   0  0  0  0  0  0  0  0  0  0  0  0
   45.5870   34.9057   47.4584 H   0  0  0  0  0  0  0  0  0  0  0  0
   44.0091   34.4766   45.7393 H   0  0  0  0  0  0  0  0  0  0  0  0
   45.0127   35.4444   44.5442 H   0  0  0  0  0  0  0  0  0  0  0  0
   43.4258   36.9000   45.7650 H   0  0  0  0  0  0  0  0  0  0  0  0
   44.2375   36.3748   47.3020 H   0  0  0  0  0  0  0  0  0  0  0  0
   45.4514   38.2483   46.9015 H   0  0  0  0  0  0  0  0  0  0  0  0
   45.1522   38.2521   45.1675 H   0  0  0  0  0  0  0  0  0  0  0  0
   47.0373   37.0404   44.6052 H   0  0  0  0  0  0  0  0  0  0  0  0
   47.5505   37.8093   46.1024 H   0  0  0  0  0  0  0  0  0  0  0  0
   47.5253   35.9792   47.3733 H   0  0  0  0  0  0  0  0  0  0  0  0
   48.0594   35.3148   45.8414 H   0  0  0  0  0  0  0  0  0  0  0  0
  1  2  2  0
  1  9  1  0
  2  3  1  0
  3  4  2  0
  4  5  1  0
  5  6  1  0
  7  6  2  0
  8  4  1  0
  8  7  1  0
  9  8  2  0
 10 15  2  0
 11 12  2  0
 11 10  1  0
 12 13  1  0
 13 14  2  0
 14  2  1  0
 15 14  1  0
  1 16  1  0
  5 17  1  0
  6 18  1  0
  9 19  1  0
 10 20  1  0
 11 21  1  0
 12 22  1  0
 23 24  1  0
 24 25  1  0
 25 26  1  0
 26 27  1  0
 27 28  1  0
 28 23  1  0
 23 29  1  0
 24 30  1  0
 24 31  1  0
 25 32  1  0
 25 33  1  0
 26 34  1  0
 26 35  1  0
 27 36  1  0
 27 37  1  0
 28 38  1  0
 28 39  1  0
  3 23  1  0
M  ISO  7  16  14  17   9  18  14  19  14  20  14  21  14  22  14
M  END
>  <DihAtoms>  (1) 
1,2,22,23

>  <DihDeg>  (1) 
-106.02498861943148

$$$$
