
     RDKit          3D

 52 55  0  0  0  0  0  0  0  0999 V2000
   44.0270   35.5170   41.1480 C   0  0  0  0  0  0  0  0  0  0  0  0
   42.8680   34.9460   40.5140 C   0  0  0  0  0  0  0  0  0  0  0  0
   42.5650   34.8130   39.1910 C   0  0  0  0  0  0  0  0  0  0  0  0
   41.4140   34.2250   38.6750 C   0  0  0  0  0  0  0  0  0  0  0  0
   40.5160   33.7440   39.5950 C   0  0  0  0  0  0  0  0  0  0  0  0
   40.8350   33.8890   40.9110 C   0  0  0  0  0  0  0  0  0  0  0  0
   41.9390   34.4510   41.3880 N   0  0  0  0  0  0  0  0  0  0  0  0
   39.3280   33.1360   38.9340 C   0  0  0  0  0  0  0  0  0  0  0  0
   39.0770   33.7910   37.5540 C   0  0  0  0  0  0  0  0  0  0  0  0
   37.7240   33.2740   37.0750 C   0  0  0  0  0  0  0  0  0  0  0  0
   38.0130   31.8700   36.5640 C   0  0  0  0  0  0  0  0  0  0  0  0
   39.2830   31.3300   37.1580 C   0  0  0  0  0  0  0  0  0  0  0  0
   39.4290   31.6810   38.6470 C   0  0  0  0  0  0  0  0  0  0  0  0
   39.7610   33.3910   41.8370 C   0  0  0  0  0  0  0  0  0  0  0  0
   38.5240   33.4410   41.2340 F   0  0  0  0  0  0  0  0  0  0  0  0
   39.7150   34.0920   43.0260 F   0  0  0  0  0  0  0  0  0  0  0  0
   40.0150   32.0790   42.1730 F   0  0  0  0  0  0  0  0  0  0  0  0
   44.0700   35.4590   42.6330 C   0  0  0  0  0  0  0  0  0  0  0  0
   46.9900   33.2270   43.1150 C   0  0  0  0  0  0  0  0  0  0  0  0
   46.9860   33.1530   44.4500 C   0  0  0  0  0  0  0  0  0  0  0  0
   45.5350   34.2220   44.8900 S   0  0  0  0  0  0  0  0  0  0  0  0
   45.1990   34.5790   43.1000 C   0  0  0  0  0  0  0  0  0  0  0  0
   46.0440   33.9680   42.6450 N   0  0  0  0  0  0  0  0  0  0  0  0
   49.6710   32.4740   40.5820 C   0  0  0  0  0  0  0  0  0  0  0  0
   48.7660   33.2060   41.3620 C   0  0  0  0  0  0  0  0  0  0  0  0
   47.9760   32.5330   42.2500 C   0  0  0  0  0  0  0  0  0  0  0  0
   48.1260   31.1570   42.3200 N   0  0  0  0  0  0  0  0  0  0  0  0
   49.0170   30.5100   41.5400 C   0  0  0  0  0  0  0  0  0  0  0  0
   49.7830   31.1630   40.6790 N   0  0  0  0  0  0  0  0  0  0  0  0
   48.7350   34.6120   41.1690 N   0  0  0  0  0  0  0  0  0  0  0  0
   44.0809   36.5755   40.8537 H   0  0  0  0  0  0  0  0  0  0  0  0
   44.8747   34.9034   40.8092 H   0  0  0  0  0  0  0  0  0  0  0  0
   43.2950   35.2052   38.4677 H   0  0  0  0  0  0  0  0  0  0  0  0
   41.2342   34.1500   37.5924 H   0  0  0  0  0  0  0  0  0  0  0  0
   38.5243   33.3045   39.6659 H   0  0  0  0  0  0  0  0  0  0  0  0
   39.0537   34.8865   37.6508 H   0  0  0  0  0  0  0  0  0  0  0  0
   39.8762   33.5404   36.8410 H   0  0  0  0  0  0  0  0  0  0  0  0
   37.0026   33.2451   37.9049 H   0  0  0  0  0  0  0  0  0  0  0  0
   37.2796   33.9178   36.3017 H   0  0  0  0  0  0  0  0  0  0  0  0
   37.1781   31.2086   36.8387 H   0  0  0  0  0  0  0  0  0  0  0  0
   38.1285   31.9125   35.4709 H   0  0  0  0  0  0  0  0  0  0  0  0
   39.2853   30.2352   37.0513 H   0  0  0  0  0  0  0  0  0  0  0  0
   40.1261   31.7891   36.6210 H   0  0  0  0  0  0  0  0  0  0  0  0
   38.6358   31.1618   39.2049 H   0  0  0  0  0  0  0  0  0  0  0  0
   40.4367   31.3637   38.9532 H   0  0  0  0  0  0  0  0  0  0  0  0
   44.2162   36.4745   43.0297 H   0  0  0  0  0  0  0  0  0  0  0  0
   43.1209   35.0391   42.9976 H   0  0  0  0  0  0  0  0  0  0  0  0
   47.6666   32.6013   45.1151 H   0  0  0  0  0  0  0  0  0  0  0  0
   50.3095   33.0104   39.8647 H   0  0  0  0  0  0  0  0  0  0  0  0
   49.1092   29.4169   41.6209 H   0  0  0  0  0  0  0  0  0  0  0  0
   48.0864   35.1932   41.7190 H   0  0  0  0  0  0  0  0  0  0  0  0
   49.3611   35.0510   40.4790 H   0  0  0  0  0  0  0  0  0  0  0  0
  1 18  1  0
  2  1  1  0
  2  7  1  0
  3  2  2  0
  4  3  1  0
  4  5  2  0
  5  6  1  0
  6  7  2  0
  6 14  1  0
  8  5  1  0
  9  8  1  0
 10  9  1  0
 11 10  1  0
 11 12  1  0
 12 13  1  0
 13  8  1  0
 14 17  1  0
 14 16  1  0
 15 14  1  0
 18 22  1  0
 19 20  2  0
 20 21  1  0
 22 21  1  0
 23 22  2  0
 23 19  1  0
 24 29  2  0
 24 25  1  0
 25 26  2  0
 26 27  1  0
 26 19  1  0
 28 27  2  0
 29 28  1  0
 30 25  1  0
  1 31  1  0
  1 32  1  0
  3 33  1  0
  4 34  1  0
  8 35  1  0
  9 36  1  0
  9 37  1  0
 10 38  1  0
 10 39  1  0
 11 40  1  0
 11 41  1  0
 12 42  1  0
 12 43  1  0
 13 44  1  0
 13 45  1  0
 18 46  1  0
 18 47  1  0
 20 48  1  0
 24 49  1  0
 28 50  1  0
 30 51  1  0
 30 52  1  0
M  ISO  8  31   8  32   8  33  14  34  14  35  13  36  13  37  13  38  13
M  ISO  8  39  13  40  13  41  13  42  13  43  13  44  13  45  13  46   8
M  ISO  4  47   8  48  14  49  14  50  14
M  END
>  <minimizedAffinity>  (1) 
-5.85847616

>  <minimizedRMSD>  (1) 
1.69790757

$$$$
