
     RDKit          3D

 49 52  0  0  0  0  0  0  0  0999 V2000
   45.8067   33.2288   46.3590 C   0  0  0  0  0  0  0  0  0  0  0  0
   45.1971   33.1419   47.6232 C   0  0  0  0  0  0  0  0  0  0  0  0
   45.7711   32.3275   48.5353 C   0  0  0  0  0  0  0  0  0  0  0  0
   46.9344   31.6023   48.2117 C   0  0  0  0  0  0  0  0  0  0  0  0
   47.2426   32.1071   46.4938 S   0  0  0  0  0  0  0  0  0  0  0  0
   44.3090   35.9097   44.2538 C   0  0  0  0  0  0  0  0  0  0  0  0
   44.4959   35.3377   42.9713 C   0  0  0  0  0  0  0  0  0  0  0  0
   45.1159   34.0856   42.8892 C   0  0  0  0  0  0  0  0  0  0  0  0
   45.5078   33.4820   44.0532 N   0  0  0  0  0  0  0  0  0  0  0  0
   45.3103   34.0624   45.2552 C   0  0  0  0  0  0  0  0  0  0  0  0
   44.7154   35.2649   45.3388 N   0  0  0  0  0  0  0  0  0  0  0  0
   47.7908   30.6601   48.8678 C   0  0  1  0  0  0  0  0  0  0  0  0
   48.1616   29.4980   48.0056 C   0  0  0  0  0  0  0  0  0  0  0  0
   49.5830   29.0464   48.1354 C   0  0  0  0  0  0  0  0  0  0  0  0
   50.0611   29.0179   49.5676 C   0  0  0  0  0  0  0  0  0  0  0  0
   49.6670   30.2419   50.3341 C   0  0  0  0  0  0  0  0  0  0  0  0
   49.0992   31.2956   49.3812 C   0  0  2  0  0  0  0  0  0  0  0  0
   44.3056   33.6981   47.8680 H   0  0  0  0  0  0  0  0  0  0  0  0
   45.4449   32.1366   49.5461 H   0  0  0  0  0  0  0  0  0  0  0  0
   43.8306   36.8842   44.3716 H   0  0  0  0  0  0  0  0  0  0  0  0
   44.1670   35.8614   42.1057 H   0  0  0  0  0  0  0  0  0  0  0  0
   45.2767   33.6168   41.9354 H   0  0  0  0  0  0  0  0  0  0  0  0
   47.2918   30.2952   49.7745 H   0  0  0  0  0  0  0  0  0  0  0  0
   48.0051   29.7164   46.9090 H   0  0  0  0  0  0  0  0  0  0  0  0
   47.5075   28.6144   48.2064 H   0  0  0  0  0  0  0  0  0  0  0  0
   50.3098   29.6998   47.5964 H   0  0  0  0  0  0  0  0  0  0  0  0
   49.6619   28.0218   47.7303 H   0  0  0  0  0  0  0  0  0  0  0  0
   51.1368   28.8076   49.5839 H   0  0  0  0  0  0  0  0  0  0  0  0
   49.5564   28.1550   50.0423 H   0  0  0  0  0  0  0  0  0  0  0  0
   50.5382   30.6959   50.8301 H   0  0  0  0  0  0  0  0  0  0  0  0
   48.8775   30.0390   51.0898 H   0  0  0  0  0  0  0  0  0  0  0  0
   49.8304   31.4450   48.5722 H   0  0  0  0  0  0  0  0  0  0  0  0
   48.8674   32.5983   50.0675 C   0  0  0  0  0  0  0  0  0  0  0  0
   47.5687   32.7460   50.7795 C   0  0  0  0  0  0  0  0  0  0  0  0
   47.3697   34.2484   50.9831 C   0  0  0  0  0  0  0  0  0  0  0  0
   48.4981   34.7403   51.8627 C   0  0  0  0  0  0  0  0  0  0  0  0
   49.8607   34.4017   51.3349 C   0  0  0  0  0  0  0  0  0  0  0  0
   49.9750   32.9057   51.0127 C   0  0  0  0  0  0  0  0  0  0  0  0
   48.8957   33.3805   49.2657 H   0  0  0  0  0  0  0  0  0  0  0  0
   46.7621   32.2783   50.2212 H   0  0  0  0  0  0  0  0  0  0  0  0
   47.6660   32.2378   51.7771 H   0  0  0  0  0  0  0  0  0  0  0  0
   46.4286   34.4428   51.5039 H   0  0  0  0  0  0  0  0  0  0  0  0
   47.4112   34.7069   49.9738 H   0  0  0  0  0  0  0  0  0  0  0  0
   48.4323   35.8290   51.9583 H   0  0  0  0  0  0  0  0  0  0  0  0
   48.3848   34.2486   52.8450 H   0  0  0  0  0  0  0  0  0  0  0  0
   50.0136   34.9301   50.3778 H   0  0  0  0  0  0  0  0  0  0  0  0
   50.6042   34.6329   52.0965 H   0  0  0  0  0  0  0  0  0  0  0  0
   50.9637   32.7117   50.5939 H   0  0  0  0  0  0  0  0  0  0  0  0
   49.8280   32.3889   51.9952 H   0  0  0  0  0  0  0  0  0  0  0  0
  1  5  1  0
  1  2  2  0
  2  3  1  0
  4  3  2  0
  4 12  1  0
  5  4  1  0
  6 11  2  0
  7  6  1  0
  8  7  2  0
  8  9  1  0
  9 10  2  0
 10 11  1  0
 10  1  1  0
 12 17  1  0
 13 14  1  0
 13 12  1  0
 14 15  1  0
 15 16  1  0
 17 16  1  0
  2 18  1  0
  3 19  1  0
  6 20  1  0
  7 21  1  0
  8 22  1  0
 12 23  1  1
 13 24  1  0
 13 25  1  0
 14 26  1  0
 14 27  1  0
 15 28  1  0
 15 29  1  0
 16 30  1  0
 16 31  1  0
 17 32  1  6
 33 34  1  0
 34 35  1  0
 35 36  1  0
 36 37  1  0
 37 38  1  0
 38 33  1  0
 33 39  1  0
 34 40  1  0
 34 41  1  0
 35 42  1  0
 35 43  1  0
 36 44  1  0
 36 45  1  0
 37 46  1  0
 37 47  1  0
 38 48  1  0
 38 49  1  0
 17 33  1  0
M  ISO  8  18  14  19  14  20  14  21  14  22  14  23  13  24  13  25  13
M  ISO  7  26  13  27  13  28  13  29  13  30  13  31  13  32  13
M  END
>  <DihAtoms>  (1) 
11,16,32,33

>  <DihDeg>  (1) 
61.22392545186272

$$$$
