
     RDKit          3D

 33 35  0  0  0  0  0  0  0  0999 V2000
   44.5852   35.8952   44.3136 C   0  0  0  0  0  0  0  0  0  0  0  0
   45.3241   35.9104   43.1159 C   0  0  0  0  0  0  0  0  0  0  0  0
   46.2948   34.9297   43.0215 C   0  0  0  0  0  0  0  0  0  0  0  0
   46.4773   34.0329   44.0555 N   0  0  0  0  0  0  0  0  0  0  0  0
   45.7452   34.0572   45.1816 C   0  0  0  0  0  0  0  0  0  0  0  0
   44.7873   35.0099   45.2983 N   0  0  0  0  0  0  0  0  0  0  0  0
   47.0859   34.8051   41.7414 C   0  0  0  0  0  0  0  0  0  0  0  0
   48.4702   35.4519   41.9050 C   0  0  0  0  0  0  0  0  0  0  0  0
   48.2269   33.9217   41.7253 C   0  0  0  0  0  0  0  0  0  0  0  0
   43.8035   36.5860   44.5355 H   0  0  0  0  0  0  0  0  0  0  0  0
   46.0588   33.2689   45.8452 H   0  0  0  0  0  0  0  0  0  0  0  0
   46.6405   35.3074   40.8428 H   0  0  0  0  0  0  0  0  0  0  0  0
   48.8351   35.6934   42.9113 H   0  0  0  0  0  0  0  0  0  0  0  0
   48.9874   35.8936   41.0591 H   0  0  0  0  0  0  0  0  0  0  0  0
   48.3782   33.2722   42.5992 H   0  0  0  0  0  0  0  0  0  0  0  0
   48.6042   33.4589   40.7907 H   0  0  0  0  0  0  0  0  0  0  0  0
   45.0558   36.8978   42.0936 C   0  0  0  0  0  0  0  0  0  0  0  0
   46.1300   37.9687   42.1027 C   0  0  0  0  0  0  0  0  0  0  0  0
   45.4652   39.2275   41.5875 C   0  0  0  0  0  0  0  0  0  0  0  0
   44.8110   38.8953   40.2723 C   0  0  0  0  0  0  0  0  0  0  0  0
   45.2326   37.5637   39.7041 C   0  0  0  0  0  0  0  0  0  0  0  0
   44.9577   36.4239   40.6823 C   0  0  0  0  0  0  0  0  0  0  0  0
   44.0630   37.3893   42.3185 H   0  0  0  0  0  0  0  0  0  0  0  0
   46.6064   38.1008   43.0837 H   0  0  0  0  0  0  0  0  0  0  0  0
   46.9286   37.7112   41.3891 H   0  0  0  0  0  0  0  0  0  0  0  0
   46.2704   39.9810   41.4571 H   0  0  0  0  0  0  0  0  0  0  0  0
   44.6647   39.5857   42.2727 H   0  0  0  0  0  0  0  0  0  0  0  0
   45.1650   39.6481   39.5073 H   0  0  0  0  0  0  0  0  0  0  0  0
   43.7078   38.9888   40.2776 H   0  0  0  0  0  0  0  0  0  0  0  0
   46.3105   37.5838   39.4494 H   0  0  0  0  0  0  0  0  0  0  0  0
   44.6783   37.4508   38.7538 H   0  0  0  0  0  0  0  0  0  0  0  0
   43.9132   36.0813   40.4658 H   0  0  0  0  0  0  0  0  0  0  0  0
   45.6631   35.6394   40.3824 H   0  0  0  0  0  0  0  0  0  0  0  0
  1  6  2  0
  2  1  1  0
  3  2  2  0
  3  4  1  0
  4  5  2  0
  5  6  1  0
  7  8  1  0
  7  9  1  0
  7  3  1  0
  8  9  1  0
  1 10  1  0
  5 11  1  0
  7 12  1  0
  8 13  1  0
  8 14  1  0
  9 15  1  0
  9 16  1  0
 17 18  1  0
 18 19  1  0
 19 20  1  0
 20 21  1  0
 21 22  1  0
 22 17  1  0
 17 23  1  0
 18 24  1  0
 18 25  1  0
 19 26  1  0
 19 27  1  0
 20 28  1  0
 20 29  1  0
 21 30  1  0
 21 31  1  0
 22 32  1  0
 22 33  1  0
  2 17  1  0
M  ISO  7  10  14  11  14  12  13  13  13  14  13  15  13  16  13
M  END
>  <DihAtoms>  (1) 
0,1,16,17

>  <DihDeg>  (1) 
-90.843469142602

$$$$
