
     RDKit          3D

 26 27  0  0  0  0  0  0  0  0999 V2000
   44.6402   35.9923   44.3770 C   0  0  0  0  0  0  0  0  0  0  0  0
   45.4333   35.6399   43.2703 C   0  0  0  0  0  0  0  0  0  0  0  0
   46.2235   34.4923   43.3729 C   0  0  0  0  0  0  0  0  0  0  0  0
   46.1826   33.7818   44.5328 N   0  0  0  0  0  0  0  0  0  0  0  0
   45.4096   34.1444   45.5823 C   0  0  0  0  0  0  0  0  0  0  0  0
   44.6347   35.2533   45.5066 N   0  0  0  0  0  0  0  0  0  0  0  0
   44.0151   36.8886   44.3134 H   0  0  0  0  0  0  0  0  0  0  0  0
   45.4456   36.2149   42.3749 H   0  0  0  0  0  0  0  0  0  0  0  0
   46.8653   34.1424   42.5755 H   0  0  0  0  0  0  0  0  0  0  0  0
   45.4225   33.3105   46.8175 C   0  0  0  0  0  0  0  0  0  0  0  0
   46.8124   32.8306   46.9992 C   0  0  0  0  0  0  0  0  0  0  0  0
   47.0246   31.3841   46.6466 C   0  0  0  0  0  0  0  0  0  0  0  0
   46.0641   30.5969   47.4984 C   0  0  0  0  0  0  0  0  0  0  0  0
   44.6435   30.9239   47.2206 C   0  0  0  0  0  0  0  0  0  0  0  0
   44.3563   32.2863   46.7141 C   0  0  0  0  0  0  0  0  0  0  0  0
   45.2128   34.0335   47.6515 H   0  0  0  0  0  0  0  0  0  0  0  0
   47.5579   33.4138   46.4173 H   0  0  0  0  0  0  0  0  0  0  0  0
   47.1581   32.9509   48.0631 H   0  0  0  0  0  0  0  0  0  0  0  0
   46.8051   31.1833   45.6036 H   0  0  0  0  0  0  0  0  0  0  0  0
   48.0392   31.1288   47.0009 H   0  0  0  0  0  0  0  0  0  0  0  0
   46.2772   30.7344   48.5890 H   0  0  0  0  0  0  0  0  0  0  0  0
   46.2732   29.5227   47.3123 H   0  0  0  0  0  0  0  0  0  0  0  0
   44.2520   30.1336   46.5217 H   0  0  0  0  0  0  0  0  0  0  0  0
   44.0627   30.7003   48.1652 H   0  0  0  0  0  0  0  0  0  0  0  0
   43.9870   32.2035   45.6682 H   0  0  0  0  0  0  0  0  0  0  0  0
   43.4552   32.6757   47.2624 H   0  0  0  0  0  0  0  0  0  0  0  0
  1  6  2  0
  2  3  2  0
  2  1  1  0
  3  4  1  0
  4  5  2  0
  6  5  1  0
  1  7  1  0
  2  8  1  0
  3  9  1  0
 10 11  1  0
 11 12  1  0
 12 13  1  0
 13 14  1  0
 14 15  1  0
 15 10  1  0
 10 16  1  0
 11 17  1  0
 11 18  1  0
 12 19  1  0
 12 20  1  0
 13 21  1  0
 13 22  1  0
 14 23  1  0
 14 24  1  0
 15 25  1  0
 15 26  1  0
  5 10  1  0
M  ISO  3   7  14   8  14   9  14
M  END
>  <DihAtoms>  (1) 
3,4,9,10

>  <DihDeg>  (1) 
-113.31559232805266

$$$$
