
     RDKit          3D

 43 45  0  0  0  0  0  0  0  0999 V2000
   45.2108   36.1238   43.0156 C   0  0  0  0  0  0  0  0  0  0  0  0
   44.2122   35.7851   42.0896 C   0  0  0  0  0  0  0  0  0  0  0  0
   44.4727   34.6934   41.2297 C   0  0  0  0  0  0  0  0  0  0  0  0
   45.6514   34.0427   41.3420 N   0  0  0  0  0  0  0  0  0  0  0  0
   46.5822   34.4063   42.2498 C   0  0  0  0  0  0  0  0  0  0  0  0
   46.3617   35.4377   43.0779 N   0  0  0  0  0  0  0  0  0  0  0  0
   49.0577   35.9233   41.3804 Cl  0  0  0  0  0  0  0  0  0  0  0  0
   49.0107   34.2708   41.9104 C   0  0  0  0  0  0  0  0  0  0  0  0
   47.8326   33.6379   42.2961 C   0  0  0  0  0  0  0  0  0  0  0  0
   47.7663   32.3303   42.7201 C   0  0  0  0  0  0  0  0  0  0  0  0
   48.9615   31.6359   42.7516 C   0  0  0  0  0  0  0  0  0  0  0  0
   50.1841   32.1679   42.3909 C   0  0  0  0  0  0  0  0  0  0  0  0
   50.1480   33.5009   41.9750 C   0  0  0  0  0  0  0  0  0  0  0  0
   44.9549   37.2590   43.9189 C   0  0  0  0  0  0  0  0  0  0  0  0
   45.5043   38.4157   43.6321 C   0  0  0  0  0  0  0  0  0  0  0  0
   45.2928   39.6043   44.4939 C   0  0  0  0  0  0  0  0  0  0  0  0
   43.2821   36.3025   42.0046 H   0  0  0  0  0  0  0  0  0  0  0  0
   43.7779   34.3579   40.4922 H   0  0  0  0  0  0  0  0  0  0  0  0
   46.8457   31.8874   43.0051 H   0  0  0  0  0  0  0  0  0  0  0  0
   48.9976   30.5989   43.0739 H   0  0  0  0  0  0  0  0  0  0  0  0
   51.0978   31.6086   42.4240 H   0  0  0  0  0  0  0  0  0  0  0  0
   51.0929   33.9533   41.6832 H   0  0  0  0  0  0  0  0  0  0  0  0
   44.3370   37.1788   44.8027 H   0  0  0  0  0  0  0  0  0  0  0  0
   46.1256   38.5419   42.7643 H   0  0  0  0  0  0  0  0  0  0  0  0
   46.2498   40.0069   44.8667 H   0  0  0  0  0  0  0  0  0  0  0  0
   44.5867   39.3856   45.3307 H   0  0  0  0  0  0  0  0  0  0  0  0
   44.6339   40.6626   43.6139 C   0  0  0  0  0  0  0  0  0  0  0  0
   45.6379   41.2431   42.7059 C   0  0  0  0  0  0  0  0  0  0  0  0
   45.1786   41.5057   41.2934 C   0  0  0  0  0  0  0  0  0  0  0  0
   43.7596   42.0274   41.3961 C   0  0  0  0  0  0  0  0  0  0  0  0
   42.9291   40.8216   41.7658 C   0  0  0  0  0  0  0  0  0  0  0  0
   43.4010   40.1151   42.9788 C   0  0  0  0  0  0  0  0  0  0  0  0
   44.2996   41.4400   44.3338 H   0  0  0  0  0  0  0  0  0  0  0  0
   46.0318   42.1982   43.1105 H   0  0  0  0  0  0  0  0  0  0  0  0
   46.5274   40.5679   42.6504 H   0  0  0  0  0  0  0  0  0  0  0  0
   45.2045   40.5927   40.6659 H   0  0  0  0  0  0  0  0  0  0  0  0
   45.8298   42.2945   40.8681 H   0  0  0  0  0  0  0  0  0  0  0  0
   43.7338   42.8436   42.1245 H   0  0  0  0  0  0  0  0  0  0  0  0
   43.4398   42.3320   40.3751 H   0  0  0  0  0  0  0  0  0  0  0  0
   42.9171   40.1651   40.8755 H   0  0  0  0  0  0  0  0  0  0  0  0
   41.8896   41.1887   41.8837 H   0  0  0  0  0  0  0  0  0  0  0  0
   43.6190   39.0521   42.7062 H   0  0  0  0  0  0  0  0  0  0  0  0
   42.5663   40.0498   43.7071 H   0  0  0  0  0  0  0  0  0  0  0  0
  1  6  1  0
  1 14  1  0
  2  1  2  0
  3  4  2  0
  3  2  1  0
  4  5  1  0
  5  9  1  0
  5  6  2  0
  7  8  1  0
  8 13  2  0
  8  9  1  0
  9 10  2  0
 10 11  1  0
 12 11  2  0
 13 12  1  0
 15 14  2  0
 15 16  1  0
  2 17  1  0
  3 18  1  0
 10 19  1  0
 11 20  1  0
 12 21  1  0
 13 22  1  0
 14 23  1  0
 15 24  1  0
 16 25  1  0
 16 26  1  0
 27 28  1  0
 28 29  1  0
 29 30  1  0
 30 31  1  0
 31 32  1  0
 32 27  1  0
 27 33  1  0
 28 34  1  0
 28 35  1  0
 29 36  1  0
 29 37  1  0
 30 38  1  0
 30 39  1  0
 31 40  1  0
 31 41  1  0
 32 42  1  0
 32 43  1  0
 16 27  1  0
M  ISO  8  17  14  18  14  19  14  20  14  21  14  22  14  25   8  26   8
M  END
>  <DihAtoms>  (1) 
14,15,26,27

>  <DihDeg>  (1) 
179.99974035548072

$$$$
