
     RDKit          3D

 26 27  0  0  0  0  0  0  0  0999 V2000
   44.6402   35.9923   44.3770 C   0  0  0  0  0  0  0  0  0  0  0  0
   45.4333   35.6399   43.2703 C   0  0  0  0  0  0  0  0  0  0  0  0
   46.2235   34.4923   43.3729 C   0  0  0  0  0  0  0  0  0  0  0  0
   46.1826   33.7818   44.5328 N   0  0  0  0  0  0  0  0  0  0  0  0
   45.4096   34.1444   45.5823 C   0  0  0  0  0  0  0  0  0  0  0  0
   44.6347   35.2533   45.5066 N   0  0  0  0  0  0  0  0  0  0  0  0
   44.0151   36.8886   44.3134 H   0  0  0  0  0  0  0  0  0  0  0  0
   45.4456   36.2149   42.3749 H   0  0  0  0  0  0  0  0  0  0  0  0
   46.8653   34.1424   42.5755 H   0  0  0  0  0  0  0  0  0  0  0  0
   45.4225   33.3105   46.8175 C   0  0  0  0  0  0  0  0  0  0  0  0
   46.6158   33.7139   47.5976 C   0  0  0  0  0  0  0  0  0  0  0  0
   47.7543   32.7326   47.5494 C   0  0  0  0  0  0  0  0  0  0  0  0
   47.2024   31.4213   48.0431 C   0  0  0  0  0  0  0  0  0  0  0  0
   46.1150   30.8915   47.1834 C   0  0  0  0  0  0  0  0  0  0  0  0
   45.3109   31.8837   46.4324 C   0  0  0  0  0  0  0  0  0  0  0  0
   44.5213   33.6470   47.3979 H   0  0  0  0  0  0  0  0  0  0  0  0
   47.0293   34.6981   47.2899 H   0  0  0  0  0  0  0  0  0  0  0  0
   46.3708   33.8611   48.6858 H   0  0  0  0  0  0  0  0  0  0  0  0
   48.1275   32.5918   46.5407 H   0  0  0  0  0  0  0  0  0  0  0  0
   48.4824   33.0715   48.3078 H   0  0  0  0  0  0  0  0  0  0  0  0
   46.8430   31.5009   49.1006 H   0  0  0  0  0  0  0  0  0  0  0  0
   48.0544   30.7119   48.0965 H   0  0  0  0  0  0  0  0  0  0  0  0
   46.5775   30.1305   46.4953 H   0  0  0  0  0  0  0  0  0  0  0  0
   45.4639   30.2392   47.8393 H   0  0  0  0  0  0  0  0  0  0  0  0
   45.5100   31.7501   45.3463 H   0  0  0  0  0  0  0  0  0  0  0  0
   44.2292   31.5902   46.5214 H   0  0  0  0  0  0  0  0  0  0  0  0
  1  6  2  0
  2  3  2  0
  2  1  1  0
  3  4  1  0
  4  5  2  0
  6  5  1  0
  1  7  1  0
  2  8  1  0
  3  9  1  0
 10 11  1  0
 11 12  1  0
 12 13  1  0
 13 14  1  0
 14 15  1  0
 15 10  1  0
 10 16  1  0
 11 17  1  0
 11 18  1  0
 12 19  1  0
 12 20  1  0
 13 21  1  0
 13 22  1  0
 14 23  1  0
 14 24  1  0
 15 25  1  0
 15 26  1  0
  5 10  1  0
M  ISO  3   7  14   8  14   9  14
M  END
>  <DihAtoms>  (1) 
3,4,9,10

>  <DihDeg>  (1) 
-113.31559232805266

$$$$
