
     RDKit          3D

 51 55  0  0  0  0  0  0  0  0999 V2000
   48.9440   30.0430   48.1900 S   0  0  0  0  0  0  0  0  0  0  0  0
   49.8560   30.3530   49.6260 C   0  0  0  0  0  0  0  0  0  0  0  0
   50.0520   31.5940   50.1270 N   0  0  0  0  0  0  0  0  0  0  0  0
   50.7530   31.8630   51.2330 C   0  0  0  0  0  0  0  0  0  0  0  0
   51.2950   30.8120   51.8810 N   0  0  0  0  0  0  0  0  0  0  0  0
   51.1550   29.5510   51.4590 C   0  0  0  0  0  0  0  0  0  0  0  0
   51.7290   28.4880   52.1310 C   0  0  0  0  0  0  0  0  0  0  0  0
   51.5770   27.1980   51.6580 C   0  0  0  0  0  0  0  0  0  0  0  0
   50.8500   26.9470   50.5090 C   0  0  0  0  0  0  0  0  0  0  0  0
   50.2720   28.0150   49.8320 C   0  0  0  0  0  0  0  0  0  0  0  0
   50.4220   29.3080   50.3060 C   0  0  0  0  0  0  0  0  0  0  0  0
   49.6140   27.5710   48.5880 C   0  0  0  0  0  0  0  0  0  0  0  0
   50.7270   27.0870   47.5770 C   0  0  0  0  0  0  0  0  0  0  0  0
   50.0260   26.8150   46.2370 C   0  0  0  0  0  0  0  0  0  0  0  0
   49.3960   25.4560   46.3820 C   0  0  0  0  0  0  0  0  0  0  0  0
   49.1670   25.1770   47.8220 C   0  0  0  0  0  0  0  0  0  0  0  0
   48.7750   26.3700   48.6640 C   0  0  0  0  0  0  0  0  0  0  0  0
   46.1190   32.6200   46.9750 C   0  0  0  0  0  0  0  0  0  0  0  0
   47.2540   31.8300   47.0490 C   0  0  0  0  0  0  0  0  0  0  0  0
   47.4600   30.9950   48.1260 C   0  0  0  0  0  0  0  0  0  0  0  0
   46.5290   30.9350   49.1500 C   0  0  0  0  0  0  0  0  0  0  0  0
   45.4120   31.6990   49.0990 C   0  0  0  0  0  0  0  0  0  0  0  0
   45.2280   32.5270   48.0120 C   0  0  0  0  0  0  0  0  0  0  0  0
   44.7240   35.3200   44.9500 C   0  0  0  0  0  0  0  0  0  0  0  0
   45.4620   35.2530   43.7450 C   0  0  0  0  0  0  0  0  0  0  0  0
   46.4340   34.2770   43.6360 C   0  0  0  0  0  0  0  0  0  0  0  0
   46.6640   33.4100   44.6680 N   0  0  0  0  0  0  0  0  0  0  0  0
   45.9270   33.5110   45.8150 C   0  0  0  0  0  0  0  0  0  0  0  0
   44.9620   34.4650   45.9490 N   0  0  0  0  0  0  0  0  0  0  0  0
   50.8816   32.8929   51.5972 H   0  0  0  0  0  0  0  0  0  0  0  0
   52.3099   28.6697   53.0472 H   0  0  0  0  0  0  0  0  0  0  0  0
   52.0398   26.3615   52.2021 H   0  0  0  0  0  0  0  0  0  0  0  0
   50.7308   25.9189   50.1365 H   0  0  0  0  0  0  0  0  0  0  0  0
   49.0013   28.4438   48.3182 H   0  0  0  0  0  0  0  0  0  0  0  0
   51.4906   27.8690   47.4524 H   0  0  0  0  0  0  0  0  0  0  0  0
   51.2296   26.1820   47.9489 H   0  0  0  0  0  0  0  0  0  0  0  0
   50.7561   26.8146   45.4142 H   0  0  0  0  0  0  0  0  0  0  0  0
   49.2796   27.5881   46.0024 H   0  0  0  0  0  0  0  0  0  0  0  0
   48.4357   25.4362   45.8459 H   0  0  0  0  0  0  0  0  0  0  0  0
   50.0636   24.6913   45.9583 H   0  0  0  0  0  0  0  0  0  0  0  0
   48.3632   24.4300   47.8984 H   0  0  0  0  0  0  0  0  0  0  0  0
   50.1332   24.8326   48.2193 H   0  0  0  0  0  0  0  0  0  0  0  0
   48.7680   26.0415   49.7138 H   0  0  0  0  0  0  0  0  0  0  0  0
   47.8035   26.6868   48.2569 H   0  0  0  0  0  0  0  0  0  0  0  0
   47.9985   31.8693   46.2402 H   0  0  0  0  0  0  0  0  0  0  0  0
   46.6974   30.2654   50.0063 H   0  0  0  0  0  0  0  0  0  0  0  0
   44.6673   31.6598   49.9076 H   0  0  0  0  0  0  0  0  0  0  0  0
   44.3188   33.1450   47.9753 H   0  0  0  0  0  0  0  0  0  0  0  0
   43.9435   36.0864   45.0662 H   0  0  0  0  0  0  0  0  0  0  0  0
   45.2682   35.9555   42.9210 H   0  0  0  0  0  0  0  0  0  0  0  0
   47.0267   34.1970   42.7128 H   0  0  0  0  0  0  0  0  0  0  0  0
  1  2  1  0
  2  3  2  0
  2 11  1  0
  3  4  1  0
  4  5  2  0
  6  5  1  0
  6  7  2  0
  8  7  1  0
  9  8  2  0
 10 11  2  0
 10  9  1  0
 11  6  1  0
 12 17  1  0
 12 10  1  0
 13 12  1  0
 14 15  1  0
 14 13  1  0
 15 16  1  0
 16 17  1  0
 18 19  2  0
 18 23  1  0
 19 20  1  0
 20  1  1  0
 20 21  2  0
 22 21  1  0
 23 22  2  0
 24 29  2  0
 25 24  1  0
 26 25  2  0
 26 27  1  0
 27 28  2  0
 28 29  1  0
 28 18  1  0
  4 30  1  0
  7 31  1  0
  8 32  1  0
  9 33  1  0
 12 34  1  0
 13 35  1  0
 13 36  1  0
 14 37  1  0
 14 38  1  0
 15 39  1  0
 15 40  1  0
 16 41  1  0
 16 42  1  0
 17 43  1  0
 17 44  1  0
 19 45  1  0
 21 46  1  0
 22 47  1  0
 23 48  1  0
 24 49  1  0
 25 50  1  0
 26 51  1  0
M  ISO  8  30  14  31  14  32  14  33  14  34  13  35  13  36  13  37  13
M  ISO  8  38  13  39  13  40  13  41  13  42  13  43  13  44  13  45  14
M  ISO  6  46  14  47  14  48  14  49  14  50  14  51  14
M  END
>  <minimizedAffinity>  (1) 
-6.64479208

>  <minimizedRMSD>  (1) 
0.336241841

$$$$
