
     RDKit          3D

 26 27  0  0  0  0  0  0  0  0999 V2000
   44.6402   35.9923   44.3770 C   0  0  0  0  0  0  0  0  0  0  0  0
   45.4333   35.6399   43.2703 C   0  0  0  0  0  0  0  0  0  0  0  0
   46.2235   34.4923   43.3729 C   0  0  0  0  0  0  0  0  0  0  0  0
   46.1826   33.7818   44.5328 N   0  0  0  0  0  0  0  0  0  0  0  0
   45.4096   34.1444   45.5823 C   0  0  0  0  0  0  0  0  0  0  0  0
   44.6347   35.2533   45.5066 N   0  0  0  0  0  0  0  0  0  0  0  0
   44.0151   36.8886   44.3134 H   0  0  0  0  0  0  0  0  0  0  0  0
   45.4456   36.2149   42.3749 H   0  0  0  0  0  0  0  0  0  0  0  0
   46.8653   34.1424   42.5755 H   0  0  0  0  0  0  0  0  0  0  0  0
   45.4225   33.3105   46.8175 C   0  0  0  0  0  0  0  0  0  0  0  0
   44.0777   32.7009   46.9402 C   0  0  0  0  0  0  0  0  0  0  0  0
   43.2043   33.3223   47.9950 C   0  0  0  0  0  0  0  0  0  0  0  0
   43.9666   33.2175   49.2895 C   0  0  0  0  0  0  0  0  0  0  0  0
   45.2479   33.9659   49.2680 C   0  0  0  0  0  0  0  0  0  0  0  0
   45.9003   34.1396   47.9492 C   0  0  0  0  0  0  0  0  0  0  0  0
   46.1416   32.4774   46.5913 H   0  0  0  0  0  0  0  0  0  0  0  0
   43.4980   32.7219   45.9926 H   0  0  0  0  0  0  0  0  0  0  0  0
   44.1390   31.6046   47.1857 H   0  0  0  0  0  0  0  0  0  0  0  0
   43.0073   34.3699   47.7946 H   0  0  0  0  0  0  0  0  0  0  0  0
   42.3261   32.6597   48.0941 H   0  0  0  0  0  0  0  0  0  0  0  0
   44.1576   32.1495   49.5665 H   0  0  0  0  0  0  0  0  0  0  0  0
   43.2957   33.5920   50.0906 H   0  0  0  0  0  0  0  0  0  0  0  0
   45.0617   34.9562   49.7691 H   0  0  0  0  0  0  0  0  0  0  0  0
   45.9371   33.4616   50.0098 H   0  0  0  0  0  0  0  0  0  0  0  0
   45.8800   35.2198   47.6848 H   0  0  0  0  0  0  0  0  0  0  0  0
   46.9991   33.9393   48.0784 H   0  0  0  0  0  0  0  0  0  0  0  0
  1  6  2  0
  2  3  2  0
  2  1  1  0
  3  4  1  0
  4  5  2  0
  6  5  1  0
  1  7  1  0
  2  8  1  0
  3  9  1  0
 10 11  1  0
 11 12  1  0
 12 13  1  0
 13 14  1  0
 14 15  1  0
 15 10  1  0
 10 16  1  0
 11 17  1  0
 11 18  1  0
 12 19  1  0
 12 20  1  0
 13 21  1  0
 13 22  1  0
 14 23  1  0
 14 24  1  0
 15 25  1  0
 15 26  1  0
  5 10  1  0
M  ISO  3   7  14   8  14   9  14
M  END
>  <DihAtoms>  (1) 
3,4,9,10

>  <DihDeg>  (1) 
-113.31559232805266

$$$$
