
     RDKit          3D

 33 35  0  0  0  0  0  0  0  0999 V2000
   44.5852   35.8952   44.3136 C   0  0  0  0  0  0  0  0  0  0  0  0
   45.3241   35.9104   43.1159 C   0  0  0  0  0  0  0  0  0  0  0  0
   46.2948   34.9297   43.0215 C   0  0  0  0  0  0  0  0  0  0  0  0
   46.4773   34.0329   44.0555 N   0  0  0  0  0  0  0  0  0  0  0  0
   45.7452   34.0572   45.1816 C   0  0  0  0  0  0  0  0  0  0  0  0
   44.7873   35.0099   45.2983 N   0  0  0  0  0  0  0  0  0  0  0  0
   47.0859   34.8051   41.7414 C   0  0  0  0  0  0  0  0  0  0  0  0
   48.4702   35.4519   41.9050 C   0  0  0  0  0  0  0  0  0  0  0  0
   48.2269   33.9217   41.7253 C   0  0  0  0  0  0  0  0  0  0  0  0
   43.8035   36.5860   44.5355 H   0  0  0  0  0  0  0  0  0  0  0  0
   46.0588   33.2689   45.8452 H   0  0  0  0  0  0  0  0  0  0  0  0
   46.6405   35.3074   40.8428 H   0  0  0  0  0  0  0  0  0  0  0  0
   48.8351   35.6934   42.9113 H   0  0  0  0  0  0  0  0  0  0  0  0
   48.9874   35.8936   41.0591 H   0  0  0  0  0  0  0  0  0  0  0  0
   48.3782   33.2722   42.5992 H   0  0  0  0  0  0  0  0  0  0  0  0
   48.6042   33.4589   40.7907 H   0  0  0  0  0  0  0  0  0  0  0  0
   45.0558   36.8978   42.0936 C   0  0  0  0  0  0  0  0  0  0  0  0
   44.0242   36.3724   41.1135 C   0  0  0  0  0  0  0  0  0  0  0  0
   44.3144   37.0609   39.7969 C   0  0  0  0  0  0  0  0  0  0  0  0
   44.3526   38.5444   40.0536 C   0  0  0  0  0  0  0  0  0  0  0  0
   43.8149   38.9402   41.4056 C   0  0  0  0  0  0  0  0  0  0  0  0
   44.5620   38.2347   42.5351 C   0  0  0  0  0  0  0  0  0  0  0  0
   46.0129   37.0996   41.5270 H   0  0  0  0  0  0  0  0  0  0  0  0
   44.0137   35.2766   41.0364 H   0  0  0  0  0  0  0  0  0  0  0  0
   43.0138   36.6829   41.4233 H   0  0  0  0  0  0  0  0  0  0  0  0
   43.4848   36.7931   39.1091 H   0  0  0  0  0  0  0  0  0  0  0  0
   45.3076   36.7718   39.3861 H   0  0  0  0  0  0  0  0  0  0  0  0
   43.6526   39.0429   39.3197 H   0  0  0  0  0  0  0  0  0  0  0  0
   45.3397   39.0114   39.8711 H   0  0  0  0  0  0  0  0  0  0  0  0
   42.7347   38.7030   41.4688 H   0  0  0  0  0  0  0  0  0  0  0  0
   43.9074   40.0410   41.4579 H   0  0  0  0  0  0  0  0  0  0  0  0
   45.4288   38.8978   42.7884 H   0  0  0  0  0  0  0  0  0  0  0  0
   43.8499   38.2391   43.3692 H   0  0  0  0  0  0  0  0  0  0  0  0
  1  6  2  0
  2  1  1  0
  3  2  2  0
  3  4  1  0
  4  5  2  0
  5  6  1  0
  7  8  1  0
  7  9  1  0
  7  3  1  0
  8  9  1  0
  1 10  1  0
  5 11  1  0
  7 12  1  0
  8 13  1  0
  8 14  1  0
  9 15  1  0
  9 16  1  0
 17 18  1  0
 18 19  1  0
 19 20  1  0
 20 21  1  0
 21 22  1  0
 22 17  1  0
 17 23  1  0
 18 24  1  0
 18 25  1  0
 19 26  1  0
 19 27  1  0
 20 28  1  0
 20 29  1  0
 21 30  1  0
 21 31  1  0
 22 32  1  0
 22 33  1  0
  2 17  1  0
M  ISO  7  10  14  11  14  12  13  13  13  14  13  15  13  16  13
M  END
>  <DihAtoms>  (1) 
0,1,16,17

>  <DihDeg>  (1) 
-90.843469142602

$$$$
