
     RDKit          3D

 39 42  0  0  0  0  0  0  0  0999 V2000
   47.2214   31.3611   45.0834 C   0  0  0  0  0  0  0  0  0  0  0  0
   46.9158   32.7202   45.1184 C   0  0  0  0  0  0  0  0  0  0  0  0
   46.3229   33.3664   46.2170 C   0  0  0  0  0  0  0  0  0  0  0  0
   46.0242   32.5784   47.3351 C   0  0  0  0  0  0  0  0  0  0  0  0
   45.4657   32.8055   48.5435 N   0  0  0  0  0  0  0  0  0  0  0  0
   45.4158   31.6457   49.2479 C   0  0  0  0  0  0  0  0  0  0  0  0
   45.9544   30.6988   48.4504 N   0  0  0  0  0  0  0  0  0  0  0  0
   46.3367   31.2240   47.2783 C   0  0  0  0  0  0  0  0  0  0  0  0
   46.9189   30.5903   46.2066 C   0  0  0  0  0  0  0  0  0  0  0  0
   46.4661   35.1751   42.4032 C   0  0  0  0  0  0  0  0  0  0  0  0
   47.6831   35.0409   41.6939 C   0  0  0  0  0  0  0  0  0  0  0  0
   48.6533   34.1094   42.1557 C   0  0  0  0  0  0  0  0  0  0  0  0
   48.3453   33.3834   43.2827 N   0  0  0  0  0  0  0  0  0  0  0  0
   47.1741   33.5347   43.9377 C   0  0  0  0  0  0  0  0  0  0  0  0
   46.2674   34.4181   43.4892 N   0  0  0  0  0  0  0  0  0  0  0  0
   47.6743   30.9895   44.1867 H   0  0  0  0  0  0  0  0  0  0  0  0
   45.1155   33.6740   48.9378 H   0  0  0  0  0  0  0  0  0  0  0  0
   45.0467   31.4325   50.2304 H   0  0  0  0  0  0  0  0  0  0  0  0
   47.1506   29.5471   46.1873 H   0  0  0  0  0  0  0  0  0  0  0  0
   45.7104   35.8701   42.0817 H   0  0  0  0  0  0  0  0  0  0  0  0
   47.8762   35.6354   40.8141 H   0  0  0  0  0  0  0  0  0  0  0  0
   49.5916   33.9821   41.6381 H   0  0  0  0  0  0  0  0  0  0  0  0
   46.0073   34.7841   46.4098 C   0  0  0  0  0  0  0  0  0  0  0  0
   45.6810   35.1208   47.8774 C   0  0  0  0  0  0  0  0  0  0  0  0
   45.7811   36.6400   47.9382 C   0  0  0  0  0  0  0  0  0  0  0  0
   44.7283   37.2655   47.0943 C   0  0  0  0  0  0  0  0  0  0  0  0
   44.1163   36.3994   46.0453 C   0  0  0  0  0  0  0  0  0  0  0  0
   45.0465   35.3921   45.4546 C   0  0  0  0  0  0  0  0  0  0  0  0
   46.9705   35.3735   46.2833 H   0  0  0  0  0  0  0  0  0  0  0  0
   46.4651   34.6499   48.4857 H   0  0  0  0  0  0  0  0  0  0  0  0
   44.6696   34.8745   48.1728 H   0  0  0  0  0  0  0  0  0  0  0  0
   45.7028   36.9673   48.9979 H   0  0  0  0  0  0  0  0  0  0  0  0
   46.8001   36.9112   47.5522 H   0  0  0  0  0  0  0  0  0  0  0  0
   45.1599   38.2133   46.6816 H   0  0  0  0  0  0  0  0  0  0  0  0
   43.9077   37.6215   47.7670 H   0  0  0  0  0  0  0  0  0  0  0  0
   43.1660   35.9388   46.3683 H   0  0  0  0  0  0  0  0  0  0  0  0
   43.8080   37.0975   45.2102 H   0  0  0  0  0  0  0  0  0  0  0  0
   45.6105   35.9271   44.6218 H   0  0  0  0  0  0  0  0  0  0  0  0
   44.4456   34.6418   44.8747 H   0  0  0  0  0  0  0  0  0  0  0  0
  1  2  2  0
  1  9  1  0
  2  3  1  0
  3  4  2  0
  4  5  1  0
  5  6  1  0
  7  6  2  0
  8  4  1  0
  8  7  1  0
  9  8  2  0
 10 15  2  0
 11 12  2  0
 11 10  1  0
 12 13  1  0
 13 14  2  0
 14  2  1  0
 15 14  1  0
  1 16  1  0
  5 17  1  0
  6 18  1  0
  9 19  1  0
 10 20  1  0
 11 21  1  0
 12 22  1  0
 23 24  1  0
 24 25  1  0
 25 26  1  0
 26 27  1  0
 27 28  1  0
 28 23  1  0
 23 29  1  0
 24 30  1  0
 24 31  1  0
 25 32  1  0
 25 33  1  0
 26 34  1  0
 26 35  1  0
 27 36  1  0
 27 37  1  0
 28 38  1  0
 28 39  1  0
  3 23  1  0
M  ISO  7  16  14  17   9  18  14  19  14  20  14  21  14  22  14
M  END
>  <DihAtoms>  (1) 
1,2,22,23

>  <DihDeg>  (1) 
-106.02498861943148

$$$$
