
     RDKit          3D

 26 27  0  0  1  0  0  0  0  0999 V2000
   44.5120   35.6640   44.8420 C   0  0  0  0  0  0  0  0  0  0  0  0
   45.1530   35.6150   43.6030 C   0  0  0  0  0  0  0  0  0  0  0  0
   46.1250   34.6450   43.4030 C   0  0  0  0  0  0  0  0  0  0  0  0
   46.3990   33.7910   44.4340 N   0  0  0  0  0  0  0  0  0  0  0  0
   45.7680   33.8570   45.6140 C   0  0  0  0  0  0  0  0  0  0  0  0
   44.8300   34.7900   45.8140 N   0  0  0  0  0  0  0  0  0  0  0  0
   46.2120   32.8310   46.6100 C   0  0  2  0  0  0  0  0  0  0  0  0
   46.4850   31.5110   46.0170 C   0  0  0  0  0  0  0  0  0  0  0  0
   45.8590   30.3040   46.5640 C   0  0  0  0  0  0  0  0  0  0  0  0
   44.9040   30.5050   47.7060 C   0  0  0  0  0  0  0  0  0  0  0  0
   45.4340   31.6310   48.5910 C   0  0  0  0  0  0  0  0  0  0  0  0
   45.2420   32.8710   47.7420 C   0  0  0  0  0  0  0  0  0  0  0  0
   46.7910   34.5760   42.1560 N   0  0  0  0  0  0  0  0  0  0  0  0
   43.7391   36.4249   45.0255 H   0  0  0  0  0  0  0  0  0  0  0  0
   44.8943   36.3271   42.8055 H   0  0  0  0  0  0  0  0  0  0  0  0
   47.2067   33.0717   47.0133 H   0  0  0  0  0  0  0  0  0  0  0  0
   47.1647   31.4302   45.1559 H   0  0  0  0  0  0  0  0  0  0  0  0
   46.0768   29.3044   46.1599 H   0  0  0  0  0  0  0  0  0  0  0  0
   43.9117   30.7758   47.3161 H   0  0  0  0  0  0  0  0  0  0  0  0
   44.8159   29.5772   48.2903 H   0  0  0  0  0  0  0  0  0  0  0  0
   44.8572   31.7012   49.5250 H   0  0  0  0  0  0  0  0  0  0  0  0
   46.4800   31.4791   48.8958 H   0  0  0  0  0  0  0  0  0  0  0  0
   45.4219   33.7686   48.3519 H   0  0  0  0  0  0  0  0  0  0  0  0
   44.2136   32.9031   47.3530 H   0  0  0  0  0  0  0  0  0  0  0  0
   47.5140   33.8598   41.9972 H   0  0  0  0  0  0  0  0  0  0  0  0
   46.5526   35.2420   41.4073 H   0  0  0  0  0  0  0  0  0  0  0  0
  1  6  2  0
  2  1  1  0
  3  2  2  0
  3  4  1  0
  4  5  2  0
  5  6  1  0
  7  5  1  0
  7 12  1  0
  8  9  2  0
  8  7  1  0
  9 10  1  0
 10 11  1  0
 12 11  1  0
 13  3  1  0
  1 14  1  0
  2 15  1  0
  7 16  1  1
  8 17  1  0
  9 18  1  0
 10 19  1  0
 10 20  1  0
 11 21  1  0
 11 22  1  0
 12 23  1  0
 12 24  1  0
 13 25  1  0
 13 26  1  0
M  ISO  8  14  14  15  14  16  13  17  13  18  13  19  13  20  13  21  13
M  ISO  3  22  13  23  13  24  13
M  END
>  <minimizedAffinity>  (1) 
-4.6698947

>  <minimizedRMSD>  (1) 
1.05432498

$$$$
