
     RDKit          3D

 26 27  0  0  0  0  0  0  0  0999 V2000
   44.6402   35.9923   44.3770 C   0  0  0  0  0  0  0  0  0  0  0  0
   45.4333   35.6399   43.2703 C   0  0  0  0  0  0  0  0  0  0  0  0
   46.2235   34.4923   43.3729 C   0  0  0  0  0  0  0  0  0  0  0  0
   46.1826   33.7818   44.5328 N   0  0  0  0  0  0  0  0  0  0  0  0
   45.4096   34.1444   45.5823 C   0  0  0  0  0  0  0  0  0  0  0  0
   44.6347   35.2533   45.5066 N   0  0  0  0  0  0  0  0  0  0  0  0
   44.0151   36.8886   44.3134 H   0  0  0  0  0  0  0  0  0  0  0  0
   45.4456   36.2149   42.3749 H   0  0  0  0  0  0  0  0  0  0  0  0
   46.8653   34.1424   42.5755 H   0  0  0  0  0  0  0  0  0  0  0  0
   45.4225   33.3105   46.8175 C   0  0  0  0  0  0  0  0  0  0  0  0
   45.8629   31.9537   46.4171 C   0  0  0  0  0  0  0  0  0  0  0  0
   44.7622   30.9303   46.3639 C   0  0  0  0  0  0  0  0  0  0  0  0
   44.1346   30.9141   47.7327 C   0  0  0  0  0  0  0  0  0  0  0  0
   43.5226   32.2142   48.1034 C   0  0  0  0  0  0  0  0  0  0  0  0
   44.1063   33.4291   47.4883 C   0  0  0  0  0  0  0  0  0  0  0  0
   46.2419   33.7491   47.4488 H   0  0  0  0  0  0  0  0  0  0  0  0
   46.3688   31.9303   45.4282 H   0  0  0  0  0  0  0  0  0  0  0  0
   46.6412   31.5451   47.1194 H   0  0  0  0  0  0  0  0  0  0  0  0
   43.9996   31.1906   45.6378 H   0  0  0  0  0  0  0  0  0  0  0  0
   45.2598   29.9525   46.2358 H   0  0  0  0  0  0  0  0  0  0  0  0
   44.8719   30.6063   48.5172 H   0  0  0  0  0  0  0  0  0  0  0  0
   43.3799   30.1001   47.7323 H   0  0  0  0  0  0  0  0  0  0  0  0
   42.4203   32.1341   47.8914 H   0  0  0  0  0  0  0  0  0  0  0  0
   43.5333   32.2738   49.2330 H   0  0  0  0  0  0  0  0  0  0  0  0
   43.3518   33.8754   46.8036 H   0  0  0  0  0  0  0  0  0  0  0  0
   44.2019   34.2107   48.2908 H   0  0  0  0  0  0  0  0  0  0  0  0
  1  6  2  0
  2  3  2  0
  2  1  1  0
  3  4  1  0
  4  5  2  0
  6  5  1  0
  1  7  1  0
  2  8  1  0
  3  9  1  0
 10 11  1  0
 11 12  1  0
 12 13  1  0
 13 14  1  0
 14 15  1  0
 15 10  1  0
 10 16  1  0
 11 17  1  0
 11 18  1  0
 12 19  1  0
 12 20  1  0
 13 21  1  0
 13 22  1  0
 14 23  1  0
 14 24  1  0
 15 25  1  0
 15 26  1  0
  5 10  1  0
M  ISO  3   7  14   8  14   9  14
M  END
>  <DihAtoms>  (1) 
3,4,9,10

>  <DihDeg>  (1) 
-113.31559232805266

$$$$
