
     RDKit          3D

 29 30  0  0  0  0  0  0  0  0999 V2000
   45.3790   34.7070   44.2120 C   0  0  0  0  0  0  0  0  0  0  0  0
   46.2100   34.2130   43.2030 C   0  0  0  0  0  0  0  0  0  0  0  0
   47.1320   33.2160   43.5600 C   0  0  0  0  0  0  0  0  0  0  0  0
   47.1630   32.7950   44.8450 N   0  0  0  0  0  0  0  0  0  0  0  0
   46.3360   33.3030   45.8000 C   0  0  0  0  0  0  0  0  0  0  0  0
   45.4430   34.2610   45.4800 N   0  0  0  0  0  0  0  0  0  0  0  0
   46.4490   32.7810   47.1620 C   0  0  0  0  0  0  0  0  0  0  0  0
   45.1680   32.7330   47.9200 C   0  0  0  0  0  0  0  0  0  0  0  0
   44.8740   31.3780   48.5190 C   0  0  0  0  0  0  0  0  0  0  0  0
   46.0460   30.7430   49.2110 C   0  0  0  0  0  0  0  0  0  0  0  0
   47.3450   30.8580   48.4440 C   0  0  0  0  0  0  0  0  0  0  0  0
   47.0920   31.3950   47.0550 C   0  0  0  0  0  0  0  0  0  0  0  0
   44.3940   35.7770   43.8190 C   0  0  0  0  0  0  0  0  0  0  0  0
   46.1445   34.5897   42.1716 H   0  0  0  0  0  0  0  0  0  0  0  0
   47.8140   32.7868   42.8112 H   0  0  0  0  0  0  0  0  0  0  0  0
   47.0678   33.4748   47.7500 H   0  0  0  0  0  0  0  0  0  0  0  0
   45.2173   33.4707   48.7345 H   0  0  0  0  0  0  0  0  0  0  0  0
   44.3607   32.9538   47.2062 H   0  0  0  0  0  0  0  0  0  0  0  0
   44.0620   31.4937   49.2519 H   0  0  0  0  0  0  0  0  0  0  0  0
   44.6033   30.7154   47.6838 H   0  0  0  0  0  0  0  0  0  0  0  0
   46.1766   31.2297   50.1888 H   0  0  0  0  0  0  0  0  0  0  0  0
   45.8215   29.6699   49.3009 H   0  0  0  0  0  0  0  0  0  0  0  0
   48.0220   31.5406   48.9785 H   0  0  0  0  0  0  0  0  0  0  0  0
   47.8003   29.8600   48.3627 H   0  0  0  0  0  0  0  0  0  0  0  0
   46.4155   30.7160   46.5153 H   0  0  0  0  0  0  0  0  0  0  0  0
   48.0434   31.4695   46.5079 H   0  0  0  0  0  0  0  0  0  0  0  0
   43.9710   36.2365   44.7245 H   0  0  0  0  0  0  0  0  0  0  0  0
   44.9067   36.5462   43.2228 H   0  0  0  0  0  0  0  0  0  0  0  0
   43.5851   35.3296   43.2228 H   0  0  0  0  0  0  0  0  0  0  0  0
  1  6  2  0
  2  3  2  0
  2  1  1  0
  3  4  1  0
  4  5  2  0
  5  7  1  0
  6  5  1  0
  7  8  1  0
  8  9  1  0
  9 10  1  0
 11 10  1  0
 12  7  1  0
 12 11  1  0
 13  1  1  0
  2 14  1  0
  3 15  1  0
  7 16  1  0
  8 17  1  0
  8 18  1  0
  9 19  1  0
  9 20  1  0
 10 21  1  0
 10 22  1  0
 11 23  1  0
 11 24  1  0
 12 25  1  0
 12 26  1  0
 13 27  1  0
 13 28  1  0
 13 29  1  0
M  ISO  8  14  14  15  14  16  13  17  13  18  13  19  13  20  13  21  13
M  ISO  8  22  13  23  13  24  13  25  13  26  13  27   8  28   8  29   8
M  END
>  <minimizedAffinity>  (1) 
-4.50970316

>  <minimizedRMSD>  (1) 
1.74095917

$$$$
