
     RDKit          3D

 35 37  0  0  0  0  0  0  0  0999 V2000
   44.6299   35.4562   45.1299 C   0  0  0  0  0  0  0  0  0  0  0  0
   45.0982   35.7144   43.8040 C   0  0  0  0  0  0  0  0  0  0  0  0
   46.0413   34.8270   43.3608 C   0  0  0  0  0  0  0  0  0  0  0  0
   46.4881   33.7810   44.1472 N   0  0  0  0  0  0  0  0  0  0  0  0
   46.0134   33.5885   45.3827 C   0  0  0  0  0  0  0  0  0  0  0  0
   45.0718   34.4375   45.8795 N   0  0  0  0  0  0  0  0  0  0  0  0
   46.5413   34.9751   41.9327 C   0  0  1  0  0  0  0  0  0  0  0  0
   48.0611   35.2777   41.9339 C   0  0  0  0  0  0  0  0  0  0  0  0
   47.3889   33.9720   41.3986 C   0  0  2  0  0  0  0  0  0  0  0  0
   44.6489   36.8116   43.0187 N   0  0  0  0  0  0  0  0  0  0  0  0
   43.8830   36.1289   45.5259 H   0  0  0  0  0  0  0  0  0  0  0  0
   46.4717   32.7289   45.8497 H   0  0  0  0  0  0  0  0  0  0  0  0
   45.9496   35.6966   41.3447 H   0  0  0  0  0  0  0  0  0  0  0  0
   48.6217   35.2228   42.8636 H   0  0  0  0  0  0  0  0  0  0  0  0
   48.3491   36.0108   41.1845 H   0  0  0  0  0  0  0  0  0  0  0  0
   47.6282   33.0927   42.0678 H   0  0  0  0  0  0  0  0  0  0  0  0
   45.1136   37.7349   42.8454 H   0  0  0  0  0  0  0  0  0  0  0  0
   43.7092   36.5328   42.6087 H   0  0  0  0  0  0  0  0  0  0  0  0
   47.5409   33.6839   39.9358 C   0  0  0  0  0  0  0  0  0  0  0  0
   48.0484   34.8832   39.1633 C   0  0  0  0  0  0  0  0  0  0  0  0
   48.0256   34.6688   37.6862 C   0  0  0  0  0  0  0  0  0  0  0  0
   48.0354   33.2150   37.2983 C   0  0  0  0  0  0  0  0  0  0  0  0
   48.9296   32.4650   38.2559 C   0  0  0  0  0  0  0  0  0  0  0  0
   48.4735   32.5397   39.6909 C   0  0  0  0  0  0  0  0  0  0  0  0
   46.5370   33.4093   39.5549 H   0  0  0  0  0  0  0  0  0  0  0  0
   49.0938   35.1012   39.4650 H   0  0  0  0  0  0  0  0  0  0  0  0
   47.3407   35.7163   39.4365 H   0  0  0  0  0  0  0  0  0  0  0  0
   48.9031   35.1549   37.2192 H   0  0  0  0  0  0  0  0  0  0  0  0
   47.0647   35.0914   37.2879 H   0  0  0  0  0  0  0  0  0  0  0  0
   47.0409   32.7745   37.2017 H   0  0  0  0  0  0  0  0  0  0  0  0
   48.5121   33.1325   36.3043 H   0  0  0  0  0  0  0  0  0  0  0  0
   49.9487   32.9014   38.2083 H   0  0  0  0  0  0  0  0  0  0  0  0
   49.0276   31.4143   37.8933 H   0  0  0  0  0  0  0  0  0  0  0  0
   47.9647   31.5736   39.9200 H   0  0  0  0  0  0  0  0  0  0  0  0
   49.3621   32.6512   40.3751 H   0  0  0  0  0  0  0  0  0  0  0  0
  1  6  2  0
  2  1  1  0
  3  2  2  0
  3  4  1  0
  4  5  2  0
  5  6  1  0
  7  3  1  0
  8  7  1  0
  9  8  1  0
  9  7  1  0
 10  2  1  0
  1 11  1  0
  5 12  1  0
  7 13  1  6
  8 14  1  0
  8 15  1  0
  9 16  1  1
 10 17  1  0
 10 18  1  0
 19 20  1  0
 20 21  1  0
 21 22  1  0
 22 23  1  0
 23 24  1  0
 24 19  1  0
 19 25  1  0
 20 26  1  0
 20 27  1  0
 21 28  1  0
 21 29  1  0
 22 30  1  0
 22 31  1  0
 23 32  1  0
 23 33  1  0
 24 34  1  0
 24 35  1  0
  9 19  1  0
M  ISO  6  11  14  12  14  13  13  14  13  15  13  16  13
M  END
>  <DihAtoms>  (1) 
7,8,18,19

>  <DihDeg>  (1) 
-13.602938366458762

$$$$
