
     RDKit          3D

 26 27  0  0  0  0  0  0  0  0999 V2000
   44.6402   35.9923   44.3770 C   0  0  0  0  0  0  0  0  0  0  0  0
   45.4333   35.6399   43.2703 C   0  0  0  0  0  0  0  0  0  0  0  0
   46.2235   34.4923   43.3729 C   0  0  0  0  0  0  0  0  0  0  0  0
   46.1826   33.7818   44.5328 N   0  0  0  0  0  0  0  0  0  0  0  0
   45.4096   34.1444   45.5823 C   0  0  0  0  0  0  0  0  0  0  0  0
   44.6347   35.2533   45.5066 N   0  0  0  0  0  0  0  0  0  0  0  0
   44.0151   36.8886   44.3134 H   0  0  0  0  0  0  0  0  0  0  0  0
   45.4456   36.2149   42.3749 H   0  0  0  0  0  0  0  0  0  0  0  0
   46.8653   34.1424   42.5755 H   0  0  0  0  0  0  0  0  0  0  0  0
   45.4225   33.3105   46.8175 C   0  0  0  0  0  0  0  0  0  0  0  0
   44.0107   33.0021   47.1443 C   0  0  0  0  0  0  0  0  0  0  0  0
   43.4531   33.7821   48.3028 C   0  0  0  0  0  0  0  0  0  0  0  0
   44.3548   33.4986   49.4752 C   0  0  0  0  0  0  0  0  0  0  0  0
   45.7497   33.9548   49.2553 C   0  0  0  0  0  0  0  0  0  0  0  0
   46.2258   34.0023   47.8531 C   0  0  0  0  0  0  0  0  0  0  0  0
   45.9058   32.3456   46.5048 H   0  0  0  0  0  0  0  0  0  0  0  0
   43.3178   33.1599   46.2902 H   0  0  0  0  0  0  0  0  0  0  0  0
   43.8705   31.9150   47.3981 H   0  0  0  0  0  0  0  0  0  0  0  0
   43.4583   34.8502   48.1142 H   0  0  0  0  0  0  0  0  0  0  0  0
   42.4772   33.3222   48.5398 H   0  0  0  0  0  0  0  0  0  0  0  0
   44.3506   32.4109   49.7409 H   0  0  0  0  0  0  0  0  0  0  0  0
   43.9032   33.9975   50.3580 H   0  0  0  0  0  0  0  0  0  0  0  0
   45.8547   34.9551   49.7601 H   0  0  0  0  0  0  0  0  0  0  0  0
   46.4149   33.3043   49.8986 H   0  0  0  0  0  0  0  0  0  0  0  0
   46.3994   35.0652   47.5750 H   0  0  0  0  0  0  0  0  0  0  0  0
   47.2630   33.5691   47.8257 H   0  0  0  0  0  0  0  0  0  0  0  0
  1  6  2  0
  2  3  2  0
  2  1  1  0
  3  4  1  0
  4  5  2  0
  6  5  1  0
  1  7  1  0
  2  8  1  0
  3  9  1  0
 10 11  1  0
 11 12  1  0
 12 13  1  0
 13 14  1  0
 14 15  1  0
 15 10  1  0
 10 16  1  0
 11 17  1  0
 11 18  1  0
 12 19  1  0
 12 20  1  0
 13 21  1  0
 13 22  1  0
 14 23  1  0
 14 24  1  0
 15 25  1  0
 15 26  1  0
  5 10  1  0
M  ISO  3   7  14   8  14   9  14
M  END
>  <DihAtoms>  (1) 
3,4,9,10

>  <DihDeg>  (1) 
-113.31559232805266

$$$$
