
     RDKit          3D

 33 35  0  0  0  0  0  0  0  0999 V2000
   44.5852   35.8952   44.3136 C   0  0  0  0  0  0  0  0  0  0  0  0
   45.3241   35.9104   43.1159 C   0  0  0  0  0  0  0  0  0  0  0  0
   46.2948   34.9297   43.0215 C   0  0  0  0  0  0  0  0  0  0  0  0
   46.4773   34.0329   44.0555 N   0  0  0  0  0  0  0  0  0  0  0  0
   45.7452   34.0572   45.1816 C   0  0  0  0  0  0  0  0  0  0  0  0
   44.7873   35.0099   45.2983 N   0  0  0  0  0  0  0  0  0  0  0  0
   47.0859   34.8051   41.7414 C   0  0  0  0  0  0  0  0  0  0  0  0
   48.4702   35.4519   41.9050 C   0  0  0  0  0  0  0  0  0  0  0  0
   48.2269   33.9217   41.7253 C   0  0  0  0  0  0  0  0  0  0  0  0
   43.8035   36.5860   44.5355 H   0  0  0  0  0  0  0  0  0  0  0  0
   46.0588   33.2689   45.8452 H   0  0  0  0  0  0  0  0  0  0  0  0
   46.6405   35.3074   40.8428 H   0  0  0  0  0  0  0  0  0  0  0  0
   48.8351   35.6934   42.9113 H   0  0  0  0  0  0  0  0  0  0  0  0
   48.9874   35.8936   41.0591 H   0  0  0  0  0  0  0  0  0  0  0  0
   48.3782   33.2722   42.5992 H   0  0  0  0  0  0  0  0  0  0  0  0
   48.6042   33.4589   40.7907 H   0  0  0  0  0  0  0  0  0  0  0  0
   45.0558   36.8978   42.0936 C   0  0  0  0  0  0  0  0  0  0  0  0
   45.9987   36.7091   40.9205 C   0  0  0  0  0  0  0  0  0  0  0  0
   46.1611   38.0778   40.2944 C   0  0  0  0  0  0  0  0  0  0  0  0
   44.7845   38.6199   40.0132 C   0  0  0  0  0  0  0  0  0  0  0  0
   43.6903   37.5893   40.1335 C   0  0  0  0  0  0  0  0  0  0  0  0
   43.6811   36.9395   41.5153 C   0  0  0  0  0  0  0  0  0  0  0  0
   45.2331   37.9256   42.5295 H   0  0  0  0  0  0  0  0  0  0  0  0
   46.9541   36.2438   41.1989 H   0  0  0  0  0  0  0  0  0  0  0  0
   45.5343   36.0607   40.1608 H   0  0  0  0  0  0  0  0  0  0  0  0
   46.7351   37.9311   39.3553 H   0  0  0  0  0  0  0  0  0  0  0  0
   46.6628   38.7937   40.9833 H   0  0  0  0  0  0  0  0  0  0  0  0
   44.7497   38.9364   38.9289 H   0  0  0  0  0  0  0  0  0  0  0  0
   44.5299   39.5322   40.5866 H   0  0  0  0  0  0  0  0  0  0  0  0
   43.8160   36.8099   39.3565 H   0  0  0  0  0  0  0  0  0  0  0  0
   42.7473   38.1211   39.9080 H   0  0  0  0  0  0  0  0  0  0  0  0
   43.0186   37.5822   42.1503 H   0  0  0  0  0  0  0  0  0  0  0  0
   43.1928   35.9712   41.3512 H   0  0  0  0  0  0  0  0  0  0  0  0
  1  6  2  0
  2  1  1  0
  3  2  2  0
  3  4  1  0
  4  5  2  0
  5  6  1  0
  7  8  1  0
  7  9  1  0
  7  3  1  0
  8  9  1  0
  1 10  1  0
  5 11  1  0
  7 12  1  0
  8 13  1  0
  8 14  1  0
  9 15  1  0
  9 16  1  0
 17 18  1  0
 18 19  1  0
 19 20  1  0
 20 21  1  0
 21 22  1  0
 22 17  1  0
 17 23  1  0
 18 24  1  0
 18 25  1  0
 19 26  1  0
 19 27  1  0
 20 28  1  0
 20 29  1  0
 21 30  1  0
 21 31  1  0
 22 32  1  0
 22 33  1  0
  2 17  1  0
M  ISO  7  10  14  11  14  12  13  13  13  14  13  15  13  16  13
M  END
>  <DihAtoms>  (1) 
0,1,16,17

>  <DihDeg>  (1) 
-90.843469142602

$$$$
