
     RDKit          3D

 36 38  0  0  0  0  0  0  0  0999 V2000
   44.5260   35.7290   44.8830 C   0  0  0  0  0  0  0  0  0  0  0  0
   45.1520   35.6600   43.6190 C   0  0  0  0  0  0  0  0  0  0  0  0
   46.0770   34.6530   43.3810 C   0  0  0  0  0  0  0  0  0  0  0  0
   46.3430   33.7660   44.3930 N   0  0  0  0  0  0  0  0  0  0  0  0
   45.7320   33.8580   45.5840 C   0  0  0  0  0  0  0  0  0  0  0  0
   44.8190   34.8350   45.8460 N   0  0  0  0  0  0  0  0  0  0  0  0
   46.6950   34.6000   42.1060 N   0  0  0  0  0  0  0  0  0  0  0  0
   47.9230   35.1600   41.9790 C   0  0  0  0  0  0  0  0  0  0  0  0
   48.5340   35.1070   40.7210 C   0  0  0  0  0  0  0  0  0  0  0  0
   47.8660   34.4990   39.6970 C   0  0  0  0  0  0  0  0  0  0  0  0
   48.4390   34.4600   38.5570 O   0  0  0  0  0  0  0  0  0  0  0  0
   46.6430   33.9370   39.8120 N   0  0  0  0  0  0  0  0  0  0  0  0
   46.0970   34.0170   41.0510 C   0  0  0  0  0  0  0  0  0  0  0  0
   44.9690   33.5310   41.2760 O   0  0  0  0  0  0  0  0  0  0  0  0
   46.1300   32.8200   46.5710 C   0  0  0  0  0  0  0  0  0  0  0  0
   45.1390   32.9000   47.7310 C   0  0  0  0  0  0  0  0  0  0  0  0
   45.6820   32.0580   48.8560 C   0  0  0  0  0  0  0  0  0  0  0  0
   46.0120   30.6600   48.4550 C   0  0  0  0  0  0  0  0  0  0  0  0
   46.6270   30.5080   47.0990 C   0  0  0  0  0  0  0  0  0  0  0  0
   46.0540   31.4230   46.0510 C   0  0  0  0  0  0  0  0  0  0  0  0
   43.7906   36.5222   45.0830 H   0  0  0  0  0  0  0  0  0  0  0  0
   44.9102   36.3930   42.8352 H   0  0  0  0  0  0  0  0  0  0  0  0
   48.4216   35.6391   42.8345 H   0  0  0  0  0  0  0  0  0  0  0  0
   49.5301   35.5453   40.5608 H   0  0  0  0  0  0  0  0  0  0  0  0
   46.1631   33.4836   39.0214 H   0  0  0  0  0  0  0  0  0  0  0  0
   47.1764   33.0205   46.8447 H   0  0  0  0  0  0  0  0  0  0  0  0
   45.0328   33.9437   48.0617 H   0  0  0  0  0  0  0  0  0  0  0  0
   44.1498   32.5341   47.4186 H   0  0  0  0  0  0  0  0  0  0  0  0
   46.5973   32.5352   49.2361 H   0  0  0  0  0  0  0  0  0  0  0  0
   44.8926   31.9949   49.6195 H   0  0  0  0  0  0  0  0  0  0  0  0
   46.7168   30.2524   49.1947 H   0  0  0  0  0  0  0  0  0  0  0  0
   45.0531   30.1226   48.4142 H   0  0  0  0  0  0  0  0  0  0  0  0
   47.7040   30.7146   47.1845 H   0  0  0  0  0  0  0  0  0  0  0  0
   46.4124   29.4805   46.7702 H   0  0  0  0  0  0  0  0  0  0  0  0
   45.0059   31.1544   45.8529 H   0  0  0  0  0  0  0  0  0  0  0  0
   46.6198   31.3322   45.1120 H   0  0  0  0  0  0  0  0  0  0  0  0
  1  6  2  0
  2  1  1  0
  3  2  2  0
  3  4  1  0
  4  5  2  0
  5  6  1  0
  5 15  1  0
  7  3  1  0
  8  7  1  0
  9  8  2  0
 10 12  1  0
 10  9  1  0
 11 10  2  0
 12 13  1  0
 13 14  2  0
 13  7  1  0
 15 16  1  0
 16 17  1  0
 18 17  1  0
 19 18  1  0
 20 15  1  0
 20 19  1  0
  1 21  1  0
  2 22  1  0
  8 23  1  0
  9 24  1  0
 12 25  1  0
 15 26  1  0
 16 27  1  0
 16 28  1  0
 17 29  1  0
 17 30  1  0
 18 31  1  0
 18 32  1  0
 19 33  1  0
 19 34  1  0
 20 35  1  0
 20 36  1  0
M  ISO  8  21  14  22  14  23  14  24  14  25   9  26  13  27  13  28  13
M  ISO  8  29  13  30  13  31  13  32  13  33  13  34  13  35  13  36  13
M  END
>  <minimizedAffinity>  (1) 
-6.57974958

>  <minimizedRMSD>  (1) 
0.424523294

$$$$
