
     RDKit          3D

 33 34  0  0  0  0  0  0  0  0999 V2000
   44.7950   33.0610   43.0000 C   0  0  0  0  0  0  0  0  0  0  0  0
   45.3490   33.8810   43.9840 C   0  0  0  0  0  0  0  0  0  0  0  0
   45.0000   35.2280   43.9940 C   0  0  0  0  0  0  0  0  0  0  0  0
   44.1270   35.6740   43.0330 N   0  0  0  0  0  0  0  0  0  0  0  0
   43.6110   34.8610   42.1000 C   0  0  0  0  0  0  0  0  0  0  0  0
   43.9460   33.5720   42.0920 N   0  0  0  0  0  0  0  0  0  0  0  0
   42.6870   35.4750   41.1300 C   0  0  0  0  0  0  0  0  0  0  0  0
   41.2770   35.5430   41.6450 C   0  0  0  0  0  0  0  0  0  0  0  0
   40.3790   36.0710   40.5680 C   0  0  0  0  0  0  0  0  0  0  0  0
   40.4890   35.2780   39.3010 C   0  0  0  0  0  0  0  0  0  0  0  0
   41.9090   35.3980   38.7780 C   0  0  0  0  0  0  0  0  0  0  0  0
   42.8080   34.7490   39.8120 C   0  0  0  0  0  0  0  0  0  0  0  0
   46.2750   33.3850   44.9950 C   0  0  0  0  0  0  0  0  0  0  0  0
   45.9700   33.0650   46.2340 C   0  0  0  0  0  0  0  0  0  0  0  0
   47.0100   32.5580   47.2040 C   0  0  0  0  0  0  0  0  0  0  0  0
   45.0541   31.9925   42.9674 H   0  0  0  0  0  0  0  0  0  0  0  0
   45.4111   35.9144   44.7489 H   0  0  0  0  0  0  0  0  0  0  0  0
   42.9720   36.5257   40.9724 H   0  0  0  0  0  0  0  0  0  0  0  0
   40.9448   34.5365   41.9392 H   0  0  0  0  0  0  0  0  0  0  0  0
   41.2363   36.2112   42.5178 H   0  0  0  0  0  0  0  0  0  0  0  0
   39.3385   36.0301   40.9225 H   0  0  0  0  0  0  0  0  0  0  0  0
   40.6862   37.1041   40.3480 H   0  0  0  0  0  0  0  0  0  0  0  0
   40.2562   34.2221   39.5030 H   0  0  0  0  0  0  0  0  0  0  0  0
   39.7790   35.6620   38.5538 H   0  0  0  0  0  0  0  0  0  0  0  0
   42.0033   34.8781   37.8132 H   0  0  0  0  0  0  0  0  0  0  0  0
   42.1848   36.4507   38.6174 H   0  0  0  0  0  0  0  0  0  0  0  0
   42.5099   33.6987   39.9460 H   0  0  0  0  0  0  0  0  0  0  0  0
   43.8510   34.7997   39.4663 H   0  0  0  0  0  0  0  0  0  0  0  0
   47.3264   33.2674   44.6938 H   0  0  0  0  0  0  0  0  0  0  0  0
   44.9287   33.1697   46.5726 H   0  0  0  0  0  0  0  0  0  0  0  0
   46.6637   32.7268   48.2343 H   0  0  0  0  0  0  0  0  0  0  0  0
   47.1685   31.4816   47.0422 H   0  0  0  0  0  0  0  0  0  0  0  0
   47.9556   33.0962   47.0422 H   0  0  0  0  0  0  0  0  0  0  0  0
  1  2  2  0
  2  3  1  0
  2 13  1  0
  4  3  2  0
  5  4  1  0
  6  5  2  0
  6  1  1  0
  7  8  1  0
  7  5  1  0
  9  8  1  0
 10  9  1  0
 11 10  1  0
 11 12  1  0
 12  7  1  0
 13 14  2  0
 14 15  1  0
  1 16  1  0
  3 17  1  0
  7 18  1  0
  8 19  1  0
  8 20  1  0
  9 21  1  0
  9 22  1  0
 10 23  1  0
 10 24  1  0
 11 25  1  0
 11 26  1  0
 12 27  1  0
 12 28  1  0
 13 29  1  0
 14 30  1  0
 15 31  1  0
 15 32  1  0
 15 33  1  0
M  ISO  8  16  14  17  14  18  13  19  13  20  13  21  13  22  13  23  13
M  ISO  8  24  13  25  13  26  13  27  13  28  13  31   8  32   8  33   8
M  END
>  <minimizedAffinity>  (1) 
-5.10517693

>  <minimizedRMSD>  (1) 
7.08469105

$$$$
