
     RDKit          3D

 26 27  0  0  0  0  0  0  0  0999 V2000
   44.6402   35.9923   44.3770 C   0  0  0  0  0  0  0  0  0  0  0  0
   45.4333   35.6399   43.2703 C   0  0  0  0  0  0  0  0  0  0  0  0
   46.2235   34.4923   43.3729 C   0  0  0  0  0  0  0  0  0  0  0  0
   46.1826   33.7818   44.5328 N   0  0  0  0  0  0  0  0  0  0  0  0
   45.4096   34.1444   45.5823 C   0  0  0  0  0  0  0  0  0  0  0  0
   44.6347   35.2533   45.5066 N   0  0  0  0  0  0  0  0  0  0  0  0
   44.0151   36.8886   44.3134 H   0  0  0  0  0  0  0  0  0  0  0  0
   45.4456   36.2149   42.3749 H   0  0  0  0  0  0  0  0  0  0  0  0
   46.8653   34.1424   42.5755 H   0  0  0  0  0  0  0  0  0  0  0  0
   45.4225   33.3105   46.8175 C   0  0  0  0  0  0  0  0  0  0  0  0
   44.7814   32.0199   46.4731 C   0  0  0  0  0  0  0  0  0  0  0  0
   43.3837   31.8559   47.0031 C   0  0  0  0  0  0  0  0  0  0  0  0
   43.4748   32.0341   48.4957 C   0  0  0  0  0  0  0  0  0  0  0  0
   43.9496   33.3841   48.8888 C   0  0  0  0  0  0  0  0  0  0  0  0
   44.8279   34.0915   47.9279 C   0  0  0  0  0  0  0  0  0  0  0  0
   46.5094   33.0976   47.0061 H   0  0  0  0  0  0  0  0  0  0  0  0
   44.7321   31.8323   45.3791 H   0  0  0  0  0  0  0  0  0  0  0  0
   45.3722   31.1452   46.8627 H   0  0  0  0  0  0  0  0  0  0  0  0
   42.7078   32.6060   46.6069 H   0  0  0  0  0  0  0  0  0  0  0  0
   43.1130   30.7991   46.8298 H   0  0  0  0  0  0  0  0  0  0  0  0
   44.1283   31.2534   48.9618 H   0  0  0  0  0  0  0  0  0  0  0  0
   42.4651   31.8273   48.9079 H   0  0  0  0  0  0  0  0  0  0  0  0
   43.0389   33.9951   49.1414 H   0  0  0  0  0  0  0  0  0  0  0  0
   44.4412   33.2789   49.9021 H   0  0  0  0  0  0  0  0  0  0  0  0
   44.2830   34.9800   47.5396 H   0  0  0  0  0  0  0  0  0  0  0  0
   45.6717   34.5555   48.5083 H   0  0  0  0  0  0  0  0  0  0  0  0
  1  6  2  0
  2  3  2  0
  2  1  1  0
  3  4  1  0
  4  5  2  0
  6  5  1  0
  1  7  1  0
  2  8  1  0
  3  9  1  0
 10 11  1  0
 11 12  1  0
 12 13  1  0
 13 14  1  0
 14 15  1  0
 15 10  1  0
 10 16  1  0
 11 17  1  0
 11 18  1  0
 12 19  1  0
 12 20  1  0
 13 21  1  0
 13 22  1  0
 14 23  1  0
 14 24  1  0
 15 25  1  0
 15 26  1  0
  5 10  1  0
M  ISO  3   7  14   8  14   9  14
M  END
>  <DihAtoms>  (1) 
3,4,9,10

>  <DihDeg>  (1) 
-113.31559232805266

$$$$
