
     RDKit          3D

 26 27  0  0  0  0  0  0  0  0999 V2000
   44.6402   35.9923   44.3770 C   0  0  0  0  0  0  0  0  0  0  0  0
   45.4333   35.6399   43.2703 C   0  0  0  0  0  0  0  0  0  0  0  0
   46.2235   34.4923   43.3729 C   0  0  0  0  0  0  0  0  0  0  0  0
   46.1826   33.7818   44.5328 N   0  0  0  0  0  0  0  0  0  0  0  0
   45.4096   34.1444   45.5823 C   0  0  0  0  0  0  0  0  0  0  0  0
   44.6347   35.2533   45.5066 N   0  0  0  0  0  0  0  0  0  0  0  0
   44.0151   36.8886   44.3134 H   0  0  0  0  0  0  0  0  0  0  0  0
   45.4456   36.2149   42.3749 H   0  0  0  0  0  0  0  0  0  0  0  0
   46.8653   34.1424   42.5755 H   0  0  0  0  0  0  0  0  0  0  0  0
   45.4225   33.3105   46.8175 C   0  0  0  0  0  0  0  0  0  0  0  0
   46.4786   32.2874   46.6359 C   0  0  0  0  0  0  0  0  0  0  0  0
   45.9650   30.9063   46.3351 C   0  0  0  0  0  0  0  0  0  0  0  0
   45.0466   30.5410   47.4712 C   0  0  0  0  0  0  0  0  0  0  0  0
   43.8736   31.4436   47.5795 C   0  0  0  0  0  0  0  0  0  0  0  0
   44.0464   32.8290   47.0838 C   0  0  0  0  0  0  0  0  0  0  0  0
   45.7741   34.0058   47.6270 H   0  0  0  0  0  0  0  0  0  0  0  0
   47.2022   32.5411   45.8319 H   0  0  0  0  0  0  0  0  0  0  0  0
   47.1265   32.1917   47.5509 H   0  0  0  0  0  0  0  0  0  0  0  0
   45.3990   30.8754   45.4104 H   0  0  0  0  0  0  0  0  0  0  0  0
   46.8375   30.2329   46.4086 H   0  0  0  0  0  0  0  0  0  0  0  0
   45.5941   30.5144   48.4476 H   0  0  0  0  0  0  0  0  0  0  0  0
   44.7309   29.4897   47.3061 H   0  0  0  0  0  0  0  0  0  0  0  0
   43.0114   30.9288   47.0716 H   0  0  0  0  0  0  0  0  0  0  0  0
   43.5432   31.4270   48.6612 H   0  0  0  0  0  0  0  0  0  0  0  0
   43.3987   32.9676   46.1902 H   0  0  0  0  0  0  0  0  0  0  0  0
   43.5810   33.5249   47.8344 H   0  0  0  0  0  0  0  0  0  0  0  0
  1  6  2  0
  2  3  2  0
  2  1  1  0
  3  4  1  0
  4  5  2  0
  6  5  1  0
  1  7  1  0
  2  8  1  0
  3  9  1  0
 10 11  1  0
 11 12  1  0
 12 13  1  0
 13 14  1  0
 14 15  1  0
 15 10  1  0
 10 16  1  0
 11 17  1  0
 11 18  1  0
 12 19  1  0
 12 20  1  0
 13 21  1  0
 13 22  1  0
 14 23  1  0
 14 24  1  0
 15 25  1  0
 15 26  1  0
  5 10  1  0
M  ISO  3   7  14   8  14   9  14
M  END
>  <DihAtoms>  (1) 
3,4,9,10

>  <DihDeg>  (1) 
-113.31559232805266

$$$$
