
     RDKit          3D

 53 57  0  0  0  0  0  0  0  0999 V2000
   45.1350   30.1050   48.4050 C   0  0  0  0  0  0  0  0  0  0  0  0
   45.2620   27.5200   48.4440 C   0  0  0  0  0  0  0  0  0  0  0  0
   44.8940   28.7440   47.9110 C   0  0  0  0  0  0  0  0  0  0  0  0
   44.1770   28.7160   46.7150 C   0  0  0  0  0  0  0  0  0  0  0  0
   43.8470   27.5380   46.0850 C   0  0  0  0  0  0  0  0  0  0  0  0
   43.1850   27.2160   44.9690 N   0  0  0  0  0  0  0  0  0  0  0  0
   43.1390   25.8760   44.8090 C   0  0  0  0  0  0  0  0  0  0  0  0
   43.7990   25.2660   45.8630 C   0  0  0  0  0  0  0  0  0  0  0  0
   44.2210   26.3330   46.6280 C   0  0  0  0  0  0  0  0  0  0  0  0
   44.9290   26.3610   47.8100 C   0  0  0  0  0  0  0  0  0  0  0  0
   45.3460   25.0940   48.4170 C   0  0  0  0  0  0  0  0  0  0  0  0
   46.7010   24.6000   48.0830 C   0  0  0  0  0  0  0  0  0  0  0  0
   47.6310   24.4140   49.2480 C   0  0  0  0  0  0  0  0  0  0  0  0
   47.0870   23.5210   50.3160 C   0  0  0  0  0  0  0  0  0  0  0  0
   45.6380   23.8050   50.5410 C   0  0  0  0  0  0  0  0  0  0  0  0
   45.2980   25.1750   49.9490 C   0  0  0  0  0  0  0  0  0  0  0  0
   46.4990   30.6440   48.2370 C   0  0  0  0  0  0  0  0  0  0  0  0
   46.2760   32.8800   45.4650 C   0  0  0  0  0  0  0  0  0  0  0  0
   47.1560   31.8810   44.9760 C   0  0  0  0  0  0  0  0  0  0  0  0
   47.3380   30.9450   45.9390 C   0  0  0  0  0  0  0  0  0  0  0  0
   46.6030   31.3440   46.9820 N   0  0  0  0  0  0  0  0  0  0  0  0
   45.9740   32.4900   46.7010 N   0  0  0  0  0  0  0  0  0  0  0  0
   44.5310   35.9350   44.5410 C   0  0  0  0  0  0  0  0  0  0  0  0
   45.0410   36.2330   43.2790 C   0  0  0  0  0  0  0  0  0  0  0  0
   45.9930   35.3710   42.7480 C   0  0  0  0  0  0  0  0  0  0  0  0
   46.3730   34.2930   43.4820 N   0  0  0  0  0  0  0  0  0  0  0  0
   45.8710   34.0270   44.6880 C   0  0  0  0  0  0  0  0  0  0  0  0
   44.9440   34.8560   45.2160 N   0  0  0  0  0  0  0  0  0  0  0  0
   44.4441   30.7779   47.8759 H   0  0  0  0  0  0  0  0  0  0  0  0
   44.9812   30.0471   49.4926 H   0  0  0  0  0  0  0  0  0  0  0  0
   45.8276   27.4832   49.3867 H   0  0  0  0  0  0  0  0  0  0  0  0
   43.8648   29.6676   46.2601 H   0  0  0  0  0  0  0  0  0  0  0  0
   42.7669   27.8974   44.3196 H   0  0  0  0  0  0  0  0  0  0  0  0
   42.6536   25.3512   43.9729 H   0  0  0  0  0  0  0  0  0  0  0  0
   43.9498   24.1918   46.0454 H   0  0  0  0  0  0  0  0  0  0  0  0
   44.6215   24.3886   47.9840 H   0  0  0  0  0  0  0  0  0  0  0  0
   46.5920   23.6284   47.5789 H   0  0  0  0  0  0  0  0  0  0  0  0
   47.1583   25.3789   47.4551 H   0  0  0  0  0  0  0  0  0  0  0  0
   48.5701   23.9782   48.8763 H   0  0  0  0  0  0  0  0  0  0  0  0
   47.7783   25.4049   49.7024 H   0  0  0  0  0  0  0  0  0  0  0  0
   47.2076   22.4719   50.0080 H   0  0  0  0  0  0  0  0  0  0  0  0
   47.6370   23.7050   51.2507 H   0  0  0  0  0  0  0  0  0  0  0  0
   45.0303   23.0306   50.0501 H   0  0  0  0  0  0  0  0  0  0  0  0
   45.4235   23.8041   51.6199 H   0  0  0  0  0  0  0  0  0  0  0  0
   46.0288   25.9183   50.3004 H   0  0  0  0  0  0  0  0  0  0  0  0
   44.2892   25.4740   50.2699 H   0  0  0  0  0  0  0  0  0  0  0  0
   46.7198   31.3389   49.0607 H   0  0  0  0  0  0  0  0  0  0  0  0
   47.2188   29.8122   48.2463 H   0  0  0  0  0  0  0  0  0  0  0  0
   47.6162   31.8680   43.9770 H   0  0  0  0  0  0  0  0  0  0  0  0
   47.9627   30.0418   45.8755 H   0  0  0  0  0  0  0  0  0  0  0  0
   43.7764   36.5977   44.9898 H   0  0  0  0  0  0  0  0  0  0  0  0
   44.7020   37.1193   42.7226 H   0  0  0  0  0  0  0  0  0  0  0  0
   46.4291   35.5575   41.7555 H   0  0  0  0  0  0  0  0  0  0  0  0
  3  1  1  0
  3  2  2  0
  4  3  1  0
  5  9  1  0
  5  4  2  0
  6  5  1  0
  7  6  1  0
  7  8  2  0
  8  9  1  0
  9 10  2  0
 10 11  1  0
 10  2  1  0
 11 16  1  0
 12 11  1  0
 12 13  1  0
 13 14  1  0
 14 15  1  0
 16 15  1  0
 17  1  1  0
 18 22  2  0
 19 18  1  0
 19 20  2  0
 20 21  1  0
 21 17  1  0
 22 21  1  0
 23 28  2  0
 24 23  1  0
 25 24  2  0
 25 26  1  0
 26 27  2  0
 27 28  1  0
 27 18  1  0
  1 29  1  0
  1 30  1  0
  2 31  1  0
  4 32  1  0
  6 33  1  0
  7 34  1  0
  8 35  1  0
 11 36  1  0
 12 37  1  0
 12 38  1  0
 13 39  1  0
 13 40  1  0
 14 41  1  0
 14 42  1  0
 15 43  1  0
 15 44  1  0
 16 45  1  0
 16 46  1  0
 17 47  1  0
 17 48  1  0
 19 49  1  0
 20 50  1  0
 23 51  1  0
 24 52  1  0
 25 53  1  0
M  ISO  8  29   8  30   8  31  14  32  14  33   9  34  14  35  14  36  13
M  ISO  8  37  13  38  13  39  13  40  13  41  13  42  13  43  13  44  13
M  ISO  8  45  13  46  13  47   8  48   8  49  14  50  14  51  14  52  14
M  ISO  1  53  14
M  END
>  <minimizedAffinity>  (1) 
-5.65719223

>  <minimizedRMSD>  (1) 
1.93201792

$$$$
