
     RDKit          3D

 47 49  0  0  0  0  0  0  0  0999 V2000
   42.2148   34.1758   40.1947 C   0  0  0  0  0  0  0  0  0  0  0  0
   42.2881   35.1338   41.1884 C   0  0  0  0  0  0  0  0  0  0  0  0
   41.2329   36.0176   41.3530 C   0  0  0  0  0  0  0  0  0  0  0  0
   40.1448   35.9250   40.5327 C   0  0  0  0  0  0  0  0  0  0  0  0
   40.0303   34.9936   39.5377 C   0  0  0  0  0  0  0  0  0  0  0  0
   41.1188   34.1361   39.4214 C   0  0  0  0  0  0  0  0  0  0  0  0
   44.6086   31.2959   40.5867 C   0  0  0  0  0  0  0  0  0  0  0  0
   43.4672   32.0928   40.7838 C   0  0  0  0  0  0  0  0  0  0  0  0
   43.3469   33.2797   40.0696 C   0  0  0  0  0  0  0  0  0  0  0  0
   44.3475   33.5906   39.2241 N   0  0  0  0  0  0  0  0  0  0  0  0
   45.4386   32.8241   39.0388 C   0  0  0  0  0  0  0  0  0  0  0  0
   45.5642   31.6683   39.7288 N   0  0  0  0  0  0  0  0  0  0  0  0
   43.4897   35.2113   42.0698 C   0  0  0  0  0  0  0  0  0  0  0  0
   43.2292   35.6665   43.3952 N   0  0  0  0  0  0  0  0  0  0  0  0
   44.6521   35.8490   44.3391 S   0  0  0  0  0  0  0  0  0  0  0  0
   45.8153   35.1994   43.6650 O   0  0  0  0  0  0  0  0  0  0  0  0
   44.4867   35.3151   45.7089 O   0  0  0  0  0  0  0  0  0  0  0  0
   44.9374   37.5112   44.4282 O   0  0  0  0  0  0  0  0  0  0  0  0
   41.3189   36.7571   42.1398 H   0  0  0  0  0  0  0  0  0  0  0  0
   39.3586   36.6407   40.7117 H   0  0  0  0  0  0  0  0  0  0  0  0
   39.1683   34.9188   38.8864 H   0  0  0  0  0  0  0  0  0  0  0  0
   41.0899   33.3697   38.6463 H   0  0  0  0  0  0  0  0  0  0  0  0
   44.7262   30.3685   41.1296 H   0  0  0  0  0  0  0  0  0  0  0  0
   42.6918   31.8094   41.4673 H   0  0  0  0  0  0  0  0  0  0  0  0
   46.2320   33.0950   38.3521 H   0  0  0  0  0  0  0  0  0  0  0  0
   44.1622   35.9615   41.5977 H   0  0  0  0  0  0  0  0  0  0  0  0
   44.0505   34.2562   42.0311 H   0  0  0  0  0  0  0  0  0  0  0  0
   42.6474   34.9099   43.8579 H   0  0  0  0  0  0  0  0  0  0  0  0
   46.0227   34.2308   43.8178 H   0  0  0  0  0  0  0  0  0  0  0  0
   43.7229   34.7941   46.0751 H   0  0  0  0  0  0  0  0  0  0  0  0
   45.2563   37.9446   45.6799 C   0  0  0  0  0  0  0  0  0  0  0  0
   46.1543   39.1571   45.5126 C   0  0  0  0  0  0  0  0  0  0  0  0
   45.4360   40.1300   44.6162 C   0  0  0  0  0  0  0  0  0  0  0  0
   43.9637   39.9171   44.5065 C   0  0  0  0  0  0  0  0  0  0  0  0
   43.2829   39.4302   45.7380 C   0  0  0  0  0  0  0  0  0  0  0  0
   44.0860   38.4168   46.5158 C   0  0  0  0  0  0  0  0  0  0  0  0
   45.7855   37.1660   46.2886 H   0  0  0  0  0  0  0  0  0  0  0  0
   46.4537   39.5853   46.4909 H   0  0  0  0  0  0  0  0  0  0  0  0
   47.0579   38.8004   44.9482 H   0  0  0  0  0  0  0  0  0  0  0  0
   45.6398   41.1529   45.0465 H   0  0  0  0  0  0  0  0  0  0  0  0
   45.8358   40.0900   43.5602 H   0  0  0  0  0  0  0  0  0  0  0  0
   43.5220   40.9263   44.2547 H   0  0  0  0  0  0  0  0  0  0  0  0
   43.6825   39.3019   43.6019 H   0  0  0  0  0  0  0  0  0  0  0  0
   42.9844   40.2993   46.3528 H   0  0  0  0  0  0  0  0  0  0  0  0
   42.3476   38.9036   45.3914 H   0  0  0  0  0  0  0  0  0  0  0  0
   43.4798   37.6217   46.9463 H   0  0  0  0  0  0  0  0  0  0  0  0
   44.5538   38.9756   47.3690 H   0  0  0  0  0  0  0  0  0  0  0  0
  1  2  1  0
  2  3  2  0
  2 13  1  0
  4  3  1  0
  5  4  2  0
  6  5  1  0
  6  1  2  0
  7  8  2  0
  9  1  1  0
  9  8  1  0
 10  9  2  0
 11 10  1  0
 11 12  2  0
 12  7  1  0
 13 14  1  0
 14 15  1  0
 15 18  1  0
 15 17  1  0
 16 15  1  0
  3 19  1  0
  4 20  1  0
  5 21  1  0
  6 22  1  0
  7 23  1  0
  8 24  1  0
 11 25  1  0
 13 26  1  0
 13 27  1  0
 14 28  1  0
 16 29  1  0
 17 30  1  0
 31 32  1  0
 32 33  1  0
 33 34  1  0
 34 35  1  0
 35 36  1  0
 36 31  1  0
 31 37  1  0
 32 38  1  0
 32 39  1  0
 33 40  1  0
 33 41  1  0
 34 42  1  0
 34 43  1  0
 35 44  1  0
 35 45  1  0
 36 46  1  0
 36 47  1  0
 18 31  1  0
M  ISO  8  19  14  20  14  21  14  22  14  23  14  24  14  25  14  26   8
M  ISO  4  27   8  28   5  29   3  30   3
M  END
>  <DihAtoms>  (1) 
14,17,30,31

>  <DihDeg>  (1) 
120.59259987043824

$$$$
