
     RDKit          3D

 49 52  0  0  0  0  0  0  0  0999 V2000
   45.8067   33.2288   46.3590 C   0  0  0  0  0  0  0  0  0  0  0  0
   45.1971   33.1419   47.6232 C   0  0  0  0  0  0  0  0  0  0  0  0
   45.7711   32.3275   48.5353 C   0  0  0  0  0  0  0  0  0  0  0  0
   46.9344   31.6023   48.2117 C   0  0  0  0  0  0  0  0  0  0  0  0
   47.2426   32.1071   46.4938 S   0  0  0  0  0  0  0  0  0  0  0  0
   44.3090   35.9097   44.2538 C   0  0  0  0  0  0  0  0  0  0  0  0
   44.4959   35.3377   42.9713 C   0  0  0  0  0  0  0  0  0  0  0  0
   45.1159   34.0856   42.8892 C   0  0  0  0  0  0  0  0  0  0  0  0
   45.5078   33.4820   44.0532 N   0  0  0  0  0  0  0  0  0  0  0  0
   45.3103   34.0624   45.2552 C   0  0  0  0  0  0  0  0  0  0  0  0
   44.7154   35.2649   45.3388 N   0  0  0  0  0  0  0  0  0  0  0  0
   47.7908   30.6601   48.8678 C   0  0  1  0  0  0  0  0  0  0  0  0
   48.1616   29.4980   48.0056 C   0  0  0  0  0  0  0  0  0  0  0  0
   49.5830   29.0464   48.1354 C   0  0  0  0  0  0  0  0  0  0  0  0
   50.0611   29.0179   49.5676 C   0  0  0  0  0  0  0  0  0  0  0  0
   49.6670   30.2419   50.3341 C   0  0  0  0  0  0  0  0  0  0  0  0
   49.0992   31.2956   49.3812 C   0  0  2  0  0  0  0  0  0  0  0  0
   44.3056   33.6981   47.8680 H   0  0  0  0  0  0  0  0  0  0  0  0
   45.4449   32.1366   49.5461 H   0  0  0  0  0  0  0  0  0  0  0  0
   43.8306   36.8842   44.3716 H   0  0  0  0  0  0  0  0  0  0  0  0
   44.1670   35.8614   42.1057 H   0  0  0  0  0  0  0  0  0  0  0  0
   45.2767   33.6168   41.9354 H   0  0  0  0  0  0  0  0  0  0  0  0
   47.2918   30.2952   49.7745 H   0  0  0  0  0  0  0  0  0  0  0  0
   48.0051   29.7164   46.9090 H   0  0  0  0  0  0  0  0  0  0  0  0
   47.5075   28.6144   48.2064 H   0  0  0  0  0  0  0  0  0  0  0  0
   50.3098   29.6998   47.5964 H   0  0  0  0  0  0  0  0  0  0  0  0
   49.6619   28.0218   47.7303 H   0  0  0  0  0  0  0  0  0  0  0  0
   51.1368   28.8076   49.5839 H   0  0  0  0  0  0  0  0  0  0  0  0
   49.5564   28.1550   50.0423 H   0  0  0  0  0  0  0  0  0  0  0  0
   50.5382   30.6959   50.8301 H   0  0  0  0  0  0  0  0  0  0  0  0
   48.8775   30.0390   51.0898 H   0  0  0  0  0  0  0  0  0  0  0  0
   49.8304   31.4450   48.5722 H   0  0  0  0  0  0  0  0  0  0  0  0
   48.8674   32.5983   50.0675 C   0  0  0  0  0  0  0  0  0  0  0  0
   47.9199   33.5339   49.4025 C   0  0  0  0  0  0  0  0  0  0  0  0
   48.1990   34.9121   50.0035 C   0  0  0  0  0  0  0  0  0  0  0  0
   47.8913   34.8326   51.4826 C   0  0  0  0  0  0  0  0  0  0  0  0
   48.6254   33.7318   52.1892 C   0  0  0  0  0  0  0  0  0  0  0  0
   48.4316   32.3877   51.4748 C   0  0  0  0  0  0  0  0  0  0  0  0
   49.8637   33.1094   50.1072 H   0  0  0  0  0  0  0  0  0  0  0  0
   48.0368   33.5054   48.3224 H   0  0  0  0  0  0  0  0  0  0  0  0
   46.8770   33.2093   49.6665 H   0  0  0  0  0  0  0  0  0  0  0  0
   47.5382   35.6628   49.5628 H   0  0  0  0  0  0  0  0  0  0  0  0
   49.2738   35.1182   49.8222 H   0  0  0  0  0  0  0  0  0  0  0  0
   48.1619   35.7807   51.9586 H   0  0  0  0  0  0  0  0  0  0  0  0
   46.8094   34.6341   51.5811 H   0  0  0  0  0  0  0  0  0  0  0  0
   49.7084   33.9426   52.1491 H   0  0  0  0  0  0  0  0  0  0  0  0
   48.2274   33.6297   53.1979 H   0  0  0  0  0  0  0  0  0  0  0  0
   49.0142   31.6263   51.9957 H   0  0  0  0  0  0  0  0  0  0  0  0
   47.3316   32.1869   51.5354 H   0  0  0  0  0  0  0  0  0  0  0  0
  1  5  1  0
  1  2  2  0
  2  3  1  0
  4  3  2  0
  4 12  1  0
  5  4  1  0
  6 11  2  0
  7  6  1  0
  8  7  2  0
  8  9  1  0
  9 10  2  0
 10 11  1  0
 10  1  1  0
 12 17  1  0
 13 14  1  0
 13 12  1  0
 14 15  1  0
 15 16  1  0
 17 16  1  0
  2 18  1  0
  3 19  1  0
  6 20  1  0
  7 21  1  0
  8 22  1  0
 12 23  1  1
 13 24  1  0
 13 25  1  0
 14 26  1  0
 14 27  1  0
 15 28  1  0
 15 29  1  0
 16 30  1  0
 16 31  1  0
 17 32  1  6
 33 34  1  0
 34 35  1  0
 35 36  1  0
 36 37  1  0
 37 38  1  0
 38 33  1  0
 33 39  1  0
 34 40  1  0
 34 41  1  0
 35 42  1  0
 35 43  1  0
 36 44  1  0
 36 45  1  0
 37 46  1  0
 37 47  1  0
 38 48  1  0
 38 49  1  0
 17 33  1  0
M  ISO  8  18  14  19  14  20  14  21  14  22  14  23  13  24  13  25  13
M  ISO  7  26  13  27  13  28  13  29  13  30  13  31  13  32  13
M  END
>  <DihAtoms>  (1) 
11,16,32,33

>  <DihDeg>  (1) 
61.22392545186272

$$$$
