
     RDKit          3D

 44 46  0  0  0  0  0  0  0  0999 V2000
   42.7070   34.4610   40.3410 C   0  0  0  0  0  0  0  0  0  0  0  0
   42.2530   35.7300   40.9700 C   0  0  0  0  0  0  0  0  0  0  0  0
   40.7870   35.7550   41.2560 C   0  0  0  0  0  0  0  0  0  0  0  0
   39.9460   35.4560   40.0330 C   0  0  0  0  0  0  0  0  0  0  0  0
   40.4660   34.3050   39.2160 C   0  0  0  0  0  0  0  0  0  0  0  0
   41.5770   33.5620   39.9100 C   0  0  0  0  0  0  0  0  0  0  0  0
   43.5690   33.6610   41.2500 C   0  0  0  0  0  0  0  0  0  0  0  0
   44.8410   34.1850   41.5220 C   0  0  0  0  0  0  0  0  0  0  0  0
   45.7110   33.5040   42.3620 C   0  0  0  0  0  0  0  0  0  0  0  0
   45.2630   32.3290   42.8880 N   0  0  0  0  0  0  0  0  0  0  0  0
   44.0160   31.8350   42.6090 C   0  0  0  0  0  0  0  0  0  0  0  0
   43.1680   32.4910   41.7960 N   0  0  0  0  0  0  0  0  0  0  0  0
   43.6810   30.5900   43.2330 N   0  0  0  0  0  0  0  0  0  0  0  0
   47.0460   34.0260   42.6650 C   0  0  0  0  0  0  0  0  0  0  0  0
   48.1320   33.0730   42.1770 C   0  0  0  0  0  0  0  0  0  0  0  0
   49.4110   33.5840   42.8410 C   0  0  0  0  0  0  0  0  0  0  0  0
   49.7920   34.8860   42.1930 C   0  0  0  0  0  0  0  0  0  0  0  0
   48.6500   35.5480   41.4750 C   0  0  0  0  0  0  0  0  0  0  0  0
   47.3300   35.4020   42.1750 C   0  0  0  0  0  0  0  0  0  0  0  0
   43.2689   34.7940   39.4559 H   0  0  0  0  0  0  0  0  0  0  0  0
   42.7961   35.8643   41.9171 H   0  0  0  0  0  0  0  0  0  0  0  0
   42.4600   36.5405   40.2557 H   0  0  0  0  0  0  0  0  0  0  0  0
   40.5663   35.0021   42.0270 H   0  0  0  0  0  0  0  0  0  0  0  0
   40.5324   36.7706   41.5931 H   0  0  0  0  0  0  0  0  0  0  0  0
   38.9244   35.2158   40.3628 H   0  0  0  0  0  0  0  0  0  0  0  0
   39.9773   36.3492   39.3917 H   0  0  0  0  0  0  0  0  0  0  0  0
   40.8452   34.6940   38.2595 H   0  0  0  0  0  0  0  0  0  0  0  0
   39.6354   33.5999   39.0645 H   0  0  0  0  0  0  0  0  0  0  0  0
   41.1641   33.0663   40.8009 H   0  0  0  0  0  0  0  0  0  0  0  0
   41.9882   32.8382   39.1909 H   0  0  0  0  0  0  0  0  0  0  0  0
   45.1500   35.1383   41.0684 H   0  0  0  0  0  0  0  0  0  0  0  0
   42.7591   30.1620   43.0662 H   0  0  0  0  0  0  0  0  0  0  0  0
   44.3620   30.1228   43.8485 H   0  0  0  0  0  0  0  0  0  0  0  0
   47.0565   34.0984   43.7626 H   0  0  0  0  0  0  0  0  0  0  0  0
   47.9152   32.0415   42.4917 H   0  0  0  0  0  0  0  0  0  0  0  0
   48.2087   33.0504   41.0799 H   0  0  0  0  0  0  0  0  0  0  0  0
   49.2351   33.7408   43.9155 H   0  0  0  0  0  0  0  0  0  0  0  0
   50.2205   32.8492   42.7195 H   0  0  0  0  0  0  0  0  0  0  0  0
   50.1581   35.5702   42.9726 H   0  0  0  0  0  0  0  0  0  0  0  0
   50.5642   34.6630   41.4420 H   0  0  0  0  0  0  0  0  0  0  0  0
   48.5633   35.1005   40.4739 H   0  0  0  0  0  0  0  0  0  0  0  0
   48.8756   36.6239   41.4363 H   0  0  0  0  0  0  0  0  0  0  0  0
   47.3204   36.0839   43.0381 H   0  0  0  0  0  0  0  0  0  0  0  0
   46.5524   35.6394   41.4341 H   0  0  0  0  0  0  0  0  0  0  0  0
  1  2  1  0
  1  7  1  0
  2  3  1  0
  4  3  1  0
  5  6  1  0
  5  4  1  0
  6  1  1  0
  7  8  2  0
  7 12  1  0
  8  9  1  0
  9 14  1  0
  9 10  2  0
 11 10  1  0
 11 13  1  0
 12 11  2  0
 15 14  1  0
 15 16  1  0
 17 16  1  0
 18 19  1  0
 18 17  1  0
 19 14  1  0
  1 20  1  0
  2 21  1  0
  2 22  1  0
  3 23  1  0
  3 24  1  0
  4 25  1  0
  4 26  1  0
  5 27  1  0
  5 28  1  0
  6 29  1  0
  6 30  1  0
  8 31  1  0
 13 32  1  0
 13 33  1  0
 14 34  1  0
 15 35  1  0
 15 36  1  0
 16 37  1  0
 16 38  1  0
 17 39  1  0
 17 40  1  0
 18 41  1  0
 18 42  1  0
 19 43  1  0
 19 44  1  0
M  ISO  8  20  13  21  13  22  13  23  13  24  13  25  13  26  13  27  13
M  ISO  8  28  13  29  13  30  13  31  14  34  13  35  13  36  13  37  13
M  ISO  7  38  13  39  13  40  13  41  13  42  13  43  13  44  13
M  END
>  <minimizedAffinity>  (1) 
-5.59675026

>  <minimizedRMSD>  (1) 
5.16128492

$$$$
