
     RDKit          3D

 26 27  0  0  0  0  0  0  0  0999 V2000
   44.6402   35.9923   44.3770 C   0  0  0  0  0  0  0  0  0  0  0  0
   45.4333   35.6399   43.2703 C   0  0  0  0  0  0  0  0  0  0  0  0
   46.2235   34.4923   43.3729 C   0  0  0  0  0  0  0  0  0  0  0  0
   46.1826   33.7818   44.5328 N   0  0  0  0  0  0  0  0  0  0  0  0
   45.4096   34.1444   45.5823 C   0  0  0  0  0  0  0  0  0  0  0  0
   44.6347   35.2533   45.5066 N   0  0  0  0  0  0  0  0  0  0  0  0
   44.0151   36.8886   44.3134 H   0  0  0  0  0  0  0  0  0  0  0  0
   45.4456   36.2149   42.3749 H   0  0  0  0  0  0  0  0  0  0  0  0
   46.8653   34.1424   42.5755 H   0  0  0  0  0  0  0  0  0  0  0  0
   45.4225   33.3105   46.8175 C   0  0  0  0  0  0  0  0  0  0  0  0
   46.1970   32.0871   46.5037 C   0  0  0  0  0  0  0  0  0  0  0  0
   45.3613   30.8527   46.3052 C   0  0  0  0  0  0  0  0  0  0  0  0
   44.5606   30.6776   47.5686 C   0  0  0  0  0  0  0  0  0  0  0  0
   43.6368   31.8094   47.8290 C   0  0  0  0  0  0  0  0  0  0  0  0
   44.0287   33.1321   47.2886 C   0  0  0  0  0  0  0  0  0  0  0  0
   46.0286   33.9030   47.5550 H   0  0  0  0  0  0  0  0  0  0  0  0
   46.8337   32.1905   45.5990 H   0  0  0  0  0  0  0  0  0  0  0  0
   46.9350   31.8421   47.3169 H   0  0  0  0  0  0  0  0  0  0  0  0
   44.6737   30.9565   45.4728 H   0  0  0  0  0  0  0  0  0  0  0  0
   46.0703   30.0067   46.2639 H   0  0  0  0  0  0  0  0  0  0  0  0
   45.2255   30.5209   48.4559 H   0  0  0  0  0  0  0  0  0  0  0  0
   44.0064   29.7209   47.4698 H   0  0  0  0  0  0  0  0  0  0  0  0
   42.6199   31.4987   47.4604 H   0  0  0  0  0  0  0  0  0  0  0  0
   43.4710   31.8495   48.9472 H   0  0  0  0  0  0  0  0  0  0  0  0
   43.3031   33.4186   46.4957 H   0  0  0  0  0  0  0  0  0  0  0  0
   43.8373   33.9014   48.0859 H   0  0  0  0  0  0  0  0  0  0  0  0
  1  6  2  0
  2  3  2  0
  2  1  1  0
  3  4  1  0
  4  5  2  0
  6  5  1  0
  1  7  1  0
  2  8  1  0
  3  9  1  0
 10 11  1  0
 11 12  1  0
 12 13  1  0
 13 14  1  0
 14 15  1  0
 15 10  1  0
 10 16  1  0
 11 17  1  0
 11 18  1  0
 12 19  1  0
 12 20  1  0
 13 21  1  0
 13 22  1  0
 14 23  1  0
 14 24  1  0
 15 25  1  0
 15 26  1  0
  5 10  1  0
M  ISO  3   7  14   8  14   9  14
M  END
>  <DihAtoms>  (1) 
3,4,9,10

>  <DihDeg>  (1) 
-113.31559232805266

$$$$
