
     RDKit          3D

 46 50  0  0  0  0  0  0  0  0999 V2000
   47.2662   31.3923   45.1499 C   0  0  0  0  0  0  0  0  0  0  0  0
   46.8747   32.7175   45.1416 C   0  0  0  0  0  0  0  0  0  0  0  0
   46.2384   33.3297   46.2081 C   0  0  0  0  0  0  0  0  0  0  0  0
   45.9685   32.5950   47.3573 C   0  0  0  0  0  0  0  0  0  0  0  0
   45.3809   32.8475   48.5614 N   0  0  0  0  0  0  0  0  0  0  0  0
   45.4113   31.7060   49.2899 C   0  0  0  0  0  0  0  0  0  0  0  0
   46.0146   30.7631   48.5325 N   0  0  0  0  0  0  0  0  0  0  0  0
   46.3626   31.2820   47.3511 C   0  0  0  0  0  0  0  0  0  0  0  0
   46.9926   30.6556   46.3092 C   0  0  0  0  0  0  0  0  0  0  0  0
   46.4839   35.1821   42.4293 C   0  0  0  0  0  0  0  0  0  0  0  0
   47.6490   35.0193   41.6979 C   0  0  0  0  0  0  0  0  0  0  0  0
   48.5756   34.0638   42.1301 C   0  0  0  0  0  0  0  0  0  0  0  0
   48.2846   33.3376   43.2538 N   0  0  0  0  0  0  0  0  0  0  0  0
   47.1466   33.5182   43.9416 C   0  0  0  0  0  0  0  0  0  0  0  0
   46.2414   34.4348   43.5402 N   0  0  0  0  0  0  0  0  0  0  0  0
   47.3781   29.2374   46.3968 C   0  0  0  0  0  0  0  0  0  0  0  0
   48.6813   28.7985   46.6133 C   0  0  0  0  0  0  0  0  0  0  0  0
   48.5463   27.3968   46.6174 C   0  0  0  0  0  0  0  0  0  0  0  0
   47.2126   27.0883   46.4097 C   0  0  0  0  0  0  0  0  0  0  0  0
   46.5617   28.2316   46.2847 O   0  0  0  0  0  0  0  0  0  0  0  0
   47.7566   30.9468   44.3095 H   0  0  0  0  0  0  0  0  0  0  0  0
   45.9395   34.3597   46.1891 H   0  0  0  0  0  0  0  0  0  0  0  0
   44.9904   33.7985   48.8131 H   0  0  0  0  0  0  0  0  0  0  0  0
   45.0063   31.6353   50.2914 H   0  0  0  0  0  0  0  0  0  0  0  0
   45.7296   35.9186   42.1283 H   0  0  0  0  0  0  0  0  0  0  0  0
   47.8471   35.6035   40.8226 H   0  0  0  0  0  0  0  0  0  0  0  0
   49.5070   33.8956   41.5921 H   0  0  0  0  0  0  0  0  0  0  0  0
   49.5880   29.3781   46.7477 H   0  0  0  0  0  0  0  0  0  0  0  0
   49.3481   26.6877   46.7586 H   0  0  0  0  0  0  0  0  0  0  0  0
   46.5708   25.7356   46.3318 C   0  0  0  0  0  0  0  0  0  0  0  0
   45.2763   25.6917   47.0898 C   0  0  0  0  0  0  0  0  0  0  0  0
   45.4308   25.1069   48.4735 C   0  0  0  0  0  0  0  0  0  0  0  0
   45.8959   23.6733   48.4053 C   0  0  0  0  0  0  0  0  0  0  0  0
   46.8035   23.4521   47.2313 C   0  0  0  0  0  0  0  0  0  0  0  0
   47.5430   24.6856   46.7865 C   0  0  0  0  0  0  0  0  0  0  0  0
   46.3469   25.5418   45.2452 H   0  0  0  0  0  0  0  0  0  0  0  0
   44.8381   26.7208   47.2261 H   0  0  0  0  0  0  0  0  0  0  0  0
   44.4721   25.1320   46.5363 H   0  0  0  0  0  0  0  0  0  0  0  0
   44.4534   25.1832   48.9830 H   0  0  0  0  0  0  0  0  0  0  0  0
   46.2148   25.7294   48.9937 H   0  0  0  0  0  0  0  0  0  0  0  0
   44.9810   23.0199   48.3454 H   0  0  0  0  0  0  0  0  0  0  0  0
   46.4367   23.4611   49.3740 H   0  0  0  0  0  0  0  0  0  0  0  0
   47.5638   22.6676   47.4521 H   0  0  0  0  0  0  0  0  0  0  0  0
   46.2399   23.0719   46.3317 H   0  0  0  0  0  0  0  0  0  0  0  0
   48.2227   25.0283   47.5878 H   0  0  0  0  0  0  0  0  0  0  0  0
   48.1603   24.3791   45.9155 H   0  0  0  0  0  0  0  0  0  0  0  0
  1  9  2  0
  2  1  1  0
  2  3  2  0
  3  4  1  0
  4  5  1  0
  5  6  1  0
  7  6  2  0
  8  4  2  0
  8  7  1  0
  9 16  1  0
  9  8  1  0
 10 15  2  0
 11 12  2  0
 11 10  1  0
 12 13  1  0
 13 14  2  0
 14  2  1  0
 15 14  1  0
 16 17  2  0
 17 18  1  0
 19 18  2  0
 20 16  1  0
 20 19  1  0
  1 21  1  0
  3 22  1  0
  5 23  1  0
  6 24  1  0
 10 25  1  0
 11 26  1  0
 12 27  1  0
 17 28  1  0
 18 29  1  0
 30 31  1  0
 31 32  1  0
 32 33  1  0
 33 34  1  0
 34 35  1  0
 35 30  1  0
 30 36  1  0
 31 37  1  0
 31 38  1  0
 32 39  1  0
 32 40  1  0
 33 41  1  0
 33 42  1  0
 34 43  1  0
 34 44  1  0
 35 45  1  0
 35 46  1  0
 19 30  1  0
M  ISO  8  21  14  22  14  23   9  24  14  25  14  26  14  27  14  28  14
M  ISO  1  29  14
M  END
>  <DihAtoms>  (1) 
17,18,29,30

>  <DihDeg>  (1) 
-118.05174158361375

$$$$
