
     RDKit          3D

 26 27  0  0  0  0  0  0  0  0999 V2000
   44.6402   35.9923   44.3770 C   0  0  0  0  0  0  0  0  0  0  0  0
   45.4333   35.6399   43.2703 C   0  0  0  0  0  0  0  0  0  0  0  0
   46.2235   34.4923   43.3729 C   0  0  0  0  0  0  0  0  0  0  0  0
   46.1826   33.7818   44.5328 N   0  0  0  0  0  0  0  0  0  0  0  0
   45.4096   34.1444   45.5823 C   0  0  0  0  0  0  0  0  0  0  0  0
   44.6347   35.2533   45.5066 N   0  0  0  0  0  0  0  0  0  0  0  0
   44.0151   36.8886   44.3134 H   0  0  0  0  0  0  0  0  0  0  0  0
   45.4456   36.2149   42.3749 H   0  0  0  0  0  0  0  0  0  0  0  0
   46.8653   34.1424   42.5755 H   0  0  0  0  0  0  0  0  0  0  0  0
   45.4225   33.3105   46.8175 C   0  0  0  0  0  0  0  0  0  0  0  0
   45.1301   31.9189   46.4013 C   0  0  0  0  0  0  0  0  0  0  0  0
   43.7386   31.4496   46.7251 C   0  0  0  0  0  0  0  0  0  0  0  0
   43.5725   31.6162   48.2126 C   0  0  0  0  0  0  0  0  0  0  0  0
   43.6845   33.0293   48.6520 C   0  0  0  0  0  0  0  0  0  0  0  0
   44.5200   33.9257   47.8192 C   0  0  0  0  0  0  0  0  0  0  0  0
   46.4908   33.3321   47.1647 H   0  0  0  0  0  0  0  0  0  0  0  0
   45.2809   31.7449   45.3144 H   0  0  0  0  0  0  0  0  0  0  0  0
   45.8322   31.1843   46.8843 H   0  0  0  0  0  0  0  0  0  0  0  0
   42.9820   32.0444   46.2249 H   0  0  0  0  0  0  0  0  0  0  0  0
   43.7290   30.3627   46.5287 H   0  0  0  0  0  0  0  0  0  0  0  0
   44.3040   30.9854   48.7791 H   0  0  0  0  0  0  0  0  0  0  0  0
   42.5821   31.1904   48.4767 H   0  0  0  0  0  0  0  0  0  0  0  0
   42.6372   33.4263   48.7615 H   0  0  0  0  0  0  0  0  0  0  0  0
   44.0355   33.0137   49.7272 H   0  0  0  0  0  0  0  0  0  0  0  0
   43.8590   34.6836   47.3439 H   0  0  0  0  0  0  0  0  0  0  0  0
   45.1515   34.5493   48.5095 H   0  0  0  0  0  0  0  0  0  0  0  0
  1  6  2  0
  2  3  2  0
  2  1  1  0
  3  4  1  0
  4  5  2  0
  6  5  1  0
  1  7  1  0
  2  8  1  0
  3  9  1  0
 10 11  1  0
 11 12  1  0
 12 13  1  0
 13 14  1  0
 14 15  1  0
 15 10  1  0
 10 16  1  0
 11 17  1  0
 11 18  1  0
 12 19  1  0
 12 20  1  0
 13 21  1  0
 13 22  1  0
 14 23  1  0
 14 24  1  0
 15 25  1  0
 15 26  1  0
  5 10  1  0
M  ISO  3   7  14   8  14   9  14
M  END
>  <DihAtoms>  (1) 
3,4,9,10

>  <DihDeg>  (1) 
-113.31559232805266

$$$$
