
     RDKit          3D

 53 56  0  0  0  0  0  0  0  0999 V2000
   42.8259   34.4871   38.7791 C   0  0  1  0  0  0  0  0  0  0  0  0
   42.9453   35.1654   40.1385 C   0  0  1  0  0  0  0  0  0  0  0  0
   41.6523   35.3769   40.6426 O   0  0  0  0  0  0  0  0  0  0  0  0
   40.7314   35.6994   39.6421 C   0  0  0  0  0  0  0  0  0  0  0  0
   40.4449   34.5188   38.7368 C   0  0  2  0  0  0  0  0  0  0  0  0
   41.6682   33.5491   38.8817 C   0  0  1  0  0  0  0  0  0  0  0  0
   42.6083   35.4317   37.7674 O   0  0  0  0  0  0  0  0  0  0  0  0
   40.4660   34.9319   37.4120 O   0  0  0  0  0  0  0  0  0  0  0  0
   43.4866   34.1911   40.9901 O   0  0  0  0  0  0  0  0  0  0  0  0
   44.5982   34.3390   41.7202 C   0  0  0  0  0  0  0  0  0  0  0  0
   45.8555   34.4479   41.1086 C   0  0  0  0  0  0  0  0  0  0  0  0
   46.9753   34.6006   41.9060 C   0  0  0  0  0  0  0  0  0  0  0  0
   46.8211   34.6412   43.2815 N   0  0  0  0  0  0  0  0  0  0  0  0
   45.5938   34.5328   43.8370 C   0  0  0  0  0  0  0  0  0  0  0  0
   44.4908   34.3827   43.0595 N   0  0  0  0  0  0  0  0  0  0  0  0
   48.3487   34.7069   41.3295 C   0  0  0  0  0  0  0  0  0  0  0  0
   49.0727   36.0398   41.5144 C   0  0  0  0  0  0  0  0  0  0  0  0
   49.5068   34.7092   42.1637 C   0  0  0  0  0  0  0  0  0  0  0  0
   41.5578   32.6086   37.9255 O   0  0  0  0  0  0  0  0  0  0  0  0
   40.9332   31.4128   37.9673 C   0  0  0  0  0  0  0  0  0  0  0  0
   39.6832   31.2832   37.5865 O   0  0  0  0  0  0  0  0  0  0  0  0
   43.7790   33.9670   38.5230 H   0  0  0  0  0  0  0  0  0  0  0  0
   43.5240   36.0991   40.1116 H   0  0  0  0  0  0  0  0  0  0  0  0
   40.9784   36.6278   39.0985 H   0  0  0  0  0  0  0  0  0  0  0  0
   39.7874   35.9121   40.1807 H   0  0  0  0  0  0  0  0  0  0  0  0
   39.5150   33.9760   38.9994 H   0  0  0  0  0  0  0  0  0  0  0  0
   41.4532   33.2653   39.9636 H   0  0  0  0  0  0  0  0  0  0  0  0
   43.4834   35.8450   37.5756 H   0  0  0  0  0  0  0  0  0  0  0  0
   40.6643   34.2280   36.7633 H   0  0  0  0  0  0  0  0  0  0  0  0
   45.9839   34.4169   40.0355 H   0  0  0  0  0  0  0  0  0  0  0  0
   45.5114   34.5679   44.8974 H   0  0  0  0  0  0  0  0  0  0  0  0
   48.3942   34.2810   40.2887 H   0  0  0  0  0  0  0  0  0  0  0  0
   48.5301   36.7565   42.1283 H   0  0  0  0  0  0  0  0  0  0  0  0
   49.7088   36.3586   40.6742 H   0  0  0  0  0  0  0  0  0  0  0  0
   50.4655   34.2645   41.8425 H   0  0  0  0  0  0  0  0  0  0  0  0
   49.3830   34.7119   43.2798 H   0  0  0  0  0  0  0  0  0  0  0  0
   41.0983   29.9604   38.3136 C   0  0  0  0  0  0  0  0  0  0  0  0
   41.2815   29.2365   36.9833 C   0  0  0  0  0  0  0  0  0  0  0  0
   41.5825   27.7890   37.1789 C   0  0  0  0  0  0  0  0  0  0  0  0
   40.8846   27.1986   38.3564 C   0  0  0  0  0  0  0  0  0  0  0  0
   39.5808   27.9556   38.5359 C   0  0  0  0  0  0  0  0  0  0  0  0
   39.9621   29.3329   39.0230 C   0  0  0  0  0  0  0  0  0  0  0  0
   42.0112   29.8178   38.9459 H   0  0  0  0  0  0  0  0  0  0  0  0
   42.1312   29.7447   36.4475 H   0  0  0  0  0  0  0  0  0  0  0  0
   40.3773   29.4161   36.3714 H   0  0  0  0  0  0  0  0  0  0  0  0
   42.6860   27.6656   37.2137 H   0  0  0  0  0  0  0  0  0  0  0  0
   41.2418   27.2664   36.2381 H   0  0  0  0  0  0  0  0  0  0  0  0
   41.4655   27.3405   39.3056 H   0  0  0  0  0  0  0  0  0  0  0  0
   40.6033   26.1281   38.2019 H   0  0  0  0  0  0  0  0  0  0  0  0
   38.9682   27.4434   39.3016 H   0  0  0  0  0  0  0  0  0  0  0  0
   39.0121   27.9517   37.5938 H   0  0  0  0  0  0  0  0  0  0  0  0
   39.0593   29.9840   38.8356 H   0  0  0  0  0  0  0  0  0  0  0  0
   40.0755   29.2852   40.1252 H   0  0  0  0  0  0  0  0  0  0  0  0
  1  6  1  0
  1  2  1  0
  2  3  1  0
  2  9  1  0
  4  3  1  0
  5  6  1  0
  5  4  1  0
  7  1  1  0
  8  5  1  0
  9 10  1  0
 10 15  1  0
 11 10  2  0
 11 12  1  0
 12 13  2  0
 13 14  1  0
 15 14  2  0
 16 17  1  0
 16 12  1  0
 16 18  1  0
 17 18  1  0
 19 20  1  0
 19  6  1  0
 21 20  2  0
  1 22  1  6
  2 23  1  6
  4 24  1  0
  4 25  1  0
  5 26  1  1
  6 27  1  1
  7 28  1  0
  8 29  1  0
 11 30  1  0
 14 31  1  0
 16 32  1  0
 17 33  1  0
 17 34  1  0
 18 35  1  0
 18 36  1  0
 37 38  1  0
 38 39  1  0
 39 40  1  0
 40 41  1  0
 41 42  1  0
 42 37  1  0
 37 43  1  0
 38 44  1  0
 38 45  1  0
 39 46  1  0
 39 47  1  0
 40 48  1  0
 40 49  1  0
 41 50  1  0
 41 51  1  0
 42 52  1  0
 42 53  1  0
 20 37  1  0
M  ISO  8  22  13  23  13  24  13  25  13  26  13  27  13  28   3  29   3
M  ISO  7  30  14  31  14  32  13  33  13  34  13  35  13  36  13
M  END
>  <DihAtoms>  (1) 
18,19,36,37

>  <DihDeg>  (1) 
-177.10492084654925

$$$$
