
     RDKit          3D

 34 35  0  0  0  0  0  0  0  0999 V2000
   49.5500   35.3210   42.6600 O   0  0  0  0  0  0  0  0  0  0  0  0
   48.9600   34.2710   41.7760 P   0  0  1  0  0  0  0  0  0  0  0  0
   50.1910   33.2000   41.3790 O   0  0  0  0  0  0  0  0  0  0  0  0
   47.6780   33.4560   42.5650 O   0  0  0  0  0  0  0  0  0  0  0  0
   46.1270   35.2630   42.6100 C   0  0  0  0  0  0  0  0  0  0  0  0
   46.6860   34.1650   43.2450 C   0  0  0  0  0  0  0  0  0  0  0  0
   46.2280   33.8310   44.5200 C   0  0  0  0  0  0  0  0  0  0  0  0
   45.2540   34.6030   45.0740 N   0  0  0  0  0  0  0  0  0  0  0  0
   44.7370   35.6540   44.4340 C   0  0  0  0  0  0  0  0  0  0  0  0
   45.1680   35.9810   43.2170 N   0  0  0  0  0  0  0  0  0  0  0  0
   48.4000   35.0080   40.3860 O   0  0  0  0  0  0  0  0  0  0  0  0
   48.0260   34.3780   39.2460 C   0  0  0  0  0  0  0  0  0  0  0  0
   46.9530   33.6900   39.4190 O   0  0  0  0  0  0  0  0  0  0  0  0
   48.0000   33.9040   37.8360 C   0  0  0  0  0  0  0  0  0  0  0  0
   49.1140   32.8750   37.6510 C   0  0  0  0  0  0  0  0  0  0  0  0
   49.0000   32.4490   36.1970 C   0  0  0  0  0  0  0  0  0  0  0  0
   47.7530   31.5910   36.1060 C   0  0  0  0  0  0  0  0  0  0  0  0
   46.5880   32.5730   36.2420 C   0  0  0  0  0  0  0  0  0  0  0  0
   46.6580   33.3200   37.5260 C   0  0  0  0  0  0  0  0  0  0  0  0
   50.5994   32.8447   42.2079 H   0  0  0  0  0  0  0  0  0  0  0  0
   46.4704   35.5475   41.6045 H   0  0  0  0  0  0  0  0  0  0  0  0
   46.6425   32.9681   45.0619 H   0  0  0  0  0  0  0  0  0  0  0  0
   43.9501   36.2538   44.9147 H   0  0  0  0  0  0  0  0  0  0  0  0
   48.1687   34.7400   37.1412 H   0  0  0  0  0  0  0  0  0  0  0  0
   50.0974   33.3268   37.8479 H   0  0  0  0  0  0  0  0  0  0  0  0
   49.0192   32.0264   38.3444 H   0  0  0  0  0  0  0  0  0  0  0  0
   48.9044   33.3314   35.5472 H   0  0  0  0  0  0  0  0  0  0  0  0
   49.8927   31.8961   35.8694 H   0  0  0  0  0  0  0  0  0  0  0  0
   47.7104   31.0719   35.1371 H   0  0  0  0  0  0  0  0  0  0  0  0
   47.7297   30.8113   36.8815 H   0  0  0  0  0  0  0  0  0  0  0  0
   46.6242   33.2895   35.4082 H   0  0  0  0  0  0  0  0  0  0  0  0
   45.6483   32.0015   36.2236 H   0  0  0  0  0  0  0  0  0  0  0  0
   45.9278   34.1416   37.4849 H   0  0  0  0  0  0  0  0  0  0  0  0
   46.4444   32.5913   38.3219 H   0  0  0  0  0  0  0  0  0  0  0  0
  2  4  1  0
  2  1  2  0
  3  2  1  0
  4  6  1  0
  5 10  2  0
  5  6  1  0
  6  7  2  0
  7  8  1  0
  9  8  2  0
 10  9  1  0
 11  2  1  0
 12 13  2  0
 12 11  1  0
 14 12  1  0
 15 14  1  0
 16 15  1  0
 17 16  1  0
 17 18  1  0
 18 19  1  0
 19 14  1  0
  3 20  1  0
  5 21  1  0
  7 22  1  0
  9 23  1  0
 14 24  1  0
 15 25  1  0
 15 26  1  0
 16 27  1  0
 16 28  1  0
 17 29  1  0
 17 30  1  0
 18 31  1  0
 18 32  1  0
 19 33  1  0
 19 34  1  0
M  ISO  8  20   3  21  14  22  14  23  14  24  13  25  13  26  13  27  13
M  ISO  7  28  13  29  13  30  13  31  13  32  13  33  13  34  13
M  END
>  <minimizedAffinity>  (1) 
-4.58803844

>  <minimizedRMSD>  (1) 
0.22343722

$$$$
