
     RDKit          3D

 42 44  0  0  0  0  0  0  0  0999 V2000
   46.0517   34.3282   41.5358 N   0  0  0  0  0  0  0  0  0  0  0  0
   45.1142   34.0800   40.4855 C   0  0  0  0  0  0  0  0  0  0  0  0
   45.6809   33.2361   39.3823 C   0  0  0  0  0  0  0  0  0  0  0  0
   46.9378   33.6865   38.8680 N   0  0  0  0  0  0  0  0  0  0  0  0
   47.7932   34.2866   39.7934 C   0  0  0  0  0  0  0  0  0  0  0  0
   47.4538   34.2460   41.2300 C   0  0  1  0  0  0  0  0  0  0  0  0
   44.6005   36.0768   44.4869 C   0  0  0  0  0  0  0  0  0  0  0  0
   44.9894   35.8411   43.1706 C   0  0  0  0  0  0  0  0  0  0  0  0
   45.6205   34.6430   42.8399 C   0  0  0  0  0  0  0  0  0  0  0  0
   45.8335   33.7262   43.8566 N   0  0  0  0  0  0  0  0  0  0  0  0
   45.4357   34.0014   45.1260 C   0  0  0  0  0  0  0  0  0  0  0  0
   44.8246   35.1634   45.4459 N   0  0  0  0  0  0  0  0  0  0  0  0
   48.1866   35.2891   41.9694 C   0  0  0  0  0  0  0  0  0  0  0  0
   48.9355   36.0477   41.3907 O   0  0  0  0  0  0  0  0  0  0  0  0
   44.6940   35.0127   40.0658 H   0  0  0  0  0  0  0  0  0  0  0  0
   44.2561   33.5123   40.9180 H   0  0  0  0  0  0  0  0  0  0  0  0
   45.8195   32.2044   39.7657 H   0  0  0  0  0  0  0  0  0  0  0  0
   44.9234   33.1715   38.5784 H   0  0  0  0  0  0  0  0  0  0  0  0
   46.7119   34.3193   38.0494 H   0  0  0  0  0  0  0  0  0  0  0  0
   47.9677   35.3549   39.5153 H   0  0  0  0  0  0  0  0  0  0  0  0
   48.8190   33.8248   39.6907 H   0  0  0  0  0  0  0  0  0  0  0  0
   47.7507   33.2056   41.5806 H   0  0  0  0  0  0  0  0  0  0  0  0
   44.1322   37.0480   44.5537 H   0  0  0  0  0  0  0  0  0  0  0  0
   44.8597   36.4972   42.3317 H   0  0  0  0  0  0  0  0  0  0  0  0
   45.6183   33.2623   45.8944 H   0  0  0  0  0  0  0  0  0  0  0  0
   48.8532   36.2796   42.8230 C   0  0  0  0  0  0  0  0  0  0  0  0
   50.3408   36.4360   42.4998 C   0  0  0  0  0  0  0  0  0  0  0  0
   51.0128   37.2174   43.6179 C   0  0  0  0  0  0  0  0  0  0  0  0
   50.0389   38.1610   44.2887 C   0  0  0  0  0  0  0  0  0  0  0  0
   49.1507   38.7297   43.2122 C   0  0  0  0  0  0  0  0  0  0  0  0
   48.1900   37.6424   42.7756 C   0  0  0  0  0  0  0  0  0  0  0  0
   48.8866   35.9733   43.9028 H   0  0  0  0  0  0  0  0  0  0  0  0
   50.5001   36.9025   41.5296 H   0  0  0  0  0  0  0  0  0  0  0  0
   50.7924   35.4309   42.5218 H   0  0  0  0  0  0  0  0  0  0  0  0
   51.4973   36.5838   44.3638 H   0  0  0  0  0  0  0  0  0  0  0  0
   51.7946   37.8410   43.1379 H   0  0  0  0  0  0  0  0  0  0  0  0
   50.6582   38.9433   44.7793 H   0  0  0  0  0  0  0  0  0  0  0  0
   49.4192   37.5999   44.9945 H   0  0  0  0  0  0  0  0  0  0  0  0
   49.8133   38.9351   42.3280 H   0  0  0  0  0  0  0  0  0  0  0  0
   48.6010   39.6236   43.5321 H   0  0  0  0  0  0  0  0  0  0  0  0
   47.8217   37.9142   41.7803 H   0  0  0  0  0  0  0  0  0  0  0  0
   47.3501   37.6377   43.4837 H   0  0  0  0  0  0  0  0  0  0  0  0
  1  9  1  0
  2  1  1  0
  3  2  1  0
  4  3  1  0
  4  5  1  0
  5  6  1  0
  6  1  1  0
  6 13  1  0
  7 12  2  0
  8  7  1  0
  9  8  2  0
  9 10  1  0
 10 11  2  0
 11 12  1  0
 14 13  2  0
  2 15  1  0
  2 16  1  0
  3 17  1  0
  3 18  1  0
  4 19  1  0
  5 20  1  0
  5 21  1  0
  6 22  1  1
  7 23  1  0
  8 24  1  0
 11 25  1  0
 26 27  1  0
 27 28  1  0
 28 29  1  0
 29 30  1  0
 30 31  1  0
 31 26  1  0
 26 32  1  0
 27 33  1  0
 27 34  1  0
 28 35  1  0
 28 36  1  0
 29 37  1  0
 29 38  1  0
 30 39  1  0
 30 40  1  0
 31 41  1  0
 31 42  1  0
 13 26  1  0
M  ISO  8  15  13  16  13  17  13  18  13  19   5  20  13  21  13  22  13
M  ISO  3  23  14  24  14  25  14
M  END
>  <DihAtoms>  (1) 
5,12,25,26

>  <DihDeg>  (1) 
165.9732163490962

$$$$
