
     RDKit          3D

 25 26  0  0  0  0  0  0  0  0999 V2000
   43.9920   35.3380   41.7710 C   0  0  0  0  0  0  0  0  0  0  0  0
   43.0100   34.7840   41.0970 C   0  0  0  0  0  0  0  0  0  0  0  0
   44.3020   35.7800   44.2150 C   0  0  0  0  0  0  0  0  0  0  0  0
   44.4490   34.9660   43.0960 C   0  0  0  0  0  0  0  0  0  0  0  0
   45.0670   33.7380   43.2730 C   0  0  0  0  0  0  0  0  0  0  0  0
   45.5020   33.3760   44.5180 N   0  0  0  0  0  0  0  0  0  0  0  0
   45.3380   34.2010   45.5830 C   0  0  0  0  0  0  0  0  0  0  0  0
   44.7390   35.3970   45.4190 N   0  0  0  0  0  0  0  0  0  0  0  0
   42.6140   35.2430   39.7330 C   0  0  0  0  0  0  0  0  0  0  0  0
   41.2230   34.8620   39.4100 C   0  0  0  0  0  0  0  0  0  0  0  0
   40.7720   34.7550   38.0980 C   0  0  0  0  0  0  0  0  0  0  0  0
   39.4970   34.4060   37.7420 C   0  0  0  0  0  0  0  0  0  0  0  0
   38.6190   34.1480   38.7190 N   0  0  0  0  0  0  0  0  0  0  0  0
   39.0350   34.2460   40.0070 C   0  0  0  0  0  0  0  0  0  0  0  0
   40.3010   34.5920   40.3600 N   0  0  0  0  0  0  0  0  0  0  0  0
   44.5213   36.1683   41.2806 H   0  0  0  0  0  0  0  0  0  0  0  0
   42.4584   33.9499   41.5553 H   0  0  0  0  0  0  0  0  0  0  0  0
   43.8154   36.7605   44.1065 H   0  0  0  0  0  0  0  0  0  0  0  0
   45.2065   33.0596   42.4184 H   0  0  0  0  0  0  0  0  0  0  0  0
   45.6932   33.8942   46.5778 H   0  0  0  0  0  0  0  0  0  0  0  0
   42.7037   36.3383   39.6855 H   0  0  0  0  0  0  0  0  0  0  0  0
   43.2799   34.7607   39.0023 H   0  0  0  0  0  0  0  0  0  0  0  0
   41.4895   34.9654   37.2912 H   0  0  0  0  0  0  0  0  0  0  0  0
   39.2027   34.3395   36.6842 H   0  0  0  0  0  0  0  0  0  0  0  0
   38.3100   34.0344   40.8067 H   0  0  0  0  0  0  0  0  0  0  0  0
  1  4  1  0
  2  1  2  0
  3  8  2  0
  4  5  2  0
  4  3  1  0
  5  6  1  0
  6  7  2  0
  8  7  1  0
  9  2  1  0
 10  9  1  0
 10 15  1  0
 11 10  2  0
 12 11  1  0
 12 13  2  0
 13 14  1  0
 14 15  2  0
  1 16  1  0
  2 17  1  0
  3 18  1  0
  5 19  1  0
  7 20  1  0
  9 21  1  0
  9 22  1  0
 11 23  1  0
 12 24  1  0
 14 25  1  0
M  ISO  8  18  14  19  14  20  14  21   8  22   8  23  14  24  14  25  14
M  END
>  <minimizedAffinity>  (1) 
-4.63731003

>  <minimizedRMSD>  (1) 
1.25066745

$$$$
