
     RDKit          3D

 41 44  0  0  0  0  0  0  0  0999 V2000
   45.1224   33.9428   40.7010 C   0  0  0  0  0  0  0  0  0  0  0  0
   44.0823   33.6342   39.8748 C   0  0  0  0  0  0  0  0  0  0  0  0
   44.3817   33.1554   38.6398 C   0  0  0  0  0  0  0  0  0  0  0  0
   45.6609   32.9642   38.1751 C   0  0  0  0  0  0  0  0  0  0  0  0
   46.6901   33.2820   39.0252 C   0  0  0  0  0  0  0  0  0  0  0  0
   46.4409   33.7716   40.2893 C   0  0  0  0  0  0  0  0  0  0  0  0
   40.7988   35.2633   40.7870 C   0  0  0  0  0  0  0  0  0  0  0  0
   42.0946   35.0893   40.2725 C   0  0  0  0  0  0  0  0  0  0  0  0
   42.7479   33.8469   40.3937 C   0  0  0  0  0  0  0  0  0  0  0  0
   42.0319   32.8854   41.0266 N   0  0  0  0  0  0  0  0  0  0  0  0
   40.8101   33.0611   41.5079 C   0  0  0  0  0  0  0  0  0  0  0  0
   40.1894   34.2410   41.3929 N   0  0  0  0  0  0  0  0  0  0  0  0
   40.1925   36.5240   40.6390 N   0  0  0  0  0  0  0  0  0  0  0  0
   47.5991   34.0780   41.1128 C   0  0  0  0  0  0  0  0  0  0  0  0
   48.1331   35.3363   40.9553 C   0  0  0  0  0  0  0  0  0  0  0  0
   49.2418   35.8031   41.6602 C   0  0  0  0  0  0  0  0  0  0  0  0
   49.8250   34.9409   42.5638 C   0  0  0  0  0  0  0  0  0  0  0  0
   49.3094   33.6753   42.7403 C   0  0  0  0  0  0  0  0  0  0  0  0
   48.2068   33.2373   42.0267 C   0  0  0  0  0  0  0  0  0  0  0  0
   44.7199   34.8665   43.1070 N   0  0  0  0  0  0  0  0  0  0  0  0
   44.9065   34.4585   42.0339 C   0  0  0  0  0  0  0  0  0  0  0  0
   43.5484   32.9067   37.9741 H   0  0  0  0  0  0  0  0  0  0  0  0
   45.8708   32.5853   37.1972 H   0  0  0  0  0  0  0  0  0  0  0  0
   47.7116   33.1359   38.6712 H   0  0  0  0  0  0  0  0  0  0  0  0
   42.6131   35.8933   39.7786 H   0  0  0  0  0  0  0  0  0  0  0  0
   40.2874   32.2519   42.0054 H   0  0  0  0  0  0  0  0  0  0  0  0
   39.6912   37.1016   41.3504 H   0  0  0  0  0  0  0  0  0  0  0  0
   40.2132   37.0010   39.7105 H   0  0  0  0  0  0  0  0  0  0  0  0
   47.7077   36.0553   40.2528 H   0  0  0  0  0  0  0  0  0  0  0  0
   49.6209   36.7992   41.4989 H   0  0  0  0  0  0  0  0  0  0  0  0
   50.6981   35.2367   43.1534 H   0  0  0  0  0  0  0  0  0  0  0  0
   49.7387   32.9626   43.4430 H   0  0  0  0  0  0  0  0  0  0  0  0
   47.6030   31.9050   42.1613 C   0  0  0  0  0  0  0  0  0  0  0  0
   47.7946   31.3820   43.4434 C   0  0  0  0  0  0  0  0  0  0  0  0
   47.3023   30.1214   43.7973 C   0  0  0  0  0  0  0  0  0  0  0  0
   47.4554   29.7218   44.7959 H   0  0  0  0  0  0  0  0  0  0  0  0
   46.6270   29.3915   42.8830 N   0  0  0  0  0  0  0  0  0  0  0  0
   46.4812   29.9583   41.6712 C   0  0  0  0  0  0  0  0  0  0  0  0
   46.9337   31.1677   41.2745 N   0  0  0  0  0  0  0  0  0  0  0  0
   48.3287   31.8929   44.2594 H   0  0  0  0  0  0  0  0  0  0  0  0
   45.9432   29.4198   40.8824 H   0  0  0  0  0  0  0  0  0  0  0  0
  1 21  1  0
  2  9  1  0
  2  1  2  0
  3  2  1  0
  4  3  2  0
  4  5  1  0
  5  6  2  0
  6  1  1  0
  6 14  1  0
  7 12  2  0
  8  9  2  0
  8  7  1  0
  9 10  1  0
 10 11  2  0
 12 11  1  0
 13  7  1  0
 14 19  1  0
 15 14  2  0
 15 16  1  0
 16 17  2  0
 17 18  1  0
 19 18  2  0
 21 20  3  0
  3 22  1  0
  4 23  1  0
  5 24  1  0
  8 25  1  0
 11 26  1  0
 13 27  1  0
 13 28  1  0
 15 29  1  0
 16 30  1  0
 17 31  1  0
 18 32  1  0
 33 34  2  0
 34 35  1  0
 35 36  1  0
 35 37  2  0
 37 38  1  0
 38 39  2  0
 39 33  1  0
 34 40  1  0
 38 41  1  0
 19 33  1  0
M  ISO  8  22  14  23  14  24  14  25  14  26  14  29  14  30  14  31  14
M  ISO  2  32  14  36  14
M  END
>  <DihAtoms>  (1) 
13,18,32,33

>  <DihDeg>  (1) 
118.750857768694

$$$$
