
     RDKit          3D

 34 36  0  0  0  0  0  0  0  0999 V2000
   46.8496   34.8773   42.6979 C   0  0  0  0  0  0  0  0  0  0  0  0
   48.0463   34.5643   42.0746 C   0  0  0  0  0  0  0  0  0  0  0  0
   48.7529   33.4757   42.6054 C   0  0  0  0  0  0  0  0  0  0  0  0
   48.2322   32.8074   43.6764 N   0  0  0  0  0  0  0  0  0  0  0  0
   47.0607   33.1559   44.2446 C   0  0  0  0  0  0  0  0  0  0  0  0
   46.3807   34.1931   43.7443 N   0  0  0  0  0  0  0  0  0  0  0  0
   45.9775   30.3815   43.6019 Cl  0  0  0  0  0  0  0  0  0  0  0  0
   46.0522   31.1318   45.1892 C   0  0  0  0  0  0  0  0  0  0  0  0
   46.5634   32.4014   45.3831 C   0  0  0  0  0  0  0  0  0  0  0  0
   46.6145   32.9778   46.6435 C   0  0  0  0  0  0  0  0  0  0  0  0
   46.1337   32.2409   47.7234 C   0  0  0  0  0  0  0  0  0  0  0  0
   45.6336   30.9838   47.4922 C   0  0  0  0  0  0  0  0  0  0  0  0
   45.0413   30.0961   48.8786 Cl  0  0  0  0  0  0  0  0  0  0  0  0
   45.5729   30.3917   46.2508 C   0  0  0  0  0  0  0  0  0  0  0  0
   48.5246   35.3183   40.9515 C   0  0  0  0  0  0  0  0  0  0  0  0
   48.1639   34.5729   39.6657 C   0  0  0  0  0  0  0  0  0  0  0  0
   46.2238   35.6993   42.3692 H   0  0  0  0  0  0  0  0  0  0  0  0
   49.6827   33.2071   42.1465 H   0  0  0  0  0  0  0  0  0  0  0  0
   47.0104   33.9718   46.8226 H   0  0  0  0  0  0  0  0  0  0  0  0
   46.1676   32.6809   48.7184 H   0  0  0  0  0  0  0  0  0  0  0  0
   45.1671   29.3927   46.1212 H   0  0  0  0  0  0  0  0  0  0  0  0
   48.1725   36.3483   40.9263 H   0  0  0  0  0  0  0  0  0  0  0  0
   49.6485   35.3893   41.0375 H   0  0  0  0  0  0  0  0  0  0  0  0
   48.6161   33.5827   39.6324 H   0  0  0  0  0  0  0  0  0  0  0  0
   47.0557   34.5665   39.6240 H   0  0  0  0  0  0  0  0  0  0  0  0
   48.7032   35.4364   38.5552 C   0  0  0  0  0  0  0  0  0  0  0  0
   49.3684   36.6309   38.7514 C   0  0  0  0  0  0  0  0  0  0  0  0
   49.8232   37.3456   37.6471 C   0  0  0  0  0  0  0  0  0  0  0  0
   50.3473   38.2866   37.7992 H   0  0  0  0  0  0  0  0  0  0  0  0
   49.6293   36.8966   36.3732 N   0  0  0  0  0  0  0  0  0  0  0  0
   48.9761   35.7277   36.2287 C   0  0  0  0  0  0  0  0  0  0  0  0
   48.5149   34.9973   37.2771 N   0  0  0  0  0  0  0  0  0  0  0  0
   49.5085   36.9630   39.7648 H   0  0  0  0  0  0  0  0  0  0  0  0
   48.8507   35.4197   35.1889 H   0  0  0  0  0  0  0  0  0  0  0  0
  1  6  2  0
  2  3  2  0
  2  1  1  0
  3  4  1  0
  4  5  2  0
  5  9  1  0
  6  5  1  0
  7  8  1  0
  8  9  2  0
  8 14  1  0
  9 10  1  0
 10 11  2  0
 12 11  1  0
 12 13  1  0
 14 12  2  0
 15  2  1  0
 16 15  1  0
  1 17  1  0
  3 18  1  0
 10 19  1  0
 11 20  1  0
 14 21  1  0
 15 22  1  0
 15 23  1  0
 16 24  1  0
 16 25  1  0
 26 27  2  0
 27 28  1  0
 28 29  1  0
 28 30  2  0
 30 31  1  0
 31 32  2  0
 32 26  1  0
 27 33  1  0
 31 34  1  0
 16 26  1  0
M  ISO  8  17  14  18  14  19  14  20  14  21  14  22   8  23   8  24   8
M  ISO  2  25   8  29  14
M  END
>  <DihAtoms>  (1) 
14,15,25,26

>  <DihDeg>  (1) 
-89.99785988346936

$$$$
