
     RDKit          3D

 40 44  0  0  1  0  0  0  0  0999 V2000
   46.6710   33.4640   41.4150 C   0  0  1  0  0  0  0  0  0  0  0  0
   47.4980   34.6230   41.1520 C   0  0  0  0  0  0  0  0  0  0  0  0
   48.0560   33.2640   40.8200 C   0  0  2  0  0  0  0  0  0  0  0  0
   48.0810   32.9000   39.3780 C   0  0  0  0  0  0  0  0  0  0  0  0
   49.2030   32.4670   38.7060 C   0  0  0  0  0  0  0  0  0  0  0  0
   49.1630   32.1350   37.3670 C   0  0  0  0  0  0  0  0  0  0  0  0
   47.9680   32.2340   36.6680 C   0  0  0  0  0  0  0  0  0  0  0  0
   47.8690   31.9210   35.3470 N   0  0  0  0  0  0  0  0  0  0  0  0
   46.7010   32.0210   34.6860 C   0  0  0  0  0  0  0  0  0  0  0  0
   45.5100   32.4500   35.2960 C   0  0  0  0  0  0  0  0  0  0  0  0
   45.5830   32.7760   36.6420 C   0  0  0  0  0  0  0  0  0  0  0  0
   46.7980   32.6660   37.3000 C   0  0  0  0  0  0  0  0  0  0  0  0
   46.9110   32.9830   38.6410 C   0  0  0  0  0  0  0  0  0  0  0  0
   46.7610   33.8080   43.9090 C   0  0  0  0  0  0  0  0  0  0  0  0
   46.4470   32.9720   42.8040 C   0  0  0  0  0  0  0  0  0  0  0  0
   45.9370   31.7160   43.0650 C   0  0  0  0  0  0  0  0  0  0  0  0
   45.7690   31.3650   44.3710 N   0  0  0  0  0  0  0  0  0  0  0  0
   46.0700   32.1670   45.4040 C   0  0  0  0  0  0  0  0  0  0  0  0
   46.5710   33.4000   45.1690 N   0  0  0  0  0  0  0  0  0  0  0  0
   45.8690   31.7370   46.7660 C   0  0  0  0  0  0  0  0  0  0  0  0
   45.4970   30.4530   47.0670 C   0  0  0  0  0  0  0  0  0  0  0  0
   45.2900   29.9880   48.3700 C   0  0  0  0  0  0  0  0  0  0  0  0
   45.4700   30.8670   49.3930 N   0  0  0  0  0  0  0  0  0  0  0  0
   45.8400   32.1360   49.0550 C   0  0  0  0  0  0  0  0  0  0  0  0
   46.0410   32.5830   47.7990 N   0  0  0  0  0  0  0  0  0  0  0  0
   45.6396   33.2016   41.1370 H   0  0  0  0  0  0  0  0  0  0  0  0
   47.2259   35.3132   40.3399 H   0  0  0  0  0  0  0  0  0  0  0  0
   47.8500   35.4677   41.7624 H   0  0  0  0  0  0  0  0  0  0  0  0
   48.9634   32.6977   41.0767 H   0  0  0  0  0  0  0  0  0  0  0  0
   50.1551   32.3838   39.2506 H   0  0  0  0  0  0  0  0  0  0  0  0
   50.0749   31.7932   36.8556 H   0  0  0  0  0  0  0  0  0  0  0  0
   46.6776   31.7546   33.6190 H   0  0  0  0  0  0  0  0  0  0  0  0
   44.5672   32.5235   34.7341 H   0  0  0  0  0  0  0  0  0  0  0  0
   44.6872   33.1179   37.1811 H   0  0  0  0  0  0  0  0  0  0  0  0
   46.0047   33.3266   39.1612 H   0  0  0  0  0  0  0  0  0  0  0  0
   47.1692   34.8127   43.7246 H   0  0  0  0  0  0  0  0  0  0  0  0
   45.6762   31.0249   42.2499 H   0  0  0  0  0  0  0  0  0  0  0  0
   45.3528   29.7470   46.2359 H   0  0  0  0  0  0  0  0  0  0  0  0
   44.9917   28.9466   48.5612 H   0  0  0  0  0  0  0  0  0  0  0  0
   45.9865   32.8540   49.8754 H   0  0  0  0  0  0  0  0  0  0  0  0
  1 15  1  0
  2  1  1  0
  3  2  1  0
  3  1  1  0
  4  3  1  0
  5  4  2  0
  6  5  1  0
  7 12  1  0
  7  6  2  0
  8  7  1  0
  9 10  1  0
  9  8  2  0
 10 11  2  0
 11 12  1  0
 12 13  2  0
 13  4  1  0
 14 19  2  0
 15 16  2  0
 15 14  1  0
 16 17  1  0
 17 18  2  0
 18 20  1  0
 19 18  1  0
 20 21  2  0
 20 25  1  0
 21 22  1  0
 22 23  2  0
 24 23  1  0
 25 24  2  0
  1 26  1  6
  2 27  1  0
  2 28  1  0
  3 29  1  1
  5 30  1  0
  6 31  1  0
  9 32  1  0
 10 33  1  0
 11 34  1  0
 13 35  1  0
 14 36  1  0
 16 37  1  0
 21 38  1  0
 22 39  1  0
 24 40  1  0
M  ISO  8  26  13  27  13  28  13  29  13  30  14  31  14  32  14  33  14
M  ISO  7  34  14  35  14  36  14  37  14  38  14  39  14  40  14
M  END
>  <minimizedAffinity>  (1) 
-5.31658602

>  <minimizedRMSD>  (1) 
4.29137087

$$$$
