
     RDKit          3D

 36 38  0  0  0  0  0  0  0  0999 V2000
   46.1530   32.5820   46.9180 C   0  0  0  0  0  0  0  0  0  0  0  0
   45.2940   32.6550   47.9560 C   0  0  0  0  0  0  0  0  0  0  0  0
   45.4840   31.8220   49.0460 C   0  0  0  0  0  0  0  0  0  0  0  0
   46.5540   30.9260   49.0570 C   0  0  0  0  0  0  0  0  0  0  0  0
   47.4170   30.8870   47.9600 C   0  0  0  0  0  0  0  0  0  0  0  0
   47.1800   31.6950   46.9690 N   0  0  0  0  0  0  0  0  0  0  0  0
   44.9210   35.0460   44.5120 C   0  0  0  0  0  0  0  0  0  0  0  0
   45.8830   34.9290   43.4850 C   0  0  0  0  0  0  0  0  0  0  0  0
   46.9470   34.0130   43.6110 C   0  0  0  0  0  0  0  0  0  0  0  0
   46.9590   33.2990   44.7480 N   0  0  0  0  0  0  0  0  0  0  0  0
   46.0450   33.4140   45.7160 C   0  0  0  0  0  0  0  0  0  0  0  0
   45.0310   34.2890   45.5920 N   0  0  0  0  0  0  0  0  0  0  0  0
   43.8690   35.9740   44.3510 N   0  0  0  0  0  0  0  0  0  0  0  0
   48.5350   29.9650   47.9490 C   0  0  0  0  0  0  0  0  0  0  0  0
   49.6150   30.1150   48.7140 C   0  0  0  0  0  0  0  0  0  0  0  0
   49.7660   31.2480   49.6480 C   0  0  0  0  0  0  0  0  0  0  0  0
   50.4720   30.9340   50.8930 C   0  0  0  0  0  0  0  0  0  0  0  0
   51.2120   31.8320   51.6370 C   0  0  0  0  0  0  0  0  0  0  0  0
   51.7960   31.3250   52.7800 C   0  0  0  0  0  0  0  0  0  0  0  0
   51.6820   30.0510   53.1860 N   0  0  0  0  0  0  0  0  0  0  0  0
   50.9580   29.2050   52.4430 C   0  0  0  0  0  0  0  0  0  0  0  0
   50.3750   29.6570   51.3270 N   0  0  0  0  0  0  0  0  0  0  0  0
   44.4548   33.3659   47.9367 H   0  0  0  0  0  0  0  0  0  0  0  0
   44.7933   31.8665   49.9009 H   0  0  0  0  0  0  0  0  0  0  0  0
   46.7152   30.2601   49.9176 H   0  0  0  0  0  0  0  0  0  0  0  0
   45.8019   35.5546   42.5839 H   0  0  0  0  0  0  0  0  0  0  0  0
   47.7141   33.8916   42.8320 H   0  0  0  0  0  0  0  0  0  0  0  0
   43.8141   36.5473   43.4970 H   0  0  0  0  0  0  0  0  0  0  0  0
   43.1565   36.0777   45.0875 H   0  0  0  0  0  0  0  0  0  0  0  0
   48.4894   29.0972   47.2746 H   0  0  0  0  0  0  0  0  0  0  0  0
   50.4213   29.3697   48.6475 H   0  0  0  0  0  0  0  0  0  0  0  0
   50.3223   32.0442   49.1316 H   0  0  0  0  0  0  0  0  0  0  0  0
   48.7475   31.5449   49.9385 H   0  0  0  0  0  0  0  0  0  0  0  0
   51.3284   32.8841   51.3376 H   0  0  0  0  0  0  0  0  0  0  0  0
   52.3941   32.0101   53.3988 H   0  0  0  0  0  0  0  0  0  0  0  0
   50.8441   28.1536   52.7456 H   0  0  0  0  0  0  0  0  0  0  0  0
  1  6  1  0
  1  2  2  0
  2  3  1  0
  3  4  2  0
  5  4  1  0
  6  5  2  0
  7 12  2  0
  8  9  2  0
  8  7  1  0
  9 10  1  0
 10 11  2  0
 11  1  1  0
 12 11  1  0
 13  7  1  0
 14  5  1  0
 14 15  2  0
 15 16  1  0
 16 17  1  0
 17 22  1  0
 17 18  2  0
 18 19  1  0
 19 20  2  0
 21 20  1  0
 22 21  2  0
  2 23  1  0
  3 24  1  0
  4 25  1  0
  8 26  1  0
  9 27  1  0
 13 28  1  0
 13 29  1  0
 14 30  1  0
 15 31  1  0
 16 32  1  0
 16 33  1  0
 18 34  1  0
 19 35  1  0
 21 36  1  0
M  ISO  8  23  14  24  14  25  14  26  14  27  14  32   8  33   8  34  14
M  ISO  2  35  14  36  14
M  END
>  <minimizedAffinity>  (1) 
-6.7282443

>  <minimizedRMSD>  (1) 
0.684885204

$$$$
