
     RDKit          3D

 40 42  0  0  1  0  0  0  0  0999 V2000
   46.2360   31.0590   44.1240 C   0  0  2  0  0  0  0  0  0  0  0  0
   45.2930   30.4710   43.0920 C   0  0  0  0  0  0  0  0  0  0  0  0
   45.3660   28.9580   43.3180 C   0  0  0  0  0  0  0  0  0  0  0  0
   44.5870   28.7530   44.5950 C   0  0  0  0  0  0  0  0  0  0  0  0
   45.2630   29.4340   45.7220 C   0  0  0  0  0  0  0  0  0  0  0  0
   45.6850   30.8560   45.4980 C   0  0  1  0  0  0  0  0  0  0  0  0
   47.7500   34.2300   42.8020 C   0  0  0  0  0  0  0  0  0  0  0  0
   47.6360   32.8600   43.1040 C   0  0  0  0  0  0  0  0  0  0  0  0
   46.4550   32.4460   43.7550 C   0  0  0  0  0  0  0  0  0  0  0  0
   45.5120   33.3910   44.0450 N   0  0  0  0  0  0  0  0  0  0  0  0
   45.6640   34.6800   43.7380 C   0  0  0  0  0  0  0  0  0  0  0  0
   46.7850   35.1050   43.1140 N   0  0  0  0  0  0  0  0  0  0  0  0
   49.0090   34.6490   42.1110 C   0  0  0  0  0  0  0  0  0  0  0  0
   49.5830   33.5940   41.4270 F   0  0  0  0  0  0  0  0  0  0  0  0
   48.7020   35.7110   41.2510 F   0  0  0  0  0  0  0  0  0  0  0  0
   49.8980   35.1760   43.0410 F   0  0  0  0  0  0  0  0  0  0  0  0
   44.6040   35.6720   44.0830 C   0  0  0  0  0  0  0  0  0  0  0  0
   43.5210   35.5420   43.2720 F   0  0  0  0  0  0  0  0  0  0  0  0
   45.1320   36.9800   44.0140 F   0  0  0  0  0  0  0  0  0  0  0  0
   44.2220   35.5620   45.4000 F   0  0  0  0  0  0  0  0  0  0  0  0
   46.6360   31.1640   46.5760 C   0  0  0  0  0  0  0  0  0  0  0  0
   46.7360   32.3330   47.3070 C   0  0  0  0  0  0  0  0  0  0  0  0
   47.6810   32.4900   48.3000 C   0  0  0  0  0  0  0  0  0  0  0  0
   48.5460   31.4860   48.5830 N   0  0  0  0  0  0  0  0  0  0  0  0
   48.4430   30.3440   47.8640 C   0  0  0  0  0  0  0  0  0  0  0  0
   47.5160   30.1650   46.8790 N   0  0  0  0  0  0  0  0  0  0  0  0
   47.2141   30.5561   44.1416 H   0  0  0  0  0  0  0  0  0  0  0  0
   45.6224   30.7278   42.0744 H   0  0  0  0  0  0  0  0  0  0  0  0
   44.2687   30.8587   43.1946 H   0  0  0  0  0  0  0  0  0  0  0  0
   44.9018   28.4131   42.4828 H   0  0  0  0  0  0  0  0  0  0  0  0
   46.3986   28.5842   43.3820 H   0  0  0  0  0  0  0  0  0  0  0  0
   43.5755   29.1679   44.4740 H   0  0  0  0  0  0  0  0  0  0  0  0
   44.5282   27.6759   44.8102 H   0  0  0  0  0  0  0  0  0  0  0  0
   44.5739   29.4225   46.5793 H   0  0  0  0  0  0  0  0  0  0  0  0
   46.1989   28.8768   45.8753 H   0  0  0  0  0  0  0  0  0  0  0  0
   44.8353   31.5533   45.5408 H   0  0  0  0  0  0  0  0  0  0  0  0
   48.4309   32.1453   42.8444 H   0  0  0  0  0  0  0  0  0  0  0  0
   46.0437   33.1601   47.0913 H   0  0  0  0  0  0  0  0  0  0  0  0
   47.7324   33.4332   48.8637 H   0  0  0  0  0  0  0  0  0  0  0  0
   49.1394   29.5215   48.0841 H   0  0  0  0  0  0  0  0  0  0  0  0
  1  6  1  0
  2  3  1  0
  2  1  1  0
  3  4  1  0
  4  5  1  0
  6  5  1  0
  6 21  1  0
  7  8  2  0
  7 12  1  0
  8  9  1  0
  9 10  2  0
  9  1  1  0
 11 10  1  0
 11 17  1  0
 12 11  2  0
 13  7  1  0
 13 16  1  0
 14 13  1  0
 15 13  1  0
 17 20  1  0
 18 17  1  0
 19 17  1  0
 21 26  1  0
 21 22  2  0
 22 23  1  0
 23 24  2  0
 25 24  1  0
 26 25  2  0
  1 27  1  1
  2 28  1  0
  2 29  1  0
  3 30  1  0
  3 31  1  0
  4 32  1  0
  4 33  1  0
  5 34  1  0
  5 35  1  0
  6 36  1  1
  8 37  1  0
 22 38  1  0
 23 39  1  0
 25 40  1  0
M  ISO  8  27  13  28  13  29  13  30  13  31  13  32  13  33  13  34  13
M  ISO  6  35  13  36  13  37  14  38  14  39  14  40  14
M  END
>  <minimizedAffinity>  (1) 
-5.89759493

>  <minimizedRMSD>  (1) 
2.15799594

$$$$
