
     RDKit          3D

 33 35  0  0  0  0  0  0  0  0999 V2000
   47.2880   33.9300   39.4130 C   0  0  0  0  0  0  0  0  0  0  0  0
   46.2040   33.4120   39.8770 O   0  0  0  0  0  0  0  0  0  0  0  0
   47.4320   33.4290   38.0420 C   0  0  0  0  0  0  0  0  0  0  0  0
   46.4650   32.7460   37.2540 C   0  0  0  0  0  0  0  0  0  0  0  0
   46.8770   32.3880   36.0070 C   0  0  0  0  0  0  0  0  0  0  0  0
   48.1110   32.6600   35.5510 C   0  0  0  0  0  0  0  0  0  0  0  0
   48.8840   33.5590   37.0420 S   0  0  0  0  0  0  0  0  0  0  0  0
   48.8260   32.4370   34.3610 C   0  0  0  0  0  0  0  0  0  0  0  0
   49.7840   31.4470   34.4160 C   0  0  0  0  0  0  0  0  0  0  0  0
   50.5310   31.1720   33.2720 C   0  0  0  0  0  0  0  0  0  0  0  0
   50.2740   31.8950   32.1720 N   0  0  0  0  0  0  0  0  0  0  0  0
   49.3170   32.8660   32.1610 C   0  0  0  0  0  0  0  0  0  0  0  0
   48.5650   33.1640   33.2590 N   0  0  0  0  0  0  0  0  0  0  0  0
   47.8830   34.7230   40.3210 O   0  0  0  0  0  0  0  0  0  0  0  0
   49.3230   35.4690   42.3240 O   0  0  0  0  0  0  0  0  0  0  0  0
   48.7150   34.2610   41.6820 P   0  0  2  0  0  0  0  0  0  0  0  0
   49.9640   33.2420   41.2320 O   0  0  0  0  0  0  0  0  0  0  0  0
   47.6360   33.4830   42.7760 O   0  0  0  0  0  0  0  0  0  0  0  0
   46.1050   35.3130   42.7690 C   0  0  0  0  0  0  0  0  0  0  0  0
   46.6320   34.1980   43.4220 C   0  0  0  0  0  0  0  0  0  0  0  0
   46.1400   33.8480   44.6800 C   0  0  0  0  0  0  0  0  0  0  0  0
   45.1510   34.6340   45.2090 N   0  0  0  0  0  0  0  0  0  0  0  0
   44.6590   35.7030   44.5600 C   0  0  0  0  0  0  0  0  0  0  0  0
   45.1370   36.0290   43.3550 N   0  0  0  0  0  0  0  0  0  0  0  0
   45.4543   32.5225   37.6263 H   0  0  0  0  0  0  0  0  0  0  0  0
   46.1739   31.8566   35.3487 H   0  0  0  0  0  0  0  0  0  0  0  0
   49.9556   30.8846   35.3456 H   0  0  0  0  0  0  0  0  0  0  0  0
   51.3041   30.3895   33.2713 H   0  0  0  0  0  0  0  0  0  0  0  0
   49.1451   33.4298   31.2323 H   0  0  0  0  0  0  0  0  0  0  0  0
   50.4047   32.8824   42.0423 H   0  0  0  0  0  0  0  0  0  0  0  0
   46.4831   35.6024   41.7774 H   0  0  0  0  0  0  0  0  0  0  0  0
   46.5307   32.9760   45.2249 H   0  0  0  0  0  0  0  0  0  0  0  0
   43.8642   36.3088   45.0197 H   0  0  0  0  0  0  0  0  0  0  0  0
  1  2  2  0
  1 14  1  0
  3  1  1  0
  4  3  2  0
  5  4  1  0
  6  5  2  0
  6  7  1  0
  7  3  1  0
  8  9  2  0
  8  6  1  0
 10  9  1  0
 11 10  2  0
 12 11  1  0
 12 13  2  0
 13  8  1  0
 14 16  1  0
 16 15  2  0
 16 18  1  0
 17 16  1  0
 18 20  1  0
 19 24  2  0
 19 20  1  0
 20 21  2  0
 21 22  1  0
 23 22  2  0
 24 23  1  0
  4 25  1  0
  5 26  1  0
  9 27  1  0
 10 28  1  0
 12 29  1  0
 17 30  1  0
 19 31  1  0
 21 32  1  0
 23 33  1  0
M  ISO  8  25  14  26  14  27  14  28  14  29  14  30   3  31  14  32  14
M  ISO  1  33  14
M  END
>  <minimizedAffinity>  (1) 
-5.43988276

>  <minimizedRMSD>  (1) 
2.02742553

$$$$
