
     RDKit          3D

 28 30  0  0  0  0  0  0  0  0999 V2000
   47.3350   33.8910   39.7650 C   0  0  0  0  0  0  0  0  0  0  0  0
   48.3210   34.6600   39.1780 C   0  0  0  0  0  0  0  0  0  0  0  0
   48.3370   34.3660   37.8290 C   0  0  0  0  0  0  0  0  0  0  0  0
   47.3460   33.4160   37.6440 C   0  0  0  0  0  0  0  0  0  0  0  0
   46.7820   33.1670   38.8090 O   0  0  0  0  0  0  0  0  0  0  0  0
   47.0130   32.8170   36.3550 C   0  0  0  0  0  0  0  0  0  0  0  0
   48.0100   32.4260   35.4640 C   0  0  0  0  0  0  0  0  0  0  0  0
   47.5780   31.8710   34.2770 C   0  0  0  0  0  0  0  0  0  0  0  0
   46.2870   31.6930   33.9430 N   0  0  0  0  0  0  0  0  0  0  0  0
   45.3630   32.0950   34.8530 C   0  0  0  0  0  0  0  0  0  0  0  0
   45.6950   32.6470   36.0410 N   0  0  0  0  0  0  0  0  0  0  0  0
   46.8890   33.7860   41.0880 O   0  0  0  0  0  0  0  0  0  0  0  0
   47.2040   34.7870   42.0210 C   0  0  0  0  0  0  0  0  0  0  0  0
   48.1840   35.5280   41.7470 O   0  0  0  0  0  0  0  0  0  0  0  0
   46.3610   34.8420   43.1760 C   0  0  0  0  0  0  0  0  0  0  0  0
   45.4870   35.9040   43.1600 C   0  0  0  0  0  0  0  0  0  0  0  0
   44.6180   36.0300   44.2690 C   0  0  0  0  0  0  0  0  0  0  0  0
   44.7000   35.1120   45.2590 N   0  0  0  0  0  0  0  0  0  0  0  0
   45.5830   34.0950   45.2090 C   0  0  0  0  0  0  0  0  0  0  0  0
   46.4180   33.9590   44.1610 N   0  0  0  0  0  0  0  0  0  0  0  0
   48.9761   35.3780   39.6930 H   0  0  0  0  0  0  0  0  0  0  0  0
   48.9980   34.7960   37.0621 H   0  0  0  0  0  0  0  0  0  0  0  0
   49.0784   32.5523   35.6933 H   0  0  0  0  0  0  0  0  0  0  0  0
   48.3424   31.5518   33.5533 H   0  0  0  0  0  0  0  0  0  0  0  0
   44.2974   31.9657   34.6127 H   0  0  0  0  0  0  0  0  0  0  0  0
   45.4649   36.6204   42.3255 H   0  0  0  0  0  0  0  0  0  0  0  0
   43.8927   36.8551   44.3250 H   0  0  0  0  0  0  0  0  0  0  0  0
   45.6222   33.3678   46.0334 H   0  0  0  0  0  0  0  0  0  0  0  0
  1 12  1  0
  2  1  2  0
  3  2  1  0
  4  3  2  0
  4  5  1  0
  5  1  1  0
  6  4  1  0
  7  6  2  0
  8  7  1  0
  9  8  2  0
  9 10  1  0
 10 11  2  0
 11  6  1  0
 12 13  1  0
 13 15  1  0
 14 13  2  0
 15 20  1  0
 16 15  2  0
 16 17  1  0
 17 18  2  0
 19 18  1  0
 20 19  2  0
  2 21  1  0
  3 22  1  0
  7 23  1  0
  8 24  1  0
 10 25  1  0
 16 26  1  0
 17 27  1  0
 19 28  1  0
M  ISO  8  21  14  22  14  23  14  24  14  25  14  26  14  27  14  28  14
M  END
>  <minimizedAffinity>  (1) 
-5.11107159

>  <minimizedRMSD>  (1) 
0.83224529

$$$$
