
     RDKit          3D

 33 35  0  0  1  0  0  0  0  0999 V2000
   46.8370   34.5940   42.3150 N   0  0  0  0  0  0  0  0  0  0  0  0
   48.2940   34.6220   42.3600 C   0  0  0  0  0  0  0  0  0  0  0  0
   48.7150   35.4040   41.1020 C   0  0  0  0  0  0  0  0  0  0  0  0
   48.2920   34.7210   39.8460 C   0  0  0  0  0  0  0  0  0  0  0  0
   47.0340   33.9390   39.9560 C   0  0  0  0  0  0  0  0  0  0  0  0
   46.1380   34.3550   41.0860 C   0  0  1  0  0  0  0  0  0  0  0  0
   44.4710   36.0170   44.8280 C   0  0  0  0  0  0  0  0  0  0  0  0
   45.1890   35.9030   43.6300 C   0  0  0  0  0  0  0  0  0  0  0  0
   46.0650   34.8000   43.4860 C   0  0  0  0  0  0  0  0  0  0  0  0
   46.1560   33.9210   44.5230 N   0  0  0  0  0  0  0  0  0  0  0  0
   45.4340   34.0760   45.6730 C   0  0  0  0  0  0  0  0  0  0  0  0
   44.6030   35.1200   45.8080 N   0  0  0  0  0  0  0  0  0  0  0  0
   45.0270   33.4020   41.1750 C   0  0  0  0  0  0  0  0  0  0  0  0
   43.7080   33.7790   40.9180 C   0  0  0  0  0  0  0  0  0  0  0  0
   42.6110   32.9360   40.9820 C   0  0  0  0  0  0  0  0  0  0  0  0
   42.8270   31.6640   41.3130 N   0  0  0  0  0  0  0  0  0  0  0  0
   44.0890   31.2720   41.5650 C   0  0  0  0  0  0  0  0  0  0  0  0
   45.1740   32.0900   41.5060 N   0  0  0  0  0  0  0  0  0  0  0  0
   48.6432   35.1340   43.2688 H   0  0  0  0  0  0  0  0  0  0  0  0
   48.7268   33.6110   42.3829 H   0  0  0  0  0  0  0  0  0  0  0  0
   48.2542   36.4023   41.1348 H   0  0  0  0  0  0  0  0  0  0  0  0
   49.8130   35.4697   41.0971 H   0  0  0  0  0  0  0  0  0  0  0  0
   49.0961   34.0347   39.5421 H   0  0  0  0  0  0  0  0  0  0  0  0
   48.0993   35.5161   39.1107 H   0  0  0  0  0  0  0  0  0  0  0  0
   46.4755   34.0529   39.0152 H   0  0  0  0  0  0  0  0  0  0  0  0
   47.3295   32.8989   40.1583 H   0  0  0  0  0  0  0  0  0  0  0  0
   45.7120   35.3461   40.8710 H   0  0  0  0  0  0  0  0  0  0  0  0
   43.7832   36.8646   44.9640 H   0  0  0  0  0  0  0  0  0  0  0  0
   45.0757   36.6465   42.8273 H   0  0  0  0  0  0  0  0  0  0  0  0
   45.5345   33.3443   46.4881 H   0  0  0  0  0  0  0  0  0  0  0  0
   43.5253   34.8283   40.6430 H   0  0  0  0  0  0  0  0  0  0  0  0
   41.5969   33.3040   40.7670 H   0  0  0  0  0  0  0  0  0  0  0  0
   44.2545   30.2191   41.8371 H   0  0  0  0  0  0  0  0  0  0  0  0
  1  2  1  0
  1  9  1  0
  3  2  1  0
  4  5  1  0
  4  3  1  0
  5  6  1  0
  6 13  1  0
  6  1  1  0
  7 12  2  0
  8  7  1  0
  9  8  2  0
  9 10  1  0
 10 11  2  0
 11 12  1  0
 13 18  2  0
 14 15  2  0
 14 13  1  0
 15 16  1  0
 16 17  2  0
 18 17  1  0
  2 19  1  0
  2 20  1  0
  3 21  1  0
  3 22  1  0
  4 23  1  0
  4 24  1  0
  5 25  1  0
  5 26  1  0
  6 27  1  6
  7 28  1  0
  8 29  1  0
 11 30  1  0
 14 31  1  0
 15 32  1  0
 17 33  1  0
M  ISO  8  19  13  20  13  21  13  22  13  23  13  24  13  25  13  26  13
M  ISO  7  27  13  28  14  29  14  30  14  31  14  32  14  33  14
M  END
>  <minimizedAffinity>  (1) 
-5.20417643

>  <minimizedRMSD>  (1) 
0.540290117

$$$$
