
     RDKit          3D

 38 40  0  0  0  0  0  0  0  0999 V2000
   45.6660   31.6790   47.1290 C   0  0  0  0  0  0  0  0  0  0  0  0
   45.5660   32.1600   48.4370 C   0  0  0  0  0  0  0  0  0  0  0  0
   45.3130   31.3540   49.5320 C   0  0  0  0  0  0  0  0  0  0  0  0
   45.1570   30.0110   49.3060 C   0  0  0  0  0  0  0  0  0  0  0  0
   45.2580   29.5330   47.9990 C   0  0  0  0  0  0  0  0  0  0  0  0
   45.5030   30.3650   46.9870 N   0  0  0  0  0  0  0  0  0  0  0  0
   44.8200   36.5280   43.6480 C   0  0  0  0  0  0  0  0  0  0  0  0
   45.7570   36.2430   42.6650 C   0  0  0  0  0  0  0  0  0  0  0  0
   46.4460   35.0190   42.7630 C   0  0  0  0  0  0  0  0  0  0  0  0
   46.1600   34.1860   43.8080 N   0  0  0  0  0  0  0  0  0  0  0  0
   45.2360   34.5220   44.7330 C   0  0  0  0  0  0  0  0  0  0  0  0
   44.5460   35.7090   44.6680 N   0  0  0  0  0  0  0  0  0  0  0  0
   45.9340   32.5990   46.0320 C   0  0  0  0  0  0  0  0  0  0  0  0
   46.9920   32.4390   45.3540 O   0  0  0  0  0  0  0  0  0  0  0  0
   44.9700   33.6280   45.8020 N   0  0  0  0  0  0  0  0  0  0  0  0
   45.0870   28.1040   47.7810 C   0  0  0  0  0  0  0  0  0  0  0  0
   44.7500   27.2970   48.7890 C   0  0  0  0  0  0  0  0  0  0  0  0
   44.5520   25.8360   48.6780 C   0  0  0  0  0  0  0  0  0  0  0  0
   45.7090   25.0780   49.2430 C   0  0  0  0  0  0  0  0  0  0  0  0
   45.4360   24.3180   50.3620 C   0  0  0  0  0  0  0  0  0  0  0  0
   46.4380   23.5830   50.9550 C   0  0  0  0  0  0  0  0  0  0  0  0
   47.6590   23.6550   50.3910 N   0  0  0  0  0  0  0  0  0  0  0  0
   47.8990   24.4030   49.3040 C   0  0  0  0  0  0  0  0  0  0  0  0
   46.9470   25.1390   48.6890 N   0  0  0  0  0  0  0  0  0  0  0  0
   45.6957   33.2393   48.6051 H   0  0  0  0  0  0  0  0  0  0  0  0
   45.2397   31.7746   50.5458 H   0  0  0  0  0  0  0  0  0  0  0  0
   44.9558   29.3225   50.1400 H   0  0  0  0  0  0  0  0  0  0  0  0
   44.2728   37.4801   43.5843 H   0  0  0  0  0  0  0  0  0  0  0  0
   45.9537   36.9455   41.8417 H   0  0  0  0  0  0  0  0  0  0  0  0
   47.2000   34.7386   42.0128 H   0  0  0  0  0  0  0  0  0  0  0  0
   44.1242   33.7164   46.3832 H   0  0  0  0  0  0  0  0  0  0  0  0
   45.2371   27.6850   46.7751 H   0  0  0  0  0  0  0  0  0  0  0  0
   44.6085   27.7543   49.7794 H   0  0  0  0  0  0  0  0  0  0  0  0
   43.6405   25.5569   49.2269 H   0  0  0  0  0  0  0  0  0  0  0  0
   44.4628   25.5817   47.6115 H   0  0  0  0  0  0  0  0  0  0  0  0
   44.4187   24.2994   50.7799 H   0  0  0  0  0  0  0  0  0  0  0  0
   46.2503   22.9666   51.8465 H   0  0  0  0  0  0  0  0  0  0  0  0
   48.9194   24.4181   48.8935 H   0  0  0  0  0  0  0  0  0  0  0  0
  1  2  2  0
  2  3  1  0
  4  3  2  0
  5  4  1  0
  6  1  1  0
  6  5  2  0
  7 12  2  0
  8  9  2  0
  8  7  1  0
  9 10  1  0
 10 11  2  0
 11 15  1  0
 12 11  1  0
 13  1  1  0
 14 13  2  0
 15 13  1  0
 16  5  1  0
 16 17  2  0
 18 17  1  0
 18 19  1  0
 19 20  2  0
 20 21  1  0
 22 21  2  0
 23 22  1  0
 24 19  1  0
 24 23  2  0
  2 25  1  0
  3 26  1  0
  4 27  1  0
  7 28  1  0
  8 29  1  0
  9 30  1  0
 15 31  1  0
 16 32  1  0
 17 33  1  0
 18 34  1  0
 18 35  1  0
 20 36  1  0
 21 37  1  0
 23 38  1  0
M  ISO  8  25  14  26  14  27  14  28  14  29  14  30  14  34   8  35   8
M  ISO  3  36  14  37  14  38  14
M  END
>  <minimizedAffinity>  (1) 
-5.78674269

>  <minimizedRMSD>  (1) 
1.06895316

$$$$
