
     RDKit          3D

 46 50  0  0  0  0  0  0  0  0999 V2000
   49.6770   30.0180   49.3400 C   0  0  0  0  0  0  0  0  0  0  0  0
   49.9320   31.1830   50.0160 N   0  0  0  0  0  0  0  0  0  0  0  0
   50.6230   31.2410   51.1530 C   0  0  0  0  0  0  0  0  0  0  0  0
   51.0850   30.0910   51.6500 N   0  0  0  0  0  0  0  0  0  0  0  0
   50.8790   28.9080   51.0530 C   0  0  0  0  0  0  0  0  0  0  0  0
   51.3660   27.7060   51.5710 C   0  0  0  0  0  0  0  0  0  0  0  0
   51.1420   26.5290   50.9430 C   0  0  0  0  0  0  0  0  0  0  0  0
   50.4300   26.4930   49.7810 C   0  0  0  0  0  0  0  0  0  0  0  0
   49.9230   27.6660   49.2210 C   0  0  0  0  0  0  0  0  0  0  0  0
   50.1530   28.8510   49.8580 C   0  0  0  0  0  0  0  0  0  0  0  0
   49.1480   27.5050   47.9740 C   0  0  0  0  0  0  0  0  0  0  0  0
   47.9460   26.6070   48.2270 C   0  0  0  0  0  0  0  0  0  0  0  0
   46.6920   26.9090   47.7300 C   0  0  0  0  0  0  0  0  0  0  0  0
   45.5360   26.1800   47.8940 C   0  0  0  0  0  0  0  0  0  0  0  0
   45.6650   25.0590   48.6170 N   0  0  0  0  0  0  0  0  0  0  0  0
   46.8600   24.7150   49.1250 C   0  0  0  0  0  0  0  0  0  0  0  0
   47.9710   25.4450   48.9490 N   0  0  0  0  0  0  0  0  0  0  0  0
   48.8140   30.0200   47.8500 S   0  0  0  0  0  0  0  0  0  0  0  0
   46.0040   32.6960   46.8790 C   0  0  0  0  0  0  0  0  0  0  0  0
   47.1290   31.8830   46.8680 C   0  0  0  0  0  0  0  0  0  0  0  0
   47.3620   30.9980   47.9020 C   0  0  0  0  0  0  0  0  0  0  0  0
   46.4840   30.9080   48.9570 C   0  0  0  0  0  0  0  0  0  0  0  0
   45.3710   31.6890   49.0010 C   0  0  0  0  0  0  0  0  0  0  0  0
   45.1520   32.5700   47.9600 C   0  0  0  0  0  0  0  0  0  0  0  0
   44.5730   35.5140   45.0380 C   0  0  0  0  0  0  0  0  0  0  0  0
   45.2440   35.4590   43.7870 C   0  0  0  0  0  0  0  0  0  0  0  0
   46.1880   34.4460   43.5870 C   0  0  0  0  0  0  0  0  0  0  0  0
   46.4490   33.5420   44.5760 N   0  0  0  0  0  0  0  0  0  0  0  0
   45.7750   33.6350   45.7680 C   0  0  0  0  0  0  0  0  0  0  0  0
   44.8480   34.6030   46.0080 N   0  0  0  0  0  0  0  0  0  0  0  0
   50.8059   32.1985   51.6626 H   0  0  0  0  0  0  0  0  0  0  0  0
   51.9428   27.7165   52.5076 H   0  0  0  0  0  0  0  0  0  0  0  0
   51.5364   25.5961   51.3722 H   0  0  0  0  0  0  0  0  0  0  0  0
   50.2535   25.5297   49.2800 H   0  0  0  0  0  0  0  0  0  0  0  0
   49.7873   27.0508   47.2027 H   0  0  0  0  0  0  0  0  0  0  0  0
   48.7996   28.4910   47.6329 H   0  0  0  0  0  0  0  0  0  0  0  0
   46.6088   27.8329   47.1388 H   0  0  0  0  0  0  0  0  0  0  0  0
   44.5746   26.4952   47.4623 H   0  0  0  0  0  0  0  0  0  0  0  0
   46.9307   23.7889   49.7144 H   0  0  0  0  0  0  0  0  0  0  0  0
   47.8393   31.9441   46.0303 H   0  0  0  0  0  0  0  0  0  0  0  0
   46.6837   30.1978   49.7729 H   0  0  0  0  0  0  0  0  0  0  0  0
   44.6653   31.6208   49.8420 H   0  0  0  0  0  0  0  0  0  0  0  0
   44.2535   33.2038   47.9930 H   0  0  0  0  0  0  0  0  0  0  0  0
   43.8255   36.2996   45.2227 H   0  0  0  0  0  0  0  0  0  0  0  0
   45.0272   36.1931   42.9970 H   0  0  0  0  0  0  0  0  0  0  0  0
   46.7226   34.3776   42.6281 H   0  0  0  0  0  0  0  0  0  0  0  0
  1 10  1  0
  1  2  2  0
  2  3  1  0
  3  4  2  0
  5  6  2  0
  5  4  1  0
  7  6  1  0
  8  7  2  0
  9  8  1  0
  9 10  2  0
 10  5  1  0
 11 12  1  0
 11  9  1  0
 12 17  2  0
 13 14  2  0
 13 12  1  0
 14 15  1  0
 15 16  2  0
 17 16  1  0
 18 21  1  0
 18  1  1  0
 19 24  1  0
 20 19  2  0
 20 21  1  0
 21 22  2  0
 22 23  1  0
 24 23  2  0
 25 30  2  0
 26 25  1  0
 27 26  2  0
 27 28  1  0
 28 29  2  0
 29 30  1  0
 29 19  1  0
  3 31  1  0
  6 32  1  0
  7 33  1  0
  8 34  1  0
 11 35  1  0
 11 36  1  0
 13 37  1  0
 14 38  1  0
 16 39  1  0
 20 40  1  0
 22 41  1  0
 23 42  1  0
 24 43  1  0
 25 44  1  0
 26 45  1  0
 27 46  1  0
M  ISO  8  31  14  32  14  33  14  34  14  35   8  36   8  37  14  38  14
M  ISO  8  39  14  40  14  41  14  42  14  43  14  44  14  45  14  46  14
M  END
>  <minimizedAffinity>  (1) 
-6.65615225

>  <minimizedRMSD>  (1) 
1.55284572

$$$$
