
     RDKit          3D

 29 31  0  0  0  0  0  0  0  0999 V2000
   42.1026   31.9296   41.7036 Cl  0  0  0  0  0  0  0  0  0  0  0  0
   41.2612   33.3596   41.1094 C   0  0  0  0  0  0  0  0  0  0  0  0
   42.0764   34.4225   40.8464 C   0  0  0  0  0  0  0  0  0  0  0  0
   41.4689   35.5915   40.3711 C   0  0  0  0  0  0  0  0  0  0  0  0
   40.0908   35.6170   40.1917 C   0  0  0  0  0  0  0  0  0  0  0  0
   39.2764   34.5424   40.4588 C   0  0  0  0  0  0  0  0  0  0  0  0
   39.9023   33.3893   40.9310 C   0  0  0  0  0  0  0  0  0  0  0  0
   38.9767   31.9478   41.3099 Cl  0  0  0  0  0  0  0  0  0  0  0  0
   43.8344   34.5340   41.0254 S   0  0  0  0  0  0  0  0  0  0  0  0
   44.3634   34.6202   42.7304 C   0  0  0  0  0  0  0  0  0  0  0  0
   45.0316   33.4920   43.2073 C   0  0  0  0  0  0  0  0  0  0  0  0
   45.4727   33.4985   44.5402 C   0  0  0  0  0  0  0  0  0  0  0  0
   45.2293   34.5949   45.2954 N   0  0  0  0  0  0  0  0  0  0  0  0
   44.5775   35.6718   44.7980 C   0  0  0  0  0  0  0  0  0  0  0  0
   44.1387   35.6980   43.5164 N   0  0  0  0  0  0  0  0  0  0  0  0
   42.0194   36.4913   40.1312 H   0  0  0  0  0  0  0  0  0  0  0  0
   39.6011   36.5191   39.8223 H   0  0  0  0  0  0  0  0  0  0  0  0
   38.2047   34.5762   40.3145 H   0  0  0  0  0  0  0  0  0  0  0  0
   45.2221   32.6203   42.5979 H   0  0  0  0  0  0  0  0  0  0  0  0
   45.9901   32.6127   44.8929 H   0  0  0  0  0  0  0  0  0  0  0  0
   44.3421   36.8263   45.6561 C   0  0  0  0  0  0  0  0  0  0  0  0
   43.2445   37.6246   45.4697 C   0  0  0  0  0  0  0  0  0  0  0  0
   43.0686   38.7195   46.3231 C   0  0  0  0  0  0  0  0  0  0  0  0
   42.2008   39.3509   46.1758 H   0  0  0  0  0  0  0  0  0  0  0  0
   43.9620   38.9903   47.3153 N   0  0  0  0  0  0  0  0  0  0  0  0
   45.0184   38.1612   47.4392 C   0  0  0  0  0  0  0  0  0  0  0  0
   45.2449   37.0811   46.6418 N   0  0  0  0  0  0  0  0  0  0  0  0
   42.5303   37.4190   44.6862 H   0  0  0  0  0  0  0  0  0  0  0  0
   45.6667   38.4735   48.2651 H   0  0  0  0  0  0  0  0  0  0  0  0
  2  1  1  0
  3  9  1  0
  3  2  2  0
  4  3  1  0
  5  4  2  0
  5  6  1  0
  6  7  2  0
  7  2  1  0
  7  8  1  0
  9 10  1  0
 10 11  2  0
 10 15  1  0
 11 12  1  0
 12 13  2  0
 14 13  1  0
 15 14  2  0
  4 16  1  0
  5 17  1  0
  6 18  1  0
 11 19  1  0
 12 20  1  0
 21 22  2  0
 22 23  1  0
 23 24  1  0
 23 25  2  0
 25 26  1  0
 26 27  2  0
 27 21  1  0
 22 28  1  0
 26 29  1  0
 14 21  1  0
M  ISO  6  16  14  17  14  18  14  19  14  20  14  24  14
M  END
>  <DihAtoms>  (1) 
12,13,20,21

>  <DihDeg>  (1) 
-179.99910327689568

$$$$
