
     RDKit          3D

 22 23  0  0  0  0  0  0  0  0999 V2000
   44.6340   35.5860   45.0180 C   0  0  0  0  0  0  0  0  0  0  0  0
   45.4390   35.1200   43.9900 C   0  0  0  0  0  0  0  0  0  0  0  0
   46.1390   33.9320   44.2160 C   0  0  0  0  0  0  0  0  0  0  0  0
   46.0070   33.3000   45.3920 N   0  0  0  0  0  0  0  0  0  0  0  0
   45.2070   33.7900   46.3740 C   0  0  0  0  0  0  0  0  0  0  0  0
   44.5280   34.9160   46.1950 N   0  0  0  0  0  0  0  0  0  0  0  0
   45.4920   35.9270   42.7450 C   0  0  0  0  0  0  0  0  0  0  0  0
   45.2520   37.2330   43.1340 F   0  0  0  0  0  0  0  0  0  0  0  0
   44.5310   35.4680   41.8890 F   0  0  0  0  0  0  0  0  0  0  0  0
   46.7660   35.7750   42.1970 F   0  0  0  0  0  0  0  0  0  0  0  0
   45.0820   33.1250   47.5880 O   0  0  0  0  0  0  0  0  0  0  0  0
   45.9740   32.0650   47.8140 C   0  0  0  0  0  0  0  0  0  0  0  0
   45.6140   30.7510   47.5580 C   0  0  0  0  0  0  0  0  0  0  0  0
   46.5720   29.7650   47.8150 C   0  0  0  0  0  0  0  0  0  0  0  0
   47.7960   30.0790   48.2950 N   0  0  0  0  0  0  0  0  0  0  0  0
   48.1100   31.3660   48.5330 C   0  0  0  0  0  0  0  0  0  0  0  0
   47.2110   32.3660   48.2980 N   0  0  0  0  0  0  0  0  0  0  0  0
   44.0685   36.5190   44.8775 H   0  0  0  0  0  0  0  0  0  0  0  0
   46.7937   33.5178   43.4351 H   0  0  0  0  0  0  0  0  0  0  0  0
   44.6174   30.4948   47.1693 H   0  0  0  0  0  0  0  0  0  0  0  0
   46.3240   28.7108   47.6223 H   0  0  0  0  0  0  0  0  0  0  0  0
   49.1075   31.6161   48.9233 H   0  0  0  0  0  0  0  0  0  0  0  0
  1  6  2  0
  2  3  2  0
  2  1  1  0
  3  4  1  0
  4  5  2  0
  5 11  1  0
  6  5  1  0
  7  8  1  0
  7  2  1  0
  9  7  1  0
 10  7  1  0
 11 12  1  0
 12 17  1  0
 13 12  2  0
 13 14  1  0
 14 15  2  0
 15 16  1  0
 17 16  2  0
  1 18  1  0
  3 19  1  0
 13 20  1  0
 14 21  1  0
 16 22  1  0
M  ISO  5  18  14  19  14  20  14  21  14  22  14
M  END
>  <minimizedAffinity>  (1) 
-5.00957918

>  <minimizedRMSD>  (1) 
0.762712359

$$$$
