
     RDKit          3D

 25 27  0  0  0  0  0  0  0  0999 V2000
   44.5844   35.8922   44.3293 C   0  0  0  0  0  0  0  0  0  0  0  0
   45.3362   35.9177   43.1234 C   0  0  0  0  0  0  0  0  0  0  0  0
   46.3013   34.9394   43.0221 C   0  0  0  0  0  0  0  0  0  0  0  0
   46.4671   34.0384   44.0570 N   0  0  0  0  0  0  0  0  0  0  0  0
   45.7328   34.0559   45.1735 C   0  0  0  0  0  0  0  0  0  0  0  0
   44.7878   34.9999   45.2905 N   0  0  0  0  0  0  0  0  0  0  0  0
   47.0843   34.7937   41.7424 C   0  0  0  0  0  0  0  0  0  0  0  0
   48.4607   35.4576   41.8717 C   0  0  0  0  0  0  0  0  0  0  0  0
   48.2423   33.9190   41.7481 C   0  0  0  0  0  0  0  0  0  0  0  0
   43.7933   36.5632   44.6053 H   0  0  0  0  0  0  0  0  0  0  0  0
   46.0584   33.2523   45.8187 H   0  0  0  0  0  0  0  0  0  0  0  0
   46.5993   35.2671   40.8581 H   0  0  0  0  0  0  0  0  0  0  0  0
   48.8439   35.7379   42.8588 H   0  0  0  0  0  0  0  0  0  0  0  0
   48.9463   35.8831   40.9993 H   0  0  0  0  0  0  0  0  0  0  0  0
   48.4767   33.2917   42.6085 H   0  0  0  0  0  0  0  0  0  0  0  0
   48.5108   33.4606   40.7566 H   0  0  0  0  0  0  0  0  0  0  0  0
   45.0444   36.9421   42.1376 C   0  0  0  0  0  0  0  0  0  0  0  0
   45.0836   36.6004   40.8080 C   0  0  0  0  0  0  0  0  0  0  0  0
   44.8394   37.4646   39.7651 C   0  0  0  0  0  0  0  0  0  0  0  0
   44.8559   37.2556   38.7130 H   0  0  0  0  0  0  0  0  0  0  0  0
   44.5330   38.7649   40.0425 N   0  0  0  0  0  0  0  0  0  0  0  0
   44.4973   39.0885   41.3455 C   0  0  0  0  0  0  0  0  0  0  0  0
   44.7396   38.2204   42.3073 N   0  0  0  0  0  0  0  0  0  0  0  0
   45.3068   35.6345   40.3743 H   0  0  0  0  0  0  0  0  0  0  0  0
   44.2544   40.1265   41.6211 H   0  0  0  0  0  0  0  0  0  0  0  0
  1  6  2  0
  2  1  1  0
  3  2  2  0
  3  4  1  0
  4  5  2  0
  5  6  1  0
  7  8  1  0
  7  9  1  0
  7  3  1  0
  8  9  1  0
  1 10  1  0
  5 11  1  0
  7 12  1  0
  8 13  1  0
  8 14  1  0
  9 15  1  0
  9 16  1  0
 17 18  2  0
 18 19  1  0
 19 20  1  0
 19 21  2  0
 21 22  1  0
 22 23  2  0
 23 17  1  0
 18 24  1  0
 22 25  1  0
  2 17  1  0
M  ISO  8  10  14  11  14  12  13  13  13  14  13  15  13  16  13  20  14
M  END
>  <DihAtoms>  (1) 
0,1,16,17

>  <DihDeg>  (1) 
-6.438507447785034

$$$$
