
     RDKit          3D

 43 46  0  0  1  0  0  0  0  0999 V2000
   43.3040   34.4010   40.7620 C   0  0  0  0  0  0  0  0  0  0  0  0
   43.2340   35.6160   40.3770 O   0  0  0  0  0  0  0  0  0  0  0  0
   41.9460   33.9720   40.4750 N   0  0  0  0  0  0  0  0  0  0  0  0
   41.5610   34.0670   39.0870 C   0  0  0  0  0  0  0  0  0  0  0  0
   40.7420   35.3730   38.9920 C   0  0  0  0  0  0  0  0  0  0  0  0
   39.9610   35.4850   40.3140 C   0  0  0  0  0  0  0  0  0  0  0  0
   39.6360   34.1120   40.8630 C   0  0  0  0  0  0  0  0  0  0  0  0
   40.9310   33.4670   41.3790 C   0  0  1  0  0  0  0  0  0  0  0  0
   40.8180   31.9930   41.3840 C   0  0  0  0  0  0  0  0  0  0  0  0
   41.1120   31.1460   40.3400 C   0  0  0  0  0  0  0  0  0  0  0  0
   40.9860   29.7830   40.4100 C   0  0  0  0  0  0  0  0  0  0  0  0
   40.5540   29.2280   41.5560 N   0  0  0  0  0  0  0  0  0  0  0  0
   40.2560   30.0390   42.6070 C   0  0  0  0  0  0  0  0  0  0  0  0
   40.3850   31.3880   42.5250 N   0  0  0  0  0  0  0  0  0  0  0  0
   44.3890   33.7700   41.2820 O   0  0  0  0  0  0  0  0  0  0  0  0
   45.7120   34.1010   41.1130 C   0  0  0  0  0  0  0  0  0  0  0  0
   46.3530   34.7300   42.1830 C   0  0  0  0  0  0  0  0  0  0  0  0
   47.7050   35.0660   42.0030 C   0  0  0  0  0  0  0  0  0  0  0  0
   48.2950   34.7590   40.8050 N   0  0  0  0  0  0  0  0  0  0  0  0
   47.6320   34.1610   39.8260 C   0  0  0  0  0  0  0  0  0  0  0  0
   46.3410   33.8290   39.9730 N   0  0  0  0  0  0  0  0  0  0  0  0
   45.6320   35.0100   43.4110 C   0  0  0  0  0  0  0  0  0  0  0  0
   44.9950   36.2360   43.6430 C   0  0  0  0  0  0  0  0  0  0  0  0
   44.4480   36.0860   44.8940 C   0  0  0  0  0  0  0  0  0  0  0  0
   44.7270   34.8690   45.3820 N   0  0  0  0  0  0  0  0  0  0  0  0
   45.4420   34.2360   44.4740 N   0  0  0  0  0  0  0  0  0  0  0  0
   42.4499   34.1195   38.4412 H   0  0  0  0  0  0  0  0  0  0  0  0
   40.9844   33.1908   38.7556 H   0  0  0  0  0  0  0  0  0  0  0  0
   41.4129   36.2363   38.8707 H   0  0  0  0  0  0  0  0  0  0  0  0
   40.0648   35.3602   38.1253 H   0  0  0  0  0  0  0  0  0  0  0  0
   40.5707   36.0321   41.0481 H   0  0  0  0  0  0  0  0  0  0  0  0
   39.0195   36.0211   40.1236 H   0  0  0  0  0  0  0  0  0  0  0  0
   38.9147   34.2049   41.6883 H   0  0  0  0  0  0  0  0  0  0  0  0
   39.1963   33.4871   40.0717 H   0  0  0  0  0  0  0  0  0  0  0  0
   41.1707   33.7169   42.4231 H   0  0  0  0  0  0  0  0  0  0  0  0
   41.4678   31.5872   39.3973 H   0  0  0  0  0  0  0  0  0  0  0  0
   41.2342   29.1534   39.5428 H   0  0  0  0  0  0  0  0  0  0  0  0
   39.9016   29.5904   43.5468 H   0  0  0  0  0  0  0  0  0  0  0  0
   48.2748   35.5623   42.8024 H   0  0  0  0  0  0  0  0  0  0  0  0
   48.1469   33.9340   38.8808 H   0  0  0  0  0  0  0  0  0  0  0  0
   44.9447   37.1121   42.9798 H   0  0  0  0  0  0  0  0  0  0  0  0
   43.8640   36.8552   45.4206 H   0  0  0  0  0  0  0  0  0  0  0  0
   44.4362   34.4974   46.2976 H   0  0  0  0  0  0  0  0  0  0  0  0
  1 15  1  0
  2  1  2  0
  3  1  1  0
  3  8  1  0
  4  3  1  0
  5  4  1  0
  5  6  1  0
  6  7  1  0
  7  8  1  0
  8  9  1  0
  9 14  2  0
 10 11  2  0
 10  9  1  0
 11 12  1  0
 12 13  2  0
 14 13  1  0
 16 15  1  0
 16 17  1  0
 17 22  1  0
 18 17  2  0
 19 18  1  0
 20 21  1  0
 20 19  2  0
 21 16  2  0
 22 23  1  0
 22 26  2  0
 23 24  2  0
 24 25  1  0
 26 25  1  0
  4 27  1  0
  4 28  1  0
  5 29  1  0
  5 30  1  0
  6 31  1  0
  6 32  1  0
  7 33  1  0
  7 34  1  0
  8 35  1  1
 10 36  1  0
 11 37  1  0
 13 38  1  0
 18 39  1  0
 20 40  1  0
 23 41  1  0
 24 42  1  0
 25 43  1  0
M  ISO  8  27  13  28  13  29  13  30  13  31  13  32  13  33  13  34  13
M  ISO  8  35  13  36  14  37  14  38  14  39  14  40  14  41  14  42  14
M  ISO  1  43   9
M  END
>  <minimizedAffinity>  (1) 
-6.73950052

>  <minimizedRMSD>  (1) 
0.323297501

$$$$
