
     RDKit          3D

 31 33  0  0  0  0  0  0  0  0999 V2000
   43.9440   34.6270   41.3440 C   0  0  0  0  0  0  0  0  0  0  0  0
   42.7930   35.3710   41.0320 C   0  0  0  0  0  0  0  0  0  0  0  0
   42.1910   35.1620   39.7730 C   0  0  0  0  0  0  0  0  0  0  0  0
   42.7690   34.2490   38.9400 N   0  0  0  0  0  0  0  0  0  0  0  0
   43.8940   33.5570   39.3080 C   0  0  0  0  0  0  0  0  0  0  0  0
   44.4740   33.7410   40.4900 N   0  0  0  0  0  0  0  0  0  0  0  0
   44.5650   34.8450   42.6720 C   0  0  0  0  0  0  0  0  0  0  0  0
   46.0560   35.2920   42.5740 C   0  0  0  0  0  0  0  0  0  0  0  0
   44.9640   36.1270   43.1690 C   0  0  0  0  0  0  0  0  0  0  0  0
   40.9900   35.9110   39.3860 C   0  0  0  0  0  0  0  0  0  0  0  0
   39.7780   35.4900   40.2110 C   0  0  0  0  0  0  0  0  0  0  0  0
   39.2500   34.1740   39.8670 C   0  0  0  0  0  0  0  0  0  0  0  0
   38.8960   33.6160   38.6740 C   0  0  0  0  0  0  0  0  0  0  0  0
   38.4000   32.3390   38.5860 C   0  0  0  0  0  0  0  0  0  0  0  0
   38.2510   31.5920   39.6960 N   0  0  0  0  0  0  0  0  0  0  0  0
   38.5990   32.1370   40.8730 C   0  0  0  0  0  0  0  0  0  0  0  0
   39.0840   33.3850   40.9720 N   0  0  0  0  0  0  0  0  0  0  0  0
   42.3743   36.0941   41.7474 H   0  0  0  0  0  0  0  0  0  0  0  0
   44.3284   32.8299   38.6062 H   0  0  0  0  0  0  0  0  0  0  0  0
   43.9474   34.0614   43.1351 H   0  0  0  0  0  0  0  0  0  0  0  0
   46.8231   34.8320   43.2143 H   0  0  0  0  0  0  0  0  0  0  0  0
   46.8087   35.4043   41.7797 H   0  0  0  0  0  0  0  0  0  0  0  0
   44.6334   37.0345   42.6425 H   0  0  0  0  0  0  0  0  0  0  0  0
   44.8448   36.6264   44.1418 H   0  0  0  0  0  0  0  0  0  0  0  0
   41.1728   36.9845   39.5416 H   0  0  0  0  0  0  0  0  0  0  0  0
   40.7774   35.6990   38.3278 H   0  0  0  0  0  0  0  0  0  0  0  0
   40.0694   35.4786   41.2716 H   0  0  0  0  0  0  0  0  0  0  0  0
   38.9809   36.2171   39.9966 H   0  0  0  0  0  0  0  0  0  0  0  0
   39.0115   34.2075   37.7538 H   0  0  0  0  0  0  0  0  0  0  0  0
   38.1234   31.9247   37.6052 H   0  0  0  0  0  0  0  0  0  0  0  0
   38.4825   31.5393   41.7891 H   0  0  0  0  0  0  0  0  0  0  0  0
  1  7  1  0
  2  1  2  0
  3  2  1  0
  4  5  1  0
  4  3  2  0
  5  6  2  0
  6  1  1  0
  7  9  1  0
  8  7  1  0
  8  9  1  0
 10  3  1  0
 10 11  1  0
 12 11  1  0
 12 17  1  0
 13 12  2  0
 14 13  1  0
 14 15  2  0
 15 16  1  0
 16 17  2  0
  2 18  1  0
  5 19  1  0
  7 20  1  0
  8 21  1  0
  8 22  1  0
  9 23  1  0
  9 24  1  0
 10 25  1  0
 10 26  1  0
 11 27  1  0
 11 28  1  0
 13 29  1  0
 14 30  1  0
 16 31  1  0
M  ISO  8  18  14  19  14  20  13  21  13  22  13  23  13  24  13  25   8
M  ISO  6  26   8  27   8  28   8  29  14  30  14  31  14
M  END
>  <minimizedAffinity>  (1) 
-4.7610755

>  <minimizedRMSD>  (1) 
2.47895741

$$$$
