
     RDKit          3D

 37 39  0  0  0  0  0  0  0  0999 V2000
   46.3250   31.6720   45.6760 C   0  0  0  0  0  0  0  0  0  0  0  0
   47.4190   32.4220   47.7840 C   0  0  0  0  0  0  0  0  0  0  0  0
   47.2120   31.4360   46.8050 C   0  0  0  0  0  0  0  0  0  0  0  0
   47.9000   30.2280   46.9700 C   0  0  0  0  0  0  0  0  0  0  0  0
   48.7080   30.0740   48.0370 N   0  0  0  0  0  0  0  0  0  0  0  0
   48.8890   31.0310   48.9570 C   0  0  0  0  0  0  0  0  0  0  0  0
   48.2450   32.1960   48.8230 N   0  0  0  0  0  0  0  0  0  0  0  0
   49.7820   30.7910   50.0860 C   0  0  0  0  0  0  0  0  0  0  0  0
   50.5500   31.8130   50.6050 C   0  0  0  0  0  0  0  0  0  0  0  0
   51.3570   31.4740   51.6720 C   0  0  0  0  0  0  0  0  0  0  0  0
   51.4450   30.2460   52.2240 N   0  0  0  0  0  0  0  0  0  0  0  0
   50.6620   29.2760   51.6680 C   0  0  0  0  0  0  0  0  0  0  0  0
   49.8650   29.5680   50.6320 N   0  0  0  0  0  0  0  0  0  0  0  0
   47.0250   32.6270   44.7330 C   0  0  0  0  0  0  0  0  0  0  0  0
   46.5170   34.5080   43.2270 C   0  0  0  0  0  0  0  0  0  0  0  0
   46.2670   33.8430   44.4090 C   0  0  0  0  0  0  0  0  0  0  0  0
   45.3280   34.2530   45.3150 C   0  0  0  0  0  0  0  0  0  0  0  0
   44.5940   35.3890   45.0330 C   0  0  0  0  0  0  0  0  0  0  0  0
   44.7790   36.1060   43.8870 C   0  0  0  0  0  0  0  0  0  0  0  0
   45.7490   35.6320   43.0130 C   0  0  0  0  0  0  0  0  0  0  0  0
   47.7160   34.0140   42.0500 S   0  0  0  0  0  0  0  0  0  0  0  0
   49.0750   34.6130   42.3410 O   0  0  0  0  0  0  0  0  0  0  0  0
   47.3350   34.5860   40.7080 O   0  0  0  0  0  0  0  0  0  0  0  0
   46.1142   30.7235   45.1604 H   0  0  0  0  0  0  0  0  0  0  0  0
   45.3706   32.0986   46.0183 H   0  0  0  0  0  0  0  0  0  0  0  0
   46.9009   33.3888   47.7009 H   0  0  0  0  0  0  0  0  0  0  0  0
   47.7824   29.4153   46.2381 H   0  0  0  0  0  0  0  0  0  0  0  0
   50.5209   32.8331   50.1944 H   0  0  0  0  0  0  0  0  0  0  0  0
   51.9791   32.2697   52.1079 H   0  0  0  0  0  0  0  0  0  0  0  0
   50.6856   28.2529   52.0714 H   0  0  0  0  0  0  0  0  0  0  0  0
   47.9753   32.9301   45.1968 H   0  0  0  0  0  0  0  0  0  0  0  0
   47.1567   32.0839   43.7855 H   0  0  0  0  0  0  0  0  0  0  0  0
   45.1612   33.6916   46.2461 H   0  0  0  0  0  0  0  0  0  0  0  0
   43.8362   35.7262   45.7555 H   0  0  0  0  0  0  0  0  0  0  0  0
   44.1921   37.0100   43.6672 H   0  0  0  0  0  0  0  0  0  0  0  0
   45.9162   36.1946   42.0827 H   0  0  0  0  0  0  0  0  0  0  0  0
   47.7669   32.6454   42.0833 H   0  0  0  0  0  0  0  0  0  0  0  0
  1  3  1  0
  2  7  2  0
  3  4  2  0
  3  2  1  0
  4  5  1  0
  5  6  2  0
  6  8  1  0
  7  6  1  0
  8  9  2  0
  8 13  1  0
  9 10  1  0
 10 11  2  0
 12 11  1  0
 13 12  2  0
 14  1  1  0
 15 16  2  0
 16 14  1  0
 16 17  1  0
 18 17  2  0
 19 18  1  0
 20 15  1  0
 20 19  2  0
 21 22  2  0
 21 15  1  0
 23 21  2  0
  1 24  1  0
  1 25  1  0
  2 26  1  0
  4 27  1  0
  9 28  1  0
 10 29  1  0
 12 30  1  0
 14 31  1  0
 14 32  1  0
 17 33  1  0
 18 34  1  0
 19 35  1  0
 20 36  1  0
 21 37  1  0
M  ISO  8  24   8  25   8  26  14  27  14  28  14  29  14  30  14  31   8
M  ISO  6  32   8  33  14  34  14  35  14  36  14  37  11
M  END
>  <minimizedAffinity>  (1) 
-5.92420959

>  <minimizedRMSD>  (1) 
0.680055499

$$$$
