
     RDKit          3D

 24 25  0  0  0  0  0  0  0  0999 V2000
   46.3246   35.1641   42.5722 C   0  0  0  0  0  0  0  0  0  0  0  0
   46.8663   34.0866   43.2484 C   0  0  0  0  0  0  0  0  0  0  0  0
   46.3345   33.8045   44.5305 C   0  0  0  0  0  0  0  0  0  0  0  0
   45.3526   34.5658   45.0454 N   0  0  0  0  0  0  0  0  0  0  0  0
   44.8528   35.6181   44.3509 C   0  0  0  0  0  0  0  0  0  0  0  0
   45.3531   35.9021   43.1137 N   0  0  0  0  0  0  0  0  0  0  0  0
   47.8673   33.4150   42.5965 O   0  0  0  0  0  0  0  0  0  0  0  0
   50.3889   33.1913   41.8375 O   0  0  0  0  0  0  0  0  0  0  0  0
   49.3318   34.1940   42.1600 P   0  0  0  0  0  0  0  0  0  0  0  0
   49.0841   35.1207   40.7693 O   0  0  0  0  0  0  0  0  0  0  0  0
   49.8880   35.2359   43.3656 O   0  0  0  0  0  0  0  0  0  0  0  0
   46.8237   32.9470   44.9648 H   0  0  0  0  0  0  0  0  0  0  0  0
   44.0772   36.0735   44.9754 H   0  0  0  0  0  0  0  0  0  0  0  0
   49.8146   35.7892   40.6715 H   0  0  0  0  0  0  0  0  0  0  0  0
   50.6658   34.8441   43.8264 H   0  0  0  0  0  0  0  0  0  0  0  0
   46.4480   35.7884   41.2627 C   0  0  0  0  0  0  0  0  0  0  0  0
   46.6575   37.1215   40.9774 C   0  0  0  0  0  0  0  0  0  0  0  0
   46.6546   37.4700   39.6202 C   0  0  0  0  0  0  0  0  0  0  0  0
   46.8257   38.5421   39.4442 H   0  0  0  0  0  0  0  0  0  0  0  0
   46.4593   36.5636   38.6490 N   0  0  0  0  0  0  0  0  0  0  0  0
   46.2586   35.2752   38.9717 C   0  0  0  0  0  0  0  0  0  0  0  0
   46.2468   34.8528   40.2723 N   0  0  0  0  0  0  0  0  0  0  0  0
   46.8022   37.7562   41.8377 H   0  0  0  0  0  0  0  0  0  0  0  0
   46.0992   34.5395   38.1677 H   0  0  0  0  0  0  0  0  0  0  0  0
  1  6  1  0
  1  2  2  0
  2  3  1  0
  3  4  2  0
  5  4  1  0
  6  5  2  0
  7  2  1  0
  8  9  2  0
  9  7  1  0
  9 11  1  0
 10  9  1  0
  3 12  1  0
  5 13  1  0
 10 14  1  0
 11 15  1  0
 16 17  2  0
 17 18  1  0
 18 19  1  0
 18 20  2  0
 20 21  1  0
 21 22  2  0
 22 16  1  0
 17 23  1  0
 21 24  1  0
  1 16  1  0
M  ISO  5  12  14  13  14  14   3  15   3  19  14
M  END
>  <DihAtoms>  (1) 
5,0,15,16

>  <DihDeg>  (1) 
53.97116893999509

$$$$
