
     RDKit          3D

 34 36  0  0  0  0  0  0  0  0999 V2000
   46.0519   34.3261   41.5309 N   0  0  0  0  0  0  0  0  0  0  0  0
   45.1013   34.0800   40.4766 C   0  0  0  0  0  0  0  0  0  0  0  0
   45.6706   33.2383   39.3681 C   0  0  0  0  0  0  0  0  0  0  0  0
   46.9353   33.6781   38.8741 N   0  0  0  0  0  0  0  0  0  0  0  0
   47.8047   34.2848   39.8083 C   0  0  0  0  0  0  0  0  0  0  0  0
   47.4561   34.2362   41.2559 C   0  0  1  0  0  0  0  0  0  0  0  0
   44.5915   36.0543   44.5022 C   0  0  0  0  0  0  0  0  0  0  0  0
   44.9725   35.8232   43.1863 C   0  0  0  0  0  0  0  0  0  0  0  0
   45.6095   34.6512   42.8248 C   0  0  0  0  0  0  0  0  0  0  0  0
   45.8201   33.7716   43.8471 N   0  0  0  0  0  0  0  0  0  0  0  0
   45.4456   34.0077   45.1216 C   0  0  0  0  0  0  0  0  0  0  0  0
   44.8296   35.1525   45.4500 N   0  0  0  0  0  0  0  0  0  0  0  0
   48.1820   35.2860   41.9725 C   0  0  0  0  0  0  0  0  0  0  0  0
   48.9873   36.0621   41.3627 O   0  0  0  0  0  0  0  0  0  0  0  0
   44.6841   35.0346   40.1305 H   0  0  0  0  0  0  0  0  0  0  0  0
   44.2634   33.4902   40.9205 H   0  0  0  0  0  0  0  0  0  0  0  0
   44.9336   33.2333   38.5332 H   0  0  0  0  0  0  0  0  0  0  0  0
   45.7512   32.1837   39.7287 H   0  0  0  0  0  0  0  0  0  0  0  0
   47.3915   32.8995   38.3575 H   0  0  0  0  0  0  0  0  0  0  0  0
   48.8346   33.8873   39.6791 H   0  0  0  0  0  0  0  0  0  0  0  0
   47.8807   35.3781   39.5435 H   0  0  0  0  0  0  0  0  0  0  0  0
   47.8237   33.2240   41.6182 H   0  0  0  0  0  0  0  0  0  0  0  0
   44.0990   37.0311   44.6185 H   0  0  0  0  0  0  0  0  0  0  0  0
   44.8028   36.5218   42.3786 H   0  0  0  0  0  0  0  0  0  0  0  0
   45.6415   33.2706   45.8886 H   0  0  0  0  0  0  0  0  0  0  0  0
   48.3690   35.8680   43.2955 C   0  0  0  0  0  0  0  0  0  0  0  0
   48.7218   37.1643   43.6195 C   0  0  0  0  0  0  0  0  0  0  0  0
   48.8315   37.6641   44.8956 C   0  0  0  0  0  0  0  0  0  0  0  0
   49.1138   38.6880   44.9722 H   0  0  0  0  0  0  0  0  0  0  0  0
   48.5739   36.8177   45.9030 N   0  0  0  0  0  0  0  0  0  0  0  0
   48.2289   35.5521   45.6394 C   0  0  0  0  0  0  0  0  0  0  0  0
   48.1381   35.1231   44.3838 N   0  0  0  0  0  0  0  0  0  0  0  0
   48.9214   37.8107   42.7464 H   0  0  0  0  0  0  0  0  0  0  0  0
   48.0098   34.8257   46.4207 H   0  0  0  0  0  0  0  0  0  0  0  0
  1  9  1  0
  2  1  1  0
  3  2  1  0
  4  3  1  0
  4  5  1  0
  5  6  1  0
  6  1  1  0
  6 13  1  0
  7 12  2  0
  8  7  1  0
  9  8  2  0
  9 10  1  0
 10 11  2  0
 11 12  1  0
 14 13  2  0
  2 15  1  0
  2 16  1  0
  3 17  1  0
  3 18  1  0
  4 19  1  0
  5 20  1  0
  5 21  1  0
  6 22  1  1
  7 23  1  0
  8 24  1  0
 11 25  1  0
 26 27  2  0
 27 28  1  0
 28 29  1  0
 28 30  2  0
 30 31  1  0
 31 32  2  0
 32 26  1  0
 27 33  1  0
 31 34  1  0
 13 26  1  0
M  ISO  8  15  13  16  13  17  13  18  13  19   5  20  13  21  13  22  13
M  ISO  4  23  14  24  14  25  14  29  14
M  END
>  <DihAtoms>  (1) 
5,12,25,26

>  <DihDeg>  (1) 
-137.20039313479901

$$$$
