
     RDKit          3D

 34 36  0  0  1  0  0  0  0  0999 V2000
   46.2360   33.7680   43.2050 C   0  0  2  0  0  0  0  0  0  0  0  0
   45.6280   34.8250   42.3700 C   0  0  0  0  0  0  0  0  0  0  0  0
   45.3620   36.1000   43.1090 C   0  0  0  0  0  0  0  0  0  0  0  0
   44.5210   35.8800   44.3550 C   0  0  0  0  0  0  0  0  0  0  0  0
   44.9260   34.6720   45.1440 C   0  0  0  0  0  0  0  0  0  0  0  0
   46.2380   34.0950   44.6860 C   0  0  1  0  0  0  0  0  0  0  0  0
   47.6250   33.4730   42.8100 C   0  0  0  0  0  0  0  0  0  0  0  0
   48.5340   34.5430   42.9180 C   0  0  0  0  0  0  0  0  0  0  0  0
   49.8770   34.3570   42.5680 C   0  0  0  0  0  0  0  0  0  0  0  0
   50.2240   33.1040   42.1300 N   0  0  0  0  0  0  0  0  0  0  0  0
   49.3280   32.0890   42.0370 C   0  0  0  0  0  0  0  0  0  0  0  0
   48.0360   32.2820   42.3780 N   0  0  0  0  0  0  0  0  0  0  0  0
   46.4230   32.8150   45.4220 C   0  0  0  0  0  0  0  0  0  0  0  0
   45.9090   31.6260   44.9410 C   0  0  0  0  0  0  0  0  0  0  0  0
   46.1210   30.4670   45.6800 C   0  0  0  0  0  0  0  0  0  0  0  0
   46.8150   30.4980   46.8420 N   0  0  0  0  0  0  0  0  0  0  0  0
   47.3110   31.6840   47.2940 C   0  0  0  0  0  0  0  0  0  0  0  0
   47.1150   32.8270   46.5860 N   0  0  0  0  0  0  0  0  0  0  0  0
   45.5963   32.8899   43.0326 H   0  0  0  0  0  0  0  0  0  0  0  0
   44.6736   34.4481   41.9738 H   0  0  0  0  0  0  0  0  0  0  0  0
   46.3502   35.0602   41.5744 H   0  0  0  0  0  0  0  0  0  0  0  0
   46.3237   36.5443   43.4053 H   0  0  0  0  0  0  0  0  0  0  0  0
   44.8009   36.7669   42.4379 H   0  0  0  0  0  0  0  0  0  0  0  0
   44.6167   36.7656   45.0005 H   0  0  0  0  0  0  0  0  0  0  0  0
   43.4855   35.7165   44.0217 H   0  0  0  0  0  0  0  0  0  0  0  0
   45.0167   34.9568   46.2026 H   0  0  0  0  0  0  0  0  0  0  0  0
   44.1538   33.9028   44.9956 H   0  0  0  0  0  0  0  0  0  0  0  0
   47.0338   34.8306   44.8746 H   0  0  0  0  0  0  0  0  0  0  0  0
   48.1894   35.5240   43.2770 H   0  0  0  0  0  0  0  0  0  0  0  0
   50.6134   35.1709   42.6403 H   0  0  0  0  0  0  0  0  0  0  0  0
   49.6569   31.1015   41.6811 H   0  0  0  0  0  0  0  0  0  0  0  0
   45.3458   31.5968   43.9966 H   0  0  0  0  0  0  0  0  0  0  0  0
   45.7187   29.5106   45.3148 H   0  0  0  0  0  0  0  0  0  0  0  0
   47.8739   31.7162   48.2385 H   0  0  0  0  0  0  0  0  0  0  0  0
  1  6  1  0
  2  3  1  0
  2  1  1  0
  3  4  1  0
  4  5  1  0
  6  5  1  0
  6 13  1  0
  7  8  2  0
  7  1  1  0
  9  8  1  0
 10  9  2  0
 11 10  1  0
 11 12  2  0
 12  7  1  0
 13 18  1  0
 14 13  2  0
 14 15  1  0
 15 16  2  0
 16 17  1  0
 18 17  2  0
  1 19  1  1
  2 20  1  0
  2 21  1  0
  3 22  1  0
  3 23  1  0
  4 24  1  0
  4 25  1  0
  5 26  1  0
  5 27  1  0
  6 28  1  6
  8 29  1  0
  9 30  1  0
 11 31  1  0
 14 32  1  0
 15 33  1  0
 17 34  1  0
M  ISO  8  19  13  20  13  21  13  22  13  23  13  24  13  25  13  26  13
M  ISO  8  27  13  28  13  29  14  30  14  31  14  32  14  33  14  34  14
M  END
>  <minimizedAffinity>  (1) 
-4.8624711

>  <minimizedRMSD>  (1) 
1.89240885

$$$$
