
     RDKit          3D

 24 25  0  0  0  0  0  0  0  0999 V2000
   44.5480   36.0050   44.4730 C   0  0  0  0  0  0  0  0  0  0  0  0
   45.1830   35.9660   43.2190 C   0  0  0  0  0  0  0  0  0  0  0  0
   46.0920   34.9250   42.9930 C   0  0  0  0  0  0  0  0  0  0  0  0
   46.3170   34.0180   43.9760 N   0  0  0  0  0  0  0  0  0  0  0  0
   45.6910   34.0830   45.1750 C   0  0  0  0  0  0  0  0  0  0  0  0
   44.8170   35.0680   45.4160 N   0  0  0  0  0  0  0  0  0  0  0  0
   45.9740   33.0780   46.1940 C   0  0  0  0  0  0  0  0  0  0  0  0
   46.9660   32.1520   45.9810 C   0  0  0  0  0  0  0  0  0  0  0  0
   47.1700   31.2410   46.9880 C   0  0  0  0  0  0  0  0  0  0  0  0
   46.4750   31.2110   48.1270 N   0  0  0  0  0  0  0  0  0  0  0  0
   45.4950   32.1450   48.3100 C   0  0  0  0  0  0  0  0  0  0  0  0
   45.2720   33.0500   47.3390 N   0  0  0  0  0  0  0  0  0  0  0  0
   46.7110   34.9020   41.7470 O   0  0  0  0  0  0  0  0  0  0  0  0
   48.6740   33.2780   41.0390 O   0  0  0  0  0  0  0  0  0  0  0  0
   48.4020   34.6330   41.6670 P   0  0  0  0  0  0  0  0  0  0  0  0
   49.0880   35.8800   40.7880 O   0  0  0  0  0  0  0  0  0  0  0  0
   48.9830   34.5950   43.2710 O   0  0  0  0  0  0  0  0  0  0  0  0
   43.8249   36.8045   44.6917 H   0  0  0  0  0  0  0  0  0  0  0  0
   44.9744   36.7219   42.4475 H   0  0  0  0  0  0  0  0  0  0  0  0
   47.5626   32.1409   45.0569 H   0  0  0  0  0  0  0  0  0  0  0  0
   47.9579   30.4865   46.8467 H   0  0  0  0  0  0  0  0  0  0  0  0
   44.8988   32.1572   49.2344 H   0  0  0  0  0  0  0  0  0  0  0  0
   49.4597   36.5557   41.4087 H   0  0  0  0  0  0  0  0  0  0  0  0
   48.2199   34.6449   43.8997 H   0  0  0  0  0  0  0  0  0  0  0  0
  1  6  2  0
  2  1  1  0
  3  2  2  0
  3  4  1  0
  4  5  2  0
  5  6  1  0
  5  7  1  0
  7 12  1  0
  8  7  2  0
  8  9  1  0
  9 10  2  0
 10 11  1  0
 12 11  2  0
 13  3  1  0
 14 15  2  0
 15 13  1  0
 15 17  1  0
 16 15  1  0
  1 18  1  0
  2 19  1  0
  8 20  1  0
  9 21  1  0
 11 22  1  0
 16 23  1  0
 17 24  1  0
M  ISO  7  18  14  19  14  20  14  21  14  22  14  23   3  24   3
M  END
>  <minimizedAffinity>  (1) 
-5.67001343

>  <minimizedRMSD>  (1) 
0.205640256

$$$$
