
     RDKit          3D

 43 46  0  0  0  0  0  0  0  0999 V2000
   47.5595   29.9781   48.2714 C   0  0  1  0  0  0  0  0  0  0  0  0
   47.4492   28.7848   47.3735 C   0  0  0  0  0  0  0  0  0  0  0  0
   48.7366   28.0334   47.1766 C   0  0  0  0  0  0  0  0  0  0  0  0
   49.5031   27.8472   48.4570 C   0  0  0  0  0  0  0  0  0  0  0  0
   49.5836   29.1069   49.2631 C   0  0  0  0  0  0  0  0  0  0  0  0
   49.0591   30.3114   48.4512 C   0  0  2  0  0  0  0  0  0  0  0  0
   45.9303   33.1455   46.2432 C   0  0  0  0  0  0  0  0  0  0  0  0
   45.3313   32.9342   47.4886 C   0  0  0  0  0  0  0  0  0  0  0  0
   45.7854   31.9222   48.2329 C   0  0  0  0  0  0  0  0  0  0  0  0
   46.8393   31.1056   47.7576 C   0  0  0  0  0  0  0  0  0  0  0  0
   47.2158   31.8246   46.1217 S   0  0  0  0  0  0  0  0  0  0  0  0
   44.4363   36.1107   44.5430 C   0  0  0  0  0  0  0  0  0  0  0  0
   45.0361   36.0070   43.2846 C   0  0  0  0  0  0  0  0  0  0  0  0
   45.9247   34.9458   43.0819 C   0  0  0  0  0  0  0  0  0  0  0  0
   46.1584   34.0715   44.1158 N   0  0  0  0  0  0  0  0  0  0  0  0
   45.5559   34.2136   45.3069 C   0  0  0  0  0  0  0  0  0  0  0  0
   44.6895   35.2399   45.5232 N   0  0  0  0  0  0  0  0  0  0  0  0
   49.2120   31.5218   49.2421 C   0  0  0  0  0  0  0  0  0  0  0  0
   49.9529   31.5617   50.2204 O   0  0  0  0  0  0  0  0  0  0  0  0
   47.1850   29.7547   49.2720 H   0  0  0  0  0  0  0  0  0  0  0  0
   46.6992   28.0724   47.8123 H   0  0  0  0  0  0  0  0  0  0  0  0
   47.0477   29.0879   46.3938 H   0  0  0  0  0  0  0  0  0  0  0  0
   49.3635   28.5946   46.4420 H   0  0  0  0  0  0  0  0  0  0  0  0
   48.4855   27.0613   46.7542 H   0  0  0  0  0  0  0  0  0  0  0  0
   48.8864   27.1312   49.0731 H   0  0  0  0  0  0  0  0  0  0  0  0
   50.4671   27.3824   48.2345 H   0  0  0  0  0  0  0  0  0  0  0  0
   49.0742   29.0794   50.2324 H   0  0  0  0  0  0  0  0  0  0  0  0
   50.6718   29.3273   49.3910 H   0  0  0  0  0  0  0  0  0  0  0  0
   49.5829   30.3409   47.4754 H   0  0  0  0  0  0  0  0  0  0  0  0
   44.5285   33.5676   47.8377 H   0  0  0  0  0  0  0  0  0  0  0  0
   45.4438   31.6153   49.2081 H   0  0  0  0  0  0  0  0  0  0  0  0
   43.7375   36.9181   44.7536 H   0  0  0  0  0  0  0  0  0  0  0  0
   44.8314   36.7044   42.5023 H   0  0  0  0  0  0  0  0  0  0  0  0
   46.4143   34.8165   42.1381 H   0  0  0  0  0  0  0  0  0  0  0  0
   48.7475   32.8737   49.2902 C   0  0  0  0  0  0  0  0  0  0  0  0
   49.4958   33.9815   49.7421 C   0  0  0  0  0  0  0  0  0  0  0  0
   49.0947   35.2905   49.8723 C   0  0  0  0  0  0  0  0  0  0  0  0
   49.7799   36.0300   50.2330 H   0  0  0  0  0  0  0  0  0  0  0  0
   47.8293   35.5303   49.5211 N   0  0  0  0  0  0  0  0  0  0  0  0
   47.0439   34.5531   49.0823 C   0  0  0  0  0  0  0  0  0  0  0  0
   47.5317   33.3335   48.9971 N   0  0  0  0  0  0  0  0  0  0  0  0
   50.5461   33.7773   50.0321 H   0  0  0  0  0  0  0  0  0  0  0  0
   46.0005   34.7635   48.7948 H   0  0  0  0  0  0  0  0  0  0  0  0
  1  6  1  0
  2  1  1  0
  3  2  1  0
  3  4  1  0
  4  5  1  0
  6 18  1  0
  6  5  1  0
  7  8  2  0
  8  9  1  0
 10  1  1  0
 10  9  2  0
 11  7  1  0
 11 10  1  0
 12 17  2  0
 13 12  1  0
 14 13  2  0
 14 15  1  0
 15 16  2  0
 16 17  1  0
 16  7  1  0
 18 19  2  0
  1 20  1  1
  2 21  1  0
  2 22  1  0
  3 23  1  0
  3 24  1  0
  4 25  1  0
  4 26  1  0
  5 27  1  0
  5 28  1  0
  6 29  1  6
  8 30  1  0
  9 31  1  0
 12 32  1  0
 13 33  1  0
 14 34  1  0
 35 36  2  0
 36 37  1  0
 37 38  1  0
 37 39  2  0
 39 40  1  0
 40 41  2  0
 41 35  1  0
 36 42  1  0
 40 43  1  0
 18 35  1  0
M  ISO  8  20  13  21  13  22  13  23  13  24  13  25  13  26  13  27  13
M  ISO  8  28  13  29  13  30  14  31  14  32  14  33  14  34  14  38  14
M  END
>  <DihAtoms>  (1) 
5,17,34,35

>  <DihDeg>  (1) 
137.79465141664093

$$$$
