
     RDKit          3D

 29 31  0  0  0  0  0  0  0  0999 V2000
   46.2706   34.7462   43.2401 C   0  0  0  0  0  0  0  0  0  0  0  0
   45.3073   35.7404   43.5889 C   0  0  0  0  0  0  0  0  0  0  0  0
   44.6549   35.5743   44.8175 C   0  0  0  0  0  0  0  0  0  0  0  0
   44.9761   34.4998   45.5797 N   0  0  0  0  0  0  0  0  0  0  0  0
   45.9138   33.5852   45.1762 C   0  0  0  0  0  0  0  0  0  0  0  0
   46.5669   33.6797   44.0307 N   0  0  0  0  0  0  0  0  0  0  0  0
   46.2214   32.4357   46.0815 C   0  0  1  0  0  0  0  0  0  0  0  0
   47.0322   32.6811   47.3328 C   0  0  0  0  0  0  0  0  0  0  0  0
   45.5428   32.4850   47.3929 C   0  0  1  0  0  0  0  0  0  0  0  0
   44.8541   33.7189   47.7965 N   0  0  0  0  0  0  0  0  0  0  0  0
   46.9235   34.9614   41.9736 C   0  0  0  0  0  0  0  0  0  0  0  0
   48.0715   35.5123   41.8576 O   0  0  0  0  0  0  0  0  0  0  0  0
   45.1057   36.5568   42.9429 H   0  0  0  0  0  0  0  0  0  0  0  0
   43.9170   36.2830   45.1470 H   0  0  0  0  0  0  0  0  0  0  0  0
   46.3273   31.4570   45.5827 H   0  0  0  0  0  0  0  0  0  0  0  0
   47.4733   33.7075   47.3646 H   0  0  0  0  0  0  0  0  0  0  0  0
   47.7309   31.8550   47.5724 H   0  0  0  0  0  0  0  0  0  0  0  0
   45.2428   31.5623   47.9345 H   0  0  0  0  0  0  0  0  0  0  0  0
   43.8815   33.5241   48.1321 H   0  0  0  0  0  0  0  0  0  0  0  0
   45.4402   34.2011   48.5079 H   0  0  0  0  0  0  0  0  0  0  0  0
   46.2823   34.5467   40.7293 C   0  0  0  0  0  0  0  0  0  0  0  0
   46.2620   35.3802   39.6320 C   0  0  0  0  0  0  0  0  0  0  0  0
   45.6486   34.9498   38.4838 C   0  0  0  0  0  0  0  0  0  0  0  0
   45.6268   35.5950   37.6176 H   0  0  0  0  0  0  0  0  0  0  0  0
   45.0913   33.7348   38.4699 N   0  0  0  0  0  0  0  0  0  0  0  0
   45.0914   32.8963   39.5178 C   0  0  0  0  0  0  0  0  0  0  0  0
   45.6984   33.3376   40.6347 N   0  0  0  0  0  0  0  0  0  0  0  0
   46.7178   36.3716   39.6467 H   0  0  0  0  0  0  0  0  0  0  0  0
   44.6334   31.9084   39.4929 H   0  0  0  0  0  0  0  0  0  0  0  0
  1  2  2  0
  1  6  1  0
  2  3  1  0
  3  4  2  0
  5  4  1  0
  5  7  1  0
  6  5  2  0
  7  8  1  0
  7  9  1  0
  8  9  1  0
  9 10  1  0
 11  1  1  0
 12 11  2  0
  2 13  1  0
  3 14  1  0
  7 15  1  6
  8 16  1  0
  8 17  1  0
  9 18  1  1
 10 19  1  0
 10 20  1  0
 21 22  2  0
 22 23  1  0
 23 24  1  0
 23 25  2  0
 25 26  1  0
 26 27  2  0
 27 21  1  0
 22 28  1  0
 26 29  1  0
 11 21  1  0
M  ISO  8  13  14  14  14  15  13  16  13  17  13  18  13  19   5  20   5
M  ISO  1  24  14
M  END
>  <DihAtoms>  (1) 
0,10,20,21

>  <DihDeg>  (1) 
-179.9999943532932

$$$$
