
     RDKit          3D

 23 24  0  0  0  0  0  0  0  0999 V2000
   44.5550   36.1340   44.2860 C   0  0  0  0  0  0  0  0  0  0  0  0
   45.3740   35.9480   43.1500 C   0  0  0  0  0  0  0  0  0  0  0  0
   46.2470   34.8510   43.1820 C   0  0  0  0  0  0  0  0  0  0  0  0
   46.2520   34.0560   44.2700 N   0  0  0  0  0  0  0  0  0  0  0  0
   45.4470   34.2680   45.3440 C   0  0  0  0  0  0  0  0  0  0  0  0
   44.5920   35.3210   45.3430 N   0  0  0  0  0  0  0  0  0  0  0  0
   47.0780   34.6870   41.9920 C   0  0  0  0  0  0  0  0  0  0  0  0
   47.8830   33.5510   42.1620 F   0  0  0  0  0  0  0  0  0  0  0  0
   47.9480   35.7630   41.9590 F   0  0  0  0  0  0  0  0  0  0  0  0
   46.3670   34.5370   40.8370 F   0  0  0  0  0  0  0  0  0  0  0  0
   45.4730   33.3930   46.5070 C   0  0  0  0  0  0  0  0  0  0  0  0
   44.7800   33.6080   47.5190 O   0  0  0  0  0  0  0  0  0  0  0  0
   46.3250   32.2130   46.5280 C   0  0  0  0  0  0  0  0  0  0  0  0
   47.2390   32.0560   47.5500 C   0  0  0  0  0  0  0  0  0  0  0  0
   48.0840   30.9680   47.6440 C   0  0  0  0  0  0  0  0  0  0  0  0
   47.9900   30.0190   46.6700 N   0  0  0  0  0  0  0  0  0  0  0  0
   47.0950   30.1590   45.6580 C   0  0  0  0  0  0  0  0  0  0  0  0
   46.2860   31.2320   45.5950 N   0  0  0  0  0  0  0  0  0  0  0  0
   43.8577   36.9847   44.2995 H   0  0  0  0  0  0  0  0  0  0  0  0
   45.3293   36.6276   42.2862 H   0  0  0  0  0  0  0  0  0  0  0  0
   47.2971   32.8337   48.3257 H   0  0  0  0  0  0  0  0  0  0  0  0
   48.8032   30.8711   48.4706 H   0  0  0  0  0  0  0  0  0  0  0  0
   47.0308   29.3846   44.8794 H   0  0  0  0  0  0  0  0  0  0  0  0
  1  6  2  0
  2  3  2  0
  2  1  1  0
  3  4  1  0
  4  5  2  0
  5 11  1  0
  6  5  1  0
  7  8  1  0
  7  3  1  0
  9  7  1  0
 10  7  1  0
 11 13  1  0
 11 12  2  0
 13 14  2  0
 14 15  1  0
 16 15  2  0
 17 16  1  0
 18 17  2  0
 18 13  1  0
  1 19  1  0
  2 20  1  0
 14 21  1  0
 15 22  1  0
 17 23  1  0
M  ISO  5  19  14  20  14  21  14  22  14  23  14
M  END
>  <minimizedAffinity>  (1) 
-5.0809021

>  <minimizedRMSD>  (1) 
0.473621726

$$$$
