
     RDKit          3D

 41 43  0  0  1  0  0  0  0  0999 V2000
   45.4460   34.4920   42.2340 C   0  0  0  0  0  0  0  0  0  0  0  0
   46.5420   35.2340   41.7080 C   0  0  0  0  0  0  0  0  0  0  0  0
   47.8200   34.8550   42.1520 C   0  0  0  0  0  0  0  0  0  0  0  0
   47.9100   33.8380   43.0280 N   0  0  0  0  0  0  0  0  0  0  0  0
   46.8370   33.1650   43.5000 C   0  0  0  0  0  0  0  0  0  0  0  0
   45.5970   33.5020   43.0930 N   0  0  0  0  0  0  0  0  0  0  0  0
   43.8410   34.3570   40.5260 C   0  0  0  0  0  0  0  0  0  0  0  0
   44.7730   33.7730   39.8760 O   0  0  0  0  0  0  0  0  0  0  0  0
   44.1100   34.8180   41.8280 N   0  0  0  0  0  0  0  0  0  0  0  0
   42.5900   34.4960   39.8780 N   0  0  0  0  0  0  0  0  0  0  0  0
   42.4910   34.2700   38.4240 C   0  0  0  0  0  0  0  0  0  0  0  0
   41.3860   35.2010   38.0340 C   0  0  0  0  0  0  0  0  0  0  0  0
   40.8670   35.7980   39.3080 C   0  0  0  0  0  0  0  0  0  0  0  0
   41.2820   34.8120   40.3730 C   0  0  1  0  0  0  0  0  0  0  0  0
   39.8470   33.0700   41.6140 C   0  0  0  0  0  0  0  0  0  0  0  0
   39.8560   33.9360   42.5140 O   0  0  0  0  0  0  0  0  0  0  0  0
   40.4780   33.5980   40.4190 N   0  0  0  0  0  0  0  0  0  0  0  0
   39.3090   31.7420   41.6960 C   0  0  0  0  0  0  0  0  0  0  0  0
   38.0870   31.5480   41.0820 C   0  0  0  0  0  0  0  0  0  0  0  0
   37.5270   30.2760   41.1370 C   0  0  0  0  0  0  0  0  0  0  0  0
   38.0910   29.2340   41.7430 N   0  0  0  0  0  0  0  0  0  0  0  0
   39.2970   29.4640   42.3390 C   0  0  0  0  0  0  0  0  0  0  0  0
   39.8900   30.6940   42.3130 N   0  0  0  0  0  0  0  0  0  0  0  0
   48.9230   35.6310   41.5980 C   0  0  0  0  0  0  0  0  0  0  0  0
   50.1250   35.0440   41.9730 F   0  0  0  0  0  0  0  0  0  0  0  0
   48.9050   36.8840   42.2380 F   0  0  0  0  0  0  0  0  0  0  0  0
   48.8920   35.7440   40.2360 F   0  0  0  0  0  0  0  0  0  0  0  0
   46.3961   36.0579   40.9939 H   0  0  0  0  0  0  0  0  0  0  0  0
   46.9758   32.3420   44.2165 H   0  0  0  0  0  0  0  0  0  0  0  0
   43.4328   35.3255   42.4152 H   0  0  0  0  0  0  0  0  0  0  0  0
   43.4306   34.5308   37.9149 H   0  0  0  0  0  0  0  0  0  0  0  0
   42.3014   33.2212   38.1520 H   0  0  0  0  0  0  0  0  0  0  0  0
   41.7700   35.9913   37.3721 H   0  0  0  0  0  0  0  0  0  0  0  0
   40.5912   34.6708   37.4888 H   0  0  0  0  0  0  0  0  0  0  0  0
   41.3203   36.7835   39.4904 H   0  0  0  0  0  0  0  0  0  0  0  0
   39.7795   35.9616   39.2851 H   0  0  0  0  0  0  0  0  0  0  0  0
   41.1964   35.2131   41.3937 H   0  0  0  0  0  0  0  0  0  0  0  0
   40.3482   33.0771   39.5400 H   0  0  0  0  0  0  0  0  0  0  0  0
   37.5734   32.3727   40.5663 H   0  0  0  0  0  0  0  0  0  0  0  0
   36.5542   30.1212   40.6475 H   0  0  0  0  0  0  0  0  0  0  0  0
   39.8054   28.6359   42.8545 H   0  0  0  0  0  0  0  0  0  0  0  0
  1  6  2  0
  2  3  2  0
  2  1  1  0
  3  4  1  0
  4  5  2  0
  6  5  1  0
  7  9  1  0
  8  7  2  0
  9  1  1  0
 10 14  1  0
 10  7  1  0
 11 10  1  0
 12 11  1  0
 12 13  1  0
 13 14  1  0
 14 17  1  0
 15 18  1  0
 15 16  2  0
 17 15  1  0
 18 23  2  0
 19 20  2  0
 19 18  1  0
 20 21  1  0
 21 22  2  0
 23 22  1  0
 24 25  1  0
 24  3  1  0
 24 26  1  0
 27 24  1  0
  2 28  1  0
  5 29  1  0
  9 30  1  0
 11 31  1  0
 11 32  1  0
 12 33  1  0
 12 34  1  0
 13 35  1  0
 13 36  1  0
 14 37  1  1
 17 38  1  0
 19 39  1  0
 20 40  1  0
 22 41  1  0
M  ISO  8  28  14  29  14  31  13  32  13  33  13  34  13  35  13  36  13
M  ISO  4  37  13  39  14  40  14  41  14
M  END
>  <minimizedAffinity>  (1) 
-6.92092943

>  <minimizedRMSD>  (1) 
1.20914638

$$$$
