
     RDKit          3D

 25 27  0  0  0  0  0  0  0  0999 V2000
   44.5641   35.8768   44.4084 C   0  0  0  0  0  0  0  0  0  0  0  0
   45.3511   35.9410   43.2317 C   0  0  0  0  0  0  0  0  0  0  0  0
   46.3413   34.9867   43.0574 C   0  0  0  0  0  0  0  0  0  0  0  0
   46.5015   34.0494   44.0174 N   0  0  0  0  0  0  0  0  0  0  0  0
   45.7502   33.9935   45.1340 C   0  0  0  0  0  0  0  0  0  0  0  0
   44.7843   34.9229   45.3058 N   0  0  0  0  0  0  0  0  0  0  0  0
   47.2127   34.9505   41.8870 C   0  0  0  0  0  0  0  0  0  0  0  0
   46.9724   34.2175   40.7305 C   0  0  0  0  0  0  0  0  0  0  0  0
   48.0219   34.4405   39.8516 C   0  0  0  0  0  0  0  0  0  0  0  0
   48.8611   35.2850   40.4749 N   0  0  0  0  0  0  0  0  0  0  0  0
   48.3793   35.5813   41.6722 N   0  0  0  0  0  0  0  0  0  0  0  0
   43.8344   36.6677   44.4264 H   0  0  0  0  0  0  0  0  0  0  0  0
   45.2262   36.6892   42.4612 H   0  0  0  0  0  0  0  0  0  0  0  0
   45.8855   33.2374   45.8998 H   0  0  0  0  0  0  0  0  0  0  0  0
   46.1006   33.5847   40.5696 H   0  0  0  0  0  0  0  0  0  0  0  0
   48.0712   33.9846   38.8818 H   0  0  0  0  0  0  0  0  0  0  0  0
   50.0611   35.7285   39.8453 C   0  0  0  0  0  0  0  0  0  0  0  0
   50.1490   36.2962   38.5746 C   0  0  0  0  0  0  0  0  0  0  0  0
   51.4037   36.6770   38.1062 C   0  0  0  0  0  0  0  0  0  0  0  0
   51.3992   37.1146   37.1037 H   0  0  0  0  0  0  0  0  0  0  0  0
   52.5043   36.4999   38.8649 N   0  0  0  0  0  0  0  0  0  0  0  0
   52.3961   35.9481   40.0926 C   0  0  0  0  0  0  0  0  0  0  0  0
   51.1973   35.5643   40.5858 N   0  0  0  0  0  0  0  0  0  0  0  0
   49.2064   36.3864   38.0658 H   0  0  0  0  0  0  0  0  0  0  0  0
   53.3295   35.8329   40.6557 H   0  0  0  0  0  0  0  0  0  0  0  0
  1  6  2  0
  2  1  1  0
  3  2  2  0
  3  4  1  0
  4  5  2  0
  5  6  1  0
  7  3  1  0
  8  7  1  0
  9 10  1  0
  9  8  2  0
 10 11  1  0
 11  7  2  0
  1 12  1  0
  2 13  1  0
  5 14  1  0
  8 15  1  0
  9 16  1  0
 17 18  2  0
 18 19  1  0
 19 20  1  0
 19 21  2  0
 21 22  1  0
 22 23  2  0
 23 17  1  0
 18 24  1  0
 22 25  1  0
 10 17  1  0
M  ISO  6  12  14  13  14  14  14  15  14  16  14  20  14
M  END
>  <DihAtoms>  (1) 
8,9,16,17

>  <DihDeg>  (1) 
-82.90558635880542

$$$$
