
     RDKit          3D

 41 44  0  0  0  0  0  0  0  0999 V2000
   45.2855   35.2939   43.1263 Cl  0  0  0  0  0  0  0  0  0  0  0  0
   45.1647   34.5440   41.5540 C   0  0  0  0  0  0  0  0  0  0  0  0
   46.2738   34.1566   40.8740 C   0  0  0  0  0  0  0  0  0  0  0  0
   46.0710   33.5559   39.6394 C   0  0  0  0  0  0  0  0  0  0  0  0
   44.8142   33.3599   39.1213 C   0  0  0  0  0  0  0  0  0  0  0  0
   43.7185   33.7541   39.8169 C   0  0  0  0  0  0  0  0  0  0  0  0
   43.9041   34.3492   41.0411 C   0  0  0  0  0  0  0  0  0  0  0  0
   49.5436   35.7442   41.8884 C   0  0  0  0  0  0  0  0  0  0  0  0
   48.2819   35.5468   41.3107 C   0  0  0  0  0  0  0  0  0  0  0  0
   47.5789   34.3726   41.4661 C   0  0  0  0  0  0  0  0  0  0  0  0
   48.2082   33.4317   42.2204 N   0  0  0  0  0  0  0  0  0  0  0  0
   49.4084   33.6113   42.7739 C   0  0  0  0  0  0  0  0  0  0  0  0
   50.0661   34.7587   42.6065 N   0  0  0  0  0  0  0  0  0  0  0  0
   47.8022   31.8732   38.9917 C   0  0  0  0  0  0  0  0  0  0  0  0
   47.2345   33.1076   38.8748 C   0  0  0  0  0  0  0  0  0  0  0  0
   47.7596   34.0282   37.9828 C   0  0  0  0  0  0  0  0  0  0  0  0
   48.8517   33.7011   37.2142 C   0  0  0  0  0  0  0  0  0  0  0  0
   49.4620   32.4506   37.3022 C   0  0  0  0  0  0  0  0  0  0  0  0
   48.9115   31.5387   38.2120 C   0  0  0  0  0  0  0  0  0  0  0  0
   47.1661   30.7148   40.0331 S   0  0  0  0  0  0  0  0  0  0  0  0
   46.8057   29.4409   39.2951 O   0  0  0  0  0  0  0  0  0  0  0  0
   48.3907   30.2698   40.9071 O   0  0  0  0  0  0  0  0  0  0  0  0
   44.6944   32.8865   38.1486 H   0  0  0  0  0  0  0  0  0  0  0  0
   42.7447   33.5828   39.3775 H   0  0  0  0  0  0  0  0  0  0  0  0
   42.9950   34.6499   41.5660 H   0  0  0  0  0  0  0  0  0  0  0  0
   49.9839   36.7051   41.6897 H   0  0  0  0  0  0  0  0  0  0  0  0
   47.8170   36.3203   40.7184 H   0  0  0  0  0  0  0  0  0  0  0  0
   49.8446   32.8159   43.3613 H   0  0  0  0  0  0  0  0  0  0  0  0
   47.3431   35.0140   37.8587 H   0  0  0  0  0  0  0  0  0  0  0  0
   49.3427   34.3321   36.4916 H   0  0  0  0  0  0  0  0  0  0  0  0
   50.3036   32.1229   36.7463 H   0  0  0  0  0  0  0  0  0  0  0  0
   49.3609   30.5479   38.3110 H   0  0  0  0  0  0  0  0  0  0  0  0
   45.8706   30.9522   41.1297 C   0  0  0  0  0  0  0  0  0  0  0  0
   46.1815   31.0263   42.5170 C   0  0  0  0  0  0  0  0  0  0  0  0
   45.3537   31.2136   43.6318 C   0  0  0  0  0  0  0  0  0  0  0  0
   45.7589   31.2450   44.6256 H   0  0  0  0  0  0  0  0  0  0  0  0
   44.0675   31.3373   43.2714 N   0  0  0  0  0  0  0  0  0  0  0  0
   43.6723   31.2819   41.9942 C   0  0  0  0  0  0  0  0  0  0  0  0
   44.5425   31.0999   41.0131 N   0  0  0  0  0  0  0  0  0  0  0  0
   47.2486   30.9210   42.8095 H   0  0  0  0  0  0  0  0  0  0  0  0
   42.6169   31.3832   41.6936 H   0  0  0  0  0  0  0  0  0  0  0  0
  2  1  1  0
  3 10  1  0
  3  2  2  0
  4  3  1  0
  5  4  2  0
  5  6  1  0
  6  7  2  0
  7  2  1  0
  8 13  2  0
  9 10  2  0
  9  8  1  0
 10 11  1  0
 11 12  2  0
 13 12  1  0
 14 20  1  0
 15 14  1  0
 15  4  1  0
 16 15  2  0
 17 18  2  0
 17 16  1  0
 18 19  1  0
 19 14  2  0
 20 22  2  0
 21 20  2  0
  5 23  1  0
  6 24  1  0
  7 25  1  0
  8 26  1  0
  9 27  1  0
 12 28  1  0
 16 29  1  0
 17 30  1  0
 18 31  1  0
 19 32  1  0
 33 34  2  0
 34 35  1  0
 35 36  1  0
 35 37  2  0
 37 38  1  0
 38 39  2  0
 39 33  1  0
 34 40  1  0
 38 41  1  0
 20 33  1  0
M  ISO  8  23  14  24  14  25  14  26  14  27  14  28  14  29  14  30  14
M  ISO  3  31  14  32  14  36  14
M  END
>  <DihAtoms>  (1) 
13,19,32,33

>  <DihDeg>  (1) 
102.82374611036309

$$$$
