
     RDKit          3D

 34 35  0  0  0  0  0  0  0  0999 V2000
   43.5100   34.1060   40.8520 S   0  0  0  0  0  0  0  0  0  0  0  0
   40.7540   34.0850   40.6630 C   0  0  0  0  0  0  0  0  0  0  0  0
   41.8790   33.3680   41.0040 C   0  0  0  0  0  0  0  0  0  0  0  0
   41.7600   32.0630   41.4670 C   0  0  0  0  0  0  0  0  0  0  0  0
   40.4960   31.5490   41.5630 N   0  0  0  0  0  0  0  0  0  0  0  0
   39.4230   32.2860   41.2200 C   0  0  0  0  0  0  0  0  0  0  0  0
   39.5220   33.5290   40.7770 N   0  0  0  0  0  0  0  0  0  0  0  0
   38.1550   31.7360   41.3280 O   0  0  0  0  0  0  0  0  0  0  0  0
   37.8740   30.4110   41.0630 C   0  0  0  0  0  0  0  0  0  0  0  0
   37.7470   30.1560   39.7040 C   0  0  0  0  0  0  0  0  0  0  0  0
   37.4650   28.8740   39.2550 C   0  0  0  0  0  0  0  0  0  0  0  0
   37.3250   27.9100   40.1960 N   0  0  0  0  0  0  0  0  0  0  0  0
   37.4520   28.1790   41.4960 C   0  0  0  0  0  0  0  0  0  0  0  0
   37.7280   29.4220   41.9820 N   0  0  0  0  0  0  0  0  0  0  0  0
   43.5020   35.7260   41.6140 C   0  0  0  0  0  0  0  0  0  0  0  0
   43.3330   35.5340   43.0520 N   0  0  0  0  0  0  0  0  0  0  0  0
   44.7760   35.8540   43.9200 S   0  0  0  0  0  0  0  0  0  0  0  0
   45.9880   35.3220   43.2290 O   0  0  0  0  0  0  0  0  0  0  0  0
   44.8730   37.3700   44.0240 O   0  0  0  0  0  0  0  0  0  0  0  0
   44.6460   35.2630   45.4740 O   0  0  0  0  0  0  0  0  0  0  0  0
   45.3800   34.1180   45.6640 C   0  0  0  0  0  0  0  0  0  0  0  0
   40.8551   35.1168   40.2953 H   0  0  0  0  0  0  0  0  0  0  0  0
   42.6437   31.4694   41.7441 H   0  0  0  0  0  0  0  0  0  0  0  0
   37.8706   30.9746   38.9797 H   0  0  0  0  0  0  0  0  0  0  0  0
   37.3599   28.6505   38.1831 H   0  0  0  0  0  0  0  0  0  0  0  0
   37.3275   27.3546   42.2135 H   0  0  0  0  0  0  0  0  0  0  0  0
   44.4534   36.2403   41.4130 H   0  0  0  0  0  0  0  0  0  0  0  0
   42.6864   36.3416   41.2069 H   0  0  0  0  0  0  0  0  0  0  0  0
   42.5957   36.1702   43.3875 H   0  0  0  0  0  0  0  0  0  0  0  0
   46.6514   35.0308   43.9037 H   0  0  0  0  0  0  0  0  0  0  0  0
   44.8900   37.6349   44.9777 H   0  0  0  0  0  0  0  0  0  0  0  0
   45.4985   33.9331   46.7418 H   0  0  0  0  0  0  0  0  0  0  0  0
   44.8586   33.2672   45.2012 H   0  0  0  0  0  0  0  0  0  0  0  0
   46.3708   34.2366   45.2012 H   0  0  0  0  0  0  0  0  0  0  0  0
  1  3  1  0
  1 15  1  0
  2  7  2  0
  2  3  1  0
  3  4  2  0
  4  5  1  0
  6  8  1  0
  6  5  2  0
  7  6  1  0
  9  8  1  0
  9 14  1  0
 10  9  2  0
 11 10  1  0
 11 12  2  0
 12 13  1  0
 13 14  2  0
 15 16  1  0
 16 17  1  0
 17 19  1  0
 17 20  1  0
 18 17  1  0
 20 21  1  0
  2 22  1  0
  4 23  1  0
 10 24  1  0
 11 25  1  0
 13 26  1  0
 15 27  1  0
 15 28  1  0
 16 29  1  0
 18 30  1  0
 19 31  1  0
 21 32  1  0
 21 33  1  0
 21 34  1  0
M  ISO  8  22  14  23  14  24  14  25  14  26  14  27   8  28   8  29   5
M  ISO  5  30   3  31   3  32   8  33   8  34   8
M  END
>  <minimizedAffinity>  (1) 
-5.11495256

>  <minimizedRMSD>  (1) 
2.1640985

$$$$
