
     RDKit          3D

 38 40  0  0  1  0  0  0  0  0999 V2000
   42.8250   34.4950   38.7690 C   0  0  1  0  0  0  0  0  0  0  0  0
   42.9560   35.1780   40.1230 C   0  0  1  0  0  0  0  0  0  0  0  0
   41.6610   35.3910   40.6380 O   0  0  0  0  0  0  0  0  0  0  0  0
   40.7360   35.7130   39.6420 C   0  0  0  0  0  0  0  0  0  0  0  0
   40.4430   34.5350   38.7360 C   0  0  2  0  0  0  0  0  0  0  0  0
   41.6670   33.5570   38.8750 C   0  0  1  0  0  0  0  0  0  0  0  0
   42.6050   35.4440   37.7600 O   0  0  0  0  0  0  0  0  0  0  0  0
   40.4580   34.9520   37.4130 O   0  0  0  0  0  0  0  0  0  0  0  0
   43.4920   34.1960   40.9780 O   0  0  0  0  0  0  0  0  0  0  0  0
   44.5990   34.3450   41.7110 C   0  0  0  0  0  0  0  0  0  0  0  0
   45.8600   34.4470   41.1060 C   0  0  0  0  0  0  0  0  0  0  0  0
   46.9760   34.6020   41.9080 C   0  0  0  0  0  0  0  0  0  0  0  0
   46.8180   34.6530   43.2810 N   0  0  0  0  0  0  0  0  0  0  0  0
   45.5870   34.5520   43.8340 C   0  0  0  0  0  0  0  0  0  0  0  0
   44.4860   34.3990   43.0520 N   0  0  0  0  0  0  0  0  0  0  0  0
   48.3520   34.6970   41.3300 C   0  0  0  0  0  0  0  0  0  0  0  0
   49.0810   36.0270   41.5050 C   0  0  0  0  0  0  0  0  0  0  0  0
   49.5060   34.7020   42.1720 C   0  0  0  0  0  0  0  0  0  0  0  0
   41.5480   32.6260   37.9110 O   0  0  0  0  0  0  0  0  0  0  0  0
   40.8940   31.4410   37.9710 C   0  0  0  0  0  0  0  0  0  0  0  0
   39.6950   31.2760   37.4850 O   0  0  0  0  0  0  0  0  0  0  0  0
   40.8550   30.0960   38.3510 O   0  0  0  0  0  0  0  0  0  0  0  0
   43.7458   33.9535   38.5066 H   0  0  0  0  0  0  0  0  0  0  0  0
   43.5389   36.1076   40.0455 H   0  0  0  0  0  0  0  0  0  0  0  0
   39.7988   36.0357   40.1189 H   0  0  0  0  0  0  0  0  0  0  0  0
   41.1666   36.5161   39.0258 H   0  0  0  0  0  0  0  0  0  0  0  0
   39.4745   34.0849   38.9994 H   0  0  0  0  0  0  0  0  0  0  0  0
   41.7636   32.9685   39.7993 H   0  0  0  0  0  0  0  0  0  0  0  0
   42.4016   36.3214   38.1709 H   0  0  0  0  0  0  0  0  0  0  0  0
   40.4936   35.9408   37.3790 H   0  0  0  0  0  0  0  0  0  0  0  0
   45.9599   34.4044   40.0114 H   0  0  0  0  0  0  0  0  0  0  0  0
   45.4764   34.5942   44.9276 H   0  0  0  0  0  0  0  0  0  0  0  0
   48.0665   34.0630   40.4776 H   0  0  0  0  0  0  0  0  0  0  0  0
   49.6714   36.4569   40.6824 H   0  0  0  0  0  0  0  0  0  0  0  0
   48.8264   37.0458   41.8323 H   0  0  0  0  0  0  0  0  0  0  0  0
   49.3888   34.5763   43.2585 H   0  0  0  0  0  0  0  0  0  0  0  0
   50.4395   34.1207   42.1986 H   0  0  0  0  0  0  0  0  0  0  0  0
   40.0526   29.5497   38.1565 H   0  0  0  0  0  0  0  0  0  0  0  0
  1  6  1  0
  1  2  1  0
  2  3  1  0
  2  9  1  0
  4  3  1  0
  5  6  1  0
  5  4  1  0
  7  1  1  0
  8  5  1  0
  9 10  1  0
 10 15  1  0
 11 10  2  0
 11 12  1  0
 12 13  2  0
 13 14  1  0
 15 14  2  0
 16 17  1  0
 16 12  1  0
 16 18  1  0
 17 18  1  0
 19 20  1  0
 19  6  1  0
 20 22  1  0
 21 20  2  0
  1 23  1  6
  2 24  1  6
  4 25  1  0
  4 26  1  0
  5 27  1  1
  6 28  1  1
  7 29  1  0
  8 30  1  0
 11 31  1  0
 14 32  1  0
 16 33  1  0
 17 34  1  0
 17 35  1  0
 18 36  1  0
 18 37  1  0
 22 38  1  0
M  ISO  8  23  13  24  13  25  13  26  13  27  13  28  13  29   3  30   3
M  ISO  8  31  14  32  14  33  13  34  13  35  13  36  13  37  13  38   3
M  END
>  <minimizedAffinity>  (1) 
-5.69835043

>  <minimizedRMSD>  (1) 
0.0326800495

$$$$
