
     RDKit          3D

 36 38  0  0  0  0  0  0  0  0999 V2000
   47.5792   29.9832   48.2571 C   0  0  1  0  0  0  0  0  0  0  0  0
   47.4492   28.7798   47.3719 C   0  0  0  0  0  0  0  0  0  0  0  0
   48.7150   28.0049   47.1715 C   0  0  0  0  0  0  0  0  0  0  0  0
   49.5021   27.8303   48.4572 C   0  0  0  0  0  0  0  0  0  0  0  0
   49.6007   29.1107   49.2610 C   0  0  0  0  0  0  0  0  0  0  0  0
   49.0843   30.2716   48.4056 C   0  0  2  0  0  0  0  0  0  0  0  0
   45.9223   33.1527   46.2505 C   0  0  0  0  0  0  0  0  0  0  0  0
   45.3525   32.9493   47.5037 C   0  0  0  0  0  0  0  0  0  0  0  0
   45.8157   31.9414   48.2469 C   0  0  0  0  0  0  0  0  0  0  0  0
   46.8429   31.1185   47.7759 C   0  0  0  0  0  0  0  0  0  0  0  0
   47.1775   31.8322   46.1480 S   0  0  0  0  0  0  0  0  0  0  0  0
   44.4146   36.0983   44.5435 C   0  0  0  0  0  0  0  0  0  0  0  0
   45.0500   36.0129   43.2846 C   0  0  0  0  0  0  0  0  0  0  0  0
   45.9658   34.9483   43.0809 C   0  0  0  0  0  0  0  0  0  0  0  0
   46.1669   34.0857   44.1113 N   0  0  0  0  0  0  0  0  0  0  0  0
   45.5374   34.2111   45.2888 C   0  0  0  0  0  0  0  0  0  0  0  0
   44.6552   35.2190   45.5154 N   0  0  0  0  0  0  0  0  0  0  0  0
   49.2239   31.5178   49.2231 C   0  0  0  0  0  0  0  0  0  0  0  0
   49.9040   31.5983   50.2581 O   0  0  0  0  0  0  0  0  0  0  0  0
   47.2150   29.7319   49.2545 H   0  0  0  0  0  0  0  0  0  0  0  0
   47.0933   29.1094   46.3651 H   0  0  0  0  0  0  0  0  0  0  0  0
   46.6746   28.1068   47.7800 H   0  0  0  0  0  0  0  0  0  0  0  0
   48.4730   27.0038   46.7911 H   0  0  0  0  0  0  0  0  0  0  0  0
   49.3410   28.5050   46.3920 H   0  0  0  0  0  0  0  0  0  0  0  0
   50.5186   27.5356   48.1715 H   0  0  0  0  0  0  0  0  0  0  0  0
   49.0679   27.0257   49.0636 H   0  0  0  0  0  0  0  0  0  0  0  0
   50.6353   29.3362   49.5798 H   0  0  0  0  0  0  0  0  0  0  0  0
   48.9627   29.0649   50.1579 H   0  0  0  0  0  0  0  0  0  0  0  0
   49.5904   30.3316   47.4349 H   0  0  0  0  0  0  0  0  0  0  0  0
   44.5585   33.5959   47.8533 H   0  0  0  0  0  0  0  0  0  0  0  0
   45.4886   31.6473   49.2306 H   0  0  0  0  0  0  0  0  0  0  0  0
   43.7217   36.8994   44.7052 H   0  0  0  0  0  0  0  0  0  0  0  0
   44.8780   36.7092   42.4740 H   0  0  0  0  0  0  0  0  0  0  0  0
   46.4973   34.8047   42.1517 H   0  0  0  0  0  0  0  0  0  0  0  0
   48.5961   32.7132   48.8890 O   0  0  0  0  0  0  0  0  0  0  0  0
   47.9757   33.1881   49.5639 H   0  0  0  0  0  0  0  0  0  0  0  0
  1  6  1  0
  2  1  1  0
  3  2  1  0
  3  4  1  0
  4  5  1  0
  6 18  1  0
  6  5  1  0
  7  8  2  0
  8  9  1  0
 10  1  1  0
 10  9  2  0
 11  7  1  0
 11 10  1  0
 12 17  2  0
 13 12  1  0
 14 13  2  0
 14 15  1  0
 15 16  2  0
 16 17  1  0
 16  7  1  0
 18 19  2  0
  1 20  1  1
  2 21  1  0
  2 22  1  0
  3 23  1  0
  3 24  1  0
  4 25  1  0
  4 26  1  0
  5 27  1  0
  5 28  1  0
  6 29  1  6
  8 30  1  0
  9 31  1  0
 12 32  1  0
 13 33  1  0
 14 34  1  0
 35 36  1  0
 18 35  1  0
M  ISO  8  20  13  21  13  22  13  23  13  24  13  25  13  26  13  27  13
M  ISO  8  28  13  29  13  30  14  31  14  32  14  33  14  34  14  36   3
M  END
>  <DihAtoms>  (1) 
5,17,34,35

>  <DihDeg>  (1) 
-130.68058526548634

$$$$
