
     RDKit          3D

 17 17  0  0  0  0  0  0  0  0999 V2000
   45.6420   34.7620   44.3580 C   0  0  0  0  0  0  0  0  0  0  0  0
   45.2790   34.3790   45.6370 C   0  0  0  0  0  0  0  0  0  0  0  0
   45.9470   33.2900   46.1710 C   0  0  0  0  0  0  0  0  0  0  0  0
   46.8850   32.6910   45.4210 N   0  0  0  0  0  0  0  0  0  0  0  0
   47.2180   33.0850   44.1770 C   0  0  0  0  0  0  0  0  0  0  0  0
   46.5870   34.1460   43.6200 N   0  0  0  0  0  0  0  0  0  0  0  0
   44.1610   35.3540   42.6480 C   0  0  0  0  0  0  0  0  0  0  0  0
   44.1110   34.0870   42.6620 O   0  0  0  0  0  0  0  0  0  0  0  0
   45.0630   35.8740   43.6260 N   0  0  0  0  0  0  0  0  0  0  0  0
   43.4420   36.2080   41.7980 O   0  0  0  0  0  0  0  0  0  0  0  0
   44.2630   35.1380   46.2740 N   0  0  0  0  0  0  0  0  0  0  0  0
   45.7151   32.9257   47.1827 H   0  0  0  0  0  0  0  0  0  0  0  0
   47.9978   32.5483   43.6167 H   0  0  0  0  0  0  0  0  0  0  0  0
   45.2682   36.8707   43.7852 H   0  0  0  0  0  0  0  0  0  0  0  0
   43.5553   37.1888   41.8705 H   0  0  0  0  0  0  0  0  0  0  0  0
   43.9576   34.8926   47.2266 H   0  0  0  0  0  0  0  0  0  0  0  0
   43.8311   35.9342   45.7837 H   0  0  0  0  0  0  0  0  0  0  0  0
  1  2  2  0
  2  3  1  0
  2 11  1  0
  4  3  2  0
  5  4  1  0
  6  5  2  0
  6  1  1  0
  7  8  2  0
  7  9  1  0
  9  1  1  0
 10  7  1  0
  3 12  1  0
  5 13  1  0
  9 14  1  0
 10 15  1  0
 11 16  1  0
 11 17  1  0
M  ISO  3  12  14  13  14  15   3
M  END
>  <minimizedAffinity>  (1) 
-4.16841173

>  <minimizedRMSD>  (1) 
0.748282313

$$$$
