
     RDKit          3D

 21 22  0  0  0  0  0  0  0  0999 V2000
   46.0842   34.1498   41.0039 C   0  0  0  0  0  0  0  0  0  0  0  0
   46.6176   34.8259   42.0979 C   0  0  0  0  0  0  0  0  0  0  0  0
   47.9352   35.2777   41.9834 C   0  0  0  0  0  0  0  0  0  0  0  0
   48.6064   35.0336   40.8285 N   0  0  0  0  0  0  0  0  0  0  0  0
   48.0523   34.3810   39.8069 C   0  0  0  0  0  0  0  0  0  0  0  0
   46.7804   33.9305   39.8843 N   0  0  0  0  0  0  0  0  0  0  0  0
   45.8109   35.0361   43.2936 C   0  0  0  0  0  0  0  0  0  0  0  0
   45.0515   36.1766   43.4936 C   0  0  0  0  0  0  0  0  0  0  0  0
   44.4607   35.9728   44.7208 C   0  0  0  0  0  0  0  0  0  0  0  0
   44.8423   34.7737   45.2351 N   0  0  0  0  0  0  0  0  0  0  0  0
   45.6506   34.2374   44.3567 N   0  0  0  0  0  0  0  0  0  0  0  0
   44.7738   33.7000   41.1167 O   0  0  0  0  0  0  0  0  0  0  0  0
   43.7037   34.2049   40.4102 C   0  0  0  0  0  0  0  0  0  0  0  0
   43.2405   35.3888   40.4315 O   0  0  0  0  0  0  0  0  0  0  0  0
   48.3793   35.8130   42.8302 H   0  0  0  0  0  0  0  0  0  0  0  0
   48.5747   34.1792   38.8806 H   0  0  0  0  0  0  0  0  0  0  0  0
   44.9461   37.0289   42.8400 H   0  0  0  0  0  0  0  0  0  0  0  0
   43.7878   36.7301   45.1466 H   0  0  0  0  0  0  0  0  0  0  0  0
   44.4726   34.4810   46.1650 H   0  0  0  0  0  0  0  0  0  0  0  0
   42.7273   33.8125   39.4765 O   0  0  0  0  0  0  0  0  0  0  0  0
   41.8264   33.4285   39.7498 H   0  0  0  0  0  0  0  0  0  0  0  0
  1 12  1  0
  1  2  2  0
  2  7  1  0
  3  2  1  0
  4  3  2  0
  5  6  2  0
  5  4  1  0
  6  1  1  0
  7  8  1  0
  7 11  2  0
  8  9  2  0
  9 10  1  0
 11 10  1  0
 13 14  2  0
 13 12  1  0
  3 15  1  0
  5 16  1  0
  8 17  1  0
  9 18  1  0
 10 19  1  0
 20 21  1  0
 13 20  1  0
M  ISO  6  15  14  16  14  17  14  18  14  19   9  21   3
M  END
>  <DihAtoms>  (1) 
13,12,19,20

>  <DihDeg>  (1) 
-90.99398798644135

$$$$
