
     RDKit          3D

 30 32  0  0  0  0  0  0  0  0999 V2000
   42.4640   33.9240   41.0790 Cl  0  0  0  0  0  0  0  0  0  0  0  0
   44.0350   33.6890   40.3550 C   0  0  0  0  0  0  0  0  0  0  0  0
   45.1820   33.9400   41.0290 C   0  0  0  0  0  0  0  0  0  0  0  0
   46.3480   33.7150   40.3480 C   0  0  0  0  0  0  0  0  0  0  0  0
   46.4030   33.2650   39.0680 C   0  0  0  0  0  0  0  0  0  0  0  0
   45.2310   33.0150   38.3950 C   0  0  0  0  0  0  0  0  0  0  0  0
   44.0530   33.2310   39.0510 C   0  0  0  0  0  0  0  0  0  0  0  0
   44.7780   36.1720   44.0550 C   0  0  0  0  0  0  0  0  0  0  0  0
   44.8530   35.7410   42.7240 C   0  0  0  0  0  0  0  0  0  0  0  0
   45.0990   34.4200   42.3980 C   0  0  0  0  0  0  0  0  0  0  0  0
   45.2640   33.5620   43.4510 N   0  0  0  0  0  0  0  0  0  0  0  0
   45.1910   33.9840   44.7270 C   0  0  0  0  0  0  0  0  0  0  0  0
   44.9540   35.2550   45.0370 N   0  0  0  0  0  0  0  0  0  0  0  0
   47.6250   33.9830   41.0650 C   0  0  0  0  0  0  0  0  0  0  0  0
   48.2860   32.8860   41.6080 C   0  0  0  0  0  0  0  0  0  0  0  0
   49.4430   33.2390   42.2420 C   0  0  0  0  0  0  0  0  0  0  0  0
   49.9620   34.4930   42.3720 C   0  0  0  0  0  0  0  0  0  0  0  0
   49.2290   35.5340   41.7930 C   0  0  0  0  0  0  0  0  0  0  0  0
   48.0860   35.2100   41.1650 N   0  0  0  0  0  0  0  0  0  0  0  0
   49.5920   36.8590   41.8220 O   0  0  0  0  0  0  0  0  0  0  0  0
   47.3733   33.1026   38.5759 H   0  0  0  0  0  0  0  0  0  0  0  0
   45.2416   32.6511   37.3570 H   0  0  0  0  0  0  0  0  0  0  0  0
   43.1022   33.0372   38.5329 H   0  0  0  0  0  0  0  0  0  0  0  0
   44.5814   37.2270   44.2965 H   0  0  0  0  0  0  0  0  0  0  0  0
   44.7123   36.4739   41.9159 H   0  0  0  0  0  0  0  0  0  0  0  0
   45.3318   33.2548   45.5384 H   0  0  0  0  0  0  0  0  0  0  0  0
   47.9185   31.8518   41.5350 H   0  0  0  0  0  0  0  0  0  0  0  0
   50.0200   32.4211   42.6982 H   0  0  0  0  0  0  0  0  0  0  0  0
   50.9071   34.6763   42.9041 H   0  0  0  0  0  0  0  0  0  0  0  0
   49.0183   37.5390   41.3877 H   0  0  0  0  0  0  0  0  0  0  0  0
  2  3  2  0
  2  1  1  0
  3 10  1  0
  4  3  1  0
  4 14  1  0
  5  4  2  0
  6  7  2  0
  6  5  1  0
  7  2  1  0
  8 13  2  0
  9  8  1  0
 10  9  2  0
 10 11  1  0
 11 12  2  0
 12 13  1  0
 14 19  1  0
 14 15  2  0
 15 16  1  0
 16 17  2  0
 18 20  1  0
 18 17  1  0
 19 18  2  0
  5 21  1  0
  6 22  1  0
  7 23  1  0
  8 24  1  0
  9 25  1  0
 12 26  1  0
 15 27  1  0
 16 28  1  0
 17 29  1  0
 20 30  1  0
M  ISO  8  21  14  22  14  23  14  24  14  25  14  26  14  27  14  28  14
M  ISO  2  29  14  30   3
M  END
>  <minimizedAffinity>  (1) 
-5.45623684

>  <minimizedRMSD>  (1) 
0.2479534

$$$$
