
     RDKit          3D

 42 44  0  0  0  0  0  0  0  0999 V2000
   41.9039   35.2432   41.5289 C   0  0  0  0  0  0  0  0  0  0  0  0
   40.9620   36.0909   40.7415 C   0  0  0  0  0  0  0  0  0  0  0  0
   41.7683   36.2939   37.8115 Cl  0  0  0  0  0  0  0  0  0  0  0  0
   40.4694   35.3125   38.4049 C   0  0  0  0  0  0  0  0  0  0  0  0
   40.1825   35.2924   39.7761 C   0  0  0  0  0  0  0  0  0  0  0  0
   39.1342   34.4862   40.1659 C   0  0  0  0  0  0  0  0  0  0  0  0
   38.3396   33.6982   39.3458 C   0  0  0  0  0  0  0  0  0  0  0  0
   38.6484   33.7394   37.9931 C   0  0  0  0  0  0  0  0  0  0  0  0
   37.6900   32.7692   36.8796 Cl  0  0  0  0  0  0  0  0  0  0  0  0
   39.6856   34.5281   37.5508 C   0  0  0  0  0  0  0  0  0  0  0  0
   43.5195   35.0589   40.7798 S   0  0  0  0  0  0  0  0  0  0  0  0
   44.8023   34.7127   41.9854 C   0  0  0  0  0  0  0  0  0  0  0  0
   46.1016   34.5408   41.4835 C   0  0  0  0  0  0  0  0  0  0  0  0
   47.1343   34.2698   42.3807 C   0  0  0  0  0  0  0  0  0  0  0  0
   46.8179   34.1884   43.6910 N   0  0  0  0  0  0  0  0  0  0  0  0
   45.5763   34.3526   44.1706 C   0  0  0  0  0  0  0  0  0  0  0  0
   44.5847   34.6138   43.2999 N   0  0  0  0  0  0  0  0  0  0  0  0
   45.3415   34.2457   45.5933 C   0  0  0  0  0  0  0  0  0  0  0  0
   44.5340   35.0381   46.1339 O   0  0  0  0  0  0  0  0  0  0  0  0
   41.4286   34.2262   41.6512 H   0  0  0  0  0  0  0  0  0  0  0  0
   41.9625   35.6560   42.5745 H   0  0  0  0  0  0  0  0  0  0  0  0
   40.2579   36.6299   41.4371 H   0  0  0  0  0  0  0  0  0  0  0  0
   41.4848   36.8768   40.1611 H   0  0  0  0  0  0  0  0  0  0  0  0
   38.9039   34.4644   41.2304 H   0  0  0  0  0  0  0  0  0  0  0  0
   37.5416   33.1049   39.7711 H   0  0  0  0  0  0  0  0  0  0  0  0
   39.9033   34.5393   36.4842 H   0  0  0  0  0  0  0  0  0  0  0  0
   46.3772   34.6019   40.4375 H   0  0  0  0  0  0  0  0  0  0  0  0
   48.1435   34.1333   42.0205 H   0  0  0  0  0  0  0  0  0  0  0  0
   45.9485   33.3073   46.4727 N   0  0  0  0  0  0  0  0  0  0  0  0
   45.8420   33.5715   47.8956 C   0  0  2  0  0  0  0  0  0  0  0  0
   45.1739   34.4017   48.1188 H   0  0  0  0  0  0  0  0  0  0  0  0
   45.2294   32.3124   48.5109 C   0  0  1  0  0  0  0  0  0  0  0  0
   45.3802   32.4054   49.6070 H   0  0  0  0  0  0  0  0  0  0  0  0
   45.8763   31.1659   48.1198 O   0  0  0  0  0  0  0  0  0  0  0  0
   45.9169   30.9554   46.7649 C   0  0  0  0  0  0  0  0  0  0  0  0
   46.6661   32.1077   46.0832 C   0  0  0  0  0  0  0  0  0  0  0  0
   46.8586   33.6358   48.3285 H   0  0  0  0  0  0  0  0  0  0  0  0
   44.1288   32.2975   48.3661 H   0  0  0  0  0  0  0  0  0  0  0  0
   46.5814   30.0668   46.6050 H   0  0  0  0  0  0  0  0  0  0  0  0
   44.9496   30.7573   46.2950 H   0  0  0  0  0  0  0  0  0  0  0  0
   47.6405   32.1602   46.6274 H   0  0  0  0  0  0  0  0  0  0  0  0
   46.7433   31.9450   45.0107 H   0  0  0  0  0  0  0  0  0  0  0  0
  2  1  1  0
  3  4  1  0
  4  5  2  0
  5  6  1  0
  5  2  1  0
  7  6  2  0
  8  7  1  0
  9  8  1  0
 10  8  2  0
 10  4  1  0
 11  1  1  0
 11 12  1  0
 12 17  1  0
 13 12  2  0
 13 14  1  0
 14 15  2  0
 15 16  1  0
 16 18  1  0
 17 16  2  0
 18 19  2  0
  1 20  1  0
  1 21  1  0
  2 22  1  0
  2 23  1  0
  6 24  1  0
  7 25  1  0
 10 26  1  0
 13 27  1  0
 14 28  1  0
 29 30  1  0
 30 31  1  6
 30 32  1  0
 32 33  1  1
 32 34  1  0
 34 35  1  0
 35 36  1  0
 36 29  1  0
 30 37  1  0
 32 38  1  0
 35 39  1  0
 35 40  1  0
 36 41  1  0
 36 42  1  0
 18 29  1  0
M  ISO  8  20   8  21   8  22   8  23   8  24  14  25  14  26  14  27  14
M  ISO  3  28  14  31   8  33  15
M  END
>  <DihAtoms>  (1) 
15,17,28,29

>  <DihDeg>  (1) 
179.9992726555075

$$$$
