
     RDKit          3D

 50 53  0  0  0  0  0  0  0  0999 V2000
   47.8734   32.9206   41.8210 C   0  0  1  0  0  0  0  0  0  0  0  0
   47.5692   32.1835   40.5942 C   0  0  0  0  0  0  0  0  0  0  0  0
   48.5925   32.6388   39.5558 C   0  0  0  0  0  0  0  0  0  0  0  0
   48.2457   34.0606   39.2059 C   0  0  0  0  0  0  0  0  0  0  0  0
   48.1644   34.9828   40.3886 C   0  0  0  0  0  0  0  0  0  0  0  0
   47.6560   34.4296   41.6582 C   0  0  1  0  0  0  0  0  0  0  0  0
   45.4779   31.0984   44.1048 C   0  0  0  0  0  0  0  0  0  0  0  0
   46.1599   31.5704   42.9768 C   0  0  0  0  0  0  0  0  0  0  0  0
   47.2222   32.4752   43.0353 C   0  0  0  0  0  0  0  0  0  0  0  0
   47.5659   32.8815   44.2578 N   0  0  0  0  0  0  0  0  0  0  0  0
   46.9109   32.4307   45.3628 C   0  0  0  0  0  0  0  0  0  0  0  0
   45.8926   31.5620   45.3001 N   0  0  0  0  0  0  0  0  0  0  0  0
   46.2665   34.8060   41.9173 C   0  0  0  0  0  0  0  0  0  0  0  0
   45.8048   35.4945   43.0441 C   0  0  0  0  0  0  0  0  0  0  0  0
   44.4389   35.7669   43.0822 C   0  0  0  0  0  0  0  0  0  0  0  0
   43.6630   35.3400   42.0181 C   0  0  0  0  0  0  0  0  0  0  0  0
   44.1415   34.6625   40.9185 C   0  0  0  0  0  0  0  0  0  0  0  0
   45.4813   34.4039   40.8969 N   0  0  0  0  0  0  0  0  0  0  0  0
   43.2334   34.2566   39.8503 C   0  0  0  0  0  0  0  0  0  0  0  0
   42.3680   35.0806   39.4515 O   0  0  0  0  0  0  0  0  0  0  0  0
   48.9903   32.8632   42.0065 H   0  0  0  0  0  0  0  0  0  0  0  0
   46.5842   32.4214   40.1346 H   0  0  0  0  0  0  0  0  0  0  0  0
   47.6458   31.1081   40.7611 H   0  0  0  0  0  0  0  0  0  0  0  0
   49.6324   32.5410   39.9136 H   0  0  0  0  0  0  0  0  0  0  0  0
   48.3883   32.0191   38.6586 H   0  0  0  0  0  0  0  0  0  0  0  0
   47.2769   34.0352   38.6601 H   0  0  0  0  0  0  0  0  0  0  0  0
   48.9828   34.4527   38.4907 H   0  0  0  0  0  0  0  0  0  0  0  0
   47.5020   35.8295   40.0803 H   0  0  0  0  0  0  0  0  0  0  0  0
   49.1666   35.4546   40.5058 H   0  0  0  0  0  0  0  0  0  0  0  0
   48.2359   34.8888   42.5029 H   0  0  0  0  0  0  0  0  0  0  0  0
   44.6657   30.3989   43.9847 H   0  0  0  0  0  0  0  0  0  0  0  0
   45.8686   31.2312   41.9871 H   0  0  0  0  0  0  0  0  0  0  0  0
   47.2053   32.7727   46.3456 H   0  0  0  0  0  0  0  0  0  0  0  0
   46.5153   35.7566   43.7783 H   0  0  0  0  0  0  0  0  0  0  0  0
   44.0553   36.2978   43.9412 H   0  0  0  0  0  0  0  0  0  0  0  0
   42.6015   35.5471   42.0392 H   0  0  0  0  0  0  0  0  0  0  0  0
   43.0775   33.0655   39.0942 N   0  0  0  0  0  0  0  0  0  0  0  0
   43.7855   31.9416   39.7180 C   0  0  1  0  0  0  0  0  0  0  0  0
   44.8157   31.8469   39.2967 H   0  0  0  0  0  0  0  0  0  0  0  0
   43.0227   30.6835   39.2933 C   0  0  1  0  0  0  0  0  0  0  0  0
   43.3771   30.2899   38.3341 H   0  0  0  0  0  0  0  0  0  0  0  0
   41.6577   30.9231   39.3215 O   0  0  0  0  0  0  0  0  0  0  0  0
   41.2552   31.7608   38.2767 C   0  0  0  0  0  0  0  0  0  0  0  0
   42.4059   32.6461   37.8535 C   0  0  0  0  0  0  0  0  0  0  0  0
   43.8221   31.9942   40.8042 H   0  0  0  0  0  0  0  0  0  0  0  0
   43.2176   29.8960   40.0671 H   0  0  0  0  0  0  0  0  0  0  0  0
   40.3377   32.3170   38.5404 H   0  0  0  0  0  0  0  0  0  0  0  0
   40.9702   31.0883   37.4158 H   0  0  0  0  0  0  0  0  0  0  0  0
   42.0350   33.4981   37.2649 H   0  0  0  0  0  0  0  0  0  0  0  0
   43.1064   32.0040   37.2648 H   0  0  0  0  0  0  0  0  0  0  0  0
  1  9  1  0
  2  1  1  0
  3  2  1  0
  4  3  1  0
  4  5  1  0
  5  6  1  0
  6  1  1  0
  6 13  1  0
  7 12  2  0
  8  9  2  0
  8  7  1  0
  9 10  1  0
 10 11  2  0
 12 11  1  0
 13 14  2  0
 14 15  1  0
 16 15  2  0
 17 16  1  0
 18 17  2  0
 18 13  1  0
 19 17  1  0
 20 19  2  0
  1 21  1  1
  2 22  1  0
  2 23  1  0
  3 24  1  0
  3 25  1  0
  4 26  1  0
  4 27  1  0
  5 28  1  0
  5 29  1  0
  6 30  1  1
  7 31  1  0
  8 32  1  0
 11 33  1  0
 14 34  1  0
 15 35  1  0
 16 36  1  0
 37 38  1  0
 38 39  1  6
 38 40  1  0
 40 41  1  6
 40 42  1  0
 42 43  1  0
 43 44  1  0
 44 37  1  0
 38 45  1  0
 40 46  1  0
 43 47  1  0
 43 48  1  0
 44 49  1  0
 44 50  1  0
 19 37  1  0
M  ISO  8  21  13  22  13  23  13  24  13  25  13  26  13  27  13  28  13
M  ISO  8  29  13  30  13  31  14  32  14  33  14  34  14  35  14  36  14
M  ISO  2  39   8  41  15
M  END
>  <DihAtoms>  (1) 
16,18,36,37

>  <DihDeg>  (1) 
-179.80749352700855

$$$$
