
     RDKit          3D

 34 35  0  0  0  0  0  0  0  0999 V2000
   48.0780   32.9068   41.8957 O   0  0  0  0  0  0  0  0  0  0  0  0
   47.1800   34.0213   41.3134 P   0  0  2  0  0  0  0  0  0  0  0  0
   45.6055   33.8137   41.9290 O   0  0  0  0  0  0  0  0  0  0  0  0
   44.3608   35.9154   44.6391 C   0  0  0  0  0  0  0  0  0  0  0  0
   44.6589   35.4702   43.3296 C   0  0  0  0  0  0  0  0  0  0  0  0
   45.3232   34.2317   43.2125 C   0  0  0  0  0  0  0  0  0  0  0  0
   45.6367   33.5441   44.3337 N   0  0  0  0  0  0  0  0  0  0  0  0
   45.3317   34.0089   45.5688 C   0  0  0  0  0  0  0  0  0  0  0  0
   44.6948   35.1923   45.7260 N   0  0  0  0  0  0  0  0  0  0  0  0
   47.1821   33.9523   39.6693 O   0  0  0  0  0  0  0  0  0  0  0  0
   46.5043   33.0637   38.8800 C   0  0  0  0  0  0  0  0  0  0  0  0
   45.9625   33.4434   37.7624 O   0  0  0  0  0  0  0  0  0  0  0  0
   47.7865   35.4561   41.9081 O   0  0  0  0  0  0  0  0  0  0  0  0
   49.0434   35.7663   41.4110 C   0  0  0  0  0  0  0  0  0  0  0  0
   49.4570   37.0529   41.7364 F   0  0  0  0  0  0  0  0  0  0  0  0
   49.9451   34.8198   41.7747 F   0  0  0  0  0  0  0  0  0  0  0  0
   48.9155   35.7623   40.0184 F   0  0  0  0  0  0  0  0  0  0  0  0
   43.8571   36.8524   44.7501 H   0  0  0  0  0  0  0  0  0  0  0  0
   44.3804   36.0685   42.4787 H   0  0  0  0  0  0  0  0  0  0  0  0
   45.6542   33.3334   46.3574 H   0  0  0  0  0  0  0  0  0  0  0  0
   45.8086   32.2507   38.0257 N   0  0  0  0  0  0  0  0  0  0  0  0
   46.0164   31.0896   37.2589 C   0  0  1  0  0  0  0  0  0  0  0  0
   45.9826   31.4075   36.1776 H   0  0  0  0  0  0  0  0  0  0  0  0
   44.9892   30.0077   37.5158 C   0  0  1  0  0  0  0  0  0  0  0  0
   45.0355   29.3617   36.6155 H   0  0  0  0  0  0  0  0  0  0  0  0
   43.6991   30.4972   37.5927 O   0  0  0  0  0  0  0  0  0  0  0  0
   43.5580   31.5915   38.4038 C   0  0  0  0  0  0  0  0  0  0  0  0
   44.4266   32.6907   37.8306 C   0  0  0  0  0  0  0  0  0  0  0  0
   47.0033   30.6331   37.3936 H   0  0  0  0  0  0  0  0  0  0  0  0
   45.2684   29.3721   38.3792 H   0  0  0  0  0  0  0  0  0  0  0  0
   42.4713   31.8591   38.3854 H   0  0  0  0  0  0  0  0  0  0  0  0
   43.8717   31.4105   39.4496 H   0  0  0  0  0  0  0  0  0  0  0  0
   44.2326   32.7105   36.7392 H   0  0  0  0  0  0  0  0  0  0  0  0
   44.2094   33.6758   38.2868 H   0  0  0  0  0  0  0  0  0  0  0  0
  2  1  2  0
  2  3  1  1
  2 13  1  0
  3  6  1  0
  4  9  2  0
  5  4  1  0
  6  5  2  0
  6  7  1  0
  7  8  2  0
  8  9  1  0
 10  2  1  0
 11 10  1  0
 12 11  2  0
 14 16  1  0
 14 15  1  0
 14 13  1  0
 17 14  1  0
  4 18  1  0
  5 19  1  0
  8 20  1  0
 21 22  1  0
 22 23  1  6
 22 24  1  0
 24 25  1  6
 24 26  1  0
 26 27  1  0
 27 28  1  0
 28 21  1  0
 22 29  1  0
 24 30  1  0
 27 31  1  0
 27 32  1  0
 28 33  1  0
 28 34  1  0
 11 21  1  0
M  ISO  5  18  14  19  14  20  14  23   8  25  15
M  END
>  <DihAtoms>  (1) 
9,10,20,21

>  <DihDeg>  (1) 
0.033997963114795214

$$$$
