
     RDKit          3D

 32 34  0  0  0  0  0  0  0  0999 V2000
   46.2604   34.3795   41.3561 C   0  0  1  0  0  0  0  0  0  0  0  0
   47.6551   34.7044   40.9717 C   0  0  2  0  0  0  0  0  0  0  0  0
   47.2519   33.2923   41.1490 C   0  0  0  0  0  0  0  0  0  0  0  0
   45.2069   35.9506   42.9440 C   0  0  0  0  0  0  0  0  0  0  0  0
   45.7500   34.6946   42.7204 C   0  0  0  0  0  0  0  0  0  0  0  0
   45.7911   33.7639   43.7691 C   0  0  0  0  0  0  0  0  0  0  0  0
   45.2793   34.1623   44.9820 N   0  0  0  0  0  0  0  0  0  0  0  0
   44.7583   35.3901   45.1687 C   0  0  0  0  0  0  0  0  0  0  0  0
   44.7163   36.3057   44.1419 N   0  0  0  0  0  0  0  0  0  0  0  0
   48.5252   35.3029   41.9812 C   0  0  0  0  0  0  0  0  0  0  0  0
   49.2134   36.1966   41.5919 O   0  0  0  0  0  0  0  0  0  0  0  0
   45.4779   34.5191   40.5866 H   0  0  0  0  0  0  0  0  0  0  0  0
   47.7304   35.0617   39.9050 H   0  0  0  0  0  0  0  0  0  0  0  0
   47.6680   32.7199   42.0029 H   0  0  0  0  0  0  0  0  0  0  0  0
   47.1476   32.6198   40.2542 H   0  0  0  0  0  0  0  0  0  0  0  0
   45.1294   36.7344   42.2037 H   0  0  0  0  0  0  0  0  0  0  0  0
   46.2144   32.7860   43.5930 H   0  0  0  0  0  0  0  0  0  0  0  0
   44.4125   35.5039   46.1870 H   0  0  0  0  0  0  0  0  0  0  0  0
   49.4039   35.9514   42.8758 N   0  0  0  0  0  0  0  0  0  0  0  0
   49.5525   36.0148   44.2924 C   0  0  1  0  0  0  0  0  0  0  0  0
   48.7768   35.5110   44.8779 H   0  0  0  0  0  0  0  0  0  0  0  0
   49.5313   37.4864   44.7131 C   0  0  2  0  0  0  0  0  0  0  0  0
   49.5819   37.5267   45.8173 H   0  0  0  0  0  0  0  0  0  0  0  0
   50.5785   38.1782   44.1102 O   0  0  0  0  0  0  0  0  0  0  0  0
   50.2583   38.2022   42.7364 C   0  0  0  0  0  0  0  0  0  0  0  0
   50.4482   36.7796   42.2542 C   0  0  0  0  0  0  0  0  0  0  0  0
   50.5342   35.6049   44.6418 H   0  0  0  0  0  0  0  0  0  0  0  0
   48.6027   37.9332   44.3140 H   0  0  0  0  0  0  0  0  0  0  0  0
   49.1718   38.4332   42.5899 H   0  0  0  0  0  0  0  0  0  0  0  0
   50.8777   38.9140   42.1852 H   0  0  0  0  0  0  0  0  0  0  0  0
   51.4326   36.3899   42.6052 H   0  0  0  0  0  0  0  0  0  0  0  0
   50.3851   36.8110   41.1650 H   0  0  0  0  0  0  0  0  0  0  0  0
  1  5  1  0
  2  3  1  0
  2  1  1  0
  2 10  1  0
  3  1  1  0
  4  9  2  0
  5  4  1  0
  5  6  2  0
  6  7  1  0
  7  8  2  0
  9  8  1  0
 11 10  2  0
  1 12  1  6
  2 13  1  6
  3 14  1  0
  3 15  1  0
  4 16  1  0
  6 17  1  0
  8 18  1  0
 19 20  1  0
 20 21  1  1
 20 22  1  0
 22 23  1  1
 22 24  1  0
 24 25  1  0
 25 26  1  0
 26 19  1  0
 20 27  1  0
 22 28  1  0
 25 29  1  0
 25 30  1  0
 26 31  1  0
 26 32  1  0
 10 19  1  0
M  ISO  8  12  13  13  13  14  13  15  13  16  14  17  14  18  14  21   8
M  ISO  1  23  15
M  END
>  <DihAtoms>  (1) 
1,9,18,19

>  <DihDeg>  (1) 
-0.2611803085392907

$$$$
