
     RDKit          3D

 34 36  0  0  0  0  0  0  0  0999 V2000
   45.2742   36.1639   43.1796 C   0  0  0  0  0  0  0  0  0  0  0  0
   45.8749   34.9109   42.9001 C   0  0  0  0  0  0  0  0  0  0  0  0
   45.8223   33.9447   43.9022 C   0  0  0  0  0  0  0  0  0  0  0  0
   45.2189   34.2229   45.0740 N   0  0  0  0  0  0  0  0  0  0  0  0
   44.6483   35.4451   45.3107 C   0  0  0  0  0  0  0  0  0  0  0  0
   44.6935   36.3715   44.3621 N   0  0  0  0  0  0  0  0  0  0  0  0
   46.4346   32.6517   43.6317 C   0  0  0  0  0  0  0  0  0  0  0  0
   45.6564   31.5738   43.2936 C   0  0  0  0  0  0  0  0  0  0  0  0
   46.2880   30.3714   43.0473 C   0  0  0  0  0  0  0  0  0  0  0  0
   47.6612   30.1929   43.1223 C   0  0  0  0  0  0  0  0  0  0  0  0
   48.3830   31.3095   43.4652 C   0  0  0  0  0  0  0  0  0  0  0  0
   47.7662   32.4836   43.7057 N   0  0  0  0  0  0  0  0  0  0  0  0
   46.4942   34.6856   41.6439 C   0  0  0  0  0  0  0  0  0  0  0  0
   47.6543   35.1304   41.4706 O   0  0  0  0  0  0  0  0  0  0  0  0
   45.3073   36.9304   42.4049 H   0  0  0  0  0  0  0  0  0  0  0  0
   44.1650   35.6745   46.2431 H   0  0  0  0  0  0  0  0  0  0  0  0
   44.5843   31.6947   43.2305 H   0  0  0  0  0  0  0  0  0  0  0  0
   45.6040   29.5621   42.7848 H   0  0  0  0  0  0  0  0  0  0  0  0
   48.0653   29.2182   42.9132 H   0  0  0  0  0  0  0  0  0  0  0  0
   49.4642   31.2044   43.5331 H   0  0  0  0  0  0  0  0  0  0  0  0
   45.8858   33.9865   40.5633 N   0  0  0  0  0  0  0  0  0  0  0  0
   45.7599   32.5382   40.5863 C   0  0  1  0  0  0  0  0  0  0  0  0
   46.1216   32.1789   41.5563 H   0  0  0  0  0  0  0  0  0  0  0  0
   46.6678   32.0386   39.4678 C   0  0  1  0  0  0  0  0  0  0  0  0
   47.6808   31.9078   39.9506 H   0  0  0  0  0  0  0  0  0  0  0  0
   46.8337   32.9780   38.4835 O   0  0  0  0  0  0  0  0  0  0  0  0
   45.7478   33.7683   38.2072 C   0  0  0  0  0  0  0  0  0  0  0  0
   45.3594   34.6551   39.3873 C   0  0  0  0  0  0  0  0  0  0  0  0
   44.7070   32.2279   40.4131 H   0  0  0  0  0  0  0  0  0  0  0  0
   46.3781   31.0284   39.1194 H   0  0  0  0  0  0  0  0  0  0  0  0
   46.0341   34.4636   37.4058 H   0  0  0  0  0  0  0  0  0  0  0  0
   44.9292   33.1563   37.8338 H   0  0  0  0  0  0  0  0  0  0  0  0
   45.7130   35.6834   39.2740 H   0  0  0  0  0  0  0  0  0  0  0  0
   44.2570   34.5650   39.4602 H   0  0  0  0  0  0  0  0  0  0  0  0
  1  6  2  0
  2  1  1  0
  2  3  2  0
  3  4  1  0
  4  5  2  0
  6  5  1  0
  7 12  1  0
  7  3  1  0
  8  7  2  0
  9 10  2  0
  9  8  1  0
 10 11  1  0
 11 12  2  0
 13  2  1  0
 14 13  2  0
  1 15  1  0
  5 16  1  0
  8 17  1  0
  9 18  1  0
 10 19  1  0
 11 20  1  0
 21 22  1  0
 22 23  1  1
 22 24  1  0
 24 25  1  1
 24 26  1  0
 26 27  1  0
 27 28  1  0
 28 21  1  0
 22 29  1  0
 24 30  1  0
 27 31  1  0
 27 32  1  0
 28 33  1  0
 28 34  1  0
 13 21  1  0
M  ISO  8  15  14  16  14  17  14  18  14  19  14  20  14  23   8  25  15
M  END
>  <DihAtoms>  (1) 
1,12,20,21

>  <DihDeg>  (1) 
-179.9976446075578

$$$$
