
     RDKit          3D

 32 34  0  0  0  0  0  0  0  0999 V2000
   46.2604   34.3795   41.3561 C   0  0  1  0  0  0  0  0  0  0  0  0
   47.6551   34.7044   40.9717 C   0  0  2  0  0  0  0  0  0  0  0  0
   47.2519   33.2923   41.1490 C   0  0  0  0  0  0  0  0  0  0  0  0
   45.2069   35.9506   42.9440 C   0  0  0  0  0  0  0  0  0  0  0  0
   45.7500   34.6946   42.7204 C   0  0  0  0  0  0  0  0  0  0  0  0
   45.7911   33.7639   43.7691 C   0  0  0  0  0  0  0  0  0  0  0  0
   45.2793   34.1623   44.9820 N   0  0  0  0  0  0  0  0  0  0  0  0
   44.7583   35.3901   45.1687 C   0  0  0  0  0  0  0  0  0  0  0  0
   44.7163   36.3057   44.1419 N   0  0  0  0  0  0  0  0  0  0  0  0
   48.5252   35.3029   41.9812 C   0  0  0  0  0  0  0  0  0  0  0  0
   49.2134   36.1966   41.5919 O   0  0  0  0  0  0  0  0  0  0  0  0
   45.4779   34.5191   40.5866 H   0  0  0  0  0  0  0  0  0  0  0  0
   47.7304   35.0617   39.9050 H   0  0  0  0  0  0  0  0  0  0  0  0
   47.6680   32.7199   42.0029 H   0  0  0  0  0  0  0  0  0  0  0  0
   47.1476   32.6198   40.2542 H   0  0  0  0  0  0  0  0  0  0  0  0
   45.1294   36.7344   42.2037 H   0  0  0  0  0  0  0  0  0  0  0  0
   46.2144   32.7860   43.5930 H   0  0  0  0  0  0  0  0  0  0  0  0
   44.4125   35.5039   46.1870 H   0  0  0  0  0  0  0  0  0  0  0  0
   49.4039   35.9514   42.8758 N   0  0  0  0  0  0  0  0  0  0  0  0
   50.5242   36.8244   42.7511 C   0  0  1  0  0  0  0  0  0  0  0  0
   50.8727   37.0129   41.7305 H   0  0  0  0  0  0  0  0  0  0  0  0
   51.7024   36.2068   43.5082 C   0  0  2  0  0  0  0  0  0  0  0  0
   52.5851   36.8552   43.3543 H   0  0  0  0  0  0  0  0  0  0  0  0
   51.3866   36.0547   44.8558 O   0  0  0  0  0  0  0  0  0  0  0  0
   50.3887   35.0579   44.8876 C   0  0  0  0  0  0  0  0  0  0  0  0
   49.1520   35.7080   44.3042 C   0  0  0  0  0  0  0  0  0  0  0  0
   50.3444   37.8262   43.2181 H   0  0  0  0  0  0  0  0  0  0  0  0
   51.8521   35.1851   43.1144 H   0  0  0  0  0  0  0  0  0  0  0  0
   50.6498   34.2178   44.1938 H   0  0  0  0  0  0  0  0  0  0  0  0
   50.2214   34.6798   45.8992 H   0  0  0  0  0  0  0  0  0  0  0  0
   48.9844   36.7005   44.7848 H   0  0  0  0  0  0  0  0  0  0  0  0
   48.3250   35.0197   44.4870 H   0  0  0  0  0  0  0  0  0  0  0  0
  1  5  1  0
  2  3  1  0
  2  1  1  0
  2 10  1  0
  3  1  1  0
  4  9  2  0
  5  4  1  0
  5  6  2  0
  6  7  1  0
  7  8  2  0
  9  8  1  0
 11 10  2  0
  1 12  1  6
  2 13  1  6
  3 14  1  0
  3 15  1  0
  4 16  1  0
  6 17  1  0
  8 18  1  0
 19 20  1  0
 20 21  1  6
 20 22  1  0
 22 23  1  1
 22 24  1  0
 24 25  1  0
 25 26  1  0
 26 19  1  0
 20 27  1  0
 22 28  1  0
 25 29  1  0
 25 30  1  0
 26 31  1  0
 26 32  1  0
 10 19  1  0
M  ISO  8  12  13  13  13  14  13  15  13  16  14  17  14  18  14  21   8
M  ISO  1  23  15
M  END
>  <DihAtoms>  (1) 
1,9,18,19

>  <DihDeg>  (1) 
-0.2611803085392907

$$$$
