
     RDKit          3D

 41 44  0  0  0  0  0  0  0  0999 V2000
   45.2174   36.1714   43.4942 C   0  0  0  0  0  0  0  0  0  0  0  0
   45.8707   34.9680   43.1623 C   0  0  0  0  0  0  0  0  0  0  0  0
   45.8116   33.9999   44.1392 C   0  0  0  0  0  0  0  0  0  0  0  0
   45.1839   34.1801   45.3158 N   0  0  0  0  0  0  0  0  0  0  0  0
   44.5702   35.3652   45.5794 C   0  0  0  0  0  0  0  0  0  0  0  0
   44.5924   36.3460   44.6701 N   0  0  0  0  0  0  0  0  0  0  0  0
   46.4441   32.7566   43.8925 C   0  0  0  0  0  0  0  0  0  0  0  0
   47.7130   32.2783   44.0177 C   0  0  0  0  0  0  0  0  0  0  0  0
   48.0180   31.0377   43.7031 C   0  0  0  0  0  0  0  0  0  0  0  0
   47.0331   30.2334   43.2458 C   0  0  0  0  0  0  0  0  0  0  0  0
   45.5822   31.3307   43.2712 S   0  0  0  0  0  0  0  0  0  0  0  0
   46.5185   34.8283   41.9073 C   0  0  0  0  0  0  0  0  0  0  0  0
   47.7195   35.2510   41.8626 O   0  0  0  0  0  0  0  0  0  0  0  0
   45.7964   34.2181   40.7426 C   0  0  0  0  0  0  0  0  0  0  0  0
   44.4372   34.3239   40.4942 C   0  0  0  0  0  0  0  0  0  0  0  0
   44.2267   33.6318   39.3577 N   0  0  0  0  0  0  0  0  0  0  0  0
   45.4066   33.1294   38.9371 C   0  0  0  0  0  0  0  0  0  0  0  0
   46.3872   33.4929   39.7978 N   0  0  0  0  0  0  0  0  0  0  0  0
   45.7312   32.3313   37.7985 N   0  0  0  0  0  0  0  0  0  0  0  0
   45.2221   36.9829   42.7709 H   0  0  0  0  0  0  0  0  0  0  0  0
   44.0836   35.4419   46.5469 H   0  0  0  0  0  0  0  0  0  0  0  0
   48.4413   33.0218   44.4013 H   0  0  0  0  0  0  0  0  0  0  0  0
   48.9966   30.5826   43.7732 H   0  0  0  0  0  0  0  0  0  0  0  0
   46.9859   29.1994   42.9190 H   0  0  0  0  0  0  0  0  0  0  0  0
   43.6986   34.8371   41.0655 H   0  0  0  0  0  0  0  0  0  0  0  0
   45.1018   31.4848   37.7090 H   0  0  0  0  0  0  0  0  0  0  0  0
   46.4939   32.5236   37.1072 H   0  0  0  0  0  0  0  0  0  0  0  0
   43.6943   33.2244   36.7456 H   0  0  0  0  0  0  0  0  0  0  0  0
   43.0315   33.8668   37.2628 N   0  0  0  0  0  0  0  0  0  0  0  0
   42.9939   33.4257   38.6644 C   0  0  2  0  0  0  0  0  0  0  0  0
   41.8042   34.0461   39.3293 C   0  0  2  0  0  0  0  0  0  0  0  0
   42.0545   34.4571   40.3196 H   0  0  0  0  0  0  0  0  0  0  0  0
   41.2750   35.0618   38.5382 O   0  0  0  0  0  0  0  0  0  0  0  0
   40.7641   34.5611   37.3431 C   0  0  0  0  0  0  0  0  0  0  0  0
   41.6949   33.5014   36.7630 C   0  0  0  0  0  0  0  0  0  0  0  0
   42.7585   32.3307   38.5729 H   0  0  0  0  0  0  0  0  0  0  0  0
   40.9659   33.3338   39.5131 H   0  0  0  0  0  0  0  0  0  0  0  0
   39.7663   34.1439   37.5782 H   0  0  0  0  0  0  0  0  0  0  0  0
   40.7133   35.3474   36.5711 H   0  0  0  0  0  0  0  0  0  0  0  0
   41.6659   33.4475   35.6676 H   0  0  0  0  0  0  0  0  0  0  0  0
   41.3751   32.5404   37.2444 H   0  0  0  0  0  0  0  0  0  0  0  0
  1  6  2  0
  2  1  1  0
  2  3  2  0
  3  4  1  0
  4  5  2  0
  6  5  1  0
  7  8  2  0
  7  3  1  0
  9  8  1  0
 10 11  1  0
 10  9  2  0
 11  7  1  0
 12  2  1  0
 13 12  2  0
 14 12  1  0
 15 14  2  0
 16 15  1  0
 17 16  1  0
 17 18  2  0
 18 14  1  0
 19 17  1  0
  1 20  1  0
  5 21  1  0
  8 22  1  0
  9 23  1  0
 10 24  1  0
 15 25  1  0
 19 26  1  0
 19 27  1  0
 28 29  1  0
 29 30  1  0
 30 31  1  0
 31 32  1  1
 31 33  1  0
 33 34  1  0
 34 35  1  0
 35 29  1  0
 30 36  1  6
 31 37  1  0
 34 38  1  0
 34 39  1  0
 35 40  1  0
 35 41  1  0
 16 30  1  0
M  ISO  8  20  14  21  14  22  14  23  14  24  14  25  14  28   5  32  15
M  END
>  <DihAtoms>  (1) 
14,15,29,28

>  <DihDeg>  (1) 
-116.2546368237174

$$$$
