
     RDKit          3D

 48 51  0  0  1  0  0  0  0  0999 V2000
   47.4780   33.6950   43.0070 N   0  0  0  0  0  0  0  0  0  0  0  0
   48.1570   34.0910   41.7910 C   0  0  0  0  0  0  0  0  0  0  0  0
   48.1560   32.7630   41.0890 C   0  0  2  0  0  0  0  0  0  0  0  0
   48.6880   31.8540   42.1720 C   0  0  0  0  0  0  0  0  0  0  0  0
   48.0570   32.4280   43.4180 C   0  0  0  0  0  0  0  0  0  0  0  0
   44.7330   35.9810   44.0670 C   0  0  0  0  0  0  0  0  0  0  0  0
   45.7270   35.4290   43.2660 C   0  0  0  0  0  0  0  0  0  0  0  0
   46.4560   34.3330   43.7240 C   0  0  0  0  0  0  0  0  0  0  0  0
   46.1350   33.8600   44.9650 N   0  0  0  0  0  0  0  0  0  0  0  0
   45.1800   34.3870   45.7390 C   0  0  0  0  0  0  0  0  0  0  0  0
   44.4720   35.4530   45.2950 N   0  0  0  0  0  0  0  0  0  0  0  0
   49.0780   32.7050   39.9940 N   0  0  0  0  0  0  0  0  0  0  0  0
   49.2730   31.7800   37.6890 C   0  0  0  0  0  0  0  0  0  0  0  0
   48.9090   32.7900   38.5980 C   0  0  0  0  0  0  0  0  0  0  0  0
   48.3590   33.8960   37.9980 C   0  0  0  0  0  0  0  0  0  0  0  0
   48.1520   34.0780   36.6590 C   0  0  0  0  0  0  0  0  0  0  0  0
   48.5220   33.0660   35.7990 C   0  0  0  0  0  0  0  0  0  0  0  0
   49.0800   31.9270   36.3340 C   0  0  0  0  0  0  0  0  0  0  0  0
   49.4510   30.8980   35.4190 N   0  0  0  0  0  0  0  0  0  0  0  0
   48.5700   29.8690   34.9030 C   0  0  0  0  0  0  0  0  0  0  0  0
   48.9400   29.4580   33.4930 C   0  0  0  0  0  0  0  0  0  0  0  0
   50.2610   29.1160   33.3330 O   0  0  0  0  0  0  0  0  0  0  0  0
   50.9340   29.2800   34.5280 C   0  0  0  0  0  0  0  0  0  0  0  0
   50.8070   30.7660   34.8870 C   0  0  0  0  0  0  0  0  0  0  0  0
   50.3220   29.6190   38.6860 N   0  0  0  0  0  0  0  0  0  0  0  0
   49.8600   30.5800   38.2380 C   0  0  0  0  0  0  0  0  0  0  0  0
   47.5952   34.8546   41.2331 H   0  0  0  0  0  0  0  0  0  0  0  0
   49.1439   34.5575   41.9266 H   0  0  0  0  0  0  0  0  0  0  0  0
   47.1668   32.5229   40.6721 H   0  0  0  0  0  0  0  0  0  0  0  0
   48.3711   30.8133   42.0090 H   0  0  0  0  0  0  0  0  0  0  0  0
   49.7866   31.8169   42.2135 H   0  0  0  0  0  0  0  0  0  0  0  0
   48.8175   32.5867   44.1967 H   0  0  0  0  0  0  0  0  0  0  0  0
   47.3014   31.7512   43.8435 H   0  0  0  0  0  0  0  0  0  0  0  0
   44.1563   36.8461   43.7078 H   0  0  0  0  0  0  0  0  0  0  0  0
   45.9371   35.8560   42.2743 H   0  0  0  0  0  0  0  0  0  0  0  0
   44.9709   33.9575   46.7298 H   0  0  0  0  0  0  0  0  0  0  0  0
   50.0576   32.5756   40.2848 H   0  0  0  0  0  0  0  0  0  0  0  0
   48.0542   34.7185   38.6618 H   0  0  0  0  0  0  0  0  0  0  0  0
   47.7024   35.0068   36.2781 H   0  0  0  0  0  0  0  0  0  0  0  0
   48.3751   33.1661   34.7135 H   0  0  0  0  0  0  0  0  0  0  0  0
   48.6326   28.9872   35.5576 H   0  0  0  0  0  0  0  0  0  0  0  0
   47.5487   30.2770   34.8804 H   0  0  0  0  0  0  0  0  0  0  0  0
   48.3232   28.5911   33.2136 H   0  0  0  0  0  0  0  0  0  0  0  0
   48.7610   30.3338   32.8519 H   0  0  0  0  0  0  0  0  0  0  0  0
   50.4777   28.6575   35.3117 H   0  0  0  0  0  0  0  0  0  0  0  0
   51.9876   28.9761   34.4410 H   0  0  0  0  0  0  0  0  0  0  0  0
   51.5518   31.0480   35.6458 H   0  0  0  0  0  0  0  0  0  0  0  0
   50.9835   31.4225   34.0222 H   0  0  0  0  0  0  0  0  0  0  0  0
  1  5  1  0
  1  8  1  0
  2  1  1  0
  3  2  1  0
  3  4  1  0
  4  5  1  0
  6 11  2  0
  7  8  2  0
  7  6  1  0
  8  9  1  0
  9 10  2  0
 11 10  1  0
 12  3  1  0
 13 26  1  0
 13 14  2  0
 14 12  1  0
 15 14  1  0
 16 15  2  0
 17 18  2  0
 17 16  1  0
 18 13  1  0
 19 18  1  0
 20 19  1  0
 21 20  1  0
 22 21  1  0
 22 23  1  0
 23 24  1  0
 24 19  1  0
 26 25  3  0
  2 27  1  0
  2 28  1  0
  3 29  1  6
  4 30  1  0
  4 31  1  0
  5 32  1  0
  5 33  1  0
  6 34  1  0
  7 35  1  0
 10 36  1  0
 12 37  1  0
 15 38  1  0
 16 39  1  0
 17 40  1  0
 20 41  1  0
 20 42  1  0
 21 43  1  0
 21 44  1  0
 23 45  1  0
 23 46  1  0
 24 47  1  0
 24 48  1  0
M  ISO  8  27  13  28  13  29  13  30  13  31  13  32  13  33  13  34  14
M  ISO  8  35  14  36  14  38  14  39  14  40  14  41  13  42  13  43  13
M  ISO  5  44  13  45  13  46  13  47  13  48  13
M  END
>  <minimizedAffinity>  (1) 
-4.676682

>  <minimizedRMSD>  (1) 
0.88277787

$$$$
