
     RDKit          3D

 44 47  0  0  1  0  0  0  0  0999 V2000
   46.1930   30.9030   46.7820 C   0  0  0  0  0  0  0  0  0  0  0  0
   45.9680   31.5550   48.1230 C   0  0  1  0  0  0  0  0  0  0  0  0
   45.7220   30.6410   49.2740 C   0  0  0  0  0  0  0  0  0  0  0  0
   46.9710   31.3750   49.2000 C   0  0  1  0  0  0  0  0  0  0  0  0
   48.2850   30.7910   48.8340 C   0  0  0  0  0  0  0  0  0  0  0  0
   49.1800   30.4260   50.0460 C   0  0  0  0  0  0  0  0  0  0  0  0
   49.5210   31.6170   49.2260 C   0  0  0  0  0  0  0  0  0  0  0  0
   45.7560   33.1220   46.0760 C   0  0  0  0  0  0  0  0  0  0  0  0
   46.0600   31.9470   45.6800 C   0  0  0  0  0  0  0  0  0  0  0  0
   44.5590   36.0910   44.2540 C   0  0  0  0  0  0  0  0  0  0  0  0
   45.3440   36.1090   43.1080 C   0  0  0  0  0  0  0  0  0  0  0  0
   46.2610   35.1060   43.0060 C   0  0  0  0  0  0  0  0  0  0  0  0
   46.3470   34.1990   43.9770 N   0  0  0  0  0  0  0  0  0  0  0  0
   45.6020   34.1740   45.0730 C   0  0  0  0  0  0  0  0  0  0  0  0
   44.7060   35.1430   45.1910 N   0  0  0  0  0  0  0  0  0  0  0  0
   47.1510   34.9580   41.9110 N   0  0  0  0  0  0  0  0  0  0  0  0
   48.4970   35.4650   41.7770 C   0  0  0  0  0  0  0  0  0  0  0  0
   49.5020   34.3410   41.6910 C   0  0  0  0  0  0  0  0  0  0  0  0
   48.9950   33.2250   41.0420 O   0  0  0  0  0  0  0  0  0  0  0  0
   47.9980   33.5270   40.1370 C   0  0  0  0  0  0  0  0  0  0  0  0
   46.8150   34.2380   40.7110 C   0  0  0  0  0  0  0  0  0  0  0  0
   47.2016   30.4649   46.7521 H   0  0  0  0  0  0  0  0  0  0  0  0
   45.4444   30.1117   46.6292 H   0  0  0  0  0  0  0  0  0  0  0  0
   45.4747   32.4265   47.6679 H   0  0  0  0  0  0  0  0  0  0  0  0
   44.9739   30.9068   50.0353 H   0  0  0  0  0  0  0  0  0  0  0  0
   45.4522   29.5795   49.3764 H   0  0  0  0  0  0  0  0  0  0  0  0
   47.4939   31.9992   49.9396 H   0  0  0  0  0  0  0  0  0  0  0  0
   47.9313   30.2948   47.9182 H   0  0  0  0  0  0  0  0  0  0  0  0
   48.7969   30.5566   51.0688 H   0  0  0  0  0  0  0  0  0  0  0  0
   49.7236   29.5233   50.3615 H   0  0  0  0  0  0  0  0  0  0  0  0
   50.4143   31.5997   48.5844 H   0  0  0  0  0  0  0  0  0  0  0  0
   49.6947   32.6797   49.4506 H   0  0  0  0  0  0  0  0  0  0  0  0
   45.6135   33.3373   47.1453 H   0  0  0  0  0  0  0  0  0  0  0  0
   46.2150   31.7053   44.6181 H   0  0  0  0  0  0  0  0  0  0  0  0
   43.7987   36.8731   44.3962 H   0  0  0  0  0  0  0  0  0  0  0  0
   45.2327   36.8822   42.3336 H   0  0  0  0  0  0  0  0  0  0  0  0
   48.5611   36.0734   40.8628 H   0  0  0  0  0  0  0  0  0  0  0  0
   48.7294   36.0706   42.6654 H   0  0  0  0  0  0  0  0  0  0  0  0
   50.3850   34.6984   41.1410 H   0  0  0  0  0  0  0  0  0  0  0  0
   49.7593   34.0428   42.7181 H   0  0  0  0  0  0  0  0  0  0  0  0
   47.6461   32.5852   39.6907 H   0  0  0  0  0  0  0  0  0  0  0  0
   48.4457   34.2172   39.4068 H   0  0  0  0  0  0  0  0  0  0  0  0
   46.4316   34.9497   39.9650 H   0  0  0  0  0  0  0  0  0  0  0  0
   46.0560   33.4842   40.9673 H   0  0  0  0  0  0  0  0  0  0  0  0
  1  2  1  0
  2  4  1  0
  2  3  1  0
  4  3  1  0
  5  4  1  0
  5  7  1  0
  5  6  1  0
  7  6  1  0
  9  8  2  0
  9  1  1  0
 10 15  2  0
 11 10  1  0
 12 11  2  0
 12 13  1  0
 13 14  2  0
 14 15  1  0
 14  8  1  0
 16 12  1  0
 17 16  1  0
 18 17  1  0
 19 18  1  0
 20 21  1  0
 20 19  1  0
 21 16  1  0
  1 22  1  0
  1 23  1  0
  2 24  1  6
  3 25  1  0
  3 26  1  0
  4 27  1  1
  5 28  1  0
  6 29  1  0
  6 30  1  0
  7 31  1  0
  7 32  1  0
  8 33  1  0
  9 34  1  0
 10 35  1  0
 11 36  1  0
 17 37  1  0
 17 38  1  0
 18 39  1  0
 18 40  1  0
 20 41  1  0
 20 42  1  0
 21 43  1  0
 21 44  1  0
M  ISO  8  22   8  23   8  24  13  25  13  26  13  27  13  28  13  29  13
M  ISO  8  30  13  31  13  32  13  35  14  36  14  37  13  38  13  39  13
M  ISO  5  40  13  41  13  42  13  43  13  44  13
M  END
>  <minimizedAffinity>  (1) 
-5.62985754

>  <minimizedRMSD>  (1) 
0.762221158

$$$$
