
     RDKit          3D

 48 50  0  0  0  0  0  0  0  0999 V2000
   44.6803   35.2884   45.0701 O   0  0  0  0  0  0  0  0  0  0  0  0
   45.4903   34.2490   44.3337 P   0  0  2  0  0  0  0  0  0  0  0  0
   44.5319   33.0527   43.6438 O   0  0  0  0  0  0  0  0  0  0  0  0
   46.5185   33.4658   45.4098 O   0  0  0  0  0  0  0  0  0  0  0  0
   46.2141   32.1429   45.4283 C   0  0  0  0  0  0  0  0  0  0  0  0
   45.7401   32.0379   49.1134 C   0  0  0  0  0  0  0  0  0  0  0  0
   46.0425   32.5143   47.8277 C   0  0  0  0  0  0  0  0  0  0  0  0
   45.8972   31.6439   46.7725 C   0  0  0  0  0  0  0  0  0  0  0  0
   45.4705   30.3770   47.0301 N   0  0  0  0  0  0  0  0  0  0  0  0
   45.1872   29.9420   48.2705 C   0  0  0  0  0  0  0  0  0  0  0  0
   45.3235   30.7752   49.3022 N   0  0  0  0  0  0  0  0  0  0  0  0
   46.4134   35.0316   43.1667 O   0  0  0  0  0  0  0  0  0  0  0  0
   46.9299   34.0936   42.2893 C   0  0  1  0  0  0  0  0  0  0  0  0
   46.3964   34.2662   40.8786 C   0  0  0  0  0  0  0  0  0  0  0  0
   47.3320   33.3776   40.0930 C   0  0  0  0  0  0  0  0  0  0  0  0
   48.6237   33.3525   40.8627 C   0  0  0  0  0  0  0  0  0  0  0  0
   48.4136   34.2861   42.0430 C   0  0  1  0  0  0  0  0  0  0  0  0
   48.7689   35.7065   41.7195 C   0  0  0  0  0  0  0  0  0  0  0  0
   43.7097   33.4660   43.2837 H   0  0  0  0  0  0  0  0  0  0  0  0
   45.4631   31.7733   44.7336 H   0  0  0  0  0  0  0  0  0  0  0  0
   47.1675   31.6076   45.1285 H   0  0  0  0  0  0  0  0  0  0  0  0
   45.8640   32.7479   49.9285 H   0  0  0  0  0  0  0  0  0  0  0  0
   46.3803   33.5457   47.7052 H   0  0  0  0  0  0  0  0  0  0  0  0
   44.8580   28.9181   48.3860 H   0  0  0  0  0  0  0  0  0  0  0  0
   46.7204   33.0597   42.5832 H   0  0  0  0  0  0  0  0  0  0  0  0
   45.3977   33.7563   40.8759 H   0  0  0  0  0  0  0  0  0  0  0  0
   46.3477   35.2945   40.5313 H   0  0  0  0  0  0  0  0  0  0  0  0
   46.9136   32.3799   39.8904 H   0  0  0  0  0  0  0  0  0  0  0  0
   47.5163   33.9006   39.1171 H   0  0  0  0  0  0  0  0  0  0  0  0
   48.8209   32.3239   41.2353 H   0  0  0  0  0  0  0  0  0  0  0  0
   49.4851   33.7124   40.2412 H   0  0  0  0  0  0  0  0  0  0  0  0
   48.9128   33.9105   42.9578 H   0  0  0  0  0  0  0  0  0  0  0  0
   49.8557   35.7263   41.4717 H   0  0  0  0  0  0  0  0  0  0  0  0
   48.2566   35.9725   40.7602 H   0  0  0  0  0  0  0  0  0  0  0  0
   48.4667   36.6555   42.6928 N   0  0  0  0  0  0  0  0  0  0  0  0
   47.9951   37.9112   42.3021 C   0  0  2  0  0  0  0  0  0  0  0  0
   47.2099   37.7718   41.5159 H   0  0  0  0  0  0  0  0  0  0  0  0
   47.3956   38.7770   43.3599 C   0  0  1  0  0  0  0  0  0  0  0  0
   48.1657   39.3246   43.9531 H   0  0  0  0  0  0  0  0  0  0  0  0
   46.7067   37.9654   44.2601 O   0  0  0  0  0  0  0  0  0  0  0  0
   47.7112   37.2488   44.9471 C   0  0  0  0  0  0  0  0  0  0  0  0
   48.2806   36.2119   44.0270 C   0  0  0  0  0  0  0  0  0  0  0  0
   48.7598   38.5610   41.7834 H   0  0  0  0  0  0  0  0  0  0  0  0
   46.6782   39.5061   42.9216 H   0  0  0  0  0  0  0  0  0  0  0  0
   48.4568   37.9829   45.2689 H   0  0  0  0  0  0  0  0  0  0  0  0
   47.2443   36.7842   45.8313 H   0  0  0  0  0  0  0  0  0  0  0  0
   49.2524   35.8647   44.4348 H   0  0  0  0  0  0  0  0  0  0  0  0
   47.5945   35.3370   44.0312 H   0  0  0  0  0  0  0  0  0  0  0  0
  2  1  2  0
  2  4  1  1
  3  2  1  0
  4  5  1  0
  5  8  1  0
  6 11  2  0
  7  6  1  0
  8  9  1  0
  8  7  2  0
  9 10  2  0
 10 11  1  0
 12  2  1  0
 13 12  1  0
 14 13  1  0
 15 16  1  0
 15 14  1  0
 16 17  1  0
 17 13  1  0
 18 17  1  0
  3 19  1  0
  5 20  1  0
  5 21  1  0
  6 22  1  0
  7 23  1  0
 10 24  1  0
 13 25  1  1
 14 26  1  0
 14 27  1  0
 15 28  1  0
 15 29  1  0
 16 30  1  0
 16 31  1  0
 17 32  1  1
 18 33  1  0
 18 34  1  0
 35 36  1  0
 36 37  1  6
 36 38  1  0
 38 39  1  1
 38 40  1  0
 40 41  1  0
 41 42  1  0
 42 35  1  0
 36 43  1  0
 38 44  1  0
 41 45  1  0
 41 46  1  0
 42 47  1  0
 42 48  1  0
 18 35  1  0
M  ISO  8  19   3  20   8  21   8  22  14  23  14  24  14  25  13  26  13
M  ISO  8  27  13  28  13  29  13  30  13  31  13  32  13  33   8  34   8
M  ISO  2  37   8  39  15
M  END
>  <DihAtoms>  (1) 
16,17,34,35

>  <DihDeg>  (1) 
68.14486213566535

$$$$
