
     RDKit          3D

 44 47  0  0  0  0  0  0  0  0999 V2000
   45.6010   34.1730   40.7500 C   0  0  0  0  0  0  0  0  0  0  0  0
   44.2390   34.2540   40.5830 C   0  0  0  0  0  0  0  0  0  0  0  0
   43.9620   33.5870   39.4420 N   0  0  0  0  0  0  0  0  0  0  0  0
   45.1240   33.1220   38.9390 C   0  0  0  0  0  0  0  0  0  0  0  0
   46.1340   33.4770   39.7370 N   0  0  0  0  0  0  0  0  0  0  0  0
   45.3820   32.3540   37.7610 N   0  0  0  0  0  0  0  0  0  0  0  0
   42.6970   33.3690   38.8000 C   0  0  0  0  0  0  0  0  0  0  0  0
   41.6680   34.0180   39.5710 N   0  0  0  0  0  0  0  0  0  0  0  0
   40.5130   33.1750   39.7000 C   0  0  0  0  0  0  0  0  0  0  0  0
   39.5260   33.8550   40.6200 C   0  0  0  0  0  0  0  0  0  0  0  0
   39.1330   35.0720   40.0560 O   0  0  0  0  0  0  0  0  0  0  0  0
   40.2510   35.8990   39.9900 C   0  0  0  0  0  0  0  0  0  0  0  0
   41.2960   35.2920   39.0610 C   0  0  0  0  0  0  0  0  0  0  0  0
   46.3880   34.7630   41.8790 C   0  0  0  0  0  0  0  0  0  0  0  0
   47.5960   35.1410   41.7750 O   0  0  0  0  0  0  0  0  0  0  0  0
   45.1710   36.1390   43.4990 C   0  0  0  0  0  0  0  0  0  0  0  0
   45.7980   34.9310   43.1540 C   0  0  0  0  0  0  0  0  0  0  0  0
   45.7720   33.9740   44.1530 C   0  0  0  0  0  0  0  0  0  0  0  0
   45.2040   34.1710   45.3450 N   0  0  0  0  0  0  0  0  0  0  0  0
   44.6100   35.3690   45.6210 C   0  0  0  0  0  0  0  0  0  0  0  0
   44.6000   36.3410   44.6930 N   0  0  0  0  0  0  0  0  0  0  0  0
   46.3870   32.7130   43.8870 C   0  0  0  0  0  0  0  0  0  0  0  0
   47.6570   32.2220   43.9740 C   0  0  0  0  0  0  0  0  0  0  0  0
   47.9390   30.9760   43.6550 C   0  0  0  0  0  0  0  0  0  0  0  0
   46.9270   30.2010   43.2390 C   0  0  0  0  0  0  0  0  0  0  0  0
   45.4690   31.3000   43.2980 S   0  0  0  0  0  0  0  0  0  0  0  0
   43.5204   34.7597   41.2447 H   0  0  0  0  0  0  0  0  0  0  0  0
   46.3468   32.0812   37.5251 H   0  0  0  0  0  0  0  0  0  0  0  0
   44.6031   32.0735   37.1482 H   0  0  0  0  0  0  0  0  0  0  0  0
   42.7200   33.7912   37.7845 H   0  0  0  0  0  0  0  0  0  0  0  0
   42.4915   32.2903   38.7350 H   0  0  0  0  0  0  0  0  0  0  0  0
   40.0542   33.0200   38.7124 H   0  0  0  0  0  0  0  0  0  0  0  0
   40.8029   32.1976   40.1131 H   0  0  0  0  0  0  0  0  0  0  0  0
   38.6447   33.2106   40.7546 H   0  0  0  0  0  0  0  0  0  0  0  0
   39.9972   34.0364   41.5973 H   0  0  0  0  0  0  0  0  0  0  0  0
   39.9519   36.8855   39.6063 H   0  0  0  0  0  0  0  0  0  0  0  0
   40.6814   36.0044   40.9968 H   0  0  0  0  0  0  0  0  0  0  0  0
   42.1790   35.9466   39.0179 H   0  0  0  0  0  0  0  0  0  0  0  0
   40.8826   35.1859   38.0472 H   0  0  0  0  0  0  0  0  0  0  0  0
   45.1480   36.9521   42.7585 H   0  0  0  0  0  0  0  0  0  0  0  0
   44.1404   35.5383   46.6012 H   0  0  0  0  0  0  0  0  0  0  0  0
   48.4653   32.8834   44.3192 H   0  0  0  0  0  0  0  0  0  0  0  0
   48.9650   30.5860   43.7270 H   0  0  0  0  0  0  0  0  0  0  0  0
   46.9658   29.1453   42.9324 H   0  0  0  0  0  0  0  0  0  0  0  0
  1 14  1  0
  2  1  2  0
  3  2  1  0
  4  3  1  0
  4  5  2  0
  5  1  1  0
  6  4  1  0
  7  3  1  0
  7  8  1  0
  8  9  1  0
  9 10  1  0
 11 10  1  0
 12 11  1  0
 13  8  1  0
 13 12  1  0
 14 17  1  0
 15 14  2  0
 16 21  2  0
 17 16  1  0
 17 18  2  0
 18 19  1  0
 19 20  2  0
 21 20  1  0
 22 23  2  0
 22 18  1  0
 24 23  1  0
 25 26  1  0
 25 24  2  0
 26 22  1  0
  2 27  1  0
  6 28  1  0
  6 29  1  0
  7 30  1  0
  7 31  1  0
  9 32  1  0
  9 33  1  0
 10 34  1  0
 10 35  1  0
 12 36  1  0
 12 37  1  0
 13 38  1  0
 13 39  1  0
 16 40  1  0
 20 41  1  0
 23 42  1  0
 24 43  1  0
 25 44  1  0
M  ISO  8  27  14  30   8  31   8  32  13  33  13  34  13  35  13  36  13
M  ISO  8  37  13  38  13  39  13  40  14  41  14  42  14  43  14  44  14
M  END
>  <minimizedAffinity>  (1) 
-5.58512974

>  <minimizedRMSD>  (1) 
1.93867731

$$$$
