
     RDKit          3D

 47 50  0  0  1  0  0  0  0  0999 V2000
   49.4570   33.4330   41.3270 N   0  0  0  0  0  0  0  0  0  0  0  0
   50.6700   33.0700   42.0210 C   0  0  0  0  0  0  0  0  0  0  0  0
   51.2480   31.7500   41.5860 C   0  0  0  0  0  0  0  0  0  0  0  0
   50.2980   30.6500   41.9760 C   0  0  0  0  0  0  0  0  0  0  0  0
   48.8460   31.1020   41.8700 C   0  0  0  0  0  0  0  0  0  0  0  0
   48.7920   32.2400   40.8950 C   0  0  2  0  0  0  0  0  0  0  0  0
   47.3140   34.7310   41.9340 C   0  0  1  0  0  0  0  0  0  0  0  0
   48.4560   35.6600   41.7670 C   0  0  0  0  0  0  0  0  0  0  0  0
   48.7000   34.2690   42.1890 C   0  0  2  0  0  0  0  0  0  0  0  0
   45.5460   36.0580   43.1320 C   0  0  0  0  0  0  0  0  0  0  0  0
   46.3880   34.9410   43.0460 C   0  0  0  0  0  0  0  0  0  0  0  0
   46.2950   33.9990   44.0920 C   0  0  0  0  0  0  0  0  0  0  0  0
   45.4130   34.2210   45.1020 N   0  0  0  0  0  0  0  0  0  0  0  0
   44.6230   35.3000   45.1490 C   0  0  0  0  0  0  0  0  0  0  0  0
   44.6800   36.2400   44.1570 N   0  0  0  0  0  0  0  0  0  0  0  0
   49.1800   31.8130   39.5810 N   0  0  0  0  0  0  0  0  0  0  0  0
   50.0430   32.6280   37.5030 N   0  0  0  0  0  0  0  0  0  0  0  0
   49.0980   32.8520   38.5810 C   0  0  1  0  0  0  0  0  0  0  0  0
   47.7150   33.0850   38.0710 C   0  0  0  0  0  0  0  0  0  0  0  0
   47.8910   33.7710   36.8290 O   0  0  0  0  0  0  0  0  0  0  0  0
   48.1930   32.7730   35.9020 C   0  0  0  0  0  0  0  0  0  0  0  0
   49.4320   32.0120   36.3340 C   0  0  0  0  0  0  0  0  0  0  0  0
   51.4206   33.8535   41.8402 H   0  0  0  0  0  0  0  0  0  0  0  0
   50.4121   32.9711   43.0858 H   0  0  0  0  0  0  0  0  0  0  0  0
   52.2187   31.5916   42.0786 H   0  0  0  0  0  0  0  0  0  0  0  0
   51.3934   31.7479   40.4957 H   0  0  0  0  0  0  0  0  0  0  0  0
   50.4541   29.7896   41.3087 H   0  0  0  0  0  0  0  0  0  0  0  0
   50.4985   30.3756   43.0222 H   0  0  0  0  0  0  0  0  0  0  0  0
   48.2205   30.2714   41.5112 H   0  0  0  0  0  0  0  0  0  0  0  0
   48.4689   31.4194   42.8534 H   0  0  0  0  0  0  0  0  0  0  0  0
   47.7367   32.5463   40.8455 H   0  0  0  0  0  0  0  0  0  0  0  0
   46.4867   34.3767   41.3015 H   0  0  0  0  0  0  0  0  0  0  0  0
   48.7539   35.9890   40.7605 H   0  0  0  0  0  0  0  0  0  0  0  0
   48.7165   36.6503   42.1688 H   0  0  0  0  0  0  0  0  0  0  0  0
   49.1523   33.7373   43.0392 H   0  0  0  0  0  0  0  0  0  0  0  0
   45.5903   36.8161   42.3362 H   0  0  0  0  0  0  0  0  0  0  0  0
   46.9267   33.0985   44.0902 H   0  0  0  0  0  0  0  0  0  0  0  0
   43.9249   35.4316   45.9888 H   0  0  0  0  0  0  0  0  0  0  0  0
   50.1534   31.4788   39.6226 H   0  0  0  0  0  0  0  0  0  0  0  0
   50.4452   33.5345   37.2246 H   0  0  0  0  0  0  0  0  0  0  0  0
   49.3821   33.7844   39.0908 H   0  0  0  0  0  0  0  0  0  0  0  0
   47.1941   32.1289   37.9145 H   0  0  0  0  0  0  0  0  0  0  0  0
   47.1043   33.6631   38.7802 H   0  0  0  0  0  0  0  0  0  0  0  0
   48.3737   33.2330   34.9193 H   0  0  0  0  0  0  0  0  0  0  0  0
   47.3464   32.0735   35.8402 H   0  0  0  0  0  0  0  0  0  0  0  0
   49.1511   30.9770   36.5786 H   0  0  0  0  0  0  0  0  0  0  0  0
   50.1591   32.0299   35.5088 H   0  0  0  0  0  0  0  0  0  0  0  0
  1  2  1  0
  1  9  1  0
  3  4  1  0
  3  2  1  0
  5  4  1  0
  6  1  1  0
  6  5  1  0
  7  9  1  0
  7 11  1  0
  8  7  1  0
  8  9  1  0
 10 15  2  0
 11 10  1  0
 11 12  2  0
 12 13  1  0
 13 14  2  0
 15 14  1  0
 16  6  1  0
 17 18  1  0
 18 16  1  0
 19 18  1  0
 20 19  1  0
 21 22  1  0
 21 20  1  0
 22 17  1  0
  2 23  1  0
  2 24  1  0
  3 25  1  0
  3 26  1  0
  4 27  1  0
  4 28  1  0
  5 29  1  0
  5 30  1  0
  6 31  1  6
  7 32  1  6
  8 33  1  0
  8 34  1  0
  9 35  1  1
 10 36  1  0
 12 37  1  0
 14 38  1  0
 16 39  1  0
 17 40  1  0
 18 41  1  1
 19 42  1  0
 19 43  1  0
 21 44  1  0
 21 45  1  0
 22 46  1  0
 22 47  1  0
M  ISO  8  23  13  24  13  25  13  26  13  27  13  28  13  29  13  30  13
M  ISO  8  31  13  32  13  33  13  34  13  35  13  36  14  37  14  38  14
M  ISO  8  39   5  40   5  41  13  42  13  43  13  44  13  45  13  46  13
M  ISO  1  47  13
M  END
>  <minimizedAffinity>  (1) 
-5.39946699

>  <minimizedRMSD>  (1) 
2.20094228

$$$$
