
     RDKit          3D

 52 55  0  0  1  0  0  0  0  0999 V2000
   47.2850   33.6790   42.7770 C   0  0  0  0  0  0  0  0  0  0  0  0
   48.4200   33.5070   43.3100 O   0  0  0  0  0  0  0  0  0  0  0  0
   46.9340   33.1450   41.5120 N   0  0  0  0  0  0  0  0  0  0  0  0
   45.7050   32.4590   41.0750 C   0  0  0  0  0  0  0  0  0  0  0  0
   45.1770   33.1160   39.8140 C   0  0  0  0  0  0  0  0  0  0  0  0
   46.1610   32.9500   38.6870 C   0  0  0  0  0  0  0  0  0  0  0  0
   47.4850   32.4690   39.2420 C   0  0  0  0  0  0  0  0  0  0  0  0
   47.8960   33.2420   40.4450 C   0  0  2  0  0  0  0  0  0  0  0  0
   45.9170   35.7080   42.9440 C   0  0  0  0  0  0  0  0  0  0  0  0
   46.3030   34.4600   43.4960 C   0  0  0  0  0  0  0  0  0  0  0  0
   45.7420   34.0350   44.6780 C   0  0  0  0  0  0  0  0  0  0  0  0
   44.8370   34.8260   45.2760 N   0  0  0  0  0  0  0  0  0  0  0  0
   44.4500   36.0280   44.7660 C   0  0  0  0  0  0  0  0  0  0  0  0
   45.0050   36.4430   43.6010 N   0  0  0  0  0  0  0  0  0  0  0  0
   46.1620   32.7500   45.2240 C   0  0  0  0  0  0  0  0  0  0  0  0
   45.7550   31.6000   44.6410 C   0  0  0  0  0  0  0  0  0  0  0  0
   46.1680   30.3880   45.1720 C   0  0  0  0  0  0  0  0  0  0  0  0
   46.9880   30.3030   46.2870 C   0  0  0  0  0  0  0  0  0  0  0  0
   47.3720   31.5110   46.8400 C   0  0  0  0  0  0  0  0  0  0  0  0
   46.9620   32.6780   46.3110 N   0  0  0  0  0  0  0  0  0  0  0  0
   49.2820   32.8740   40.8440 C   0  0  0  0  0  0  0  0  0  0  0  0
   49.6950   31.5490   40.4400 N   0  0  0  0  0  0  0  0  0  0  0  0
   50.9400   31.5630   39.7660 C   0  0  0  0  0  0  0  0  0  0  0  0
   52.1430   31.3120   40.6610 C   0  0  0  0  0  0  0  0  0  0  0  0
   52.0460   30.0710   41.2340 O   0  0  0  0  0  0  0  0  0  0  0  0
   50.7800   29.6380   41.5380 C   0  0  0  0  0  0  0  0  0  0  0  0
   49.7720   30.7470   41.6270 C   0  0  0  0  0  0  0  0  0  0  0  0
   45.9288   31.4015   40.8708 H   0  0  0  0  0  0  0  0  0  0  0  0
   44.9461   32.5280   41.8683 H   0  0  0  0  0  0  0  0  0  0  0  0
   44.2218   32.6480   39.5336 H   0  0  0  0  0  0  0  0  0  0  0  0
   45.0292   34.1892   40.0047 H   0  0  0  0  0  0  0  0  0  0  0  0
   46.3046   33.9156   38.1800 H   0  0  0  0  0  0  0  0  0  0  0  0
   45.7747   32.2130   37.9676 H   0  0  0  0  0  0  0  0  0  0  0  0
   47.3913   31.4078   39.5161 H   0  0  0  0  0  0  0  0  0  0  0  0
   48.2519   32.6120   38.4665 H   0  0  0  0  0  0  0  0  0  0  0  0
   47.9129   34.3114   40.1879 H   0  0  0  0  0  0  0  0  0  0  0  0
   46.3542   36.0655   42.0001 H   0  0  0  0  0  0  0  0  0  0  0  0
   43.7049   36.6472   45.2869 H   0  0  0  0  0  0  0  0  0  0  0  0
   45.1034   31.6259   43.7552 H   0  0  0  0  0  0  0  0  0  0  0  0
   45.8323   29.4578   44.6903 H   0  0  0  0  0  0  0  0  0  0  0  0
   47.3118   29.3381   46.7042 H   0  0  0  0  0  0  0  0  0  0  0  0
   48.0231   31.5177   47.7266 H   0  0  0  0  0  0  0  0  0  0  0  0
   49.9730   33.6009   40.3923 H   0  0  0  0  0  0  0  0  0  0  0  0
   49.3017   32.8838   41.9438 H   0  0  0  0  0  0  0  0  0  0  0  0
   50.9198   30.7832   38.9904 H   0  0  0  0  0  0  0  0  0  0  0  0
   51.0619   32.5756   39.3539 H   0  0  0  0  0  0  0  0  0  0  0  0
   53.0626   31.3655   40.0598 H   0  0  0  0  0  0  0  0  0  0  0  0
   52.1718   32.0755   41.4523 H   0  0  0  0  0  0  0  0  0  0  0  0
   50.4557   28.9349   40.7567 H   0  0  0  0  0  0  0  0  0  0  0  0
   50.8295   29.1660   42.5303 H   0  0  0  0  0  0  0  0  0  0  0  0
   50.0453   31.3987   42.4700 H   0  0  0  0  0  0  0  0  0  0  0  0
   48.7867   30.2775   41.7639 H   0  0  0  0  0  0  0  0  0  0  0  0
  1  2  2  0
  1 10  1  0
  3  1  1  0
  4  3  1  0
  5  4  1  0
  6  7  1  0
  6  5  1  0
  7  8  1  0
  8 21  1  0
  8  3  1  0
  9 10  2  0
  9 14  1  0
 10 11  1  0
 11 15  1  0
 11 12  2  0
 13 12  1  0
 14 13  2  0
 15 20  2  0
 16 17  2  0
 16 15  1  0
 17 18  1  0
 18 19  2  0
 20 19  1  0
 22 21  1  0
 22 27  1  0
 23 22  1  0
 23 24  1  0
 24 25  1  0
 25 26  1  0
 26 27  1  0
  4 28  1  0
  4 29  1  0
  5 30  1  0
  5 31  1  0
  6 32  1  0
  6 33  1  0
  7 34  1  0
  7 35  1  0
  8 36  1  6
  9 37  1  0
 13 38  1  0
 16 39  1  0
 17 40  1  0
 18 41  1  0
 19 42  1  0
 21 43  1  0
 21 44  1  0
 23 45  1  0
 23 46  1  0
 24 47  1  0
 24 48  1  0
 26 49  1  0
 26 50  1  0
 27 51  1  0
 27 52  1  0
M  ISO  8  28  13  29  13  30  13  31  13  32  13  33  13  34  13  35  13
M  ISO  8  36  13  37  14  38  14  39  14  40  14  41  14  42  14  43   8
M  ISO  8  44   8  45  13  46  13  47  13  48  13  49  13  50  13  51  13
M  ISO  1  52  13
M  END
>  <minimizedAffinity>  (1) 
-5.11954308

>  <minimizedRMSD>  (1) 
1.07313895

$$$$
