
     RDKit          3D

 36 38  0  0  0  0  0  0  0  0999 V2000
   46.6013   34.4228   41.4507 C   0  0  0  0  0  0  0  0  0  0  0  0
   47.8857   34.9072   41.2424 C   0  0  0  0  0  0  0  0  0  0  0  0
   48.5252   34.6475   40.0550 C   0  0  0  0  0  0  0  0  0  0  0  0
   47.8877   33.9119   39.0888 C   0  0  0  0  0  0  0  0  0  0  0  0
   46.6180   33.4164   39.2589 C   0  0  0  0  0  0  0  0  0  0  0  0
   45.9968   33.7007   40.4824 C   0  0  0  0  0  0  0  0  0  0  0  0
   44.6925   36.0625   44.2694 C   0  0  0  0  0  0  0  0  0  0  0  0
   45.2350   35.8582   42.9821 C   0  0  0  0  0  0  0  0  0  0  0  0
   45.9914   34.7314   42.7291 C   0  0  0  0  0  0  0  0  0  0  0  0
   46.1653   33.8730   43.7672 N   0  0  0  0  0  0  0  0  0  0  0  0
   45.6557   34.0545   44.9963 C   0  0  0  0  0  0  0  0  0  0  0  0
   44.9137   35.1557   45.2511 N   0  0  0  0  0  0  0  0  0  0  0  0
   48.5608   35.7232   42.2946 C   0  0  0  0  0  0  0  0  0  0  0  0
   49.5226   35.0089   39.8436 H   0  0  0  0  0  0  0  0  0  0  0  0
   48.3780   33.7030   38.1573 H   0  0  0  0  0  0  0  0  0  0  0  0
   46.0886   32.8302   38.5021 H   0  0  0  0  0  0  0  0  0  0  0  0
   44.9820   33.3097   40.6320 H   0  0  0  0  0  0  0  0  0  0  0  0
   44.1118   36.9411   44.4383 H   0  0  0  0  0  0  0  0  0  0  0  0
   45.0707   36.5595   42.2013 H   0  0  0  0  0  0  0  0  0  0  0  0
   45.8578   33.2982   45.7606 H   0  0  0  0  0  0  0  0  0  0  0  0
   48.4237   35.2228   43.2843 H   0  0  0  0  0  0  0  0  0  0  0  0
   48.0460   36.7042   42.3069 H   0  0  0  0  0  0  0  0  0  0  0  0
   49.9573   35.9386   42.0424 N   0  0  0  0  0  0  0  0  0  0  0  0
   50.4226   34.6683   41.4417 C   0  0  2  0  0  0  0  0  0  0  0  0
   49.9101   34.5897   40.4705 H   0  0  0  0  0  0  0  0  0  0  0  0
   51.9230   34.7882   41.3290 C   0  0  2  0  0  0  0  0  0  0  0  0
   52.3798   33.8130   41.1793 H   0  0  0  0  0  0  0  0  0  0  0  0
   52.2020   35.7362   40.3686 O   0  0  0  0  0  0  0  0  0  0  0  0
   51.1002   36.4228   39.8998 C   0  0  0  0  0  0  0  0  0  0  0  0
   50.1492   36.9041   40.9489 C   0  0  0  0  0  0  0  0  0  0  0  0
   50.0875   33.8602   42.1126 H   0  0  0  0  0  0  0  0  0  0  0  0
   52.2862   35.1930   42.3201 H   0  0  0  0  0  0  0  0  0  0  0  0
   50.5733   35.8885   39.0562 H   0  0  0  0  0  0  0  0  0  0  0  0
   51.4988   37.3478   39.3847 H   0  0  0  0  0  0  0  0  0  0  0  0
   49.1409   36.9576   40.4409 H   0  0  0  0  0  0  0  0  0  0  0  0
   50.4537   37.8798   41.3205 H   0  0  0  0  0  0  0  0  0  0  0  0
  1  9  1  0
  2  1  1  0
  2 13  1  0
  3  2  2  0
  4  5  2  0
  4  3  1  0
  5  6  1  0
  6  1  2  0
  7 12  2  0
  8  7  1  0
  9  8  2  0
  9 10  1  0
 10 11  2  0
 11 12  1  0
  3 14  1  0
  4 15  1  0
  5 16  1  0
  6 17  1  0
  7 18  1  0
  8 19  1  0
 11 20  1  0
 13 21  1  0
 13 22  1  0
 23 24  1  0
 24 25  1  6
 24 26  1  0
 26 27  1  6
 26 28  1  0
 28 29  1  0
 29 30  1  0
 30 23  1  0
 24 31  1  0
 26 32  1  0
 29 33  1  0
 29 34  1  0
 30 35  1  0
 30 36  1  0
 13 23  1  0
M  ISO  8  14  14  15  14  16  14  17  14  18  14  19  14  20  14  21   8
M  ISO  3  22   8  25   8  27  15
M  END
>  <DihAtoms>  (1) 
1,12,22,23

>  <DihDeg>  (1) 
173.23527056833694

$$$$
