
     RDKit          3D

 33 35  0  0  0  0  0  0  0  0999 V2000
   44.7570   32.9690   41.1850 Br  0  0  0  0  0  0  0  0  0  0  0  0
   46.3980   33.9200   40.9270 C   0  0  0  0  0  0  0  0  0  0  0  0
   46.8850   34.7350   41.9130 C   0  0  0  0  0  0  0  0  0  0  0  0
   48.0790   35.4370   41.7440 C   0  0  0  0  0  0  0  0  0  0  0  0
   48.7500   35.2840   40.5560 C   0  0  0  0  0  0  0  0  0  0  0  0
   48.2240   34.4550   39.5930 C   0  0  0  0  0  0  0  0  0  0  0  0
   47.0600   33.7630   39.7420 C   0  0  0  0  0  0  0  0  0  0  0  0
   45.6290   34.0500   45.2870 C   0  0  0  0  0  0  0  0  0  0  0  0
   44.7100   35.0900   45.5180 C   0  0  0  0  0  0  0  0  0  0  0  0
   44.5370   36.0310   44.4830 C   0  0  0  0  0  0  0  0  0  0  0  0
   45.2560   35.8790   43.3420 N   0  0  0  0  0  0  0  0  0  0  0  0
   46.1320   34.8620   43.1570 C   0  0  0  0  0  0  0  0  0  0  0  0
   46.2990   33.9640   44.1430 N   0  0  0  0  0  0  0  0  0  0  0  0
   46.6180   32.9350   38.6720 N   0  0  0  0  0  0  0  0  0  0  0  0
   45.6910   33.2850   37.6120 C   0  0  0  0  0  0  0  0  0  0  0  0
   44.7460   32.1870   37.2420 C   0  0  0  0  0  0  0  0  0  0  0  0
   45.1140   30.9670   37.7600 O   0  0  0  0  0  0  0  0  0  0  0  0
   46.4700   30.7790   37.5940 C   0  0  0  0  0  0  0  0  0  0  0  0
   47.1930   31.5820   38.6840 C   0  0  0  0  0  0  0  0  0  0  0  0
   48.4700   36.0917   42.5368 H   0  0  0  0  0  0  0  0  0  0  0  0
   49.6953   35.8172   40.3769 H   0  0  0  0  0  0  0  0  0  0  0  0
   48.7751   34.3442   38.6475 H   0  0  0  0  0  0  0  0  0  0  0  0
   45.7959   33.2939   46.0683 H   0  0  0  0  0  0  0  0  0  0  0  0
   44.1521   35.1653   46.4630 H   0  0  0  0  0  0  0  0  0  0  0  0
   43.8348   36.8700   44.5975 H   0  0  0  0  0  0  0  0  0  0  0  0
   45.1007   34.1527   37.9415 H   0  0  0  0  0  0  0  0  0  0  0  0
   46.2959   33.4982   36.7184 H   0  0  0  0  0  0  0  0  0  0  0  0
   43.7456   32.4421   37.6215 H   0  0  0  0  0  0  0  0  0  0  0  0
   44.7572   32.0972   36.1457 H   0  0  0  0  0  0  0  0  0  0  0  0
   46.7143   29.7110   37.6922 H   0  0  0  0  0  0  0  0  0  0  0  0
   46.7849   31.1170   36.5957 H   0  0  0  0  0  0  0  0  0  0  0  0
   48.2706   31.6273   38.4681 H   0  0  0  0  0  0  0  0  0  0  0  0
   47.0664   31.1098   39.6694 H   0  0  0  0  0  0  0  0  0  0  0  0
  2  1  1  0
  2  3  2  0
  3 12  1  0
  4  3  1  0
  5  4  2  0
  6  7  2  0
  6  5  1  0
  7  2  1  0
  8  9  2  0
 10  9  1  0
 11 10  2  0
 12 11  1  0
 12 13  2  0
 13  8  1  0
 14 19  1  0
 14  7  1  0
 15 14  1  0
 16 15  1  0
 16 17  1  0
 18 17  1  0
 18 19  1  0
  4 20  1  0
  5 21  1  0
  6 22  1  0
  8 23  1  0
  9 24  1  0
 10 25  1  0
 15 26  1  0
 15 27  1  0
 16 28  1  0
 16 29  1  0
 18 30  1  0
 18 31  1  0
 19 32  1  0
 19 33  1  0
M  ISO  8  20  14  21  14  22  14  23  14  24  14  25  14  26  13  27  13
M  ISO  6  28  13  29  13  30  13  31  13  32  13  33  13
M  END
>  <minimizedAffinity>  (1) 
-5.2915988

>  <minimizedRMSD>  (1) 
0.917651474

$$$$
