
     RDKit          3D

 36 37  0  0  0  0  0  0  0  0999 V2000
   47.1552   33.9841   42.4692 C   0  0  0  0  0  0  0  0  0  0  0  0
   45.2915   34.2298   45.6979 C   0  0  0  0  0  0  0  0  0  0  0  0
   46.1684   33.7394   44.7041 C   0  0  0  0  0  0  0  0  0  0  0  0
   46.2615   34.4499   43.5297 C   0  0  0  0  0  0  0  0  0  0  0  0
   45.5074   35.5991   43.3649 N   0  0  0  0  0  0  0  0  0  0  0  0
   44.6788   36.0297   44.3498 C   0  0  0  0  0  0  0  0  0  0  0  0
   44.5749   35.3540   45.4960 N   0  0  0  0  0  0  0  0  0  0  0  0
   48.3175   33.4126   43.0098 O   0  0  0  0  0  0  0  0  0  0  0  0
   50.6641   33.1111   41.9140 O   0  0  0  0  0  0  0  0  0  0  0  0
   49.6293   34.1598   42.2199 P   0  0  2  0  0  0  0  0  0  0  0  0
   50.2078   35.3592   43.2466 O   0  0  0  0  0  0  0  0  0  0  0  0
   49.0645   34.7973   40.7850 O   0  0  0  0  0  0  0  0  0  0  0  0
   46.6413   33.1669   41.9172 H   0  0  0  0  0  0  0  0  0  0  0  0
   47.3725   34.7764   41.7207 H   0  0  0  0  0  0  0  0  0  0  0  0
   45.2742   33.6157   46.5917 H   0  0  0  0  0  0  0  0  0  0  0  0
   46.7433   32.8484   44.8507 H   0  0  0  0  0  0  0  0  0  0  0  0
   44.0858   36.9236   44.2338 H   0  0  0  0  0  0  0  0  0  0  0  0
   50.9332   35.9032   42.8571 H   0  0  0  0  0  0  0  0  0  0  0  0
   51.9272   36.4190   40.0625 O   0  0  0  0  0  0  0  0  0  0  0  0
   50.5502   36.4307   40.0044 C   0  0  2  0  0  0  0  0  0  0  0  0
   49.9887   35.0378   39.8121 C   0  0  2  0  0  0  0  0  0  0  0  0
   49.5141   34.9072   38.5179 O   0  0  0  0  0  0  0  0  0  0  0  0
   50.5731   35.3152   37.6851 C   0  0  0  0  0  0  0  0  0  0  0  0
   50.4483   36.8114   37.5678 C   0  0  2  0  0  0  0  0  0  0  0  0
   51.6150   37.4056   37.0819 O   0  0  0  0  0  0  0  0  0  0  0  0
   50.1151   37.3884   38.9187 C   0  0  1  0  0  0  0  0  0  0  0  0
   48.7554   37.6818   38.9620 O   0  0  0  0  0  0  0  0  0  0  0  0
   52.2137   37.3827   40.1041 H   0  0  0  0  0  0  0  0  0  0  0  0
   50.2054   36.8729   40.9760 H   0  0  0  0  0  0  0  0  0  0  0  0
   50.8203   34.2913   39.9315 H   0  0  0  0  0  0  0  0  0  0  0  0
   51.5374   35.0775   38.1842 H   0  0  0  0  0  0  0  0  0  0  0  0
   50.5655   34.7873   36.7179 H   0  0  0  0  0  0  0  0  0  0  0  0
   49.5907   36.9849   36.8577 H   0  0  0  0  0  0  0  0  0  0  0  0
   51.4230   37.7963   36.1967 H   0  0  0  0  0  0  0  0  0  0  0  0
   50.6485   38.3426   39.1373 H   0  0  0  0  0  0  0  0  0  0  0  0
   48.3289   37.5245   38.0725 H   0  0  0  0  0  0  0  0  0  0  0  0
  1  8  1  0
  1  4  1  0
  3  2  2  0
  4  3  1  0
  5  4  2  0
  5  6  1  0
  6  7  2  0
  7  2  1  0
  9 10  2  0
 10  8  1  1
 10 11  1  0
 12 10  1  0
  1 13  1  0
  1 14  1  0
  2 15  1  0
  3 16  1  0
  6 17  1  0
 11 18  1  0
 19 20  1  0
 20 21  1  0
 21 22  1  0
 22 23  1  0
 23 24  1  0
 24 25  1  0
 24 26  1  0
 26 27  1  0
 26 20  1  0
 19 28  1  0
 20 29  1  1
 21 30  1  1
 23 31  1  0
 23 32  1  0
 24 33  1  6
 25 34  1  0
 26 35  1  1
 27 36  1  0
 12 21  1  0
M  ISO  6  13   8  14   8  15  14  16  14  17  14  18   3
M  END
>  <DihAtoms>  (1) 
9,11,20,19

>  <DihDeg>  (1) 
-118.01824830310363

$$$$
