
     RDKit          3D

 56 59  0  0  1  0  0  0  0  0999 V2000
   46.1940   33.6420   43.3650 C   0  0  2  0  0  0  0  0  0  0  0  0
   45.3220   34.6410   42.6860 C   0  0  2  0  0  0  0  0  0  0  0  0
   45.1360   35.8820   43.4780 C   0  0  0  0  0  0  0  0  0  0  0  0
   44.6890   35.6540   44.8990 C   0  0  0  0  0  0  0  0  0  0  0  0
   45.2670   34.4220   45.5310 C   0  0  0  0  0  0  0  0  0  0  0  0
   46.5120   33.9480   44.8020 C   0  0  0  0  0  0  0  0  0  0  0  0
   43.0340   34.9190   41.6470 C   0  0  1  0  0  0  0  0  0  0  0  0
   43.9890   34.0160   42.3360 C   0  0  1  0  0  0  0  0  0  0  0  0
   44.2300   32.9170   41.5190 O   0  0  0  0  0  0  0  0  0  0  0  0
   43.8730   33.2550   40.2260 C   0  0  0  0  0  0  0  0  0  0  0  0
   42.5890   34.0350   40.4720 C   0  0  2  0  0  0  0  0  0  0  0  0
   41.9190   35.2350   42.3920 O   0  0  0  0  0  0  0  0  0  0  0  0
   42.2550   34.8350   39.3900 O   0  0  0  0  0  0  0  0  0  0  0  0
   40.4460   34.0210   38.0220 C   0  0  2  0  0  0  0  0  0  0  0  0
   40.9100   34.9220   39.1390 C   0  0  1  0  0  0  0  0  0  0  0  0
   40.2410   34.5550   40.3090 O   0  0  0  0  0  0  0  0  0  0  0  0
   38.9490   35.0680   40.2110 C   0  0  0  0  0  0  0  0  0  0  0  0
   38.2200   34.2820   39.1450 C   0  0  1  0  0  0  0  0  0  0  0  0
   38.9630   34.2460   37.8340 C   0  0  2  0  0  0  0  0  0  0  0  0
   40.6570   32.6810   38.2460 O   0  0  0  0  0  0  0  0  0  0  0  0
   37.9960   32.9990   39.6020 O   0  0  0  0  0  0  0  0  0  0  0  0
   38.4050   33.2300   37.0600 O   0  0  0  0  0  0  0  0  0  0  0  0
   47.4610   33.4180   42.6430 C   0  0  0  0  0  0  0  0  0  0  0  0
   48.4740   34.3310   42.9370 C   0  0  0  0  0  0  0  0  0  0  0  0
   49.7280   34.2230   42.3180 C   0  0  0  0  0  0  0  0  0  0  0  0
   49.8620   33.1680   41.4210 N   0  0  0  0  0  0  0  0  0  0  0  0
   48.8540   32.3050   41.1630 C   0  0  0  0  0  0  0  0  0  0  0  0
   47.6480   32.4230   41.7710 N   0  0  0  0  0  0  0  0  0  0  0  0
   45.5809   32.7288   43.3514 H   0  0  0  0  0  0  0  0  0  0  0  0
   45.8354   34.9426   41.7611 H   0  0  0  0  0  0  0  0  0  0  0  0
   46.0942   36.4217   43.5014 H   0  0  0  0  0  0  0  0  0  0  0  0
   44.3343   36.4513   42.9848 H   0  0  0  0  0  0  0  0  0  0  0  0
   44.9900   36.5247   45.5001 H   0  0  0  0  0  0  0  0  0  0  0  0
   43.5982   35.5150   44.8708 H   0  0  0  0  0  0  0  0  0  0  0  0
   45.5293   34.6467   46.5754 H   0  0  0  0  0  0  0  0  0  0  0  0
   44.5129   33.6229   45.4770 H   0  0  0  0  0  0  0  0  0  0  0  0
   46.8937   33.0391   45.2901 H   0  0  0  0  0  0  0  0  0  0  0  0
   47.2707   34.7437   44.8377 H   0  0  0  0  0  0  0  0  0  0  0  0
   43.4959   35.8871   41.4034 H   0  0  0  0  0  0  0  0  0  0  0  0
   43.5116   33.7473   43.2899 H   0  0  0  0  0  0  0  0  0  0  0  0
   43.6910   32.3615   39.6108 H   0  0  0  0  0  0  0  0  0  0  0  0
   44.6437   33.8137   39.6748 H   0  0  0  0  0  0  0  0  0  0  0  0
   41.7066   33.4020   40.6472 H   0  0  0  0  0  0  0  0  0  0  0  0
   42.1375   35.1731   43.3556 H   0  0  0  0  0  0  0  0  0  0  0  0
   41.0392   34.2816   37.1330 H   0  0  0  0  0  0  0  0  0  0  0  0
   40.6927   35.9539   38.8261 H   0  0  0  0  0  0  0  0  0  0  0  0
   38.4300   34.9619   41.1750 H   0  0  0  0  0  0  0  0  0  0  0  0
   38.9782   36.1359   39.9489 H   0  0  0  0  0  0  0  0  0  0  0  0
   37.2649   34.7914   38.9494 H   0  0  0  0  0  0  0  0  0  0  0  0
   38.8629   35.2203   37.3333 H   0  0  0  0  0  0  0  0  0  0  0  0
   40.6840   32.5096   39.2207 H   0  0  0  0  0  0  0  0  0  0  0  0
   37.9956   32.9967   40.5920 H   0  0  0  0  0  0  0  0  0  0  0  0
   38.0234   32.5351   37.6530 H   0  0  0  0  0  0  0  0  0  0  0  0
   48.2882   35.1403   43.6585 H   0  0  0  0  0  0  0  0  0  0  0  0
   50.5492   34.9243   42.5274 H   0  0  0  0  0  0  0  0  0  0  0  0
   49.0159   31.4887   40.4436 H   0  0  0  0  0  0  0  0  0  0  0  0
  1  6  1  0
  2  1  1  0
  2  3  1  0
  3  4  1  0
  4  5  1  0
  6  5  1  0
  7  8  1  0
  7 12  1  0
  8  2  1  0
  9  8  1  0
 10 11  1  0
 10  9  1  0
 11  7  1  0
 13 11  1  0
 14 20  1  0
 14 15  1  0
 15 13  1  0
 15 16  1  0
 17 16  1  0
 18 21  1  0
 18 17  1  0
 19 22  1  0
 19 14  1  0
 19 18  1  0
 23 24  2  0
 23  1  1  0
 25 24  1  0
 26 25  2  0
 27 26  1  0
 27 28  2  0
 28 23  1  0
  1 29  1  1
  2 30  1  6
  3 31  1  0
  3 32  1  0
  4 33  1  0
  4 34  1  0
  5 35  1  0
  5 36  1  0
  6 37  1  0
  6 38  1  0
  7 39  1  6
  8 40  1  1
 10 41  1  0
 10 42  1  0
 11 43  1  1
 12 44  1  0
 14 45  1  6
 15 46  1  6
 17 47  1  0
 17 48  1  0
 18 49  1  6
 19 50  1  6
 20 51  1  0
 21 52  1  0
 22 53  1  0
 24 54  1  0
 25 55  1  0
 27 56  1  0
M  ISO  8  29  13  30  13  31  13  32  13  33  13  34  13  35  13  36  13
M  ISO  8  37  13  38  13  39  13  40  13  41  13  42  13  43  13  44   3
M  ISO  8  45  13  46  13  47  13  48  13  49  13  50  13  51   3  52   3
M  ISO  4  53   3  54  14  55  14  56  14
M  END
>  <minimizedAffinity>  (1) 
-6.47816086

>  <minimizedRMSD>  (1) 
0.921763837

$$$$
