
     RDKit          3D

 54 56  0  0  0  0  0  0  0  0999 V2000
   43.6546   34.9567   41.8836 C   0  0  0  0  0  0  0  0  0  0  0  0
   43.9042   33.6325   42.1841 C   0  0  0  0  0  0  0  0  0  0  0  0
   44.9755   33.3383   43.0088 C   0  0  0  0  0  0  0  0  0  0  0  0
   45.7607   34.3380   43.5086 C   0  0  0  0  0  0  0  0  0  0  0  0
   45.5223   35.6611   43.2165 C   0  0  0  0  0  0  0  0  0  0  0  0
   44.4462   35.9124   42.3918 C   0  0  0  0  0  0  0  0  0  0  0  0
   40.2328   35.7997   40.5188 C   0  0  0  0  0  0  0  0  0  0  0  0
   41.2624   35.5812   41.4519 C   0  0  0  0  0  0  0  0  0  0  0  0
   42.5126   35.2098   41.0095 C   0  0  0  0  0  0  0  0  0  0  0  0
   42.6811   35.0732   39.6634 N   0  0  0  0  0  0  0  0  0  0  0  0
   41.6806   35.2866   38.7733 C   0  0  0  0  0  0  0  0  0  0  0  0
   40.4682   35.6476   39.2151 N   0  0  0  0  0  0  0  0  0  0  0  0
   43.0448   32.5482   41.6363 C   0  0  0  0  0  0  0  0  0  0  0  0
   42.7074   31.5233   42.5683 N   0  0  0  0  0  0  0  0  0  0  0  0
   41.0313   31.1471   42.5610 S   0  0  0  0  0  0  0  0  0  0  0  0
   40.2017   32.3935   42.4446 O   0  0  0  0  0  0  0  0  0  0  0  0
   40.6486   30.3637   43.7757 O   0  0  0  0  0  0  0  0  0  0  0  0
   40.7633   30.1907   41.2056 O   0  0  0  0  0  0  0  0  0  0  0  0
   40.0817   29.0416   41.6050 C   0  0  0  0  0  0  0  0  0  0  0  0
   40.9151   27.8309   41.2091 C   0  0  0  0  0  0  0  0  0  0  0  0
   45.1724   32.2906   43.2462 H   0  0  0  0  0  0  0  0  0  0  0  0
   46.5775   34.0197   44.1455 H   0  0  0  0  0  0  0  0  0  0  0  0
   46.1579   36.4455   43.6232 H   0  0  0  0  0  0  0  0  0  0  0  0
   44.2019   36.9391   42.1210 H   0  0  0  0  0  0  0  0  0  0  0  0
   39.2534   36.0944   40.9211 H   0  0  0  0  0  0  0  0  0  0  0  0
   41.1455   35.6846   42.5141 H   0  0  0  0  0  0  0  0  0  0  0  0
   41.8706   35.1629   37.7065 H   0  0  0  0  0  0  0  0  0  0  0  0
   43.5175   32.1576   40.7020 H   0  0  0  0  0  0  0  0  0  0  0  0
   42.0767   33.0277   41.3240 H   0  0  0  0  0  0  0  0  0  0  0  0
   42.8931   31.8912   43.5406 H   0  0  0  0  0  0  0  0  0  0  0  0
   39.6095   32.6737   43.1643 H   0  0  0  0  0  0  0  0  0  0  0  0
   40.7473   30.7476   44.6700 H   0  0  0  0  0  0  0  0  0  0  0  0
   39.1604   29.0147   40.9881 H   0  0  0  0  0  0  0  0  0  0  0  0
   39.8137   29.0289   42.6676 H   0  0  0  0  0  0  0  0  0  0  0  0
   41.0763   27.8582   40.1213 H   0  0  0  0  0  0  0  0  0  0  0  0
   41.8867   27.8363   41.7633 H   0  0  0  0  0  0  0  0  0  0  0  0
   40.2600   24.3746   40.7865 O   0  0  0  0  0  0  0  0  0  0  0  0
   39.8191   25.6966   40.5267 C   0  0  2  0  0  0  0  0  0  0  0  0
   40.1585   26.6022   41.6564 C   0  0  2  0  0  0  0  0  0  0  0  0
   39.0554   27.0612   42.3682 O   0  0  0  0  0  0  0  0  0  0  0  0
   38.1070   26.1020   42.6230 C   0  0  0  0  0  0  0  0  0  0  0  0
   37.4517   25.6062   41.3572 C   0  0  2  0  0  0  0  0  0  0  0  0
   36.9318   24.3213   41.5137 O   0  0  0  0  0  0  0  0  0  0  0  0
   38.3539   25.6429   40.1719 C   0  0  2  0  0  0  0  0  0  0  0  0
   38.1997   24.4501   39.4280 O   0  0  0  0  0  0  0  0  0  0  0  0
   40.9178   24.3604   41.5099 H   0  0  0  0  0  0  0  0  0  0  0  0
   40.3700   25.9830   39.6076 H   0  0  0  0  0  0  0  0  0  0  0  0
   40.7982   26.0319   42.3807 H   0  0  0  0  0  0  0  0  0  0  0  0
   38.5125   25.1982   43.1524 H   0  0  0  0  0  0  0  0  0  0  0  0
   37.3721   26.5505   43.3225 H   0  0  0  0  0  0  0  0  0  0  0  0
   36.5629   26.2772   41.1679 H   0  0  0  0  0  0  0  0  0  0  0  0
   36.6991   23.9958   40.6074 H   0  0  0  0  0  0  0  0  0  0  0  0
   38.0575   26.4529   39.4809 H   0  0  0  0  0  0  0  0  0  0  0  0
   38.9094   24.5279   38.7129 H   0  0  0  0  0  0  0  0  0  0  0  0
  1  2  1  0
  1  6  2  0
  2  3  2  0
  3  4  1  0
  5  4  2  0
  6  5  1  0
  7  8  2  0
  9  8  1  0
  9  1  1  0
 10  9  2  0
 11 12  2  0
 11 10  1  0
 12  7  1  0
 13  2  1  0
 13 14  1  0
 15 14  1  0
 15 17  1  0
 16 15  1  0
 18 19  1  0
 18 15  1  0
 20 19  1  0
  3 21  1  0
  4 22  1  0
  5 23  1  0
  6 24  1  0
  7 25  1  0
  8 26  1  0
 11 27  1  0
 13 28  1  0
 13 29  1  0
 14 30  1  0
 16 31  1  0
 17 32  1  0
 19 33  1  0
 19 34  1  0
 20 35  1  0
 20 36  1  0
 37 38  1  0
 38 39  1  0
 39 40  1  0
 40 41  1  0
 41 42  1  0
 42 43  1  0
 42 44  1  0
 44 45  1  0
 44 38  1  0
 37 46  1  0
 38 47  1  6
 39 48  1  1
 41 49  1  0
 41 50  1  0
 42 51  1  6
 43 52  1  0
 44 53  1  6
 45 54  1  0
 20 39  1  0
M  ISO  8  21  14  22  14  23  14  24  14  25  14  26  14  27  14  28   8
M  ISO  8  29   8  30   5  31   3  32   3  33   8  34   8  35   8  36   8
M  END
>  <DihAtoms>  (1) 
18,19,38,37

>  <DihDeg>  (1) 
60.17457067771947

$$$$
