
     RDKit          3D

 36 37  0  0  0  0  0  0  0  0999 V2000
   47.1552   33.9841   42.4692 C   0  0  0  0  0  0  0  0  0  0  0  0
   45.2915   34.2298   45.6979 C   0  0  0  0  0  0  0  0  0  0  0  0
   46.1684   33.7394   44.7041 C   0  0  0  0  0  0  0  0  0  0  0  0
   46.2615   34.4499   43.5297 C   0  0  0  0  0  0  0  0  0  0  0  0
   45.5074   35.5991   43.3649 N   0  0  0  0  0  0  0  0  0  0  0  0
   44.6788   36.0297   44.3498 C   0  0  0  0  0  0  0  0  0  0  0  0
   44.5749   35.3540   45.4960 N   0  0  0  0  0  0  0  0  0  0  0  0
   48.3175   33.4126   43.0098 O   0  0  0  0  0  0  0  0  0  0  0  0
   50.6641   33.1111   41.9140 O   0  0  0  0  0  0  0  0  0  0  0  0
   49.6293   34.1598   42.2199 P   0  0  2  0  0  0  0  0  0  0  0  0
   50.2078   35.3592   43.2466 O   0  0  0  0  0  0  0  0  0  0  0  0
   49.0645   34.7973   40.7850 O   0  0  0  0  0  0  0  0  0  0  0  0
   46.6413   33.1669   41.9172 H   0  0  0  0  0  0  0  0  0  0  0  0
   47.3725   34.7764   41.7207 H   0  0  0  0  0  0  0  0  0  0  0  0
   45.2742   33.6157   46.5917 H   0  0  0  0  0  0  0  0  0  0  0  0
   46.7433   32.8484   44.8507 H   0  0  0  0  0  0  0  0  0  0  0  0
   44.0858   36.9236   44.2338 H   0  0  0  0  0  0  0  0  0  0  0  0
   50.9332   35.9032   42.8571 H   0  0  0  0  0  0  0  0  0  0  0  0
   50.9051   37.1840   39.2806 O   0  0  0  0  0  0  0  0  0  0  0  0
   49.7560   36.4236   39.2482 C   0  0  2  0  0  0  0  0  0  0  0  0
   49.9887   35.0378   39.8121 C   0  0  2  0  0  0  0  0  0  0  0  0
   49.9954   34.1155   38.7793 O   0  0  0  0  0  0  0  0  0  0  0  0
   50.9170   34.6107   37.8377 C   0  0  0  0  0  0  0  0  0  0  0  0
   50.1406   35.5630   36.9669 C   0  0  2  0  0  0  0  0  0  0  0  0
   50.9731   36.4032   36.2243 O   0  0  0  0  0  0  0  0  0  0  0  0
   49.2293   36.3942   37.8315 C   0  0  1  0  0  0  0  0  0  0  0  0
   47.9355   35.8897   37.7402 O   0  0  0  0  0  0  0  0  0  0  0  0
   50.6826   38.0472   38.8139 H   0  0  0  0  0  0  0  0  0  0  0  0
   48.9992   36.9841   39.8577 H   0  0  0  0  0  0  0  0  0  0  0  0
   51.0074   35.0048   40.2856 H   0  0  0  0  0  0  0  0  0  0  0  0
   51.7074   35.1816   38.3714 H   0  0  0  0  0  0  0  0  0  0  0  0
   51.4162   33.8005   37.2821 H   0  0  0  0  0  0  0  0  0  0  0  0
   49.5265   34.9102   36.2839 H   0  0  0  0  0  0  0  0  0  0  0  0
   50.8639   36.1878   35.2679 H   0  0  0  0  0  0  0  0  0  0  0  0
   49.1720   37.4622   37.5170 H   0  0  0  0  0  0  0  0  0  0  0  0
   47.8874   35.1533   37.0669 H   0  0  0  0  0  0  0  0  0  0  0  0
  1  8  1  0
  1  4  1  0
  3  2  2  0
  4  3  1  0
  5  4  2  0
  5  6  1  0
  6  7  2  0
  7  2  1  0
  9 10  2  0
 10  8  1  1
 10 11  1  0
 12 10  1  0
  1 13  1  0
  1 14  1  0
  2 15  1  0
  3 16  1  0
  6 17  1  0
 11 18  1  0
 19 20  1  0
 20 21  1  0
 21 22  1  0
 22 23  1  0
 23 24  1  0
 24 25  1  0
 24 26  1  0
 26 27  1  0
 26 20  1  0
 19 28  1  0
 20 29  1  1
 21 30  1  1
 23 31  1  0
 23 32  1  0
 24 33  1  6
 25 34  1  0
 26 35  1  6
 27 36  1  0
 12 21  1  0
M  ISO  6  13   8  14   8  15  14  16  14  17  14  18   3
M  END
>  <DihAtoms>  (1) 
9,11,20,19

>  <DihDeg>  (1) 
-118.01824830310363

$$$$
