
     RDKit          3D

 35 36  0  0  0  0  0  0  0  0999 V2000
   46.5399   33.6288   44.3406 C   0  0  0  0  0  0  0  0  0  0  0  0
   46.2445   33.2158   45.6520 C   0  0  0  0  0  0  0  0  0  0  0  0
   45.2930   33.9062   46.3646 C   0  0  0  0  0  0  0  0  0  0  0  0
   44.6873   34.9533   45.7600 N   0  0  0  0  0  0  0  0  0  0  0  0
   44.9643   35.3499   44.5129 C   0  0  0  0  0  0  0  0  0  0  0  0
   45.9034   34.6767   43.7974 N   0  0  0  0  0  0  0  0  0  0  0  0
   45.0399   33.4644   47.6464 O   0  0  0  0  0  0  0  0  0  0  0  0
   45.3433   30.8665   47.4686 O   0  0  0  0  0  0  0  0  0  0  0  0
   45.8126   32.1015   48.2704 P   0  0  2  0  0  0  0  0  0  0  0  0
   45.3281   31.8254   49.8546 O   0  0  0  0  0  0  0  0  0  0  0  0
   47.4551   32.2572   48.1441 O   0  0  0  0  0  0  0  0  0  0  0  0
   48.4682   31.4420   48.5209 C   0  0  0  0  0  0  0  0  0  0  0  0
   49.2104   31.9543   49.4304 O   0  0  0  0  0  0  0  0  0  0  0  0
   47.2703   33.1530   43.7004 H   0  0  0  0  0  0  0  0  0  0  0  0
   46.8286   32.3772   45.9276 H   0  0  0  0  0  0  0  0  0  0  0  0
   44.4654   36.1845   44.0629 H   0  0  0  0  0  0  0  0  0  0  0  0
   44.6523   32.4676   50.1890 H   0  0  0  0  0  0  0  0  0  0  0  0
   50.5515   30.3965   46.5229 O   0  0  0  0  0  0  0  0  0  0  0  0
   49.6052   29.6429   47.2560 C   0  0  2  0  0  0  0  0  0  0  0  0
   49.3740   30.2806   48.6086 C   0  0  2  0  0  0  0  0  0  0  0  0
   48.9463   29.3597   49.5562 O   0  0  0  0  0  0  0  0  0  0  0  0
   48.2532   28.2857   49.0519 C   0  0  0  0  0  0  0  0  0  0  0  0
   48.9677   27.4690   48.0237 C   0  0  1  0  0  0  0  0  0  0  0  0
   48.1682   27.3442   46.8650 O   0  0  0  0  0  0  0  0  0  0  0  0
   50.1793   28.2672   47.5738 C   0  0  1  0  0  0  0  0  0  0  0  0
   50.7958   27.6832   46.4798 O   0  0  0  0  0  0  0  0  0  0  0  0
   51.4470   29.9859   46.6497 H   0  0  0  0  0  0  0  0  0  0  0  0
   48.6937   29.5913   46.6322 H   0  0  0  0  0  0  0  0  0  0  0  0
   50.4063   30.5488   48.9434 H   0  0  0  0  0  0  0  0  0  0  0  0
   47.2104   28.5179   48.7185 H   0  0  0  0  0  0  0  0  0  0  0  0
   48.0925   27.6022   49.9213 H   0  0  0  0  0  0  0  0  0  0  0  0
   49.3357   26.4920   48.3754 H   0  0  0  0  0  0  0  0  0  0  0  0
   47.2566   27.0497   47.0732 H   0  0  0  0  0  0  0  0  0  0  0  0
   50.8992   28.4114   48.4025 H   0  0  0  0  0  0  0  0  0  0  0  0
   50.8121   28.2874   45.7141 H   0  0  0  0  0  0  0  0  0  0  0  0
  1  2  2  0
  2  3  1  0
  3  7  1  0
  4  3  2  0
  5  4  1  0
  6  1  1  0
  6  5  2  0
  9  7  1  6
  9  8  2  0
  9 10  1  0
 11  9  1  0
 11 12  1  0
 12 13  2  0
  1 14  1  0
  2 15  1  0
  5 16  1  0
 10 17  1  0
 18 19  1  0
 19 20  1  0
 20 21  1  0
 21 22  1  0
 22 23  1  0
 23 24  1  0
 23 25  1  0
 25 26  1  0
 25 19  1  0
 18 27  1  0
 19 28  1  6
 20 29  1  1
 22 30  1  0
 22 31  1  0
 23 32  1  1
 24 33  1  0
 25 34  1  1
 26 35  1  0
 12 20  1  0
M  ISO  4  14  14  15  14  16  14  17   3
M  END
>  <DihAtoms>  (1) 
10,11,19,18

>  <DihDeg>  (1) 
-53.916810135461034

$$$$
