
     RDKit          3D

 33 34  0  0  0  0  0  0  0  0999 V2000
   44.4880   35.7005   44.6004 C   0  0  0  0  0  0  0  0  0  0  0  0
   44.9313   35.8259   43.2600 C   0  0  0  0  0  0  0  0  0  0  0  0
   46.0060   34.9958   42.8770 C   0  0  0  0  0  0  0  0  0  0  0  0
   46.5352   34.1487   43.7963 N   0  0  0  0  0  0  0  0  0  0  0  0
   46.0733   34.0704   45.0607 C   0  0  0  0  0  0  0  0  0  0  0  0
   45.0479   34.8480   45.4626 N   0  0  0  0  0  0  0  0  0  0  0  0
   46.5918   33.2160   46.0233 O   0  0  0  0  0  0  0  0  0  0  0  0
   46.7744   32.2228   48.3971 O   0  0  0  0  0  0  0  0  0  0  0  0
   45.7395   32.5233   47.3081 P   0  0  1  0  0  0  0  0  0  0  0  0
   44.5219   33.5221   47.8576 O   0  0  0  0  0  0  0  0  0  0  0  0
   45.0805   31.0275   46.8839 O   0  0  0  0  0  0  0  0  0  0  0  0
   43.6583   36.3338   44.9152 H   0  0  0  0  0  0  0  0  0  0  0  0
   44.4790   36.5161   42.5596 H   0  0  0  0  0  0  0  0  0  0  0  0
   46.3947   35.0397   41.8684 H   0  0  0  0  0  0  0  0  0  0  0  0
   44.8745   34.0708   48.6008 H   0  0  0  0  0  0  0  0  0  0  0  0
   46.2570   30.0979   49.9438 O   0  0  0  0  0  0  0  0  0  0  0  0
   45.9294   29.6691   48.6533 C   0  0  2  0  0  0  0  0  0  0  0  0
   44.7221   30.3985   48.0974 C   0  0  2  0  0  0  0  0  0  0  0  0
   43.6548   29.5815   47.8150 O   0  0  0  0  0  0  0  0  0  0  0  0
   43.2022   28.8406   48.8834 C   0  0  0  0  0  0  0  0  0  0  0  0
   44.3039   28.1903   49.6708 C   0  0  1  0  0  0  0  0  0  0  0  0
   44.0189   26.9171   50.1132 O   0  0  0  0  0  0  0  0  0  0  0  0
   45.5443   28.2075   48.7736 C   0  0  1  0  0  0  0  0  0  0  0  0
   45.1899   27.7518   47.5114 O   0  0  0  0  0  0  0  0  0  0  0  0
   45.5582   30.6452   50.3692 H   0  0  0  0  0  0  0  0  0  0  0  0
   46.8466   29.8170   48.0506 H   0  0  0  0  0  0  0  0  0  0  0  0
   44.4551   31.1707   48.8482 H   0  0  0  0  0  0  0  0  0  0  0  0
   42.4833   29.4008   49.5311 H   0  0  0  0  0  0  0  0  0  0  0  0
   42.5777   28.0155   48.4333 H   0  0  0  0  0  0  0  0  0  0  0  0
   44.4976   28.8066   50.5718 H   0  0  0  0  0  0  0  0  0  0  0  0
   44.7323   26.6993   50.7837 H   0  0  0  0  0  0  0  0  0  0  0  0
   46.3986   27.6797   49.2255 H   0  0  0  0  0  0  0  0  0  0  0  0
   45.7369   28.1888   46.8085 H   0  0  0  0  0  0  0  0  0  0  0  0
  1  6  2  0
  2  1  1  0
  3  2  2  0
  3  4  1  0
  4  5  2  0
  5  6  1  0
  5  7  1  0
  9  7  1  6
  9 10  1  0
  9  8  2  0
 11  9  1  0
  1 12  1  0
  2 13  1  0
  3 14  1  0
 10 15  1  0
 16 17  1  0
 17 18  1  0
 18 19  1  0
 19 20  1  0
 20 21  1  0
 21 22  1  0
 21 23  1  0
 23 24  1  0
 23 17  1  0
 16 25  1  0
 17 26  1  6
 18 27  1  1
 20 28  1  0
 20 29  1  0
 21 30  1  1
 22 31  1  0
 23 32  1  1
 24 33  1  0
 11 18  1  0
M  ISO  4  12  14  13  14  14  14  15   3
M  END
>  <DihAtoms>  (1) 
8,10,17,16

>  <DihDeg>  (1) 
-115.73800962063926

$$$$
