
     RDKit          3D

 47 49  0  0  0  0  0  0  0  0999 V2000
   45.2886   35.6155   44.2131 C   0  0  0  0  0  0  0  0  0  0  0  0
   46.2438   34.8688   43.5236 C   0  0  0  0  0  0  0  0  0  0  0  0
   46.7115   33.6652   44.0773 C   0  0  0  0  0  0  0  0  0  0  0  0
   46.1994   33.3014   45.2586 N   0  0  0  0  0  0  0  0  0  0  0  0
   45.2731   34.0369   45.9143 C   0  0  0  0  0  0  0  0  0  0  0  0
   44.8153   35.1937   45.3958 N   0  0  0  0  0  0  0  0  0  0  0  0
   48.6846   33.7707   42.5822 C   0  0  2  0  0  0  0  0  0  0  0  0
   47.7078   32.9224   43.3183 C   0  0  2  0  0  0  0  0  0  0  0  0
   47.1617   32.1531   42.2488 O   0  0  0  0  0  0  0  0  0  0  0  0
   48.3008   31.6711   41.6380 C   0  0  0  0  0  0  0  0  0  0  0  0
   49.4253   32.6437   41.8290 C   0  0  1  0  0  0  0  0  0  0  0  0
   49.4863   34.5414   43.3664 O   0  0  0  0  0  0  0  0  0  0  0  0
   49.9487   33.1631   40.6515 O   0  0  0  0  0  0  0  0  0  0  0  0
   44.8112   36.9067   43.6002 C   0  0  0  0  0  0  0  0  0  0  0  0
   45.2993   39.2628   44.4526 C   0  0  0  0  0  0  0  0  0  0  0  0
   45.6449   39.6254   43.2941 O   0  0  0  0  0  0  0  0  0  0  0  0
   44.9278   37.9160   44.6482 N   0  0  0  0  0  0  0  0  0  0  0  0
   46.5855   35.2535   42.5834 H   0  0  0  0  0  0  0  0  0  0  0  0
   44.9157   33.6676   46.8611 H   0  0  0  0  0  0  0  0  0  0  0  0
   48.2282   34.3604   41.7579 H   0  0  0  0  0  0  0  0  0  0  0  0
   48.2090   32.1841   43.9441 H   0  0  0  0  0  0  0  0  0  0  0  0
   48.1275   31.3787   40.5869 H   0  0  0  0  0  0  0  0  0  0  0  0
   48.5885   30.7355   42.1718 H   0  0  0  0  0  0  0  0  0  0  0  0
   50.2531   32.2748   42.4477 H   0  0  0  0  0  0  0  0  0  0  0  0
   50.3268   34.7878   42.8724 H   0  0  0  0  0  0  0  0  0  0  0  0
   50.6454   32.6007   40.2735 H   0  0  0  0  0  0  0  0  0  0  0  0
   45.4396   37.1637   42.7479 H   0  0  0  0  0  0  0  0  0  0  0  0
   43.7476   36.7709   43.3091 H   0  0  0  0  0  0  0  0  0  0  0  0
   44.7179   37.6159   45.6289 H   0  0  0  0  0  0  0  0  0  0  0  0
   47.6586   40.5474   45.8423 O   0  0  0  0  0  0  0  0  0  0  0  0
   46.5004   40.1157   46.4748 C   0  0  2  0  0  0  0  0  0  0  0  0
   45.2707   40.2116   45.6217 C   0  0  1  0  0  0  0  0  0  0  0  0
   44.9959   41.5018   45.2043 O   0  0  0  0  0  0  0  0  0  0  0  0
   45.8551   42.4715   45.6420 C   0  0  0  0  0  0  0  0  0  0  0  0
   46.1295   42.4251   47.1233 C   0  0  1  0  0  0  0  0  0  0  0  0
   45.1684   43.1049   47.8615 O   0  0  0  0  0  0  0  0  0  0  0  0
   46.2162   41.0375   47.6679 C   0  0  2  0  0  0  0  0  0  0  0  0
   47.2774   40.8585   48.5476 O   0  0  0  0  0  0  0  0  0  0  0  0
   48.3478   40.6918   46.5347 H   0  0  0  0  0  0  0  0  0  0  0  0
   46.6009   39.0792   46.8306 H   0  0  0  0  0  0  0  0  0  0  0  0
   44.4228   39.8786   46.2561 H   0  0  0  0  0  0  0  0  0  0  0  0
   46.7673   42.5501   45.0143 H   0  0  0  0  0  0  0  0  0  0  0  0
   45.3278   43.4529   45.4554 H   0  0  0  0  0  0  0  0  0  0  0  0
   47.1047   42.9245   47.2986 H   0  0  0  0  0  0  0  0  0  0  0  0
   44.2755   42.9128   47.4778 H   0  0  0  0  0  0  0  0  0  0  0  0
   45.2525   40.7106   48.1067 H   0  0  0  0  0  0  0  0  0  0  0  0
   46.9334   40.6114   49.4555 H   0  0  0  0  0  0  0  0  0  0  0  0
  1  6  2  0
  2  3  2  0
  2  1  1  0
  3  4  1  0
  4  5  2  0
  6  5  1  0
  7  8  1  0
  7 12  1  0
  8  3  1  0
  9  8  1  0
 10 11  1  0
 10  9  1  0
 11  7  1  0
 13 11  1  0
 14  1  1  0
 14 17  1  0
 15 17  1  0
 16 15  2  0
  2 18  1  0
  5 19  1  0
  7 20  1  6
  8 21  1  1
 10 22  1  0
 10 23  1  0
 11 24  1  1
 12 25  1  0
 13 26  1  0
 14 27  1  0
 14 28  1  0
 17 29  1  0
 30 31  1  0
 31 32  1  0
 32 33  1  0
 33 34  1  0
 34 35  1  0
 35 36  1  0
 35 37  1  0
 37 38  1  0
 37 31  1  0
 30 39  1  0
 31 40  1  1
 32 41  1  1
 34 42  1  0
 34 43  1  0
 35 44  1  6
 36 45  1  0
 37 46  1  1
 38 47  1  0
 15 32  1  0
M  ISO  8  18  14  19  14  20  13  21  13  22  13  23  13  24  13  25   3
M  ISO  3  26   3  27   8  28   8
M  END
>  <DihAtoms>  (1) 
16,14,31,30

>  <DihDeg>  (1) 
51.96208719961216

$$$$
