
     RDKit          3D

 35 36  0  0  0  0  0  0  0  0999 V2000
   46.5399   33.6288   44.3406 C   0  0  0  0  0  0  0  0  0  0  0  0
   46.2445   33.2158   45.6520 C   0  0  0  0  0  0  0  0  0  0  0  0
   45.2930   33.9062   46.3646 C   0  0  0  0  0  0  0  0  0  0  0  0
   44.6873   34.9533   45.7600 N   0  0  0  0  0  0  0  0  0  0  0  0
   44.9643   35.3499   44.5129 C   0  0  0  0  0  0  0  0  0  0  0  0
   45.9034   34.6767   43.7974 N   0  0  0  0  0  0  0  0  0  0  0  0
   45.0399   33.4644   47.6464 O   0  0  0  0  0  0  0  0  0  0  0  0
   45.3433   30.8665   47.4686 O   0  0  0  0  0  0  0  0  0  0  0  0
   45.8126   32.1015   48.2704 P   0  0  2  0  0  0  0  0  0  0  0  0
   45.3281   31.8254   49.8546 O   0  0  0  0  0  0  0  0  0  0  0  0
   47.4551   32.2572   48.1441 O   0  0  0  0  0  0  0  0  0  0  0  0
   48.4682   31.4420   48.5209 C   0  0  0  0  0  0  0  0  0  0  0  0
   49.2104   31.9543   49.4304 O   0  0  0  0  0  0  0  0  0  0  0  0
   47.2703   33.1530   43.7004 H   0  0  0  0  0  0  0  0  0  0  0  0
   46.8286   32.3772   45.9276 H   0  0  0  0  0  0  0  0  0  0  0  0
   44.4654   36.1845   44.0629 H   0  0  0  0  0  0  0  0  0  0  0  0
   44.6523   32.4676   50.1890 H   0  0  0  0  0  0  0  0  0  0  0  0
   47.8824   28.4431   48.2224 O   0  0  0  0  0  0  0  0  0  0  0  0
   48.6846   29.0720   49.2032 C   0  0  2  0  0  0  0  0  0  0  0  0
   49.3740   30.2806   48.6086 C   0  0  2  0  0  0  0  0  0  0  0  0
   50.5531   30.5915   49.2734 O   0  0  0  0  0  0  0  0  0  0  0  0
   50.5888   30.2239   50.5969 C   0  0  0  0  0  0  0  0  0  0  0  0
   50.3636   28.7735   50.8805 C   0  0  1  0  0  0  0  0  0  0  0  0
   49.3259   28.6218   51.8277 O   0  0  0  0  0  0  0  0  0  0  0  0
   49.8225   28.1426   49.6091 C   0  0  1  0  0  0  0  0  0  0  0  0
   49.3950   26.8435   49.8277 O   0  0  0  0  0  0  0  0  0  0  0  0
   48.4040   27.7007   47.8181 H   0  0  0  0  0  0  0  0  0  0  0  0
   48.0136   29.3187   50.0467 H   0  0  0  0  0  0  0  0  0  0  0  0
   49.7188   29.9120   47.6111 H   0  0  0  0  0  0  0  0  0  0  0  0
   49.9672   30.8610   51.2754 H   0  0  0  0  0  0  0  0  0  0  0  0
   51.6316   30.4391   50.9362 H   0  0  0  0  0  0  0  0  0  0  0  0
   51.2648   28.2072   51.1650 H   0  0  0  0  0  0  0  0  0  0  0  0
   49.4594   29.1864   52.6180 H   0  0  0  0  0  0  0  0  0  0  0  0
   50.5664   28.1811   48.7899 H   0  0  0  0  0  0  0  0  0  0  0  0
   48.4484   26.7386   49.6169 H   0  0  0  0  0  0  0  0  0  0  0  0
  1  2  2  0
  2  3  1  0
  3  7  1  0
  4  3  2  0
  5  4  1  0
  6  1  1  0
  6  5  2  0
  9  7  1  6
  9  8  2  0
  9 10  1  0
 11  9  1  0
 11 12  1  0
 12 13  2  0
  1 14  1  0
  2 15  1  0
  5 16  1  0
 10 17  1  0
 18 19  1  0
 19 20  1  0
 20 21  1  0
 21 22  1  0
 22 23  1  0
 23 24  1  0
 23 25  1  0
 25 26  1  0
 25 19  1  0
 18 27  1  0
 19 28  1  1
 20 29  1  6
 22 30  1  0
 22 31  1  0
 23 32  1  1
 24 33  1  0
 25 34  1  6
 26 35  1  0
 12 20  1  0
M  ISO  4  14  14  15  14  16  14  17   3
M  END
>  <DihAtoms>  (1) 
10,11,19,18

>  <DihDeg>  (1) 
-53.916810135461034

$$$$
