
     RDKit          3D

 38 40  0  0  0  0  0  0  0  0999 V2000
   46.2686   34.7458   43.2400 C   0  0  0  0  0  0  0  0  0  0  0  0
   45.3054   35.7408   43.5919 C   0  0  0  0  0  0  0  0  0  0  0  0
   44.6544   35.5741   44.8202 C   0  0  0  0  0  0  0  0  0  0  0  0
   44.9735   34.5024   45.5798 N   0  0  0  0  0  0  0  0  0  0  0  0
   45.9139   33.5823   45.1749 C   0  0  0  0  0  0  0  0  0  0  0  0
   46.5539   33.6958   44.0259 N   0  0  0  0  0  0  0  0  0  0  0  0
   46.2264   32.4346   46.0809 C   0  0  1  0  0  0  0  0  0  0  0  0
   47.0389   32.6899   47.3314 C   0  0  0  0  0  0  0  0  0  0  0  0
   45.5479   32.4995   47.3923 C   0  0  1  0  0  0  0  0  0  0  0  0
   44.8478   33.6958   47.7954 N   0  0  0  0  0  0  0  0  0  0  0  0
   46.9175   34.9732   41.9718 C   0  0  0  0  0  0  0  0  0  0  0  0
   48.0869   35.4859   41.8635 O   0  0  0  0  0  0  0  0  0  0  0  0
   45.0999   36.5738   42.9344 H   0  0  0  0  0  0  0  0  0  0  0  0
   43.9181   36.2893   45.1425 H   0  0  0  0  0  0  0  0  0  0  0  0
   46.4013   31.4438   45.6305 H   0  0  0  0  0  0  0  0  0  0  0  0
   47.4678   33.7209   47.3659 H   0  0  0  0  0  0  0  0  0  0  0  0
   47.7251   31.9100   47.6731 H   0  0  0  0  0  0  0  0  0  0  0  0
   45.2489   31.5961   47.9490 H   0  0  0  0  0  0  0  0  0  0  0  0
   45.4001   34.5308   47.9359 H   0  0  0  0  0  0  0  0  0  0  0  0
   43.8636   33.7491   47.5676 H   0  0  0  0  0  0  0  0  0  0  0  0
   48.5327   34.6742   39.9245 O   0  0  0  0  0  0  0  0  0  0  0  0
   47.3486   33.9478   39.8406 C   0  0  1  0  0  0  0  0  0  0  0  0
   46.2786   34.6288   40.6684 C   0  0  2  0  0  0  0  0  0  0  0  0
   45.8671   35.8291   40.0996 O   0  0  0  0  0  0  0  0  0  0  0  0
   45.4465   35.6826   38.7880 C   0  0  0  0  0  0  0  0  0  0  0  0
   46.5191   35.1526   37.8811 C   0  0  2  0  0  0  0  0  0  0  0  0
   45.9349   34.9164   36.6291 O   0  0  0  0  0  0  0  0  0  0  0  0
   46.9633   33.8151   38.3997 C   0  0  1  0  0  0  0  0  0  0  0  0
   48.1389   33.4343   37.7143 O   0  0  0  0  0  0  0  0  0  0  0  0
   48.5284   35.4905   39.3598 H   0  0  0  0  0  0  0  0  0  0  0  0
   47.5370   32.9594   40.3082 H   0  0  0  0  0  0  0  0  0  0  0  0
   45.4170   33.9562   40.8090 H   0  0  0  0  0  0  0  0  0  0  0  0
   44.5546   35.0279   38.6804 H   0  0  0  0  0  0  0  0  0  0  0  0
   45.1620   36.6891   38.4234 H   0  0  0  0  0  0  0  0  0  0  0  0
   47.3510   35.8673   37.7371 H   0  0  0  0  0  0  0  0  0  0  0  0
   46.5086   35.2727   35.9076 H   0  0  0  0  0  0  0  0  0  0  0  0
   46.1679   33.0726   38.2188 H   0  0  0  0  0  0  0  0  0  0  0  0
   48.9497   33.7920   38.1750 H   0  0  0  0  0  0  0  0  0  0  0  0
  1  2  2  0
  1  6  1  0
  2  3  1  0
  3  4  2  0
  5  4  1  0
  5  7  1  0
  6  5  2  0
  7  8  1  0
  7  9  1  0
  8  9  1  0
  9 10  1  0
 11  1  1  0
 12 11  2  0
  2 13  1  0
  3 14  1  0
  7 15  1  6
  8 16  1  0
  8 17  1  0
  9 18  1  1
 10 19  1  0
 10 20  1  0
 21 22  1  0
 22 23  1  0
 23 24  1  0
 24 25  1  0
 25 26  1  0
 26 27  1  0
 26 28  1  0
 28 29  1  0
 28 22  1  0
 21 30  1  0
 22 31  1  1
 23 32  1  1
 25 33  1  0
 25 34  1  0
 26 35  1  6
 27 36  1  0
 28 37  1  1
 29 38  1  0
 11 23  1  0
M  ISO  8  13  14  14  14  15  13  16  13  17  13  18  13  19   5  20   5
M  END
>  <DihAtoms>  (1) 
0,10,22,21

>  <DihDeg>  (1) 
-60.51753520214001

$$$$
