
     RDKit          3D

 46 48  0  0  0  0  0  0  0  0999 V2000
   46.3250   34.9905   41.9222 C   0  0  0  0  0  0  0  0  0  0  0  0
   44.8565   34.9394   41.7034 C   0  0  0  0  0  0  0  0  0  0  0  0
   43.9752   35.4310   42.7106 C   0  0  0  0  0  0  0  0  0  0  0  0
   42.3120   35.1505   41.9774 S   0  0  0  0  0  0  0  0  0  0  0  0
   43.1006   34.4053   40.4101 C   0  0  0  0  0  0  0  0  0  0  0  0
   44.2113   34.4800   40.6543 N   0  0  0  0  0  0  0  0  0  0  0  0
   42.3497   33.9357   39.3312 O   0  0  0  0  0  0  0  0  0  0  0  0
   40.4119   34.3924   37.5856 O   0  0  0  0  0  0  0  0  0  0  0  0
   41.4861   35.0823   38.4242 P   0  0  0  0  0  0  0  0  0  0  0  0
   40.7632   36.1595   39.4962 O   0  0  0  0  0  0  0  0  0  0  0  0
   42.5632   35.9413   37.4285 O   0  0  0  0  0  0  0  0  0  0  0  0
   47.1340   34.3500   40.8221 C   0  0  0  0  0  0  0  0  0  0  0  0
   48.4687   33.9155   41.2740 C   0  0  0  0  0  0  0  0  0  0  0  0
   48.9370   32.7075   40.7935 C   0  0  0  0  0  0  0  0  0  0  0  0
   50.1812   32.2158   41.1624 C   0  0  0  0  0  0  0  0  0  0  0  0
   50.9191   32.9889   42.0257 N   0  0  0  0  0  0  0  0  0  0  0  0
   50.4292   34.1603   42.4723 C   0  0  0  0  0  0  0  0  0  0  0  0
   49.2382   34.6093   42.1062 N   0  0  0  0  0  0  0  0  0  0  0  0
   47.9178   31.7339   39.6582 S   0  0  0  0  0  0  0  0  0  0  0  0
   46.6814   36.0364   42.0518 H   0  0  0  0  0  0  0  0  0  0  0  0
   46.5158   34.4147   42.8504 H   0  0  0  0  0  0  0  0  0  0  0  0
   44.2434   35.8573   43.6599 H   0  0  0  0  0  0  0  0  0  0  0  0
   39.9449   36.4960   39.0739 H   0  0  0  0  0  0  0  0  0  0  0  0
   42.1367   36.3974   36.6837 H   0  0  0  0  0  0  0  0  0  0  0  0
   46.5293   33.4883   40.4689 H   0  0  0  0  0  0  0  0  0  0  0  0
   47.2049   35.0541   39.9612 H   0  0  0  0  0  0  0  0  0  0  0  0
   50.5510   31.2723   40.7893 H   0  0  0  0  0  0  0  0  0  0  0  0
   50.9784   34.7980   43.1525 H   0  0  0  0  0  0  0  0  0  0  0  0
   51.0393   30.2736   39.9601 O   0  0  0  0  0  0  0  0  0  0  0  0
   50.2202   30.5978   38.8786 C   0  0  2  0  0  0  0  0  0  0  0  0
   48.7698   30.2327   39.2059 C   0  0  2  0  0  0  0  0  0  0  0  0
   48.1272   29.7079   38.0833 O   0  0  0  0  0  0  0  0  0  0  0  0
   48.4926   30.5011   36.9949 C   0  0  0  0  0  0  0  0  0  0  0  0
   49.8063   29.9524   36.4883 C   0  0  1  0  0  0  0  0  0  0  0  0
   50.3485   30.7751   35.5005 O   0  0  0  0  0  0  0  0  0  0  0  0
   50.7197   29.8080   37.6912 C   0  0  1  0  0  0  0  0  0  0  0  0
   51.9796   30.2912   37.3686 O   0  0  0  0  0  0  0  0  0  0  0  0
   51.9544   30.4560   39.6977 H   0  0  0  0  0  0  0  0  0  0  0  0
   50.3471   31.6831   38.6916 H   0  0  0  0  0  0  0  0  0  0  0  0
   48.8072   29.4533   39.9693 H   0  0  0  0  0  0  0  0  0  0  0  0
   48.6782   31.5338   37.3779 H   0  0  0  0  0  0  0  0  0  0  0  0
   47.7197   30.5530   36.2140 H   0  0  0  0  0  0  0  0  0  0  0  0
   49.6123   28.9590   36.0441 H   0  0  0  0  0  0  0  0  0  0  0  0
   51.3216   30.6414   35.4133 H   0  0  0  0  0  0  0  0  0  0  0  0
   50.8045   28.7491   38.0184 H   0  0  0  0  0  0  0  0  0  0  0  0
   52.2105   31.1495   37.7676 H   0  0  0  0  0  0  0  0  0  0  0  0
  2  1  1  0
  2  3  2  0
  4  3  1  0
  5  6  2  0
  5  4  1  0
  6  2  1  0
  7  5  1  0
  8  9  2  0
  9  7  1  0
  9 10  1  0
 11  9  1  0
 12 13  1  0
 12  1  1  0
 13 18  2  0
 14 15  2  0
 14 13  1  0
 15 16  1  0
 16 17  2  0
 18 17  1  0
 19 14  1  0
  1 20  1  0
  1 21  1  0
  3 22  1  0
 10 23  1  0
 11 24  1  0
 12 25  1  0
 12 26  1  0
 15 27  1  0
 17 28  1  0
 29 30  1  0
 30 31  1  0
 31 32  1  0
 32 33  1  0
 33 34  1  0
 34 35  1  0
 34 36  1  0
 36 37  1  0
 36 30  1  0
 29 38  1  0
 30 39  1  6
 31 40  1  1
 33 41  1  0
 33 42  1  0
 34 43  1  6
 35 44  1  0
 36 45  1  1
 37 46  1  0
 19 31  1  0
M  ISO  8  20   8  21   8  22  14  23   3  24   3  25   8  26   8  27  14
M  ISO  1  28  14
M  END
>  <DihAtoms>  (1) 
13,18,30,29

>  <DihDeg>  (1) 
-179.99560943094866

$$$$
