
     RDKit          3D

 36 37  0  0  0  0  0  0  0  0999 V2000
   47.1552   33.9841   42.4692 C   0  0  0  0  0  0  0  0  0  0  0  0
   45.2915   34.2298   45.6979 C   0  0  0  0  0  0  0  0  0  0  0  0
   46.1684   33.7394   44.7041 C   0  0  0  0  0  0  0  0  0  0  0  0
   46.2615   34.4499   43.5297 C   0  0  0  0  0  0  0  0  0  0  0  0
   45.5074   35.5991   43.3649 N   0  0  0  0  0  0  0  0  0  0  0  0
   44.6788   36.0297   44.3498 C   0  0  0  0  0  0  0  0  0  0  0  0
   44.5749   35.3540   45.4960 N   0  0  0  0  0  0  0  0  0  0  0  0
   48.3175   33.4126   43.0098 O   0  0  0  0  0  0  0  0  0  0  0  0
   50.6641   33.1111   41.9140 O   0  0  0  0  0  0  0  0  0  0  0  0
   49.6293   34.1598   42.2199 P   0  0  2  0  0  0  0  0  0  0  0  0
   50.2078   35.3592   43.2466 O   0  0  0  0  0  0  0  0  0  0  0  0
   49.0645   34.7973   40.7850 O   0  0  0  0  0  0  0  0  0  0  0  0
   46.6413   33.1669   41.9172 H   0  0  0  0  0  0  0  0  0  0  0  0
   47.3725   34.7764   41.7207 H   0  0  0  0  0  0  0  0  0  0  0  0
   45.2742   33.6157   46.5917 H   0  0  0  0  0  0  0  0  0  0  0  0
   46.7433   32.8484   44.8507 H   0  0  0  0  0  0  0  0  0  0  0  0
   44.0858   36.9236   44.2338 H   0  0  0  0  0  0  0  0  0  0  0  0
   50.9332   35.9032   42.8571 H   0  0  0  0  0  0  0  0  0  0  0  0
   49.6692   36.4868   37.9342 O   0  0  0  0  0  0  0  0  0  0  0  0
   49.2679   35.2989   38.5065 C   0  0  2  0  0  0  0  0  0  0  0  0
   49.9887   35.0378   39.8121 C   0  0  2  0  0  0  0  0  0  0  0  0
   50.9161   34.0255   39.6317 O   0  0  0  0  0  0  0  0  0  0  0  0
   51.6839   34.4120   38.5171 C   0  0  0  0  0  0  0  0  0  0  0  0
   50.9293   33.9203   37.3101 C   0  0  2  0  0  0  0  0  0  0  0  0
   51.3609   34.5285   36.1293 O   0  0  0  0  0  0  0  0  0  0  0  0
   49.4590   34.1842   37.5033 C   0  0  1  0  0  0  0  0  0  0  0  0
   48.8324   32.9993   37.8777 O   0  0  0  0  0  0  0  0  0  0  0  0
   49.2091   36.5364   37.0407 H   0  0  0  0  0  0  0  0  0  0  0  0
   48.1621   35.3944   38.6695 H   0  0  0  0  0  0  0  0  0  0  0  0
   50.5637   35.9594   40.1001 H   0  0  0  0  0  0  0  0  0  0  0  0
   51.7313   35.5218   38.4782 H   0  0  0  0  0  0  0  0  0  0  0  0
   52.7197   34.0414   38.5799 H   0  0  0  0  0  0  0  0  0  0  0  0
   51.1151   32.8094   37.2737 H   0  0  0  0  0  0  0  0  0  0  0  0
   51.7789   33.8421   35.5573 H   0  0  0  0  0  0  0  0  0  0  0  0
   48.9451   34.5312   36.5769 H   0  0  0  0  0  0  0  0  0  0  0  0
   49.4742   32.2341   37.8526 H   0  0  0  0  0  0  0  0  0  0  0  0
  1  8  1  0
  1  4  1  0
  3  2  2  0
  4  3  1  0
  5  4  2  0
  5  6  1  0
  6  7  2  0
  7  2  1  0
  9 10  2  0
 10  8  1  1
 10 11  1  0
 12 10  1  0
  1 13  1  0
  1 14  1  0
  2 15  1  0
  3 16  1  0
  6 17  1  0
 11 18  1  0
 19 20  1  0
 20 21  1  0
 21 22  1  0
 22 23  1  0
 23 24  1  0
 24 25  1  0
 24 26  1  0
 26 27  1  0
 26 20  1  0
 19 28  1  0
 20 29  1  1
 21 30  1  1
 23 31  1  0
 23 32  1  0
 24 33  1  6
 25 34  1  0
 26 35  1  6
 27 36  1  0
 12 21  1  0
M  ISO  6  13   8  14   8  15  14  16  14  17  14  18   3
M  END
>  <DihAtoms>  (1) 
9,11,20,19

>  <DihDeg>  (1) 
-118.01824830310363

$$$$
