
     RDKit          3D

 38 40  0  0  0  0  0  0  0  0999 V2000
   46.2686   34.7458   43.2400 C   0  0  0  0  0  0  0  0  0  0  0  0
   45.3054   35.7408   43.5919 C   0  0  0  0  0  0  0  0  0  0  0  0
   44.6544   35.5741   44.8202 C   0  0  0  0  0  0  0  0  0  0  0  0
   44.9735   34.5024   45.5798 N   0  0  0  0  0  0  0  0  0  0  0  0
   45.9139   33.5823   45.1749 C   0  0  0  0  0  0  0  0  0  0  0  0
   46.5539   33.6958   44.0259 N   0  0  0  0  0  0  0  0  0  0  0  0
   46.2264   32.4346   46.0809 C   0  0  1  0  0  0  0  0  0  0  0  0
   47.0389   32.6899   47.3314 C   0  0  0  0  0  0  0  0  0  0  0  0
   45.5479   32.4995   47.3923 C   0  0  1  0  0  0  0  0  0  0  0  0
   44.8478   33.6958   47.7954 N   0  0  0  0  0  0  0  0  0  0  0  0
   46.9175   34.9732   41.9718 C   0  0  0  0  0  0  0  0  0  0  0  0
   48.0869   35.4859   41.8635 O   0  0  0  0  0  0  0  0  0  0  0  0
   45.0999   36.5738   42.9344 H   0  0  0  0  0  0  0  0  0  0  0  0
   43.9181   36.2893   45.1425 H   0  0  0  0  0  0  0  0  0  0  0  0
   46.4013   31.4438   45.6305 H   0  0  0  0  0  0  0  0  0  0  0  0
   47.4678   33.7209   47.3659 H   0  0  0  0  0  0  0  0  0  0  0  0
   47.7251   31.9100   47.6731 H   0  0  0  0  0  0  0  0  0  0  0  0
   45.2489   31.5961   47.9490 H   0  0  0  0  0  0  0  0  0  0  0  0
   45.4001   34.5308   47.9359 H   0  0  0  0  0  0  0  0  0  0  0  0
   43.8636   33.7491   47.5676 H   0  0  0  0  0  0  0  0  0  0  0  0
   48.5153   34.0831   40.0891 O   0  0  0  0  0  0  0  0  0  0  0  0
   47.2014   33.6340   39.9957 C   0  0  1  0  0  0  0  0  0  0  0  0
   46.2786   34.6288   40.6684 C   0  0  2  0  0  0  0  0  0  0  0  0
   46.1807   35.8151   39.9496 O   0  0  0  0  0  0  0  0  0  0  0  0
   45.7998   35.6126   38.6333 C   0  0  0  0  0  0  0  0  0  0  0  0
   46.7636   34.7541   37.8666 C   0  0  2  0  0  0  0  0  0  0  0  0
   46.2003   34.5082   36.6069 O   0  0  0  0  0  0  0  0  0  0  0  0
   46.8641   33.4218   38.5523 C   0  0  1  0  0  0  0  0  0  0  0  0
   47.9518   32.7107   37.9972 O   0  0  0  0  0  0  0  0  0  0  0  0
   48.7250   34.8075   39.4439 H   0  0  0  0  0  0  0  0  0  0  0  0
   47.1358   32.6906   40.5759 H   0  0  0  0  0  0  0  0  0  0  0  0
   45.2801   34.1864   40.8153 H   0  0  0  0  0  0  0  0  0  0  0  0
   44.7876   35.1650   38.5299 H   0  0  0  0  0  0  0  0  0  0  0  0
   45.7714   36.6071   38.1463 H   0  0  0  0  0  0  0  0  0  0  0  0
   47.7432   35.2434   37.7097 H   0  0  0  0  0  0  0  0  0  0  0  0
   46.8737   34.6403   35.8958 H   0  0  0  0  0  0  0  0  0  0  0  0
   45.9290   32.8591   38.3923 H   0  0  0  0  0  0  0  0  0  0  0  0
   48.8005   32.9305   38.4757 H   0  0  0  0  0  0  0  0  0  0  0  0
  1  2  2  0
  1  6  1  0
  2  3  1  0
  3  4  2  0
  5  4  1  0
  5  7  1  0
  6  5  2  0
  7  8  1  0
  7  9  1  0
  8  9  1  0
  9 10  1  0
 11  1  1  0
 12 11  2  0
  2 13  1  0
  3 14  1  0
  7 15  1  6
  8 16  1  0
  8 17  1  0
  9 18  1  1
 10 19  1  0
 10 20  1  0
 21 22  1  0
 22 23  1  0
 23 24  1  0
 24 25  1  0
 25 26  1  0
 26 27  1  0
 26 28  1  0
 28 29  1  0
 28 22  1  0
 21 30  1  0
 22 31  1  1
 23 32  1  1
 25 33  1  0
 25 34  1  0
 26 35  1  6
 27 36  1  0
 28 37  1  1
 29 38  1  0
 11 23  1  0
M  ISO  8  13  14  14  14  15  13  16  13  17  13  18  13  19   5  20   5
M  END
>  <DihAtoms>  (1) 
0,10,22,21

>  <DihDeg>  (1) 
-60.51753520214001

$$$$
