
     RDKit          3D

 34 35  0  0  0  0  0  0  0  0999 V2000
   44.7245   35.3892   45.0276 C   0  0  0  0  0  0  0  0  0  0  0  0
   45.5953   34.9054   44.0377 C   0  0  0  0  0  0  0  0  0  0  0  0
   46.3209   33.7343   44.3111 C   0  0  0  0  0  0  0  0  0  0  0  0
   46.1153   33.1606   45.5312 N   0  0  0  0  0  0  0  0  0  0  0  0
   45.2793   33.6545   46.4434 C   0  0  0  0  0  0  0  0  0  0  0  0
   44.5771   34.7644   46.2093 N   0  0  0  0  0  0  0  0  0  0  0  0
   45.6823   35.6960   42.7740 C   0  0  0  0  0  0  0  0  0  0  0  0
   45.2676   36.9763   43.0964 F   0  0  0  0  0  0  0  0  0  0  0  0
   44.8172   35.1350   41.8734 F   0  0  0  0  0  0  0  0  0  0  0  0
   46.9915   35.6481   42.3274 F   0  0  0  0  0  0  0  0  0  0  0  0
   45.1961   32.9539   47.6151 O   0  0  0  0  0  0  0  0  0  0  0  0
   46.2109   32.3965   48.3614 C   0  0  0  0  0  0  0  0  0  0  0  0
   44.1488   36.2908   44.8471 H   0  0  0  0  0  0  0  0  0  0  0  0
   46.9792   33.3914   43.5278 H   0  0  0  0  0  0  0  0  0  0  0  0
   45.7074   31.7605   49.1476 H   0  0  0  0  0  0  0  0  0  0  0  0
   46.7049   31.6263   47.6765 H   0  0  0  0  0  0  0  0  0  0  0  0
   49.1215   32.5053   47.7319 O   0  0  0  0  0  0  0  0  0  0  0  0
   48.3519   33.6165   48.0849 C   0  0  1  0  0  0  0  0  0  0  0  0
   47.2334   33.2751   48.9865 C   0  0  2  0  0  0  0  0  0  0  0  0
   47.6610   32.7065   50.1880 O   0  0  0  0  0  0  0  0  0  0  0  0
   48.9131   33.1492   50.5721 C   0  0  0  0  0  0  0  0  0  0  0  0
   49.2056   34.5869   50.2204 C   0  0  1  0  0  0  0  0  0  0  0  0
   50.4638   34.8898   50.7215 O   0  0  0  0  0  0  0  0  0  0  0  0
   49.2569   34.6880   48.7107 C   0  0  1  0  0  0  0  0  0  0  0  0
   50.5370   34.4696   48.2260 O   0  0  0  0  0  0  0  0  0  0  0  0
   48.8392   31.6685   48.1631 H   0  0  0  0  0  0  0  0  0  0  0  0
   47.9797   34.0708   47.1656 H   0  0  0  0  0  0  0  0  0  0  0  0
   46.7237   34.2410   49.2856 H   0  0  0  0  0  0  0  0  0  0  0  0
   48.9413   33.0984   51.6966 H   0  0  0  0  0  0  0  0  0  0  0  0
   49.7346   32.5241   50.2211 H   0  0  0  0  0  0  0  0  0  0  0  0
   48.4794   35.2928   50.6792 H   0  0  0  0  0  0  0  0  0  0  0  0
   51.1671   34.3453   50.2991 H   0  0  0  0  0  0  0  0  0  0  0  0
   48.9442   35.7095   48.4393 H   0  0  0  0  0  0  0  0  0  0  0  0
   50.8585   33.5561   48.4093 H   0  0  0  0  0  0  0  0  0  0  0  0
  1  6  2  0
  2  3  2  0
  2  1  1  0
  3  4  1  0
  4  5  2  0
  5 11  1  0
  6  5  1  0
  7  8  1  0
  7  2  1  0
  9  7  1  0
 10  7  1  0
 11 12  1  0
  1 13  1  0
  3 14  1  0
 12 15  1  0
 12 16  1  0
 17 18  1  0
 18 19  1  0
 19 20  1  0
 20 21  1  0
 21 22  1  0
 22 23  1  0
 22 24  1  0
 24 25  1  0
 24 18  1  0
 17 26  1  0
 18 27  1  6
 19 28  1  1
 21 29  1  0
 21 30  1  0
 22 31  1  1
 23 32  1  0
 24 33  1  1
 25 34  1  0
 12 19  1  0
M  ISO  4  13  14  14  14  15   8  16   8
M  END
>  <DihAtoms>  (1) 
10,11,18,17

>  <DihDeg>  (1) 
-55.30898240937366

$$$$
