
     RDKit          3D

 33 34  0  0  0  0  0  0  0  0999 V2000
   44.4880   35.7005   44.6004 C   0  0  0  0  0  0  0  0  0  0  0  0
   44.9313   35.8259   43.2600 C   0  0  0  0  0  0  0  0  0  0  0  0
   46.0060   34.9958   42.8770 C   0  0  0  0  0  0  0  0  0  0  0  0
   46.5352   34.1487   43.7963 N   0  0  0  0  0  0  0  0  0  0  0  0
   46.0733   34.0704   45.0607 C   0  0  0  0  0  0  0  0  0  0  0  0
   45.0479   34.8480   45.4626 N   0  0  0  0  0  0  0  0  0  0  0  0
   46.5918   33.2160   46.0233 O   0  0  0  0  0  0  0  0  0  0  0  0
   46.7744   32.2228   48.3971 O   0  0  0  0  0  0  0  0  0  0  0  0
   45.7395   32.5233   47.3081 P   0  0  1  0  0  0  0  0  0  0  0  0
   44.5219   33.5221   47.8576 O   0  0  0  0  0  0  0  0  0  0  0  0
   45.0805   31.0275   46.8839 O   0  0  0  0  0  0  0  0  0  0  0  0
   43.6583   36.3338   44.9152 H   0  0  0  0  0  0  0  0  0  0  0  0
   44.4790   36.5161   42.5596 H   0  0  0  0  0  0  0  0  0  0  0  0
   46.3947   35.0397   41.8684 H   0  0  0  0  0  0  0  0  0  0  0  0
   44.8745   34.0708   48.6008 H   0  0  0  0  0  0  0  0  0  0  0  0
   43.3556   31.4565   49.7911 O   0  0  0  0  0  0  0  0  0  0  0  0
   44.6174   31.4471   49.1874 C   0  0  2  0  0  0  0  0  0  0  0  0
   44.7221   30.3985   48.0974 C   0  0  2  0  0  0  0  0  0  0  0  0
   45.6724   29.4358   48.3354 O   0  0  0  0  0  0  0  0  0  0  0  0
   45.5098   28.7506   49.5183 C   0  0  0  0  0  0  0  0  0  0  0  0
   45.2065   29.6412   50.6895 C   0  0  1  0  0  0  0  0  0  0  0  0
   45.8208   29.2717   51.8658 O   0  0  0  0  0  0  0  0  0  0  0  0
   45.6058   31.0582   50.2694 C   0  0  1  0  0  0  0  0  0  0  0  0
   46.8709   31.0163   49.7000 O   0  0  0  0  0  0  0  0  0  0  0  0
   42.8041   30.6720   49.5696 H   0  0  0  0  0  0  0  0  0  0  0  0
   44.7769   32.4793   48.8193 H   0  0  0  0  0  0  0  0  0  0  0  0
   43.7100   29.9545   47.9977 H   0  0  0  0  0  0  0  0  0  0  0  0
   44.7965   27.8938   49.4332 H   0  0  0  0  0  0  0  0  0  0  0  0
   46.5050   28.2579   49.7189 H   0  0  0  0  0  0  0  0  0  0  0  0
   44.1139   29.6107   50.8753 H   0  0  0  0  0  0  0  0  0  0  0  0
   45.3715   29.8086   52.5841 H   0  0  0  0  0  0  0  0  0  0  0  0
   45.4985   31.7865   51.0884 H   0  0  0  0  0  0  0  0  0  0  0  0
   46.9682   31.7097   48.9972 H   0  0  0  0  0  0  0  0  0  0  0  0
  1  6  2  0
  2  1  1  0
  3  2  2  0
  3  4  1  0
  4  5  2  0
  5  6  1  0
  5  7  1  0
  9  7  1  6
  9 10  1  0
  9  8  2  0
 11  9  1  0
  1 12  1  0
  2 13  1  0
  3 14  1  0
 10 15  1  0
 16 17  1  0
 17 18  1  0
 18 19  1  0
 19 20  1  0
 20 21  1  0
 21 22  1  0
 21 23  1  0
 23 24  1  0
 23 17  1  0
 16 25  1  0
 17 26  1  6
 18 27  1  6
 20 28  1  0
 20 29  1  0
 21 30  1  1
 22 31  1  0
 23 32  1  1
 24 33  1  0
 11 18  1  0
M  ISO  4  12  14  13  14  14  14  15   3
M  END
>  <DihAtoms>  (1) 
8,10,17,16

>  <DihDeg>  (1) 
-115.73800962063926

$$$$
