
     RDKit          3D

 28 29  0  0  1  0  0  0  0  0999 V2000
   48.2450   34.4970   40.7710 C   0  0  1  0  0  0  0  0  0  0  0  0
   46.8090   34.4260   41.2640 C   0  0  2  0  0  0  0  0  0  0  0  0
   46.6940   33.6570   42.4260 O   0  0  0  0  0  0  0  0  0  0  0  0
   47.6050   34.0830   43.3930 C   0  0  0  0  0  0  0  0  0  0  0  0
   48.9950   33.6720   42.9430 C   0  0  1  0  0  0  0  0  0  0  0  0
   48.9720   33.3430   41.4710 C   0  0  2  0  0  0  0  0  0  0  0  0
   48.3310   34.3400   39.3910 O   0  0  0  0  0  0  0  0  0  0  0  0
   49.8700   34.7320   43.1590 O   0  0  0  0  0  0  0  0  0  0  0  0
   50.2450   33.1470   40.9780 O   0  0  0  0  0  0  0  0  0  0  0  0
   45.7090   33.6700   40.0170 S   0  0  0  0  0  0  0  0  0  0  0  0
   42.3130   35.4020   41.4180 C   0  0  0  0  0  0  0  0  0  0  0  0
   43.6620   35.2320   41.0400 C   0  0  0  0  0  0  0  0  0  0  0  0
   44.0300   33.9810   40.5230 C   0  0  0  0  0  0  0  0  0  0  0  0
   43.0780   33.0130   40.4180 N   0  0  0  0  0  0  0  0  0  0  0  0
   41.7940   33.2110   40.7900 C   0  0  0  0  0  0  0  0  0  0  0  0
   41.4130   34.4070   41.2910 N   0  0  0  0  0  0  0  0  0  0  0  0
   48.6851   35.4793   40.9979 H   0  0  0  0  0  0  0  0  0  0  0  0
   46.5136   35.4666   41.4636 H   0  0  0  0  0  0  0  0  0  0  0  0
   47.5547   35.1769   43.4967 H   0  0  0  0  0  0  0  0  0  0  0  0
   47.3689   33.6282   44.3663 H   0  0  0  0  0  0  0  0  0  0  0  0
   49.3226   32.7889   43.5112 H   0  0  0  0  0  0  0  0  0  0  0  0
   48.4422   32.3969   41.2864 H   0  0  0  0  0  0  0  0  0  0  0  0
   48.7961   33.4910   39.1838 H   0  0  0  0  0  0  0  0  0  0  0  0
   49.9853   34.8717   44.1323 H   0  0  0  0  0  0  0  0  0  0  0  0
   50.8794   33.0493   41.7317 H   0  0  0  0  0  0  0  0  0  0  0  0
   41.9882   36.3704   41.8263 H   0  0  0  0  0  0  0  0  0  0  0  0
   44.3940   36.0461   41.1463 H   0  0  0  0  0  0  0  0  0  0  0  0
   41.0593   32.3991   40.6851 H   0  0  0  0  0  0  0  0  0  0  0  0
  1  7  1  0
  1  2  1  0
  1  6  1  0
  2 10  1  0
  2  3  1  0
  3  4  1  0
  5  8  1  0
  5  4  1  0
  6  9  1  0
  6  5  1  0
 10 13  1  0
 12 11  2  0
 13 12  1  0
 14 13  2  0
 14 15  1  0
 15 16  2  0
 16 11  1  0
  1 17  1  6
  2 18  1  1
  4 19  1  0
  4 20  1  0
  5 21  1  1
  6 22  1  1
  7 23  1  0
  8 24  1  0
  9 25  1  0
 11 26  1  0
 12 27  1  0
 15 28  1  0
M  ISO  8  17  13  18  13  19  13  20  13  21  13  22  13  23   3  24   3
M  ISO  4  25   3  26  14  27  14  28  14
M  END
>  <minimizedAffinity>  (1) 
-4.68028212

>  <minimizedRMSD>  (1) 
3.39804387

$$$$
