
     RDKit          3D

 34 35  0  0  0  0  0  0  0  0999 V2000
   44.7245   35.3892   45.0276 C   0  0  0  0  0  0  0  0  0  0  0  0
   45.5953   34.9054   44.0377 C   0  0  0  0  0  0  0  0  0  0  0  0
   46.3209   33.7343   44.3111 C   0  0  0  0  0  0  0  0  0  0  0  0
   46.1153   33.1606   45.5312 N   0  0  0  0  0  0  0  0  0  0  0  0
   45.2793   33.6545   46.4434 C   0  0  0  0  0  0  0  0  0  0  0  0
   44.5771   34.7644   46.2093 N   0  0  0  0  0  0  0  0  0  0  0  0
   45.6823   35.6960   42.7740 C   0  0  0  0  0  0  0  0  0  0  0  0
   45.2676   36.9763   43.0964 F   0  0  0  0  0  0  0  0  0  0  0  0
   44.8172   35.1350   41.8734 F   0  0  0  0  0  0  0  0  0  0  0  0
   46.9915   35.6481   42.3274 F   0  0  0  0  0  0  0  0  0  0  0  0
   45.1961   32.9539   47.6151 O   0  0  0  0  0  0  0  0  0  0  0  0
   46.2109   32.3965   48.3614 C   0  0  0  0  0  0  0  0  0  0  0  0
   44.1488   36.2908   44.8471 H   0  0  0  0  0  0  0  0  0  0  0  0
   46.9792   33.3914   43.5278 H   0  0  0  0  0  0  0  0  0  0  0  0
   45.7074   31.7605   49.1476 H   0  0  0  0  0  0  0  0  0  0  0  0
   46.7049   31.6263   47.6765 H   0  0  0  0  0  0  0  0  0  0  0  0
   46.2134   33.4619   51.1443 O   0  0  0  0  0  0  0  0  0  0  0  0
   47.3635   33.0874   50.4453 C   0  0  1  0  0  0  0  0  0  0  0  0
   47.2334   33.2751   48.9865 C   0  0  2  0  0  0  0  0  0  0  0  0
   46.9834   34.6022   48.6318 O   0  0  0  0  0  0  0  0  0  0  0  0
   47.5283   35.5053   49.5256 C   0  0  0  0  0  0  0  0  0  0  0  0
   48.8413   35.0744   50.1311 C   0  0  1  0  0  0  0  0  0  0  0  0
   49.2795   36.1051   50.9505 O   0  0  0  0  0  0  0  0  0  0  0  0
   48.5712   33.8609   50.9951 C   0  0  1  0  0  0  0  0  0  0  0  0
   48.2632   34.2184   52.2984 O   0  0  0  0  0  0  0  0  0  0  0  0
   45.5025   33.8343   50.5768 H   0  0  0  0  0  0  0  0  0  0  0  0
   47.5727   32.0431   50.6814 H   0  0  0  0  0  0  0  0  0  0  0  0
   48.2340   33.0307   48.5163 H   0  0  0  0  0  0  0  0  0  0  0  0
   47.7545   36.4404   48.9405 H   0  0  0  0  0  0  0  0  0  0  0  0
   46.8508   35.8060   50.3251 H   0  0  0  0  0  0  0  0  0  0  0  0
   49.6252   34.8957   49.3631 H   0  0  0  0  0  0  0  0  0  0  0  0
   48.6606   36.2661   51.6993 H   0  0  0  0  0  0  0  0  0  0  0  0
   49.4897   33.2516   51.0018 H   0  0  0  0  0  0  0  0  0  0  0  0
   47.4280   34.7382   52.3592 H   0  0  0  0  0  0  0  0  0  0  0  0
  1  6  2  0
  2  3  2  0
  2  1  1  0
  3  4  1  0
  4  5  2  0
  5 11  1  0
  6  5  1  0
  7  8  1  0
  7  2  1  0
  9  7  1  0
 10  7  1  0
 11 12  1  0
  1 13  1  0
  3 14  1  0
 12 15  1  0
 12 16  1  0
 17 18  1  0
 18 19  1  0
 19 20  1  0
 20 21  1  0
 21 22  1  0
 22 23  1  0
 22 24  1  0
 24 25  1  0
 24 18  1  0
 17 26  1  0
 18 27  1  6
 19 28  1  6
 21 29  1  0
 21 30  1  0
 22 31  1  6
 23 32  1  0
 24 33  1  1
 25 34  1  0
 12 19  1  0
M  ISO  4  13  14  14  14  15   8  16   8
M  END
>  <DihAtoms>  (1) 
10,11,18,17

>  <DihDeg>  (1) 
-55.30898240937366

$$$$
