
     RDKit          3D

 33 34  0  0  0  0  0  0  0  0999 V2000
   44.4880   35.7005   44.6004 C   0  0  0  0  0  0  0  0  0  0  0  0
   44.9313   35.8259   43.2600 C   0  0  0  0  0  0  0  0  0  0  0  0
   46.0060   34.9958   42.8770 C   0  0  0  0  0  0  0  0  0  0  0  0
   46.5352   34.1487   43.7963 N   0  0  0  0  0  0  0  0  0  0  0  0
   46.0733   34.0704   45.0607 C   0  0  0  0  0  0  0  0  0  0  0  0
   45.0479   34.8480   45.4626 N   0  0  0  0  0  0  0  0  0  0  0  0
   46.5918   33.2160   46.0233 O   0  0  0  0  0  0  0  0  0  0  0  0
   46.7744   32.2228   48.3971 O   0  0  0  0  0  0  0  0  0  0  0  0
   45.7395   32.5233   47.3081 P   0  0  1  0  0  0  0  0  0  0  0  0
   44.5219   33.5221   47.8576 O   0  0  0  0  0  0  0  0  0  0  0  0
   45.0805   31.0275   46.8839 O   0  0  0  0  0  0  0  0  0  0  0  0
   43.6583   36.3338   44.9152 H   0  0  0  0  0  0  0  0  0  0  0  0
   44.4790   36.5161   42.5596 H   0  0  0  0  0  0  0  0  0  0  0  0
   46.3947   35.0397   41.8684 H   0  0  0  0  0  0  0  0  0  0  0  0
   44.8745   34.0708   48.6008 H   0  0  0  0  0  0  0  0  0  0  0  0
   44.3247   31.6074   50.1555 O   0  0  0  0  0  0  0  0  0  0  0  0
   45.3074   31.1838   49.2547 C   0  0  2  0  0  0  0  0  0  0  0  0
   44.7221   30.3985   48.0974 C   0  0  2  0  0  0  0  0  0  0  0  0
   45.1713   29.1032   48.0150 O   0  0  0  0  0  0  0  0  0  0  0  0
   44.9534   28.3484   49.1454 C   0  0  0  0  0  0  0  0  0  0  0  0
   45.3104   29.0605   50.4191 C   0  0  1  0  0  0  0  0  0  0  0  0
   45.9110   28.2667   51.3715 O   0  0  0  0  0  0  0  0  0  0  0  0
   46.2083   30.2345   50.0204 C   0  0  1  0  0  0  0  0  0  0  0  0
   47.1861   29.7744   49.1493 O   0  0  0  0  0  0  0  0  0  0  0  0
   43.4508   31.1750   50.0214 H   0  0  0  0  0  0  0  0  0  0  0  0
   45.8346   32.1045   48.9374 H   0  0  0  0  0  0  0  0  0  0  0  0
   43.6203   30.4392   48.2224 H   0  0  0  0  0  0  0  0  0  0  0  0
   43.9321   27.8943   49.1781 H   0  0  0  0  0  0  0  0  0  0  0  0
   45.6435   27.4606   49.0512 H   0  0  0  0  0  0  0  0  0  0  0  0
   44.3771   29.4528   50.8712 H   0  0  0  0  0  0  0  0  0  0  0  0
   45.8955   28.8041   52.2183 H   0  0  0  0  0  0  0  0  0  0  0  0
   46.5966   30.7833   50.8927 H   0  0  0  0  0  0  0  0  0  0  0  0
   47.4435   30.4782   48.4992 H   0  0  0  0  0  0  0  0  0  0  0  0
  1  6  2  0
  2  1  1  0
  3  2  2  0
  3  4  1  0
  4  5  2  0
  5  6  1  0
  5  7  1  0
  9  7  1  6
  9 10  1  0
  9  8  2  0
 11  9  1  0
  1 12  1  0
  2 13  1  0
  3 14  1  0
 10 15  1  0
 16 17  1  0
 17 18  1  0
 18 19  1  0
 19 20  1  0
 20 21  1  0
 21 22  1  0
 21 23  1  0
 23 24  1  0
 23 17  1  0
 16 25  1  0
 17 26  1  6
 18 27  1  1
 20 28  1  0
 20 29  1  0
 21 30  1  1
 22 31  1  0
 23 32  1  1
 24 33  1  0
 11 18  1  0
M  ISO  4  12  14  13  14  14  14  15   3
M  END
>  <DihAtoms>  (1) 
8,10,17,16

>  <DihDeg>  (1) 
-115.73800962063926

$$$$
