
     RDKit          3D

 28 29  0  0  1  0  0  0  0  0999 V2000
   46.8250   32.2890   48.1860 C   0  0  1  0  0  0  0  0  0  0  0  0
   45.6790   32.0820   47.2440 C   0  0  2  0  0  0  0  0  0  0  0  0
   45.0410   30.9010   47.5500 O   0  0  0  0  0  0  0  0  0  0  0  0
   45.7900   29.7660   47.3410 C   0  0  0  0  0  0  0  0  0  0  0  0
   47.2710   29.9450   47.5150 C   0  0  1  0  0  0  0  0  0  0  0  0
   47.5780   31.0310   48.5290 C   0  0  2  0  0  0  0  0  0  0  0  0
   47.6590   33.3400   47.7830 O   0  0  0  0  0  0  0  0  0  0  0  0
   47.8150   28.7670   48.0170 O   0  0  0  0  0  0  0  0  0  0  0  0
   47.2680   30.5270   49.7850 O   0  0  0  0  0  0  0  0  0  0  0  0
   46.1580   32.1580   45.5000 S   0  0  0  0  0  0  0  0  0  0  0  0
   44.6110   35.8250   44.8920 C   0  0  0  0  0  0  0  0  0  0  0  0
   45.0580   36.0940   43.5740 C   0  0  0  0  0  0  0  0  0  0  0  0
   45.8310   35.1070   42.9250 C   0  0  0  0  0  0  0  0  0  0  0  0
   46.0970   33.9680   43.6020 N   0  0  0  0  0  0  0  0  0  0  0  0
   45.6540   33.7450   44.8580 C   0  0  0  0  0  0  0  0  0  0  0  0
   44.9220   34.6610   45.4930 N   0  0  0  0  0  0  0  0  0  0  0  0
   46.3685   32.5978   49.1380 H   0  0  0  0  0  0  0  0  0  0  0  0
   44.9792   32.9193   47.3827 H   0  0  0  0  0  0  0  0  0  0  0  0
   45.6061   29.4196   46.3133 H   0  0  0  0  0  0  0  0  0  0  0  0
   45.4745   29.0426   48.1073 H   0  0  0  0  0  0  0  0  0  0  0  0
   47.6924   30.2134   46.5350 H   0  0  0  0  0  0  0  0  0  0  0  0
   48.6418   31.3106   48.5192 H   0  0  0  0  0  0  0  0  0  0  0  0
   48.0224   33.7979   48.5820 H   0  0  0  0  0  0  0  0  0  0  0  0
   47.8028   28.7933   49.0066 H   0  0  0  0  0  0  0  0  0  0  0  0
   47.6367   31.1264   50.4813 H   0  0  0  0  0  0  0  0  0  0  0  0
   44.0062   36.5719   45.4271 H   0  0  0  0  0  0  0  0  0  0  0  0
   44.8105   37.0415   43.0730 H   0  0  0  0  0  0  0  0  0  0  0  0
   46.2046   35.2600   41.9018 H   0  0  0  0  0  0  0  0  0  0  0  0
  1  7  1  0
  1  6  1  0
  2 10  1  0
  2  3  1  0
  2  1  1  0
  4  5  1  0
  4  3  1  0
  5  8  1  0
  5  6  1  0
  6  9  1  0
 11 16  2  0
 12 11  1  0
 13 12  2  0
 13 14  1  0
 14 15  2  0
 15 16  1  0
 15 10  1  0
  1 17  1  1
  2 18  1  6
  4 19  1  0
  4 20  1  0
  5 21  1  6
  6 22  1  1
  7 23  1  0
  8 24  1  0
  9 25  1  0
 11 26  1  0
 12 27  1  0
 13 28  1  0
M  ISO  8  17  13  18  13  19  13  20  13  21  13  22  13  23   3  24   3
M  ISO  4  25   3  26  14  27  14  28  14
M  END
>  <minimizedAffinity>  (1) 
-5.42008162

>  <minimizedRMSD>  (1) 
1.69269407

$$$$
