
     RDKit          3D

 35 36  0  0  0  0  0  0  0  0999 V2000
   46.5399   33.6288   44.3406 C   0  0  0  0  0  0  0  0  0  0  0  0
   46.2445   33.2158   45.6520 C   0  0  0  0  0  0  0  0  0  0  0  0
   45.2930   33.9062   46.3646 C   0  0  0  0  0  0  0  0  0  0  0  0
   44.6873   34.9533   45.7600 N   0  0  0  0  0  0  0  0  0  0  0  0
   44.9643   35.3499   44.5129 C   0  0  0  0  0  0  0  0  0  0  0  0
   45.9034   34.6767   43.7974 N   0  0  0  0  0  0  0  0  0  0  0  0
   45.0399   33.4644   47.6464 O   0  0  0  0  0  0  0  0  0  0  0  0
   45.3433   30.8665   47.4686 O   0  0  0  0  0  0  0  0  0  0  0  0
   45.8126   32.1015   48.2704 P   0  0  2  0  0  0  0  0  0  0  0  0
   45.3281   31.8254   49.8546 O   0  0  0  0  0  0  0  0  0  0  0  0
   47.4551   32.2572   48.1441 O   0  0  0  0  0  0  0  0  0  0  0  0
   48.4682   31.4420   48.5209 C   0  0  0  0  0  0  0  0  0  0  0  0
   49.2104   31.9543   49.4304 O   0  0  0  0  0  0  0  0  0  0  0  0
   47.2703   33.1530   43.7004 H   0  0  0  0  0  0  0  0  0  0  0  0
   46.8286   32.3772   45.9276 H   0  0  0  0  0  0  0  0  0  0  0  0
   44.4654   36.1845   44.0629 H   0  0  0  0  0  0  0  0  0  0  0  0
   44.6523   32.4676   50.1890 H   0  0  0  0  0  0  0  0  0  0  0  0
   48.3306   28.7100   47.1272 O   0  0  0  0  0  0  0  0  0  0  0  0
   48.6253   28.9715   48.4857 C   0  0  2  0  0  0  0  0  0  0  0  0
   49.3740   30.2806   48.6086 C   0  0  2  0  0  0  0  0  0  0  0  0
   50.1669   30.3261   49.7480 O   0  0  0  0  0  0  0  0  0  0  0  0
   49.7199   29.5614   50.7985 C   0  0  0  0  0  0  0  0  0  0  0  0
   49.5404   28.1041   50.5184 C   0  0  1  0  0  0  0  0  0  0  0  0
   48.2353   27.6998   50.8800 O   0  0  0  0  0  0  0  0  0  0  0  0
   49.5982   27.9225   49.0113 C   0  0  1  0  0  0  0  0  0  0  0  0
   49.2441   26.6361   48.6398 O   0  0  0  0  0  0  0  0  0  0  0  0
   49.0359   28.1138   46.7614 H   0  0  0  0  0  0  0  0  0  0  0  0
   47.6591   28.9649   49.0234 H   0  0  0  0  0  0  0  0  0  0  0  0
   50.1125   30.2311   47.7708 H   0  0  0  0  0  0  0  0  0  0  0  0
   48.8264   29.9754   51.3303 H   0  0  0  0  0  0  0  0  0  0  0  0
   50.5234   29.6229   51.5726 H   0  0  0  0  0  0  0  0  0  0  0  0
   50.3092   27.4459   50.9537 H   0  0  0  0  0  0  0  0  0  0  0  0
   47.9973   27.9833   51.7877 H   0  0  0  0  0  0  0  0  0  0  0  0
   50.5947   28.1895   48.6095 H   0  0  0  0  0  0  0  0  0  0  0  0
   48.4684   26.6358   48.0484 H   0  0  0  0  0  0  0  0  0  0  0  0
  1  2  2  0
  2  3  1  0
  3  7  1  0
  4  3  2  0
  5  4  1  0
  6  1  1  0
  6  5  2  0
  9  7  1  6
  9  8  2  0
  9 10  1  0
 11  9  1  0
 11 12  1  0
 12 13  2  0
  1 14  1  0
  2 15  1  0
  5 16  1  0
 10 17  1  0
 18 19  1  0
 19 20  1  0
 20 21  1  0
 21 22  1  0
 22 23  1  0
 23 24  1  0
 23 25  1  0
 25 26  1  0
 25 19  1  0
 18 27  1  0
 19 28  1  1
 20 29  1  6
 22 30  1  0
 22 31  1  0
 23 32  1  1
 24 33  1  0
 25 34  1  6
 26 35  1  0
 12 20  1  0
M  ISO  4  14  14  15  14  16  14  17   3
M  END
>  <DihAtoms>  (1) 
10,11,19,18

>  <DihDeg>  (1) 
-53.916810135461034

$$$$
