
     RDKit          3D

 54 56  0  0  0  0  0  0  0  0999 V2000
   47.1712   34.1590   43.0844 N   0  0  0  0  0  0  0  0  0  0  0  0
   46.6581   35.3595   42.5271 C   0  0  0  0  0  0  0  0  0  0  0  0
   45.1775   35.5894   42.7426 C   0  0  0  0  0  0  0  0  0  0  0  0
   44.6438   35.0433   44.0338 C   0  0  0  0  0  0  0  0  0  0  0  0
   45.7453   34.4695   44.8940 C   0  0  0  0  0  0  0  0  0  0  0  0
   46.4110   33.3985   43.9577 C   0  0  2  0  0  0  0  0  0  0  0  0
   48.1513   33.5038   42.2683 C   0  0  0  0  0  0  0  0  0  0  0  0
   47.4482   32.6514   41.2576 C   0  0  0  0  0  0  0  0  0  0  0  0
   49.3238   32.2814   38.0248 C   0  0  0  0  0  0  0  0  0  0  0  0
   48.8025   32.0130   39.3048 C   0  0  0  0  0  0  0  0  0  0  0  0
   47.9919   32.9472   39.9064 C   0  0  0  0  0  0  0  0  0  0  0  0
   47.7389   34.0793   39.2308 N   0  0  0  0  0  0  0  0  0  0  0  0
   48.2426   34.3225   38.0107 C   0  0  0  0  0  0  0  0  0  0  0  0
   49.0330   33.4371   37.3976 N   0  0  0  0  0  0  0  0  0  0  0  0
   47.2088   32.6971   44.8564 O   0  0  0  0  0  0  0  0  0  0  0  0
   46.0013   30.5449   43.8723 O   0  0  0  0  0  0  0  0  0  0  0  0
   46.6639   31.1251   45.1151 P   0  0  2  0  0  0  0  0  0  0  0  0
   45.4096   31.2464   46.2737 O   0  0  0  0  0  0  0  0  0  0  0  0
   47.8330   30.1196   45.7389 O   0  0  0  0  0  0  0  0  0  0  0  0
   46.8470   35.5164   41.4625 H   0  0  0  0  0  0  0  0  0  0  0  0
   47.1804   36.2154   43.0459 H   0  0  0  0  0  0  0  0  0  0  0  0
   44.6178   35.2077   41.8543 H   0  0  0  0  0  0  0  0  0  0  0  0
   44.9777   36.6907   42.7277 H   0  0  0  0  0  0  0  0  0  0  0  0
   44.0229   35.7861   44.5897 H   0  0  0  0  0  0  0  0  0  0  0  0
   43.9638   34.2001   43.7890 H   0  0  0  0  0  0  0  0  0  0  0  0
   46.4911   35.1953   45.2216 H   0  0  0  0  0  0  0  0  0  0  0  0
   45.2587   33.8829   45.6869 H   0  0  0  0  0  0  0  0  0  0  0  0
   45.5697   32.8034   43.5596 H   0  0  0  0  0  0  0  0  0  0  0  0
   48.8246   34.2649   41.8546 H   0  0  0  0  0  0  0  0  0  0  0  0
   48.7452   32.8354   42.9411 H   0  0  0  0  0  0  0  0  0  0  0  0
   46.3682   32.9027   41.2156 H   0  0  0  0  0  0  0  0  0  0  0  0
   47.5082   31.5816   41.4643 H   0  0  0  0  0  0  0  0  0  0  0  0
   49.9450   31.5000   37.6308 H   0  0  0  0  0  0  0  0  0  0  0  0
   49.0281   31.0883   39.8201 H   0  0  0  0  0  0  0  0  0  0  0  0
   47.9461   35.2830   37.5951 H   0  0  0  0  0  0  0  0  0  0  0  0
   44.5452   31.3979   45.8147 H   0  0  0  0  0  0  0  0  0  0  0  0
   50.2098   27.7587   44.9997 O   0  0  0  0  0  0  0  0  0  0  0  0
   49.8883   29.0119   45.5469 C   0  0  2  0  0  0  0  0  0  0  0  0
   48.6644   29.5424   44.8008 C   0  0  2  0  0  0  0  0  0  0  0  0
   49.0298   30.5226   43.8799 O   0  0  0  0  0  0  0  0  0  0  0  0
   50.1018   30.1055   43.0951 C   0  0  0  0  0  0  0  0  0  0  0  0
   51.3821   29.9759   43.8829 C   0  0  2  0  0  0  0  0  0  0  0  0
   52.0193   28.7516   43.6091 O   0  0  0  0  0  0  0  0  0  0  0  0
   51.0072   30.0086   45.3591 C   0  0  1  0  0  0  0  0  0  0  0  0
   50.4734   31.2878   45.5753 O   0  0  0  0  0  0  0  0  0  0  0  0
   49.5067   27.4618   44.3440 H   0  0  0  0  0  0  0  0  0  0  0  0
   49.7002   28.9497   46.6396 H   0  0  0  0  0  0  0  0  0  0  0  0
   48.1776   28.7110   44.2274 H   0  0  0  0  0  0  0  0  0  0  0  0
   49.8217   29.1405   42.6183 H   0  0  0  0  0  0  0  0  0  0  0  0
   50.2440   30.8625   42.2955 H   0  0  0  0  0  0  0  0  0  0  0  0
   52.0773   30.8258   43.6773 H   0  0  0  0  0  0  0  0  0  0  0  0
   52.6267   28.6057   44.3808 H   0  0  0  0  0  0  0  0  0  0  0  0
   51.8684   29.7813   45.9991 H   0  0  0  0  0  0  0  0  0  0  0  0
   50.8150   31.6943   46.4115 H   0  0  0  0  0  0  0  0  0  0  0  0
  1  6  1  0
  2  3  1  0
  2  1  1  0
  3  4  1  0
  4  5  1  0
  6 15  1  0
  6  5  1  0
  7  1  1  0
  8  7  1  0
  9 10  2  0
 10 11  1  0
 11  8  1  0
 12 11  2  0
 13 12  1  0
 14 13  2  0
 14  9  1  0
 17 15  1  6
 16 17  2  0
 17 19  1  0
 17 18  1  0
  2 20  1  0
  2 21  1  0
  3 22  1  0
  3 23  1  0
  4 24  1  0
  4 25  1  0
  5 26  1  0
  5 27  1  0
  6 28  1  6
  7 29  1  0
  7 30  1  0
  8 31  1  0
  8 32  1  0
  9 33  1  0
 10 34  1  0
 13 35  1  0
 18 36  1  0
 37 38  1  0
 38 39  1  0
 39 40  1  0
 40 41  1  0
 41 42  1  0
 42 43  1  0
 42 44  1  0
 44 45  1  0
 44 38  1  0
 37 46  1  0
 38 47  1  1
 39 48  1  6
 41 49  1  0
 41 50  1  0
 42 51  1  1
 43 52  1  0
 44 53  1  1
 45 54  1  0
 19 39  1  0
M  ISO  8  20  13  21  13  22  13  23  13  24  13  25  13  26  13  27  13
M  ISO  8  28  13  29   8  30   8  31   8  32   8  33  14  34  14  35  14
M  ISO  1  36   3
M  END
>  <DihAtoms>  (1) 
16,18,38,37

>  <DihDeg>  (1) 
-121.40610448146668

$$$$
