
     RDKit          3D

 34 35  0  0  0  0  0  0  0  0999 V2000
   44.7245   35.3892   45.0276 C   0  0  0  0  0  0  0  0  0  0  0  0
   45.5953   34.9054   44.0377 C   0  0  0  0  0  0  0  0  0  0  0  0
   46.3209   33.7343   44.3111 C   0  0  0  0  0  0  0  0  0  0  0  0
   46.1153   33.1606   45.5312 N   0  0  0  0  0  0  0  0  0  0  0  0
   45.2793   33.6545   46.4434 C   0  0  0  0  0  0  0  0  0  0  0  0
   44.5771   34.7644   46.2093 N   0  0  0  0  0  0  0  0  0  0  0  0
   45.6823   35.6960   42.7740 C   0  0  0  0  0  0  0  0  0  0  0  0
   45.2676   36.9763   43.0964 F   0  0  0  0  0  0  0  0  0  0  0  0
   44.8172   35.1350   41.8734 F   0  0  0  0  0  0  0  0  0  0  0  0
   46.9915   35.6481   42.3274 F   0  0  0  0  0  0  0  0  0  0  0  0
   45.1961   32.9539   47.6151 O   0  0  0  0  0  0  0  0  0  0  0  0
   46.2109   32.3965   48.3614 C   0  0  0  0  0  0  0  0  0  0  0  0
   44.1488   36.2908   44.8471 H   0  0  0  0  0  0  0  0  0  0  0  0
   46.9792   33.3914   43.5278 H   0  0  0  0  0  0  0  0  0  0  0  0
   45.7074   31.7605   49.1476 H   0  0  0  0  0  0  0  0  0  0  0  0
   46.7049   31.6263   47.6765 H   0  0  0  0  0  0  0  0  0  0  0  0
   48.3367   33.9576   46.9744 O   0  0  0  0  0  0  0  0  0  0  0  0
   47.6652   34.3904   48.1205 C   0  0  1  0  0  0  0  0  0  0  0  0
   47.2334   33.2751   48.9865 C   0  0  2  0  0  0  0  0  0  0  0  0
   48.3006   32.4959   49.4378 O   0  0  0  0  0  0  0  0  0  0  0  0
   49.4739   33.2170   49.5596 C   0  0  0  0  0  0  0  0  0  0  0  0
   49.2880   34.6482   49.9994 C   0  0  1  0  0  0  0  0  0  0  0  0
   50.5502   35.2102   50.1298 O   0  0  0  0  0  0  0  0  0  0  0  0
   48.5543   35.3760   48.8932 C   0  0  1  0  0  0  0  0  0  0  0  0
   49.4321   35.9329   47.9764 O   0  0  0  0  0  0  0  0  0  0  0  0
   48.4639   32.9842   46.9277 H   0  0  0  0  0  0  0  0  0  0  0  0
   46.8071   34.9834   47.8009 H   0  0  0  0  0  0  0  0  0  0  0  0
   46.7805   33.7209   49.9237 H   0  0  0  0  0  0  0  0  0  0  0  0
   50.0722   32.7224   50.3752 H   0  0  0  0  0  0  0  0  0  0  0  0
   50.1036   33.1984   48.6697 H   0  0  0  0  0  0  0  0  0  0  0  0
   48.7786   34.7272   50.9845 H   0  0  0  0  0  0  0  0  0  0  0  0
   51.0297   35.2372   49.2702 H   0  0  0  0  0  0  0  0  0  0  0  0
   47.9712   36.1849   49.3628 H   0  0  0  0  0  0  0  0  0  0  0  0
   49.9591   35.2516   47.4974 H   0  0  0  0  0  0  0  0  0  0  0  0
  1  6  2  0
  2  3  2  0
  2  1  1  0
  3  4  1  0
  4  5  2  0
  5 11  1  0
  6  5  1  0
  7  8  1  0
  7  2  1  0
  9  7  1  0
 10  7  1  0
 11 12  1  0
  1 13  1  0
  3 14  1  0
 12 15  1  0
 12 16  1  0
 17 18  1  0
 18 19  1  0
 19 20  1  0
 20 21  1  0
 21 22  1  0
 22 23  1  0
 22 24  1  0
 24 25  1  0
 24 18  1  0
 17 26  1  0
 18 27  1  6
 19 28  1  1
 21 29  1  0
 21 30  1  0
 22 31  1  1
 23 32  1  0
 24 33  1  1
 25 34  1  0
 12 19  1  0
M  ISO  4  13  14  14  14  15   8  16   8
M  END
>  <DihAtoms>  (1) 
10,11,18,17

>  <DihDeg>  (1) 
-55.30898240937366

$$$$
