
     RDKit          3D

 30 31  0  0  0  0  0  0  0  0999 V2000
   45.4366   35.0694   43.9947 C   0  0  0  0  0  0  0  0  0  0  0  0
   46.4936   34.2966   43.5144 C   0  0  0  0  0  0  0  0  0  0  0  0
   47.0214   33.2852   44.3351 C   0  0  0  0  0  0  0  0  0  0  0  0
   46.4650   33.1190   45.5595 N   0  0  0  0  0  0  0  0  0  0  0  0
   45.4282   33.8993   45.9930 C   0  0  0  0  0  0  0  0  0  0  0  0
   44.9216   34.8673   45.2100 N   0  0  0  0  0  0  0  0  0  0  0  0
   44.8985   36.1362   43.0974 C   0  0  0  0  0  0  0  0  0  0  0  0
   46.9494   34.4251   42.5241 H   0  0  0  0  0  0  0  0  0  0  0  0
   47.8442   32.6639   43.9945 H   0  0  0  0  0  0  0  0  0  0  0  0
   45.0520   33.6803   47.0018 H   0  0  0  0  0  0  0  0  0  0  0  0
   44.5745   35.7370   42.1222 H   0  0  0  0  0  0  0  0  0  0  0  0
   45.7071   36.9076   42.9420 H   0  0  0  0  0  0  0  0  0  0  0  0
   42.4969   36.3352   41.8093 O   0  0  0  0  0  0  0  0  0  0  0  0
   42.4724   36.3459   43.1757 C   0  0  1  0  0  0  0  0  0  0  0  0
   43.7675   36.8425   43.8162 C   0  0  1  0  0  0  0  0  0  0  0  0
   43.7384   36.4754   45.1575 O   0  0  0  0  0  0  0  0  0  0  0  0
   42.7388   37.1505   45.8168 C   0  0  0  0  0  0  0  0  0  0  0  0
   41.3554   36.8636   45.2577 C   0  0  1  0  0  0  0  0  0  0  0  0
   40.4373   37.6362   45.9565 O   0  0  0  0  0  0  0  0  0  0  0  0
   41.2760   37.0754   43.7716 C   0  0  1  0  0  0  0  0  0  0  0  0
   41.2800   38.4200   43.3995 O   0  0  0  0  0  0  0  0  0  0  0  0
   42.9740   37.0696   41.3850 H   0  0  0  0  0  0  0  0  0  0  0  0
   42.3745   35.2835   43.5347 H   0  0  0  0  0  0  0  0  0  0  0  0
   43.9003   37.9328   43.6864 H   0  0  0  0  0  0  0  0  0  0  0  0
   42.7110   36.7836   46.8766 H   0  0  0  0  0  0  0  0  0  0  0  0
   42.9578   38.2507   45.8048 H   0  0  0  0  0  0  0  0  0  0  0  0
   41.1642   35.7867   45.4340 H   0  0  0  0  0  0  0  0  0  0  0  0
   39.7080   37.9859   45.3825 H   0  0  0  0  0  0  0  0  0  0  0  0
   40.3669   36.5376   43.4081 H   0  0  0  0  0  0  0  0  0  0  0  0
   41.4127   38.9513   44.2083 H   0  0  0  0  0  0  0  0  0  0  0  0
  1  6  1  0
  2  1  2  0
  2  3  1  0
  3  4  2  0
  4  5  1  0
  6  5  2  0
  7  1  1  0
  2  8  1  0
  3  9  1  0
  5 10  1  0
  7 11  1  0
  7 12  1  0
 13 14  1  0
 14 15  1  0
 15 16  1  0
 16 17  1  0
 17 18  1  0
 18 19  1  0
 18 20  1  0
 20 21  1  0
 20 14  1  0
 13 22  1  0
 14 23  1  1
 15 24  1  1
 17 25  1  0
 17 26  1  0
 18 27  1  6
 19 28  1  0
 20 29  1  6
 21 30  1  0
  7 15  1  0
M  ISO  5   8  14   9  14  10  14  11   8  12   8
M  END
>  <DihAtoms>  (1) 
0,6,14,13

>  <DihDeg>  (1) 
-179.99942154274117

$$$$
