
     RDKit          3D

 30 31  0  0  0  0  0  0  0  0999 V2000
   45.4366   35.0694   43.9947 C   0  0  0  0  0  0  0  0  0  0  0  0
   46.4936   34.2966   43.5144 C   0  0  0  0  0  0  0  0  0  0  0  0
   47.0214   33.2852   44.3351 C   0  0  0  0  0  0  0  0  0  0  0  0
   46.4650   33.1190   45.5595 N   0  0  0  0  0  0  0  0  0  0  0  0
   45.4282   33.8993   45.9930 C   0  0  0  0  0  0  0  0  0  0  0  0
   44.9216   34.8673   45.2100 N   0  0  0  0  0  0  0  0  0  0  0  0
   44.8985   36.1362   43.0974 C   0  0  0  0  0  0  0  0  0  0  0  0
   46.9494   34.4251   42.5241 H   0  0  0  0  0  0  0  0  0  0  0  0
   47.8442   32.6639   43.9945 H   0  0  0  0  0  0  0  0  0  0  0  0
   45.0520   33.6803   47.0018 H   0  0  0  0  0  0  0  0  0  0  0  0
   44.5745   35.7370   42.1222 H   0  0  0  0  0  0  0  0  0  0  0  0
   45.7071   36.9076   42.9420 H   0  0  0  0  0  0  0  0  0  0  0  0
   43.0387   37.4388   41.5773 O   0  0  0  0  0  0  0  0  0  0  0  0
   42.6343   36.9857   42.8016 C   0  0  1  0  0  0  0  0  0  0  0  0
   43.7675   36.8425   43.8162 C   0  0  1  0  0  0  0  0  0  0  0  0
   43.2938   36.0612   44.8650 O   0  0  0  0  0  0  0  0  0  0  0  0
   42.2972   36.7227   45.5422 C   0  0  0  0  0  0  0  0  0  0  0  0
   41.0980   37.0508   44.6687 C   0  0  1  0  0  0  0  0  0  0  0  0
   40.1855   37.7629   45.4358 O   0  0  0  0  0  0  0  0  0  0  0  0
   41.4807   37.7736   43.4075 C   0  0  1  0  0  0  0  0  0  0  0  0
   41.8451   39.1040   43.6166 O   0  0  0  0  0  0  0  0  0  0  0  0
   43.7465   38.1066   41.5815 H   0  0  0  0  0  0  0  0  0  0  0  0
   42.2389   35.9391   42.6771 H   0  0  0  0  0  0  0  0  0  0  0  0
   44.1367   37.8254   44.1639 H   0  0  0  0  0  0  0  0  0  0  0  0
   41.9037   36.0379   46.3390 H   0  0  0  0  0  0  0  0  0  0  0  0
   42.7163   37.6494   46.0155 H   0  0  0  0  0  0  0  0  0  0  0  0
   40.6633   36.0805   44.3573 H   0  0  0  0  0  0  0  0  0  0  0  0
   39.7271   38.4802   44.9270 H   0  0  0  0  0  0  0  0  0  0  0  0
   40.6249   37.6752   42.6962 H   0  0  0  0  0  0  0  0  0  0  0  0
   41.8443   39.2640   44.5802 H   0  0  0  0  0  0  0  0  0  0  0  0
  1  6  1  0
  2  1  2  0
  2  3  1  0
  3  4  2  0
  4  5  1  0
  6  5  2  0
  7  1  1  0
  2  8  1  0
  3  9  1  0
  5 10  1  0
  7 11  1  0
  7 12  1  0
 13 14  1  0
 14 15  1  0
 15 16  1  0
 16 17  1  0
 17 18  1  0
 18 19  1  0
 18 20  1  0
 20 21  1  0
 20 14  1  0
 13 22  1  0
 14 23  1  6
 15 24  1  1
 17 25  1  0
 17 26  1  0
 18 27  1  6
 19 28  1  0
 20 29  1  6
 21 30  1  0
  7 15  1  0
M  ISO  5   8  14   9  14  10  14  11   8  12   8
M  END
>  <DihAtoms>  (1) 
0,6,14,13

>  <DihDeg>  (1) 
-179.99942154274117

$$$$
