
     RDKit          3D

 58 62  0  0  0  0  0  0  0  0999 V2000
   45.7620   33.1358   46.2337 C   0  0  0  0  0  0  0  0  0  0  0  0
   45.9177   31.9460   45.8302 C   0  0  0  0  0  0  0  0  0  0  0  0
   44.5282   36.1390   44.4874 C   0  0  0  0  0  0  0  0  0  0  0  0
   45.2049   36.0922   43.2723 C   0  0  0  0  0  0  0  0  0  0  0  0
   46.0514   35.0443   43.0918 C   0  0  0  0  0  0  0  0  0  0  0  0
   46.2075   34.1051   44.0688 N   0  0  0  0  0  0  0  0  0  0  0  0
   45.5324   34.1844   45.2372 C   0  0  0  0  0  0  0  0  0  0  0  0
   44.7090   35.2030   45.4132 N   0  0  0  0  0  0  0  0  0  0  0  0
   46.8241   34.8629   41.8718 C   0  0  0  0  0  0  0  0  0  0  0  0
   48.0475   35.4154   41.6318 C   0  0  0  0  0  0  0  0  0  0  0  0
   48.7659   35.2314   40.4668 C   0  0  0  0  0  0  0  0  0  0  0  0
   48.2462   34.4471   39.4618 C   0  0  0  0  0  0  0  0  0  0  0  0
   47.0199   33.8638   39.6430 C   0  0  0  0  0  0  0  0  0  0  0  0
   46.3439   34.0809   40.8279 C   0  0  0  0  0  0  0  0  0  0  0  0
   46.0924   30.9000   46.9087 C   0  0  0  0  0  0  0  0  0  0  0  0
   45.8952   31.4978   48.2545 C   0  0  1  0  0  0  0  0  0  0  0  0
   45.7122   30.5231   49.3677 C   0  0  0  0  0  0  0  0  0  0  0  0
   46.9225   31.3396   49.3040 C   0  0  1  0  0  0  0  0  0  0  0  0
   48.2412   30.7599   48.9068 C   0  0  2  0  0  0  0  0  0  0  0  0
   49.1696   30.4721   50.1140 C   0  0  0  0  0  0  0  0  0  0  0  0
   49.5034   31.5439   49.1665 C   0  0  2  0  0  0  0  0  0  0  0  0
   45.7732   33.6127   47.2025 H   0  0  0  0  0  0  0  0  0  0  0  0
   45.9010   31.6238   44.8043 H   0  0  0  0  0  0  0  0  0  0  0  0
   43.8422   36.9464   44.6902 H   0  0  0  0  0  0  0  0  0  0  0  0
   45.0766   36.8346   42.5099 H   0  0  0  0  0  0  0  0  0  0  0  0
   48.4940   36.0444   42.4049 H   0  0  0  0  0  0  0  0  0  0  0  0
   49.7311   35.6991   40.3413 H   0  0  0  0  0  0  0  0  0  0  0  0
   48.7835   34.2867   38.5445 H   0  0  0  0  0  0  0  0  0  0  0  0
   46.5780   33.2396   38.8744 H   0  0  0  0  0  0  0  0  0  0  0  0
   45.3722   33.5981   40.9298 H   0  0  0  0  0  0  0  0  0  0  0  0
   47.0328   30.4261   46.6832 H   0  0  0  0  0  0  0  0  0  0  0  0
   45.2697   30.1528   46.7154 H   0  0  0  0  0  0  0  0  0  0  0  0
   45.0697   32.2684   48.3077 H   0  0  0  0  0  0  0  0  0  0  0  0
   45.8236   29.4368   49.1375 H   0  0  0  0  0  0  0  0  0  0  0  0
   45.0066   30.6868   50.1982 H   0  0  0  0  0  0  0  0  0  0  0  0
   46.9826   32.1850   50.0206 H   0  0  0  0  0  0  0  0  0  0  0  0
   48.2668   29.9119   48.2090 H   0  0  0  0  0  0  0  0  0  0  0  0
   48.8391   30.8111   51.1140 H   0  0  0  0  0  0  0  0  0  0  0  0
   49.7833   29.5796   50.1362 H   0  0  0  0  0  0  0  0  0  0  0  0
   50.3184   31.3000   48.4225 H   0  0  0  0  0  0  0  0  0  0  0  0
   49.6369   31.9635   51.7497 O   0  0  0  0  0  0  0  0  0  0  0  0
   49.0530   33.0074   51.0321 C   0  0  2  0  0  0  0  0  0  0  0  0
   49.4872   32.9711   49.5581 C   0  0  2  0  0  0  0  0  0  0  0  0
   48.5378   33.7546   48.9058 O   0  0  0  0  0  0  0  0  0  0  0  0
   48.1102   34.8483   49.6085 C   0  0  0  0  0  0  0  0  0  0  0  0
   49.1457   35.3851   50.5718 C   0  0  2  0  0  0  0  0  0  0  0  0
   50.2541   35.8953   49.9149 O   0  0  0  0  0  0  0  0  0  0  0  0
   49.5133   34.3284   51.5949 C   0  0  1  0  0  0  0  0  0  0  0  0
   48.9350   34.5567   52.8396 O   0  0  0  0  0  0  0  0  0  0  0  0
   48.9933   31.2375   51.9674 H   0  0  0  0  0  0  0  0  0  0  0  0
   47.9474   32.9060   51.0326 H   0  0  0  0  0  0  0  0  0  0  0  0
   50.5018   33.4017   49.5072 H   0  0  0  0  0  0  0  0  0  0  0  0
   47.1694   34.6866   50.1519 H   0  0  0  0  0  0  0  0  0  0  0  0
   47.9145   35.6712   48.8671 H   0  0  0  0  0  0  0  0  0  0  0  0
   48.6717   36.2209   51.1268 H   0  0  0  0  0  0  0  0  0  0  0  0
   50.6118   36.6813   50.3993 H   0  0  0  0  0  0  0  0  0  0  0  0
   50.6121   34.2563   51.7360 H   0  0  0  0  0  0  0  0  0  0  0  0
   49.4782   34.0066   53.4838 H   0  0  0  0  0  0  0  0  0  0  0  0
  2  1  2  0
  2 15  1  0
  3  8  2  0
  4  3  1  0
  5  4  2  0
  5  6  1  0
  6  7  2  0
  7  8  1  0
  7  1  1  0
  9  5  1  0
 10  9  2  0
 11 10  1  0
 12 13  1  0
 12 11  2  0
 13 14  2  0
 14  9  1  0
 15 16  1  0
 16 18  1  0
 16 17  1  0
 18 17  1  0
 19 21  1  0
 19 18  1  0
 19 20  1  0
 21 20  1  0
  1 22  1  0
  2 23  1  0
  3 24  1  0
  4 25  1  0
 10 26  1  0
 11 27  1  0
 12 28  1  0
 13 29  1  0
 14 30  1  0
 15 31  1  0
 15 32  1  0
 16 33  1  6
 17 34  1  0
 17 35  1  0
 18 36  1  1
 19 37  1  6
 20 38  1  0
 20 39  1  0
 21 40  1  6
 41 42  1  0
 42 43  1  0
 43 44  1  0
 44 45  1  0
 45 46  1  0
 46 47  1  0
 46 48  1  0
 48 49  1  0
 48 42  1  0
 41 50  1  0
 42 51  1  6
 43 52  1  1
 45 53  1  0
 45 54  1  0
 46 55  1  1
 47 56  1  0
 48 57  1  1
 49 58  1  0
 21 43  1  0
M  ISO  8  24  14  25  14  26  14  27  14  28  14  29  14  30  14  31   8
M  ISO  8  32   8  33  13  34  13  35  13  36  13  37  13  38  13  39  13
M  ISO  1  40  13
M  END
>  <DihAtoms>  (1) 
18,20,42,41

>  <DihDeg>  (1) 
-179.98511785955537

$$$$
