
     RDKit          3D

 30 31  0  0  0  0  0  0  0  0999 V2000
   45.4366   35.0694   43.9947 C   0  0  0  0  0  0  0  0  0  0  0  0
   46.4936   34.2966   43.5144 C   0  0  0  0  0  0  0  0  0  0  0  0
   47.0214   33.2852   44.3351 C   0  0  0  0  0  0  0  0  0  0  0  0
   46.4650   33.1190   45.5595 N   0  0  0  0  0  0  0  0  0  0  0  0
   45.4282   33.8993   45.9930 C   0  0  0  0  0  0  0  0  0  0  0  0
   44.9216   34.8673   45.2100 N   0  0  0  0  0  0  0  0  0  0  0  0
   44.8985   36.1362   43.0974 C   0  0  0  0  0  0  0  0  0  0  0  0
   46.9494   34.4251   42.5241 H   0  0  0  0  0  0  0  0  0  0  0  0
   47.8442   32.6639   43.9945 H   0  0  0  0  0  0  0  0  0  0  0  0
   45.0520   33.6803   47.0018 H   0  0  0  0  0  0  0  0  0  0  0  0
   44.5745   35.7370   42.1222 H   0  0  0  0  0  0  0  0  0  0  0  0
   45.7071   36.9076   42.9420 H   0  0  0  0  0  0  0  0  0  0  0  0
   42.4301   34.9651   43.0504 O   0  0  0  0  0  0  0  0  0  0  0  0
   42.7128   35.7775   44.1124 C   0  0  1  0  0  0  0  0  0  0  0  0
   43.7675   36.8425   43.8162 C   0  0  1  0  0  0  0  0  0  0  0  0
   44.2058   37.3478   45.0358 O   0  0  0  0  0  0  0  0  0  0  0  0
   43.1894   38.0254   45.6660 C   0  0  0  0  0  0  0  0  0  0  0  0
   41.9845   37.1498   45.9663 C   0  0  1  0  0  0  0  0  0  0  0  0
   41.0052   37.9451   46.5467 O   0  0  0  0  0  0  0  0  0  0  0  0
   41.4870   36.4137   44.7538 C   0  0  1  0  0  0  0  0  0  0  0  0
   40.8181   37.2304   43.8417 O   0  0  0  0  0  0  0  0  0  0  0  0
   42.4282   35.3911   42.1755 H   0  0  0  0  0  0  0  0  0  0  0  0
   43.1735   35.1486   44.9245 H   0  0  0  0  0  0  0  0  0  0  0  0
   43.3767   37.6370   43.1533 H   0  0  0  0  0  0  0  0  0  0  0  0
   43.5652   38.3644   46.6673 H   0  0  0  0  0  0  0  0  0  0  0  0
   42.8960   38.9175   45.0523 H   0  0  0  0  0  0  0  0  0  0  0  0
   42.3290   36.3796   46.6842 H   0  0  0  0  0  0  0  0  0  0  0  0
   40.0878   37.7041   46.2571 H   0  0  0  0  0  0  0  0  0  0  0  0
   40.8489   35.5713   45.1160 H   0  0  0  0  0  0  0  0  0  0  0  0
   40.8839   38.1504   44.1633 H   0  0  0  0  0  0  0  0  0  0  0  0
  1  6  1  0
  2  1  2  0
  2  3  1  0
  3  4  2  0
  4  5  1  0
  6  5  2  0
  7  1  1  0
  2  8  1  0
  3  9  1  0
  5 10  1  0
  7 11  1  0
  7 12  1  0
 13 14  1  0
 14 15  1  0
 15 16  1  0
 16 17  1  0
 17 18  1  0
 18 19  1  0
 18 20  1  0
 20 21  1  0
 20 14  1  0
 13 22  1  0
 14 23  1  1
 15 24  1  6
 17 25  1  0
 17 26  1  0
 18 27  1  1
 19 28  1  0
 20 29  1  1
 21 30  1  0
  7 15  1  0
M  ISO  5   8  14   9  14  10  14  11   8  12   8
M  END
>  <DihAtoms>  (1) 
0,6,14,13

>  <DihDeg>  (1) 
-179.99942154274117

$$$$
