
     RDKit          3D

 33 34  0  0  0  0  0  0  0  0999 V2000
   46.2954   35.1479   42.5222 C   0  0  0  0  0  0  0  0  0  0  0  0
   46.8476   34.0643   43.2470 C   0  0  0  0  0  0  0  0  0  0  0  0
   46.3625   33.7911   44.5624 C   0  0  0  0  0  0  0  0  0  0  0  0
   45.3902   34.5914   45.0772 N   0  0  0  0  0  0  0  0  0  0  0  0
   44.9107   35.6094   44.3517 C   0  0  0  0  0  0  0  0  0  0  0  0
   45.3337   35.9126   43.0865 N   0  0  0  0  0  0  0  0  0  0  0  0
   47.8329   33.4065   42.5437 O   0  0  0  0  0  0  0  0  0  0  0  0
   50.3890   33.1915   41.8687 O   0  0  0  0  0  0  0  0  0  0  0  0
   49.3123   34.1857   42.1562 P   0  0  0  0  0  0  0  0  0  0  0  0
   49.1189   35.1579   40.8031 O   0  0  0  0  0  0  0  0  0  0  0  0
   49.8507   35.2398   43.3715 O   0  0  0  0  0  0  0  0  0  0  0  0
   46.9219   32.9306   44.8958 H   0  0  0  0  0  0  0  0  0  0  0  0
   44.1593   36.0937   44.9775 H   0  0  0  0  0  0  0  0  0  0  0  0
   49.8206   34.9897   40.1254 H   0  0  0  0  0  0  0  0  0  0  0  0
   49.0411   35.5996   43.8290 H   0  0  0  0  0  0  0  0  0  0  0  0
   44.4831   34.4247   40.2125 O   0  0  0  0  0  0  0  0  0  0  0  0
   44.8843   35.7188   40.5151 C   0  0  1  0  0  0  0  0  0  0  0  0
   46.3304   35.6961   41.1360 C   0  0  1  0  0  0  0  0  0  0  0  0
   46.7241   36.9917   41.0735 O   0  0  0  0  0  0  0  0  0  0  0  0
   45.7539   37.9536   41.0649 C   0  0  0  0  0  0  0  0  0  0  0  0
   45.1720   37.9810   39.6461 C   0  0  2  0  0  0  0  0  0  0  0  0
   43.9662   38.6535   39.5982 O   0  0  0  0  0  0  0  0  0  0  0  0
   45.0070   36.5265   39.2584 C   0  0  2  0  0  0  0  0  0  0  0  0
   43.9239   36.4053   38.4181 O   0  0  0  0  0  0  0  0  0  0  0  0
   43.4990   34.4418   40.1718 H   0  0  0  0  0  0  0  0  0  0  0  0
   44.1703   36.1296   41.2492 H   0  0  0  0  0  0  0  0  0  0  0  0
   46.7780   34.9790   40.4063 H   0  0  0  0  0  0  0  0  0  0  0  0
   46.2834   38.9378   41.2323 H   0  0  0  0  0  0  0  0  0  0  0  0
   44.9889   37.9022   41.8373 H   0  0  0  0  0  0  0  0  0  0  0  0
   45.9545   38.4779   39.0186 H   0  0  0  0  0  0  0  0  0  0  0  0
   43.8769   39.3384   40.2919 H   0  0  0  0  0  0  0  0  0  0  0  0
   45.9467   36.2177   38.7435 H   0  0  0  0  0  0  0  0  0  0  0  0
   44.0314   35.6462   37.7947 H   0  0  0  0  0  0  0  0  0  0  0  0
  1  6  1  0
  1  2  2  0
  2  3  1  0
  3  4  2  0
  5  4  1  0
  6  5  2  0
  7  2  1  0
  8  9  2  0
  9  7  1  0
  9 11  1  0
 10  9  1  0
  3 12  1  0
  5 13  1  0
 10 14  1  0
 11 15  1  0
 16 17  1  0
 17 18  1  0
 18 19  1  0
 19 20  1  0
 20 21  1  0
 21 22  1  0
 21 23  1  0
 23 24  1  0
 23 17  1  0
 16 25  1  0
 17 26  1  1
 18 27  1  6
 20 28  1  0
 20 29  1  0
 21 30  1  6
 22 31  1  0
 23 32  1  6
 24 33  1  0
  1 18  1  0
M  ISO  4  12  14  13  14  14   3  15   3
M  END
>  <DihAtoms>  (1) 
5,0,17,16

>  <DihDeg>  (1) 
-51.94810369656158

$$$$
