
     RDKit          3D

 56 59  0  0  1  0  0  0  0  0999 V2000
   48.0550   34.8340   42.1300 C   0  0  0  0  0  0  0  0  0  0  0  0
   49.1620   34.1450   41.5080 N   0  0  0  0  0  0  0  0  0  0  0  0
   50.3190   34.2090   42.3310 C   0  0  0  0  0  0  0  0  0  0  0  0
   51.0700   32.9280   42.1600 C   0  0  0  0  0  0  0  0  0  0  0  0
   49.9820   31.9460   41.7910 C   0  0  0  0  0  0  0  0  0  0  0  0
   48.8410   32.7810   41.2380 C   0  0  2  0  0  0  0  0  0  0  0  0
   49.9940   31.8320   39.3040 C   0  0  1  0  0  0  0  0  0  0  0  0
   48.7050   32.4550   39.7810 C   0  0  2  0  0  0  0  0  0  0  0  0
   48.3570   33.5650   39.0170 O   0  0  0  0  0  0  0  0  0  0  0  0
   48.0390   33.1070   37.7400 C   0  0  0  0  0  0  0  0  0  0  0  0
   49.1730   32.3490   37.0880 C   0  0  2  0  0  0  0  0  0  0  0  0
   50.3790   32.4550   37.9620 C   0  0  2  0  0  0  0  0  0  0  0  0
   51.0630   32.0060   40.1570 O   0  0  0  0  0  0  0  0  0  0  0  0
   49.4220   32.9890   35.8560 O   0  0  0  0  0  0  0  0  0  0  0  0
   51.4820   31.7850   37.4480 O   0  0  0  0  0  0  0  0  0  0  0  0
   45.6050   34.9030   42.0580 C   0  0  0  0  0  0  0  0  0  0  0  0
   46.7460   34.5820   41.4330 C   0  0  0  0  0  0  0  0  0  0  0  0
   44.0050   33.5240   40.6050 C   0  0  0  0  0  0  0  0  0  0  0  0
   44.2950   34.6680   41.4000 C   0  0  0  0  0  0  0  0  0  0  0  0
   43.3020   35.6440   41.5870 C   0  0  0  0  0  0  0  0  0  0  0  0
   42.0940   35.4470   40.9910 N   0  0  0  0  0  0  0  0  0  0  0  0
   41.8540   34.3610   40.2510 C   0  0  0  0  0  0  0  0  0  0  0  0
   42.8010   33.4380   40.0760 N   0  0  0  0  0  0  0  0  0  0  0  0
   39.6390   33.5760   41.7000 F   0  0  0  0  0  0  0  0  0  0  0  0
   39.4550   33.7990   40.3820 C   0  0  0  0  0  0  0  0  0  0  0  0
   40.5440   34.1930   39.6320 C   0  0  0  0  0  0  0  0  0  0  0  0
   40.4410   34.4450   38.2610 C   0  0  0  0  0  0  0  0  0  0  0  0
   39.1870   34.2830   37.6770 C   0  0  0  0  0  0  0  0  0  0  0  0
   38.0700   33.8840   38.4210 C   0  0  0  0  0  0  0  0  0  0  0  0
   38.2170   33.6440   39.7770 C   0  0  0  0  0  0  0  0  0  0  0  0
   47.9696   34.4929   43.1723 H   0  0  0  0  0  0  0  0  0  0  0  0
   48.2602   35.9130   42.0694 H   0  0  0  0  0  0  0  0  0  0  0  0
   50.9498   35.0567   42.0252 H   0  0  0  0  0  0  0  0  0  0  0  0
   50.0351   34.3514   43.3842 H   0  0  0  0  0  0  0  0  0  0  0  0
   51.8170   33.0113   41.3569 H   0  0  0  0  0  0  0  0  0  0  0  0
   51.6360   32.6331   43.0559 H   0  0  0  0  0  0  0  0  0  0  0  0
   50.3450   31.2408   41.0288 H   0  0  0  0  0  0  0  0  0  0  0  0
   49.6636   31.3497   42.6588 H   0  0  0  0  0  0  0  0  0  0  0  0
   47.8643   32.5733   41.6994 H   0  0  0  0  0  0  0  0  0  0  0  0
   49.7965   30.7518   39.2389 H   0  0  0  0  0  0  0  0  0  0  0  0
   47.8793   31.7394   39.6541 H   0  0  0  0  0  0  0  0  0  0  0  0
   47.1673   32.4401   37.8132 H   0  0  0  0  0  0  0  0  0  0  0  0
   47.8288   33.9881   37.1159 H   0  0  0  0  0  0  0  0  0  0  0  0
   48.9305   31.2863   36.9398 H   0  0  0  0  0  0  0  0  0  0  0  0
   50.6711   33.5121   38.0473 H   0  0  0  0  0  0  0  0  0  0  0  0
   50.7489   31.9549   41.0944 H   0  0  0  0  0  0  0  0  0  0  0  0
   49.7759   33.8985   36.0222 H   0  0  0  0  0  0  0  0  0  0  0  0
   52.0392   31.4465   38.1930 H   0  0  0  0  0  0  0  0  0  0  0  0
   45.6391   35.3436   43.0653 H   0  0  0  0  0  0  0  0  0  0  0  0
   46.7257   34.1409   40.4255 H   0  0  0  0  0  0  0  0  0  0  0  0
   44.7583   32.7400   40.4381 H   0  0  0  0  0  0  0  0  0  0  0  0
   43.4946   36.5395   42.1961 H   0  0  0  0  0  0  0  0  0  0  0  0
   41.3133   34.7580   37.6685 H   0  0  0  0  0  0  0  0  0  0  0  0
   39.0708   34.4741   36.6000 H   0  0  0  0  0  0  0  0  0  0  0  0
   37.0903   33.7630   37.9357 H   0  0  0  0  0  0  0  0  0  0  0  0
   37.3494   33.3296   40.3757 H   0  0  0  0  0  0  0  0  0  0  0  0
  2  1  1  0
  2  3  1  0
  4  3  1  0
  5  4  1  0
  6  2  1  0
  6  5  1  0
  7  8  1  0
  7 13  1  0
  8  9  1  0
  8  6  1  0
 10  9  1  0
 11 14  1  0
 11 10  1  0
 11 12  1  0
 12 15  1  0
 12  7  1  0
 17 16  2  0
 17  1  1  0
 18 19  2  0
 19 20  1  0
 19 16  1  0
 21 20  2  0
 22 21  1  0
 23 22  2  0
 23 18  1  0
 25 24  1  0
 26 22  1  0
 26 25  2  0
 27 26  1  0
 28 27  2  0
 28 29  1  0
 29 30  2  0
 30 25  1  0
  1 31  1  0
  1 32  1  0
  3 33  1  0
  3 34  1  0
  4 35  1  0
  4 36  1  0
  5 37  1  0
  5 38  1  0
  6 39  1  1
  7 40  1  6
  8 41  1  1
 10 42  1  0
 10 43  1  0
 11 44  1  6
 12 45  1  1
 13 46  1  0
 14 47  1  0
 15 48  1  0
 16 49  1  0
 17 50  1  0
 18 51  1  0
 20 52  1  0
 27 53  1  0
 28 54  1  0
 29 55  1  0
 30 56  1  0
M  ISO  8  31   8  32   8  33  13  34  13  35  13  36  13  37  13  38  13
M  ISO  8  39  13  40  13  41  13  42  13  43  13  44  13  45  13  46   3
M  ISO  8  47   3  48   3  51  14  52  14  53  14  54  14  55  14  56  14
M  END
>  <minimizedAffinity>  (1) 
-7.22781515

>  <minimizedRMSD>  (1) 
0.8129282

$$$$
