
     RDKit          3D

 30 31  0  0  0  0  0  0  0  0999 V2000
   45.4366   35.0694   43.9947 C   0  0  0  0  0  0  0  0  0  0  0  0
   46.4936   34.2966   43.5144 C   0  0  0  0  0  0  0  0  0  0  0  0
   47.0214   33.2852   44.3351 C   0  0  0  0  0  0  0  0  0  0  0  0
   46.4650   33.1190   45.5595 N   0  0  0  0  0  0  0  0  0  0  0  0
   45.4282   33.8993   45.9930 C   0  0  0  0  0  0  0  0  0  0  0  0
   44.9216   34.8673   45.2100 N   0  0  0  0  0  0  0  0  0  0  0  0
   44.8985   36.1362   43.0974 C   0  0  0  0  0  0  0  0  0  0  0  0
   46.9494   34.4251   42.5241 H   0  0  0  0  0  0  0  0  0  0  0  0
   47.8442   32.6639   43.9945 H   0  0  0  0  0  0  0  0  0  0  0  0
   45.0520   33.6803   47.0018 H   0  0  0  0  0  0  0  0  0  0  0  0
   44.5745   35.7370   42.1222 H   0  0  0  0  0  0  0  0  0  0  0  0
   45.7071   36.9076   42.9420 H   0  0  0  0  0  0  0  0  0  0  0  0
   42.7262   36.8925   41.6224 O   0  0  0  0  0  0  0  0  0  0  0  0
   42.5219   36.6525   42.9522 C   0  0  1  0  0  0  0  0  0  0  0  0
   43.7675   36.8425   43.8162 C   0  0  1  0  0  0  0  0  0  0  0  0
   43.5200   36.2400   45.0452 O   0  0  0  0  0  0  0  0  0  0  0  0
   42.5229   36.9093   45.7141 C   0  0  0  0  0  0  0  0  0  0  0  0
   41.2028   36.9202   44.9619 C   0  0  1  0  0  0  0  0  0  0  0  0
   40.2914   37.6661   45.6976 O   0  0  0  0  0  0  0  0  0  0  0  0
   41.3454   37.4130   43.5490 C   0  0  1  0  0  0  0  0  0  0  0  0
   41.5478   38.7903   43.4571 O   0  0  0  0  0  0  0  0  0  0  0  0
   43.3339   37.6219   41.4086 H   0  0  0  0  0  0  0  0  0  0  0  0
   42.2599   35.5649   43.0778 H   0  0  0  0  0  0  0  0  0  0  0  0
   44.0365   37.9100   43.9232 H   0  0  0  0  0  0  0  0  0  0  0  0
   42.3141   36.3591   46.6693 H   0  0  0  0  0  0  0  0  0  0  0  0
   42.8623   37.9529   45.9471 H   0  0  0  0  0  0  0  0  0  0  0  0
   40.8715   35.8651   44.8966 H   0  0  0  0  0  0  0  0  0  0  0  0
   39.6881   38.2113   45.1299 H   0  0  0  0  0  0  0  0  0  0  0  0
   40.4385   37.0795   42.9883 H   0  0  0  0  0  0  0  0  0  0  0  0
   41.6301   39.1394   44.3656 H   0  0  0  0  0  0  0  0  0  0  0  0
  1  6  1  0
  2  1  2  0
  2  3  1  0
  3  4  2  0
  4  5  1  0
  6  5  2  0
  7  1  1  0
  2  8  1  0
  3  9  1  0
  5 10  1  0
  7 11  1  0
  7 12  1  0
 13 14  1  0
 14 15  1  0
 15 16  1  0
 16 17  1  0
 17 18  1  0
 18 19  1  0
 18 20  1  0
 20 21  1  0
 20 14  1  0
 13 22  1  0
 14 23  1  6
 15 24  1  1
 17 25  1  0
 17 26  1  0
 18 27  1  6
 19 28  1  0
 20 29  1  6
 21 30  1  0
  7 15  1  0
M  ISO  5   8  14   9  14  10  14  11   8  12   8
M  END
>  <DihAtoms>  (1) 
0,6,14,13

>  <DihDeg>  (1) 
-179.99942154274117

$$$$
