
     RDKit          3D

 30 31  0  0  0  0  0  0  0  0999 V2000
   45.4366   35.0694   43.9947 C   0  0  0  0  0  0  0  0  0  0  0  0
   46.4936   34.2966   43.5144 C   0  0  0  0  0  0  0  0  0  0  0  0
   47.0214   33.2852   44.3351 C   0  0  0  0  0  0  0  0  0  0  0  0
   46.4650   33.1190   45.5595 N   0  0  0  0  0  0  0  0  0  0  0  0
   45.4282   33.8993   45.9930 C   0  0  0  0  0  0  0  0  0  0  0  0
   44.9216   34.8673   45.2100 N   0  0  0  0  0  0  0  0  0  0  0  0
   44.8985   36.1362   43.0974 C   0  0  0  0  0  0  0  0  0  0  0  0
   46.9494   34.4251   42.5241 H   0  0  0  0  0  0  0  0  0  0  0  0
   47.8442   32.6639   43.9945 H   0  0  0  0  0  0  0  0  0  0  0  0
   45.0520   33.6803   47.0018 H   0  0  0  0  0  0  0  0  0  0  0  0
   44.5745   35.7370   42.1222 H   0  0  0  0  0  0  0  0  0  0  0  0
   45.7071   36.9076   42.9420 H   0  0  0  0  0  0  0  0  0  0  0  0
   42.9002   34.5985   44.1504 O   0  0  0  0  0  0  0  0  0  0  0  0
   43.1327   35.8075   44.7436 C   0  0  1  0  0  0  0  0  0  0  0  0
   43.7675   36.8425   43.8162 C   0  0  1  0  0  0  0  0  0  0  0  0
   44.2628   37.8698   44.6125 O   0  0  0  0  0  0  0  0  0  0  0  0
   43.2313   38.5366   45.2297 C   0  0  0  0  0  0  0  0  0  0  0  0
   42.4022   37.6441   46.1378 C   0  0  1  0  0  0  0  0  0  0  0  0
   41.3630   38.4032   46.6594 O   0  0  0  0  0  0  0  0  0  0  0  0
   41.9181   36.4018   45.4438 C   0  0  1  0  0  0  0  0  0  0  0  0
   40.8876   36.6378   44.5333 O   0  0  0  0  0  0  0  0  0  0  0  0
   42.6150   34.6269   43.2204 H   0  0  0  0  0  0  0  0  0  0  0  0
   43.8954   35.6596   45.5582 H   0  0  0  0  0  0  0  0  0  0  0  0
   43.0513   37.2121   43.0587 H   0  0  0  0  0  0  0  0  0  0  0  0
   43.6745   39.3151   45.9051 H   0  0  0  0  0  0  0  0  0  0  0  0
   42.5881   39.0319   44.4554 H   0  0  0  0  0  0  0  0  0  0  0  0
   43.0782   37.3096   46.9492 H   0  0  0  0  0  0  0  0  0  0  0  0
   40.5146   37.8959   46.7401 H   0  0  0  0  0  0  0  0  0  0  0  0
   41.6241   35.6720   46.2369 H   0  0  0  0  0  0  0  0  0  0  0  0
   40.7481   37.6035   44.4869 H   0  0  0  0  0  0  0  0  0  0  0  0
  1  6  1  0
  2  1  2  0
  2  3  1  0
  3  4  2  0
  4  5  1  0
  6  5  2  0
  7  1  1  0
  2  8  1  0
  3  9  1  0
  5 10  1  0
  7 11  1  0
  7 12  1  0
 13 14  1  0
 14 15  1  0
 15 16  1  0
 16 17  1  0
 17 18  1  0
 18 19  1  0
 18 20  1  0
 20 21  1  0
 20 14  1  0
 13 22  1  0
 14 23  1  1
 15 24  1  6
 17 25  1  0
 17 26  1  0
 18 27  1  1
 19 28  1  0
 20 29  1  1
 21 30  1  0
  7 15  1  0
M  ISO  5   8  14   9  14  10  14  11   8  12   8
M  END
>  <DihAtoms>  (1) 
0,6,14,13

>  <DihDeg>  (1) 
-179.99942154274117

$$$$
