
     RDKit          3D

 30 31  0  0  0  0  0  0  0  0999 V2000
   45.4366   35.0694   43.9947 C   0  0  0  0  0  0  0  0  0  0  0  0
   46.4936   34.2966   43.5144 C   0  0  0  0  0  0  0  0  0  0  0  0
   47.0214   33.2852   44.3351 C   0  0  0  0  0  0  0  0  0  0  0  0
   46.4650   33.1190   45.5595 N   0  0  0  0  0  0  0  0  0  0  0  0
   45.4282   33.8993   45.9930 C   0  0  0  0  0  0  0  0  0  0  0  0
   44.9216   34.8673   45.2100 N   0  0  0  0  0  0  0  0  0  0  0  0
   44.8985   36.1362   43.0974 C   0  0  0  0  0  0  0  0  0  0  0  0
   46.9494   34.4251   42.5241 H   0  0  0  0  0  0  0  0  0  0  0  0
   47.8442   32.6639   43.9945 H   0  0  0  0  0  0  0  0  0  0  0  0
   45.0520   33.6803   47.0018 H   0  0  0  0  0  0  0  0  0  0  0  0
   44.5745   35.7370   42.1222 H   0  0  0  0  0  0  0  0  0  0  0  0
   45.7071   36.9076   42.9420 H   0  0  0  0  0  0  0  0  0  0  0  0
   44.9934   38.8625   43.2541 O   0  0  0  0  0  0  0  0  0  0  0  0
   43.7581   38.2798   43.2982 C   0  0  1  0  0  0  0  0  0  0  0  0
   43.7675   36.8425   43.8162 C   0  0  1  0  0  0  0  0  0  0  0  0
   42.5449   36.2694   43.4821 O   0  0  0  0  0  0  0  0  0  0  0  0
   41.5249   36.8837   44.1688 C   0  0  0  0  0  0  0  0  0  0  0  0
   41.4075   38.3673   43.8622 C   0  0  1  0  0  0  0  0  0  0  0  0
   40.3901   38.8926   44.6477 O   0  0  0  0  0  0  0  0  0  0  0  0
   42.7087   39.0994   44.0370 C   0  0  1  0  0  0  0  0  0  0  0  0
   43.0710   39.2806   45.3720 O   0  0  0  0  0  0  0  0  0  0  0  0
   45.5998   38.6336   43.9799 H   0  0  0  0  0  0  0  0  0  0  0  0
   43.3715   38.1929   42.2446 H   0  0  0  0  0  0  0  0  0  0  0  0
   43.9646   36.7971   44.9036 H   0  0  0  0  0  0  0  0  0  0  0  0
   40.5552   36.4340   43.8280 H   0  0  0  0  0  0  0  0  0  0  0  0
   41.6547   36.7090   45.2693 H   0  0  0  0  0  0  0  0  0  0  0  0
   41.1432   38.4447   42.7891 H   0  0  0  0  0  0  0  0  0  0  0  0
   40.5886   39.8057   44.9800 H   0  0  0  0  0  0  0  0  0  0  0  0
   42.6210   40.0675   43.4864 H   0  0  0  0  0  0  0  0  0  0  0  0
   42.4155   38.8114   45.9237 H   0  0  0  0  0  0  0  0  0  0  0  0
  1  6  1  0
  2  1  2  0
  2  3  1  0
  3  4  2  0
  4  5  1  0
  6  5  2  0
  7  1  1  0
  2  8  1  0
  3  9  1  0
  5 10  1  0
  7 11  1  0
  7 12  1  0
 13 14  1  0
 14 15  1  0
 15 16  1  0
 16 17  1  0
 17 18  1  0
 18 19  1  0
 18 20  1  0
 20 21  1  0
 20 14  1  0
 13 22  1  0
 14 23  1  6
 15 24  1  1
 17 25  1  0
 17 26  1  0
 18 27  1  6
 19 28  1  0
 20 29  1  6
 21 30  1  0
  7 15  1  0
M  ISO  5   8  14   9  14  10  14  11   8  12   8
M  END
>  <DihAtoms>  (1) 
0,6,14,13

>  <DihDeg>  (1) 
-179.99942154274117

$$$$
