
     RDKit          3D

 30 31  0  0  0  0  0  0  0  0999 V2000
   45.4366   35.0694   43.9947 C   0  0  0  0  0  0  0  0  0  0  0  0
   46.4936   34.2966   43.5144 C   0  0  0  0  0  0  0  0  0  0  0  0
   47.0214   33.2852   44.3351 C   0  0  0  0  0  0  0  0  0  0  0  0
   46.4650   33.1190   45.5595 N   0  0  0  0  0  0  0  0  0  0  0  0
   45.4282   33.8993   45.9930 C   0  0  0  0  0  0  0  0  0  0  0  0
   44.9216   34.8673   45.2100 N   0  0  0  0  0  0  0  0  0  0  0  0
   44.8985   36.1362   43.0974 C   0  0  0  0  0  0  0  0  0  0  0  0
   46.9494   34.4251   42.5241 H   0  0  0  0  0  0  0  0  0  0  0  0
   47.8442   32.6639   43.9945 H   0  0  0  0  0  0  0  0  0  0  0  0
   45.0520   33.6803   47.0018 H   0  0  0  0  0  0  0  0  0  0  0  0
   44.5745   35.7370   42.1222 H   0  0  0  0  0  0  0  0  0  0  0  0
   45.7071   36.9076   42.9420 H   0  0  0  0  0  0  0  0  0  0  0  0
   45.5500   38.1235   44.8560 O   0  0  0  0  0  0  0  0  0  0  0  0
   44.3195   38.1944   44.2656 C   0  0  1  0  0  0  0  0  0  0  0  0
   43.7675   36.8425   43.8162 C   0  0  1  0  0  0  0  0  0  0  0  0
   42.7144   37.0903   42.9420 O   0  0  0  0  0  0  0  0  0  0  0  0
   41.6724   37.6921   43.6065 C   0  0  0  0  0  0  0  0  0  0  0  0
   42.0496   39.0290   44.2224 C   0  0  1  0  0  0  0  0  0  0  0  0
   40.9463   39.5152   44.9111 O   0  0  0  0  0  0  0  0  0  0  0  0
   43.2774   38.9431   45.0854 C   0  0  1  0  0  0  0  0  0  0  0  0
   43.0564   38.3059   46.3067 O   0  0  0  0  0  0  0  0  0  0  0  0
   45.7097   37.3456   45.4183 H   0  0  0  0  0  0  0  0  0  0  0  0
   44.4194   38.7845   43.3122 H   0  0  0  0  0  0  0  0  0  0  0  0
   43.4571   36.2177   44.6744 H   0  0  0  0  0  0  0  0  0  0  0  0
   40.8711   37.9276   42.8574 H   0  0  0  0  0  0  0  0  0  0  0  0
   41.2675   36.9909   44.3831 H   0  0  0  0  0  0  0  0  0  0  0  0
   42.3027   39.7013   43.3790 H   0  0  0  0  0  0  0  0  0  0  0  0
   41.1883   39.9782   45.7541 H   0  0  0  0  0  0  0  0  0  0  0  0
   43.6658   39.9826   45.2138 H   0  0  0  0  0  0  0  0  0  0  0  0
   42.1371   37.9755   46.3070 H   0  0  0  0  0  0  0  0  0  0  0  0
  1  6  1  0
  2  1  2  0
  2  3  1  0
  3  4  2  0
  4  5  1  0
  6  5  2  0
  7  1  1  0
  2  8  1  0
  3  9  1  0
  5 10  1  0
  7 11  1  0
  7 12  1  0
 13 14  1  0
 14 15  1  0
 15 16  1  0
 16 17  1  0
 17 18  1  0
 18 19  1  0
 18 20  1  0
 20 21  1  0
 20 14  1  0
 13 22  1  0
 14 23  1  6
 15 24  1  1
 17 25  1  0
 17 26  1  0
 18 27  1  6
 19 28  1  0
 20 29  1  1
 21 30  1  0
  7 15  1  0
M  ISO  5   8  14   9  14  10  14  11   8  12   8
M  END
>  <DihAtoms>  (1) 
0,6,14,13

>  <DihDeg>  (1) 
-179.99942154274117

$$$$
