
     RDKit          3D

 34 35  0  0  0  0  0  0  0  0999 V2000
   44.6943   35.5180   43.6081 C   0  0  0  0  0  0  0  0  0  0  0  0
   43.9340   35.4466   42.4011 C   0  0  0  0  0  0  0  0  0  0  0  0
   43.7823   34.1718   41.8293 C   0  0  0  0  0  0  0  0  0  0  0  0
   44.3547   33.0913   42.4403 N   0  0  0  0  0  0  0  0  0  0  0  0
   45.0726   33.2158   43.5948 C   0  0  0  0  0  0  0  0  0  0  0  0
   45.2261   34.4354   44.1550 N   0  0  0  0  0  0  0  0  0  0  0  0
   44.8576   36.8303   44.2145 C   0  0  0  0  0  0  0  0  0  0  0  0
   45.2347   37.8434   43.4656 C   0  0  0  0  0  0  0  0  0  0  0  0
   45.4247   39.2135   43.9773 C   0  0  0  0  0  0  0  0  0  0  0  0
   43.5272   36.3554   42.0040 H   0  0  0  0  0  0  0  0  0  0  0  0
   43.2150   34.0992   40.9236 H   0  0  0  0  0  0  0  0  0  0  0  0
   44.6742   36.9986   45.2831 H   0  0  0  0  0  0  0  0  0  0  0  0
   45.4118   37.6503   42.4034 H   0  0  0  0  0  0  0  0  0  0  0  0
   44.4215   39.7221   43.9293 H   0  0  0  0  0  0  0  0  0  0  0  0
   46.0769   39.8010   43.3260 H   0  0  0  0  0  0  0  0  0  0  0  0
   45.7079   39.2383   45.0394 H   0  0  0  0  0  0  0  0  0  0  0  0
   47.6299   31.6593   42.8481 O   0  0  0  0  0  0  0  0  0  0  0  0
   46.3771   31.1667   43.2020 C   0  0  2  0  0  0  0  0  0  0  0  0
   45.6770   32.0331   44.2288 C   0  0  1  0  0  0  0  0  0  0  0  0
   46.6369   32.3507   45.1907 O   0  0  0  0  0  0  0  0  0  0  0  0
   46.8692   31.1982   45.9383 C   0  0  0  0  0  0  0  0  0  0  0  0
   47.4130   30.0556   45.1217 C   0  0  1  0  0  0  0  0  0  0  0  0
   47.2906   28.8952   45.9008 O   0  0  0  0  0  0  0  0  0  0  0  0
   46.6021   29.8140   43.8647 C   0  0  2  0  0  0  0  0  0  0  0  0
   47.3443   29.0314   42.9778 O   0  0  0  0  0  0  0  0  0  0  0  0
   47.5919   32.4522   42.2572 H   0  0  0  0  0  0  0  0  0  0  0  0
   45.7590   31.1180   42.3067 H   0  0  0  0  0  0  0  0  0  0  0  0
   44.8948   31.4153   44.6974 H   0  0  0  0  0  0  0  0  0  0  0  0
   47.6530   31.4269   46.7102 H   0  0  0  0  0  0  0  0  0  0  0  0
   45.9010   30.9331   46.4099 H   0  0  0  0  0  0  0  0  0  0  0  0
   48.4371   30.2709   44.8103 H   0  0  0  0  0  0  0  0  0  0  0  0
   48.0859   28.8858   46.4945 H   0  0  0  0  0  0  0  0  0  0  0  0
   45.6230   29.3109   44.0826 H   0  0  0  0  0  0  0  0  0  0  0  0
   46.7476   28.4516   42.4355 H   0  0  0  0  0  0  0  0  0  0  0  0
  1  6  2  0
  1  7  1  0
  2  1  1  0
  3  2  2  0
  3  4  1  0
  4  5  2  0
  5  6  1  0
  8  9  1  0
  8  7  2  0
  2 10  1  0
  3 11  1  0
  7 12  1  0
  8 13  1  0
  9 14  1  0
  9 15  1  0
  9 16  1  0
 17 18  1  0
 18 19  1  0
 19 20  1  0
 20 21  1  0
 21 22  1  0
 22 23  1  0
 22 24  1  0
 24 25  1  0
 24 18  1  0
 17 26  1  0
 18 27  1  6
 19 28  1  1
 21 29  1  0
 21 30  1  0
 22 31  1  6
 23 32  1  0
 24 33  1  1
 25 34  1  0
  5 19  1  0
M  ISO  5  10  14  11  14  14   8  15   8  16   8
M  END
>  <DihAtoms>  (1) 
3,4,18,17

>  <DihDeg>  (1) 
105.57629265415233

$$$$
