
     RDKit          3D

 33 34  0  0  0  0  0  0  0  0999 V2000
   46.2954   35.1479   42.5222 C   0  0  0  0  0  0  0  0  0  0  0  0
   46.8476   34.0643   43.2470 C   0  0  0  0  0  0  0  0  0  0  0  0
   46.3625   33.7911   44.5624 C   0  0  0  0  0  0  0  0  0  0  0  0
   45.3902   34.5914   45.0772 N   0  0  0  0  0  0  0  0  0  0  0  0
   44.9107   35.6094   44.3517 C   0  0  0  0  0  0  0  0  0  0  0  0
   45.3337   35.9126   43.0865 N   0  0  0  0  0  0  0  0  0  0  0  0
   47.8329   33.4065   42.5437 O   0  0  0  0  0  0  0  0  0  0  0  0
   50.3890   33.1915   41.8687 O   0  0  0  0  0  0  0  0  0  0  0  0
   49.3123   34.1857   42.1562 P   0  0  0  0  0  0  0  0  0  0  0  0
   49.1189   35.1579   40.8031 O   0  0  0  0  0  0  0  0  0  0  0  0
   49.8507   35.2398   43.3715 O   0  0  0  0  0  0  0  0  0  0  0  0
   46.9219   32.9306   44.8958 H   0  0  0  0  0  0  0  0  0  0  0  0
   44.1593   36.0937   44.9775 H   0  0  0  0  0  0  0  0  0  0  0  0
   49.8206   34.9897   40.1254 H   0  0  0  0  0  0  0  0  0  0  0  0
   49.0411   35.5996   43.8290 H   0  0  0  0  0  0  0  0  0  0  0  0
   44.3887   37.1416   41.2846 O   0  0  0  0  0  0  0  0  0  0  0  0
   45.7656   37.1650   41.1093 C   0  0  1  0  0  0  0  0  0  0  0  0
   46.3304   35.6961   41.1360 C   0  0  1  0  0  0  0  0  0  0  0  0
   47.5830   35.8275   40.6348 O   0  0  0  0  0  0  0  0  0  0  0  0
   48.1985   37.0402   40.7654 C   0  0  0  0  0  0  0  0  0  0  0  0
   47.5915   37.9604   39.6991 C   0  0  2  0  0  0  0  0  0  0  0  0
   47.8709   39.2902   39.9486 O   0  0  0  0  0  0  0  0  0  0  0  0
   46.1019   37.6924   39.7471 C   0  0  2  0  0  0  0  0  0  0  0  0
   45.4267   38.8465   39.4215 O   0  0  0  0  0  0  0  0  0  0  0  0
   44.1352   38.0364   41.6094 H   0  0  0  0  0  0  0  0  0  0  0  0
   46.2009   37.7464   41.9399 H   0  0  0  0  0  0  0  0  0  0  0  0
   45.5506   35.2410   40.4789 H   0  0  0  0  0  0  0  0  0  0  0  0
   49.2826   36.8752   40.4923 H   0  0  0  0  0  0  0  0  0  0  0  0
   48.2155   37.4906   41.7560 H   0  0  0  0  0  0  0  0  0  0  0  0
   48.0311   37.6143   38.7295 H   0  0  0  0  0  0  0  0  0  0  0  0
   48.7023   39.4242   40.4477 H   0  0  0  0  0  0  0  0  0  0  0  0
   45.8917   36.8858   39.0063 H   0  0  0  0  0  0  0  0  0  0  0  0
   44.5568   38.6502   38.9959 H   0  0  0  0  0  0  0  0  0  0  0  0
  1  6  1  0
  1  2  2  0
  2  3  1  0
  3  4  2  0
  5  4  1  0
  6  5  2  0
  7  2  1  0
  8  9  2  0
  9  7  1  0
  9 11  1  0
 10  9  1  0
  3 12  1  0
  5 13  1  0
 10 14  1  0
 11 15  1  0
 16 17  1  0
 17 18  1  0
 18 19  1  0
 19 20  1  0
 20 21  1  0
 21 22  1  0
 21 23  1  0
 23 24  1  0
 23 17  1  0
 16 25  1  0
 17 26  1  1
 18 27  1  6
 20 28  1  0
 20 29  1  0
 21 30  1  6
 22 31  1  0
 23 32  1  6
 24 33  1  0
  1 18  1  0
M  ISO  4  12  14  13  14  14   3  15   3
M  END
>  <DihAtoms>  (1) 
5,0,17,16

>  <DihDeg>  (1) 
-51.94810369656158

$$$$
