
     RDKit          3D

 33 34  0  0  0  0  0  0  0  0999 V2000
   46.2954   35.1479   42.5222 C   0  0  0  0  0  0  0  0  0  0  0  0
   46.8476   34.0643   43.2470 C   0  0  0  0  0  0  0  0  0  0  0  0
   46.3625   33.7911   44.5624 C   0  0  0  0  0  0  0  0  0  0  0  0
   45.3902   34.5914   45.0772 N   0  0  0  0  0  0  0  0  0  0  0  0
   44.9107   35.6094   44.3517 C   0  0  0  0  0  0  0  0  0  0  0  0
   45.3337   35.9126   43.0865 N   0  0  0  0  0  0  0  0  0  0  0  0
   47.8329   33.4065   42.5437 O   0  0  0  0  0  0  0  0  0  0  0  0
   50.3890   33.1915   41.8687 O   0  0  0  0  0  0  0  0  0  0  0  0
   49.3123   34.1857   42.1562 P   0  0  0  0  0  0  0  0  0  0  0  0
   49.1189   35.1579   40.8031 O   0  0  0  0  0  0  0  0  0  0  0  0
   49.8507   35.2398   43.3715 O   0  0  0  0  0  0  0  0  0  0  0  0
   46.9219   32.9306   44.8958 H   0  0  0  0  0  0  0  0  0  0  0  0
   44.1593   36.0937   44.9775 H   0  0  0  0  0  0  0  0  0  0  0  0
   49.8206   34.9897   40.1254 H   0  0  0  0  0  0  0  0  0  0  0  0
   49.0411   35.5996   43.8290 H   0  0  0  0  0  0  0  0  0  0  0  0
   47.7370   37.6256   41.5605 O   0  0  0  0  0  0  0  0  0  0  0  0
   47.6991   36.4246   40.8653 C   0  0  1  0  0  0  0  0  0  0  0  0
   46.3304   35.6961   41.1360 C   0  0  1  0  0  0  0  0  0  0  0  0
   46.2810   34.7433   40.1731 O   0  0  0  0  0  0  0  0  0  0  0  0
   47.4644   34.2926   39.6603 C   0  0  0  0  0  0  0  0  0  0  0  0
   47.9588   35.3655   38.6821 C   0  0  2  0  0  0  0  0  0  0  0  0
   49.2929   35.1968   38.3657 O   0  0  0  0  0  0  0  0  0  0  0  0
   47.7231   36.6837   39.3891 C   0  0  2  0  0  0  0  0  0  0  0  0
   48.6929   37.5805   39.0033 O   0  0  0  0  0  0  0  0  0  0  0  0
   48.6888   37.8613   41.6552 H   0  0  0  0  0  0  0  0  0  0  0  0
   48.5321   35.7989   41.2286 H   0  0  0  0  0  0  0  0  0  0  0  0
   45.6757   36.5929   41.0167 H   0  0  0  0  0  0  0  0  0  0  0  0
   47.2158   33.3715   39.0545 H   0  0  0  0  0  0  0  0  0  0  0  0
   48.2296   33.9759   40.3664 H   0  0  0  0  0  0  0  0  0  0  0  0
   47.2990   35.2680   37.7831 H   0  0  0  0  0  0  0  0  0  0  0  0
   49.5917   34.2668   38.4305 H   0  0  0  0  0  0  0  0  0  0  0  0
   46.7099   37.0389   39.0875 H   0  0  0  0  0  0  0  0  0  0  0  0
   48.3611   38.5107   39.0368 H   0  0  0  0  0  0  0  0  0  0  0  0
  1  6  1  0
  1  2  2  0
  2  3  1  0
  3  4  2  0
  5  4  1  0
  6  5  2  0
  7  2  1  0
  8  9  2  0
  9  7  1  0
  9 11  1  0
 10  9  1  0
  3 12  1  0
  5 13  1  0
 10 14  1  0
 11 15  1  0
 16 17  1  0
 17 18  1  0
 18 19  1  0
 19 20  1  0
 20 21  1  0
 21 22  1  0
 21 23  1  0
 23 24  1  0
 23 17  1  0
 16 25  1  0
 17 26  1  1
 18 27  1  6
 20 28  1  0
 20 29  1  0
 21 30  1  6
 22 31  1  0
 23 32  1  6
 24 33  1  0
  1 18  1  0
M  ISO  4  12  14  13  14  14   3  15   3
M  END
>  <DihAtoms>  (1) 
5,0,17,16

>  <DihDeg>  (1) 
-51.94810369656158

$$$$
