
     RDKit          3D

 33 34  0  0  0  0  0  0  0  0999 V2000
   46.2954   35.1479   42.5222 C   0  0  0  0  0  0  0  0  0  0  0  0
   46.8476   34.0643   43.2470 C   0  0  0  0  0  0  0  0  0  0  0  0
   46.3625   33.7911   44.5624 C   0  0  0  0  0  0  0  0  0  0  0  0
   45.3902   34.5914   45.0772 N   0  0  0  0  0  0  0  0  0  0  0  0
   44.9107   35.6094   44.3517 C   0  0  0  0  0  0  0  0  0  0  0  0
   45.3337   35.9126   43.0865 N   0  0  0  0  0  0  0  0  0  0  0  0
   47.8329   33.4065   42.5437 O   0  0  0  0  0  0  0  0  0  0  0  0
   50.3890   33.1915   41.8687 O   0  0  0  0  0  0  0  0  0  0  0  0
   49.3123   34.1857   42.1562 P   0  0  0  0  0  0  0  0  0  0  0  0
   49.1189   35.1579   40.8031 O   0  0  0  0  0  0  0  0  0  0  0  0
   49.8507   35.2398   43.3715 O   0  0  0  0  0  0  0  0  0  0  0  0
   46.9219   32.9306   44.8958 H   0  0  0  0  0  0  0  0  0  0  0  0
   44.1593   36.0937   44.9775 H   0  0  0  0  0  0  0  0  0  0  0  0
   49.8206   34.9897   40.1254 H   0  0  0  0  0  0  0  0  0  0  0  0
   49.0411   35.5996   43.8290 H   0  0  0  0  0  0  0  0  0  0  0  0
   43.9709   35.4817   40.6176 O   0  0  0  0  0  0  0  0  0  0  0  0
   44.9762   36.4224   40.7957 C   0  0  1  0  0  0  0  0  0  0  0  0
   46.3304   35.6961   41.1360 C   0  0  1  0  0  0  0  0  0  0  0  0
   47.2638   36.6626   40.9570 O   0  0  0  0  0  0  0  0  0  0  0  0
   46.8702   37.9634   41.0970 C   0  0  0  0  0  0  0  0  0  0  0  0
   46.1223   38.3391   39.8117 C   0  0  2  0  0  0  0  0  0  0  0  0
   45.3827   39.4955   39.9670 O   0  0  0  0  0  0  0  0  0  0  0  0
   45.2315   37.1519   39.5114 C   0  0  2  0  0  0  0  0  0  0  0  0
   44.0849   37.5953   38.8928 O   0  0  0  0  0  0  0  0  0  0  0  0
   43.1192   35.9555   40.7608 H   0  0  0  0  0  0  0  0  0  0  0  0
   44.6820   37.0744   41.6358 H   0  0  0  0  0  0  0  0  0  0  0  0
   46.2519   34.8965   40.3604 H   0  0  0  0  0  0  0  0  0  0  0  0
   47.8177   38.5785   41.1289 H   0  0  0  0  0  0  0  0  0  0  0  0
   46.3234   38.2283   41.9999 H   0  0  0  0  0  0  0  0  0  0  0  0
   46.9181   38.4517   39.0326 H   0  0  0  0  0  0  0  0  0  0  0  0
   45.7500   40.1026   40.6414 H   0  0  0  0  0  0  0  0  0  0  0  0
   45.8083   36.4728   38.8409 H   0  0  0  0  0  0  0  0  0  0  0  0
   43.7115   36.9102   38.2865 H   0  0  0  0  0  0  0  0  0  0  0  0
  1  6  1  0
  1  2  2  0
  2  3  1  0
  3  4  2  0
  5  4  1  0
  6  5  2  0
  7  2  1  0
  8  9  2  0
  9  7  1  0
  9 11  1  0
 10  9  1  0
  3 12  1  0
  5 13  1  0
 10 14  1  0
 11 15  1  0
 16 17  1  0
 17 18  1  0
 18 19  1  0
 19 20  1  0
 20 21  1  0
 21 22  1  0
 21 23  1  0
 23 24  1  0
 23 17  1  0
 16 25  1  0
 17 26  1  1
 18 27  1  6
 20 28  1  0
 20 29  1  0
 21 30  1  6
 22 31  1  0
 23 32  1  6
 24 33  1  0
  1 18  1  0
M  ISO  4  12  14  13  14  14   3  15   3
M  END
>  <DihAtoms>  (1) 
5,0,17,16

>  <DihDeg>  (1) 
-51.94810369656158

$$$$
