
     RDKit          3D

 30 31  0  0  0  0  0  0  0  0999 V2000
   45.4366   35.0694   43.9947 C   0  0  0  0  0  0  0  0  0  0  0  0
   46.4936   34.2966   43.5144 C   0  0  0  0  0  0  0  0  0  0  0  0
   47.0214   33.2852   44.3351 C   0  0  0  0  0  0  0  0  0  0  0  0
   46.4650   33.1190   45.5595 N   0  0  0  0  0  0  0  0  0  0  0  0
   45.4282   33.8993   45.9930 C   0  0  0  0  0  0  0  0  0  0  0  0
   44.9216   34.8673   45.2100 N   0  0  0  0  0  0  0  0  0  0  0  0
   44.8985   36.1362   43.0974 C   0  0  0  0  0  0  0  0  0  0  0  0
   46.9494   34.4251   42.5241 H   0  0  0  0  0  0  0  0  0  0  0  0
   47.8442   32.6639   43.9945 H   0  0  0  0  0  0  0  0  0  0  0  0
   45.0520   33.6803   47.0018 H   0  0  0  0  0  0  0  0  0  0  0  0
   44.5745   35.7370   42.1222 H   0  0  0  0  0  0  0  0  0  0  0  0
   45.7071   36.9076   42.9420 H   0  0  0  0  0  0  0  0  0  0  0  0
   44.2429   38.6579   42.2742 O   0  0  0  0  0  0  0  0  0  0  0  0
   43.2544   37.9186   42.8607 C   0  0  1  0  0  0  0  0  0  0  0  0
   43.7675   36.8425   43.8162 C   0  0  1  0  0  0  0  0  0  0  0  0
   42.7181   35.9618   44.0568 O   0  0  0  0  0  0  0  0  0  0  0  0
   41.7116   36.5940   44.7473 C   0  0  0  0  0  0  0  0  0  0  0  0
   41.1231   37.7761   43.9956 C   0  0  1  0  0  0  0  0  0  0  0  0
   40.1627   38.3689   44.8045 O   0  0  0  0  0  0  0  0  0  0  0  0
   42.1717   38.7499   43.5355 C   0  0  1  0  0  0  0  0  0  0  0  0
   42.7090   39.5191   44.5680 O   0  0  0  0  0  0  0  0  0  0  0  0
   45.0131   38.8610   42.8332 H   0  0  0  0  0  0  0  0  0  0  0  0
   42.7198   37.3425   42.0548 H   0  0  0  0  0  0  0  0  0  0  0  0
   44.1677   37.2776   44.7510 H   0  0  0  0  0  0  0  0  0  0  0  0
   40.8638   35.8693   44.8685 H   0  0  0  0  0  0  0  0  0  0  0  0
   42.0877   36.9058   45.7572 H   0  0  0  0  0  0  0  0  0  0  0  0
   40.6532   37.3626   43.0815 H   0  0  0  0  0  0  0  0  0  0  0  0
   40.1519   39.3580   44.7328 H   0  0  0  0  0  0  0  0  0  0  0  0
   41.7122   39.3779   42.7340 H   0  0  0  0  0  0  0  0  0  0  0  0
   42.3280   39.1965   45.4076 H   0  0  0  0  0  0  0  0  0  0  0  0
  1  6  1  0
  2  1  2  0
  2  3  1  0
  3  4  2  0
  4  5  1  0
  6  5  2  0
  7  1  1  0
  2  8  1  0
  3  9  1  0
  5 10  1  0
  7 11  1  0
  7 12  1  0
 13 14  1  0
 14 15  1  0
 15 16  1  0
 16 17  1  0
 17 18  1  0
 18 19  1  0
 18 20  1  0
 20 21  1  0
 20 14  1  0
 13 22  1  0
 14 23  1  6
 15 24  1  1
 17 25  1  0
 17 26  1  0
 18 27  1  6
 19 28  1  0
 20 29  1  6
 21 30  1  0
  7 15  1  0
M  ISO  5   8  14   9  14  10  14  11   8  12   8
M  END
>  <DihAtoms>  (1) 
0,6,14,13

>  <DihDeg>  (1) 
-179.99942154274117

$$$$
