
     RDKit          3D

 49 51  0  0  0  0  0  0  0  0999 V2000
   46.1855   32.0837   45.4340 C   0  0  0  0  0  0  0  0  0  0  0  0
   45.7600   32.0236   49.1284 C   0  0  0  0  0  0  0  0  0  0  0  0
   46.0555   32.5052   47.8486 C   0  0  0  0  0  0  0  0  0  0  0  0
   45.8851   31.6205   46.7983 C   0  0  0  0  0  0  0  0  0  0  0  0
   45.4443   30.3454   47.0657 N   0  0  0  0  0  0  0  0  0  0  0  0
   45.1721   29.9245   48.3113 C   0  0  0  0  0  0  0  0  0  0  0  0
   45.3315   30.7634   49.3274 N   0  0  0  0  0  0  0  0  0  0  0  0
   46.5528   33.4026   45.4138 O   0  0  0  0  0  0  0  0  0  0  0  0
   44.6391   35.1815   45.2516 O   0  0  0  0  0  0  0  0  0  0  0  0
   45.4577   34.2428   44.4231 P   0  0  2  0  0  0  0  0  0  0  0  0
   44.5192   33.0655   43.6815 O   0  0  0  0  0  0  0  0  0  0  0  0
   46.3387   35.1118   43.2974 O   0  0  0  0  0  0  0  0  0  0  0  0
   47.0972   34.2282   42.5190 C   0  0  1  0  0  0  0  0  0  0  0  0
   46.9566   34.4663   41.0470 C   0  0  0  0  0  0  0  0  0  0  0  0
   48.1118   33.6911   40.4969 C   0  0  0  0  0  0  0  0  0  0  0  0
   49.1609   33.6729   41.6025 C   0  0  0  0  0  0  0  0  0  0  0  0
   48.6049   34.5249   42.7166 C   0  0  1  0  0  0  0  0  0  0  0  0
   45.3967   31.7506   44.7793 H   0  0  0  0  0  0  0  0  0  0  0  0
   47.1020   31.5033   45.1267 H   0  0  0  0  0  0  0  0  0  0  0  0
   45.8619   32.6388   50.0102 H   0  0  0  0  0  0  0  0  0  0  0  0
   46.3987   33.5232   47.7141 H   0  0  0  0  0  0  0  0  0  0  0  0
   44.8280   28.9097   48.4633 H   0  0  0  0  0  0  0  0  0  0  0  0
   43.9215   33.5371   43.0509 H   0  0  0  0  0  0  0  0  0  0  0  0
   46.9557   33.1770   42.7551 H   0  0  0  0  0  0  0  0  0  0  0  0
   46.9508   35.5191   40.7617 H   0  0  0  0  0  0  0  0  0  0  0  0
   45.9993   34.0381   40.6541 H   0  0  0  0  0  0  0  0  0  0  0  0
   48.5390   34.2981   39.6707 H   0  0  0  0  0  0  0  0  0  0  0  0
   47.8462   32.6898   40.1332 H   0  0  0  0  0  0  0  0  0  0  0  0
   50.1489   33.9179   41.2459 H   0  0  0  0  0  0  0  0  0  0  0  0
   49.1462   32.6006   41.9741 H   0  0  0  0  0  0  0  0  0  0  0  0
   48.9096   34.0771   43.6622 H   0  0  0  0  0  0  0  0  0  0  0  0
   51.2620   35.6859   42.7559 O   0  0  0  0  0  0  0  0  0  0  0  0
   50.1608   36.3330   43.2645 C   0  0  2  0  0  0  0  0  0  0  0  0
   48.8555   35.9877   42.6098 C   0  0  2  0  0  0  0  0  0  0  0  0
   47.8039   36.6014   43.3044 O   0  0  0  0  0  0  0  0  0  0  0  0
   47.8845   37.9651   43.3743 C   0  0  0  0  0  0  0  0  0  0  0  0
   49.1765   38.4425   44.0087 C   0  0  1  0  0  0  0  0  0  0  0  0
   49.2317   38.1402   45.3533 O   0  0  0  0  0  0  0  0  0  0  0  0
   50.3780   37.8384   43.3186 C   0  0  1  0  0  0  0  0  0  0  0  0
   51.4795   38.0422   44.1360 O   0  0  0  0  0  0  0  0  0  0  0  0
   51.9103   35.4380   43.4845 H   0  0  0  0  0  0  0  0  0  0  0  0
   50.0735   36.0172   44.3491 H   0  0  0  0  0  0  0  0  0  0  0  0
   48.8774   36.3354   41.5503 H   0  0  0  0  0  0  0  0  0  0  0  0
   47.0792   38.2967   44.0617 H   0  0  0  0  0  0  0  0  0  0  0  0
   47.7098   38.4915   42.4273 H   0  0  0  0  0  0  0  0  0  0  0  0
   49.2232   39.5367   43.8502 H   0  0  0  0  0  0  0  0  0  0  0  0
   48.9004   37.2418   45.5577 H   0  0  0  0  0  0  0  0  0  0  0  0
   50.4929   38.2221   42.2960 H   0  0  0  0  0  0  0  0  0  0  0  0
   51.5560   37.3240   44.8157 H   0  0  0  0  0  0  0  0  0  0  0  0
  1  4  1  0
  2  7  2  0
  3  2  1  0
  4  5  1  0
  4  3  2  0
  5  6  2  0
  6  7  1  0
  8  1  1  0
 10  9  2  0
 10  8  1  1
 11 10  1  0
 12 10  1  0
 13 17  1  0
 13 12  1  0
 14 13  1  0
 15 14  1  0
 15 16  1  0
 16 17  1  0
  1 18  1  0
  1 19  1  0
  2 20  1  0
  3 21  1  0
  6 22  1  0
 11 23  1  0
 13 24  1  6
 14 25  1  0
 14 26  1  0
 15 27  1  0
 15 28  1  0
 16 29  1  0
 16 30  1  0
 17 31  1  1
 32 33  1  0
 33 34  1  0
 34 35  1  0
 35 36  1  0
 36 37  1  0
 37 38  1  0
 37 39  1  0
 39 40  1  0
 39 33  1  0
 32 41  1  0
 33 42  1  1
 34 43  1  6
 36 44  1  0
 36 45  1  0
 37 46  1  1
 38 47  1  0
 39 48  1  6
 40 49  1  0
 17 34  1  0
M  ISO  8  18   8  19   8  20  14  21  14  22  14  23   3  24  13  25  13
M  ISO  6  26  13  27  13  28  13  29  13  30  13  31  13
M  END
>  <DihAtoms>  (1) 
12,16,33,32

>  <DihDeg>  (1) 
174.90526860422054

$$$$
