
     RDKit          3D

 33 34  0  0  0  0  0  0  0  0999 V2000
   46.2954   35.1479   42.5222 C   0  0  0  0  0  0  0  0  0  0  0  0
   46.8476   34.0643   43.2470 C   0  0  0  0  0  0  0  0  0  0  0  0
   46.3625   33.7911   44.5624 C   0  0  0  0  0  0  0  0  0  0  0  0
   45.3902   34.5914   45.0772 N   0  0  0  0  0  0  0  0  0  0  0  0
   44.9107   35.6094   44.3517 C   0  0  0  0  0  0  0  0  0  0  0  0
   45.3337   35.9126   43.0865 N   0  0  0  0  0  0  0  0  0  0  0  0
   47.8329   33.4065   42.5437 O   0  0  0  0  0  0  0  0  0  0  0  0
   50.3890   33.1915   41.8687 O   0  0  0  0  0  0  0  0  0  0  0  0
   49.3123   34.1857   42.1562 P   0  0  0  0  0  0  0  0  0  0  0  0
   49.1189   35.1579   40.8031 O   0  0  0  0  0  0  0  0  0  0  0  0
   49.8507   35.2398   43.3715 O   0  0  0  0  0  0  0  0  0  0  0  0
   46.9219   32.9306   44.8958 H   0  0  0  0  0  0  0  0  0  0  0  0
   44.1593   36.0937   44.9775 H   0  0  0  0  0  0  0  0  0  0  0  0
   49.8206   34.9897   40.1254 H   0  0  0  0  0  0  0  0  0  0  0  0
   49.0411   35.5996   43.8290 H   0  0  0  0  0  0  0  0  0  0  0  0
   48.2885   34.5063   40.3409 O   0  0  0  0  0  0  0  0  0  0  0  0
   46.9211   34.6329   40.1371 C   0  0  1  0  0  0  0  0  0  0  0  0
   46.3304   35.6961   41.1360 C   0  0  1  0  0  0  0  0  0  0  0  0
   45.1033   35.9645   40.6264 O   0  0  0  0  0  0  0  0  0  0  0  0
   44.5037   35.0010   39.8657 C   0  0  0  0  0  0  0  0  0  0  0  0
   45.1725   35.0480   38.4862 C   0  0  2  0  0  0  0  0  0  0  0  0
   44.9054   33.9120   37.7468 O   0  0  0  0  0  0  0  0  0  0  0  0
   46.6537   35.1850   38.7694 C   0  0  2  0  0  0  0  0  0  0  0  0
   47.3623   34.5538   37.7727 O   0  0  0  0  0  0  0  0  0  0  0  0
   48.5429   33.6270   39.9769 H   0  0  0  0  0  0  0  0  0  0  0  0
   46.4601   33.6483   40.3257 H   0  0  0  0  0  0  0  0  0  0  0  0
   47.1302   36.4639   41.0024 H   0  0  0  0  0  0  0  0  0  0  0  0
   43.4299   35.3267   39.7322 H   0  0  0  0  0  0  0  0  0  0  0  0
   44.4513   33.9954   40.2787 H   0  0  0  0  0  0  0  0  0  0  0  0
   44.7697   35.9708   37.9972 H   0  0  0  0  0  0  0  0  0  0  0  0
   44.0555   33.4873   37.9825 H   0  0  0  0  0  0  0  0  0  0  0  0
   46.8821   36.2763   38.7903 H   0  0  0  0  0  0  0  0  0  0  0  0
   48.2465   34.9729   37.6349 H   0  0  0  0  0  0  0  0  0  0  0  0
  1  6  1  0
  1  2  2  0
  2  3  1  0
  3  4  2  0
  5  4  1  0
  6  5  2  0
  7  2  1  0
  8  9  2  0
  9  7  1  0
  9 11  1  0
 10  9  1  0
  3 12  1  0
  5 13  1  0
 10 14  1  0
 11 15  1  0
 16 17  1  0
 17 18  1  0
 18 19  1  0
 19 20  1  0
 20 21  1  0
 21 22  1  0
 21 23  1  0
 23 24  1  0
 23 17  1  0
 16 25  1  0
 17 26  1  6
 18 27  1  1
 20 28  1  0
 20 29  1  0
 21 30  1  6
 22 31  1  0
 23 32  1  1
 24 33  1  0
  1 18  1  0
M  ISO  4  12  14  13  14  14   3  15   3
M  END
>  <DihAtoms>  (1) 
5,0,17,16

>  <DihDeg>  (1) 
-51.94810369656158

$$$$
