
     RDKit          3D

 30 31  0  0  0  0  0  0  0  0999 V2000
   45.4366   35.0694   43.9947 C   0  0  0  0  0  0  0  0  0  0  0  0
   46.4936   34.2966   43.5144 C   0  0  0  0  0  0  0  0  0  0  0  0
   47.0214   33.2852   44.3351 C   0  0  0  0  0  0  0  0  0  0  0  0
   46.4650   33.1190   45.5595 N   0  0  0  0  0  0  0  0  0  0  0  0
   45.4282   33.8993   45.9930 C   0  0  0  0  0  0  0  0  0  0  0  0
   44.9216   34.8673   45.2100 N   0  0  0  0  0  0  0  0  0  0  0  0
   44.8985   36.1362   43.0974 C   0  0  0  0  0  0  0  0  0  0  0  0
   46.9494   34.4251   42.5241 H   0  0  0  0  0  0  0  0  0  0  0  0
   47.8442   32.6639   43.9945 H   0  0  0  0  0  0  0  0  0  0  0  0
   45.0520   33.6803   47.0018 H   0  0  0  0  0  0  0  0  0  0  0  0
   44.5745   35.7370   42.1222 H   0  0  0  0  0  0  0  0  0  0  0  0
   45.7071   36.9076   42.9420 H   0  0  0  0  0  0  0  0  0  0  0  0
   45.2737   38.7479   43.8076 O   0  0  0  0  0  0  0  0  0  0  0  0
   43.9864   38.3389   43.5995 C   0  0  1  0  0  0  0  0  0  0  0  0
   43.7675   36.8425   43.8162 C   0  0  1  0  0  0  0  0  0  0  0  0
   42.5441   36.5114   43.2431 O   0  0  0  0  0  0  0  0  0  0  0  0
   41.5165   37.1192   43.9242 C   0  0  0  0  0  0  0  0  0  0  0  0
   41.6062   38.6359   43.9108 C   0  0  1  0  0  0  0  0  0  0  0  0
   40.5581   39.1384   44.6705 O   0  0  0  0  0  0  0  0  0  0  0  0
   42.9457   39.1408   44.3693 C   0  0  1  0  0  0  0  0  0  0  0  0
   43.1455   39.0205   45.7448 O   0  0  0  0  0  0  0  0  0  0  0  0
   45.7492   38.3086   44.5342 H   0  0  0  0  0  0  0  0  0  0  0  0
   43.7359   38.5020   42.5142 H   0  0  0  0  0  0  0  0  0  0  0  0
   43.8122   36.5698   44.8872 H   0  0  0  0  0  0  0  0  0  0  0  0
   40.5567   36.8754   43.3968 H   0  0  0  0  0  0  0  0  0  0  0  0
   41.4789   36.7272   44.9747 H   0  0  0  0  0  0  0  0  0  0  0  0
   41.4968   38.9461   42.8529 H   0  0  0  0  0  0  0  0  0  0  0  0
   40.8108   39.9387   45.1990 H   0  0  0  0  0  0  0  0  0  0  0  0
   43.0399   40.1971   44.0181 H   0  0  0  0  0  0  0  0  0  0  0  0
   42.3746   38.5496   46.1165 H   0  0  0  0  0  0  0  0  0  0  0  0
  1  6  1  0
  2  1  2  0
  2  3  1  0
  3  4  2  0
  4  5  1  0
  6  5  2  0
  7  1  1  0
  2  8  1  0
  3  9  1  0
  5 10  1  0
  7 11  1  0
  7 12  1  0
 13 14  1  0
 14 15  1  0
 15 16  1  0
 16 17  1  0
 17 18  1  0
 18 19  1  0
 18 20  1  0
 20 21  1  0
 20 14  1  0
 13 22  1  0
 14 23  1  6
 15 24  1  1
 17 25  1  0
 17 26  1  0
 18 27  1  6
 19 28  1  0
 20 29  1  6
 21 30  1  0
  7 15  1  0
M  ISO  5   8  14   9  14  10  14  11   8  12   8
M  END
>  <DihAtoms>  (1) 
0,6,14,13

>  <DihDeg>  (1) 
-179.99942154274117

$$$$
