
     RDKit          3D

 33 34  0  0  0  0  0  0  0  0999 V2000
   46.2954   35.1479   42.5222 C   0  0  0  0  0  0  0  0  0  0  0  0
   46.8476   34.0643   43.2470 C   0  0  0  0  0  0  0  0  0  0  0  0
   46.3625   33.7911   44.5624 C   0  0  0  0  0  0  0  0  0  0  0  0
   45.3902   34.5914   45.0772 N   0  0  0  0  0  0  0  0  0  0  0  0
   44.9107   35.6094   44.3517 C   0  0  0  0  0  0  0  0  0  0  0  0
   45.3337   35.9126   43.0865 N   0  0  0  0  0  0  0  0  0  0  0  0
   47.8329   33.4065   42.5437 O   0  0  0  0  0  0  0  0  0  0  0  0
   50.3890   33.1915   41.8687 O   0  0  0  0  0  0  0  0  0  0  0  0
   49.3123   34.1857   42.1562 P   0  0  0  0  0  0  0  0  0  0  0  0
   49.1189   35.1579   40.8031 O   0  0  0  0  0  0  0  0  0  0  0  0
   49.8507   35.2398   43.3715 O   0  0  0  0  0  0  0  0  0  0  0  0
   46.9219   32.9306   44.8958 H   0  0  0  0  0  0  0  0  0  0  0  0
   44.1593   36.0937   44.9775 H   0  0  0  0  0  0  0  0  0  0  0  0
   49.8206   34.9897   40.1254 H   0  0  0  0  0  0  0  0  0  0  0  0
   49.0411   35.5996   43.8290 H   0  0  0  0  0  0  0  0  0  0  0  0
   46.7285   33.6183   39.9503 O   0  0  0  0  0  0  0  0  0  0  0  0
   45.7932   34.6320   40.1082 C   0  0  1  0  0  0  0  0  0  0  0  0
   46.3304   35.6961   41.1360 C   0  0  1  0  0  0  0  0  0  0  0  0
   45.5104   36.7595   40.9510 O   0  0  0  0  0  0  0  0  0  0  0  0
   44.2576   36.5215   40.4608 C   0  0  0  0  0  0  0  0  0  0  0  0
   44.4118   36.2797   38.9541 C   0  0  2  0  0  0  0  0  0  0  0  0
   43.2858   35.6926   38.4101 O   0  0  0  0  0  0  0  0  0  0  0  0
   45.6217   35.3789   38.8201 C   0  0  2  0  0  0  0  0  0  0  0  0
   45.4536   34.5600   37.7270 O   0  0  0  0  0  0  0  0  0  0  0  0
   46.2359   32.8375   39.6065 H   0  0  0  0  0  0  0  0  0  0  0  0
   44.8653   34.1767   40.4944 H   0  0  0  0  0  0  0  0  0  0  0  0
   47.3689   35.7613   40.7306 H   0  0  0  0  0  0  0  0  0  0  0  0
   43.6792   37.4835   40.5914 H   0  0  0  0  0  0  0  0  0  0  0  0
   43.6617   35.7568   40.9554 H   0  0  0  0  0  0  0  0  0  0  0  0
   44.6120   37.2896   38.5148 H   0  0  0  0  0  0  0  0  0  0  0  0
   42.4642   35.9046   38.8983 H   0  0  0  0  0  0  0  0  0  0  0  0
   46.5086   36.0418   38.6881 H   0  0  0  0  0  0  0  0  0  0  0  0
   46.3205   34.3100   37.3241 H   0  0  0  0  0  0  0  0  0  0  0  0
  1  6  1  0
  1  2  2  0
  2  3  1  0
  3  4  2  0
  5  4  1  0
  6  5  2  0
  7  2  1  0
  8  9  2  0
  9  7  1  0
  9 11  1  0
 10  9  1  0
  3 12  1  0
  5 13  1  0
 10 14  1  0
 11 15  1  0
 16 17  1  0
 17 18  1  0
 18 19  1  0
 19 20  1  0
 20 21  1  0
 21 22  1  0
 21 23  1  0
 23 24  1  0
 23 17  1  0
 16 25  1  0
 17 26  1  1
 18 27  1  6
 20 28  1  0
 20 29  1  0
 21 30  1  6
 22 31  1  0
 23 32  1  6
 24 33  1  0
  1 18  1  0
M  ISO  4  12  14  13  14  14   3  15   3
M  END
>  <DihAtoms>  (1) 
5,0,17,16

>  <DihDeg>  (1) 
-51.94810369656158

$$$$
