
     RDKit          3D

 54 57  0  0  0  0  0  0  0  0999 V2000
   42.8292   34.4780   38.7777 C   0  0  1  0  0  0  0  0  0  0  0  0
   42.9553   35.1655   40.1322 C   0  0  1  0  0  0  0  0  0  0  0  0
   41.6599   35.3824   40.6364 O   0  0  0  0  0  0  0  0  0  0  0  0
   40.7414   35.7042   39.6354 C   0  0  0  0  0  0  0  0  0  0  0  0
   40.4474   34.5211   38.7334 C   0  0  2  0  0  0  0  0  0  0  0  0
   41.6689   33.5426   38.8839 C   0  0  1  0  0  0  0  0  0  0  0  0
   42.6152   35.4164   37.7594 O   0  0  0  0  0  0  0  0  0  0  0  0
   40.4741   34.9310   37.4079 O   0  0  0  0  0  0  0  0  0  0  0  0
   43.4870   34.1930   40.9891 O   0  0  0  0  0  0  0  0  0  0  0  0
   44.6041   34.3362   41.7102 C   0  0  0  0  0  0  0  0  0  0  0  0
   45.8606   34.4528   41.0961 C   0  0  0  0  0  0  0  0  0  0  0  0
   46.9750   34.5993   41.9051 C   0  0  0  0  0  0  0  0  0  0  0  0
   46.8201   34.6257   43.2807 N   0  0  0  0  0  0  0  0  0  0  0  0
   45.5955   34.5104   43.8368 C   0  0  0  0  0  0  0  0  0  0  0  0
   44.4907   34.3664   43.0611 N   0  0  0  0  0  0  0  0  0  0  0  0
   48.3493   34.7294   41.3198 C   0  0  0  0  0  0  0  0  0  0  0  0
   49.0624   36.0581   41.5579 C   0  0  0  0  0  0  0  0  0  0  0  0
   49.5053   34.7285   42.1543 C   0  0  0  0  0  0  0  0  0  0  0  0
   41.5534   32.6007   37.9306 O   0  0  0  0  0  0  0  0  0  0  0  0
   40.9042   31.4130   37.9922 C   0  0  0  0  0  0  0  0  0  0  0  0
   39.6668   31.3012   37.5897 O   0  0  0  0  0  0  0  0  0  0  0  0
   43.7809   33.9304   38.5869 H   0  0  0  0  0  0  0  0  0  0  0  0
   43.5272   36.1043   40.0737 H   0  0  0  0  0  0  0  0  0  0  0  0
   39.8062   35.9396   40.1579 H   0  0  0  0  0  0  0  0  0  0  0  0
   41.0264   36.6143   39.0825 H   0  0  0  0  0  0  0  0  0  0  0  0
   39.5204   34.0001   39.0077 H   0  0  0  0  0  0  0  0  0  0  0  0
   41.4452   33.2683   39.9643 H   0  0  0  0  0  0  0  0  0  0  0  0
   43.2085   35.2322   36.9942 H   0  0  0  0  0  0  0  0  0  0  0  0
   39.7598   34.5569   36.8653 H   0  0  0  0  0  0  0  0  0  0  0  0
   45.9680   34.4305   40.0253 H   0  0  0  0  0  0  0  0  0  0  0  0
   45.5053   34.5341   44.9033 H   0  0  0  0  0  0  0  0  0  0  0  0
   48.3532   34.4947   40.2206 H   0  0  0  0  0  0  0  0  0  0  0  0
   48.5564   36.7187   42.3141 H   0  0  0  0  0  0  0  0  0  0  0  0
   49.6617   36.5229   40.7798 H   0  0  0  0  0  0  0  0  0  0  0  0
   50.4669   34.3634   41.7331 H   0  0  0  0  0  0  0  0  0  0  0  0
   49.3923   34.5404   43.2286 H   0  0  0  0  0  0  0  0  0  0  0  0
   38.4863   29.6181   38.6872 O   0  0  0  0  0  0  0  0  0  0  0  0
   39.5540   29.2960   37.8864 C   0  0  1  0  0  0  0  0  0  0  0  0
   40.8548   29.9591   38.3240 C   0  0  1  0  0  0  0  0  0  0  0  0
   41.8225   29.2486   37.6033 O   0  0  0  0  0  0  0  0  0  0  0  0
   42.1927   28.1385   38.3249 C   0  0  0  0  0  0  0  0  0  0  0  0
   40.9385   27.3248   38.5893 C   0  0  2  0  0  0  0  0  0  0  0  0
   41.1203   25.9740   38.3064 O   0  0  0  0  0  0  0  0  0  0  0  0
   39.7703   27.8057   37.7350 C   0  0  2  0  0  0  0  0  0  0  0  0
   40.0482   27.4707   36.4139 O   0  0  0  0  0  0  0  0  0  0  0  0
   37.8595   30.2555   38.2239 H   0  0  0  0  0  0  0  0  0  0  0  0
   39.3545   29.6897   36.8561 H   0  0  0  0  0  0  0  0  0  0  0  0
   40.9807   29.7840   39.4079 H   0  0  0  0  0  0  0  0  0  0  0  0
   42.8054   28.3214   39.2099 H   0  0  0  0  0  0  0  0  0  0  0  0
   42.8116   27.4976   37.6387 H   0  0  0  0  0  0  0  0  0  0  0  0
   40.7091   27.4295   39.6657 H   0  0  0  0  0  0  0  0  0  0  0  0
   40.2895   25.5361   37.9939 H   0  0  0  0  0  0  0  0  0  0  0  0
   38.8756   27.2686   38.0657 H   0  0  0  0  0  0  0  0  0  0  0  0
   39.9407   28.2071   35.7808 H   0  0  0  0  0  0  0  0  0  0  0  0
  1  6  1  0
  1  2  1  0
  2  3  1  0
  2  9  1  0
  4  3  1  0
  5  6  1  0
  5  4  1  0
  7  1  1  0
  8  5  1  0
  9 10  1  0
 10 15  1  0
 11 10  2  0
 11 12  1  0
 12 13  2  0
 13 14  1  0
 15 14  2  0
 16 17  1  0
 16 12  1  0
 16 18  1  0
 17 18  1  0
 19 20  1  0
 19  6  1  0
 21 20  2  0
  1 22  1  6
  2 23  1  6
  4 24  1  0
  4 25  1  0
  5 26  1  1
  6 27  1  1
  7 28  1  0
  8 29  1  0
 11 30  1  0
 14 31  1  0
 16 32  1  0
 17 33  1  0
 17 34  1  0
 18 35  1  0
 18 36  1  0
 37 38  1  0
 38 39  1  0
 39 40  1  0
 40 41  1  0
 41 42  1  0
 42 43  1  0
 42 44  1  0
 44 45  1  0
 44 38  1  0
 37 46  1  0
 38 47  1  6
 39 48  1  1
 41 49  1  0
 41 50  1  0
 42 51  1  1
 43 52  1  0
 44 53  1  1
 45 54  1  0
 20 39  1  0
M  ISO  8  22  13  23  13  24  13  25  13  26  13  27  13  28   3  29   3
M  ISO  7  30  14  31  14  32  13  33  13  34  13  35  13  36  13
M  END
>  <DihAtoms>  (1) 
18,19,38,37

>  <DihDeg>  (1) 
65.6202494327266

$$$$
