
     RDKit          3D

 35 36  0  0  0  0  0  0  0  0999 V2000
   46.1320   35.2849   42.6980 C   0  0  0  0  0  0  0  0  0  0  0  0
   46.6870   34.1758   43.3479 C   0  0  0  0  0  0  0  0  0  0  0  0
   46.2024   33.8348   44.6084 C   0  0  0  0  0  0  0  0  0  0  0  0
   45.2124   34.5953   45.1491 N   0  0  0  0  0  0  0  0  0  0  0  0
   44.7033   35.6534   44.4960 C   0  0  0  0  0  0  0  0  0  0  0  0
   45.1609   35.9910   43.2841 N   0  0  0  0  0  0  0  0  0  0  0  0
   47.7040   33.4660   42.6926 O   0  0  0  0  0  0  0  0  0  0  0  0
   49.5420   35.3659   42.7839 O   0  0  0  0  0  0  0  0  0  0  0  0
   48.9721   34.3079   41.9065 P   0  0  1  0  0  0  0  0  0  0  0  0
   50.2278   33.2571   41.5074 O   0  0  0  0  0  0  0  0  0  0  0  0
   48.4017   35.0287   40.5067 O   0  0  0  0  0  0  0  0  0  0  0  0
   48.0714   34.3725   39.3635 C   0  0  0  0  0  0  0  0  0  0  0  0
   46.9499   33.7557   39.5057 O   0  0  0  0  0  0  0  0  0  0  0  0
   46.4650   35.5952   41.7258 H   0  0  0  0  0  0  0  0  0  0  0  0
   46.6316   32.9814   45.1050 H   0  0  0  0  0  0  0  0  0  0  0  0
   43.9233   36.2386   44.9416 H   0  0  0  0  0  0  0  0  0  0  0  0
   50.8360   33.7076   40.8698 H   0  0  0  0  0  0  0  0  0  0  0  0
   46.6161   31.5556   38.6198 O   0  0  0  0  0  0  0  0  0  0  0  0
   46.4004   32.8933   38.2974 C   0  0  1  0  0  0  0  0  0  0  0  0
   47.7157   33.6587   38.1142 C   0  0  1  0  0  0  0  0  0  0  0  0
   47.6179   34.5643   37.0852 O   0  0  0  0  0  0  0  0  0  0  0  0
   47.5452   33.9669   35.8359 C   0  0  0  0  0  0  0  0  0  0  0  0
   46.7320   32.6892   35.8888 C   0  0  2  0  0  0  0  0  0  0  0  0
   46.1821   32.3315   34.6824 O   0  0  0  0  0  0  0  0  0  0  0  0
   45.6771   32.9261   36.9695 C   0  0  1  0  0  0  0  0  0  0  0  0
   44.7520   31.8840   36.8649 O   0  0  0  0  0  0  0  0  0  0  0  0
   47.5616   31.3141   38.5740 H   0  0  0  0  0  0  0  0  0  0  0  0
   45.7916   33.3528   39.1025 H   0  0  0  0  0  0  0  0  0  0  0  0
   48.4743   32.8481   37.9418 H   0  0  0  0  0  0  0  0  0  0  0  0
   46.9756   34.6597   35.1830 H   0  0  0  0  0  0  0  0  0  0  0  0
   48.5355   33.8168   35.3539 H   0  0  0  0  0  0  0  0  0  0  0  0
   47.4267   31.8953   36.2250 H   0  0  0  0  0  0  0  0  0  0  0  0
   46.7975   31.7024   34.2331 H   0  0  0  0  0  0  0  0  0  0  0  0
   45.2300   33.9128   36.8096 H   0  0  0  0  0  0  0  0  0  0  0  0
   44.4307   31.6765   37.7643 H   0  0  0  0  0  0  0  0  0  0  0  0
  1  6  2  0
  1  2  1  0
  2  3  2  0
  3  4  1  0
  5  4  2  0
  6  5  1  0
  7  2  1  0
  9  7  1  1
  9  8  2  0
 10  9  1  0
 11  9  1  0
 12 13  2  0
 12 11  1  0
  1 14  1  0
  3 15  1  0
  5 16  1  0
 10 17  1  0
 18 19  1  0
 19 20  1  0
 20 21  1  0
 21 22  1  0
 22 23  1  0
 23 24  1  0
 23 25  1  0
 25 26  1  0
 25 19  1  0
 18 27  1  0
 19 28  1  1
 20 29  1  6
 22 30  1  0
 22 31  1  0
 23 32  1  1
 24 33  1  0
 25 34  1  6
 26 35  1  0
 12 20  1  0
M  ISO  4  14  14  15  14  16  14  17   3
M  END
>  <DihAtoms>  (1) 
12,11,19,18

>  <DihDeg>  (1) 
-121.57062142725867

$$$$
