
     RDKit          3D

 35 36  0  0  0  0  0  0  0  0999 V2000
   46.1320   35.2849   42.6980 C   0  0  0  0  0  0  0  0  0  0  0  0
   46.6870   34.1758   43.3479 C   0  0  0  0  0  0  0  0  0  0  0  0
   46.2024   33.8348   44.6084 C   0  0  0  0  0  0  0  0  0  0  0  0
   45.2124   34.5953   45.1491 N   0  0  0  0  0  0  0  0  0  0  0  0
   44.7033   35.6534   44.4960 C   0  0  0  0  0  0  0  0  0  0  0  0
   45.1609   35.9910   43.2841 N   0  0  0  0  0  0  0  0  0  0  0  0
   47.7040   33.4660   42.6926 O   0  0  0  0  0  0  0  0  0  0  0  0
   49.5420   35.3659   42.7839 O   0  0  0  0  0  0  0  0  0  0  0  0
   48.9721   34.3079   41.9065 P   0  0  1  0  0  0  0  0  0  0  0  0
   50.2278   33.2571   41.5074 O   0  0  0  0  0  0  0  0  0  0  0  0
   48.4017   35.0287   40.5067 O   0  0  0  0  0  0  0  0  0  0  0  0
   48.0714   34.3725   39.3635 C   0  0  0  0  0  0  0  0  0  0  0  0
   46.9499   33.7557   39.5057 O   0  0  0  0  0  0  0  0  0  0  0  0
   46.4650   35.5952   41.7258 H   0  0  0  0  0  0  0  0  0  0  0  0
   46.6316   32.9814   45.1050 H   0  0  0  0  0  0  0  0  0  0  0  0
   43.9233   36.2386   44.9416 H   0  0  0  0  0  0  0  0  0  0  0  0
   50.8360   33.7076   40.8698 H   0  0  0  0  0  0  0  0  0  0  0  0
   45.3323   33.8232   37.6896 O   0  0  0  0  0  0  0  0  0  0  0  0
   46.5726   34.3848   37.3962 C   0  0  1  0  0  0  0  0  0  0  0  0
   47.7157   33.6587   38.1142 C   0  0  1  0  0  0  0  0  0  0  0  0
   48.8255   33.5719   37.3084 O   0  0  0  0  0  0  0  0  0  0  0  0
   48.6599   32.7020   36.2412 C   0  0  0  0  0  0  0  0  0  0  0  0
   47.2483   32.7724   35.6943 C   0  0  2  0  0  0  0  0  0  0  0  0
   47.1409   32.3762   34.3838 O   0  0  0  0  0  0  0  0  0  0  0  0
   46.8027   34.2185   35.9105 C   0  0  1  0  0  0  0  0  0  0  0  0
   45.6190   34.3879   35.1874 O   0  0  0  0  0  0  0  0  0  0  0  0
   45.4145   33.0061   38.2186 H   0  0  0  0  0  0  0  0  0  0  0  0
   46.5487   35.4552   37.6857 H   0  0  0  0  0  0  0  0  0  0  0  0
   47.2693   32.6651   38.3894 H   0  0  0  0  0  0  0  0  0  0  0  0
   49.3174   33.0676   35.4259 H   0  0  0  0  0  0  0  0  0  0  0  0
   48.9754   31.6592   36.4614 H   0  0  0  0  0  0  0  0  0  0  0  0
   46.6374   32.1034   36.3308 H   0  0  0  0  0  0  0  0  0  0  0  0
   46.9021   31.4176   34.3660 H   0  0  0  0  0  0  0  0  0  0  0  0
   47.6062   34.8841   35.5781 H   0  0  0  0  0  0  0  0  0  0  0  0
   45.0519   35.0116   35.6818 H   0  0  0  0  0  0  0  0  0  0  0  0
  1  6  2  0
  1  2  1  0
  2  3  2  0
  3  4  1  0
  5  4  2  0
  6  5  1  0
  7  2  1  0
  9  7  1  1
  9  8  2  0
 10  9  1  0
 11  9  1  0
 12 13  2  0
 12 11  1  0
  1 14  1  0
  3 15  1  0
  5 16  1  0
 10 17  1  0
 18 19  1  0
 19 20  1  0
 20 21  1  0
 21 22  1  0
 22 23  1  0
 23 24  1  0
 23 25  1  0
 25 26  1  0
 25 19  1  0
 18 27  1  0
 19 28  1  6
 20 29  1  1
 22 30  1  0
 22 31  1  0
 23 32  1  1
 24 33  1  0
 25 34  1  6
 26 35  1  0
 12 20  1  0
M  ISO  4  14  14  15  14  16  14  17   3
M  END
>  <DihAtoms>  (1) 
12,11,19,18

>  <DihDeg>  (1) 
-121.57062142725867

$$$$
