
     RDKit          3D

 26 27  0  0  0  0  0  0  0  0999 V2000
   47.1603   33.9794   42.4771 C   0  0  0  0  0  0  0  0  0  0  0  0
   45.2972   34.2355   45.6947 C   0  0  0  0  0  0  0  0  0  0  0  0
   46.1778   33.7444   44.7015 C   0  0  0  0  0  0  0  0  0  0  0  0
   46.2634   34.4594   43.5176 C   0  0  0  0  0  0  0  0  0  0  0  0
   45.5010   35.5891   43.3732 N   0  0  0  0  0  0  0  0  0  0  0  0
   44.6673   36.0300   44.3479 C   0  0  0  0  0  0  0  0  0  0  0  0
   44.5702   35.3541   45.4981 N   0  0  0  0  0  0  0  0  0  0  0  0
   48.3180   33.4158   43.0121 O   0  0  0  0  0  0  0  0  0  0  0  0
   50.6616   33.1098   41.9044 O   0  0  0  0  0  0  0  0  0  0  0  0
   49.6308   34.1566   42.2254 P   0  0  2  0  0  0  0  0  0  0  0  0
   50.2091   35.3505   43.2541 O   0  0  0  0  0  0  0  0  0  0  0  0
   49.0643   34.8014   40.7809 O   0  0  0  0  0  0  0  0  0  0  0  0
   47.3677   34.7801   41.7462 H   0  0  0  0  0  0  0  0  0  0  0  0
   46.6503   33.1488   41.9330 H   0  0  0  0  0  0  0  0  0  0  0  0
   45.1690   33.7373   46.6515 H   0  0  0  0  0  0  0  0  0  0  0  0
   46.7345   32.8410   44.9187 H   0  0  0  0  0  0  0  0  0  0  0  0
   44.1502   36.9346   44.0528 H   0  0  0  0  0  0  0  0  0  0  0  0
   49.5414   35.7012   43.8768 H   0  0  0  0  0  0  0  0  0  0  0  0
   49.4268   36.0787   40.3718 C   0  0  0  0  0  0  0  0  0  0  0  0
   50.0614   36.7749   39.3468 C   0  0  0  0  0  0  0  0  0  0  0  0
   50.4137   36.1016   38.5650 H   0  0  0  0  0  0  0  0  0  0  0  0
   50.0219   38.1151   39.6881 C   0  0  0  0  0  0  0  0  0  0  0  0
   50.4862   38.7777   38.9688 H   0  0  0  0  0  0  0  0  0  0  0  0
   49.3844   38.2278   40.8807 N   0  0  0  0  0  0  0  0  0  0  0  0
   49.2653   39.1692   41.2880 H   0  0  0  0  0  0  0  0  0  0  0  0
   49.0284   37.0064   41.2890 N   0  0  0  0  0  0  0  0  0  0  0  0
  1  8  1  0
  1  4  1  0
  3  2  2  0
  4  3  1  0
  5  4  2  0
  5  6  1  0
  6  7  2  0
  7  2  1  0
  9 10  2  0
 10  8  1  1
 10 11  1  0
 12 10  1  0
  1 13  1  0
  1 14  1  0
  2 15  1  0
  3 16  1  0
  6 17  1  0
 11 18  1  0
 19 20  1  0
 20 21  1  0
 20 22  2  0
 22 23  1  0
 22 24  1  0
 24 25  1  0
 24 26  1  0
 26 19  2  0
 12 19  1  0
M  ISO  8  13   8  14   8  15  14  16  14  17  14  18   3  21  15  23  16
M  ISO  1  25   5
M  END
>  <DihAtoms>  (1) 
9,11,18,19

>  <DihDeg>  (1) 
-0.0001946216334757726

$$$$
