
     RDKit          3D

 40 43  0  0  0  0  0  0  0  0999 V2000
   45.2863   35.2958   43.1248 Cl  0  0  0  0  0  0  0  0  0  0  0  0
   45.1636   34.5446   41.5498 C   0  0  0  0  0  0  0  0  0  0  0  0
   46.2744   34.1566   40.8721 C   0  0  0  0  0  0  0  0  0  0  0  0
   46.0732   33.5552   39.6403 C   0  0  0  0  0  0  0  0  0  0  0  0
   44.8155   33.3591   39.1238 C   0  0  0  0  0  0  0  0  0  0  0  0
   43.7199   33.7539   39.8168 C   0  0  0  0  0  0  0  0  0  0  0  0
   43.9030   34.3541   41.0458 C   0  0  0  0  0  0  0  0  0  0  0  0
   49.5423   35.7425   41.8913 C   0  0  0  0  0  0  0  0  0  0  0  0
   48.2835   35.5443   41.3129 C   0  0  0  0  0  0  0  0  0  0  0  0
   47.5750   34.3722   41.4644 C   0  0  0  0  0  0  0  0  0  0  0  0
   48.2014   33.4306   42.2200 N   0  0  0  0  0  0  0  0  0  0  0  0
   49.4016   33.6103   42.7761 C   0  0  0  0  0  0  0  0  0  0  0  0
   50.0649   34.7586   42.6113 N   0  0  0  0  0  0  0  0  0  0  0  0
   47.8049   31.8755   38.9908 C   0  0  0  0  0  0  0  0  0  0  0  0
   47.2378   33.1085   38.8735 C   0  0  0  0  0  0  0  0  0  0  0  0
   47.7604   34.0289   37.9810 C   0  0  0  0  0  0  0  0  0  0  0  0
   48.8510   33.7017   37.2107 C   0  0  0  0  0  0  0  0  0  0  0  0
   49.4600   32.4495   37.3000 C   0  0  0  0  0  0  0  0  0  0  0  0
   48.9126   31.5378   38.2102 C   0  0  0  0  0  0  0  0  0  0  0  0
   47.1687   30.7147   40.0328 S   0  0  0  0  0  0  0  0  0  0  0  0
   46.7931   29.4392   39.3116 O   0  0  0  0  0  0  0  0  0  0  0  0
   48.4098   30.2704   40.8920 O   0  0  0  0  0  0  0  0  0  0  0  0
   44.7116   32.8811   38.1480 H   0  0  0  0  0  0  0  0  0  0  0  0
   42.7504   33.5797   39.3728 H   0  0  0  0  0  0  0  0  0  0  0  0
   43.0110   34.6615   41.5819 H   0  0  0  0  0  0  0  0  0  0  0  0
   49.9766   36.7100   41.6861 H   0  0  0  0  0  0  0  0  0  0  0  0
   47.8154   36.3193   40.7161 H   0  0  0  0  0  0  0  0  0  0  0  0
   49.8119   32.7960   43.3603 H   0  0  0  0  0  0  0  0  0  0  0  0
   47.3539   35.0044   37.8535 H   0  0  0  0  0  0  0  0  0  0  0  0
   49.3397   34.3288   36.4898 H   0  0  0  0  0  0  0  0  0  0  0  0
   50.3029   32.1269   36.7378 H   0  0  0  0  0  0  0  0  0  0  0  0
   49.3646   30.5467   38.3069 H   0  0  0  0  0  0  0  0  0  0  0  0
   45.9345   31.0099   41.1916 C   0  0  0  0  0  0  0  0  0  0  0  0
   45.6038   32.3445   41.5446 C   0  0  0  0  0  0  0  0  0  0  0  0
   46.0380   33.2884   41.1539 H   0  0  0  0  0  0  0  0  0  0  0  0
   44.6172   32.4554   42.4946 C   0  0  0  0  0  0  0  0  0  0  0  0
   44.1769   33.3174   42.9407 H   0  0  0  0  0  0  0  0  0  0  0  0
   44.3349   31.1764   42.7307 N   0  0  0  0  0  0  0  0  0  0  0  0
   43.6215   30.7620   43.4042 H   0  0  0  0  0  0  0  0  0  0  0  0
   45.0595   30.4055   42.0144 N   0  0  0  0  0  0  0  0  0  0  0  0
  2  1  1  0
  3 10  1  0
  3  2  2  0
  4  3  1  0
  5  4  2  0
  5  6  1  0
  6  7  2  0
  7  2  1  0
  8 13  2  0
  9 10  2  0
  9  8  1  0
 10 11  1  0
 11 12  2  0
 13 12  1  0
 14 20  1  0
 15 14  1  0
 15  4  1  0
 16 15  2  0
 17 18  2  0
 17 16  1  0
 18 19  1  0
 19 14  2  0
 20 22  2  0
 21 20  2  0
  5 23  1  0
  6 24  1  0
  7 25  1  0
  8 26  1  0
  9 27  1  0
 12 28  1  0
 16 29  1  0
 17 30  1  0
 18 31  1  0
 19 32  1  0
 33 34  1  0
 34 35  1  0
 34 36  2  0
 36 37  1  0
 36 38  1  0
 38 39  1  0
 38 40  1  0
 40 33  2  0
 20 33  1  0
M  ISO  8  23  14  24  14  25  14  26  14  27  14  28  14  29  14  30  14
M  ISO  5  31  14  32  14  35  15  37  16  39   5
M  END
>  <DihAtoms>  (1) 
13,19,32,33

>  <DihDeg>  (1) 
105.01409210721158

$$$$
