
     RDKit          3D

 33 35  0  0  1  0  0  0  0  0999 V2000
   47.5810   35.2480   41.6750 C   0  0  1  0  0  0  0  0  0  0  0  0
   49.0980   35.3560   41.5290 C   0  0  0  0  0  0  0  0  0  0  0  0
   48.2350   34.9390   40.3600 C   0  0  1  0  0  0  0  0  0  0  0  0
   47.0770   34.0770   42.4180 C   0  0  0  0  0  0  0  0  0  0  0  0
   46.2330   34.4000   43.5770 C   0  0  0  0  0  0  0  0  0  0  0  0
   45.4560   35.5120   43.4030 C   0  0  0  0  0  0  0  0  0  0  0  0
   44.6100   35.9530   44.4290 C   0  0  0  0  0  0  0  0  0  0  0  0
   44.6310   35.1940   45.5800 N   0  0  0  0  0  0  0  0  0  0  0  0
   45.4030   34.1000   45.7320 C   0  0  0  0  0  0  0  0  0  0  0  0
   46.1890   33.7190   44.7360 N   0  0  0  0  0  0  0  0  0  0  0  0
   48.2890   33.6200   39.9880 O   0  0  0  0  0  0  0  0  0  0  0  0
   48.3230   34.7340   37.5620 O   0  0  0  0  0  0  0  0  0  0  0  0
   48.3340   33.4130   38.3120 P   0  0  1  0  0  0  0  0  0  0  0  0
   49.8020   32.6290   37.9180 O   0  0  0  0  0  0  0  0  0  0  0  0
   47.0520   32.4240   37.8500 O   0  0  0  0  0  0  0  0  0  0  0  0
   46.6180   32.3640   36.5330 C   0  0  0  0  0  0  0  0  0  0  0  0
   46.9710   31.8110   35.3200 C   0  0  0  0  0  0  0  0  0  0  0  0
   45.9920   32.2200   34.4140 C   0  0  0  0  0  0  0  0  0  0  0  0
   45.0930   32.9860   35.0750 N   0  0  0  0  0  0  0  0  0  0  0  0
   45.4820   33.0660   36.3530 N   0  0  0  0  0  0  0  0  0  0  0  0
   46.7862   35.9271   42.0173 H   0  0  0  0  0  0  0  0  0  0  0  0
   49.5843   36.3427   41.5322 H   0  0  0  0  0  0  0  0  0  0  0  0
   49.9669   34.9296   42.0517 H   0  0  0  0  0  0  0  0  0  0  0  0
   48.1044   35.2982   39.3285 H   0  0  0  0  0  0  0  0  0  0  0  0
   46.4856   33.4605   41.7251 H   0  0  0  0  0  0  0  0  0  0  0  0
   47.9617   33.5569   42.8141 H   0  0  0  0  0  0  0  0  0  0  0  0
   45.4955   36.0633   42.4520 H   0  0  0  0  0  0  0  0  0  0  0  0
   43.9729   36.8435   44.3236 H   0  0  0  0  0  0  0  0  0  0  0  0
   45.3808   33.5298   46.6724 H   0  0  0  0  0  0  0  0  0  0  0  0
   50.2749   32.3764   38.7503 H   0  0  0  0  0  0  0  0  0  0  0  0
   47.8452   31.1773   35.1098 H   0  0  0  0  0  0  0  0  0  0  0  0
   45.9568   31.9636   33.3449 H   0  0  0  0  0  0  0  0  0  0  0  0
   44.2575   33.4289   34.6668 H   0  0  0  0  0  0  0  0  0  0  0  0
  1  4  1  0
  2  1  1  0
  3  2  1  0
  3  1  1  0
  4  5  1  0
  5 10  1  0
  6  5  2  0
  6  7  1  0
  7  8  2  0
  8  9  1  0
 10  9  2  0
 11  3  1  0
 13 12  2  0
 13 11  1  0
 14 13  1  0
 15 13  1  0
 16 15  1  0
 17 16  1  0
 18 19  1  0
 18 17  2  0
 19 20  1  0
 20 16  2  0
  1 21  1  6
  2 22  1  0
  2 23  1  0
  3 24  1  6
  4 25  1  0
  4 26  1  0
  6 27  1  0
  7 28  1  0
  9 29  1  0
 14 30  1  0
 17 31  1  0
 18 32  1  0
 19 33  1  0
M  ISO  8  21  13  22  13  23  13  24  13  25   8  26   8  27  14  28  14
M  ISO  5  29  14  30   3  31  14  32  14  33   9
M  END
>  <minimizedAffinity>  (1) 
-5.44044161

>  <minimizedRMSD>  (1) 
2.10444784

$$$$
