
     RDKit          3D

 18 19  0  0  0  0  0  0  0  0999 V2000
   44.5220   36.0368   44.5411 C   0  0  0  0  0  0  0  0  0  0  0  0
   45.1673   36.0704   43.3090 C   0  0  0  0  0  0  0  0  0  0  0  0
   46.0793   35.0401   43.0133 C   0  0  0  0  0  0  0  0  0  0  0  0
   46.2704   34.0821   43.9468 N   0  0  0  0  0  0  0  0  0  0  0  0
   45.6331   34.0701   45.1352 C   0  0  0  0  0  0  0  0  0  0  0  0
   44.7478   35.0637   45.4310 N   0  0  0  0  0  0  0  0  0  0  0  0
   46.8070   34.9118   41.8467 O   0  0  0  0  0  0  0  0  0  0  0  0
   43.8233   36.8485   44.7378 H   0  0  0  0  0  0  0  0  0  0  0  0
   45.0384   36.8056   42.5601 H   0  0  0  0  0  0  0  0  0  0  0  0
   45.7963   33.2956   45.8738 H   0  0  0  0  0  0  0  0  0  0  0  0
   46.7322   35.8028   40.7891 C   0  0  0  0  0  0  0  0  0  0  0  0
   47.3967   37.0088   41.0321 C   0  0  0  0  0  0  0  0  0  0  0  0
   47.9737   37.4581   41.8428 H   0  0  0  0  0  0  0  0  0  0  0  0
   47.2436   37.8063   39.8973 C   0  0  0  0  0  0  0  0  0  0  0  0
   47.5517   38.7955   39.5783 H   0  0  0  0  0  0  0  0  0  0  0  0
   46.5052   37.0642   39.0272 N   0  0  0  0  0  0  0  0  0  0  0  0
   46.1724   37.3001   38.0628 H   0  0  0  0  0  0  0  0  0  0  0  0
   46.2100   35.8990   39.5508 N   0  0  0  0  0  0  0  0  0  0  0  0
  1  6  2  0
  2  1  1  0
  3  2  2  0
  3  4  1  0
  4  5  2  0
  5  6  1  0
  7  3  1  0
  1  8  1  0
  2  9  1  0
  5 10  1  0
 11 12  1  0
 12 13  1  0
 12 14  2  0
 14 15  1  0
 14 16  1  0
 16 17  1  0
 16 18  1  0
 18 11  2  0
  7 11  1  0
M  ISO  6   8  14   9  14  10  14  13  15  15  16  17   5
M  END
>  <DihAtoms>  (1) 
2,6,10,11

>  <DihDeg>  (1) 
-179.99889215013727

$$$$
