
     RDKit          3D

 33 35  0  0  0  0  0  0  0  0999 V2000
   46.0502   34.3329   41.5340 N   0  0  0  0  0  0  0  0  0  0  0  0
   45.1001   34.0779   40.4806 C   0  0  0  0  0  0  0  0  0  0  0  0
   45.6679   33.2489   39.3662 C   0  0  0  0  0  0  0  0  0  0  0  0
   46.9397   33.6495   38.8840 N   0  0  0  0  0  0  0  0  0  0  0  0
   47.7954   34.2791   39.7972 C   0  0  0  0  0  0  0  0  0  0  0  0
   47.4626   34.2639   41.2451 C   0  0  1  0  0  0  0  0  0  0  0  0
   44.5982   36.0667   44.5023 C   0  0  0  0  0  0  0  0  0  0  0  0
   44.9856   35.8498   43.1798 C   0  0  0  0  0  0  0  0  0  0  0  0
   45.6222   34.6455   42.8350 C   0  0  0  0  0  0  0  0  0  0  0  0
   45.8339   33.7206   43.8495 N   0  0  0  0  0  0  0  0  0  0  0  0
   45.4270   34.0017   45.1237 C   0  0  0  0  0  0  0  0  0  0  0  0
   44.8208   35.1529   45.4441 N   0  0  0  0  0  0  0  0  0  0  0  0
   48.1808   35.2984   41.9649 C   0  0  0  0  0  0  0  0  0  0  0  0
   48.9735   36.0643   41.3746 O   0  0  0  0  0  0  0  0  0  0  0  0
   44.2425   33.5223   40.8989 H   0  0  0  0  0  0  0  0  0  0  0  0
   44.6865   35.0593   40.1297 H   0  0  0  0  0  0  0  0  0  0  0  0
   44.9233   33.2650   38.5394 H   0  0  0  0  0  0  0  0  0  0  0  0
   45.7242   32.1941   39.7177 H   0  0  0  0  0  0  0  0  0  0  0  0
   46.8186   34.1575   37.9708 H   0  0  0  0  0  0  0  0  0  0  0  0
   48.8245   33.8265   39.7008 H   0  0  0  0  0  0  0  0  0  0  0  0
   47.9457   35.3403   39.4843 H   0  0  0  0  0  0  0  0  0  0  0  0
   47.7745   33.2320   41.6137 H   0  0  0  0  0  0  0  0  0  0  0  0
   44.1324   37.0305   44.5774 H   0  0  0  0  0  0  0  0  0  0  0  0
   44.8512   36.5257   42.3425 H   0  0  0  0  0  0  0  0  0  0  0  0
   45.6012   33.2736   45.8882 H   0  0  0  0  0  0  0  0  0  0  0  0
   48.4378   35.9410   43.2407 C   0  0  0  0  0  0  0  0  0  0  0  0
   47.6435   36.0444   44.3310 C   0  0  0  0  0  0  0  0  0  0  0  0
   46.6484   35.7016   44.6185 H   0  0  0  0  0  0  0  0  0  0  0  0
   48.3146   36.7888   45.3162 C   0  0  0  0  0  0  0  0  0  0  0  0
   47.9781   37.0574   46.2946 H   0  0  0  0  0  0  0  0  0  0  0  0
   49.4895   37.1257   44.8255 N   0  0  0  0  0  0  0  0  0  0  0  0
   50.2624   37.6767   45.2574 H   0  0  0  0  0  0  0  0  0  0  0  0
   49.4961   36.6134   43.6443 N   0  0  0  0  0  0  0  0  0  0  0  0
  1  9  1  0
  2  1  1  0
  3  2  1  0
  4  3  1  0
  4  5  1  0
  5  6  1  0
  6  1  1  0
  6 13  1  0
  7 12  2  0
  8  7  1  0
  9  8  2  0
  9 10  1  0
 10 11  2  0
 11 12  1  0
 14 13  2  0
  2 15  1  0
  2 16  1  0
  3 17  1  0
  3 18  1  0
  4 19  1  0
  5 20  1  0
  5 21  1  0
  6 22  1  1
  7 23  1  0
  8 24  1  0
 11 25  1  0
 26 27  1  0
 27 28  1  0
 27 29  2  0
 29 30  1  0
 29 31  1  0
 31 32  1  0
 31 33  1  0
 33 26  2  0
 13 26  1  0
M  ISO  8  15  13  16  13  17  13  18  13  19   5  20  13  21  13  22  13
M  ISO  6  23  14  24  14  25  14  28  15  30  16  32   5
M  END
>  <DihAtoms>  (1) 
5,12,25,26

>  <DihDeg>  (1) 
-177.1347019913106

$$$$
