
     RDKit          3D

 33 36  0  0  0  0  0  0  0  0999 V2000
   46.0389   31.6955   45.1378 C   0  0  0  0  0  0  0  0  0  0  0  0
   45.7978   32.9989   45.5282 C   0  0  0  0  0  0  0  0  0  0  0  0
   45.5224   33.2820   46.8572 C   0  0  0  0  0  0  0  0  0  0  0  0
   45.4956   32.2451   47.7671 C   0  0  0  0  0  0  0  0  0  0  0  0
   45.2630   32.2041   49.0947 N   0  0  0  0  0  0  0  0  0  0  0  0
   45.3450   30.9502   49.5562 C   0  0  0  0  0  0  0  0  0  0  0  0
   45.6457   30.1213   48.4854 C   0  0  0  0  0  0  0  0  0  0  0  0
   45.7379   30.9338   47.3755 C   0  0  0  0  0  0  0  0  0  0  0  0
   46.0089   30.6688   46.0571 C   0  0  0  0  0  0  0  0  0  0  0  0
   46.9026   34.9339   42.6251 C   0  0  0  0  0  0  0  0  0  0  0  0
   45.9729   35.9677   42.5533 C   0  0  0  0  0  0  0  0  0  0  0  0
   44.9662   36.0015   43.5010 C   0  0  0  0  0  0  0  0  0  0  0  0
   44.9240   35.0372   44.4530 N   0  0  0  0  0  0  0  0  0  0  0  0
   45.8456   34.0399   44.4983 C   0  0  0  0  0  0  0  0  0  0  0  0
   46.8358   33.9887   43.5831 N   0  0  0  0  0  0  0  0  0  0  0  0
   47.9416   34.9175   41.6294 C   0  0  0  0  0  0  0  0  0  0  0  0
   48.7992   35.8361   41.4724 O   0  0  0  0  0  0  0  0  0  0  0  0
   46.2517   31.4912   44.0995 H   0  0  0  0  0  0  0  0  0  0  0  0
   45.3342   34.3177   47.1489 H   0  0  0  0  0  0  0  0  0  0  0  0
   45.0442   33.0275   49.7127 H   0  0  0  0  0  0  0  0  0  0  0  0
   45.2172   30.5526   50.5605 H   0  0  0  0  0  0  0  0  0  0  0  0
   45.7940   29.0578   48.4367 H   0  0  0  0  0  0  0  0  0  0  0  0
   46.2076   29.6791   45.6736 H   0  0  0  0  0  0  0  0  0  0  0  0
   45.9813   36.7494   41.8066 H   0  0  0  0  0  0  0  0  0  0  0  0
   44.2163   36.7966   43.4796 H   0  0  0  0  0  0  0  0  0  0  0  0
   48.0421   33.7743   40.7188 C   0  0  0  0  0  0  0  0  0  0  0  0
   49.1588   33.2408   40.1099 C   0  0  0  0  0  0  0  0  0  0  0  0
   50.1355   33.6605   40.2700 H   0  0  0  0  0  0  0  0  0  0  0  0
   48.8202   32.1557   39.3201 C   0  0  0  0  0  0  0  0  0  0  0  0
   49.4974   31.5528   38.7326 H   0  0  0  0  0  0  0  0  0  0  0  0
   47.4869   32.0589   39.4737 N   0  0  0  0  0  0  0  0  0  0  0  0
   46.8939   31.3350   39.0100 H   0  0  0  0  0  0  0  0  0  0  0  0
   47.0152   32.9913   40.2834 N   0  0  0  0  0  0  0  0  0  0  0  0
  1  2  2  0
  1  9  1  0
  2  3  1  0
  3  4  2  0
  4  5  1  0
  5  6  1  0
  7  6  2  0
  8  4  1  0
  8  7  1  0
  9  8  2  0
 10 15  1  0
 11 10  2  0
 11 12  1  0
 12 13  2  0
 13 14  1  0
 14  2  1  0
 15 14  2  0
 16 10  1  0
 17 16  2  0
  1 18  1  0
  3 19  1  0
  5 20  1  0
  6 21  1  0
  7 22  1  0
  9 23  1  0
 11 24  1  0
 12 25  1  0
 26 27  1  0
 27 28  1  0
 27 29  2  0
 29 30  1  0
 29 31  1  0
 31 32  1  0
 31 33  1  0
 33 26  2  0
 16 26  1  0
M  ISO  8  18  14  19  14  20   9  21  14  22  14  23  14  24  14  25  14
M  ISO  3  28  15  30  16  32   5
M  END
>  <DihAtoms>  (1) 
9,15,25,26

>  <DihDeg>  (1) 
-179.99877513820135

$$$$
