
     RDKit          3D

 38 41  0  0  0  0  0  0  0  0999 V2000
   45.6341   34.6235   42.0320 C   0  0  0  0  0  0  0  0  0  0  0  0
   44.9006   35.6511   42.6290 C   0  0  0  0  0  0  0  0  0  0  0  0
   43.5544   35.4983   42.3480 C   0  0  0  0  0  0  0  0  0  0  0  0
   43.4975   34.4017   41.5969 N   0  0  0  0  0  0  0  0  0  0  0  0
   44.7080   33.8920   41.4132 N   0  0  0  0  0  0  0  0  0  0  0  0
   49.3563   35.1345   41.9695 C   0  0  0  0  0  0  0  0  0  0  0  0
   47.9728   35.4549   41.8151 C   0  0  0  0  0  0  0  0  0  0  0  0
   47.0841   34.4573   42.1305 C   0  0  0  0  0  0  0  0  0  0  0  0
   47.5413   33.2452   42.5630 N   0  0  0  0  0  0  0  0  0  0  0  0
   48.8630   32.9854   42.6948 C   0  0  0  0  0  0  0  0  0  0  0  0
   49.7378   33.9331   42.3959 N   0  0  0  0  0  0  0  0  0  0  0  0
   42.3506   33.7355   39.6440 N   0  0  0  0  0  0  0  0  0  0  0  0
   42.2206   33.9305   41.0906 C   0  0  2  0  0  0  0  0  0  0  0  0
   41.1652   34.9133   41.4446 C   0  0  0  0  0  0  0  0  0  0  0  0
   40.3317   35.2661   40.3079 N   0  0  0  0  0  0  0  0  0  0  0  0
   41.0367   35.6430   39.1386 C   0  0  0  0  0  0  0  0  0  0  0  0
   42.4494   35.1087   39.1014 C   0  0  2  0  0  0  0  0  0  0  0  0
   45.4527   36.4113   43.2150 H   0  0  0  0  0  0  0  0  0  0  0  0
   42.9831   36.2917   42.8175 H   0  0  0  0  0  0  0  0  0  0  0  0
   50.0598   35.9294   41.7178 H   0  0  0  0  0  0  0  0  0  0  0  0
   47.6108   36.4119   41.4740 H   0  0  0  0  0  0  0  0  0  0  0  0
   49.1120   31.9927   43.0451 H   0  0  0  0  0  0  0  0  0  0  0  0
   41.5302   33.2454   39.2439 H   0  0  0  0  0  0  0  0  0  0  0  0
   42.0009   32.9509   41.5698 H   0  0  0  0  0  0  0  0  0  0  0  0
   40.4447   34.4631   42.1894 H   0  0  0  0  0  0  0  0  0  0  0  0
   41.4967   35.9145   41.7675 H   0  0  0  0  0  0  0  0  0  0  0  0
   39.7358   34.4195   40.0763 H   0  0  0  0  0  0  0  0  0  0  0  0
   41.0999   36.7570   39.0671 H   0  0  0  0  0  0  0  0  0  0  0  0
   40.4637   35.3140   38.2353 H   0  0  0  0  0  0  0  0  0  0  0  0
   43.0570   35.6836   39.8001 H   0  0  0  0  0  0  0  0  0  0  0  0
   43.0067   35.1195   37.7386 C   0  0  0  0  0  0  0  0  0  0  0  0
   42.4104   34.7678   36.5619 C   0  0  0  0  0  0  0  0  0  0  0  0
   41.3980   34.4105   36.4219 H   0  0  0  0  0  0  0  0  0  0  0  0
   43.3142   34.9374   35.5298 C   0  0  0  0  0  0  0  0  0  0  0  0
   43.1820   34.7547   34.4581 H   0  0  0  0  0  0  0  0  0  0  0  0
   44.4487   35.3905   36.0953 N   0  0  0  0  0  0  0  0  0  0  0  0
   45.3707   35.6410   35.6432 H   0  0  0  0  0  0  0  0  0  0  0  0
   44.2590   35.4964   37.4080 N   0  0  0  0  0  0  0  0  0  0  0  0
  1  8  1  0
  1  2  1  0
  3  2  2  0
  4  3  1  0
  5  4  1  0
  5  1  2  0
  6 11  2  0
  7  6  1  0
  7  8  2  0
  8  9  1  0
  9 10  2  0
 11 10  1  0
 12 13  1  0
 13 14  1  0
 13  4  1  0
 15 14  1  0
 16 15  1  0
 17 16  1  0
 17 12  1  0
  2 18  1  0
  3 19  1  0
  6 20  1  0
  7 21  1  0
 10 22  1  0
 12 23  1  0
 13 24  1  1
 14 25  1  0
 14 26  1  0
 15 27  1  0
 16 28  1  0
 16 29  1  0
 17 30  1  1
 31 32  1  0
 32 33  1  0
 32 34  2  0
 34 35  1  0
 34 36  1  0
 36 37  1  0
 36 38  1  0
 38 31  2  0
 17 31  1  0
M  ISO  8  18  14  19  14  20  14  21  14  22  14  23   5  24  13  25  13
M  ISO  8  26  13  27   5  28  13  29  13  30  13  33  15  35  16  37   5
M  END
>  <DihAtoms>  (1) 
15,16,30,31

>  <DihDeg>  (1) 
-72.34842894387312

$$$$
