
     RDKit          3D

 43 46  0  0  0  0  0  0  0  0999 V2000
   44.3370   35.2650   41.1730 C   0  0  0  0  0  0  0  0  0  0  0  0
   43.1710   34.7870   40.4720 C   0  0  0  0  0  0  0  0  0  0  0  0
   42.9580   34.6280   39.1420 C   0  0  0  0  0  0  0  0  0  0  0  0
   41.7880   34.1760   38.5530 C   0  0  0  0  0  0  0  0  0  0  0  0
   40.7420   33.8620   39.4220 C   0  0  0  0  0  0  0  0  0  0  0  0
   40.9920   34.0310   40.7580 C   0  0  0  0  0  0  0  0  0  0  0  0
   42.1230   34.4660   41.2940 N   0  0  0  0  0  0  0  0  0  0  0  0
   39.6690   33.4100   38.5650 C   0  0  0  0  0  0  0  0  0  0  0  0
   38.7560   34.0390   37.7560 C   0  0  0  0  0  0  0  0  0  0  0  0
   37.9760   33.1810   37.0510 C   0  0  0  0  0  0  0  0  0  0  0  0
   38.4180   31.9730   37.4270 N   0  0  0  0  0  0  0  0  0  0  0  0
   39.3920   32.0990   38.2970 N   0  0  0  0  0  0  0  0  0  0  0  0
   39.8290   33.6250   41.6060 C   0  0  0  0  0  0  0  0  0  0  0  0
   38.6350   33.8170   40.9580 F   0  0  0  0  0  0  0  0  0  0  0  0
   39.8620   34.1850   42.8550 F   0  0  0  0  0  0  0  0  0  0  0  0
   39.8740   32.2260   41.8280 F   0  0  0  0  0  0  0  0  0  0  0  0
   44.2490   35.3170   42.6800 C   0  0  0  0  0  0  0  0  0  0  0  0
   47.2840   33.4350   43.5940 C   0  0  0  0  0  0  0  0  0  0  0  0
   47.0380   33.2410   44.9020 C   0  0  0  0  0  0  0  0  0  0  0  0
   45.4020   34.0820   45.1100 S   0  0  0  0  0  0  0  0  0  0  0  0
   45.3560   34.5540   43.3180 C   0  0  0  0  0  0  0  0  0  0  0  0
   46.3500   34.0930   42.9970 N   0  0  0  0  0  0  0  0  0  0  0  0
   50.7180   33.1980   42.0520 C   0  0  0  0  0  0  0  0  0  0  0  0
   49.6080   33.7450   42.7170 C   0  0  0  0  0  0  0  0  0  0  0  0
   48.5060   32.9440   42.9030 C   0  0  0  0  0  0  0  0  0  0  0  0
   48.5740   31.6540   42.4180 N   0  0  0  0  0  0  0  0  0  0  0  0
   49.6730   31.1890   41.7880 C   0  0  0  0  0  0  0  0  0  0  0  0
   50.7420   31.9520   41.6010 N   0  0  0  0  0  0  0  0  0  0  0  0
   49.7020   35.0880   43.1500 N   0  0  0  0  0  0  0  0  0  0  0  0
   44.5459   36.2843   40.8160 H   0  0  0  0  0  0  0  0  0  0  0  0
   45.1265   34.5308   40.9548 H   0  0  0  0  0  0  0  0  0  0  0  0
   43.7905   34.8811   38.4691 H   0  0  0  0  0  0  0  0  0  0  0  0
   41.6892   34.0707   37.4625 H   0  0  0  0  0  0  0  0  0  0  0  0
   38.6653   35.1330   37.6858 H   0  0  0  0  0  0  0  0  0  0  0  0
   37.1718   33.4203   36.3397 H   0  0  0  0  0  0  0  0  0  0  0  0
   38.0469   31.0759   37.0829 H   0  0  0  0  0  0  0  0  0  0  0  0
   44.3044   36.3664   43.0052 H   0  0  0  0  0  0  0  0  0  0  0  0
   43.2954   34.8619   42.9858 H   0  0  0  0  0  0  0  0  0  0  0  0
   47.6495   32.7187   45.6525 H   0  0  0  0  0  0  0  0  0  0  0  0
   51.6048   33.8306   41.8991 H   0  0  0  0  0  0  0  0  0  0  0  0
   49.6827   30.1522   41.4206 H   0  0  0  0  0  0  0  0  0  0  0  0
   48.9105   35.5272   43.6415 H   0  0  0  0  0  0  0  0  0  0  0  0
   50.5619   35.6269   42.9739 H   0  0  0  0  0  0  0  0  0  0  0  0
  1 17  1  0
  2  1  1  0
  2  7  1  0
  3  2  2  0
  4  3  1  0
  4  5  2  0
  5  6  1  0
  6  7  2  0
  6 13  1  0
  8  5  1  0
  9  8  1  0
 10 11  1  0
 10  9  2  0
 11 12  1  0
 12  8  2  0
 13 16  1  0
 13 15  1  0
 14 13  1  0
 17 21  1  0
 18 19  2  0
 19 20  1  0
 21 20  1  0
 22 21  2  0
 22 18  1  0
 23 24  2  0
 24 25  1  0
 24 29  1  0
 25 18  1  0
 26 25  2  0
 27 26  1  0
 28 27  2  0
 28 23  1  0
  1 30  1  0
  1 31  1  0
  3 32  1  0
  4 33  1  0
  9 34  1  0
 10 35  1  0
 11 36  1  0
 17 37  1  0
 17 38  1  0
 19 39  1  0
 23 40  1  0
 27 41  1  0
 29 42  1  0
 29 43  1  0
M  ISO  8  30   8  31   8  32  14  33  14  34  14  35  14  36   9  37   8
M  ISO  4  38   8  39  14  40  14  41  14
M  END
>  <minimizedAffinity>  (1) 
-6.52661085

>  <minimizedRMSD>  (1) 
2.12154365

$$$$
