
     RDKit          3D

 43 46  0  0  1  0  0  0  0  0999 V2000
   44.7200   35.0750   45.3310 C   0  0  0  0  0  0  0  0  0  0  0  0
   45.5100   34.9530   44.1770 C   0  0  0  0  0  0  0  0  0  0  0  0
   46.4850   33.9380   44.1340 C   0  0  0  0  0  0  0  0  0  0  0  0
   46.5810   33.1510   45.2330 N   0  0  0  0  0  0  0  0  0  0  0  0
   45.8060   33.2920   46.3330 C   0  0  0  0  0  0  0  0  0  0  0  0
   44.8710   34.2680   46.3700 N   0  0  0  0  0  0  0  0  0  0  0  0
   47.3430   33.7060   43.0390 N   0  0  0  0  0  0  0  0  0  0  0  0
   46.9310   32.8570   41.9360 C   0  0  0  0  0  0  0  0  0  0  0  0
   48.1070   32.3380   41.1660 C   0  0  0  0  0  0  0  0  0  0  0  0
   49.0300   33.3230   40.7640 N   0  0  0  0  0  0  0  0  0  0  0  0
   49.2760   34.3900   41.6780 C   0  0  2  0  0  0  0  0  0  0  0  0
   48.6440   34.3130   43.0060 C   0  0  0  0  0  0  0  0  0  0  0  0
   48.8270   35.6760   41.0180 C   0  0  0  0  0  0  0  0  0  0  0  0
   49.6480   36.7270   41.4250 F   0  0  0  0  0  0  0  0  0  0  0  0
   47.5670   35.9450   41.5270 F   0  0  0  0  0  0  0  0  0  0  0  0
   48.8380   35.6330   39.6620 F   0  0  0  0  0  0  0  0  0  0  0  0
   45.9800   32.3980   47.4740 C   0  0  0  0  0  0  0  0  0  0  0  0
   44.8760   31.9330   48.1560 C   0  0  0  0  0  0  0  0  0  0  0  0
   45.0940   31.0870   49.2310 C   0  0  0  0  0  0  0  0  0  0  0  0
   46.3960   30.7780   49.5300 C   0  0  0  0  0  0  0  0  0  0  0  0
   47.5020   31.2310   48.8620 C   0  0  0  0  0  0  0  0  0  0  0  0
   47.2560   32.0580   47.8150 N   0  0  0  0  0  0  0  0  0  0  0  0
   48.8650   30.8660   49.2280 C   0  0  0  0  0  0  0  0  0  0  0  0
   49.8250   31.8020   49.5680 C   0  0  0  0  0  0  0  0  0  0  0  0
   50.9720   31.0720   49.8470 C   0  0  0  0  0  0  0  0  0  0  0  0
   50.6950   29.7490   49.6760 N   0  0  0  0  0  0  0  0  0  0  0  0
   49.4200   29.6430   49.3040 N   0  0  0  0  0  0  0  0  0  0  0  0
   43.9539   35.8632   45.3734 H   0  0  0  0  0  0  0  0  0  0  0  0
   45.3705   35.6351   43.3254 H   0  0  0  0  0  0  0  0  0  0  0  0
   46.3624   32.0044   42.3357 H   0  0  0  0  0  0  0  0  0  0  0  0
   46.3127   33.4583   41.2532 H   0  0  0  0  0  0  0  0  0  0  0  0
   48.6365   31.6105   41.7988 H   0  0  0  0  0  0  0  0  0  0  0  0
   47.7029   31.8966   40.2430 H   0  0  0  0  0  0  0  0  0  0  0  0
   49.9289   32.8526   40.5860 H   0  0  0  0  0  0  0  0  0  0  0  0
   50.3541   34.3309   41.8882 H   0  0  0  0  0  0  0  0  0  0  0  0
   49.3063   33.7301   43.6629 H   0  0  0  0  0  0  0  0  0  0  0  0
   48.4992   35.3537   43.3315 H   0  0  0  0  0  0  0  0  0  0  0  0
   43.8580   32.2234   47.8572 H   0  0  0  0  0  0  0  0  0  0  0  0
   44.2584   30.6805   49.8196 H   0  0  0  0  0  0  0  0  0  0  0  0
   46.5674   30.1055   50.3835 H   0  0  0  0  0  0  0  0  0  0  0  0
   49.7047   32.8946   49.6087 H   0  0  0  0  0  0  0  0  0  0  0  0
   51.9415   31.4910   50.1544 H   0  0  0  0  0  0  0  0  0  0  0  0
   51.3543   28.9691   49.8104 H   0  0  0  0  0  0  0  0  0  0  0  0
  1  6  2  0
  2  1  1  0
  3  2  2  0
  3  4  1  0
  4  5  2  0
  5  6  1  0
  5 17  1  0
  7  3  1  0
  8  7  1  0
  9  8  1  0
 10  9  1  0
 10 11  1  0
 11 12  1  0
 12  7  1  0
 13 14  1  0
 13 15  1  0
 13 11  1  0
 16 13  1  0
 17 22  1  0
 17 18  2  0
 18 19  1  0
 19 20  2  0
 21 23  1  0
 21 20  1  0
 22 21  2  0
 23 27  2  0
 23 24  1  0
 24 25  2  0
 26 25  1  0
 27 26  1  0
  1 28  1  0
  2 29  1  0
  8 30  1  0
  8 31  1  0
  9 32  1  0
  9 33  1  0
 10 34  1  0
 11 35  1  1
 12 36  1  0
 12 37  1  0
 18 38  1  0
 19 39  1  0
 20 40  1  0
 24 41  1  0
 25 42  1  0
 26 43  1  0
M  ISO  8  28  14  29  14  30  13  31  13  32  13  33  13  34   5  35  13
M  ISO  8  36  13  37  13  38  14  39  14  40  14  41  14  42  14  43   9
M  END
>  <minimizedAffinity>  (1) 
-7.19683695

>  <minimizedRMSD>  (1) 
0.248368755

$$$$
