
     RDKit          3D

 27 29  0  0  1  0  0  0  0  0999 V2000
   45.0810   34.0400   43.0630 C   0  0  1  0  0  0  0  0  0  0  0  0
   45.3760   35.4680   43.5520 C   0  0  0  0  0  0  0  0  0  0  0  0
   46.0550   34.8800   42.3640 C   0  0  1  0  0  0  0  0  0  0  0  0
   45.4650   32.9690   44.0120 C   0  0  0  0  0  0  0  0  0  0  0  0
   45.6490   31.6730   43.4710 C   0  0  0  0  0  0  0  0  0  0  0  0
   46.0260   30.6670   44.3380 C   0  0  0  0  0  0  0  0  0  0  0  0
   46.1950   30.9730   45.6580 N   0  0  0  0  0  0  0  0  0  0  0  0
   46.0100   32.2200   46.1360 C   0  0  0  0  0  0  0  0  0  0  0  0
   45.6430   33.2140   45.2970 N   0  0  0  0  0  0  0  0  0  0  0  0
   46.2470   32.3350   47.6020 C   0  0  0  0  0  0  0  0  0  0  0  0
   45.2710   33.0810   48.2130 F   0  0  0  0  0  0  0  0  0  0  0  0
   47.4900   32.9150   47.8510 F   0  0  0  0  0  0  0  0  0  0  0  0
   46.3180   31.0430   48.1470 F   0  0  0  0  0  0  0  0  0  0  0  0
   47.5190   34.8000   42.5360 C   0  0  0  0  0  0  0  0  0  0  0  0
   48.3710   35.5580   41.7370 C   0  0  0  0  0  0  0  0  0  0  0  0
   49.6680   35.3290   42.0870 C   0  0  0  0  0  0  0  0  0  0  0  0
   49.6180   34.4360   43.0920 N   0  0  0  0  0  0  0  0  0  0  0  0
   48.3730   34.1430   43.3360 N   0  0  0  0  0  0  0  0  0  0  0  0
   44.2306   33.4462   42.6966 H   0  0  0  0  0  0  0  0  0  0  0  0
   44.6274   36.2642   43.4270 H   0  0  0  0  0  0  0  0  0  0  0  0
   45.6964   35.9293   44.4978 H   0  0  0  0  0  0  0  0  0  0  0  0
   46.1556   35.0610   41.2837 H   0  0  0  0  0  0  0  0  0  0  0  0
   45.4971   31.4754   42.3996 H   0  0  0  0  0  0  0  0  0  0  0  0
   46.1867   29.6416   43.9736 H   0  0  0  0  0  0  0  0  0  0  0  0
   48.0447   36.2419   40.9396 H   0  0  0  0  0  0  0  0  0  0  0  0
   50.5670   35.7797   41.6414 H   0  0  0  0  0  0  0  0  0  0  0  0
   50.4326   34.0471   43.5881 H   0  0  0  0  0  0  0  0  0  0  0  0
  1  2  1  0
  1  4  1  0
  3 14  1  0
  3  1  1  0
  3  2  1  0
  4  9  1  0
  5  4  2  0
  5  6  1  0
  6  7  2  0
  7  8  1  0
  8 10  1  0
  9  8  2  0
 10 12  1  0
 10 13  1  0
 10 11  1  0
 14 18  2  0
 15 16  2  0
 15 14  1  0
 16 17  1  0
 17 18  1  0
  1 19  1  6
  2 20  1  0
  2 21  1  0
  3 22  1  6
  5 23  1  0
  6 24  1  0
 15 25  1  0
 16 26  1  0
 17 27  1  0
M  ISO  8  19  13  20  13  21  13  22  13  23  14  24  14  25  14  26  14
M  ISO  1  27   9
M  END
>  <minimizedAffinity>  (1) 
-5.13659811

>  <minimizedRMSD>  (1) 
1.70032787

$$$$
