
     RDKit          3D

 29 31  0  0  1  0  0  0  0  0999 V2000
   46.8520   35.1670   41.8580 C   0  0  1  0  0  0  0  0  0  0  0  0
   48.3640   35.5030   41.9140 C   0  0  0  0  0  0  0  0  0  0  0  0
   47.7180   34.2670   41.2130 C   0  0  2  0  0  0  0  0  0  0  0  0
   44.8140   35.1380   44.9990 C   0  0  0  0  0  0  0  0  0  0  0  0
   45.2880   35.5560   43.7260 C   0  0  0  0  0  0  0  0  0  0  0  0
   46.3270   34.8220   43.2260 C   0  0  0  0  0  0  0  0  0  0  0  0
   46.8640   33.7680   43.9130 N   0  0  0  0  0  0  0  0  0  0  0  0
   46.3800   33.4110   45.1200 C   0  0  0  0  0  0  0  0  0  0  0  0
   45.3490   34.1000   45.6640 N   0  0  0  0  0  0  0  0  0  0  0  0
   44.7340   36.6640   43.0530 N   0  0  0  0  0  0  0  0  0  0  0  0
   47.8010   34.1780   39.7060 C   0  0  0  0  0  0  0  0  0  0  0  0
   46.8030   33.1670   39.2970 C   0  0  0  0  0  0  0  0  0  0  0  0
   46.0880   33.0730   38.1100 C   0  0  0  0  0  0  0  0  0  0  0  0
   45.2590   31.9580   38.1590 C   0  0  0  0  0  0  0  0  0  0  0  0
   45.5050   31.4150   39.3840 N   0  0  0  0  0  0  0  0  0  0  0  0
   46.3980   32.1100   40.0450 N   0  0  0  0  0  0  0  0  0  0  0  0
   45.9317   35.6503   41.4981 H   0  0  0  0  0  0  0  0  0  0  0  0
   48.7820   36.3335   41.3261 H   0  0  0  0  0  0  0  0  0  0  0  0
   49.1261   35.6945   42.6838 H   0  0  0  0  0  0  0  0  0  0  0  0
   47.8351   33.1755   41.2836 H   0  0  0  0  0  0  0  0  0  0  0  0
   43.9771   35.6851   45.4575 H   0  0  0  0  0  0  0  0  0  0  0  0
   46.8219   32.5617   45.6616 H   0  0  0  0  0  0  0  0  0  0  0  0
   45.0996   36.9421   42.1311 H   0  0  0  0  0  0  0  0  0  0  0  0
   43.9637   37.1954   43.4832 H   0  0  0  0  0  0  0  0  0  0  0  0
   47.5647   35.1521   39.2529 H   0  0  0  0  0  0  0  0  0  0  0  0
   48.8126   33.8990   39.3760 H   0  0  0  0  0  0  0  0  0  0  0  0
   46.1655   33.7714   37.2637 H   0  0  0  0  0  0  0  0  0  0  0  0
   44.5642   31.5972   37.3863 H   0  0  0  0  0  0  0  0  0  0  0  0
   45.0472   30.5659   39.7449 H   0  0  0  0  0  0  0  0  0  0  0  0
  1  2  1  0
  1  6  1  0
  3  1  1  0
  3  2  1  0
  4  9  2  0
  5  4  1  0
  6  5  2  0
  6  7  1  0
  7  8  2  0
  8  9  1  0
 10  5  1  0
 11  3  1  0
 12 11  1  0
 12 16  2  0
 13 14  2  0
 13 12  1  0
 14 15  1  0
 15 16  1  0
  1 17  1  6
  2 18  1  0
  2 19  1  0
  3 20  1  1
  4 21  1  0
  8 22  1  0
 10 23  1  0
 10 24  1  0
 11 25  1  0
 11 26  1  0
 13 27  1  0
 14 28  1  0
 15 29  1  0
M  ISO  8  17  13  18  13  19  13  20  13  21  14  22  14  25   8  26   8
M  ISO  3  27  14  28  14  29   9
M  END
>  <minimizedAffinity>  (1) 
-4.44754601

>  <minimizedRMSD>  (1) 
1.03682399

$$$$
