
     RDKit          3D

 20 21  0  0  0  0  0  0  0  0999 V2000
   44.9680   34.8970   45.0830 C   0  0  0  0  0  0  0  0  0  0  0  0
   45.8130   34.6270   43.9980 C   0  0  0  0  0  0  0  0  0  0  0  0
   46.7400   33.6050   44.1240 C   0  0  0  0  0  0  0  0  0  0  0  0
   46.7700   32.9250   45.3060 N   0  0  0  0  0  0  0  0  0  0  0  0
   45.9480   33.2070   46.3270 C   0  0  0  0  0  0  0  0  0  0  0  0
   45.0250   34.2020   46.2400 N   0  0  0  0  0  0  0  0  0  0  0  0
   46.0250   32.4450   47.5710 C   0  0  0  0  0  0  0  0  0  0  0  0
   44.9770   31.8480   48.2410 C   0  0  0  0  0  0  0  0  0  0  0  0
   45.5310   31.2580   49.3400 C   0  0  0  0  0  0  0  0  0  0  0  0
   46.8590   31.4850   49.3390 N   0  0  0  0  0  0  0  0  0  0  0  0
   47.1770   32.2100   48.2630 N   0  0  0  0  0  0  0  0  0  0  0  0
   45.5960   35.5010   42.8110 C   0  0  0  0  0  0  0  0  0  0  0  0
   44.2293   35.7066   44.9888 H   0  0  0  0  0  0  0  0  0  0  0  0
   47.4257   33.3516   43.3020 H   0  0  0  0  0  0  0  0  0  0  0  0
   43.9162   31.8476   47.9501 H   0  0  0  0  0  0  0  0  0  0  0  0
   44.9814   30.6885   50.1040 H   0  0  0  0  0  0  0  0  0  0  0  0
   47.5226   31.1528   50.0533 H   0  0  0  0  0  0  0  0  0  0  0  0
   45.3435   36.5180   43.1457 H   0  0  0  0  0  0  0  0  0  0  0  0
   46.5138   35.5316   42.2055 H   0  0  0  0  0  0  0  0  0  0  0  0
   44.7705   35.0987   42.2055 H   0  0  0  0  0  0  0  0  0  0  0  0
  1  6  2  0
  2  3  2  0
  2  1  1  0
  3  4  1  0
  4  5  2  0
  5  7  1  0
  6  5  1  0
  7  8  1  0
  7 11  2  0
  8  9  2  0
 10  9  1  0
 11 10  1  0
 12  2  1  0
  1 13  1  0
  3 14  1  0
  8 15  1  0
  9 16  1  0
 10 17  1  0
 12 18  1  0
 12 19  1  0
 12 20  1  0
M  ISO  8  13  14  14  14  15  14  16  14  17   9  18   8  19   8  20   8
M  END
>  <minimizedAffinity>  (1) 
-4.54397774

>  <minimizedRMSD>  (1) 
1.4759481

$$$$
