
     RDKit          3D

 46 49  0  0  0  0  0  0  0  0999 V2000
   45.9730   32.3070   48.2590 C   0  0  0  0  0  0  0  0  0  0  0  0
   45.5790   31.4890   49.2740 C   0  0  0  0  0  0  0  0  0  0  0  0
   46.6560   30.7920   49.6360 N   0  0  0  0  0  0  0  0  0  0  0  0
   47.7160   31.1300   48.8980 C   0  0  0  0  0  0  0  0  0  0  0  0
   47.2830   32.0830   48.0320 N   0  0  0  0  0  0  0  0  0  0  0  0
   49.0700   30.6660   48.9120 N   0  0  0  0  0  0  0  0  0  0  0  0
   50.0270   31.3610   49.7920 C   0  0  0  0  0  0  0  0  0  0  0  0
   50.2190   30.4220   50.9790 C   0  0  0  0  0  0  0  0  0  0  0  0
   50.4710   29.0060   50.4830 C   0  0  0  0  0  0  0  0  0  0  0  0
   50.8700   29.0530   49.0130 C   0  0  0  0  0  0  0  0  0  0  0  0
   49.7250   29.6070   48.2080 C   0  0  0  0  0  0  0  0  0  0  0  0
   45.1160   33.2860   47.5180 C   0  0  0  0  0  0  0  0  0  0  0  0
   45.1500   34.4120   45.3230 C   0  0  0  0  0  0  0  0  0  0  0  0
   45.6290   33.4930   46.1430 C   0  0  0  0  0  0  0  0  0  0  0  0
   45.7500   34.5110   43.9850 C   0  0  0  0  0  0  0  0  0  0  0  0
   45.0140   35.0110   42.8820 C   0  0  0  0  0  0  0  0  0  0  0  0
   45.6730   35.0650   41.6600 C   0  0  0  0  0  0  0  0  0  0  0  0
   46.9430   34.6540   41.5670 N   0  0  0  0  0  0  0  0  0  0  0  0
   47.6260   34.1810   42.6340 C   0  0  0  0  0  0  0  0  0  0  0  0
   47.0430   34.1110   43.8180 N   0  0  0  0  0  0  0  0  0  0  0  0
   49.0120   33.7550   42.4410 C   0  0  0  0  0  0  0  0  0  0  0  0
   49.4370   32.4910   42.0420 C   0  0  0  0  0  0  0  0  0  0  0  0
   50.8140   32.5730   42.0020 C   0  0  0  0  0  0  0  0  0  0  0  0
   51.2010   33.8260   42.3610 N   0  0  0  0  0  0  0  0  0  0  0  0
   50.0940   34.5340   42.6250 N   0  0  0  0  0  0  0  0  0  0  0  0
   44.5712   31.4176   49.7091 H   0  0  0  0  0  0  0  0  0  0  0  0
   46.6688   30.0860   50.3859 H   0  0  0  0  0  0  0  0  0  0  0  0
   50.9816   31.5274   49.2714 H   0  0  0  0  0  0  0  0  0  0  0  0
   49.6623   32.3516   50.1014 H   0  0  0  0  0  0  0  0  0  0  0  0
   51.0803   30.7585   51.5748 H   0  0  0  0  0  0  0  0  0  0  0  0
   49.3109   30.4323   51.5997 H   0  0  0  0  0  0  0  0  0  0  0  0
   51.2818   28.5496   51.0698 H   0  0  0  0  0  0  0  0  0  0  0  0
   49.5563   28.4060   50.5984 H   0  0  0  0  0  0  0  0  0  0  0  0
   51.7520   29.6990   48.8914 H   0  0  0  0  0  0  0  0  0  0  0  0
   51.1121   28.0388   48.6627 H   0  0  0  0  0  0  0  0  0  0  0  0
   49.0004   28.8029   48.0121 H   0  0  0  0  0  0  0  0  0  0  0  0
   50.1214   30.0064   47.2628 H   0  0  0  0  0  0  0  0  0  0  0  0
   44.0877   32.8989   47.4656 H   0  0  0  0  0  0  0  0  0  0  0  0
   45.1342   34.2478   48.0516 H   0  0  0  0  0  0  0  0  0  0  0  0
   44.3314   35.0791   45.6309 H   0  0  0  0  0  0  0  0  0  0  0  0
   46.4482   32.8505   45.7878 H   0  0  0  0  0  0  0  0  0  0  0  0
   43.9700   35.3409   42.9883 H   0  0  0  0  0  0  0  0  0  0  0  0
   45.1510   35.4454   40.7696 H   0  0  0  0  0  0  0  0  0  0  0  0
   48.8113   31.6168   41.8092 H   0  0  0  0  0  0  0  0  0  0  0  0
   51.4923   31.7531   41.7233 H   0  0  0  0  0  0  0  0  0  0  0  0
   52.1703   34.1693   42.4195 H   0  0  0  0  0  0  0  0  0  0  0  0
  1  2  2  0
  2  3  1  0
  4  6  1  0
  4  3  1  0
  5  1  1  0
  5  4  2  0
  6  7  1  0
  7  8  1  0
  9  8  1  0
 10  9  1  0
 11  6  1  0
 11 10  1  0
 12  1  1  0
 13 14  2  0
 14 12  1  0
 15 13  1  0
 16 15  2  0
 17 16  1  0
 18 17  2  0
 18 19  1  0
 19 20  2  0
 20 15  1  0
 21 25  2  0
 21 19  1  0
 22 21  1  0
 23 22  2  0
 23 24  1  0
 24 25  1  0
  2 26  1  0
  3 27  1  0
  7 28  1  0
  7 29  1  0
  8 30  1  0
  8 31  1  0
  9 32  1  0
  9 33  1  0
 10 34  1  0
 10 35  1  0
 11 36  1  0
 11 37  1  0
 12 38  1  0
 12 39  1  0
 13 40  1  0
 14 41  1  0
 16 42  1  0
 17 43  1  0
 22 44  1  0
 23 45  1  0
 24 46  1  0
M  ISO  8  26  14  27   9  28  13  29  13  30  13  31  13  32  13  33  13
M  ISO  8  34  13  35  13  36  13  37  13  38   8  39   8  42  14  43  14
M  ISO  3  44  14  45  14  46   9
M  END
>  <minimizedAffinity>  (1) 
-6.99449921

>  <minimizedRMSD>  (1) 
1.43929863

$$$$
