
     RDKit          3D

 30 32  0  0  0  0  0  0  0  0999 V2000
   46.6016   34.4185   41.4422 C   0  0  0  0  0  0  0  0  0  0  0  0
   47.8867   34.9126   41.2460 C   0  0  0  0  0  0  0  0  0  0  0  0
   48.5269   34.6497   40.0489 C   0  0  0  0  0  0  0  0  0  0  0  0
   47.8852   33.9147   39.0924 C   0  0  0  0  0  0  0  0  0  0  0  0
   46.6129   33.4125   39.2585 C   0  0  0  0  0  0  0  0  0  0  0  0
   46.0003   33.6994   40.4802 C   0  0  0  0  0  0  0  0  0  0  0  0
   44.6924   36.0497   44.2740 C   0  0  0  0  0  0  0  0  0  0  0  0
   45.2276   35.8652   42.9744 C   0  0  0  0  0  0  0  0  0  0  0  0
   45.9885   34.7367   42.7326 C   0  0  0  0  0  0  0  0  0  0  0  0
   46.1722   33.8760   43.7647 N   0  0  0  0  0  0  0  0  0  0  0  0
   45.6563   34.0619   45.0024 C   0  0  0  0  0  0  0  0  0  0  0  0
   44.9147   35.1567   45.2473 N   0  0  0  0  0  0  0  0  0  0  0  0
   48.5637   35.7113   42.3045 C   0  0  0  0  0  0  0  0  0  0  0  0
   49.5187   35.0109   39.8542 H   0  0  0  0  0  0  0  0  0  0  0  0
   48.3734   33.6995   38.1477 H   0  0  0  0  0  0  0  0  0  0  0  0
   46.0640   32.8303   38.5405 H   0  0  0  0  0  0  0  0  0  0  0  0
   44.9917   33.3525   40.7224 H   0  0  0  0  0  0  0  0  0  0  0  0
   44.1034   36.9320   44.4446 H   0  0  0  0  0  0  0  0  0  0  0  0
   45.0744   36.5591   42.1581 H   0  0  0  0  0  0  0  0  0  0  0  0
   45.9124   33.2621   45.6993 H   0  0  0  0  0  0  0  0  0  0  0  0
   48.5380   35.1054   43.2291 H   0  0  0  0  0  0  0  0  0  0  0  0
   47.8759   36.5805   42.4872 H   0  0  0  0  0  0  0  0  0  0  0  0
   49.9091   36.1465   41.9227 C   0  0  0  0  0  0  0  0  0  0  0  0
   51.0004   36.0568   42.7719 C   0  0  0  0  0  0  0  0  0  0  0  0
   51.0291   35.6755   43.7861 H   0  0  0  0  0  0  0  0  0  0  0  0
   52.1040   36.5511   42.0994 C   0  0  0  0  0  0  0  0  0  0  0  0
   53.1069   36.5996   42.5369 H   0  0  0  0  0  0  0  0  0  0  0  0
   51.6637   36.9270   40.8677 N   0  0  0  0  0  0  0  0  0  0  0  0
   52.3601   37.3346   40.1927 H   0  0  0  0  0  0  0  0  0  0  0  0
   50.3612   36.6817   40.7765 N   0  0  0  0  0  0  0  0  0  0  0  0
  1  9  1  0
  2  1  1  0
  2 13  1  0
  3  2  2  0
  4  5  2  0
  4  3  1  0
  5  6  1  0
  6  1  2  0
  7 12  2  0
  8  7  1  0
  9  8  2  0
  9 10  1  0
 10 11  2  0
 11 12  1  0
  3 14  1  0
  4 15  1  0
  5 16  1  0
  6 17  1  0
  7 18  1  0
  8 19  1  0
 11 20  1  0
 13 21  1  0
 13 22  1  0
 23 24  1  0
 24 25  1  0
 24 26  2  0
 26 27  1  0
 26 28  1  0
 28 29  1  0
 28 30  1  0
 30 23  2  0
 13 23  1  0
M  ISO  8  14  14  15  14  16  14  17  14  18  14  19  14  20  14  21   8
M  ISO  4  22   8  25  15  27  16  29   5
M  END
>  <DihAtoms>  (1) 
1,12,22,23

>  <DihDeg>  (1) 
-90.00751864650442

$$$$
