
     RDKit          3D

 31 34  0  0  0  0  0  0  0  0999 V2000
   47.7370   32.0740   44.1210 C   0  0  0  0  0  0  0  0  0  0  0  0
   47.0730   33.1930   43.6100 C   0  0  0  0  0  0  0  0  0  0  0  0
   46.1350   33.8760   44.3300 C   0  0  0  0  0  0  0  0  0  0  0  0
   45.8000   33.4700   45.6310 C   0  0  0  0  0  0  0  0  0  0  0  0
   44.9500   33.8910   46.6030 N   0  0  0  0  0  0  0  0  0  0  0  0
   45.0770   33.0700   47.6760 C   0  0  0  0  0  0  0  0  0  0  0  0
   46.0040   32.1570   47.3460 N   0  0  0  0  0  0  0  0  0  0  0  0
   46.4660   32.3720   46.1050 C   0  0  0  0  0  0  0  0  0  0  0  0
   47.4220   31.6510   45.4130 C   0  0  0  0  0  0  0  0  0  0  0  0
   47.1460   33.4200   39.9520 C   0  0  0  0  0  0  0  0  0  0  0  0
   48.0040   34.5080   39.7280 C   0  0  0  0  0  0  0  0  0  0  0  0
   48.5450   35.1480   40.8450 C   0  0  0  0  0  0  0  0  0  0  0  0
   48.2210   34.6930   42.0970 N   0  0  0  0  0  0  0  0  0  0  0  0
   47.3930   33.6450   42.2610 C   0  0  0  0  0  0  0  0  0  0  0  0
   46.8450   32.9930   41.2040 N   0  0  0  0  0  0  0  0  0  0  0  0
   45.2860   35.3040   43.6880 S   0  0  0  0  0  0  0  0  0  0  0  0
   44.1340   34.8930   42.4080 C   0  0  0  0  0  0  0  0  0  0  0  0
   43.6850   35.8590   41.5130 C   0  0  0  0  0  0  0  0  0  0  0  0
   42.8290   35.2060   40.6830 N   0  0  0  0  0  0  0  0  0  0  0  0
   42.7440   33.9120   41.0340 C   0  0  0  0  0  0  0  0  0  0  0  0
   43.5470   33.7250   42.0930 N   0  0  0  0  0  0  0  0  0  0  0  0
   48.4884   31.5407   43.5202 H   0  0  0  0  0  0  0  0  0  0  0  0
   44.3147   34.6990   46.5368 H   0  0  0  0  0  0  0  0  0  0  0  0
   44.5291   33.1390   48.6273 H   0  0  0  0  0  0  0  0  0  0  0  0
   47.9153   30.7773   45.8639 H   0  0  0  0  0  0  0  0  0  0  0  0
   46.7056   32.8994   39.0889 H   0  0  0  0  0  0  0  0  0  0  0  0
   48.2419   34.8447   38.7082 H   0  0  0  0  0  0  0  0  0  0  0  0
   49.2223   36.0060   40.7219 H   0  0  0  0  0  0  0  0  0  0  0  0
   43.9630   36.9229   41.4834 H   0  0  0  0  0  0  0  0  0  0  0  0
   42.3201   35.6399   39.8996 H   0  0  0  0  0  0  0  0  0  0  0  0
   42.1278   33.1447   40.5425 H   0  0  0  0  0  0  0  0  0  0  0  0
  1  9  2  0
  2  1  1  0
  2  3  2  0
  3  4  1  0
  4  8  2  0
  4  5  1  0
  5  6  1  0
  7  6  2  0
  8  7  1  0
  9  8  1  0
 10 15  2  0
 11 10  1  0
 11 12  2  0
 12 13  1  0
 13 14  2  0
 14  2  1  0
 15 14  1  0
 16  3  1  0
 17 16  1  0
 18 17  2  0
 19 20  1  0
 19 18  1  0
 20 21  2  0
 21 17  1  0
  1 22  1  0
  5 23  1  0
  6 24  1  0
  9 25  1  0
 10 26  1  0
 11 27  1  0
 12 28  1  0
 18 29  1  0
 19 30  1  0
 20 31  1  0
M  ISO  8  22  14  23   9  24  14  25  14  26  14  27  14  28  14  29  14
M  ISO  2  30   9  31  14
M  END
>  <minimizedAffinity>  (1) 
-5.2154808

>  <minimizedRMSD>  (1) 
1.59438252

$$$$
