
     RDKit          3D

 36 38  0  0  0  0  0  0  0  0999 V2000
   47.1270   31.3770   41.3710 Br  0  0  0  0  0  0  0  0  0  0  0  0
   47.9900   33.0670   41.6650 C   0  0  0  0  0  0  0  0  0  0  0  0
   49.3510   33.0120   41.8560 C   0  0  0  0  0  0  0  0  0  0  0  0
   49.9520   34.2630   42.0670 C   0  0  0  0  0  0  0  0  0  0  0  0
   49.2520   35.4510   42.0860 C   0  0  0  0  0  0  0  0  0  0  0  0
   47.8970   35.4140   41.8870 C   0  0  0  0  0  0  0  0  0  0  0  0
   47.2440   34.2280   41.6740 C   0  0  0  0  0  0  0  0  0  0  0  0
   50.2020   31.8260   41.8590 C   0  0  0  0  0  0  0  0  0  0  0  0
   51.1340   31.4720   38.2580 C   0  0  0  0  0  0  0  0  0  0  0  0
   52.5090   31.2720   38.3470 C   0  0  0  0  0  0  0  0  0  0  0  0
   53.0990   31.2610   39.6120 C   0  0  0  0  0  0  0  0  0  0  0  0
   52.3100   31.4420   40.6860 N   0  0  0  0  0  0  0  0  0  0  0  0
   50.9640   31.6370   40.5880 C   0  0  0  0  0  0  0  0  0  0  0  0
   50.4210   31.6430   39.3540 N   0  0  0  0  0  0  0  0  0  0  0  0
   45.8710   34.2150   41.4760 O   0  0  0  0  0  0  0  0  0  0  0  0
   45.5080   34.9430   43.9520 O   0  0  0  0  0  0  0  0  0  0  0  0
   44.7540   34.3560   42.7490 P   0  0  2  0  0  0  0  0  0  0  0  0
   44.2070   32.8260   43.1290 O   0  0  0  0  0  0  0  0  0  0  0  0
   43.5000   35.4130   42.4030 O   0  0  0  0  0  0  0  0  0  0  0  0
   42.6700   35.3560   41.3050 C   0  0  0  0  0  0  0  0  0  0  0  0
   41.3190   35.5470   41.5070 C   0  0  0  0  0  0  0  0  0  0  0  0
   40.7050   35.4480   40.2970 N   0  0  0  0  0  0  0  0  0  0  0  0
   41.6710   35.1990   39.3710 C   0  0  0  0  0  0  0  0  0  0  0  0
   42.8560   35.1480   40.0060 N   0  0  0  0  0  0  0  0  0  0  0  0
   51.0399   34.2975   42.2257 H   0  0  0  0  0  0  0  0  0  0  0  0
   49.7697   36.4064   42.2570 H   0  0  0  0  0  0  0  0  0  0  0  0
   47.3232   36.3524   41.8984 H   0  0  0  0  0  0  0  0  0  0  0  0
   50.9213   31.9155   42.6864 H   0  0  0  0  0  0  0  0  0  0  0  0
   49.5416   30.9538   41.9734 H   0  0  0  0  0  0  0  0  0  0  0  0
   50.6427   31.4874   37.2739 H   0  0  0  0  0  0  0  0  0  0  0  0
   53.1163   31.1261   37.4415 H   0  0  0  0  0  0  0  0  0  0  0  0
   54.1822   31.1081   39.7276 H   0  0  0  0  0  0  0  0  0  0  0  0
   44.1704   32.7236   44.1130 H   0  0  0  0  0  0  0  0  0  0  0  0
   40.8274   35.7436   42.4712 H   0  0  0  0  0  0  0  0  0  0  0  0
   39.6957   35.5438   40.1153 H   0  0  0  0  0  0  0  0  0  0  0  0
   41.5107   35.0631   38.2913 H   0  0  0  0  0  0  0  0  0  0  0  0
  1  2  1  0
  2  7  2  0
  2  3  1  0
  3  8  1  0
  3  4  2  0
  4  5  1  0
  6  5  2  0
  7  6  1  0
  9 10  2  0
  9 14  1  0
 10 11  1  0
 11 12  2  0
 13 12  1  0
 13  8  1  0
 14 13  2  0
 15  7  1  0
 15 17  1  0
 17 18  1  0
 17 16  2  0
 19 17  1  0
 20 21  2  0
 20 19  1  0
 22 21  1  0
 23 24  2  0
 23 22  1  0
 24 20  1  0
  4 25  1  0
  5 26  1  0
  6 27  1  0
  8 28  1  0
  8 29  1  0
  9 30  1  0
 10 31  1  0
 11 32  1  0
 18 33  1  0
 21 34  1  0
 22 35  1  0
 23 36  1  0
M  ISO  8  25  14  26  14  27  14  28   8  29   8  30  14  31  14  32  14
M  ISO  4  33   3  34  14  35   9  36  14
M  END
>  <minimizedAffinity>  (1) 
-5.35252666

>  <minimizedRMSD>  (1) 
9.83221817

$$$$
