
     RDKit          3D

 25 27  0  0  0  0  0  0  0  0999 V2000
   45.3131   33.2395   47.3867 C   0  0  0  0  0  0  0  0  0  0  0  0
   45.8120   33.3256   46.0879 C   0  0  0  0  0  0  0  0  0  0  0  0
   46.9021   32.4973   45.7480 C   0  0  0  0  0  0  0  0  0  0  0  0
   47.3848   31.6744   46.7186 N   0  0  0  0  0  0  0  0  0  0  0  0
   46.8780   31.6213   47.9536 C   0  0  0  0  0  0  0  0  0  0  0  0
   45.8388   32.4041   48.2943 N   0  0  0  0  0  0  0  0  0  0  0  0
   45.2166   34.2452   45.1254 C   0  0  0  0  0  0  0  0  0  0  0  0
   45.1991   34.0351   43.7636 C   0  0  0  0  0  0  0  0  0  0  0  0
   44.5538   35.1262   43.2515 C   0  0  0  0  0  0  0  0  0  0  0  0
   44.1963   35.9594   44.2539 N   0  0  0  0  0  0  0  0  0  0  0  0
   44.6023   35.4188   45.3972 N   0  0  0  0  0  0  0  0  0  0  0  0
   44.2521   34.0471   47.7143 O   0  0  0  0  0  0  0  0  0  0  0  0
   47.3069   32.5459   44.7467 H   0  0  0  0  0  0  0  0  0  0  0  0
   47.3705   30.9198   48.6043 H   0  0  0  0  0  0  0  0  0  0  0  0
   45.5804   33.2280   43.1530 H   0  0  0  0  0  0  0  0  0  0  0  0
   44.2948   35.4215   42.2438 H   0  0  0  0  0  0  0  0  0  0  0  0
   43.7097   36.8741   44.3855 H   0  0  0  0  0  0  0  0  0  0  0  0
   43.6386   34.0843   48.9597 C   0  0  0  0  0  0  0  0  0  0  0  0
   42.7901   33.1022   49.4102 C   0  0  0  0  0  0  0  0  0  0  0  0
   42.4880   32.2011   48.8918 H   0  0  0  0  0  0  0  0  0  0  0  0
   42.3651   33.4392   50.6558 N   0  0  0  0  0  0  0  0  0  0  0  0
   41.7158   32.8608   51.2137 H   0  0  0  0  0  0  0  0  0  0  0  0
   42.9446   34.6166   50.9717 C   0  0  0  0  0  0  0  0  0  0  0  0
   42.7597   35.0970   51.9243 H   0  0  0  0  0  0  0  0  0  0  0  0
   43.7292   35.0155   49.9285 N   0  0  0  0  0  0  0  0  0  0  0  0
  1 12  1  0
  1  6  2  0
  2  1  1  0
  3  2  2  0
  3  4  1  0
  4  5  2  0
  5  6  1  0
  7 11  2  0
  7  2  1  0
  8  7  1  0
  9  8  2  0
  9 10  1  0
 10 11  1  0
  3 13  1  0
  5 14  1  0
  8 15  1  0
  9 16  1  0
 10 17  1  0
 18 19  2  0
 19 20  1  0
 19 21  1  0
 21 22  1  0
 21 23  1  0
 23 24  1  0
 23 25  2  0
 25 18  1  0
 12 18  1  0
M  ISO  8  13  14  14  14  15  14  16  14  17   9  20  15  22   5  24  14
M  END
>  <DihAtoms>  (1) 
0,11,17,18

>  <DihDeg>  (1) 
179.9996458312058

$$$$
