
     RDKit          3D

 24 26  0  0  1  0  0  0  0  0999 V2000
   45.9420   33.3900   41.5890 C   0  0  1  0  0  0  0  0  0  0  0  0
   46.6740   34.7150   41.5840 C   0  0  0  0  0  0  0  0  0  0  0  0
   46.4670   33.8860   42.8540 C   0  0  1  0  0  0  0  0  0  0  0  0
   42.5680   34.5680   40.3730 C   0  0  0  0  0  0  0  0  0  0  0  0
   43.9620   34.5810   40.6030 C   0  0  0  0  0  0  0  0  0  0  0  0
   44.4870   33.5030   41.2960 C   0  0  0  0  0  0  0  0  0  0  0  0
   43.6510   32.5210   41.7020 N   0  0  0  0  0  0  0  0  0  0  0  0
   42.3170   32.5130   41.4780 C   0  0  0  0  0  0  0  0  0  0  0  0
   41.7920   33.5510   40.8080 N   0  0  0  0  0  0  0  0  0  0  0  0
   45.6550   34.5820   43.8850 C   0  0  0  0  0  0  0  0  0  0  0  0
   45.1840   34.2350   45.1580 C   0  0  0  0  0  0  0  0  0  0  0  0
   44.4910   35.2310   45.7020 N   0  0  0  0  0  0  0  0  0  0  0  0
   44.4890   36.2390   44.8150 C   0  0  0  0  0  0  0  0  0  0  0  0
   45.1820   35.8530   43.7310 N   0  0  0  0  0  0  0  0  0  0  0  0
   46.0426   32.4171   41.0857 H   0  0  0  0  0  0  0  0  0  0  0  0
   47.6721   34.7990   41.1294 H   0  0  0  0  0  0  0  0  0  0  0  0
   46.4526   35.7433   41.2621 H   0  0  0  0  0  0  0  0  0  0  0  0
   47.0596   33.3718   43.6250 H   0  0  0  0  0  0  0  0  0  0  0  0
   42.1046   35.4037   39.8282 H   0  0  0  0  0  0  0  0  0  0  0  0
   44.5982   35.4058   40.2495 H   0  0  0  0  0  0  0  0  0  0  0  0
   41.6849   31.6854   41.8323 H   0  0  0  0  0  0  0  0  0  0  0  0
   45.3640   33.2649   45.6442 H   0  0  0  0  0  0  0  0  0  0  0  0
   44.0409   35.2295   46.6285 H   0  0  0  0  0  0  0  0  0  0  0  0
   44.0022   37.2157   44.9527 H   0  0  0  0  0  0  0  0  0  0  0  0
  1  3  1  0
  2  1  1  0
  2  3  1  0
  3 10  1  0
  4  5  2  0
  4  9  1  0
  5  6  1  0
  6  1  1  0
  6  7  2  0
  8  7  1  0
  9  8  2  0
 10 11  2  0
 11 12  1  0
 13 12  1  0
 14 10  1  0
 14 13  2  0
  1 15  1  6
  2 16  1  0
  2 17  1  0
  3 18  1  1
  4 19  1  0
  5 20  1  0
  8 21  1  0
 11 22  1  0
 12 23  1  0
 13 24  1  0
M  ISO  8  15  13  16  13  17  13  18  13  19  14  20  14  21  14  22  14
M  ISO  2  23   9  24  14
M  END
>  <minimizedAffinity>  (1) 
-4.06291056

>  <minimizedRMSD>  (1) 
4.36646748

$$$$
