
     RDKit          3D

 41 44  0  0  0  0  0  0  0  0999 V2000
   49.3461   33.2204   41.4899 N   0  0  0  0  0  0  0  0  0  0  0  0
   50.6704   33.1236   42.0489 C   0  0  0  0  0  0  0  0  0  0  0  0
   51.3305   31.8045   41.7590 C   0  0  0  0  0  0  0  0  0  0  0  0
   50.5985   30.7285   42.5360 C   0  0  0  0  0  0  0  0  0  0  0  0
   49.1169   30.9941   42.5383 C   0  0  0  0  0  0  0  0  0  0  0  0
   48.7785   31.9191   41.3969 C   0  0  2  0  0  0  0  0  0  0  0  0
   47.1936   34.5410   42.0243 C   0  0  1  0  0  0  0  0  0  0  0  0
   48.3153   35.4664   41.7183 C   0  0  0  0  0  0  0  0  0  0  0  0
   48.5930   34.1250   42.2954 C   0  0  2  0  0  0  0  0  0  0  0  0
   45.5157   36.0249   43.1658 C   0  0  0  0  0  0  0  0  0  0  0  0
   46.2905   34.8612   43.1351 C   0  0  0  0  0  0  0  0  0  0  0  0
   46.1580   33.9799   44.2241 C   0  0  0  0  0  0  0  0  0  0  0  0
   45.3038   34.2893   45.2339 N   0  0  0  0  0  0  0  0  0  0  0  0
   44.5728   35.4336   45.2157 C   0  0  0  0  0  0  0  0  0  0  0  0
   44.6723   36.3085   44.1832 N   0  0  0  0  0  0  0  0  0  0  0  0
   49.0240   31.2371   40.1384 N   0  0  0  0  0  0  0  0  0  0  0  0
   51.2897   33.9569   41.6875 H   0  0  0  0  0  0  0  0  0  0  0  0
   50.6156   33.2282   43.1698 H   0  0  0  0  0  0  0  0  0  0  0  0
   51.4510   31.5888   40.7011 H   0  0  0  0  0  0  0  0  0  0  0  0
   52.3433   31.8649   42.2040 H   0  0  0  0  0  0  0  0  0  0  0  0
   50.8532   29.7587   42.0552 H   0  0  0  0  0  0  0  0  0  0  0  0
   50.9901   30.7084   43.5753 H   0  0  0  0  0  0  0  0  0  0  0  0
   48.5112   30.0918   42.4162 H   0  0  0  0  0  0  0  0  0  0  0  0
   48.8824   31.5480   43.4768 H   0  0  0  0  0  0  0  0  0  0  0  0
   47.6632   32.0609   41.4333 H   0  0  0  0  0  0  0  0  0  0  0  0
   46.6618   34.1420   41.1211 H   0  0  0  0  0  0  0  0  0  0  0  0
   48.5882   35.6411   40.6423 H   0  0  0  0  0  0  0  0  0  0  0  0
   48.4291   36.3828   42.3278 H   0  0  0  0  0  0  0  0  0  0  0  0
   48.8725   34.1131   43.3792 H   0  0  0  0  0  0  0  0  0  0  0  0
   45.6416   36.6867   42.3055 H   0  0  0  0  0  0  0  0  0  0  0  0
   46.7403   33.0643   44.2499 H   0  0  0  0  0  0  0  0  0  0  0  0
   43.9128   35.6291   46.0487 H   0  0  0  0  0  0  0  0  0  0  0  0
   49.5587   31.4121   39.2293 H   0  0  0  0  0  0  0  0  0  0  0  0
   48.3276   29.9699   40.1878 C   0  0  0  0  0  0  0  0  0  0  0  0
   48.5531   28.6106   40.1960 C   0  0  0  0  0  0  0  0  0  0  0  0
   49.5790   28.3424   40.1437 H   0  0  0  0  0  0  0  0  0  0  0  0
   47.3742   27.9737   40.2689 N   0  0  0  0  0  0  0  0  0  0  0  0
   47.3471   26.9259   40.2861 H   0  0  0  0  0  0  0  0  0  0  0  0
   46.3800   28.8774   40.3100 C   0  0  0  0  0  0  0  0  0  0  0  0
   45.3521   28.5561   40.3717 H   0  0  0  0  0  0  0  0  0  0  0  0
   46.9705   30.1071   40.2600 N   0  0  0  0  0  0  0  0  0  0  0  0
  1  2  1  0
  1  9  1  0
  3  2  1  0
  3  4  1  0
  5  4  1  0
  6  1  1  0
  6  5  1  0
  7  9  1  0
  7 11  1  0
  8  7  1  0
  8  9  1  0
 10 15  2  0
 11 10  1  0
 11 12  2  0
 12 13  1  0
 14 13  2  0
 15 14  1  0
 16  6  1  0
  2 17  1  0
  2 18  1  0
  3 19  1  0
  3 20  1  0
  4 21  1  0
  4 22  1  0
  5 23  1  0
  5 24  1  0
  6 25  1  1
  7 26  1  6
  8 27  1  0
  8 28  1  0
  9 29  1  1
 10 30  1  0
 12 31  1  0
 14 32  1  0
 16 33  1  0
 34 35  2  0
 35 36  1  0
 35 37  1  0
 37 38  1  0
 37 39  1  0
 39 40  1  0
 39 41  2  0
 41 34  1  0
 16 34  1  0
M  ISO  8  17  13  18  13  19  13  20  13  21  13  22  13  23  13  24  13
M  ISO  8  25  13  26  13  27  13  28  13  29  13  30  14  31  14  32  14
M  ISO  4  33   5  36  15  38   5  40  14
M  END
>  <DihAtoms>  (1) 
5,15,33,34

>  <DihDeg>  (1) 
-100.0381333005716

$$$$
