
     RDKit          3D

 27 29  0  0  0  0  0  0  0  0999 V2000
   45.6872   32.2204   48.4627 C   0  0  0  0  0  0  0  0  0  0  0  0
   45.3577   33.2146   47.5257 C   0  0  0  0  0  0  0  0  0  0  0  0
   46.0140   33.0327   46.2804 C   0  0  0  0  0  0  0  0  0  0  0  0
   46.8569   31.9867   46.0862 N   0  0  0  0  0  0  0  0  0  0  0  0
   47.1163   31.0770   47.0436 C   0  0  0  0  0  0  0  0  0  0  0  0
   46.5217   31.2045   48.2364 N   0  0  0  0  0  0  0  0  0  0  0  0
   45.7485   34.0124   45.2176 C   0  0  0  0  0  0  0  0  0  0  0  0
   46.5239   33.9888   44.0659 C   0  0  0  0  0  0  0  0  0  0  0  0
   46.2205   34.9390   43.1056 C   0  0  0  0  0  0  0  0  0  0  0  0
   45.1866   35.8377   43.3407 C   0  0  0  0  0  0  0  0  0  0  0  0
   44.4403   35.8127   44.5206 C   0  0  0  0  0  0  0  0  0  0  0  0
   44.7499   34.8708   45.4591 N   0  0  0  0  0  0  0  0  0  0  0  0
   44.5404   34.2577   47.6635 O   0  0  0  0  0  0  0  0  0  0  0  0
   45.2602   32.2518   49.4235 H   0  0  0  0  0  0  0  0  0  0  0  0
   47.8107   30.3457   46.6579 H   0  0  0  0  0  0  0  0  0  0  0  0
   47.3190   33.2863   43.9023 H   0  0  0  0  0  0  0  0  0  0  0  0
   46.7511   35.0229   42.1675 H   0  0  0  0  0  0  0  0  0  0  0  0
   44.9261   36.5922   42.6080 H   0  0  0  0  0  0  0  0  0  0  0  0
   43.6337   36.4968   44.7297 H   0  0  0  0  0  0  0  0  0  0  0  0
   43.7879   34.7081   48.6770 C   0  0  0  0  0  0  0  0  0  0  0  0
   43.3782   35.7791   49.4150 C   0  0  0  0  0  0  0  0  0  0  0  0
   43.7982   36.7209   49.1185 H   0  0  0  0  0  0  0  0  0  0  0  0
   42.5139   35.4388   50.3857 N   0  0  0  0  0  0  0  0  0  0  0  0
   42.1175   36.1433   51.0249 H   0  0  0  0  0  0  0  0  0  0  0  0
   42.3848   34.1155   50.2437 C   0  0  0  0  0  0  0  0  0  0  0  0
   41.6951   33.6471   50.9740 H   0  0  0  0  0  0  0  0  0  0  0  0
   43.1402   33.6326   49.2193 N   0  0  0  0  0  0  0  0  0  0  0  0
  2 13  1  0
  2  1  2  0
  3  2  1  0
  4  3  2  0
  4  5  1  0
  5  6  2  0
  6  1  1  0
  7 12  1  0
  7  3  1  0
  8  7  2  0
  9 10  2  0
  9  8  1  0
 10 11  1  0
 11 12  2  0
  1 14  1  0
  5 15  1  0
  8 16  1  0
  9 17  1  0
 10 18  1  0
 11 19  1  0
 20 21  2  0
 21 22  1  0
 21 23  1  0
 23 24  1  0
 23 25  1  0
 25 26  1  0
 25 27  2  0
 27 20  1  0
 13 20  1  0
M  ISO  8  14  14  15  14  16  14  17  14  18  14  19  14  22  15  24   5
M  ISO  1  26  14
M  END
>  <DihAtoms>  (1) 
1,12,19,20

>  <DihDeg>  (1) 
0.023922423468647067

$$$$
