
     RDKit          3D

 31 34  0  0  0  0  0  0  0  0999 V2000
   47.4651   31.6816   44.8245 C   0  0  0  0  0  0  0  0  0  0  0  0
   46.7831   32.8671   44.5349 C   0  0  0  0  0  0  0  0  0  0  0  0
   45.9179   33.4449   45.4198 C   0  0  0  0  0  0  0  0  0  0  0  0
   45.6800   32.8575   46.6723 C   0  0  0  0  0  0  0  0  0  0  0  0
   44.9181   33.1394   47.7604 N   0  0  0  0  0  0  0  0  0  0  0  0
   45.1153   32.1711   48.6914 C   0  0  0  0  0  0  0  0  0  0  0  0
   45.9960   31.3093   48.1594 N   0  0  0  0  0  0  0  0  0  0  0  0
   46.3618   31.6976   46.9278 C   0  0  0  0  0  0  0  0  0  0  0  0
   47.2456   31.0779   46.0637 C   0  0  0  0  0  0  0  0  0  0  0  0
   46.3734   33.8168   41.0185 C   0  0  0  0  0  0  0  0  0  0  0  0
   47.4281   34.7196   40.8189 C   0  0  0  0  0  0  0  0  0  0  0  0
   48.2670   34.9880   41.9025 C   0  0  0  0  0  0  0  0  0  0  0  0
   48.0280   34.3661   43.1011 N   0  0  0  0  0  0  0  0  0  0  0  0
   47.0031   33.5073   43.2440 C   0  0  0  0  0  0  0  0  0  0  0  0
   46.1626   33.2170   42.2171 N   0  0  0  0  0  0  0  0  0  0  0  0
   45.0469   34.9558   45.0606 S   0  0  0  0  0  0  0  0  0  0  0  0
   48.1485   31.2171   44.1371 H   0  0  0  0  0  0  0  0  0  0  0  0
   44.3305   34.0002   47.7282 H   0  0  0  0  0  0  0  0  0  0  0  0
   44.5558   32.2949   49.6032 H   0  0  0  0  0  0  0  0  0  0  0  0
   47.7591   30.1562   46.3214 H   0  0  0  0  0  0  0  0  0  0  0  0
   45.6913   33.5699   40.2164 H   0  0  0  0  0  0  0  0  0  0  0  0
   47.5495   35.1681   39.8434 H   0  0  0  0  0  0  0  0  0  0  0  0
   49.0769   35.6804   41.7515 H   0  0  0  0  0  0  0  0  0  0  0  0
   43.4869   34.6718   44.2728 C   0  0  0  0  0  0  0  0  0  0  0  0
   43.0945   35.4261   43.1713 C   0  0  0  0  0  0  0  0  0  0  0  0
   43.5901   36.2367   42.6333 H   0  0  0  0  0  0  0  0  0  0  0  0
   41.8681   34.9487   42.8300 N   0  0  0  0  0  0  0  0  0  0  0  0
   41.2433   35.2606   42.0494 H   0  0  0  0  0  0  0  0  0  0  0  0
   41.5117   33.9571   43.6641 C   0  0  0  0  0  0  0  0  0  0  0  0
   40.6384   33.3252   43.7404 H   0  0  0  0  0  0  0  0  0  0  0  0
   42.5084   33.7913   44.5472 N   0  0  0  0  0  0  0  0  0  0  0  0
  1  9  2  0
  2  1  1  0
  2  3  2  0
  3  4  1  0
  4  8  2  0
  4  5  1  0
  5  6  1  0
  7  6  2  0
  8  7  1  0
  9  8  1  0
 10 15  2  0
 11 10  1  0
 11 12  2  0
 12 13  1  0
 13 14  2  0
 14  2  1  0
 15 14  1  0
 16  3  1  0
  1 17  1  0
  5 18  1  0
  6 19  1  0
  9 20  1  0
 10 21  1  0
 11 22  1  0
 12 23  1  0
 24 25  2  0
 25 26  1  0
 25 27  1  0
 27 28  1  0
 27 29  1  0
 29 30  1  0
 29 31  2  0
 31 24  1  0
 16 24  1  0
M  ISO  8  17  14  18   9  19  14  20  14  21  14  22  14  23  14  26  15
M  ISO  2  28   5  30  14
M  END
>  <DihAtoms>  (1) 
2,15,23,24

>  <DihDeg>  (1) 
89.99853805827505

$$$$
