
     RDKit          3D

 43 46  0  0  0  0  0  0  0  0999 V2000
   45.1314   36.0151   42.9154 C   0  0  0  0  0  0  0  0  0  0  0  0
   45.3713   34.6503   42.9094 C   0  0  0  0  0  0  0  0  0  0  0  0
   45.2139   33.9202   44.0618 C   0  0  0  0  0  0  0  0  0  0  0  0
   44.8119   34.6099   45.1900 N   0  0  0  0  0  0  0  0  0  0  0  0
   44.5828   35.9205   45.1887 C   0  0  0  0  0  0  0  0  0  0  0  0
   44.7472   36.6135   44.0415 N   0  0  0  0  0  0  0  0  0  0  0  0
   45.4188   32.5299   44.2203 C   0  0  0  0  0  0  0  0  0  0  0  0
   44.9395   31.5629   43.3316 C   0  0  0  0  0  0  0  0  0  0  0  0
   45.0782   30.2119   43.5169 C   0  0  0  0  0  0  0  0  0  0  0  0
   45.7235   29.7400   44.6365 C   0  0  0  0  0  0  0  0  0  0  0  0
   46.2204   30.7061   45.5528 C   0  0  0  0  0  0  0  0  0  0  0  0
   46.8638   30.2495   46.6735 C   0  0  0  0  0  0  0  0  0  0  0  0
   47.3720   31.1353   47.6037 C   0  0  0  0  0  0  0  0  0  0  0  0
   47.2250   32.5139   47.3899 C   0  0  0  0  0  0  0  0  0  0  0  0
   46.5569   32.9368   46.2264 C   0  0  0  0  0  0  0  0  0  0  0  0
   46.0611   32.0345   45.3258 C   0  0  0  0  0  0  0  0  0  0  0  0
   45.7585   34.0901   41.7258 O   0  0  0  0  0  0  0  0  0  0  0  0
   47.6861   32.4332   41.0922 O   0  0  0  0  0  0  0  0  0  0  0  0
   47.3657   33.8751   41.2426 P   0  0  1  0  0  0  0  0  0  0  0  0
   47.6545   34.6042   39.7421 O   0  0  0  0  0  0  0  0  0  0  0  0
   48.3625   34.5911   42.3862 O   0  0  0  0  0  0  0  0  0  0  0  0
   49.5332   35.2938   42.1468 C   0  0  0  0  0  0  0  0  0  0  0  0
   49.2031   36.2068   41.3744 O   0  0  0  0  0  0  0  0  0  0  0  0
   50.6395   34.7053   42.8677 N   0  0  0  0  0  0  0  0  0  0  0  0
   45.2459   36.6221   42.0278 H   0  0  0  0  0  0  0  0  0  0  0  0
   44.2686   36.4438   46.0824 H   0  0  0  0  0  0  0  0  0  0  0  0
   44.4296   31.9397   42.4478 H   0  0  0  0  0  0  0  0  0  0  0  0
   44.6942   29.4957   42.8067 H   0  0  0  0  0  0  0  0  0  0  0  0
   45.8825   28.7079   44.8748 H   0  0  0  0  0  0  0  0  0  0  0  0
   46.9904   29.1779   46.8588 H   0  0  0  0  0  0  0  0  0  0  0  0
   47.8731   30.7164   48.4769 H   0  0  0  0  0  0  0  0  0  0  0  0
   47.6530   33.1290   48.1648 H   0  0  0  0  0  0  0  0  0  0  0  0
   46.5676   34.0058   46.2340 H   0  0  0  0  0  0  0  0  0  0  0  0
   51.5135   34.2333   42.5371 H   0  0  0  0  0  0  0  0  0  0  0  0
   50.5883   34.7413   43.9289 H   0  0  0  0  0  0  0  0  0  0  0  0
   48.0376   33.9157   38.6004 C   0  0  0  0  0  0  0  0  0  0  0  0
   49.2190   33.2243   38.6891 C   0  0  0  0  0  0  0  0  0  0  0  0
   49.9657   33.0786   39.4794 H   0  0  0  0  0  0  0  0  0  0  0  0
   49.4392   32.6168   37.4992 N   0  0  0  0  0  0  0  0  0  0  0  0
   50.2207   32.0062   37.1717 H   0  0  0  0  0  0  0  0  0  0  0  0
   48.3987   32.9479   36.7208 C   0  0  0  0  0  0  0  0  0  0  0  0
   48.1392   32.6953   35.6817 H   0  0  0  0  0  0  0  0  0  0  0  0
   47.5135   33.7513   37.3736 N   0  0  0  0  0  0  0  0  0  0  0  0
  1  6  2  0
  2  1  1  0
  2  3  2  0
  3  7  1  0
  3  4  1  0
  5  4  2  0
  6  5  1  0
  7 16  2  0
  8  9  2  0
  8  7  1  0
  9 10  1  0
 10 11  2  0
 11 12  1  0
 12 13  2  0
 14 13  1  0
 15 14  2  0
 16 11  1  0
 16 15  1  0
 17  2  1  0
 19 18  2  0
 19 17  1  1
 19 21  1  0
 20 19  1  0
 22 21  1  0
 22 24  1  0
 23 22  2  0
  1 25  1  0
  5 26  1  0
  8 27  1  0
  9 28  1  0
 10 29  1  0
 12 30  1  0
 13 31  1  0
 14 32  1  0
 15 33  1  0
 24 34  1  0
 24 35  1  0
 36 37  2  0
 37 38  1  0
 37 39  1  0
 39 40  1  0
 39 41  1  0
 41 42  1  0
 41 43  2  0
 43 36  1  0
 20 36  1  0
M  ISO  8  25  14  26  14  27  14  28  14  29  14  30  14  31  14  32  14
M  ISO  4  33  14  38  15  40   5  42  14
M  END
>  <DihAtoms>  (1) 
18,19,35,36

>  <DihDeg>  (1) 
179.99991504544803

$$$$
