
     RDKit          3D

 41 44  0  0  1  0  0  0  0  0999 V2000
   49.5990   33.6320   41.2740 N   0  0  0  0  0  0  0  0  0  0  0  0
   50.6370   32.9610   42.0140 C   0  0  0  0  0  0  0  0  0  0  0  0
   51.1020   31.6960   41.3490 C   0  0  0  0  0  0  0  0  0  0  0  0
   49.9780   30.6820   41.4230 C   0  0  0  0  0  0  0  0  0  0  0  0
   48.6470   31.3530   41.2130 C   0  0  0  0  0  0  0  0  0  0  0  0
   48.8630   32.6750   40.5230 C   0  0  2  0  0  0  0  0  0  0  0  0
   47.4130   34.8200   41.9600 C   0  0  1  0  0  0  0  0  0  0  0  0
   48.5290   35.7950   41.8560 C   0  0  0  0  0  0  0  0  0  0  0  0
   48.8090   34.3760   42.2000 C   0  0  2  0  0  0  0  0  0  0  0  0
   45.5270   35.9610   43.1710 C   0  0  0  0  0  0  0  0  0  0  0  0
   46.4720   34.9330   43.0800 C   0  0  0  0  0  0  0  0  0  0  0  0
   46.4770   33.9810   44.1160 C   0  0  0  0  0  0  0  0  0  0  0  0
   45.5860   34.0970   45.1350 N   0  0  0  0  0  0  0  0  0  0  0  0
   44.6880   35.1150   45.1760 C   0  0  0  0  0  0  0  0  0  0  0  0
   44.6500   36.0530   44.1950 N   0  0  0  0  0  0  0  0  0  0  0  0
   49.3650   32.4390   39.1800 N   0  0  0  0  0  0  0  0  0  0  0  0
   48.5340   33.1920   38.2670 C   0  0  0  0  0  0  0  0  0  0  0  0
   48.5060   34.3680   37.5480 C   0  0  0  0  0  0  0  0  0  0  0  0
   47.3570   34.4290   36.8590 N   0  0  0  0  0  0  0  0  0  0  0  0
   46.6280   33.3260   37.1040 C   0  0  0  0  0  0  0  0  0  0  0  0
   47.3570   32.5650   37.9710 N   0  0  0  0  0  0  0  0  0  0  0  0
   51.4950   33.6423   42.1122 H   0  0  0  0  0  0  0  0  0  0  0  0
   50.2200   32.6858   42.9940 H   0  0  0  0  0  0  0  0  0  0  0  0
   51.9898   31.3066   41.8688 H   0  0  0  0  0  0  0  0  0  0  0  0
   51.3675   31.8934   40.2999 H   0  0  0  0  0  0  0  0  0  0  0  0
   50.1261   29.9201   40.6436 H   0  0  0  0  0  0  0  0  0  0  0  0
   49.9868   30.2136   42.4182 H   0  0  0  0  0  0  0  0  0  0  0  0
   48.0063   30.7125   40.5891 H   0  0  0  0  0  0  0  0  0  0  0  0
   48.1586   31.5183   42.1847 H   0  0  0  0  0  0  0  0  0  0  0  0
   47.8857   33.1729   40.4390 H   0  0  0  0  0  0  0  0  0  0  0  0
   46.6007   34.4842   41.2987 H   0  0  0  0  0  0  0  0  0  0  0  0
   48.8236   36.1913   40.8731 H   0  0  0  0  0  0  0  0  0  0  0  0
   48.7584   36.7673   42.3164 H   0  0  0  0  0  0  0  0  0  0  0  0
   49.2616   33.7997   43.0204 H   0  0  0  0  0  0  0  0  0  0  0  0
   45.4969   36.7234   42.3787 H   0  0  0  0  0  0  0  0  0  0  0  0
   47.1967   33.1493   44.1010 H   0  0  0  0  0  0  0  0  0  0  0  0
   43.9811   35.1806   46.0162 H   0  0  0  0  0  0  0  0  0  0  0  0
   50.1662   31.8441   38.9249 H   0  0  0  0  0  0  0  0  0  0  0  0
   49.2974   35.1320   37.5406 H   0  0  0  0  0  0  0  0  0  0  0  0
   47.0763   35.2014   36.2381 H   0  0  0  0  0  0  0  0  0  0  0  0
   45.6389   33.0847   36.6876 H   0  0  0  0  0  0  0  0  0  0  0  0
  1  2  1  0
  1  9  1  0
  3  4  1  0
  3  2  1  0
  5  4  1  0
  6  5  1  0
  6  1  1  0
  7  9  1  0
  7 11  1  0
  8  7  1  0
  8  9  1  0
 10 15  2  0
 11 10  1  0
 11 12  2  0
 12 13  1  0
 13 14  2  0
 15 14  1  0
 16  6  1  0
 17 16  1  0
 18 17  2  0
 19 20  1  0
 19 18  1  0
 20 21  2  0
 21 17  1  0
  2 22  1  0
  2 23  1  0
  3 24  1  0
  3 25  1  0
  4 26  1  0
  4 27  1  0
  5 28  1  0
  5 29  1  0
  6 30  1  6
  7 31  1  6
  8 32  1  0
  8 33  1  0
  9 34  1  1
 10 35  1  0
 12 36  1  0
 14 37  1  0
 16 38  1  0
 18 39  1  0
 19 40  1  0
 20 41  1  0
M  ISO  8  22  13  23  13  24  13  25  13  26  13  27  13  28  13  29  13
M  ISO  8  30  13  31  13  32  13  33  13  34  13  35  14  36  14  37  14
M  ISO  3  39  14  40   9  41  14
M  END
>  <minimizedAffinity>  (1) 
-5.64636517

>  <minimizedRMSD>  (1) 
2.87937975

$$$$
