
     RDKit          3D

 25 26  0  0  0  0  0  0  0  0999 V2000
   49.4690   35.5150   42.4870 O   0  0  0  0  0  0  0  0  0  0  0  0
   48.8470   34.3130   41.8390 P   0  0  1  0  0  0  0  0  0  0  0  0
   50.0910   33.2770   41.3940 O   0  0  0  0  0  0  0  0  0  0  0  0
   47.7850   33.5520   42.9410 O   0  0  0  0  0  0  0  0  0  0  0  0
   46.2020   35.3230   42.8290 C   0  0  0  0  0  0  0  0  0  0  0  0
   46.7220   34.2370   43.5150 C   0  0  0  0  0  0  0  0  0  0  0  0
   46.1610   33.8740   44.7500 C   0  0  0  0  0  0  0  0  0  0  0  0
   45.1130   34.6370   45.2000 N   0  0  0  0  0  0  0  0  0  0  0  0
   44.6340   35.6790   44.5150 C   0  0  0  0  0  0  0  0  0  0  0  0
   45.1750   36.0130   43.3450 N   0  0  0  0  0  0  0  0  0  0  0  0
   48.0150   34.7850   40.4720 O   0  0  0  0  0  0  0  0  0  0  0  0
   47.4710   33.9890   39.5300 C   0  0  0  0  0  0  0  0  0  0  0  0
   46.4770   33.3010   40.0040 O   0  0  0  0  0  0  0  0  0  0  0  0
   47.6550   33.6540   38.0890 C   0  0  0  0  0  0  0  0  0  0  0  0
   48.3930   34.3570   37.1800 C   0  0  0  0  0  0  0  0  0  0  0  0
   48.2350   33.6350   36.0320 N   0  0  0  0  0  0  0  0  0  0  0  0
   47.4610   32.5530   36.1700 C   0  0  0  0  0  0  0  0  0  0  0  0
   47.1060   32.5750   37.4590 N   0  0  0  0  0  0  0  0  0  0  0  0
   50.5256   32.9151   42.2065 H   0  0  0  0  0  0  0  0  0  0  0  0
   46.6321   35.6189   41.8608 H   0  0  0  0  0  0  0  0  0  0  0  0
   46.5429   33.0198   45.3284 H   0  0  0  0  0  0  0  0  0  0  0  0
   43.7922   36.2614   44.9177 H   0  0  0  0  0  0  0  0  0  0  0  0
   48.9727   35.2790   37.3348 H   0  0  0  0  0  0  0  0  0  0  0  0
   48.6733   33.9002   35.1384 H   0  0  0  0  0  0  0  0  0  0  0  0
   47.1816   31.8166   35.4021 H   0  0  0  0  0  0  0  0  0  0  0  0
  2  1  2  0
  2  4  1  0
  3  2  1  0
  4  6  1  0
  5 10  2  0
  5  6  1  0
  6  7  2  0
  7  8  1  0
  9  8  2  0
 10  9  1  0
 11  2  1  0
 12 13  2  0
 12 11  1  0
 14 12  1  0
 15 14  2  0
 16 17  1  0
 16 15  1  0
 17 18  2  0
 18 14  1  0
  3 19  1  0
  5 20  1  0
  7 21  1  0
  9 22  1  0
 15 23  1  0
 16 24  1  0
 17 25  1  0
M  ISO  7  19   3  20  14  21  14  22  14  23  14  24   9  25  14
M  END
>  <minimizedAffinity>  (1) 
-4.71211576

>  <minimizedRMSD>  (1) 
0.780808806

$$$$
