
     RDKit          3D

 33 36  0  0  0  0  0  0  0  0999 V2000
   46.8000   34.9950   42.6980 C   0  0  0  0  0  0  0  0  0  0  0  0
   45.8790   36.0440   42.6680 C   0  0  0  0  0  0  0  0  0  0  0  0
   44.9020   36.0690   43.6440 C   0  0  0  0  0  0  0  0  0  0  0  0
   44.8810   35.0840   44.5760 N   0  0  0  0  0  0  0  0  0  0  0  0
   45.7940   34.0760   44.5770 C   0  0  0  0  0  0  0  0  0  0  0  0
   46.7500   34.0340   43.6380 N   0  0  0  0  0  0  0  0  0  0  0  0
   46.0300   31.7280   45.1830 C   0  0  0  0  0  0  0  0  0  0  0  0
   45.7640   33.0190   45.5850 C   0  0  0  0  0  0  0  0  0  0  0  0
   45.4820   33.2580   46.9050 C   0  0  0  0  0  0  0  0  0  0  0  0
   45.4670   32.2250   47.8100 C   0  0  0  0  0  0  0  0  0  0  0  0
   45.2310   32.1610   49.1390 N   0  0  0  0  0  0  0  0  0  0  0  0
   45.3400   30.8860   49.5730 C   0  0  0  0  0  0  0  0  0  0  0  0
   45.6620   30.0820   48.4900 C   0  0  0  0  0  0  0  0  0  0  0  0
   45.7400   30.9150   47.3990 C   0  0  0  0  0  0  0  0  0  0  0  0
   46.0220   30.6770   46.0750 C   0  0  0  0  0  0  0  0  0  0  0  0
   47.8100   35.0060   41.6560 C   0  0  0  0  0  0  0  0  0  0  0  0
   48.9800   35.5110   41.7980 O   0  0  0  0  0  0  0  0  0  0  0  0
   47.4960   34.4050   40.3460 C   0  0  0  0  0  0  0  0  0  0  0  0
   46.3240   33.6940   40.0780 C   0  0  0  0  0  0  0  0  0  0  0  0
   46.4680   33.3430   38.7890 N   0  0  0  0  0  0  0  0  0  0  0  0
   47.6260   33.7840   38.2660 C   0  0  0  0  0  0  0  0  0  0  0  0
   48.2550   34.4450   39.2510 N   0  0  0  0  0  0  0  0  0  0  0  0
   45.9298   36.8237   41.8937 H   0  0  0  0  0  0  0  0  0  0  0  0
   44.1533   36.8746   43.6650 H   0  0  0  0  0  0  0  0  0  0  0  0
   46.2542   31.5313   44.1242 H   0  0  0  0  0  0  0  0  0  0  0  0
   45.2665   34.2829   47.2413 H   0  0  0  0  0  0  0  0  0  0  0  0
   45.0010   32.9684   49.7357 H   0  0  0  0  0  0  0  0  0  0  0  0
   45.1976   30.5441   50.6088 H   0  0  0  0  0  0  0  0  0  0  0  0
   45.8230   28.9939   48.5015 H   0  0  0  0  0  0  0  0  0  0  0  0
   46.2397   29.6555   45.7297 H   0  0  0  0  0  0  0  0  0  0  0  0
   45.4868   33.4747   40.7570 H   0  0  0  0  0  0  0  0  0  0  0  0
   45.7709   32.7982   38.2615 H   0  0  0  0  0  0  0  0  0  0  0  0
   47.9857   33.6333   37.2374 H   0  0  0  0  0  0  0  0  0  0  0  0
  1  6  1  0
  2  1  2  0
  2  3  1  0
  3  4  2  0
  4  5  1  0
  5  8  1  0
  6  5  2  0
  7  8  2  0
  7 15  1  0
  8  9  1  0
  9 10  2  0
 10 11  1  0
 11 12  1  0
 13 12  2  0
 14 10  1  0
 14 13  1  0
 15 14  2  0
 16 17  2  0
 16  1  1  0
 18 16  1  0
 19 18  2  0
 20 19  1  0
 21 20  1  0
 21 22  2  0
 22 18  1  0
  2 23  1  0
  3 24  1  0
  7 25  1  0
  9 26  1  0
 11 27  1  0
 12 28  1  0
 13 29  1  0
 15 30  1  0
 19 31  1  0
 20 32  1  0
 21 33  1  0
M  ISO  8  23  14  24  14  25  14  26  14  27   9  28  14  29  14  30  14
M  ISO  3  31  14  32   9  33  14
M  END
>  <minimizedAffinity>  (1) 
-6.06699133

>  <minimizedRMSD>  (1) 
0.719878316

$$$$
