
     RDKit          3D

 44 48  0  0  0  0  0  0  0  0999 V2000
   47.5355   32.6709   44.2688 C   0  0  0  0  0  0  0  0  0  0  0  0
   46.8367   33.6503   43.5518 C   0  0  0  0  0  0  0  0  0  0  0  0
   45.7832   34.3702   44.0943 C   0  0  0  0  0  0  0  0  0  0  0  0
   45.3902   34.1161   45.4180 C   0  0  0  0  0  0  0  0  0  0  0  0
   44.4494   34.5965   46.2511 N   0  0  0  0  0  0  0  0  0  0  0  0
   44.5244   33.9744   47.4374 C   0  0  0  0  0  0  0  0  0  0  0  0
   45.5373   33.0935   47.3210 N   0  0  0  0  0  0  0  0  0  0  0  0
   46.0900   33.1524   46.0995 C   0  0  0  0  0  0  0  0  0  0  0  0
   47.1518   32.4111   45.5866 C   0  0  0  0  0  0  0  0  0  0  0  0
   47.0697   33.4329   39.9048 C   0  0  0  0  0  0  0  0  0  0  0  0
   47.9782   34.4395   39.5866 C   0  0  0  0  0  0  0  0  0  0  0  0
   48.5019   35.1842   40.6363 C   0  0  0  0  0  0  0  0  0  0  0  0
   48.1108   34.9050   41.9280 N   0  0  0  0  0  0  0  0  0  0  0  0
   47.2333   33.9249   42.1770 C   0  0  0  0  0  0  0  0  0  0  0  0
   46.6851   33.1599   41.1883 N   0  0  0  0  0  0  0  0  0  0  0  0
   44.9089   35.6064   43.1736 S   0  0  0  0  0  0  0  0  0  0  0  0
   42.3258   35.5996   42.6952 N   0  0  0  0  0  0  0  0  0  0  0  0
   43.5215   34.9444   42.2157 C   0  0  1  0  0  0  0  0  0  0  0  0
   43.8030   35.3178   40.7629 C   0  0  0  0  0  0  0  0  0  0  0  0
   42.6767   35.2931   39.9619 O   0  0  0  0  0  0  0  0  0  0  0  0
   41.5491   34.7648   40.5284 C   0  0  0  0  0  0  0  0  0  0  0  0
   41.2218   35.5242   41.7798 C   0  0  2  0  0  0  0  0  0  0  0  0
   48.3388   32.1377   43.8216 H   0  0  0  0  0  0  0  0  0  0  0  0
   43.7874   35.3542   45.9366 H   0  0  0  0  0  0  0  0  0  0  0  0
   43.8746   34.1814   48.2803 H   0  0  0  0  0  0  0  0  0  0  0  0
   47.6627   31.6660   46.1732 H   0  0  0  0  0  0  0  0  0  0  0  0
   46.5967   32.7871   39.1581 H   0  0  0  0  0  0  0  0  0  0  0  0
   48.2097   34.5686   38.5507 H   0  0  0  0  0  0  0  0  0  0  0  0
   49.1967   35.9553   40.4020 H   0  0  0  0  0  0  0  0  0  0  0  0
   42.5025   36.5592   43.0674 H   0  0  0  0  0  0  0  0  0  0  0  0
   43.4956   33.8486   42.3708 H   0  0  0  0  0  0  0  0  0  0  0  0
   44.5025   34.6483   40.2878 H   0  0  0  0  0  0  0  0  0  0  0  0
   44.1927   36.3544   40.7679 H   0  0  0  0  0  0  0  0  0  0  0  0
   40.7197   34.9145   39.8297 H   0  0  0  0  0  0  0  0  0  0  0  0
   41.7139   33.7101   40.8102 H   0  0  0  0  0  0  0  0  0  0  0  0
   40.3494   35.0113   42.2719 H   0  0  0  0  0  0  0  0  0  0  0  0
   40.8219   36.9170   41.4416 C   0  0  0  0  0  0  0  0  0  0  0  0
   39.7780   37.2611   40.5740 C   0  0  0  0  0  0  0  0  0  0  0  0
   39.1107   36.6463   40.0233 H   0  0  0  0  0  0  0  0  0  0  0  0
   39.8140   38.6053   40.5975 N   0  0  0  0  0  0  0  0  0  0  0  0
   39.1330   39.1852   40.0300 H   0  0  0  0  0  0  0  0  0  0  0  0
   40.7724   39.1201   41.3903 C   0  0  0  0  0  0  0  0  0  0  0  0
   40.9297   40.1807   41.5159 H   0  0  0  0  0  0  0  0  0  0  0  0
   41.4141   38.0418   41.9277 N   0  0  0  0  0  0  0  0  0  0  0  0
  1  9  2  0
  2  3  2  0
  2  1  1  0
  3  4  1  0
  4  8  2  0
  4  5  1  0
  5  6  1  0
  7  6  2  0
  8  7  1  0
  9  8  1  0
 10 15  2  0
 11 10  1  0
 11 12  2  0
 12 13  1  0
 13 14  2  0
 14  2  1  0
 15 14  1  0
 16  3  1  0
 18 17  1  0
 18 16  1  0
 19 18  1  0
 20 21  1  0
 20 19  1  0
 21 22  1  0
 22 17  1  0
  1 23  1  0
  5 24  1  0
  6 25  1  0
  9 26  1  0
 10 27  1  0
 11 28  1  0
 12 29  1  0
 17 30  1  0
 18 31  1  6
 19 32  1  0
 19 33  1  0
 21 34  1  0
 21 35  1  0
 22 36  1  1
 37 38  2  0
 38 39  1  0
 38 40  1  0
 40 41  1  0
 40 42  1  0
 42 43  1  0
 42 44  2  0
 44 37  1  0
 22 37  1  0
M  ISO  8  23  14  24   9  25  14  26  14  27  14  28  14  29  14  30   5
M  ISO  8  31  13  32  13  33  13  34  13  35  13  36  13  39  15  41   5
M  ISO  1  43  14
M  END
>  <DihAtoms>  (1) 
20,21,36,37

>  <DihDeg>  (1) 
11.489711601289786

$$$$
