
     RDKit          3D

 34 37  0  0  1  0  0  0  0  0999 V2000
   47.4320   33.6930   39.6880 C   0  0  0  0  0  0  0  0  0  0  0  0
   48.3000   34.2830   38.7700 C   0  0  0  0  0  0  0  0  0  0  0  0
   47.7780   34.1370   37.4910 C   0  0  0  0  0  0  0  0  0  0  0  0
   46.6050   33.4560   37.6990 C   0  0  0  0  0  0  0  0  0  0  0  0
   46.4290   33.2140   38.9640 O   0  0  0  0  0  0  0  0  0  0  0  0
   45.6730   33.0600   36.6340 C   0  0  2  0  0  0  0  0  0  0  0  0
   44.7250   31.9490   36.8610 C   0  0  0  0  0  0  0  0  0  0  0  0
   45.9270   31.6510   36.0650 C   0  0  2  0  0  0  0  0  0  0  0  0
   47.0360   30.8460   36.5570 C   0  0  0  0  0  0  0  0  0  0  0  0
   48.3370   30.6750   36.1460 C   0  0  0  0  0  0  0  0  0  0  0  0
   49.0300   29.8100   36.9030 N   0  0  0  0  0  0  0  0  0  0  0  0
   48.1490   29.4080   37.8330 C   0  0  0  0  0  0  0  0  0  0  0  0
   46.9640   30.0150   37.6400 N   0  0  0  0  0  0  0  0  0  0  0  0
   47.4960   33.5720   41.0790 O   0  0  0  0  0  0  0  0  0  0  0  0
   47.5230   34.7340   41.8840 C   0  0  0  0  0  0  0  0  0  0  0  0
   48.3370   35.6160   41.5430 O   0  0  0  0  0  0  0  0  0  0  0  0
   46.6150   34.7480   42.9850 C   0  0  0  0  0  0  0  0  0  0  0  0
   45.6590   35.7250   42.9170 C   0  0  0  0  0  0  0  0  0  0  0  0
   44.7320   35.8050   43.9550 C   0  0  0  0  0  0  0  0  0  0  0  0
   44.8230   34.9100   44.9780 N   0  0  0  0  0  0  0  0  0  0  0  0
   45.7730   33.9760   44.9970 C   0  0  0  0  0  0  0  0  0  0  0  0
   46.6550   33.9070   44.0020 N   0  0  0  0  0  0  0  0  0  0  0  0
   49.2471   34.7841   39.0189 H   0  0  0  0  0  0  0  0  0  0  0  0
   48.2037   34.4846   36.5381 H   0  0  0  0  0  0  0  0  0  0  0  0
   45.5570   34.0878   36.2595 H   0  0  0  0  0  0  0  0  0  0  0  0
   44.6233   31.5212   37.8693 H   0  0  0  0  0  0  0  0  0  0  0  0
   43.6465   31.8223   36.6854 H   0  0  0  0  0  0  0  0  0  0  0  0
   46.1012   31.2036   35.0753 H   0  0  0  0  0  0  0  0  0  0  0  0
   48.7686   31.1973   35.2795 H   0  0  0  0  0  0  0  0  0  0  0  0
   50.0127   29.5208   36.7952 H   0  0  0  0  0  0  0  0  0  0  0  0
   48.3647   28.6874   38.6357 H   0  0  0  0  0  0  0  0  0  0  0  0
   45.6232   36.4254   42.0695 H   0  0  0  0  0  0  0  0  0  0  0  0
   43.9449   36.5734   43.9482 H   0  0  0  0  0  0  0  0  0  0  0  0
   45.8285   33.2633   45.8331 H   0  0  0  0  0  0  0  0  0  0  0  0
  1 14  1  0
  2  1  2  0
  3  4  2  0
  3  2  1  0
  4  5  1  0
  5  1  1  0
  6  7  1  0
  6  4  1  0
  8  9  1  0
  8  6  1  0
  8  7  1  0
  9 13  1  0
 10  9  2  0
 10 11  1  0
 11 12  1  0
 13 12  2  0
 14 15  1  0
 15 17  1  0
 16 15  2  0
 17 22  1  0
 18 17  2  0
 18 19  1  0
 19 20  2  0
 20 21  1  0
 22 21  2  0
  2 23  1  0
  3 24  1  0
  6 25  1  6
  7 26  1  0
  7 27  1  0
  8 28  1  6
 10 29  1  0
 11 30  1  0
 12 31  1  0
 18 32  1  0
 19 33  1  0
 21 34  1  0
M  ISO  8  23  14  24  14  25  13  26  13  27  13  28  13  29  14  30   9
M  ISO  4  31  14  32  14  33  14  34  14
M  END
>  <minimizedAffinity>  (1) 
-4.3612504

>  <minimizedRMSD>  (1) 
0.379795074

$$$$
