
     RDKit          3D

 26 28  0  0  0  0  0  0  0  0999 V2000
   44.6286   35.4701   45.1171 C   0  0  0  0  0  0  0  0  0  0  0  0
   45.1005   35.7161   43.8019 C   0  0  0  0  0  0  0  0  0  0  0  0
   46.0434   34.8219   43.3652 C   0  0  0  0  0  0  0  0  0  0  0  0
   46.4930   33.7739   44.1454 N   0  0  0  0  0  0  0  0  0  0  0  0
   46.0104   33.5908   45.3822 C   0  0  0  0  0  0  0  0  0  0  0  0
   45.0758   34.4344   45.8790 N   0  0  0  0  0  0  0  0  0  0  0  0
   46.5397   34.9757   41.9382 C   0  0  1  0  0  0  0  0  0  0  0  0
   48.0616   35.2750   41.9360 C   0  0  0  0  0  0  0  0  0  0  0  0
   47.3870   33.9771   41.3966 C   0  0  2  0  0  0  0  0  0  0  0  0
   44.6430   36.8060   43.0264 N   0  0  0  0  0  0  0  0  0  0  0  0
   43.8915   36.1200   45.5346 H   0  0  0  0  0  0  0  0  0  0  0  0
   46.3366   32.7836   46.0213 H   0  0  0  0  0  0  0  0  0  0  0  0
   45.9470   35.7027   41.3598 H   0  0  0  0  0  0  0  0  0  0  0  0
   48.3448   36.0174   41.1952 H   0  0  0  0  0  0  0  0  0  0  0  0
   48.6277   35.1895   42.8596 H   0  0  0  0  0  0  0  0  0  0  0  0
   47.6684   33.0756   41.9781 H   0  0  0  0  0  0  0  0  0  0  0  0
   44.2089   36.8553   42.0918 H   0  0  0  0  0  0  0  0  0  0  0  0
   44.8288   37.6571   43.6022 H   0  0  0  0  0  0  0  0  0  0  0  0
   47.4173   33.8324   39.8973 C   0  0  0  0  0  0  0  0  0  0  0  0
   47.9994   32.8485   39.1169 C   0  0  0  0  0  0  0  0  0  0  0  0
   48.5416   32.0042   39.5139 H   0  0  0  0  0  0  0  0  0  0  0  0
   47.7460   33.1724   37.8261 N   0  0  0  0  0  0  0  0  0  0  0  0
   48.0548   32.6238   36.9978 H   0  0  0  0  0  0  0  0  0  0  0  0
   47.0223   34.3295   37.7668 C   0  0  0  0  0  0  0  0  0  0  0  0
   46.6626   34.8500   36.8865 H   0  0  0  0  0  0  0  0  0  0  0  0
   46.8402   34.7039   39.0504 N   0  0  0  0  0  0  0  0  0  0  0  0
  1  6  2  0
  2  1  1  0
  3  2  2  0
  3  4  1  0
  4  5  2  0
  5  6  1  0
  7  3  1  0
  8  7  1  0
  9  8  1  0
  9  7  1  0
 10  2  1  0
  1 11  1  0
  5 12  1  0
  7 13  1  6
  8 14  1  0
  8 15  1  0
  9 16  1  1
 10 17  1  0
 10 18  1  0
 19 20  2  0
 20 21  1  0
 20 22  1  0
 22 23  1  0
 22 24  1  0
 24 25  1  0
 24 26  2  0
 26 19  1  0
  9 19  1  0
M  ISO  8  11  14  12  14  13  13  14  13  15  13  16  13  21  15  23   5
M  ISO  1  25  14
M  END
>  <DihAtoms>  (1) 
7,8,18,19

>  <DihDeg>  (1) 
134.01715014697592

$$$$
