
     RDKit          3D

 29 31  0  0  0  0  0  0  0  0999 V2000
   44.7850   30.7810   48.1700 Cl  0  0  0  0  0  0  0  0  0  0  0  0
   45.9700   30.6440   46.8670 C   0  0  0  0  0  0  0  0  0  0  0  0
   46.3380   31.7540   46.1760 C   0  0  0  0  0  0  0  0  0  0  0  0
   47.2900   31.6070   45.2010 C   0  0  0  0  0  0  0  0  0  0  0  0
   47.8480   30.3810   44.9340 C   0  0  0  0  0  0  0  0  0  0  0  0
   47.4610   29.2420   45.6510 C   0  0  0  0  0  0  0  0  0  0  0  0
   46.5060   29.4130   46.6240 C   0  0  0  0  0  0  0  0  0  0  0  0
   46.1720   28.1690   47.3100 C   0  0  0  0  0  0  0  0  0  0  0  0
   45.0350   27.6990   47.9210 C   0  0  0  0  0  0  0  0  0  0  0  0
   45.1640   26.4700   48.4360 N   0  0  0  0  0  0  0  0  0  0  0  0
   46.4110   26.1220   48.1590 C   0  0  0  0  0  0  0  0  0  0  0  0
   46.9990   27.1270   47.4960 N   0  0  0  0  0  0  0  0  0  0  0  0
   45.7000   33.0260   46.4650 C   0  0  0  0  0  0  0  0  0  0  0  0
   45.3250   33.2180   47.6560 O   0  0  0  0  0  0  0  0  0  0  0  0
   44.4850   35.9890   44.7750 C   0  0  0  0  0  0  0  0  0  0  0  0
   45.0800   35.9900   43.5200 C   0  0  0  0  0  0  0  0  0  0  0  0
   45.9230   34.9120   43.2850 C   0  0  0  0  0  0  0  0  0  0  0  0
   46.1080   33.9620   44.2550 N   0  0  0  0  0  0  0  0  0  0  0  0
   45.5030   34.0250   45.4440 C   0  0  0  0  0  0  0  0  0  0  0  0
   44.6870   35.0560   45.6870 N   0  0  0  0  0  0  0  0  0  0  0  0
   47.6124   32.4855   44.6229 H   0  0  0  0  0  0  0  0  0  0  0  0
   48.6099   30.2923   44.1456 H   0  0  0  0  0  0  0  0  0  0  0  0
   47.9015   28.2554   45.4446 H   0  0  0  0  0  0  0  0  0  0  0  0
   44.1029   28.2799   47.9816 H   0  0  0  0  0  0  0  0  0  0  0  0
   44.4522   25.9184   48.9360 H   0  0  0  0  0  0  0  0  0  0  0  0
   46.8854   25.1668   48.4283 H   0  0  0  0  0  0  0  0  0  0  0  0
   43.8039   36.8160   45.0243 H   0  0  0  0  0  0  0  0  0  0  0  0
   44.8986   36.7786   42.7748 H   0  0  0  0  0  0  0  0  0  0  0  0
   46.4425   34.8206   42.3197 H   0  0  0  0  0  0  0  0  0  0  0  0
  2  1  1  0
  3 13  1  0
  3  2  2  0
  4  3  1  0
  5  4  2  0
  5  6  1  0
  6  7  2  0
  7  2  1  0
  7  8  1  0
  8 12  1  0
  8  9  2  0
  9 10  1  0
 11 10  1  0
 12 11  2  0
 13 14  2  0
 15 20  2  0
 16 15  1  0
 17 16  2  0
 17 18  1  0
 18 19  2  0
 19 20  1  0
 19 13  1  0
  4 21  1  0
  5 22  1  0
  6 23  1  0
  9 24  1  0
 10 25  1  0
 11 26  1  0
 15 27  1  0
 16 28  1  0
 17 29  1  0
M  ISO  8  21  14  22  14  23  14  24  14  25   9  26  14  27  14  28  14
M  ISO  1  29  14
M  END
>  <minimizedAffinity>  (1) 
-4.97910833

>  <minimizedRMSD>  (1) 
0.796289623

$$$$
