
     RDKit          3D

 31 33  0  0  0  0  0  0  0  0999 V2000
   45.2800   34.5900   43.0690 C   0  0  0  0  0  0  0  0  0  0  0  0
   44.1870   34.9330   42.3200 C   0  0  0  0  0  0  0  0  0  0  0  0
   44.0640   36.2580   42.5240 N   0  0  0  0  0  0  0  0  0  0  0  0
   45.0050   36.7480   43.3470 C   0  0  0  0  0  0  0  0  0  0  0  0
   45.7510   35.6860   43.6720 N   0  0  0  0  0  0  0  0  0  0  0  0
   45.1800   38.1260   43.7890 C   0  0  0  0  0  0  0  0  0  0  0  0
   45.4140   39.1950   42.9500 C   0  0  0  0  0  0  0  0  0  0  0  0
   45.5050   40.2430   43.7870 N   0  0  0  0  0  0  0  0  0  0  0  0
   45.3380   39.8790   45.0920 C   0  0  0  0  0  0  0  0  0  0  0  0
   45.1370   38.5500   45.0640 N   0  0  0  0  0  0  0  0  0  0  0  0
   45.8650   33.1980   43.1960 C   0  0  0  0  0  0  0  0  0  0  0  0
   46.8320   32.7040   45.4030 C   0  0  0  0  0  0  0  0  0  0  0  0
   45.7770   32.7470   44.6020 C   0  0  0  0  0  0  0  0  0  0  0  0
   46.5960   32.2360   46.7740 C   0  0  0  0  0  0  0  0  0  0  0  0
   47.5860   31.4750   47.4540 C   0  0  0  0  0  0  0  0  0  0  0  0
   47.3190   31.0610   48.7400 C   0  0  0  0  0  0  0  0  0  0  0  0
   46.1370   31.3910   49.2980 N   0  0  0  0  0  0  0  0  0  0  0  0
   45.2100   32.1160   48.6340 C   0  0  0  0  0  0  0  0  0  0  0  0
   45.4500   32.5230   47.3980 N   0  0  0  0  0  0  0  0  0  0  0  0
   43.5574   34.2799   41.6979 H   0  0  0  0  0  0  0  0  0  0  0  0
   43.3265   36.8346   42.0944 H   0  0  0  0  0  0  0  0  0  0  0  0
   45.5048   39.1911   41.8538 H   0  0  0  0  0  0  0  0  0  0  0  0
   45.6806   41.2100   43.4789 H   0  0  0  0  0  0  0  0  0  0  0  0
   45.3626   40.5326   45.9764 H   0  0  0  0  0  0  0  0  0  0  0  0
   45.3022   32.5048   42.5537 H   0  0  0  0  0  0  0  0  0  0  0  0
   46.9198   33.2161   42.8844 H   0  0  0  0  0  0  0  0  0  0  0  0
   47.8327   33.0035   45.0582 H   0  0  0  0  0  0  0  0  0  0  0  0
   44.7990   32.4356   44.9977 H   0  0  0  0  0  0  0  0  0  0  0  0
   48.5393   31.2238   46.9661 H   0  0  0  0  0  0  0  0  0  0  0  0
   48.0577   30.4710   49.3024 H   0  0  0  0  0  0  0  0  0  0  0  0
   44.2562   32.3678   49.1208 H   0  0  0  0  0  0  0  0  0  0  0  0
  1 11  1  0
  1  5  1  0
  2  3  1  0
  2  1  2  0
  3  4  1  0
  4  5  2  0
  4  6  1  0
  6 10  1  0
  7  8  1  0
  7  6  2  0
  8  9  1  0
 10  9  2  0
 11 13  1  0
 12 14  1  0
 13 12  2  0
 14 19  1  0
 14 15  2  0
 15 16  1  0
 16 17  2  0
 18 17  1  0
 19 18  2  0
  2 20  1  0
  3 21  1  0
  7 22  1  0
  8 23  1  0
  9 24  1  0
 11 25  1  0
 11 26  1  0
 12 27  1  0
 13 28  1  0
 15 29  1  0
 16 30  1  0
 18 31  1  0
M  ISO  8  20  14  21   9  22  14  23   9  24  14  25   8  26   8  29  14
M  ISO  2  30  14  31  14
M  END
>  <minimizedAffinity>  (1) 
-3.74076915

>  <minimizedRMSD>  (1) 
1.96170604

$$$$
