
     RDKit          3D

 33 35  0  0  0  0  0  0  0  0999 V2000
   45.9360   34.1170   41.0450 C   0  0  0  0  0  0  0  0  0  0  0  0
   46.8400   33.9140   40.0070 C   0  0  0  0  0  0  0  0  0  0  0  0
   48.1350   34.4040   39.9520 C   0  0  0  0  0  0  0  0  0  0  0  0
   48.5240   35.1560   41.0440 C   0  0  0  0  0  0  0  0  0  0  0  0
   47.6510   35.3690   42.0790 C   0  0  0  0  0  0  0  0  0  0  0  0
   46.3570   34.8730   42.1240 C   0  0  0  0  0  0  0  0  0  0  0  0
   45.6200   35.2330   43.3190 C   0  0  0  0  0  0  0  0  0  0  0  0
   44.8220   36.2780   43.6930 C   0  0  0  0  0  0  0  0  0  0  0  0
   44.3190   36.1840   44.9050 N   0  0  0  0  0  0  0  0  0  0  0  0
   44.7970   35.0230   45.3690 C   0  0  0  0  0  0  0  0  0  0  0  0
   45.5620   34.4780   44.4180 N   0  0  0  0  0  0  0  0  0  0  0  0
   44.5760   33.5920   41.0430 C   0  0  0  0  0  0  0  0  0  0  0  0
   43.8620   33.8780   39.7060 C   0  0  0  0  0  0  0  0  0  0  0  0
   41.0720   35.6220   41.5730 C   0  0  0  0  0  0  0  0  0  0  0  0
   42.3010   34.9500   41.3390 C   0  0  0  0  0  0  0  0  0  0  0  0
   42.5910   34.5850   40.0320 C   0  0  0  0  0  0  0  0  0  0  0  0
   41.6610   34.9060   39.0680 N   0  0  0  0  0  0  0  0  0  0  0  0
   40.5230   35.5340   39.3200 C   0  0  0  0  0  0  0  0  0  0  0  0
   40.2170   35.8980   40.5700 N   0  0  0  0  0  0  0  0  0  0  0  0
   46.4960   33.3107   39.1539 H   0  0  0  0  0  0  0  0  0  0  0  0
   48.8044   34.2086   39.1013 H   0  0  0  0  0  0  0  0  0  0  0  0
   49.5363   35.5846   41.0828 H   0  0  0  0  0  0  0  0  0  0  0  0
   47.9998   35.9730   42.9296 H   0  0  0  0  0  0  0  0  0  0  0  0
   44.6162   37.1322   43.0312 H   0  0  0  0  0  0  0  0  0  0  0  0
   43.6993   36.8510   45.3866 H   0  0  0  0  0  0  0  0  0  0  0  0
   44.5953   34.5922   46.3608 H   0  0  0  0  0  0  0  0  0  0  0  0
   44.6124   32.5044   41.2033 H   0  0  0  0  0  0  0  0  0  0  0  0
   44.0134   34.0877   41.8478 H   0  0  0  0  0  0  0  0  0  0  0  0
   43.6459   32.9342   39.1839 H   0  0  0  0  0  0  0  0  0  0  0  0
   44.4942   34.4916   39.0473 H   0  0  0  0  0  0  0  0  0  0  0  0
   40.8123   35.9243   42.5982 H   0  0  0  0  0  0  0  0  0  0  0  0
   42.9961   34.7274   42.1619 H   0  0  0  0  0  0  0  0  0  0  0  0
   39.8267   35.7572   38.4982 H   0  0  0  0  0  0  0  0  0  0  0  0
  1  6  1  0
  2  1  2  0
  3  2  1  0
  3  4  2  0
  4  5  1  0
  5  6  2  0
  6  7  1  0
  7  8  2  0
  7 11  1  0
  8  9  1  0
  9 10  1  0
 11 10  2  0
 12  1  1  0
 13 16  1  0
 13 12  1  0
 15 14  2  0
 16 15  1  0
 17 18  1  0
 17 16  2  0
 18 19  2  0
 19 14  1  0
  2 20  1  0
  3 21  1  0
  4 22  1  0
  5 23  1  0
  8 24  1  0
  9 25  1  0
 10 26  1  0
 12 27  1  0
 12 28  1  0
 13 29  1  0
 13 30  1  0
 14 31  1  0
 15 32  1  0
 18 33  1  0
M  ISO  8  20  14  21  14  22  14  23  14  24  14  25   9  26  14  27   8
M  ISO  6  28   8  29   8  30   8  31  14  32  14  33  14
M  END
>  <minimizedAffinity>  (1) 
-5.86822987

>  <minimizedRMSD>  (1) 
1.60584033

$$$$
