
     RDKit          3D

 38 40  0  0  0  0  0  0  0  0999 V2000
   46.3370   34.9404   41.8053 C   0  0  0  0  0  0  0  0  0  0  0  0
   44.4519   35.9644   44.8871 C   0  0  0  0  0  0  0  0  0  0  0  0
   44.9777   35.9601   43.5831 C   0  0  0  0  0  0  0  0  0  0  0  0
   45.7974   34.9321   43.1841 C   0  0  0  0  0  0  0  0  0  0  0  0
   46.0623   33.9626   44.0765 N   0  0  0  0  0  0  0  0  0  0  0  0
   45.5525   33.9755   45.3277 C   0  0  0  0  0  0  0  0  0  0  0  0
   44.7467   34.9714   45.7420 N   0  0  0  0  0  0  0  0  0  0  0  0
   47.8288   34.9153   41.8526 C   0  0  0  0  0  0  0  0  0  0  0  0
   48.3528   34.1848   40.7429 N   0  0  0  0  0  0  0  0  0  0  0  0
   49.2423   33.1328   41.1045 C   0  0  0  0  0  0  0  0  0  0  0  0
   49.1525   31.8544   40.3396 C   0  0  0  0  0  0  0  0  0  0  0  0
   48.6723   31.9955   38.9156 C   0  0  0  0  0  0  0  0  0  0  0  0
   48.4820   33.4306   38.5244 C   0  0  0  0  0  0  0  0  0  0  0  0
   47.5429   34.0070   39.6105 C   0  0  2  0  0  0  0  0  0  0  0  0
   45.8514   34.0971   41.3058 H   0  0  0  0  0  0  0  0  0  0  0  0
   46.0483   35.9021   41.3316 H   0  0  0  0  0  0  0  0  0  0  0  0
   43.8018   36.7853   45.1940 H   0  0  0  0  0  0  0  0  0  0  0  0
   44.7305   36.7723   42.8996 H   0  0  0  0  0  0  0  0  0  0  0  0
   45.7972   33.1671   46.0124 H   0  0  0  0  0  0  0  0  0  0  0  0
   48.2397   35.9494   41.8686 H   0  0  0  0  0  0  0  0  0  0  0  0
   48.1861   34.4303   42.8071 H   0  0  0  0  0  0  0  0  0  0  0  0
   49.1781   32.8913   42.1901 H   0  0  0  0  0  0  0  0  0  0  0  0
   50.2860   33.5318   40.9578 H   0  0  0  0  0  0  0  0  0  0  0  0
   50.1491   31.3423   40.3927 H   0  0  0  0  0  0  0  0  0  0  0  0
   48.4455   31.1768   40.8625 H   0  0  0  0  0  0  0  0  0  0  0  0
   47.7068   31.4707   38.7383 H   0  0  0  0  0  0  0  0  0  0  0  0
   49.4452   31.5423   38.2515 H   0  0  0  0  0  0  0  0  0  0  0  0
   49.4580   33.9625   38.5463 H   0  0  0  0  0  0  0  0  0  0  0  0
   47.9861   33.4628   37.5356 H   0  0  0  0  0  0  0  0  0  0  0  0
   46.7506   33.2339   39.6950 H   0  0  0  0  0  0  0  0  0  0  0  0
   47.0447   35.2681   39.0269 C   0  0  0  0  0  0  0  0  0  0  0  0
   47.1583   36.5987   39.4032 C   0  0  0  0  0  0  0  0  0  0  0  0
   47.6996   36.8808   40.2855 H   0  0  0  0  0  0  0  0  0  0  0  0
   46.4827   37.2877   38.4584 N   0  0  0  0  0  0  0  0  0  0  0  0
   46.3974   38.3265   38.4819 H   0  0  0  0  0  0  0  0  0  0  0  0
   45.9723   36.4396   37.5388 C   0  0  0  0  0  0  0  0  0  0  0  0
   45.3813   36.7009   36.6610 H   0  0  0  0  0  0  0  0  0  0  0  0
   46.3195   35.1689   37.8867 N   0  0  0  0  0  0  0  0  0  0  0  0
  1  8  1  0
  1  4  1  0
  2  7  2  0
  3  2  1  0
  4  3  2  0
  4  5  1  0
  5  6  2  0
  6  7  1  0
  9 10  1  0
  9  8  1  0
 11 10  1  0
 12 11  1  0
 13 12  1  0
 13 14  1  0
 14  9  1  0
  1 15  1  0
  1 16  1  0
  2 17  1  0
  3 18  1  0
  6 19  1  0
  8 20  1  0
  8 21  1  0
 10 22  1  0
 10 23  1  0
 11 24  1  0
 11 25  1  0
 12 26  1  0
 12 27  1  0
 13 28  1  0
 13 29  1  0
 14 30  1  1
 31 32  2  0
 32 33  1  0
 32 34  1  0
 34 35  1  0
 34 36  1  0
 36 37  1  0
 36 38  2  0
 38 31  1  0
 14 31  1  0
M  ISO  8  15   8  16   8  17  14  18  14  19  14  20   8  21   8  22  13
M  ISO  8  23  13  24  13  25  13  26  13  27  13  28  13  29  13  30  13
M  ISO  3  33  15  35   5  37  14
M  END
>  <DihAtoms>  (1) 
12,13,30,31

>  <DihDeg>  (1) 
107.17687990321892

$$$$
