
     RDKit          3D

 53 57  0  0  0  0  0  0  0  0999 V2000
   46.6970   32.6510   44.2600 C   0  0  0  0  0  0  0  0  0  0  0  0
   46.0740   34.6110   42.9500 C   0  0  0  0  0  0  0  0  0  0  0  0
   46.0010   33.9410   44.1690 C   0  0  0  0  0  0  0  0  0  0  0  0
   45.3230   34.3660   45.2470 C   0  0  0  0  0  0  0  0  0  0  0  0
   44.6370   35.5580   45.1620 C   0  0  0  0  0  0  0  0  0  0  0  0
   44.6350   36.2970   44.0190 C   0  0  0  0  0  0  0  0  0  0  0  0
   45.3510   35.8100   42.9390 C   0  0  0  0  0  0  0  0  0  0  0  0
   46.8950   34.1000   41.5390 S   0  0  0  0  0  0  0  0  0  0  0  0
   47.8080   35.2820   41.0460 O   0  0  0  0  0  0  0  0  0  0  0  0
   45.9360   33.9510   40.4030 O   0  0  0  0  0  0  0  0  0  0  0  0
   47.9630   31.5500   41.9750 C   0  0  0  0  0  0  0  0  0  0  0  0
   48.1340   32.9120   41.6420 C   0  0  0  0  0  0  0  0  0  0  0  0
   49.5020   33.1300   41.3920 C   0  0  0  0  0  0  0  0  0  0  0  0
   50.5080   32.1990   41.4550 C   0  0  0  0  0  0  0  0  0  0  0  0
   51.8250   32.3530   41.2280 N   0  0  0  0  0  0  0  0  0  0  0  0
   52.3800   31.1430   41.4200 C   0  0  0  0  0  0  0  0  0  0  0  0
   51.3830   30.2340   41.7710 C   0  0  0  0  0  0  0  0  0  0  0  0
   50.1910   30.9250   41.7900 C   0  0  0  0  0  0  0  0  0  0  0  0
   48.9010   30.5690   42.0590 C   0  0  0  0  0  0  0  0  0  0  0  0
   46.0770   31.6360   45.1670 C   0  0  0  0  0  0  0  0  0  0  0  0
   47.0340   32.4180   47.3110 C   0  0  0  0  0  0  0  0  0  0  0  0
   46.9660   31.4280   46.3060 C   0  0  0  0  0  0  0  0  0  0  0  0
   47.7220   30.2850   46.4710 C   0  0  0  0  0  0  0  0  0  0  0  0
   48.4830   30.1710   47.5840 N   0  0  0  0  0  0  0  0  0  0  0  0
   48.5240   31.1180   48.5180 C   0  0  0  0  0  0  0  0  0  0  0  0
   47.8040   32.2570   48.4010 N   0  0  0  0  0  0  0  0  0  0  0  0
   49.3880   30.9000   49.7270 C   0  0  0  0  0  0  0  0  0  0  0  0
   50.6650   31.5910   49.6570 C   0  0  0  0  0  0  0  0  0  0  0  0
   51.8360   31.0730   49.1360 C   0  0  0  0  0  0  0  0  0  0  0  0
   52.8260   32.0120   49.2440 C   0  0  0  0  0  0  0  0  0  0  0  0
   52.2180   33.0850   49.8350 N   0  0  0  0  0  0  0  0  0  0  0  0
   50.9340   32.8410   50.0840 N   0  0  0  0  0  0  0  0  0  0  0  0
   47.7187   32.8440   44.6189 H   0  0  0  0  0  0  0  0  0  0  0  0
   46.6501   32.2160   43.2508 H   0  0  0  0  0  0  0  0  0  0  0  0
   45.3153   33.7768   46.1758 H   0  0  0  0  0  0  0  0  0  0  0  0
   44.0784   35.9205   46.0376 H   0  0  0  0  0  0  0  0  0  0  0  0
   44.0842   37.2471   43.9557 H   0  0  0  0  0  0  0  0  0  0  0  0
   45.3520   36.4031   42.0126 H   0  0  0  0  0  0  0  0  0  0  0  0
   46.9308   31.2409   42.1965 H   0  0  0  0  0  0  0  0  0  0  0  0
   49.7953   34.1540   41.1174 H   0  0  0  0  0  0  0  0  0  0  0  0
   52.3101   33.2216   40.9612 H   0  0  0  0  0  0  0  0  0  0  0  0
   53.4497   30.9082   41.3166 H   0  0  0  0  0  0  0  0  0  0  0  0
   51.5219   29.1653   41.9915 H   0  0  0  0  0  0  0  0  0  0  0  0
   48.6329   29.5374   42.3309 H   0  0  0  0  0  0  0  0  0  0  0  0
   45.1010   32.0007   45.5198 H   0  0  0  0  0  0  0  0  0  0  0  0
   45.9283   30.6892   44.6272 H   0  0  0  0  0  0  0  0  0  0  0  0
   46.4446   33.3400   47.1994 H   0  0  0  0  0  0  0  0  0  0  0  0
   47.7062   29.4856   45.7155 H   0  0  0  0  0  0  0  0  0  0  0  0
   48.8449   31.2603   50.6131 H   0  0  0  0  0  0  0  0  0  0  0  0
   49.6045   29.8229   49.7811 H   0  0  0  0  0  0  0  0  0  0  0  0
   51.9533   30.0681   48.7042 H   0  0  0  0  0  0  0  0  0  0  0  0
   53.8755   31.9234   48.9266 H   0  0  0  0  0  0  0  0  0  0  0  0
   52.6941   33.9704   50.0591 H   0  0  0  0  0  0  0  0  0  0  0  0
  1 20  1  0
  2  3  1  0
  3  1  1  0
  3  4  2  0
  5  4  1  0
  6  5  2  0
  7  2  2  0
  7  6  1  0
  8 12  1  0
  8  2  1  0
  9  8  2  0
 10  8  2  0
 11 19  2  0
 12 11  1  0
 13 14  1  0
 13 12  2  0
 14 18  2  0
 15 16  1  0
 15 14  1  0
 16 17  2  0
 17 18  1  0
 18 19  1  0
 20 22  1  0
 21 26  2  0
 22 23  2  0
 22 21  1  0
 23 24  1  0
 24 25  2  0
 25 27  1  0
 26 25  1  0
 28 27  1  0
 28 32  2  0
 29 30  2  0
 29 28  1  0
 30 31  1  0
 31 32  1  0
  1 33  1  0
  1 34  1  0
  4 35  1  0
  5 36  1  0
  6 37  1  0
  7 38  1  0
 11 39  1  0
 13 40  1  0
 15 41  1  0
 16 42  1  0
 17 43  1  0
 19 44  1  0
 20 45  1  0
 20 46  1  0
 21 47  1  0
 23 48  1  0
 27 49  1  0
 27 50  1  0
 29 51  1  0
 30 52  1  0
 31 53  1  0
M  ISO  8  33   8  34   8  35  14  36  14  37  14  38  14  39  14  40  14
M  ISO  8  41   9  42  14  43  14  44  14  45   8  46   8  47  14  48  14
M  ISO  5  49   8  50   8  51  14  52  14  53   9
M  END
>  <minimizedAffinity>  (1) 
-6.64200401

>  <minimizedRMSD>  (1) 
0.477733046

$$$$
