
     RDKit          3D

 34 37  0  0  0  0  0  0  0  0999 V2000
   45.6487   32.2055   48.4608 C   0  0  0  0  0  0  0  0  0  0  0  0
   45.3533   33.1622   47.4951 C   0  0  0  0  0  0  0  0  0  0  0  0
   46.0244   33.0357   46.2753 C   0  0  0  0  0  0  0  0  0  0  0  0
   46.9021   32.0168   46.1034 N   0  0  0  0  0  0  0  0  0  0  0  0
   47.1536   31.1126   47.0754 C   0  0  0  0  0  0  0  0  0  0  0  0
   46.5207   31.2138   48.2559 N   0  0  0  0  0  0  0  0  0  0  0  0
   45.7621   34.0096   45.2103 C   0  0  0  0  0  0  0  0  0  0  0  0
   46.4651   33.9350   44.0284 C   0  0  0  0  0  0  0  0  0  0  0  0
   46.1472   34.8972   43.0849 C   0  0  0  0  0  0  0  0  0  0  0  0
   45.1849   35.8493   43.3496 C   0  0  0  0  0  0  0  0  0  0  0  0
   44.5008   35.8810   44.5647 C   0  0  0  0  0  0  0  0  0  0  0  0
   44.8313   34.9270   45.4719 N   0  0  0  0  0  0  0  0  0  0  0  0
   44.4697   34.2093   47.6323 O   0  0  0  0  0  0  0  0  0  0  0  0
   45.1274   32.3099   49.3983 H   0  0  0  0  0  0  0  0  0  0  0  0
   47.8729   30.3823   46.7599 H   0  0  0  0  0  0  0  0  0  0  0  0
   47.2084   33.2008   43.8221 H   0  0  0  0  0  0  0  0  0  0  0  0
   46.6300   34.9468   42.1129 H   0  0  0  0  0  0  0  0  0  0  0  0
   44.8687   36.6402   42.6755 H   0  0  0  0  0  0  0  0  0  0  0  0
   43.7386   36.5971   44.8349 H   0  0  0  0  0  0  0  0  0  0  0  0
   42.4999   33.8839   48.9977 C   0  0  0  0  0  0  0  0  0  0  0  0
   43.7456   34.4392   48.7925 C   0  0  0  0  0  0  0  0  0  0  0  0
   44.3135   35.2564   49.7608 C   0  0  0  0  0  0  0  0  0  0  0  0
   45.2783   35.7160   49.6574 H   0  0  0  0  0  0  0  0  0  0  0  0
   43.6071   35.4961   50.9217 C   0  0  0  0  0  0  0  0  0  0  0  0
   43.8866   36.2296   52.0221 N   0  0  0  0  0  0  0  0  0  0  0  0
   44.7592   36.7924   52.2057 H   0  0  0  0  0  0  0  0  0  0  0  0
   42.8688   36.1502   52.8949 C   0  0  0  0  0  0  0  0  0  0  0  0
   42.7506   36.6066   53.8728 H   0  0  0  0  0  0  0  0  0  0  0  0
   41.8823   35.3361   52.3528 C   0  0  0  0  0  0  0  0  0  0  0  0
   42.3711   34.9417   51.1192 C   0  0  0  0  0  0  0  0  0  0  0  0
   41.7864   34.1213   50.1614 C   0  0  0  0  0  0  0  0  0  0  0  0
   42.0747   33.2428   48.2178 H   0  0  0  0  0  0  0  0  0  0  0  0
   40.9408   35.0781   52.8123 H   0  0  0  0  0  0  0  0  0  0  0  0
   40.7980   33.6573   50.2804 H   0  0  0  0  0  0  0  0  0  0  0  0
  2 13  1  0
  2  1  2  0
  3  2  1  0
  4  3  2  0
  4  5  1  0
  5  6  2  0
  6  1  1  0
  7 12  1  0
  7  3  1  0
  8  7  2  0
  9 10  2  0
  9  8  1  0
 10 11  1  0
 11 12  2  0
  1 14  1  0
  5 15  1  0
  8 16  1  0
  9 17  1  0
 10 18  1  0
 11 19  1  0
 20 21  2  0
 21 22  1  0
 22 23  1  0
 22 24  2  0
 24 25  1  0
 25 26  1  0
 25 27  1  0
 27 28  1  0
 27 29  2  0
 29 30  1  0
 30 31  2  0
 31 20  1  0
 30 24  1  0
 20 32  1  0
 29 33  1  0
 31 34  1  0
 13 21  1  0
M  ISO  8  14  14  15  14  16  14  17  14  18  14  19  14  23  15  26   5
M  ISO  1  28  14
M  END
>  <DihAtoms>  (1) 
1,12,20,19

>  <DihDeg>  (1) 
-90.00140648643905

$$$$
