
     RDKit          3D

 34 37  0  0  0  0  0  0  0  0999 V2000
   45.6487   32.2055   48.4608 C   0  0  0  0  0  0  0  0  0  0  0  0
   45.3533   33.1622   47.4951 C   0  0  0  0  0  0  0  0  0  0  0  0
   46.0244   33.0357   46.2753 C   0  0  0  0  0  0  0  0  0  0  0  0
   46.9021   32.0168   46.1034 N   0  0  0  0  0  0  0  0  0  0  0  0
   47.1536   31.1126   47.0754 C   0  0  0  0  0  0  0  0  0  0  0  0
   46.5207   31.2138   48.2559 N   0  0  0  0  0  0  0  0  0  0  0  0
   45.7621   34.0096   45.2103 C   0  0  0  0  0  0  0  0  0  0  0  0
   46.4651   33.9350   44.0284 C   0  0  0  0  0  0  0  0  0  0  0  0
   46.1472   34.8972   43.0849 C   0  0  0  0  0  0  0  0  0  0  0  0
   45.1849   35.8493   43.3496 C   0  0  0  0  0  0  0  0  0  0  0  0
   44.5008   35.8810   44.5647 C   0  0  0  0  0  0  0  0  0  0  0  0
   44.8313   34.9270   45.4719 N   0  0  0  0  0  0  0  0  0  0  0  0
   44.4697   34.2093   47.6323 O   0  0  0  0  0  0  0  0  0  0  0  0
   45.1274   32.3099   49.3983 H   0  0  0  0  0  0  0  0  0  0  0  0
   47.8729   30.3823   46.7599 H   0  0  0  0  0  0  0  0  0  0  0  0
   47.2084   33.2008   43.8221 H   0  0  0  0  0  0  0  0  0  0  0  0
   46.6300   34.9468   42.1129 H   0  0  0  0  0  0  0  0  0  0  0  0
   44.8687   36.6402   42.6755 H   0  0  0  0  0  0  0  0  0  0  0  0
   43.7386   36.5971   44.8349 H   0  0  0  0  0  0  0  0  0  0  0  0
   44.0704   35.4555   49.6665 C   0  0  0  0  0  0  0  0  0  0  0  0
   43.7456   34.4392   48.7925 C   0  0  0  0  0  0  0  0  0  0  0  0
   42.6662   33.6075   49.0594 C   0  0  0  0  0  0  0  0  0  0  0  0
   42.3659   32.8012   48.4173 H   0  0  0  0  0  0  0  0  0  0  0  0
   41.9343   33.8218   50.2095 C   0  0  0  0  0  0  0  0  0  0  0  0
   40.8560   33.1961   50.7317 N   0  0  0  0  0  0  0  0  0  0  0  0
   40.3414   32.3708   50.3246 H   0  0  0  0  0  0  0  0  0  0  0  0
   40.5029   33.7821   51.8876 C   0  0  0  0  0  0  0  0  0  0  0  0
   39.6932   33.5461   52.5711 H   0  0  0  0  0  0  0  0  0  0  0  0
   41.3782   34.8314   52.1382 C   0  0  0  0  0  0  0  0  0  0  0  0
   42.2620   34.8324   51.0728 C   0  0  0  0  0  0  0  0  0  0  0  0
   43.3389   35.6749   50.8225 C   0  0  0  0  0  0  0  0  0  0  0  0
   44.9268   36.0973   49.4322 H   0  0  0  0  0  0  0  0  0  0  0  0
   41.3567   35.4940   52.9895 H   0  0  0  0  0  0  0  0  0  0  0  0
   43.6352   36.4966   51.4885 H   0  0  0  0  0  0  0  0  0  0  0  0
  2 13  1  0
  2  1  2  0
  3  2  1  0
  4  3  2  0
  4  5  1  0
  5  6  2  0
  6  1  1  0
  7 12  1  0
  7  3  1  0
  8  7  2  0
  9 10  2  0
  9  8  1  0
 10 11  1  0
 11 12  2  0
  1 14  1  0
  5 15  1  0
  8 16  1  0
  9 17  1  0
 10 18  1  0
 11 19  1  0
 20 21  2  0
 21 22  1  0
 22 23  1  0
 22 24  2  0
 24 25  1  0
 25 26  1  0
 25 27  1  0
 27 28  1  0
 27 29  2  0
 29 30  1  0
 30 31  2  0
 31 20  1  0
 30 24  1  0
 20 32  1  0
 29 33  1  0
 31 34  1  0
 13 21  1  0
M  ISO  8  14  14  15  14  16  14  17  14  18  14  19  14  23  15  26   5
M  ISO  1  28  14
M  END
>  <DihAtoms>  (1) 
1,12,20,19

>  <DihDeg>  (1) 
-90.00140648643905

$$$$
