
     RDKit          3D

 45 48  0  0  0  0  0  0  0  0999 V2000
   42.2059   34.1726   40.1963 C   0  0  0  0  0  0  0  0  0  0  0  0
   42.2947   35.1385   41.1889 C   0  0  0  0  0  0  0  0  0  0  0  0
   41.2432   36.0161   41.3351 C   0  0  0  0  0  0  0  0  0  0  0  0
   40.1488   35.9372   40.5287 C   0  0  0  0  0  0  0  0  0  0  0  0
   40.0333   34.9984   39.5445 C   0  0  0  0  0  0  0  0  0  0  0  0
   41.1106   34.1267   39.4211 C   0  0  0  0  0  0  0  0  0  0  0  0
   44.6088   31.2956   40.5952 C   0  0  0  0  0  0  0  0  0  0  0  0
   43.4657   32.0940   40.7888 C   0  0  0  0  0  0  0  0  0  0  0  0
   43.3435   33.2657   40.0790 C   0  0  0  0  0  0  0  0  0  0  0  0
   44.3477   33.5940   39.2164 N   0  0  0  0  0  0  0  0  0  0  0  0
   45.4394   32.8153   39.0423 C   0  0  0  0  0  0  0  0  0  0  0  0
   45.5731   31.6760   39.7230 N   0  0  0  0  0  0  0  0  0  0  0  0
   43.4841   35.2231   42.0642 C   0  0  0  0  0  0  0  0  0  0  0  0
   43.2168   35.6555   43.4083 N   0  0  0  0  0  0  0  0  0  0  0  0
   44.6472   35.8544   44.3313 S   0  0  0  0  0  0  0  0  0  0  0  0
   45.8229   35.2074   43.6453 O   0  0  0  0  0  0  0  0  0  0  0  0
   44.4938   35.3042   45.7050 O   0  0  0  0  0  0  0  0  0  0  0  0
   44.9336   37.5114   44.4526 O   0  0  0  0  0  0  0  0  0  0  0  0
   41.2300   36.7912   42.0753 H   0  0  0  0  0  0  0  0  0  0  0  0
   39.3129   36.6258   40.6363 H   0  0  0  0  0  0  0  0  0  0  0  0
   39.1687   34.9235   38.8952 H   0  0  0  0  0  0  0  0  0  0  0  0
   41.0373   33.3692   38.6402 H   0  0  0  0  0  0  0  0  0  0  0  0
   44.5690   30.4099   41.2162 H   0  0  0  0  0  0  0  0  0  0  0  0
   42.6603   31.8744   41.4513 H   0  0  0  0  0  0  0  0  0  0  0  0
   46.1986   33.1288   38.3462 H   0  0  0  0  0  0  0  0  0  0  0  0
   44.3237   35.7799   41.5779 H   0  0  0  0  0  0  0  0  0  0  0  0
   43.8792   34.1759   42.1507 H   0  0  0  0  0  0  0  0  0  0  0  0
   42.7549   36.5696   43.4121 H   0  0  0  0  0  0  0  0  0  0  0  0
   46.1149   35.3101   42.7104 H   0  0  0  0  0  0  0  0  0  0  0  0
   44.9641   34.5599   46.1466 H   0  0  0  0  0  0  0  0  0  0  0  0
   42.9815   38.4911   45.5457 C   0  0  0  0  0  0  0  0  0  0  0  0
   44.3190   38.1761   45.5053 C   0  0  0  0  0  0  0  0  0  0  0  0
   45.0690   38.5689   46.6155 C   0  0  0  0  0  0  0  0  0  0  0  0
   46.1185   38.3539   46.6479 H   0  0  0  0  0  0  0  0  0  0  0  0
   44.4870   39.2329   47.6813 C   0  0  0  0  0  0  0  0  0  0  0  0
   44.9501   39.7235   48.8604 N   0  0  0  0  0  0  0  0  0  0  0  0
   45.9418   39.6720   49.1925 H   0  0  0  0  0  0  0  0  0  0  0  0
   43.9342   40.2908   49.5436 C   0  0  0  0  0  0  0  0  0  0  0  0
   43.9561   40.7781   50.5223 H   0  0  0  0  0  0  0  0  0  0  0  0
   42.7661   40.1890   48.8289 C   0  0  0  0  0  0  0  0  0  0  0  0
   43.1381   39.5262   47.6736 C   0  0  0  0  0  0  0  0  0  0  0  0
   42.3704   39.1502   46.5889 C   0  0  0  0  0  0  0  0  0  0  0  0
   42.3522   38.2115   44.7137 H   0  0  0  0  0  0  0  0  0  0  0  0
   41.7616   40.5367   49.0804 H   0  0  0  0  0  0  0  0  0  0  0  0
   41.2938   39.3729   46.5600 H   0  0  0  0  0  0  0  0  0  0  0  0
  1  2  1  0
  2  3  2  0
  2 13  1  0
  4  3  1  0
  5  4  2  0
  6  5  1  0
  6  1  2  0
  7  8  2  0
  9  1  1  0
  9  8  1  0
 10  9  2  0
 11 10  1  0
 11 12  2  0
 12  7  1  0
 13 14  1  0
 14 15  1  0
 15 18  1  0
 15 17  1  0
 16 15  1  0
  3 19  1  0
  4 20  1  0
  5 21  1  0
  6 22  1  0
  7 23  1  0
  8 24  1  0
 11 25  1  0
 13 26  1  0
 13 27  1  0
 14 28  1  0
 16 29  1  0
 17 30  1  0
 31 32  2  0
 32 33  1  0
 33 34  1  0
 33 35  2  0
 35 36  1  0
 36 37  1  0
 36 38  1  0
 38 39  1  0
 38 40  2  0
 40 41  1  0
 41 42  2  0
 42 31  1  0
 41 35  1  0
 31 43  1  0
 40 44  1  0
 42 45  1  0
 18 32  1  0
M  ISO  8  19  14  20  14  21  14  22  14  23  14  24  14  25  14  26   8
M  ISO  7  27   8  28   5  29   3  30   3  34  15  37   5  39  14
M  END
>  <DihAtoms>  (1) 
14,17,31,30

>  <DihDeg>  (1) 
-89.99946397684094

$$$$
