
     RDKit          3D

 51 55  0  0  0  0  0  0  0  0999 V2000
   46.4462   32.5163   46.6881 C   0  0  2  0  0  0  0  0  0  0  0  0
   46.3122   31.1013   46.1912 C   0  0  0  0  0  0  0  0  0  0  0  0
   46.9256   30.1751   47.2020 C   0  0  0  0  0  0  0  0  0  0  0  0
   46.4845   30.4098   48.6077 C   0  0  0  0  0  0  0  0  0  0  0  0
   46.5295   31.8485   48.9895 C   0  0  0  0  0  0  0  0  0  0  0  0
   45.7653   32.6857   47.9950 C   0  0  2  0  0  0  0  0  0  0  0  0
   46.0533   33.5192   45.7088 C   0  0  0  0  0  0  0  0  0  0  0  0
   45.0073   34.4098   46.0638 C   0  0  0  0  0  0  0  0  0  0  0  0
   44.6247   35.3701   45.0993 C   0  0  0  0  0  0  0  0  0  0  0  0
   45.2862   35.3793   43.8859 N   0  0  0  0  0  0  0  0  0  0  0  0
   46.2799   34.4844   43.6313 C   0  0  0  0  0  0  0  0  0  0  0  0
   46.6607   33.5689   44.5237 N   0  0  0  0  0  0  0  0  0  0  0  0
   46.9267   34.5458   42.3157 C   0  0  0  0  0  0  0  0  0  0  0  0
   48.0305   35.2794   42.0918 C   0  0  0  0  0  0  0  0  0  0  0  0
   48.6341   35.3339   40.8428 C   0  0  0  0  0  0  0  0  0  0  0  0
   48.0673   34.6092   39.8266 C   0  0  0  0  0  0  0  0  0  0  0  0
   46.9464   33.8609   40.0436 C   0  0  0  0  0  0  0  0  0  0  0  0
   46.3709   33.8238   41.2830 N   0  0  0  0  0  0  0  0  0  0  0  0
   44.3957   32.2716   47.9012 N   0  0  0  0  0  0  0  0  0  0  0  0
   47.5509   32.6472   46.8452 H   0  0  0  0  0  0  0  0  0  0  0  0
   45.3522   30.8151   45.7881 H   0  0  0  0  0  0  0  0  0  0  0  0
   47.0185   31.0556   45.3057 H   0  0  0  0  0  0  0  0  0  0  0  0
   48.0346   30.3515   47.1913 H   0  0  0  0  0  0  0  0  0  0  0  0
   46.7717   29.1215   46.9219 H   0  0  0  0  0  0  0  0  0  0  0  0
   47.0599   29.7502   49.2529 H   0  0  0  0  0  0  0  0  0  0  0  0
   45.4147   30.0600   48.6684 H   0  0  0  0  0  0  0  0  0  0  0  0
   46.2380   31.9709   50.0303 H   0  0  0  0  0  0  0  0  0  0  0  0
   47.6096   32.1635   48.8798 H   0  0  0  0  0  0  0  0  0  0  0  0
   45.9060   33.7500   48.2889 H   0  0  0  0  0  0  0  0  0  0  0  0
   44.4773   34.4386   46.9773 H   0  0  0  0  0  0  0  0  0  0  0  0
   43.8373   36.0983   45.2681 H   0  0  0  0  0  0  0  0  0  0  0  0
   48.5068   35.8641   42.8666 H   0  0  0  0  0  0  0  0  0  0  0  0
   49.5067   35.9007   40.6229 H   0  0  0  0  0  0  0  0  0  0  0  0
   48.4537   34.5780   38.8118 H   0  0  0  0  0  0  0  0  0  0  0  0
   46.3980   33.2488   39.3504 H   0  0  0  0  0  0  0  0  0  0  0  0
   44.0790   31.8077   46.9956 H   0  0  0  0  0  0  0  0  0  0  0  0
   42.0677   32.7891   48.5845 C   0  0  0  0  0  0  0  0  0  0  0  0
   43.3576   32.3939   48.8713 C   0  0  0  0  0  0  0  0  0  0  0  0
   43.5743   32.1309   50.2014 C   0  0  0  0  0  0  0  0  0  0  0  0
   44.5598   31.8130   50.5224 H   0  0  0  0  0  0  0  0  0  0  0  0
   42.6058   32.2483   51.1589 C   0  0  0  0  0  0  0  0  0  0  0  0
   42.6574   32.0279   52.5067 N   0  0  0  0  0  0  0  0  0  0  0  0
   43.4727   31.7176   53.0807 H   0  0  0  0  0  0  0  0  0  0  0  0
   41.4288   32.2892   52.9890 C   0  0  0  0  0  0  0  0  0  0  0  0
   41.1778   32.1960   54.0444 H   0  0  0  0  0  0  0  0  0  0  0  0
   40.5742   32.6771   51.9778 C   0  0  0  0  0  0  0  0  0  0  0  0
   41.3395   32.6433   50.8349 C   0  0  0  0  0  0  0  0  0  0  0  0
   41.0732   32.9154   49.5316 C   0  0  0  0  0  0  0  0  0  0  0  0
   41.7781   33.0118   47.5814 H   0  0  0  0  0  0  0  0  0  0  0  0
   39.5402   32.9419   52.0901 H   0  0  0  0  0  0  0  0  0  0  0  0
   40.0606   33.2355   49.2450 H   0  0  0  0  0  0  0  0  0  0  0  0
  1  6  1  0
  2  1  1  0
  2  3  1  0
  3  4  1  0
  4  5  1  0
  6  5  1  0
  7  8  2  0
  7  1  1  0
  9  8  1  0
 10  9  2  0
 11 10  1  0
 11 12  2  0
 12  7  1  0
 13 11  1  0
 14 13  2  0
 15 14  1  0
 16 17  1  0
 16 15  2  0
 17 18  2  0
 18 13  1  0
 19  6  1  0
  1 20  1  1
  2 21  1  0
  2 22  1  0
  3 23  1  0
  3 24  1  0
  4 25  1  0
  4 26  1  0
  5 27  1  0
  5 28  1  0
  6 29  1  1
  8 30  1  0
  9 31  1  0
 14 32  1  0
 15 33  1  0
 16 34  1  0
 17 35  1  0
 19 36  1  0
 37 38  2  0
 38 39  1  0
 39 40  1  0
 39 41  2  0
 41 42  1  0
 42 43  1  0
 42 44  1  0
 44 45  1  0
 44 46  2  0
 46 47  1  0
 47 48  2  0
 48 37  1  0
 47 41  1  0
 37 49  1  0
 46 50  1  0
 48 51  1  0
 19 38  1  0
M  ISO  8  20  13  21  13  22  13  23  13  24  13  25  13  26  13  27  13
M  ISO  8  28  13  29  13  30  14  31  14  32  14  33  14  34  14  35  14
M  ISO  4  36   5  40  15  43   5  45  14
M  END
>  <DihAtoms>  (1) 
5,18,37,36

>  <DihDeg>  (1) 
2.015614174023014

$$$$
