
     RDKit          3D

 37 40  0  0  0  0  0  0  0  0999 V2000
   46.2258   32.9617   45.9014 C   0  0  0  0  0  0  0  0  0  0  0  0
   47.0086   31.8545   45.5197 C   0  0  0  0  0  0  0  0  0  0  0  0
   47.2013   31.0550   46.6006 C   0  0  0  0  0  0  0  0  0  0  0  0
   46.5608   31.6487   47.6100 N   0  0  0  0  0  0  0  0  0  0  0  0
   45.9725   32.7918   47.2027 N   0  0  0  0  0  0  0  0  0  0  0  0
   44.4813   35.8938   44.6074 C   0  0  0  0  0  0  0  0  0  0  0  0
   45.0320   36.0604   43.3364 C   0  0  0  0  0  0  0  0  0  0  0  0
   46.0117   35.1488   42.9322 C   0  0  0  0  0  0  0  0  0  0  0  0
   46.3606   34.1676   43.7970 N   0  0  0  0  0  0  0  0  0  0  0  0
   45.8181   34.0289   45.0098 C   0  0  0  0  0  0  0  0  0  0  0  0
   44.8765   34.8988   45.4081 N   0  0  0  0  0  0  0  0  0  0  0  0
   46.5127   31.1322   48.9685 C   0  0  0  0  0  0  0  0  0  0  0  0
   45.1240   31.2700   49.4922 C   0  0  0  0  0  0  0  0  0  0  0  0
   47.3772   31.7101   44.4999 H   0  0  0  0  0  0  0  0  0  0  0  0
   47.7593   30.1210   46.6509 H   0  0  0  0  0  0  0  0  0  0  0  0
   43.7175   36.6022   44.9262 H   0  0  0  0  0  0  0  0  0  0  0  0
   44.7016   36.8676   42.7050 H   0  0  0  0  0  0  0  0  0  0  0  0
   46.4681   35.2323   41.9627 H   0  0  0  0  0  0  0  0  0  0  0  0
   46.7534   30.0524   48.9730 H   0  0  0  0  0  0  0  0  0  0  0  0
   47.1783   31.7441   49.5757 H   0  0  0  0  0  0  0  0  0  0  0  0
   44.9153   32.3828   49.5262 H   0  0  0  0  0  0  0  0  0  0  0  0
   45.1350   30.9972   50.5867 H   0  0  0  0  0  0  0  0  0  0  0  0
   42.7358   30.7619   48.5965 C   0  0  0  0  0  0  0  0  0  0  0  0
   44.0837   30.5443   48.7584 C   0  0  0  0  0  0  0  0  0  0  0  0
   44.5945   29.4266   48.0994 C   0  0  0  0  0  0  0  0  0  0  0  0
   45.6411   29.1014   48.1166 H   0  0  0  0  0  0  0  0  0  0  0  0
   43.8135   28.5822   47.3300 C   0  0  0  0  0  0  0  0  0  0  0  0
   44.0189   27.4690   46.6030 N   0  0  0  0  0  0  0  0  0  0  0  0
   44.9549   26.9954   46.4911 H   0  0  0  0  0  0  0  0  0  0  0  0
   42.8787   27.0409   46.0396 C   0  0  0  0  0  0  0  0  0  0  0  0
   42.7475   26.1633   45.3981 H   0  0  0  0  0  0  0  0  0  0  0  0
   41.8512   27.8931   46.3935 C   0  0  0  0  0  0  0  0  0  0  0  0
   42.4665   28.8294   47.1886 C   0  0  0  0  0  0  0  0  0  0  0  0
   41.9495   29.9317   47.8356 C   0  0  0  0  0  0  0  0  0  0  0  0
   42.3798   31.6312   49.1271 H   0  0  0  0  0  0  0  0  0  0  0  0
   40.7903   27.8809   46.1381 H   0  0  0  0  0  0  0  0  0  0  0  0
   40.8931   30.2296   47.7971 H   0  0  0  0  0  0  0  0  0  0  0  0
  1  5  2  0
  2  1  1  0
  2  3  2  0
  3  4  1  0
  4 12  1  0
  5  4  1  0
  6 11  2  0
  7  6  1  0
  8  7  2  0
  8  9  1  0
  9 10  2  0
 10 11  1  0
 10  1  1  0
 12 13  1  0
  2 14  1  0
  3 15  1  0
  6 16  1  0
  7 17  1  0
  8 18  1  0
 12 19  1  0
 12 20  1  0
 13 21  1  0
 13 22  1  0
 23 24  2  0
 24 25  1  0
 25 26  1  0
 25 27  2  0
 27 28  1  0
 28 29  1  0
 28 30  1  0
 30 31  1  0
 30 32  2  0
 32 33  1  0
 33 34  2  0
 34 23  1  0
 33 27  1  0
 23 35  1  0
 32 36  1  0
 34 37  1  0
 13 24  1  0
M  ISO  8  14  14  15  14  16  14  17  14  18  14  19   8  20   8  21   8
M  ISO  4  22   8  26  15  29   5  31  14
M  END
>  <DihAtoms>  (1) 
11,12,23,22

>  <DihDeg>  (1) 
-92.97350692600654

$$$$
