
     RDKit          3D

 36 39  0  0  0  0  0  0  0  0999 V2000
   46.5990   34.1090   41.0450 C   0  0  0  0  0  0  0  0  0  0  0  0
   47.0170   34.8910   42.1060 C   0  0  0  0  0  0  0  0  0  0  0  0
   48.1730   35.5920   41.9360 C   0  0  0  0  0  0  0  0  0  0  0  0
   48.9000   35.5320   40.7630 C   0  0  0  0  0  0  0  0  0  0  0  0
   48.4760   34.7540   39.7180 C   0  0  0  0  0  0  0  0  0  0  0  0
   47.3030   34.0200   39.8430 C   0  0  0  0  0  0  0  0  0  0  0  0
   44.5030   35.9140   44.7120 C   0  0  0  0  0  0  0  0  0  0  0  0
   45.2780   35.9180   43.5420 C   0  0  0  0  0  0  0  0  0  0  0  0
   46.2120   34.9080   43.2980 C   0  0  0  0  0  0  0  0  0  0  0  0
   46.2990   33.9640   44.2530 N   0  0  0  0  0  0  0  0  0  0  0  0
   45.5540   33.9600   45.3770 C   0  0  0  0  0  0  0  0  0  0  0  0
   44.6590   34.9260   45.6140 N   0  0  0  0  0  0  0  0  0  0  0  0
   45.4150   33.3680   41.1680 O   0  0  0  0  0  0  0  0  0  0  0  0
   46.8080   33.2150   38.8410 O   0  0  0  0  0  0  0  0  0  0  0  0
   48.2150   31.3320   37.9820 C   0  0  0  0  0  0  0  0  0  0  0  0
   47.5390   32.5170   37.9130 C   0  0  0  0  0  0  0  0  0  0  0  0
   47.5540   33.2020   36.6940 C   0  0  0  0  0  0  0  0  0  0  0  0
   48.2350   32.6960   35.5840 C   0  0  0  0  0  0  0  0  0  0  0  0
   48.4410   33.0870   34.3130 N   0  0  0  0  0  0  0  0  0  0  0  0
   49.1970   32.1890   33.6580 C   0  0  0  0  0  0  0  0  0  0  0  0
   49.5230   31.1470   34.4970 C   0  0  0  0  0  0  0  0  0  0  0  0
   48.9160   31.4810   35.6880 C   0  0  0  0  0  0  0  0  0  0  0  0
   48.8890   30.8210   36.8990 C   0  0  0  0  0  0  0  0  0  0  0  0
   48.5385   36.2250   42.7580 H   0  0  0  0  0  0  0  0  0  0  0  0
   49.8282   36.1144   40.6670 H   0  0  0  0  0  0  0  0  0  0  0  0
   49.0600   34.7108   38.7868 H   0  0  0  0  0  0  0  0  0  0  0  0
   43.7707   36.7149   44.8918 H   0  0  0  0  0  0  0  0  0  0  0  0
   45.1484   36.7267   42.8077 H   0  0  0  0  0  0  0  0  0  0  0  0
   45.6840   33.1503   46.1102 H   0  0  0  0  0  0  0  0  0  0  0  0
   45.1038   32.8038   40.4164 H   0  0  0  0  0  0  0  0  0  0  0  0
   48.2200   30.7723   38.9290 H   0  0  0  0  0  0  0  0  0  0  0  0
   47.0186   34.1590   36.6073 H   0  0  0  0  0  0  0  0  0  0  0  0
   48.0706   33.9545   33.8992 H   0  0  0  0  0  0  0  0  0  0  0  0
   49.5092   32.2741   32.6067 H   0  0  0  0  0  0  0  0  0  0  0  0
   50.1269   30.2562   34.2696 H   0  0  0  0  0  0  0  0  0  0  0  0
   49.4197   29.8628   37.0002 H   0  0  0  0  0  0  0  0  0  0  0  0
  1 13  1  0
  1  2  2  0
  2  9  1  0
  3  2  1  0
  4  3  2  0
  5  6  2  0
  5  4  1  0
  6  1  1  0
  7 12  2  0
  8  7  1  0
  9  8  2  0
  9 10  1  0
 10 11  2  0
 11 12  1  0
 14  6  1  0
 16 15  2  0
 16 14  1  0
 17 16  1  0
 18 22  1  0
 18 17  2  0
 19 18  1  0
 20 19  1  0
 20 21  2  0
 21 22  1  0
 22 23  2  0
 23 15  1  0
  3 24  1  0
  4 25  1  0
  5 26  1  0
  7 27  1  0
  8 28  1  0
 11 29  1  0
 13 30  1  0
 15 31  1  0
 17 32  1  0
 19 33  1  0
 20 34  1  0
 21 35  1  0
 23 36  1  0
M  ISO  8  24  14  25  14  26  14  27  14  28  14  29  14  30   3  31  14
M  ISO  5  32  14  33   9  34  14  35  14  36  14
M  END
>  <minimizedAffinity>  (1) 
-6.19329453

>  <minimizedRMSD>  (1) 
3.22706342

$$$$
