
     RDKit          3D

 55 58  0  0  0  0  0  0  0  0999 V2000
   46.1537   34.6003   43.6169 C   0  0  0  0  0  0  0  0  0  0  0  0
   46.1419   33.8391   44.7600 C   0  0  0  0  0  0  0  0  0  0  0  0
   45.3018   34.2199   45.7603 C   0  0  0  0  0  0  0  0  0  0  0  0
   44.5193   35.3250   45.5891 N   0  0  0  0  0  0  0  0  0  0  0  0
   44.5289   36.0566   44.4939 C   0  0  0  0  0  0  0  0  0  0  0  0
   45.3453   35.6768   43.5346 N   0  0  0  0  0  0  0  0  0  0  0  0
   47.0100   34.1473   42.5155 C   0  0  0  0  0  0  0  0  0  0  0  0
   48.3929   34.7244   42.6233 C   0  0  0  0  0  0  0  0  0  0  0  0
   48.7171   35.6165   41.5097 C   0  0  0  0  0  0  0  0  0  0  0  0
   48.5559   34.9188   40.1748 C   0  0  0  0  0  0  0  0  0  0  0  0
   47.3028   34.1400   40.0657 C   0  0  0  0  0  0  0  0  0  0  0  0
   46.3542   34.4215   41.2096 C   0  0  0  0  0  0  0  0  0  0  0  0
   46.8256   32.7501   45.1034 O   0  0  0  0  0  0  0  0  0  0  0  0
   47.1812   32.1747   46.2979 C   0  0  0  0  0  0  0  0  0  0  0  0
   47.2274   30.6623   46.2711 C   0  0  0  0  0  0  0  0  0  0  0  0
   46.0072   30.0859   45.7420 N   0  0  0  0  0  0  0  0  0  0  0  0
   45.1736   29.3285   47.0769 S   0  0  0  0  0  0  0  0  0  0  0  0
   44.0389   28.4835   46.5875 O   0  0  0  0  0  0  0  0  0  0  0  0
   44.6779   30.4237   47.9695 O   0  0  0  0  0  0  0  0  0  0  0  0
   46.2363   28.3891   47.9725 O   0  0  0  0  0  0  0  0  0  0  0  0
   45.1237   33.7839   46.7284 H   0  0  0  0  0  0  0  0  0  0  0  0
   43.8997   36.9396   44.3641 H   0  0  0  0  0  0  0  0  0  0  0  0
   47.1957   33.0634   42.6416 H   0  0  0  0  0  0  0  0  0  0  0  0
   49.1771   33.9509   42.7011 H   0  0  0  0  0  0  0  0  0  0  0  0
   48.4484   35.2962   43.5719 H   0  0  0  0  0  0  0  0  0  0  0  0
   47.9836   36.4707   41.5146 H   0  0  0  0  0  0  0  0  0  0  0  0
   49.7579   35.9892   41.6020 H   0  0  0  0  0  0  0  0  0  0  0  0
   49.4308   34.2171   40.1107 H   0  0  0  0  0  0  0  0  0  0  0  0
   48.7129   35.6445   39.3480 H   0  0  0  0  0  0  0  0  0  0  0  0
   47.4806   33.0387   40.0626 H   0  0  0  0  0  0  0  0  0  0  0  0
   46.7628   34.4378   39.1204 H   0  0  0  0  0  0  0  0  0  0  0  0
   45.4923   33.7110   41.0402 H   0  0  0  0  0  0  0  0  0  0  0  0
   45.9469   35.4571   41.1490 H   0  0  0  0  0  0  0  0  0  0  0  0
   46.5496   32.4398   47.1646 H   0  0  0  0  0  0  0  0  0  0  0  0
   48.2071   32.5152   46.5679 H   0  0  0  0  0  0  0  0  0  0  0  0
   48.0473   30.3445   45.5773 H   0  0  0  0  0  0  0  0  0  0  0  0
   47.4635   30.3075   47.2867 H   0  0  0  0  0  0  0  0  0  0  0  0
   45.3823   30.8818   45.5229 H   0  0  0  0  0  0  0  0  0  0  0  0
   44.0790   27.6029   46.1656 H   0  0  0  0  0  0  0  0  0  0  0  0
   43.9825   31.0913   47.8480 H   0  0  0  0  0  0  0  0  0  0  0  0
   47.2950   27.8467   49.9878 C   0  0  0  0  0  0  0  0  0  0  0  0
   46.1751   28.3929   49.3594 C   0  0  0  0  0  0  0  0  0  0  0  0
   45.1320   28.8768   50.1332 C   0  0  0  0  0  0  0  0  0  0  0  0
   44.2972   29.2853   49.5965 H   0  0  0  0  0  0  0  0  0  0  0  0
   45.2051   28.8167   51.5159 C   0  0  0  0  0  0  0  0  0  0  0  0
   44.3331   29.2157   52.4651 N   0  0  0  0  0  0  0  0  0  0  0  0
   43.3900   29.6693   52.2826 H   0  0  0  0  0  0  0  0  0  0  0  0
   44.8459   28.9482   53.7007 C   0  0  0  0  0  0  0  0  0  0  0  0
   44.4092   29.1389   54.6741 H   0  0  0  0  0  0  0  0  0  0  0  0
   46.0893   28.3591   53.4469 C   0  0  0  0  0  0  0  0  0  0  0  0
   46.3349   28.2666   52.0932 C   0  0  0  0  0  0  0  0  0  0  0  0
   47.3974   27.7726   51.3693 C   0  0  0  0  0  0  0  0  0  0  0  0
   48.1639   27.4417   49.4485 H   0  0  0  0  0  0  0  0  0  0  0  0
   46.7284   28.0386   54.2833 H   0  0  0  0  0  0  0  0  0  0  0  0
   48.2550   27.3537   51.8786 H   0  0  0  0  0  0  0  0  0  0  0  0
  1  2  1  0
  2 13  1  0
  2  3  2  0
  4  3  1  0
  5  4  2  0
  6  1  2  0
  6  5  1  0
  7  8  1  0
  7  1  1  0
  9  8  1  0
 10  9  1  0
 11 10  1  0
 11 12  1  0
 12  7  1  0
 13 14  1  0
 15 14  1  0
 16 15  1  0
 16 17  1  0
 17 19  1  0
 17 20  1  0
 18 17  1  0
  3 21  1  0
  5 22  1  0
  7 23  1  0
  8 24  1  0
  8 25  1  0
  9 26  1  0
  9 27  1  0
 10 28  1  0
 10 29  1  0
 11 30  1  0
 11 31  1  0
 12 32  1  0
 12 33  1  0
 14 34  1  0
 14 35  1  0
 15 36  1  0
 15 37  1  0
 16 38  1  0
 18 39  1  0
 19 40  1  0
 41 42  2  0
 42 43  1  0
 43 44  1  0
 43 45  2  0
 45 46  1  0
 46 47  1  0
 46 48  1  0
 48 49  1  0
 48 50  2  0
 50 51  1  0
 51 52  2  0
 52 41  1  0
 51 45  1  0
 41 53  1  0
 50 54  1  0
 52 55  1  0
 20 42  1  0
M  ISO  8  21  14  22  14  23  13  24  13  25  13  26  13  27  13  28  13
M  ISO  8  29  13  30  13  31  13  32  13  33  13  34   8  35   8  36   8
M  ISO  7  37   8  38   5  39   3  40   3  44  15  47   5  49  14
M  END
>  <DihAtoms>  (1) 
16,19,41,40

>  <DihDeg>  (1) 
90.00043302054473

$$$$
