
     RDKit          3D

 32 35  0  0  0  0  0  0  0  0999 V2000
   45.3099   33.2417   47.3914 C   0  0  0  0  0  0  0  0  0  0  0  0
   45.8187   33.3228   46.0795 C   0  0  0  0  0  0  0  0  0  0  0  0
   46.9008   32.4937   45.7539 C   0  0  0  0  0  0  0  0  0  0  0  0
   47.3913   31.6656   46.7189 N   0  0  0  0  0  0  0  0  0  0  0  0
   46.8784   31.6188   47.9555 C   0  0  0  0  0  0  0  0  0  0  0  0
   45.8413   32.4034   48.2924 N   0  0  0  0  0  0  0  0  0  0  0  0
   45.2171   34.2470   45.1207 C   0  0  0  0  0  0  0  0  0  0  0  0
   45.2093   34.0255   43.7689 C   0  0  0  0  0  0  0  0  0  0  0  0
   44.5518   35.1303   43.2653 C   0  0  0  0  0  0  0  0  0  0  0  0
   44.1834   35.9712   44.2555 N   0  0  0  0  0  0  0  0  0  0  0  0
   44.5971   35.4181   45.3872 N   0  0  0  0  0  0  0  0  0  0  0  0
   44.2500   34.0559   47.7057 O   0  0  0  0  0  0  0  0  0  0  0  0
   47.2905   32.5576   44.7444 H   0  0  0  0  0  0  0  0  0  0  0  0
   47.3474   30.9285   48.6285 H   0  0  0  0  0  0  0  0  0  0  0  0
   45.5927   33.2229   43.1545 H   0  0  0  0  0  0  0  0  0  0  0  0
   44.3017   35.4066   42.2482 H   0  0  0  0  0  0  0  0  0  0  0  0
   43.6794   36.8812   44.2314 H   0  0  0  0  0  0  0  0  0  0  0  0
   43.8695   33.0853   49.8145 C   0  0  0  0  0  0  0  0  0  0  0  0
   43.6160   34.1249   48.9218 C   0  0  0  0  0  0  0  0  0  0  0  0
   42.7584   35.1358   49.3165 C   0  0  0  0  0  0  0  0  0  0  0  0
   42.6008   35.9087   48.5888 H   0  0  0  0  0  0  0  0  0  0  0  0
   42.1635   35.1228   50.5634 C   0  0  0  0  0  0  0  0  0  0  0  0
   41.3258   35.9535   51.1624 N   0  0  0  0  0  0  0  0  0  0  0  0
   40.9309   36.8458   50.7624 H   0  0  0  0  0  0  0  0  0  0  0  0
   41.0091   35.5340   52.3887 C   0  0  0  0  0  0  0  0  0  0  0  0
   40.3496   35.9916   53.1279 H   0  0  0  0  0  0  0  0  0  0  0  0
   41.6740   34.3665   52.6057 C   0  0  0  0  0  0  0  0  0  0  0  0
   42.4052   34.0976   51.4612 C   0  0  0  0  0  0  0  0  0  0  0  0
   43.2680   33.0794   51.0659 C   0  0  0  0  0  0  0  0  0  0  0  0
   44.5249   32.2556   49.5911 H   0  0  0  0  0  0  0  0  0  0  0  0
   41.6537   33.7457   53.4934 H   0  0  0  0  0  0  0  0  0  0  0  0
   43.4713   32.2692   51.7496 H   0  0  0  0  0  0  0  0  0  0  0  0
  1 12  1  0
  1  6  2  0
  2  1  1  0
  3  2  2  0
  3  4  1  0
  4  5  2  0
  5  6  1  0
  7 11  2  0
  7  2  1  0
  8  7  1  0
  9  8  2  0
  9 10  1  0
 10 11  1  0
  3 13  1  0
  5 14  1  0
  8 15  1  0
  9 16  1  0
 10 17  1  0
 18 19  2  0
 19 20  1  0
 20 21  1  0
 20 22  2  0
 22 23  1  0
 23 24  1  0
 23 25  1  0
 25 26  1  0
 25 27  2  0
 27 28  1  0
 28 29  2  0
 29 18  1  0
 28 22  1  0
 18 30  1  0
 27 31  1  0
 29 32  1  0
 12 19  1  0
M  ISO  8  13  14  14  14  15  14  16  14  17   9  21  15  24   5  26  14
M  END
>  <DihAtoms>  (1) 
0,11,18,17

>  <DihDeg>  (1) 
90.00422154327562

$$$$
