
     RDKit          3D

 44 47  0  0  0  0  0  0  0  0999 V2000
   45.2900   35.6147   44.2067 C   0  0  0  0  0  0  0  0  0  0  0  0
   46.2442   34.8593   43.5302 C   0  0  0  0  0  0  0  0  0  0  0  0
   46.7112   33.6664   44.0815 C   0  0  0  0  0  0  0  0  0  0  0  0
   46.2023   33.3061   45.2590 N   0  0  0  0  0  0  0  0  0  0  0  0
   45.2760   34.0402   45.9140 C   0  0  0  0  0  0  0  0  0  0  0  0
   44.8128   35.1950   45.3985 N   0  0  0  0  0  0  0  0  0  0  0  0
   48.6866   33.7742   42.5797 C   0  0  2  0  0  0  0  0  0  0  0  0
   47.7069   32.9311   43.3176 C   0  0  2  0  0  0  0  0  0  0  0  0
   47.1647   32.1525   42.2539 O   0  0  0  0  0  0  0  0  0  0  0  0
   48.2933   31.6730   41.6327 C   0  0  0  0  0  0  0  0  0  0  0  0
   49.4282   32.6443   41.8339 C   0  0  1  0  0  0  0  0  0  0  0  0
   49.4931   34.5391   43.3663 O   0  0  0  0  0  0  0  0  0  0  0  0
   49.9435   33.1630   40.6480 O   0  0  0  0  0  0  0  0  0  0  0  0
   44.8068   36.9032   43.5962 C   0  0  0  0  0  0  0  0  0  0  0  0
   45.3098   39.2629   44.4775 C   0  0  0  0  0  0  0  0  0  0  0  0
   45.6526   39.6153   43.2940 O   0  0  0  0  0  0  0  0  0  0  0  0
   44.9081   37.9179   44.6221 N   0  0  0  0  0  0  0  0  0  0  0  0
   46.5686   35.2537   42.6013 H   0  0  0  0  0  0  0  0  0  0  0  0
   44.9144   33.6700   46.8727 H   0  0  0  0  0  0  0  0  0  0  0  0
   48.1667   34.3255   41.7772 H   0  0  0  0  0  0  0  0  0  0  0  0
   48.1583   32.1760   43.9930 H   0  0  0  0  0  0  0  0  0  0  0  0
   48.0906   31.6674   40.5231 H   0  0  0  0  0  0  0  0  0  0  0  0
   48.5522   30.6308   41.8811 H   0  0  0  0  0  0  0  0  0  0  0  0
   50.1847   32.1668   42.4638 H   0  0  0  0  0  0  0  0  0  0  0  0
   50.3609   34.6523   42.9171 H   0  0  0  0  0  0  0  0  0  0  0  0
   49.3546   33.8698   40.2947 H   0  0  0  0  0  0  0  0  0  0  0  0
   45.4080   37.1277   42.7166 H   0  0  0  0  0  0  0  0  0  0  0  0
   43.7230   36.7340   43.3720 H   0  0  0  0  0  0  0  0  0  0  0  0
   44.6507   37.6127   45.5873 H   0  0  0  0  0  0  0  0  0  0  0  0
   46.4233   40.8877   46.0886 C   0  0  0  0  0  0  0  0  0  0  0  0
   45.3376   40.2005   45.5928 C   0  0  0  0  0  0  0  0  0  0  0  0
   44.1288   40.4459   46.2518 C   0  0  0  0  0  0  0  0  0  0  0  0
   43.2295   39.9291   45.9040 H   0  0  0  0  0  0  0  0  0  0  0  0
   43.9844   41.3034   47.3230 C   0  0  0  0  0  0  0  0  0  0  0  0
   42.9363   41.6657   48.0736 N   0  0  0  0  0  0  0  0  0  0  0  0
   41.9721   41.2941   47.9194 H   0  0  0  0  0  0  0  0  0  0  0  0
   43.3720   42.5534   49.0059 C   0  0  0  0  0  0  0  0  0  0  0  0
   42.7111   43.0100   49.7525 H   0  0  0  0  0  0  0  0  0  0  0  0
   44.7216   42.7685   48.8562 C   0  0  0  0  0  0  0  0  0  0  0  0
   45.0925   41.9736   47.7917 C   0  0  0  0  0  0  0  0  0  0  0  0
   46.2958   41.7484   47.1584 C   0  0  0  0  0  0  0  0  0  0  0  0
   47.3566   40.6998   45.5817 H   0  0  0  0  0  0  0  0  0  0  0  0
   45.3694   43.4146   49.4349 H   0  0  0  0  0  0  0  0  0  0  0  0
   47.2028   42.2365   47.4696 H   0  0  0  0  0  0  0  0  0  0  0  0
  1  6  2  0
  2  3  2  0
  2  1  1  0
  3  4  1  0
  4  5  2  0
  6  5  1  0
  7  8  1  0
  7 12  1  0
  8  3  1  0
  9  8  1  0
 10 11  1  0
 10  9  1  0
 11  7  1  0
 13 11  1  0
 14  1  1  0
 14 17  1  0
 15 17  1  0
 16 15  2  0
  2 18  1  0
  5 19  1  0
  7 20  1  6
  8 21  1  1
 10 22  1  0
 10 23  1  0
 11 24  1  1
 12 25  1  0
 13 26  1  0
 14 27  1  0
 14 28  1  0
 17 29  1  0
 30 31  2  0
 31 32  1  0
 32 33  1  0
 32 34  2  0
 34 35  1  0
 35 36  1  0
 35 37  1  0
 37 38  1  0
 37 39  2  0
 39 40  1  0
 40 41  2  0
 41 30  1  0
 40 34  1  0
 30 42  1  0
 39 43  1  0
 41 44  1  0
 15 31  1  0
M  ISO  8  18  14  19  14  20  13  21  13  22  13  23  13  24  13  25   3
M  ISO  6  26   3  27   8  28   8  33  15  36   5  38  14
M  END
>  <DihAtoms>  (1) 
16,14,30,29

>  <DihDeg>  (1) 
-0.017804570101490395

$$$$
