
     RDKit          3D

 35 38  0  0  0  0  0  0  0  0999 V2000
   46.2848   34.7350   43.2394 C   0  0  0  0  0  0  0  0  0  0  0  0
   45.3091   35.7289   43.5768 C   0  0  0  0  0  0  0  0  0  0  0  0
   44.6391   35.5528   44.8060 C   0  0  0  0  0  0  0  0  0  0  0  0
   44.9556   34.4800   45.5691 N   0  0  0  0  0  0  0  0  0  0  0  0
   45.9003   33.5809   45.1678 C   0  0  0  0  0  0  0  0  0  0  0  0
   46.5658   33.6800   44.0348 N   0  0  0  0  0  0  0  0  0  0  0  0
   46.1944   32.4261   46.0833 C   0  0  1  0  0  0  0  0  0  0  0  0
   47.0407   32.6652   47.3130 C   0  0  0  0  0  0  0  0  0  0  0  0
   45.5458   32.4979   47.4105 C   0  0  1  0  0  0  0  0  0  0  0  0
   44.8890   33.7533   47.8190 N   0  0  0  0  0  0  0  0  0  0  0  0
   46.9166   35.0125   41.9835 C   0  0  0  0  0  0  0  0  0  0  0  0
   48.0938   35.5073   41.8648 O   0  0  0  0  0  0  0  0  0  0  0  0
   45.0802   36.5740   42.9452 H   0  0  0  0  0  0  0  0  0  0  0  0
   43.9061   36.2978   45.0647 H   0  0  0  0  0  0  0  0  0  0  0  0
   46.2713   31.4206   45.6146 H   0  0  0  0  0  0  0  0  0  0  0  0
   47.5075   33.6697   47.3050 H   0  0  0  0  0  0  0  0  0  0  0  0
   47.7013   31.8428   47.5865 H   0  0  0  0  0  0  0  0  0  0  0  0
   45.2213   31.6252   47.9721 H   0  0  0  0  0  0  0  0  0  0  0  0
   43.8691   33.6846   47.8290 H   0  0  0  0  0  0  0  0  0  0  0  0
   45.3703   34.0576   48.6694 H   0  0  0  0  0  0  0  0  0  0  0  0
   44.9941   33.7458   40.7846 C   0  0  0  0  0  0  0  0  0  0  0  0
   46.0198   34.6535   40.8945 C   0  0  0  0  0  0  0  0  0  0  0  0
   46.2789   35.4670   39.7802 C   0  0  0  0  0  0  0  0  0  0  0  0
   47.0564   36.2239   39.7341 H   0  0  0  0  0  0  0  0  0  0  0  0
   45.5514   35.3844   38.6112 C   0  0  0  0  0  0  0  0  0  0  0  0
   45.6023   36.0567   37.4238 N   0  0  0  0  0  0  0  0  0  0  0  0
   46.2743   36.8201   37.1796 H   0  0  0  0  0  0  0  0  0  0  0  0
   44.6421   35.5802   36.6116 C   0  0  0  0  0  0  0  0  0  0  0  0
   44.4142   35.8919   35.6040 H   0  0  0  0  0  0  0  0  0  0  0  0
   43.9322   34.5694   37.2670 C   0  0  0  0  0  0  0  0  0  0  0  0
   44.5231   34.4693   38.5145 C   0  0  0  0  0  0  0  0  0  0  0  0
   44.2724   33.6641   39.6241 C   0  0  0  0  0  0  0  0  0  0  0  0
   44.8774   33.1693   41.6906 H   0  0  0  0  0  0  0  0  0  0  0  0
   43.1001   33.9769   36.9119 H   0  0  0  0  0  0  0  0  0  0  0  0
   43.4697   32.9200   39.6144 H   0  0  0  0  0  0  0  0  0  0  0  0
  1  2  2  0
  1  6  1  0
  2  3  1  0
  3  4  2  0
  5  4  1  0
  5  7  1  0
  6  5  2  0
  7  8  1  0
  7  9  1  0
  8  9  1  0
  9 10  1  0
 11  1  1  0
 12 11  2  0
  2 13  1  0
  3 14  1  0
  7 15  1  6
  8 16  1  0
  8 17  1  0
  9 18  1  1
 10 19  1  0
 10 20  1  0
 21 22  2  0
 22 23  1  0
 23 24  1  0
 23 25  2  0
 25 26  1  0
 26 27  1  0
 26 28  1  0
 28 29  1  0
 28 30  2  0
 30 31  1  0
 31 32  2  0
 32 21  1  0
 31 25  1  0
 21 33  1  0
 30 34  1  0
 32 35  1  0
 11 22  1  0
M  ISO  8  13  14  14  14  15  13  16  13  17  13  18  13  19   5  20   5
M  ISO  3  24  15  27   5  29  14
M  END
>  <DihAtoms>  (1) 
0,10,21,20

>  <DihDeg>  (1) 
-26.393187849540602

$$$$
