
     RDKit          3D

 54 59  0  0  0  0  0  0  0  0999 V2000
   45.6740   33.8030   45.4260 C   0  0  0  0  0  0  0  0  0  0  0  0
   44.8390   34.7640   45.8210 N   0  0  0  0  0  0  0  0  0  0  0  0
   44.5000   35.8270   45.1080 C   0  0  0  0  0  0  0  0  0  0  0  0
   45.0150   36.0030   43.8670 N   0  0  0  0  0  0  0  0  0  0  0  0
   45.8710   35.1040   43.3510 C   0  0  0  0  0  0  0  0  0  0  0  0
   46.4140   35.2820   42.0970 C   0  0  0  0  0  0  0  0  0  0  0  0
   47.2960   34.3940   41.5680 C   0  0  0  0  0  0  0  0  0  0  0  0
   47.6270   33.3060   42.3320 C   0  0  0  0  0  0  0  0  0  0  0  0
   47.0560   33.1620   43.5930 C   0  0  0  0  0  0  0  0  0  0  0  0
   46.1790   34.0230   44.1500 C   0  0  0  0  0  0  0  0  0  0  0  0
   47.5710   31.9820   47.9070 C   0  0  0  0  0  0  0  0  0  0  0  0
   47.0560   30.6810   47.9230 C   0  0  0  0  0  0  0  0  0  0  0  0
   46.0200   30.4250   47.0670 C   0  0  0  0  0  0  0  0  0  0  0  0
   45.5540   31.3860   46.2740 N   0  0  0  0  0  0  0  0  0  0  0  0
   46.0330   32.6230   46.2470 C   0  0  0  0  0  0  0  0  0  0  0  0
   47.0480   32.8970   47.0800 N   0  0  0  0  0  0  0  0  0  0  0  0
   45.4490   29.1730   47.0480 N   0  0  0  0  0  0  0  0  0  0  0  0
   44.2040   28.8290   46.3050 C   0  0  0  0  0  0  0  0  0  0  0  0
   44.1290   27.3280   46.3070 C   0  0  0  0  0  0  0  0  0  0  0  0
   44.8770   26.9450   47.5330 C   0  0  0  0  0  0  0  0  0  0  0  0
   45.9100   27.9920   47.7190 C   0  0  0  0  0  0  0  0  0  0  0  0
   47.6460   29.7690   48.7530 N   0  0  0  0  0  0  0  0  0  0  0  0
   48.3540   31.1590   41.1390 C   0  0  0  0  0  0  0  0  0  0  0  0
   48.5860   32.3880   41.7210 C   0  0  0  0  0  0  0  0  0  0  0  0
   49.8990   32.8110   41.7180 C   0  0  0  0  0  0  0  0  0  0  0  0
   50.9650   32.1010   41.1860 C   0  0  0  0  0  0  0  0  0  0  0  0
   52.2700   32.2950   41.0690 N   0  0  0  0  0  0  0  0  0  0  0  0
   52.8420   31.2430   40.4460 C   0  0  0  0  0  0  0  0  0  0  0  0
   51.8630   30.3010   40.1310 C   0  0  0  0  0  0  0  0  0  0  0  0
   50.7020   30.8680   40.6080 C   0  0  0  0  0  0  0  0  0  0  0  0
   49.3930   30.4310   40.6020 C   0  0  0  0  0  0  0  0  0  0  0  0
   47.4940   31.9560   44.2190 N   0  0  0  0  0  0  0  0  0  0  0  0
   43.8002   36.5673   45.5231 H   0  0  0  0  0  0  0  0  0  0  0  0
   46.1259   36.1659   41.5090 H   0  0  0  0  0  0  0  0  0  0  0  0
   47.7268   34.5427   40.5669 H   0  0  0  0  0  0  0  0  0  0  0  0
   48.4039   32.2530   48.5724 H   0  0  0  0  0  0  0  0  0  0  0  0
   44.2557   29.2088   45.2739 H   0  0  0  0  0  0  0  0  0  0  0  0
   43.3158   29.2799   46.7716 H   0  0  0  0  0  0  0  0  0  0  0  0
   43.0847   26.9866   46.3608 H   0  0  0  0  0  0  0  0  0  0  0  0
   44.5439   26.8770   45.3935 H   0  0  0  0  0  0  0  0  0  0  0  0
   44.2012   26.9151   48.4004 H   0  0  0  0  0  0  0  0  0  0  0  0
   45.3260   25.9454   47.4378 H   0  0  0  0  0  0  0  0  0  0  0  0
   46.8642   27.6604   47.2836 H   0  0  0  0  0  0  0  0  0  0  0  0
   46.0730   28.1913   48.7884 H   0  0  0  0  0  0  0  0  0  0  0  0
   47.2926   28.8022   48.7901 H   0  0  0  0  0  0  0  0  0  0  0  0
   48.4439   30.0486   49.3412 H   0  0  0  0  0  0  0  0  0  0  0  0
   47.3308   30.7569   41.1034 H   0  0  0  0  0  0  0  0  0  0  0  0
   50.1177   33.7882   42.1733 H   0  0  0  0  0  0  0  0  0  0  0  0
   52.7750   33.1276   41.4046 H   0  0  0  0  0  0  0  0  0  0  0  0
   53.9143   31.1440   40.2215 H   0  0  0  0  0  0  0  0  0  0  0  0
   51.9884   29.3339   39.6220 H   0  0  0  0  0  0  0  0  0  0  0  0
   49.1686   29.4551   40.1468 H   0  0  0  0  0  0  0  0  0  0  0  0
   47.1547   31.7118   45.1603 H   0  0  0  0  0  0  0  0  0  0  0  0
   48.1493   31.3302   43.7293 H   0  0  0  0  0  0  0  0  0  0  0  0
  1  2  2  0
  1 15  1  0
  3  2  1  0
  4  3  2  0
  5  4  1  0
  5 10  2  0
  6  5  1  0
  7  6  2  0
  7  8  1  0
  8  9  2  0
  9 10  1  0
  9 32  1  0
 10  1  1  0
 11 12  2  0
 12 22  1  0
 13 12  1  0
 14 13  2  0
 15 14  1  0
 15 16  2  0
 16 11  1  0
 17 13  1  0
 17 21  1  0
 18 19  1  0
 18 17  1  0
 19 20  1  0
 20 21  1  0
 23 24  2  0
 24  8  1  0
 25 24  1  0
 26 25  2  0
 27 26  1  0
 28 27  1  0
 29 28  2  0
 29 30  1  0
 30 26  1  0
 31 30  2  0
 31 23  1  0
  3 33  1  0
  6 34  1  0
  7 35  1  0
 11 36  1  0
 18 37  1  0
 18 38  1  0
 19 39  1  0
 19 40  1  0
 20 41  1  0
 20 42  1  0
 21 43  1  0
 21 44  1  0
 22 45  1  0
 22 46  1  0
 23 47  1  0
 25 48  1  0
 27 49  1  0
 28 50  1  0
 29 51  1  0
 31 52  1  0
 32 53  1  0
 32 54  1  0
M  END
>  <minimizedAffinity>  (1) 
-8.0152626

>  <minimizedRMSD>  (1) 
0.571325362

$$$$
