
     RDKit          3D

 36 39  0  0  0  0  0  0  0  0999 V2000
   45.1230   33.3120   41.0070 F   0  0  0  0  0  0  0  0  0  0  0  0
   46.2890   33.9240   40.8300 C   0  0  0  0  0  0  0  0  0  0  0  0
   46.8040   34.7130   41.8230 C   0  0  0  0  0  0  0  0  0  0  0  0
   48.0130   35.3770   41.7050 C   0  0  0  0  0  0  0  0  0  0  0  0
   48.7630   35.2650   40.5470 C   0  0  0  0  0  0  0  0  0  0  0  0
   48.2000   34.4500   39.5630 C   0  0  0  0  0  0  0  0  0  0  0  0
   46.9920   33.7740   39.6560 C   0  0  0  0  0  0  0  0  0  0  0  0
   46.4520   31.5680   38.6950 C   0  0  0  0  0  0  0  0  0  0  0  0
   46.5230   32.9590   38.5530 C   0  0  0  0  0  0  0  0  0  0  0  0
   46.1390   33.5250   37.3530 C   0  0  0  0  0  0  0  0  0  0  0  0
   45.6900   32.7660   36.2900 C   0  0  0  0  0  0  0  0  0  0  0  0
   45.2580   32.9950   35.0350 N   0  0  0  0  0  0  0  0  0  0  0  0
   44.9390   31.8250   34.4400 C   0  0  0  0  0  0  0  0  0  0  0  0
   45.1660   30.7640   35.3230 C   0  0  0  0  0  0  0  0  0  0  0  0
   45.6320   31.3910   36.4650 C   0  0  0  0  0  0  0  0  0  0  0  0
   46.0050   30.7660   37.6520 C   0  0  0  0  0  0  0  0  0  0  0  0
   45.4420   34.1020   45.1920 C   0  0  0  0  0  0  0  0  0  0  0  0
   44.6600   35.2570   45.4010 C   0  0  0  0  0  0  0  0  0  0  0  0
   44.6040   36.2340   44.3910 C   0  0  0  0  0  0  0  0  0  0  0  0
   45.3250   35.9910   43.2550 N   0  0  0  0  0  0  0  0  0  0  0  0
   46.0630   34.8800   43.0830 C   0  0  0  0  0  0  0  0  0  0  0  0
   46.1140   33.9590   44.0390 N   0  0  0  0  0  0  0  0  0  0  0  0
   45.4980   33.1200   46.2060 N   0  0  0  0  0  0  0  0  0  0  0  0
   48.3797   35.9971   42.5362 H   0  0  0  0  0  0  0  0  0  0  0  0
   49.7268   35.7778   40.4126 H   0  0  0  0  0  0  0  0  0  0  0  0
   48.7666   34.3331   38.6275 H   0  0  0  0  0  0  0  0  0  0  0  0
   46.7542   31.1036   39.6453 H   0  0  0  0  0  0  0  0  0  0  0  0
   46.1926   34.6179   37.2400 H   0  0  0  0  0  0  0  0  0  0  0  0
   45.1822   33.9232   34.5949 H   0  0  0  0  0  0  0  0  0  0  0  0
   44.5574   31.7218   33.4135 H   0  0  0  0  0  0  0  0  0  0  0  0
   45.0111   29.6887   35.1507 H   0  0  0  0  0  0  0  0  0  0  0  0
   45.9477   29.6729   37.7606 H   0  0  0  0  0  0  0  0  0  0  0  0
   44.1024   35.3916   46.3396 H   0  0  0  0  0  0  0  0  0  0  0  0
   44.0079   37.1509   44.5094 H   0  0  0  0  0  0  0  0  0  0  0  0
   46.0643   32.2705   46.0696 H   0  0  0  0  0  0  0  0  0  0  0  0
   44.9725   33.2535   47.0818 H   0  0  0  0  0  0  0  0  0  0  0  0
  2  1  1  0
  2  3  2  0
  3 21  1  0
  4  3  1  0
  5  4  2  0
  6  7  2  0
  6  5  1  0
  7  2  1  0
  9  8  2  0
  9  7  1  0
 10  9  1  0
 11 15  1  0
 11 10  2  0
 12 11  1  0
 13 12  1  0
 13 14  2  0
 14 15  1  0
 15 16  2  0
 16  8  1  0
 17 18  2  0
 17 23  1  0
 19 18  1  0
 20 19  2  0
 21 20  1  0
 21 22  2  0
 22 17  1  0
  4 24  1  0
  5 25  1  0
  6 26  1  0
  8 27  1  0
 10 28  1  0
 12 29  1  0
 13 30  1  0
 14 31  1  0
 16 32  1  0
 18 33  1  0
 19 34  1  0
 23 35  1  0
 23 36  1  0
M  ISO  8  24  14  25  14  26  14  27  14  28  14  29   9  30  14  31  14
M  ISO  3  32  14  33  14  34  14
M  END
>  <minimizedAffinity>  (1) 
-6.93483353

>  <minimizedRMSD>  (1) 
0.23226507

$$$$
