
     RDKit          3D

 37 41  0  0  0  0  0  0  0  0999 V2000
   47.2239   31.3679   45.0921 C   0  0  0  0  0  0  0  0  0  0  0  0
   46.8793   32.7081   45.0939 C   0  0  0  0  0  0  0  0  0  0  0  0
   46.2777   33.3148   46.1760 C   0  0  0  0  0  0  0  0  0  0  0  0
   45.9988   32.5555   47.3257 C   0  0  0  0  0  0  0  0  0  0  0  0
   45.4329   32.8172   48.5359 N   0  0  0  0  0  0  0  0  0  0  0  0
   45.4314   31.6615   49.2589 C   0  0  0  0  0  0  0  0  0  0  0  0
   46.0008   30.7037   48.4736 N   0  0  0  0  0  0  0  0  0  0  0  0
   46.3552   31.2264   47.2881 C   0  0  0  0  0  0  0  0  0  0  0  0
   46.9536   30.6026   46.2243 C   0  0  0  0  0  0  0  0  0  0  0  0
   46.5288   35.2080   42.4232 C   0  0  0  0  0  0  0  0  0  0  0  0
   47.7158   35.0577   41.7087 C   0  0  0  0  0  0  0  0  0  0  0  0
   48.6327   34.0953   42.1498 C   0  0  0  0  0  0  0  0  0  0  0  0
   48.3082   33.3607   43.2554 N   0  0  0  0  0  0  0  0  0  0  0  0
   47.1493   33.5283   43.9286 C   0  0  0  0  0  0  0  0  0  0  0  0
   46.2766   34.4442   43.5088 N   0  0  0  0  0  0  0  0  0  0  0  0
   47.6994   30.9151   44.2201 H   0  0  0  0  0  0  0  0  0  0  0  0
   45.0769   33.7647   48.8097 H   0  0  0  0  0  0  0  0  0  0  0  0
   45.0318   31.6014   50.2662 H   0  0  0  0  0  0  0  0  0  0  0  0
   47.2039   29.5511   46.2719 H   0  0  0  0  0  0  0  0  0  0  0  0
   45.7713   35.9429   42.1293 H   0  0  0  0  0  0  0  0  0  0  0  0
   47.9156   35.6641   40.8471 H   0  0  0  0  0  0  0  0  0  0  0  0
   49.5733   33.9393   41.6268 H   0  0  0  0  0  0  0  0  0  0  0  0
   44.5222   34.8919   46.1033 C   0  0  0  0  0  0  0  0  0  0  0  0
   45.8877   34.7103   46.2536 C   0  0  0  0  0  0  0  0  0  0  0  0
   46.7076   35.8162   46.4528 C   0  0  0  0  0  0  0  0  0  0  0  0
   47.7574   35.5666   46.5584 H   0  0  0  0  0  0  0  0  0  0  0  0
   46.1425   37.0655   46.4960 C   0  0  0  0  0  0  0  0  0  0  0  0
   46.7416   38.2490   46.6752 N   0  0  0  0  0  0  0  0  0  0  0  0
   47.7486   38.4464   46.8157 H   0  0  0  0  0  0  0  0  0  0  0  0
   45.7873   39.2154   46.6455 C   0  0  0  0  0  0  0  0  0  0  0  0
   45.9645   40.2578   46.7607 H   0  0  0  0  0  0  0  0  0  0  0  0
   44.5550   38.6069   46.4406 C   0  0  0  0  0  0  0  0  0  0  0  0
   44.7888   37.2557   46.3479 C   0  0  0  0  0  0  0  0  0  0  0  0
   43.9785   36.1728   46.1520 C   0  0  0  0  0  0  0  0  0  0  0  0
   43.7856   34.0987   45.9424 H   0  0  0  0  0  0  0  0  0  0  0  0
   43.5777   39.0820   46.3641 H   0  0  0  0  0  0  0  0  0  0  0  0
   42.9359   36.3717   46.0426 H   0  0  0  0  0  0  0  0  0  0  0  0
  1  2  2  0
  1  9  1  0
  2  3  1  0
  3  4  2  0
  4  5  1  0
  5  6  1  0
  7  6  2  0
  8  4  1  0
  8  7  1  0
  9  8  2  0
 10 15  2  0
 11 12  2  0
 11 10  1  0
 12 13  1  0
 13 14  2  0
 14  2  1  0
 15 14  1  0
  1 16  1  0
  5 17  1  0
  6 18  1  0
  9 19  1  0
 10 20  1  0
 11 21  1  0
 12 22  1  0
 23 24  2  0
 24 25  1  0
 25 26  1  0
 25 27  2  0
 27 28  1  0
 28 29  1  0
 28 30  1  0
 30 31  1  0
 30 32  2  0
 32 33  1  0
 33 34  2  0
 34 23  1  0
 33 27  1  0
 23 35  1  0
 32 36  1  0
 34 37  1  0
  3 24  1  0
M  ISO  8  16  14  17   9  18  14  19  14  20  14  21  14  22  14  26  15
M  ISO  2  29   5  31  14
M  END
>  <DihAtoms>  (1) 
1,2,23,22

>  <DihDeg>  (1) 
118.74568382501843

$$$$
