
     RDKit          3D

 37 41  0  0  0  0  0  0  0  0999 V2000
   47.2239   31.3679   45.0921 C   0  0  0  0  0  0  0  0  0  0  0  0
   46.8793   32.7081   45.0939 C   0  0  0  0  0  0  0  0  0  0  0  0
   46.2777   33.3148   46.1760 C   0  0  0  0  0  0  0  0  0  0  0  0
   45.9988   32.5555   47.3257 C   0  0  0  0  0  0  0  0  0  0  0  0
   45.4329   32.8172   48.5359 N   0  0  0  0  0  0  0  0  0  0  0  0
   45.4314   31.6615   49.2589 C   0  0  0  0  0  0  0  0  0  0  0  0
   46.0008   30.7037   48.4736 N   0  0  0  0  0  0  0  0  0  0  0  0
   46.3552   31.2264   47.2881 C   0  0  0  0  0  0  0  0  0  0  0  0
   46.9536   30.6026   46.2243 C   0  0  0  0  0  0  0  0  0  0  0  0
   46.5288   35.2080   42.4232 C   0  0  0  0  0  0  0  0  0  0  0  0
   47.7158   35.0577   41.7087 C   0  0  0  0  0  0  0  0  0  0  0  0
   48.6327   34.0953   42.1498 C   0  0  0  0  0  0  0  0  0  0  0  0
   48.3082   33.3607   43.2554 N   0  0  0  0  0  0  0  0  0  0  0  0
   47.1493   33.5283   43.9286 C   0  0  0  0  0  0  0  0  0  0  0  0
   46.2766   34.4442   43.5088 N   0  0  0  0  0  0  0  0  0  0  0  0
   47.6994   30.9151   44.2201 H   0  0  0  0  0  0  0  0  0  0  0  0
   45.0769   33.7647   48.8097 H   0  0  0  0  0  0  0  0  0  0  0  0
   45.0318   31.6014   50.2662 H   0  0  0  0  0  0  0  0  0  0  0  0
   47.2039   29.5511   46.2719 H   0  0  0  0  0  0  0  0  0  0  0  0
   45.7713   35.9429   42.1293 H   0  0  0  0  0  0  0  0  0  0  0  0
   47.9156   35.6641   40.8471 H   0  0  0  0  0  0  0  0  0  0  0  0
   49.5733   33.9393   41.6268 H   0  0  0  0  0  0  0  0  0  0  0  0
   45.8985   35.3369   45.0177 C   0  0  0  0  0  0  0  0  0  0  0  0
   45.8877   34.7103   46.2536 C   0  0  0  0  0  0  0  0  0  0  0  0
   45.5257   35.4341   47.3850 C   0  0  0  0  0  0  0  0  0  0  0  0
   45.5497   34.8528   48.2999 H   0  0  0  0  0  0  0  0  0  0  0  0
   45.1867   36.7564   47.2498 C   0  0  0  0  0  0  0  0  0  0  0  0
   44.8125   37.6252   48.1969 N   0  0  0  0  0  0  0  0  0  0  0  0
   44.7076   37.4631   49.2145 H   0  0  0  0  0  0  0  0  0  0  0  0
   44.5744   38.8232   47.6022 C   0  0  0  0  0  0  0  0  0  0  0  0
   44.2610   39.7071   48.1042 H   0  0  0  0  0  0  0  0  0  0  0  0
   44.8101   38.6894   46.2393 C   0  0  0  0  0  0  0  0  0  0  0  0
   45.1944   37.3869   46.0279 C   0  0  0  0  0  0  0  0  0  0  0  0
   45.5492   36.6806   44.9130 C   0  0  0  0  0  0  0  0  0  0  0  0
   46.1650   34.8680   44.0655 H   0  0  0  0  0  0  0  0  0  0  0  0
   44.7168   39.4503   45.4654 H   0  0  0  0  0  0  0  0  0  0  0  0
   45.5398   37.2136   43.9886 H   0  0  0  0  0  0  0  0  0  0  0  0
  1  2  2  0
  1  9  1  0
  2  3  1  0
  3  4  2  0
  4  5  1  0
  5  6  1  0
  7  6  2  0
  8  4  1  0
  8  7  1  0
  9  8  2  0
 10 15  2  0
 11 12  2  0
 11 10  1  0
 12 13  1  0
 13 14  2  0
 14  2  1  0
 15 14  1  0
  1 16  1  0
  5 17  1  0
  6 18  1  0
  9 19  1  0
 10 20  1  0
 11 21  1  0
 12 22  1  0
 23 24  2  0
 24 25  1  0
 25 26  1  0
 25 27  2  0
 27 28  1  0
 28 29  1  0
 28 30  1  0
 30 31  1  0
 30 32  2  0
 32 33  1  0
 33 34  2  0
 34 23  1  0
 33 27  1  0
 23 35  1  0
 32 36  1  0
 34 37  1  0
  3 24  1  0
M  ISO  8  16  14  17   9  18  14  19  14  20  14  21  14  22  14  26  15
M  ISO  2  29   5  31  14
M  END
>  <DihAtoms>  (1) 
1,2,23,22

>  <DihDeg>  (1) 
118.74568382501843

$$$$
