
     RDKit          3D

 51 54  0  0  0  0  0  0  0  0999 V2000
   47.1668   34.1535   43.0828 N   0  0  0  0  0  0  0  0  0  0  0  0
   46.6613   35.3595   42.5295 C   0  0  0  0  0  0  0  0  0  0  0  0
   45.1868   35.5977   42.7459 C   0  0  0  0  0  0  0  0  0  0  0  0
   44.6457   35.0429   44.0366 C   0  0  0  0  0  0  0  0  0  0  0  0
   45.7485   34.4715   44.8972 C   0  0  0  0  0  0  0  0  0  0  0  0
   46.4113   33.3960   43.9605 C   0  0  2  0  0  0  0  0  0  0  0  0
   48.1444   33.4961   42.2648 C   0  0  0  0  0  0  0  0  0  0  0  0
   47.4394   32.6502   41.2550 C   0  0  0  0  0  0  0  0  0  0  0  0
   49.3378   32.2812   38.0299 C   0  0  0  0  0  0  0  0  0  0  0  0
   48.8085   32.0193   39.3076 C   0  0  0  0  0  0  0  0  0  0  0  0
   47.9890   32.9446   39.9051 C   0  0  0  0  0  0  0  0  0  0  0  0
   47.7283   34.0728   39.2300 N   0  0  0  0  0  0  0  0  0  0  0  0
   48.2365   34.3217   38.0058 C   0  0  0  0  0  0  0  0  0  0  0  0
   49.0377   33.4391   37.3989 N   0  0  0  0  0  0  0  0  0  0  0  0
   47.2064   32.6950   44.8561 O   0  0  0  0  0  0  0  0  0  0  0  0
   45.9925   30.5450   43.8670 O   0  0  0  0  0  0  0  0  0  0  0  0
   46.6656   31.1259   45.1176 P   0  0  2  0  0  0  0  0  0  0  0  0
   45.4053   31.2436   46.2704 O   0  0  0  0  0  0  0  0  0  0  0  0
   47.8444   30.1323   45.7361 O   0  0  0  0  0  0  0  0  0  0  0  0
   47.1869   36.1913   43.0609 H   0  0  0  0  0  0  0  0  0  0  0  0
   46.8558   35.5150   41.4662 H   0  0  0  0  0  0  0  0  0  0  0  0
   45.0096   36.7126   42.7941 H   0  0  0  0  0  0  0  0  0  0  0  0
   44.5935   35.2545   41.8709 H   0  0  0  0  0  0  0  0  0  0  0  0
   44.0075   35.7239   44.6034 H   0  0  0  0  0  0  0  0  0  0  0  0
   43.9892   34.1786   43.7578 H   0  0  0  0  0  0  0  0  0  0  0  0
   46.5024   35.2025   45.1925 H   0  0  0  0  0  0  0  0  0  0  0  0
   45.3027   33.8820   45.7181 H   0  0  0  0  0  0  0  0  0  0  0  0
   45.5808   32.7795   43.5592 H   0  0  0  0  0  0  0  0  0  0  0  0
   48.8177   34.2583   41.8341 H   0  0  0  0  0  0  0  0  0  0  0  0
   48.7440   32.8235   42.9232 H   0  0  0  0  0  0  0  0  0  0  0  0
   47.5002   31.5676   41.4523 H   0  0  0  0  0  0  0  0  0  0  0  0
   46.3539   32.9198   41.2033 H   0  0  0  0  0  0  0  0  0  0  0  0
   49.9794   31.5633   37.5555 H   0  0  0  0  0  0  0  0  0  0  0  0
   49.0528   31.0891   39.8085 H   0  0  0  0  0  0  0  0  0  0  0  0
   47.9720   35.2614   37.5335 H   0  0  0  0  0  0  0  0  0  0  0  0
   44.7890   30.5015   46.1411 H   0  0  0  0  0  0  0  0  0  0  0  0
   49.1072   28.1882   45.3299 C   0  0  0  0  0  0  0  0  0  0  0  0
   47.8914   28.7665   45.6879 C   0  0  0  0  0  0  0  0  0  0  0  0
   46.8517   27.8898   45.9590 C   0  0  0  0  0  0  0  0  0  0  0  0
   45.9068   28.3406   46.2374 H   0  0  0  0  0  0  0  0  0  0  0  0
   46.9753   26.5316   45.8894 C   0  0  0  0  0  0  0  0  0  0  0  0
   46.1231   25.5246   46.1042 N   0  0  0  0  0  0  0  0  0  0  0  0
   45.1227   25.5886   46.3884 H   0  0  0  0  0  0  0  0  0  0  0  0
   46.7694   24.3695   45.8923 C   0  0  0  0  0  0  0  0  0  0  0  0
   46.3253   23.3851   45.9924 H   0  0  0  0  0  0  0  0  0  0  0  0
   48.0845   24.5917   45.5265 C   0  0  0  0  0  0  0  0  0  0  0  0
   48.1877   25.9731   45.5328 C   0  0  0  0  0  0  0  0  0  0  0  0
   49.2463   26.8273   45.2558 C   0  0  0  0  0  0  0  0  0  0  0  0
   49.9525   28.8068   45.1070 H   0  0  0  0  0  0  0  0  0  0  0  0
   48.8657   23.8773   45.2878 H   0  0  0  0  0  0  0  0  0  0  0  0
   50.1804   26.3599   44.9801 H   0  0  0  0  0  0  0  0  0  0  0  0
  1  6  1  0
  2  3  1  0
  2  1  1  0
  3  4  1  0
  4  5  1  0
  6 15  1  0
  6  5  1  0
  7  1  1  0
  8  7  1  0
  9 10  2  0
 10 11  1  0
 11  8  1  0
 12 11  2  0
 13 12  1  0
 14 13  2  0
 14  9  1  0
 17 15  1  6
 16 17  2  0
 17 19  1  0
 17 18  1  0
  2 20  1  0
  2 21  1  0
  3 22  1  0
  3 23  1  0
  4 24  1  0
  4 25  1  0
  5 26  1  0
  5 27  1  0
  6 28  1  6
  7 29  1  0
  7 30  1  0
  8 31  1  0
  8 32  1  0
  9 33  1  0
 10 34  1  0
 13 35  1  0
 18 36  1  0
 37 38  2  0
 38 39  1  0
 39 40  1  0
 39 41  2  0
 41 42  1  0
 42 43  1  0
 42 44  1  0
 44 45  1  0
 44 46  2  0
 46 47  1  0
 47 48  2  0
 48 37  1  0
 47 41  1  0
 37 49  1  0
 46 50  1  0
 48 51  1  0
 19 38  1  0
M  ISO  8  20  13  21  13  22  13  23  13  24  13  25  13  26  13  27  13
M  ISO  8  28  13  29   8  30   8  31   8  32   8  33  14  34  14  35  14
M  ISO  4  36   3  40  15  43   5  45  14
M  END
>  <DihAtoms>  (1) 
16,18,37,36

>  <DihDeg>  (1) 
-90.47729067678837

$$$$
