
     RDKit          3D

 23 24  0  0  0  0  0  0  0  0999 V2000
   44.5506   36.0444   44.4901 C   0  0  0  0  0  0  0  0  0  0  0  0
   45.2234   35.9379   43.2435 C   0  0  0  0  0  0  0  0  0  0  0  0
   46.0849   34.8728   43.0283 C   0  0  0  0  0  0  0  0  0  0  0  0
   46.2361   33.9819   44.0375 N   0  0  0  0  0  0  0  0  0  0  0  0
   45.5946   34.0943   45.2100 C   0  0  0  0  0  0  0  0  0  0  0  0
   44.7620   35.1156   45.4298 N   0  0  0  0  0  0  0  0  0  0  0  0
   46.7814   34.7707   41.7250 C   0  0  0  0  0  0  0  0  0  0  0  0
   48.1850   35.3074   41.8769 C   0  0  0  0  0  0  0  0  0  0  0  0
   43.8881   36.8916   44.6135 H   0  0  0  0  0  0  0  0  0  0  0  0
   45.0965   36.6595   42.4353 H   0  0  0  0  0  0  0  0  0  0  0  0
   45.7617   33.3448   45.9758 H   0  0  0  0  0  0  0  0  0  0  0  0
   46.7751   33.7337   41.3861 H   0  0  0  0  0  0  0  0  0  0  0  0
   46.2347   35.3641   40.9749 H   0  0  0  0  0  0  0  0  0  0  0  0
   48.7235   34.6106   42.5839 H   0  0  0  0  0  0  0  0  0  0  0  0
   48.2250   36.2966   42.3254 H   0  0  0  0  0  0  0  0  0  0  0  0
   48.9196   35.2282   40.6076 C   0  0  0  0  0  0  0  0  0  0  0  0
   50.2652   35.3414   40.3459 C   0  0  0  0  0  0  0  0  0  0  0  0
   50.9209   35.5155   41.1845 H   0  0  0  0  0  0  0  0  0  0  0  0
   50.7169   35.2334   39.0709 C   0  0  0  0  0  0  0  0  0  0  0  0
   49.6846   34.9981   38.0664 C   0  0  0  0  0  0  0  0  0  0  0  0
   48.1263   34.9549   39.0845 S   0  0  0  0  0  0  0  0  0  0  0  0
   51.7526   35.3096   38.7795 H   0  0  0  0  0  0  0  0  0  0  0  0
   49.9900   34.8964   36.9709 H   0  0  0  0  0  0  0  0  0  0  0  0
  1  6  2  0
  2  1  1  0
  3  2  2  0
  3  4  1  0
  4  5  2  0
  5  6  1  0
  7  8  1  0
  7  3  1  0
  1  9  1  0
  2 10  1  0
  5 11  1  0
  7 12  1  0
  7 13  1  0
  8 14  1  0
  8 15  1  0
 16 17  2  0
 17 18  1  0
 17 19  1  0
 19 20  2  0
 20 21  1  0
 21 16  1  0
 19 22  1  0
 20 23  1  0
  8 16  1  0
M  ISO  8   9  14  10  14  11  14  12   8  13   8  14   8  15   8  18  15
M  END
>  <DihAtoms>  (1) 
6,7,15,16

>  <DihDeg>  (1) 
-90.18205544965387

$$$$
