
     RDKit          3D

 24 25  0  0  0  0  0  0  0  0999 V2000
   46.8570   34.9410   42.7540 C   0  0  0  0  0  0  0  0  0  0  0  0
   45.5890   34.3420   42.3150 C   0  0  0  0  0  0  0  0  0  0  0  0
   45.2990   33.0950   42.8610 C   0  0  0  0  0  0  0  0  0  0  0  0
   44.1120   32.4650   42.4890 C   0  0  0  0  0  0  0  0  0  0  0  0
   43.2690   33.0930   41.5990 N   0  0  0  0  0  0  0  0  0  0  0  0
   43.6020   34.3010   41.1030 C   0  0  0  0  0  0  0  0  0  0  0  0
   44.7350   34.9130   41.4510 N   0  0  0  0  0  0  0  0  0  0  0  0
   46.4060   32.2970   44.0140 S   0  0  0  0  0  0  0  0  0  0  0  0
   47.8040   35.2600   41.6230 C   0  0  0  0  0  0  0  0  0  0  0  0
   48.8930   34.2640   41.6850 C   0  0  0  0  0  0  0  0  0  0  0  0
   50.0490   34.2910   42.4170 C   0  0  0  0  0  0  0  0  0  0  0  0
   50.9420   33.2880   42.3550 C   0  0  0  0  0  0  0  0  0  0  0  0
   50.5160   32.1910   41.4230 C   0  0  0  0  0  0  0  0  0  0  0  0
   48.8510   32.8030   40.7670 S   0  0  0  0  0  0  0  0  0  0  0  0
   46.6320   35.8740   43.2915 H   0  0  0  0  0  0  0  0  0  0  0  0
   47.3584   34.1980   43.3917 H   0  0  0  0  0  0  0  0  0  0  0  0
   43.8521   31.4788   42.9012 H   0  0  0  0  0  0  0  0  0  0  0  0
   42.9222   34.7949   40.3931 H   0  0  0  0  0  0  0  0  0  0  0  0
   46.0127   32.5805   45.2954 H   0  0  0  0  0  0  0  0  0  0  0  0
   48.2112   36.2746   41.7447 H   0  0  0  0  0  0  0  0  0  0  0  0
   47.2876   35.2206   40.6526 H   0  0  0  0  0  0  0  0  0  0  0  0
   50.2519   35.1523   43.0704 H   0  0  0  0  0  0  0  0  0  0  0  0
   51.8826   33.2728   42.9252 H   0  0  0  0  0  0  0  0  0  0  0  0
   51.0443   31.2572   41.1803 H   0  0  0  0  0  0  0  0  0  0  0  0
  2  1  1  0
  2  3  2  0
  3  8  1  0
  4  3  1  0
  5  4  2  0
  6  7  2  0
  6  5  1  0
  7  2  1  0
  9 10  1  0
  9  1  1  0
 10 11  2  0
 12 11  1  0
 13 12  2  0
 14 13  1  0
 14 10  1  0
  1 15  1  0
  1 16  1  0
  4 17  1  0
  6 18  1  0
  8 19  1  0
  9 20  1  0
  9 21  1  0
 11 22  1  0
 12 23  1  0
 13 24  1  0
M  ISO  8  15   8  16   8  17  14  18  14  19  11  20   8  21   8  22  14
M  ISO  2  23  14  24  14
M  END
>  <minimizedAffinity>  (1) 
-3.65549135

>  <minimizedRMSD>  (1) 
3.83888602

$$$$
