
     RDKit          3D

 40 42  0  0  0  0  0  0  0  0999 V2000
   45.0910   35.7110   43.4920 C   0  0  0  0  0  0  0  0  0  0  0  0
   46.0070   34.6270   43.5590 C   0  0  0  0  0  0  0  0  0  0  0  0
   46.1150   33.9390   44.7550 C   0  0  0  0  0  0  0  0  0  0  0  0
   45.3410   34.3290   45.8120 N   0  0  0  0  0  0  0  0  0  0  0  0
   44.4830   35.3570   45.7230 C   0  0  0  0  0  0  0  0  0  0  0  0
   44.3600   36.0410   44.5750 N   0  0  0  0  0  0  0  0  0  0  0  0
   46.7260   34.3600   42.3760 N   0  0  0  0  0  0  0  0  0  0  0  0
   47.9220   35.0960   41.9780 C   0  0  0  0  0  0  0  0  0  0  0  0
   48.5210   34.4890   40.7460 C   0  0  0  0  0  0  0  0  0  0  0  0
   47.5770   34.2860   39.6940 N   0  0  0  0  0  0  0  0  0  0  0  0
   46.3440   33.6630   40.0620 C   0  0  0  0  0  0  0  0  0  0  0  0
   46.2460   33.2940   41.5100 C   0  0  0  0  0  0  0  0  0  0  0  0
   47.0130   32.8930   44.7860 O   0  0  0  0  0  0  0  0  0  0  0  0
   45.4200   30.7830   44.4520 O   0  0  0  0  0  0  0  0  0  0  0  0
   46.4900   31.3580   45.3860 P   0  0  1  0  0  0  0  0  0  0  0  0
   47.8010   30.3500   45.5120 O   0  0  0  0  0  0  0  0  0  0  0  0
   48.7420   29.9750   44.7260 C   0  0  0  0  0  0  0  0  0  0  0  0
   49.0940   30.2830   43.3900 C   0  0  0  0  0  0  0  0  0  0  0  0
   50.1890   29.7040   42.8120 C   0  0  0  0  0  0  0  0  0  0  0  0
   50.9690   28.7870   43.5710 C   0  0  0  0  0  0  0  0  0  0  0  0
   50.0830   28.7380   45.2470 S   0  0  0  0  0  0  0  0  0  0  0  0
   45.7520   31.6490   46.8780 O   0  0  0  0  0  0  0  0  0  0  0  0
   46.6670   31.7990   47.9080 C   0  0  0  0  0  0  0  0  0  0  0  0
   47.7140   32.6490   47.5950 F   0  0  0  0  0  0  0  0  0  0  0  0
   47.1860   30.6240   48.3800 F   0  0  0  0  0  0  0  0  0  0  0  0
   45.9570   32.3650   48.9630 F   0  0  0  0  0  0  0  0  0  0  0  0
   44.9786   36.2801   42.5574 H   0  0  0  0  0  0  0  0  0  0  0  0
   43.8770   35.6406   46.5961 H   0  0  0  0  0  0  0  0  0  0  0  0
   47.6524   36.1425   41.7725 H   0  0  0  0  0  0  0  0  0  0  0  0
   48.6584   35.0495   42.7938 H   0  0  0  0  0  0  0  0  0  0  0  0
   49.3134   35.1576   40.3785 H   0  0  0  0  0  0  0  0  0  0  0  0
   48.9081   33.4989   41.0287 H   0  0  0  0  0  0  0  0  0  0  0  0
   48.0258   33.6959   38.9790 H   0  0  0  0  0  0  0  0  0  0  0  0
   45.5240   34.3577   39.8276 H   0  0  0  0  0  0  0  0  0  0  0  0
   46.2850   32.7231   39.4936 H   0  0  0  0  0  0  0  0  0  0  0  0
   45.1937   33.0851   41.7532 H   0  0  0  0  0  0  0  0  0  0  0  0
   46.8759   32.4082   41.6791 H   0  0  0  0  0  0  0  0  0  0  0  0
   48.4826   30.9927   42.8134 H   0  0  0  0  0  0  0  0  0  0  0  0
   50.4636   29.9436   41.7741 H   0  0  0  0  0  0  0  0  0  0  0  0
   51.8701   28.2381   43.2600 H   0  0  0  0  0  0  0  0  0  0  0  0
  1  2  2  0
  1  6  1  0
  2  3  1  0
  3 13  1  0
  3  4  2  0
  5  4  1  0
  6  5  2  0
  7  2  1  0
  8  7  1  0
  9  8  1  0
 10 11  1  0
 10  9  1  0
 11 12  1  0
 12  7  1  0
 13 15  1  0
 15 14  2  0
 15 16  1  0
 15 22  1  0
 17 21  1  0
 17 16  1  0
 18 17  2  0
 19 18  1  0
 19 20  2  0
 20 21  1  0
 22 23  1  0
 23 25  1  0
 23 26  1  0
 24 23  1  0
  1 27  1  0
  5 28  1  0
  8 29  1  0
  8 30  1  0
  9 31  1  0
  9 32  1  0
 10 33  1  0
 11 34  1  0
 11 35  1  0
 12 36  1  0
 12 37  1  0
 18 38  1  0
 19 39  1  0
 20 40  1  0
M  ISO  8  27  14  28  14  29  13  30  13  31  13  32  13  33   5  34  13
M  ISO  6  35  13  36  13  37  13  38  14  39  14  40  14
M  END
>  <minimizedAffinity>  (1) 
-4.93196106

>  <minimizedRMSD>  (1) 
0.809702039

$$$$
