
     RDKit          3D

 33 35  0  0  0  0  0  0  0  0999 V2000
   46.3020   31.9930   47.2650 C   0  0  0  0  0  0  0  0  0  0  0  0
   45.2790   32.2750   48.1710 C   0  0  0  0  0  0  0  0  0  0  0  0
   44.7030   31.3440   49.0110 C   0  0  0  0  0  0  0  0  0  0  0  0
   45.1710   30.0690   48.9370 C   0  0  0  0  0  0  0  0  0  0  0  0
   46.1730   29.8030   48.0500 C   0  0  0  0  0  0  0  0  0  0  0  0
   46.7870   30.7420   47.1810 C   0  0  0  0  0  0  0  0  0  0  0  0
   47.9970   30.0420   46.6110 C   0  0  0  0  0  0  0  0  0  0  0  0
   48.9930   29.6040   47.3810 C   0  0  0  0  0  0  0  0  0  0  0  0
   50.0440   28.9270   47.0030 C   0  0  0  0  0  0  0  0  0  0  0  0
   50.0540   28.6730   45.6270 C   0  0  0  0  0  0  0  0  0  0  0  0
   48.4650   29.4890   45.0360 S   0  0  0  0  0  0  0  0  0  0  0  0
   46.9080   32.9170   46.3020 C   0  0  0  0  0  0  0  0  0  0  0  0
   46.4060   32.7220   44.9140 C   0  0  0  0  0  0  0  0  0  0  0  0
   44.5210   35.9170   44.7340 C   0  0  0  0  0  0  0  0  0  0  0  0
   44.8890   36.4160   43.4740 C   0  0  0  0  0  0  0  0  0  0  0  0
   45.7690   35.6390   42.7490 C   0  0  0  0  0  0  0  0  0  0  0  0
   46.2170   34.4890   43.2520 N   0  0  0  0  0  0  0  0  0  0  0  0
   45.8270   34.0520   44.4820 C   0  0  0  0  0  0  0  0  0  0  0  0
   44.9940   34.7540   45.2100 N   0  0  0  0  0  0  0  0  0  0  0  0
   44.9067   33.3090   48.2189 H   0  0  0  0  0  0  0  0  0  0  0  0
   43.9002   31.6209   49.7101 H   0  0  0  0  0  0  0  0  0  0  0  0
   44.7536   29.2752   49.5739 H   0  0  0  0  0  0  0  0  0  0  0  0
   46.5381   28.7664   48.0043 H   0  0  0  0  0  0  0  0  0  0  0  0
   48.9219   29.8387   48.4533 H   0  0  0  0  0  0  0  0  0  0  0  0
   50.8347   28.5931   47.6910 H   0  0  0  0  0  0  0  0  0  0  0  0
   50.8061   28.1297   45.0360 H   0  0  0  0  0  0  0  0  0  0  0  0
   46.6824   33.9472   46.6149 H   0  0  0  0  0  0  0  0  0  0  0  0
   47.9899   32.7187   46.2916 H   0  0  0  0  0  0  0  0  0  0  0  0
   47.2314   32.4312   44.2476 H   0  0  0  0  0  0  0  0  0  0  0  0
   45.6507   31.9235   44.8701 H   0  0  0  0  0  0  0  0  0  0  0  0
   43.8214   36.4988   45.3521 H   0  0  0  0  0  0  0  0  0  0  0  0
   44.4990   37.3694   43.0881 H   0  0  0  0  0  0  0  0  0  0  0  0
   46.1015   35.9694   41.7539 H   0  0  0  0  0  0  0  0  0  0  0  0
  1  2  2  0
  2  3  1  0
  4  3  2  0
  5  4  1  0
  6  1  1  0
  6  5  2  0
  7  6  1  0
  7  8  2  0
  9  8  1  0
 10  9  2  0
 11 10  1  0
 11  7  1  0
 12  1  1  0
 13 12  1  0
 14 19  2  0
 15 14  1  0
 16 17  1  0
 16 15  2  0
 17 18  2  0
 18 13  1  0
 18 19  1  0
  2 20  1  0
  3 21  1  0
  4 22  1  0
  5 23  1  0
  8 24  1  0
  9 25  1  0
 10 26  1  0
 12 27  1  0
 12 28  1  0
 13 29  1  0
 13 30  1  0
 14 31  1  0
 15 32  1  0
 16 33  1  0
M  ISO  8  20  14  21  14  22  14  23  14  24  14  25  14  26  14  27   8
M  ISO  6  28   8  29   8  30   8  31  14  32  14  33  14
M  END
>  <minimizedAffinity>  (1) 
-4.85300255

>  <minimizedRMSD>  (1) 
1.64446568

$$$$
