
     RDKit          3D

 33 36  0  0  0  0  0  0  0  0999 V2000
   43.9280   35.1190   41.4470 C   0  0  0  0  0  0  0  0  0  0  0  0
   44.2730   34.3500   40.3660 C   0  0  0  0  0  0  0  0  0  0  0  0
   43.3070   33.9780   39.4530 C   0  0  0  0  0  0  0  0  0  0  0  0
   41.9860   34.3490   39.5810 C   0  0  0  0  0  0  0  0  0  0  0  0
   41.1260   33.9330   38.6380 N   0  0  0  0  0  0  0  0  0  0  0  0
   39.8180   34.2860   38.7400 C   0  0  0  0  0  0  0  0  0  0  0  0
   39.4250   35.0540   39.8040 C   0  0  0  0  0  0  0  0  0  0  0  0
   40.3290   35.4820   40.7840 C   0  0  0  0  0  0  0  0  0  0  0  0
   41.6630   35.1160   40.6690 C   0  0  0  0  0  0  0  0  0  0  0  0
   42.5960   35.5150   41.6100 C   0  0  0  0  0  0  0  0  0  0  0  0
   44.7640   35.5870   42.4660 O   0  0  0  0  0  0  0  0  0  0  0  0
   44.5780   35.4380   44.9160 C   0  0  0  0  0  0  0  0  0  0  0  0
   44.9730   34.9510   43.6560 C   0  0  0  0  0  0  0  0  0  0  0  0
   45.6380   33.7030   43.6380 C   0  0  0  0  0  0  0  0  0  0  0  0
   45.8470   33.0680   44.8170 N   0  0  0  0  0  0  0  0  0  0  0  0
   45.4540   33.5670   46.0020 C   0  0  0  0  0  0  0  0  0  0  0  0
   44.8140   34.7670   46.0290 N   0  0  0  0  0  0  0  0  0  0  0  0
   45.7620   32.7570   47.1210 C   0  0  0  0  0  0  0  0  0  0  0  0
   45.0200   32.4540   48.2370 C   0  0  0  0  0  0  0  0  0  0  0  0
   45.5350   31.6340   49.2080 C   0  0  0  0  0  0  0  0  0  0  0  0
   46.8630   31.1430   48.9620 C   0  0  0  0  0  0  0  0  0  0  0  0
   47.3220   31.8750   47.3490 S   0  0  0  0  0  0  0  0  0  0  0  0
   45.3163   34.0304   40.2266 H   0  0  0  0  0  0  0  0  0  0  0  0
   43.6027   33.3622   38.5908 H   0  0  0  0  0  0  0  0  0  0  0  0
   39.0889   33.9614   37.9830 H   0  0  0  0  0  0  0  0  0  0  0  0
   38.3673   35.3433   39.8912 H   0  0  0  0  0  0  0  0  0  0  0  0
   39.9881   36.0972   41.6298 H   0  0  0  0  0  0  0  0  0  0  0  0
   42.2960   36.1319   42.4699 H   0  0  0  0  0  0  0  0  0  0  0  0
   44.0577   36.4053   44.9756 H   0  0  0  0  0  0  0  0  0  0  0  0
   45.9772   33.2587   42.6906 H   0  0  0  0  0  0  0  0  0  0  0  0
   44.0086   32.8709   48.3520 H   0  0  0  0  0  0  0  0  0  0  0  0
   44.9698   31.3699   50.1140 H   0  0  0  0  0  0  0  0  0  0  0  0
   47.4661   30.4786   49.5983 H   0  0  0  0  0  0  0  0  0  0  0  0
  1 10  1  0
  1 11  1  0
  2  1  2  0
  3  4  2  0
  3  2  1  0
  4  9  1  0
  5  6  2  0
  5  4  1  0
  6  7  1  0
  7  8  2  0
  9  8  1  0
  9 10  2  0
 11 13  1  0
 12 17  2  0
 13 12  1  0
 14 13  2  0
 14 15  1  0
 15 16  2  0
 16 17  1  0
 16 18  1  0
 18 22  1  0
 18 19  2  0
 19 20  1  0
 21 20  2  0
 22 21  1  0
  2 23  1  0
  3 24  1  0
  6 25  1  0
  7 26  1  0
  8 27  1  0
 10 28  1  0
 12 29  1  0
 14 30  1  0
 19 31  1  0
 20 32  1  0
 21 33  1  0
M  ISO  8  23  14  24  14  25  14  26  14  27  14  28  14  29  14  30  14
M  ISO  3  31  14  32  14  33  14
M  END
>  <minimizedAffinity>  (1) 
-6.59572935

>  <minimizedRMSD>  (1) 
0.995154381

$$$$
