
     RDKit          3D

 25 27  0  0  0  0  0  0  0  0999 V2000
   45.3252   33.2325   47.3807 C   0  0  0  0  0  0  0  0  0  0  0  0
   45.7998   33.3349   46.0781 C   0  0  0  0  0  0  0  0  0  0  0  0
   46.8938   32.4915   45.7637 C   0  0  0  0  0  0  0  0  0  0  0  0
   47.3953   31.6654   46.7138 N   0  0  0  0  0  0  0  0  0  0  0  0
   46.8841   31.6198   47.9552 C   0  0  0  0  0  0  0  0  0  0  0  0
   45.8323   32.4122   48.3038 N   0  0  0  0  0  0  0  0  0  0  0  0
   45.2156   34.2399   45.1165 C   0  0  0  0  0  0  0  0  0  0  0  0
   45.2073   34.0320   43.7685 C   0  0  0  0  0  0  0  0  0  0  0  0
   44.5569   35.1322   43.2515 C   0  0  0  0  0  0  0  0  0  0  0  0
   44.1866   35.9738   44.2578 N   0  0  0  0  0  0  0  0  0  0  0  0
   44.5983   35.4111   45.3928 N   0  0  0  0  0  0  0  0  0  0  0  0
   44.2538   34.0487   47.7126 O   0  0  0  0  0  0  0  0  0  0  0  0
   47.2627   32.5710   44.7513 H   0  0  0  0  0  0  0  0  0  0  0  0
   47.3481   30.9320   48.6439 H   0  0  0  0  0  0  0  0  0  0  0  0
   45.5873   33.2362   43.1465 H   0  0  0  0  0  0  0  0  0  0  0  0
   44.3176   35.3991   42.2286 H   0  0  0  0  0  0  0  0  0  0  0  0
   43.6855   36.8887   44.2651 H   0  0  0  0  0  0  0  0  0  0  0  0
   43.6488   34.1155   48.8813 C   0  0  0  0  0  0  0  0  0  0  0  0
   43.6311   35.0011   49.9302 C   0  0  0  0  0  0  0  0  0  0  0  0
   44.2473   35.8694   49.8149 H   0  0  0  0  0  0  0  0  0  0  0  0
   42.8727   34.7512   51.0122 C   0  0  0  0  0  0  0  0  0  0  0  0
   42.0695   33.5091   51.0356 C   0  0  0  0  0  0  0  0  0  0  0  0
   42.5217   32.7544   49.3531 S   0  0  0  0  0  0  0  0  0  0  0  0
   42.8065   35.3974   51.8736 H   0  0  0  0  0  0  0  0  0  0  0  0
   41.4335   33.2404   51.8752 H   0  0  0  0  0  0  0  0  0  0  0  0
  1 12  1  0
  1  6  2  0
  2  1  1  0
  3  2  2  0
  3  4  1  0
  4  5  2  0
  5  6  1  0
  7 11  2  0
  7  2  1  0
  8  7  1  0
  9  8  2  0
  9 10  1  0
 10 11  1  0
  3 13  1  0
  5 14  1  0
  8 15  1  0
  9 16  1  0
 10 17  1  0
 18 19  2  0
 19 20  1  0
 19 21  1  0
 21 22  2  0
 22 23  1  0
 23 18  1  0
 21 24  1  0
 22 25  1  0
 12 18  1  0
M  ISO  6  13  14  14  14  15  14  16  14  17   9  20  15
M  END
>  <DihAtoms>  (1) 
0,11,17,18

>  <DihDeg>  (1) 
-179.99912944649915

$$$$
