
     RDKit          3D

 24 26  0  0  0  0  0  0  0  0999 V2000
   44.5929   35.8895   44.3322 C   0  0  0  0  0  0  0  0  0  0  0  0
   45.3333   35.9187   43.1304 C   0  0  0  0  0  0  0  0  0  0  0  0
   46.2919   34.9477   43.0149 C   0  0  0  0  0  0  0  0  0  0  0  0
   46.4544   34.0467   44.0507 N   0  0  0  0  0  0  0  0  0  0  0  0
   45.7332   34.0517   45.1735 C   0  0  0  0  0  0  0  0  0  0  0  0
   44.7956   34.9987   45.2881 N   0  0  0  0  0  0  0  0  0  0  0  0
   47.0865   34.7813   41.7389 C   0  0  0  0  0  0  0  0  0  0  0  0
   48.4564   35.4609   41.8696 C   0  0  0  0  0  0  0  0  0  0  0  0
   48.2527   33.9190   41.7597 C   0  0  0  0  0  0  0  0  0  0  0  0
   43.8250   36.6010   44.5187 H   0  0  0  0  0  0  0  0  0  0  0  0
   46.0513   33.2512   45.8200 H   0  0  0  0  0  0  0  0  0  0  0  0
   46.5794   35.2438   40.8653 H   0  0  0  0  0  0  0  0  0  0  0  0
   48.9275   35.9219   40.9994 H   0  0  0  0  0  0  0  0  0  0  0  0
   48.8121   35.7868   42.8597 H   0  0  0  0  0  0  0  0  0  0  0  0
   48.4334   33.3377   42.6793 H   0  0  0  0  0  0  0  0  0  0  0  0
   48.5558   33.4813   40.7843 H   0  0  0  0  0  0  0  0  0  0  0  0
   45.0984   36.9047   42.1340 C   0  0  0  0  0  0  0  0  0  0  0  0
   45.4911   38.2321   42.3696 C   0  0  0  0  0  0  0  0  0  0  0  0
   45.9758   38.7036   43.2131 H   0  0  0  0  0  0  0  0  0  0  0  0
   45.3020   39.2224   41.4843 C   0  0  0  0  0  0  0  0  0  0  0  0
   44.6680   38.8870   40.2478 C   0  0  0  0  0  0  0  0  0  0  0  0
   44.3927   37.0430   40.5157 S   0  0  0  0  0  0  0  0  0  0  0  0
   45.4213   40.2547   41.2584 H   0  0  0  0  0  0  0  0  0  0  0  0
   44.2055   38.9657   39.1930 H   0  0  0  0  0  0  0  0  0  0  0  0
  1  6  2  0
  2  1  1  0
  3  2  2  0
  3  4  1  0
  4  5  2  0
  5  6  1  0
  7  8  1  0
  7  9  1  0
  7  3  1  0
  8  9  1  0
  1 10  1  0
  5 11  1  0
  7 12  1  0
  8 13  1  0
  8 14  1  0
  9 15  1  0
  9 16  1  0
 17 18  2  0
 18 19  1  0
 18 20  1  0
 20 21  2  0
 21 22  1  0
 22 17  1  0
 20 23  1  0
 21 24  1  0
  2 17  1  0
M  ISO  8  10  14  11  14  12  13  13  13  14  13  15  13  16  13  19  15
M  END
>  <DihAtoms>  (1) 
0,1,16,17

>  <DihDeg>  (1) 
-3.4460698843327418

$$$$
