
     RDKit          3D

 48 52  0  0  0  0  0  0  0  0999 V2000
   45.7477   33.1310   46.2325 C   0  0  0  0  0  0  0  0  0  0  0  0
   45.9119   31.9422   45.8297 C   0  0  0  0  0  0  0  0  0  0  0  0
   44.5414   36.1466   44.4904 C   0  0  0  0  0  0  0  0  0  0  0  0
   45.2134   36.0970   43.2751 C   0  0  0  0  0  0  0  0  0  0  0  0
   46.0480   35.0399   43.0921 C   0  0  0  0  0  0  0  0  0  0  0  0
   46.1926   34.1010   44.0687 N   0  0  0  0  0  0  0  0  0  0  0  0
   45.5245   34.1812   45.2364 C   0  0  0  0  0  0  0  0  0  0  0  0
   44.7108   35.2092   45.4170 N   0  0  0  0  0  0  0  0  0  0  0  0
   46.8192   34.8544   41.8664 C   0  0  0  0  0  0  0  0  0  0  0  0
   48.0592   35.4109   41.6396 C   0  0  0  0  0  0  0  0  0  0  0  0
   48.7719   35.2198   40.4718 C   0  0  0  0  0  0  0  0  0  0  0  0
   48.2541   34.4457   39.4657 C   0  0  0  0  0  0  0  0  0  0  0  0
   47.0235   33.8712   39.6449 C   0  0  0  0  0  0  0  0  0  0  0  0
   46.3365   34.0839   40.8289 C   0  0  0  0  0  0  0  0  0  0  0  0
   46.0897   30.8976   46.9097 C   0  0  0  0  0  0  0  0  0  0  0  0
   45.8917   31.5003   48.2601 C   0  0  1  0  0  0  0  0  0  0  0  0
   45.7119   30.5146   49.3638 C   0  0  0  0  0  0  0  0  0  0  0  0
   46.9215   31.3352   49.3055 C   0  0  1  0  0  0  0  0  0  0  0  0
   48.2405   30.7529   48.9052 C   0  0  2  0  0  0  0  0  0  0  0  0
   49.1942   30.4700   50.0878 C   0  0  0  0  0  0  0  0  0  0  0  0
   49.4928   31.5834   49.1686 C   0  0  1  0  0  0  0  0  0  0  0  0
   45.7476   33.6040   47.2040 H   0  0  0  0  0  0  0  0  0  0  0  0
   45.9033   31.6384   44.7989 H   0  0  0  0  0  0  0  0  0  0  0  0
   43.8581   36.9492   44.7238 H   0  0  0  0  0  0  0  0  0  0  0  0
   45.0801   36.8534   42.5206 H   0  0  0  0  0  0  0  0  0  0  0  0
   48.4809   36.0286   42.4312 H   0  0  0  0  0  0  0  0  0  0  0  0
   49.7257   35.6964   40.3963 H   0  0  0  0  0  0  0  0  0  0  0  0
   48.7829   34.2750   38.5416 H   0  0  0  0  0  0  0  0  0  0  0  0
   46.5684   33.2521   38.8843 H   0  0  0  0  0  0  0  0  0  0  0  0
   45.3643   33.6127   40.9357 H   0  0  0  0  0  0  0  0  0  0  0  0
   47.0462   30.4510   46.6898 H   0  0  0  0  0  0  0  0  0  0  0  0
   45.2412   30.1815   46.7328 H   0  0  0  0  0  0  0  0  0  0  0  0
   45.0627   32.2660   48.3275 H   0  0  0  0  0  0  0  0  0  0  0  0
   45.0277   30.6588   50.1988 H   0  0  0  0  0  0  0  0  0  0  0  0
   45.8812   29.4289   49.1441 H   0  0  0  0  0  0  0  0  0  0  0  0
   46.9886   32.1855   50.0155 H   0  0  0  0  0  0  0  0  0  0  0  0
   48.2860   29.9199   48.1952 H   0  0  0  0  0  0  0  0  0  0  0  0
   48.8210   30.6792   51.0923 H   0  0  0  0  0  0  0  0  0  0  0  0
   49.8914   29.6290   50.0477 H   0  0  0  0  0  0  0  0  0  0  0  0
   49.3397   32.5893   49.6139 H   0  0  0  0  0  0  0  0  0  0  0  0
   50.4174   31.5280   48.0799 C   0  0  0  0  0  0  0  0  0  0  0  0
   50.9167   30.5396   47.3614 C   0  0  0  0  0  0  0  0  0  0  0  0
   50.6615   29.4939   47.4728 H   0  0  0  0  0  0  0  0  0  0  0  0
   51.8240   30.7054   46.3547 C   0  0  0  0  0  0  0  0  0  0  0  0
   52.2214   32.0397   46.1053 C   0  0  0  0  0  0  0  0  0  0  0  0
   51.2351   33.0778   47.3846 S   0  0  0  0  0  0  0  0  0  0  0  0
   52.3618   30.1018   45.6505 H   0  0  0  0  0  0  0  0  0  0  0  0
   52.8358   32.7608   45.5180 H   0  0  0  0  0  0  0  0  0  0  0  0
  2  1  2  0
  2 15  1  0
  3  8  2  0
  4  3  1  0
  5  4  2  0
  5  6  1  0
  6  7  2  0
  7  8  1  0
  7  1  1  0
  9  5  1  0
 10  9  2  0
 11 10  1  0
 12 13  1  0
 12 11  2  0
 13 14  2  0
 14  9  1  0
 15 16  1  0
 16 18  1  0
 16 17  1  0
 18 17  1  0
 19 21  1  0
 19 18  1  0
 19 20  1  0
 21 20  1  0
  1 22  1  0
  2 23  1  0
  3 24  1  0
  4 25  1  0
 10 26  1  0
 11 27  1  0
 12 28  1  0
 13 29  1  0
 14 30  1  0
 15 31  1  0
 15 32  1  0
 16 33  1  6
 17 34  1  0
 17 35  1  0
 18 36  1  1
 19 37  1  6
 20 38  1  0
 20 39  1  0
 21 40  1  1
 41 42  2  0
 42 43  1  0
 42 44  1  0
 44 45  2  0
 45 46  1  0
 46 41  1  0
 44 47  1  0
 45 48  1  0
 21 41  1  0
M  ISO  8  24  14  25  14  26  14  27  14  28  14  29  14  30  14  31   8
M  ISO  8  32   8  33  13  34  13  35  13  36  13  37  13  38  13  39  13
M  ISO  2  40  13  43  15
M  END
>  <DihAtoms>  (1) 
18,20,40,41

>  <DihDeg>  (1) 
-32.749173941957814

$$$$
