
     RDKit          3D

 47 51  0  0  0  0  0  0  0  0999 V2000
   47.4990   32.0500   47.9000 C   0  0  0  0  0  0  0  0  0  0  0  0
   46.9990   30.7430   47.8990 C   0  0  0  0  0  0  0  0  0  0  0  0
   46.0130   30.4590   46.9990 C   0  0  0  0  0  0  0  0  0  0  0  0
   45.5710   31.4090   46.1670 N   0  0  0  0  0  0  0  0  0  0  0  0
   46.0350   32.6530   46.1490 C   0  0  0  0  0  0  0  0  0  0  0  0
   47.0090   32.9520   47.0370 N   0  0  0  0  0  0  0  0  0  0  0  0
   45.4610   29.2010   46.9550 N   0  0  0  0  0  0  0  0  0  0  0  0
   44.2740   28.8340   46.1300 C   0  0  0  0  0  0  0  0  0  0  0  0
   44.2130   27.3290   46.1550 C   0  0  0  0  0  0  0  0  0  0  0  0
   44.8400   27.0000   47.4690 C   0  0  0  0  0  0  0  0  0  0  0  0
   45.8900   28.0400   47.6660 C   0  0  0  0  0  0  0  0  0  0  0  0
   45.7190   33.8250   45.2920 C   0  0  0  0  0  0  0  0  0  0  0  0
   44.7970   34.7410   45.6080 N   0  0  0  0  0  0  0  0  0  0  0  0
   44.4920   35.7980   44.8690 C   0  0  0  0  0  0  0  0  0  0  0  0
   45.1380   36.0110   43.6960 N   0  0  0  0  0  0  0  0  0  0  0  0
   46.0870   35.1580   43.2730 C   0  0  0  0  0  0  0  0  0  0  0  0
   46.7270   35.3930   42.0840 C   0  0  0  0  0  0  0  0  0  0  0  0
   47.7010   34.5280   41.6370 C   0  0  0  0  0  0  0  0  0  0  0  0
   48.0120   33.4200   42.4210 C   0  0  0  0  0  0  0  0  0  0  0  0
   47.3250   33.2480   43.6100 C   0  0  0  0  0  0  0  0  0  0  0  0
   46.3550   34.0820   44.0850 C   0  0  0  0  0  0  0  0  0  0  0  0
   49.0300   32.5540   41.9110 C   0  0  0  0  0  0  0  0  0  0  0  0
   49.0140   31.4240   41.1850 C   0  0  0  0  0  0  0  0  0  0  0  0
   50.1840   30.8110   40.8430 C   0  0  0  0  0  0  0  0  0  0  0  0
   51.3840   31.4050   41.2770 C   0  0  0  0  0  0  0  0  0  0  0  0
   50.7710   32.8800   42.1960 S   0  0  0  0  0  0  0  0  0  0  0  0
   47.7460   32.0780   44.2920 N   0  0  0  0  0  0  0  0  0  0  0  0
   47.5710   29.8410   48.7510 N   0  0  0  0  0  0  0  0  0  0  0  0
   48.2917   32.3367   48.6067 H   0  0  0  0  0  0  0  0  0  0  0  0
   44.3964   29.1963   45.0986 H   0  0  0  0  0  0  0  0  0  0  0  0
   43.3506   29.2854   46.5219 H   0  0  0  0  0  0  0  0  0  0  0  0
   43.1732   26.9729   46.1108 H   0  0  0  0  0  0  0  0  0  0  0  0
   44.7168   26.8562   45.2990 H   0  0  0  0  0  0  0  0  0  0  0  0
   44.0938   27.0461   48.2759 H   0  0  0  0  0  0  0  0  0  0  0  0
   45.2578   25.9826   47.4845 H   0  0  0  0  0  0  0  0  0  0  0  0
   46.8524   27.6863   47.2676 H   0  0  0  0  0  0  0  0  0  0  0  0
   46.0298   28.2614   48.7344 H   0  0  0  0  0  0  0  0  0  0  0  0
   43.7163   36.5011   45.2065 H   0  0  0  0  0  0  0  0  0  0  0  0
   46.4616   36.2761   41.4843 H   0  0  0  0  0  0  0  0  0  0  0  0
   48.2204   34.7079   40.6842 H   0  0  0  0  0  0  0  0  0  0  0  0
   48.0545   30.9914   40.8651 H   0  0  0  0  0  0  0  0  0  0  0  0
   50.1893   29.8852   40.2490 H   0  0  0  0  0  0  0  0  0  0  0  0
   52.4198   31.0743   41.1106 H   0  0  0  0  0  0  0  0  0  0  0  0
   47.3177   31.8254   45.1940 H   0  0  0  0  0  0  0  0  0  0  0  0
   48.4801   31.4808   43.8853 H   0  0  0  0  0  0  0  0  0  0  0  0
   47.2293   28.8697   48.7780 H   0  0  0  0  0  0  0  0  0  0  0  0
   48.3440   30.1323   49.3663 H   0  0  0  0  0  0  0  0  0  0  0  0
  2  1  2  0
  2 28  1  0
  3  2  1  0
  4  3  2  0
  5  4  1  0
  5  6  2  0
  6  1  1  0
  7  3  1  0
  7 11  1  0
  8  9  1  0
  8  7  1  0
  9 10  1  0
 10 11  1  0
 12 13  2  0
 12  5  1  0
 14 13  1  0
 15 14  2  0
 16 15  1  0
 16 21  2  0
 17 16  1  0
 18 17  2  0
 18 19  1  0
 19 20  2  0
 20 21  1  0
 20 27  1  0
 21 12  1  0
 22 26  1  0
 22 19  1  0
 23 22  2  0
 24 23  1  0
 24 25  2  0
 25 26  1  0
  1 29  1  0
  8 30  1  0
  8 31  1  0
  9 32  1  0
  9 33  1  0
 10 34  1  0
 10 35  1  0
 11 36  1  0
 11 37  1  0
 14 38  1  0
 17 39  1  0
 18 40  1  0
 23 41  1  0
 24 42  1  0
 25 43  1  0
 27 44  1  0
 27 45  1  0
 28 46  1  0
 28 47  1  0
M  ISO  8  29  14  30  13  31  13  32  13  33  13  34  13  35  13  36  13
M  ISO  7  37  13  38  14  39  14  40  14  41  14  42  14  43  14
M  END
>  <minimizedAffinity>  (1) 
-6.8908124

>  <minimizedRMSD>  (1) 
0.340580702

$$$$
