
     RDKit          3D

 38 41  0  0  1  0  0  0  0  0999 V2000
   46.2330   30.8610   46.8170 C   0  0  0  0  0  0  0  0  0  0  0  0
   45.9670   31.4450   48.1830 C   0  0  1  0  0  0  0  0  0  0  0  0
   45.7100   30.4730   49.2780 C   0  0  0  0  0  0  0  0  0  0  0  0
   46.9520   31.2220   49.2700 C   0  0  1  0  0  0  0  0  0  0  0  0
   48.2810   30.6830   48.9000 C   0  0  0  0  0  0  0  0  0  0  0  0
   49.2380   30.4240   50.0890 C   0  0  0  0  0  0  0  0  0  0  0  0
   49.4760   31.5980   49.2250 C   0  0  0  0  0  0  0  0  0  0  0  0
   45.7660   33.0960   46.1770 C   0  0  0  0  0  0  0  0  0  0  0  0
   46.0460   31.9270   45.7530 C   0  0  0  0  0  0  0  0  0  0  0  0
   44.5070   36.1260   44.5170 C   0  0  0  0  0  0  0  0  0  0  0  0
   45.1590   36.1200   43.2930 C   0  0  0  0  0  0  0  0  0  0  0  0
   46.0210   35.0900   43.0780 C   0  0  0  0  0  0  0  0  0  0  0  0
   46.2060   34.1400   44.0300 N   0  0  0  0  0  0  0  0  0  0  0  0
   45.5620   34.1640   45.2080 C   0  0  0  0  0  0  0  0  0  0  0  0
   44.7200   35.1730   45.4170 N   0  0  0  0  0  0  0  0  0  0  0  0
   46.8290   34.8690   41.8560 C   0  0  0  0  0  0  0  0  0  0  0  0
   48.0990   35.4150   41.6100 C   0  0  0  0  0  0  0  0  0  0  0  0
   48.6870   35.0980   40.4250 C   0  0  0  0  0  0  0  0  0  0  0  0
   48.0830   34.2750   39.4850 C   0  0  0  0  0  0  0  0  0  0  0  0
   46.4430   33.8930   40.4110 S   0  0  0  0  0  0  0  0  0  0  0  0
   47.2652   30.4830   46.7768 H   0  0  0  0  0  0  0  0  0  0  0  0
   45.5275   30.0376   46.6320 H   0  0  0  0  0  0  0  0  0  0  0  0
   45.4702   32.3320   47.7629 H   0  0  0  0  0  0  0  0  0  0  0  0
   44.9432   30.6912   50.0359 H   0  0  0  0  0  0  0  0  0  0  0  0
   45.4508   29.4048   49.3195 H   0  0  0  0  0  0  0  0  0  0  0  0
   47.4523   31.8084   50.0547 H   0  0  0  0  0  0  0  0  0  0  0  0
   47.9269   30.1194   48.0242 H   0  0  0  0  0  0  0  0  0  0  0  0
   48.8809   30.5669   51.1195 H   0  0  0  0  0  0  0  0  0  0  0  0
   49.8496   29.5696   50.4146 H   0  0  0  0  0  0  0  0  0  0  0  0
   50.3484   31.6141   48.5551 H   0  0  0  0  0  0  0  0  0  0  0  0
   49.5891   32.6765   49.4094 H   0  0  0  0  0  0  0  0  0  0  0  0
   45.6800   33.2946   47.2555 H   0  0  0  0  0  0  0  0  0  0  0  0
   46.1461   31.7042   44.6805 H   0  0  0  0  0  0  0  0  0  0  0  0
   43.7994   36.9362   44.7469 H   0  0  0  0  0  0  0  0  0  0  0  0
   44.9889   36.9031   42.5394 H   0  0  0  0  0  0  0  0  0  0  0  0
   48.5956   36.0690   42.3419 H   0  0  0  0  0  0  0  0  0  0  0  0
   49.6820   35.5110   40.2028 H   0  0  0  0  0  0  0  0  0  0  0  0
   48.4385   33.9398   38.4995 H   0  0  0  0  0  0  0  0  0  0  0  0
  1  2  1  0
  2  4  1  0
  2  3  1  0
  4  3  1  0
  5  7  1  0
  5  4  1  0
  5  6  1  0
  7  6  1  0
  9  8  2  0
  9  1  1  0
 10 15  2  0
 11 10  1  0
 12 11  2  0
 12 13  1  0
 13 14  2  0
 14 15  1  0
 14  8  1  0
 16 12  1  0
 17 16  2  0
 18 17  1  0
 19 20  1  0
 19 18  2  0
 20 16  1  0
  1 21  1  0
  1 22  1  0
  2 23  1  6
  3 24  1  0
  3 25  1  0
  4 26  1  1
  5 27  1  0
  6 28  1  0
  6 29  1  0
  7 30  1  0
  7 31  1  0
  8 32  1  0
  9 33  1  0
 10 34  1  0
 11 35  1  0
 17 36  1  0
 18 37  1  0
 19 38  1  0
M  ISO  8  21   8  22   8  23  13  24  13  25  13  26  13  27  13  28  13
M  ISO  8  29  13  30  13  31  13  34  14  35  14  36  14  37  14  38  14
M  END
>  <minimizedAffinity>  (1) 
-5.84150457

>  <minimizedRMSD>  (1) 
0.638059914

$$$$
