
     RDKit          3D

 43 46  0  0  0  0  0  0  0  0999 V2000
   45.1338   36.0139   42.9114 C   0  0  0  0  0  0  0  0  0  0  0  0
   45.3718   34.6486   42.9086 C   0  0  0  0  0  0  0  0  0  0  0  0
   45.2135   33.9200   44.0616 C   0  0  0  0  0  0  0  0  0  0  0  0
   44.8131   34.6081   45.1889 N   0  0  0  0  0  0  0  0  0  0  0  0
   44.5845   35.9200   45.1899 C   0  0  0  0  0  0  0  0  0  0  0  0
   44.7483   36.6140   44.0447 N   0  0  0  0  0  0  0  0  0  0  0  0
   45.4168   32.5304   44.2190 C   0  0  0  0  0  0  0  0  0  0  0  0
   44.9395   31.5619   43.3326 C   0  0  0  0  0  0  0  0  0  0  0  0
   45.0792   30.2115   43.5186 C   0  0  0  0  0  0  0  0  0  0  0  0
   45.7233   29.7410   44.6362 C   0  0  0  0  0  0  0  0  0  0  0  0
   46.2216   30.7126   45.5566 C   0  0  0  0  0  0  0  0  0  0  0  0
   46.8641   30.2460   46.6742 C   0  0  0  0  0  0  0  0  0  0  0  0
   47.3711   31.1334   47.6013 C   0  0  0  0  0  0  0  0  0  0  0  0
   47.2245   32.5110   47.3892 C   0  0  0  0  0  0  0  0  0  0  0  0
   46.5567   32.9370   46.2277 C   0  0  0  0  0  0  0  0  0  0  0  0
   46.0584   32.0399   45.3235 C   0  0  0  0  0  0  0  0  0  0  0  0
   45.7597   34.0884   41.7218 O   0  0  0  0  0  0  0  0  0  0  0  0
   47.6842   32.4283   41.0911 O   0  0  0  0  0  0  0  0  0  0  0  0
   47.3708   33.8764   41.2453 P   0  0  1  0  0  0  0  0  0  0  0  0
   47.6509   34.6035   39.7421 O   0  0  0  0  0  0  0  0  0  0  0  0
   48.3620   34.5936   42.3887 O   0  0  0  0  0  0  0  0  0  0  0  0
   49.5344   35.2943   42.1488 C   0  0  0  0  0  0  0  0  0  0  0  0
   49.2014   36.2105   41.3750 O   0  0  0  0  0  0  0  0  0  0  0  0
   50.6373   34.7057   42.8653 N   0  0  0  0  0  0  0  0  0  0  0  0
   45.2606   36.5976   41.9910 H   0  0  0  0  0  0  0  0  0  0  0  0
   44.2732   36.4089   46.1000 H   0  0  0  0  0  0  0  0  0  0  0  0
   44.4252   31.8843   42.4391 H   0  0  0  0  0  0  0  0  0  0  0  0
   44.6782   29.5184   42.7782 H   0  0  0  0  0  0  0  0  0  0  0  0
   45.8386   28.6945   44.7960 H   0  0  0  0  0  0  0  0  0  0  0  0
   46.9675   29.1759   46.8183 H   0  0  0  0  0  0  0  0  0  0  0  0
   47.8678   30.7005   48.4651 H   0  0  0  0  0  0  0  0  0  0  0  0
   47.6524   33.1135   48.1628 H   0  0  0  0  0  0  0  0  0  0  0  0
   46.5671   34.0056   46.2354 H   0  0  0  0  0  0  0  0  0  0  0  0
   51.4746   34.1842   42.5158 H   0  0  0  0  0  0  0  0  0  0  0  0
   50.6197   34.8030   43.9045 H   0  0  0  0  0  0  0  0  0  0  0  0
   48.8220   34.3114   38.9856 C   0  0  0  0  0  0  0  0  0  0  0  0
   49.4987   33.3637   38.1530 C   0  0  0  0  0  0  0  0  0  0  0  0
   48.8266   32.5330   38.0800 H   0  0  0  0  0  0  0  0  0  0  0  0
   50.7252   33.7916   37.7335 C   0  0  0  0  0  0  0  0  0  0  0  0
   51.2605   34.9866   38.0626 C   0  0  0  0  0  0  0  0  0  0  0  0
   50.0286   35.7673   39.0986 S   0  0  0  0  0  0  0  0  0  0  0  0
   51.1572   32.9951   37.1047 H   0  0  0  0  0  0  0  0  0  0  0  0
   52.2379   35.2553   37.6915 H   0  0  0  0  0  0  0  0  0  0  0  0
  1  6  2  0
  2  1  1  0
  2  3  2  0
  3  7  1  0
  3  4  1  0
  5  4  2  0
  6  5  1  0
  7 16  2  0
  8  9  2  0
  8  7  1  0
  9 10  1  0
 10 11  2  0
 11 12  1  0
 12 13  2  0
 14 13  1  0
 15 14  2  0
 16 11  1  0
 16 15  1  0
 17  2  1  0
 19 18  2  0
 19 17  1  1
 19 21  1  0
 20 19  1  0
 22 21  1  0
 22 24  1  0
 23 22  2  0
  1 25  1  0
  5 26  1  0
  8 27  1  0
  9 28  1  0
 10 29  1  0
 12 30  1  0
 13 31  1  0
 14 32  1  0
 15 33  1  0
 24 34  1  0
 24 35  1  0
 36 37  2  0
 37 38  1  0
 37 39  1  0
 39 40  2  0
 40 41  1  0
 41 36  1  0
 39 42  1  0
 40 43  1  0
 20 36  1  0
M  ISO  8  25  14  26  14  27  14  28  14  29  14  30  14  31  14  32  14
M  ISO  2  33  14  38  15
M  END
>  <DihAtoms>  (1) 
18,19,35,36

>  <DihDeg>  (1) 
-0.03620231751735695

$$$$
