
     RDKit          3D

 26 27  0  0  0  0  0  0  0  0999 V2000
   48.3900   32.8830   41.2800 O   0  0  0  0  0  0  0  0  0  0  0  0
   47.2320   33.8760   41.2330 P   0  0  2  0  0  0  0  0  0  0  0  0
   45.9240   33.2470   42.1400 O   0  0  0  0  0  0  0  0  0  0  0  0
   44.3990   35.8300   44.2680 C   0  0  0  0  0  0  0  0  0  0  0  0
   44.8120   35.1380   43.1060 C   0  0  0  0  0  0  0  0  0  0  0  0
   45.5120   33.9370   43.2920 C   0  0  0  0  0  0  0  0  0  0  0  0
   45.7600   33.4950   44.5520 N   0  0  0  0  0  0  0  0  0  0  0  0
   45.3480   34.1860   45.6330 C   0  0  0  0  0  0  0  0  0  0  0  0
   44.6710   35.3470   45.5010 N   0  0  0  0  0  0  0  0  0  0  0  0
   46.6990   34.1620   39.6680 O   0  0  0  0  0  0  0  0  0  0  0  0
   47.2090   33.4570   38.5630 C   0  0  0  0  0  0  0  0  0  0  0  0
   46.9730   32.1290   38.1850 C   0  0  0  0  0  0  0  0  0  0  0  0
   47.6210   31.7340   37.0460 C   0  0  0  0  0  0  0  0  0  0  0  0
   48.4090   32.5650   36.3670 C   0  0  0  0  0  0  0  0  0  0  0  0
   48.3760   34.1220   37.2500 S   0  0  0  0  0  0  0  0  0  0  0  0
   47.7450   35.2960   41.9600 O   0  0  0  0  0  0  0  0  0  0  0  0
   48.9770   35.7350   41.5140 C   0  0  0  0  0  0  0  0  0  0  0  0
   49.2910   37.0210   41.9150 F   0  0  0  0  0  0  0  0  0  0  0  0
   49.9450   34.8050   41.8500 F   0  0  0  0  0  0  0  0  0  0  0  0
   48.8860   35.7520   40.1210 F   0  0  0  0  0  0  0  0  0  0  0  0
   43.8476   36.7764   44.1670 H   0  0  0  0  0  0  0  0  0  0  0  0
   44.5937   35.5249   42.0997 H   0  0  0  0  0  0  0  0  0  0  0  0
   45.5666   33.7982   46.6389 H   0  0  0  0  0  0  0  0  0  0  0  0
   46.3183   31.4564   38.7586 H   0  0  0  0  0  0  0  0  0  0  0  0
   47.4874   30.7044   36.6826 H   0  0  0  0  0  0  0  0  0  0  0  0
   48.9686   32.3399   35.4471 H   0  0  0  0  0  0  0  0  0  0  0  0
  2  1  2  0
  2 16  1  0
  2  3  1  0
  3  6  1  0
  4  9  2  0
  5  6  2  0
  5  4  1  0
  6  7  1  0
  7  8  2  0
  9  8  1  0
 10  2  1  0
 11 10  1  0
 12 11  2  0
 13 12  1  0
 14 13  2  0
 14 15  1  0
 15 11  1  0
 17 19  1  0
 17 18  1  0
 17 16  1  0
 20 17  1  0
  4 21  1  0
  5 22  1  0
  8 23  1  0
 12 24  1  0
 13 25  1  0
 14 26  1  0
M  ISO  6  21  14  22  14  23  14  24  14  25  14  26  14
M  END
>  <minimizedAffinity>  (1) 
-5.1078167

>  <minimizedRMSD>  (1) 
0.7086429

$$$$
