
     RDKit          3D

 46 49  0  0  0  0  0  0  0  0999 V2000
   41.8820   31.8010   41.6330 C   0  0  0  0  0  0  0  0  0  0  0  0
   41.1870   30.6940   41.3420 N   0  0  0  0  0  0  0  0  0  0  0  0
   41.3740   29.3890   41.8970 C   0  0  0  0  0  0  0  0  0  0  0  0
   40.1580   29.3550   42.8260 C   0  0  0  0  0  0  0  0  0  0  0  0
   38.8890   29.4960   42.1330 C   0  0  0  0  0  0  0  0  0  0  0  0
   38.8580   30.1740   40.8560 C   0  0  0  0  0  0  0  0  0  0  0  0
   40.0960   30.8790   40.3630 C   0  0  0  0  0  0  0  0  0  0  0  0
   40.1770   31.7780   38.8960 S   0  0  0  0  0  0  0  0  0  0  0  0
   40.5190   33.4120   38.9730 C   0  0  0  0  0  0  0  0  0  0  0  0
   41.1430   34.5780   38.6090 C   0  0  0  0  0  0  0  0  0  0  0  0
   40.9140   35.7770   39.1960 C   0  0  0  0  0  0  0  0  0  0  0  0
   39.9250   35.7880   40.2920 C   0  0  0  0  0  0  0  0  0  0  0  0
   39.4320   33.9580   40.3250 S   0  0  0  0  0  0  0  0  0  0  0  0
   43.2810   31.7740   41.1360 C   0  0  0  0  0  0  0  0  0  0  0  0
   43.9180   33.0590   41.4770 C   0  0  0  0  0  0  0  0  0  0  0  0
   43.1540   34.1910   41.6600 C   0  0  0  0  0  0  0  0  0  0  0  0
   43.8040   35.3750   41.9690 C   0  0  0  0  0  0  0  0  0  0  0  0
   45.1700   35.3600   42.0790 N   0  0  0  0  0  0  0  0  0  0  0  0
   45.8690   34.2450   41.8960 C   0  0  0  0  0  0  0  0  0  0  0  0
   45.2240   33.1150   41.5970 N   0  0  0  0  0  0  0  0  0  0  0  0
   47.3210   34.3150   42.0590 C   0  0  0  0  0  0  0  0  0  0  0  0
   48.0280   33.2050   42.5000 C   0  0  0  0  0  0  0  0  0  0  0  0
   49.4040   33.2910   42.6610 C   0  0  0  0  0  0  0  0  0  0  0  0
   49.9460   34.5250   42.3520 C   0  0  0  0  0  0  0  0  0  0  0  0
   49.2690   35.6460   41.9120 C   0  0  0  0  0  0  0  0  0  0  0  0
   47.9310   35.4770   41.7810 N   0  0  0  0  0  0  0  0  0  0  0  0
   41.3690   32.6624   41.1804 H   0  0  0  0  0  0  0  0  0  0  0  0
   41.9312   31.8713   42.7296 H   0  0  0  0  0  0  0  0  0  0  0  0
   41.3298   28.6027   41.1290 H   0  0  0  0  0  0  0  0  0  0  0  0
   42.3465   29.2124   42.3798 H   0  0  0  0  0  0  0  0  0  0  0  0
   40.1565   28.3938   43.3609 H   0  0  0  0  0  0  0  0  0  0  0  0
   40.2496   30.2143   43.5066 H   0  0  0  0  0  0  0  0  0  0  0  0
   38.4973   28.4813   41.9686 H   0  0  0  0  0  0  0  0  0  0  0  0
   38.2999   30.1500   42.7927 H   0  0  0  0  0  0  0  0  0  0  0  0
   37.9399   30.1753   40.2502 H   0  0  0  0  0  0  0  0  0  0  0  0
   41.8752   34.5368   37.7891 H   0  0  0  0  0  0  0  0  0  0  0  0
   41.4353   36.6906   38.8743 H   0  0  0  0  0  0  0  0  0  0  0  0
   39.5730   36.6236   40.9147 H   0  0  0  0  0  0  0  0  0  0  0  0
   43.2855   31.6345   40.0449 H   0  0  0  0  0  0  0  0  0  0  0  0
   43.8322   30.9428   41.6000 H   0  0  0  0  0  0  0  0  0  0  0  0
   42.0588   34.1557   41.5635 H   0  0  0  0  0  0  0  0  0  0  0  0
   43.2370   36.3051   42.1224 H   0  0  0  0  0  0  0  0  0  0  0  0
   47.5019   32.2644   42.7202 H   0  0  0  0  0  0  0  0  0  0  0  0
   50.0150   32.4443   43.0071 H   0  0  0  0  0  0  0  0  0  0  0  0
   51.0351   34.6250   42.4693 H   0  0  0  0  0  0  0  0  0  0  0  0
   49.7742   36.5968   41.6867 H   0  0  0  0  0  0  0  0  0  0  0  0
  2  1  1  0
  2  3  1  0
  3  4  1  0
  5  4  1  0
  6  5  1  0
  7  6  2  0
  7  2  1  0
  8  9  1  0
  8  7  1  0
  9 13  1  0
 10  9  2  0
 10 11  1  0
 11 12  2  0
 12 13  1  0
 14 15  1  0
 14  1  1  0
 15 20  1  0
 15 16  2  0
 16 17  1  0
 17 18  2  0
 19 21  1  0
 19 18  1  0
 20 19  2  0
 21 22  2  0
 22 23  1  0
 24 23  2  0
 25 24  1  0
 26 25  2  0
 26 21  1  0
  1 27  1  0
  1 28  1  0
  3 29  1  0
  3 30  1  0
  4 31  1  0
  4 32  1  0
  5 33  1  0
  5 34  1  0
  6 35  1  0
 10 36  1  0
 11 37  1  0
 12 38  1  0
 14 39  1  0
 14 40  1  0
 16 41  1  0
 17 42  1  0
 22 43  1  0
 23 44  1  0
 24 45  1  0
 25 46  1  0
M  ISO  8  27   8  28   8  29  13  30  13  31  13  32  13  33  13  34  13
M  ISO  8  35  13  36  14  37  14  38  14  39   8  40   8  41  14  42  14
M  ISO  4  43  14  44  14  45  14  46  14
M  END
>  <minimizedAffinity>  (1) 
-5.11961508

>  <minimizedRMSD>  (1) 
3.04288363

$$$$
