
     RDKit          3D

 36 38  0  0  0  0  0  0  0  0999 V2000
   46.1026   33.5448   42.2013 C   0  0  0  0  0  0  0  0  0  0  0  0
   45.5737   34.2562   43.3830 C   0  0  0  0  0  0  0  0  0  0  0  0
   45.0686   35.5286   43.2872 C   0  0  0  0  0  0  0  0  0  0  0  0
   44.5765   36.1787   44.4250 C   0  0  0  0  0  0  0  0  0  0  0  0
   44.6336   35.4792   45.5946 N   0  0  0  0  0  0  0  0  0  0  0  0
   45.1289   34.2484   45.6529 C   0  0  0  0  0  0  0  0  0  0  0  0
   45.5885   33.6587   44.5546 N   0  0  0  0  0  0  0  0  0  0  0  0
   47.4402   34.1631   41.8614 C   0  0  0  0  0  0  0  0  0  0  0  0
   48.4271   33.5961   42.5861 N   0  0  0  0  0  0  0  0  0  0  0  0
   48.5417   32.2378   42.9884 C   0  0  0  0  0  0  0  0  0  0  0  0
   49.4139   31.6615   41.8604 C   0  0  0  0  0  0  0  0  0  0  0  0
   50.7263   32.3452   41.7245 C   0  0  0  0  0  0  0  0  0  0  0  0
   50.8713   33.7063   42.3299 C   0  0  0  0  0  0  0  0  0  0  0  0
   49.6220   34.3794   42.7706 C   0  0  0  0  0  0  0  0  0  0  0  0
   45.4082   33.8620   41.3785 H   0  0  0  0  0  0  0  0  0  0  0  0
   46.0415   32.4733   42.2091 H   0  0  0  0  0  0  0  0  0  0  0  0
   45.0305   36.0619   42.3668 H   0  0  0  0  0  0  0  0  0  0  0  0
   44.1684   37.1797   44.4048 H   0  0  0  0  0  0  0  0  0  0  0  0
   45.1805   33.6751   46.5872 H   0  0  0  0  0  0  0  0  0  0  0  0
   47.3140   35.2542   42.0642 H   0  0  0  0  0  0  0  0  0  0  0  0
   47.4975   34.1127   40.7404 H   0  0  0  0  0  0  0  0  0  0  0  0
   49.1274   32.1205   43.8951 H   0  0  0  0  0  0  0  0  0  0  0  0
   47.6549   31.6415   43.1102 H   0  0  0  0  0  0  0  0  0  0  0  0
   49.5778   30.5976   42.1117 H   0  0  0  0  0  0  0  0  0  0  0  0
   48.7985   31.6623   40.9371 H   0  0  0  0  0  0  0  0  0  0  0  0
   51.5364   31.7430   42.1673 H   0  0  0  0  0  0  0  0  0  0  0  0
   50.9360   32.4667   40.6394 H   0  0  0  0  0  0  0  0  0  0  0  0
   51.7766   34.2283   42.4435 H   0  0  0  0  0  0  0  0  0  0  0  0
   49.7975   35.6763   43.2296 C   0  0  0  0  0  0  0  0  0  0  0  0
   49.8436   36.3129   44.4269 C   0  0  0  0  0  0  0  0  0  0  0  0
   49.7214   35.6595   45.2744 H   0  0  0  0  0  0  0  0  0  0  0  0
   50.0324   37.6657   44.4625 C   0  0  0  0  0  0  0  0  0  0  0  0
   50.1815   38.4335   43.3163 C   0  0  0  0  0  0  0  0  0  0  0  0
   50.0382   37.0747   41.9962 S   0  0  0  0  0  0  0  0  0  0  0  0
   50.0667   38.1623   45.4468 H   0  0  0  0  0  0  0  0  0  0  0  0
   50.3344   39.5194   43.3035 H   0  0  0  0  0  0  0  0  0  0  0  0
  1  2  1  0
  2  7  1  0
  3  2  2  0
  3  4  1  0
  4  5  2  0
  5  6  1  0
  7  6  2  0
  8  1  1  0
  8  9  1  0
  9 14  1  0
  9 10  1  0
 11 10  1  0
 12 11  1  0
 12 13  1  0
 13 14  2  0
  1 15  1  0
  1 16  1  0
  3 17  1  0
  4 18  1  0
  6 19  1  0
  8 20  1  0
  8 21  1  0
 10 22  1  0
 10 23  1  0
 11 24  1  0
 11 25  1  0
 12 26  1  0
 12 27  1  0
 13 28  1  0
 29 30  2  0
 30 31  1  0
 30 32  1  0
 32 33  2  0
 33 34  1  0
 34 29  1  0
 32 35  1  0
 33 36  1  0
 14 29  1  0
M  ISO  8  15   8  16   8  17  14  18  14  19  14  20   8  21   8  22  13
M  ISO  7  23  13  24  13  25  13  26  13  27  13  28  13  31  15
M  END
>  <DihAtoms>  (1) 
8,13,28,29

>  <DihDeg>  (1) 
-174.644311189945

$$$$
