
     RDKit          3D

 33 35  0  0  0  0  0  0  0  0999 V2000
   48.3906   32.0649   42.4504 C   0  0  0  0  0  0  0  0  0  0  0  0
   49.1755   32.7764   41.5228 C   0  0  0  0  0  0  0  0  0  0  0  0
   50.4719   32.3451   41.2151 C   0  0  0  0  0  0  0  0  0  0  0  0
   50.8979   31.2068   41.8738 N   0  0  0  0  0  0  0  0  0  0  0  0
   50.1273   30.5574   42.7470 C   0  0  0  0  0  0  0  0  0  0  0  0
   48.8741   30.9772   43.0423 N   0  0  0  0  0  0  0  0  0  0  0  0
   47.0398   32.6017   42.6952 C   0  0  2  0  0  0  0  0  0  0  0  0
   46.3740   33.0402   41.4516 C   0  0  0  0  0  0  0  0  0  0  0  0
   46.1816   34.5228   41.3545 C   0  0  0  0  0  0  0  0  0  0  0  0
   45.4603   35.1025   42.5495 C   0  0  0  0  0  0  0  0  0  0  0  0
   45.8594   34.4630   43.8658 C   0  0  0  0  0  0  0  0  0  0  0  0
   47.1706   33.7220   43.7110 C   0  0  1  0  0  0  0  0  0  0  0  0
   48.9261   33.6663   40.9639 H   0  0  0  0  0  0  0  0  0  0  0  0
   51.1659   32.7806   40.5449 H   0  0  0  0  0  0  0  0  0  0  0  0
   50.4628   29.6602   43.2681 H   0  0  0  0  0  0  0  0  0  0  0  0
   46.4687   31.7551   43.1814 H   0  0  0  0  0  0  0  0  0  0  0  0
   45.3441   32.5774   41.4110 H   0  0  0  0  0  0  0  0  0  0  0  0
   46.8580   32.7112   40.5108 H   0  0  0  0  0  0  0  0  0  0  0  0
   47.0512   35.1138   41.0804 H   0  0  0  0  0  0  0  0  0  0  0  0
   45.4634   34.6726   40.4927 H   0  0  0  0  0  0  0  0  0  0  0  0
   45.7321   36.1769   42.6003 H   0  0  0  0  0  0  0  0  0  0  0  0
   44.3457   35.0701   42.4044 H   0  0  0  0  0  0  0  0  0  0  0  0
   45.9380   35.1857   44.6739 H   0  0  0  0  0  0  0  0  0  0  0  0
   45.0879   33.7216   44.1575 H   0  0  0  0  0  0  0  0  0  0  0  0
   47.8707   34.4692   43.2563 H   0  0  0  0  0  0  0  0  0  0  0  0
   47.7507   33.3136   44.9694 C   0  0  0  0  0  0  0  0  0  0  0  0
   48.6499   32.3936   45.3342 C   0  0  0  0  0  0  0  0  0  0  0  0
   49.0856   31.7852   44.5274 H   0  0  0  0  0  0  0  0  0  0  0  0
   49.0247   32.1997   46.6099 C   0  0  0  0  0  0  0  0  0  0  0  0
   48.3974   33.0445   47.5574 C   0  0  0  0  0  0  0  0  0  0  0  0
   47.2444   34.1313   46.5394 S   0  0  0  0  0  0  0  0  0  0  0  0
   49.7366   31.4842   46.9856 H   0  0  0  0  0  0  0  0  0  0  0  0
   48.6221   32.9942   48.7245 H   0  0  0  0  0  0  0  0  0  0  0  0
  1  7  1  0
  1  6  1  0
  2  1  2  0
  3  2  1  0
  3  4  2  0
  4  5  1  0
  5  6  2  0
  7 12  1  0
  8  7  1  0
  9  8  1  0
  9 10  1  0
 10 11  1  0
 12 11  1  0
  2 13  1  0
  3 14  1  0
  5 15  1  0
  7 16  1  1
  8 17  1  0
  8 18  1  0
  9 19  1  0
  9 20  1  0
 10 21  1  0
 10 22  1  0
 11 23  1  0
 11 24  1  0
 12 25  1  6
 26 27  2  0
 27 28  1  0
 27 29  1  0
 29 30  2  0
 30 31  1  0
 31 26  1  0
 29 32  1  0
 30 33  1  0
 12 26  1  0
M  ISO  8  13  14  14  14  15  14  16  13  17  13  18  13  19  13  20  13
M  ISO  6  21  13  22  13  23  13  24  13  25  13  28  15
M  END
>  <DihAtoms>  (1) 
6,11,25,26

>  <DihDeg>  (1) 
121.43323334832749

$$$$
