
     RDKit          3D

 42 45  0  0  1  0  0  0  0  0999 V2000
   46.1460   31.7570   46.2690 N   0  0  0  0  0  0  0  0  0  0  0  0
   46.2720   32.6050   47.3970 C   0  0  0  0  0  0  0  0  0  0  0  0
   47.5730   32.3660   48.1630 C   0  0  0  0  0  0  0  0  0  0  0  0
   47.4540   30.9590   48.7330 C   0  0  0  0  0  0  0  0  0  0  0  0
   47.4110   30.0440   47.5300 C   0  0  0  0  0  0  0  0  0  0  0  0
   46.3110   30.4040   46.5810 C   0  0  2  0  0  0  0  0  0  0  0  0
   46.2770   29.4650   45.4680 C   0  0  0  0  0  0  0  0  0  0  0  0
   47.1390   28.7670   44.7370 C   0  0  0  0  0  0  0  0  0  0  0  0
   46.7430   27.9520   43.7390 C   0  0  0  0  0  0  0  0  0  0  0  0
   45.3540   27.8770   43.5060 C   0  0  0  0  0  0  0  0  0  0  0  0
   44.6160   29.0400   44.7960 S   0  0  0  0  0  0  0  0  0  0  0  0
   46.6290   32.2710   45.0350 C   0  0  0  0  0  0  0  0  0  0  0  0
   46.4110   34.4510   43.6110 C   0  0  1  0  0  0  0  0  0  0  0  0
   45.1160   33.9010   43.7650 C   0  0  0  0  0  0  0  0  0  0  0  0
   46.0710   33.6420   44.8810 C   0  0  1  0  0  0  0  0  0  0  0  0
   47.0940   33.0800   41.6460 C   0  0  0  0  0  0  0  0  0  0  0  0
   47.4850   33.9070   42.7390 C   0  0  0  0  0  0  0  0  0  0  0  0
   48.8170   34.1600   42.9410 C   0  0  0  0  0  0  0  0  0  0  0  0
   49.7100   33.5980   42.0710 N   0  0  0  0  0  0  0  0  0  0  0  0
   49.3140   32.8100   41.0320 C   0  0  0  0  0  0  0  0  0  0  0  0
   47.9950   32.5350   40.7980 N   0  0  0  0  0  0  0  0  0  0  0  0
   46.2492   33.6509   47.0570 H   0  0  0  0  0  0  0  0  0  0  0  0
   45.4365   32.3842   48.0776 H   0  0  0  0  0  0  0  0  0  0  0  0
   48.4368   32.4350   47.4854 H   0  0  0  0  0  0  0  0  0  0  0  0
   47.7262   33.1159   48.9531 H   0  0  0  0  0  0  0  0  0  0  0  0
   48.3234   30.7243   49.3648 H   0  0  0  0  0  0  0  0  0  0  0  0
   46.5613   30.8469   49.3659 H   0  0  0  0  0  0  0  0  0  0  0  0
   48.3722   30.1120   46.9994 H   0  0  0  0  0  0  0  0  0  0  0  0
   47.2226   29.0222   47.8912 H   0  0  0  0  0  0  0  0  0  0  0  0
   45.3723   30.2736   47.1395 H   0  0  0  0  0  0  0  0  0  0  0  0
   48.2137   28.8572   44.9537 H   0  0  0  0  0  0  0  0  0  0  0  0
   47.4637   27.3769   43.1391 H   0  0  0  0  0  0  0  0  0  0  0  0
   44.8244   27.2799   42.7490 H   0  0  0  0  0  0  0  0  0  0  0  0
   47.7282   32.3107   45.0476 H   0  0  0  0  0  0  0  0  0  0  0  0
   46.3219   31.6279   44.1971 H   0  0  0  0  0  0  0  0  0  0  0  0
   46.7383   35.4649   43.3375 H   0  0  0  0  0  0  0  0  0  0  0  0
   44.2619   34.5736   43.9325 H   0  0  0  0  0  0  0  0  0  0  0  0
   44.4972   33.2443   43.1359 H   0  0  0  0  0  0  0  0  0  0  0  0
   46.1044   33.8076   45.9680 H   0  0  0  0  0  0  0  0  0  0  0  0
   46.0243   32.8786   41.4872 H   0  0  0  0  0  0  0  0  0  0  0  0
   49.1559   34.7932   43.7742 H   0  0  0  0  0  0  0  0  0  0  0  0
   50.0762   32.3835   40.3633 H   0  0  0  0  0  0  0  0  0  0  0  0
  1  6  1  0
  1  2  1  0
  2  3  1  0
  3  4  1  0
  5  4  1  0
  6  5  1  0
  7  6  1  0
  8  7  2  0
  9  8  1  0
 10  9  2  0
 10 11  1  0
 11  7  1  0
 12  1  1  0
 13 14  1  0
 13 15  1  0
 14 15  1  0
 15 12  1  0
 16 17  2  0
 17 18  1  0
 17 13  1  0
 19 18  2  0
 20 19  1  0
 21 20  2  0
 21 16  1  0
  2 22  1  0
  2 23  1  0
  3 24  1  0
  3 25  1  0
  4 26  1  0
  4 27  1  0
  5 28  1  0
  5 29  1  0
  6 30  1  1
  8 31  1  0
  9 32  1  0
 10 33  1  0
 12 34  1  0
 12 35  1  0
 13 36  1  1
 14 37  1  0
 14 38  1  0
 15 39  1  1
 16 40  1  0
 18 41  1  0
 20 42  1  0
M  ISO  8  22  13  23  13  24  13  25  13  26  13  27  13  28  13  29  13
M  ISO  8  30  13  31  14  32  14  33  14  34   8  35   8  36  13  37  13
M  ISO  5  38  13  39  13  40  14  41  14  42  14
M  END
>  <minimizedAffinity>  (1) 
-3.97858787

>  <minimizedRMSD>  (1) 
1.95035875

$$$$
