
     RDKit          3D

 28 29  0  0  0  0  0  0  0  0999 V2000
   48.0300   32.8150   41.9300 O   0  0  0  0  0  0  0  0  0  0  0  0
   47.1040   33.9260   41.3680 P   0  0  2  0  0  0  0  0  0  0  0  0
   45.5330   33.6920   42.0120 O   0  0  0  0  0  0  0  0  0  0  0  0
   44.3730   35.9090   44.6660 C   0  0  0  0  0  0  0  0  0  0  0  0
   44.6450   35.4050   43.3710 C   0  0  0  0  0  0  0  0  0  0  0  0
   45.2790   34.1560   43.2880 C   0  0  0  0  0  0  0  0  0  0  0  0
   45.5900   33.5100   44.4310 N   0  0  0  0  0  0  0  0  0  0  0  0
   45.3160   34.0210   45.6510 C   0  0  0  0  0  0  0  0  0  0  0  0
   44.7120   35.2130   45.7780 N   0  0  0  0  0  0  0  0  0  0  0  0
   47.0350   33.7970   39.7180 O   0  0  0  0  0  0  0  0  0  0  0  0
   46.0390   33.3460   38.9270 C   0  0  0  0  0  0  0  0  0  0  0  0
   46.2210   33.0760   37.6260 O   0  0  0  0  0  0  0  0  0  0  0  0
   44.4850   32.9050   38.8440 C   0  0  0  0  0  0  0  0  0  0  0  0
   43.4050   33.7680   38.5670 C   0  0  0  0  0  0  0  0  0  0  0  0
   42.1820   33.3040   38.5550 C   0  0  0  0  0  0  0  0  0  0  0  0
   42.1160   31.9230   38.8380 C   0  0  0  0  0  0  0  0  0  0  0  0
   43.9850   31.5080   39.0910 S   0  0  0  0  0  0  0  0  0  0  0  0
   47.7040   35.3690   41.9110 O   0  0  0  0  0  0  0  0  0  0  0  0
   48.9540   35.6700   41.3880 C   0  0  0  0  0  0  0  0  0  0  0  0
   49.3980   36.9310   41.7480 F   0  0  0  0  0  0  0  0  0  0  0  0
   49.8390   34.6890   41.7020 F   0  0  0  0  0  0  0  0  0  0  0  0
   48.7930   35.6910   40.0020 F   0  0  0  0  0  0  0  0  0  0  0  0
   43.8766   36.8850   44.7713 H   0  0  0  0  0  0  0  0  0  0  0  0
   44.3706   35.9693   42.4675 H   0  0  0  0  0  0  0  0  0  0  0  0
   45.5913   33.4531   46.5519 H   0  0  0  0  0  0  0  0  0  0  0  0
   43.5910   34.8324   38.3608 H   0  0  0  0  0  0  0  0  0  0  0  0
   41.2982   33.9248   38.3463 H   0  0  0  0  0  0  0  0  0  0  0  0
   41.2385   31.2625   38.8981 H   0  0  0  0  0  0  0  0  0  0  0  0
  2 18  1  0
  2  1  2  0
  2  3  1  0
  3  6  1  0
  4  9  2  0
  5  4  1  0
  6  5  2  0
  6  7  1  0
  7  8  2  0
  8  9  1  0
 10  2  1  0
 11 10  1  0
 12 11  2  0
 13 11  1  0
 13 17  1  0
 14 13  2  0
 15 14  1  0
 15 16  2  0
 16 17  1  0
 19 21  1  0
 19 20  1  0
 19 18  1  0
 22 19  1  0
  4 23  1  0
  5 24  1  0
  8 25  1  0
 14 26  1  0
 15 27  1  0
 16 28  1  0
M  ISO  6  23  14  24  14  25  14  26  14  27  14  28  14
M  END
>  <minimizedAffinity>  (1) 
-5.03442907

>  <minimizedRMSD>  (1) 
1.85509348

$$$$
