
     RDKit          3D

 36 38  0  0  0  0  0  0  0  0999 V2000
   41.9700   35.0680   41.4880 C   0  0  0  0  0  0  0  0  0  0  0  0
   41.0590   35.9910   40.7410 C   0  0  0  0  0  0  0  0  0  0  0  0
   41.8650   36.2380   37.8220 Cl  0  0  0  0  0  0  0  0  0  0  0  0
   40.5280   35.3000   38.3880 C   0  0  0  0  0  0  0  0  0  0  0  0
   40.2380   35.2510   39.7620 C   0  0  0  0  0  0  0  0  0  0  0  0
   39.1600   34.4840   40.1260 C   0  0  0  0  0  0  0  0  0  0  0  0
   38.3290   33.7550   39.2930 C   0  0  0  0  0  0  0  0  0  0  0  0
   38.6340   33.8170   37.9420 C   0  0  0  0  0  0  0  0  0  0  0  0
   37.6380   32.9250   36.7940 Cl  0  0  0  0  0  0  0  0  0  0  0  0
   39.7150   34.5780   37.5110 C   0  0  0  0  0  0  0  0  0  0  0  0
   43.5930   34.9120   40.7490 S   0  0  0  0  0  0  0  0  0  0  0  0
   44.8820   34.6540   41.9690 C   0  0  0  0  0  0  0  0  0  0  0  0
   46.2060   34.6520   41.4940 C   0  0  0  0  0  0  0  0  0  0  0  0
   47.2380   34.4550   42.4100 C   0  0  0  0  0  0  0  0  0  0  0  0
   46.9150   34.2740   43.7170 N   0  0  0  0  0  0  0  0  0  0  0  0
   45.6500   34.2780   44.1580 C   0  0  0  0  0  0  0  0  0  0  0  0
   44.6450   34.4670   43.2860 N   0  0  0  0  0  0  0  0  0  0  0  0
   45.3990   34.0820   45.5640 C   0  0  0  0  0  0  0  0  0  0  0  0
   44.6790   34.8860   46.1820 O   0  0  0  0  0  0  0  0  0  0  0  0
   45.9740   32.9610   46.2750 C   0  0  0  0  0  0  0  0  0  0  0  0
   46.9560   32.0300   45.9850 C   0  0  0  0  0  0  0  0  0  0  0  0
   47.2620   31.0750   46.9110 C   0  0  0  0  0  0  0  0  0  0  0  0
   46.5630   31.0440   48.1770 C   0  0  0  0  0  0  0  0  0  0  0  0
   45.3950   32.5060   47.9800 S   0  0  0  0  0  0  0  0  0  0  0  0
   42.0894   35.4506   42.5124 H   0  0  0  0  0  0  0  0  0  0  0  0
   41.5077   34.0701   41.4661 H   0  0  0  0  0  0  0  0  0  0  0  0
   40.3949   36.4973   41.4569 H   0  0  0  0  0  0  0  0  0  0  0  0
   41.6735   36.7243   40.1981 H   0  0  0  0  0  0  0  0  0  0  0  0
   38.9303   34.4440   41.2010 H   0  0  0  0  0  0  0  0  0  0  0  0
   37.4832   33.1659   39.6772 H   0  0  0  0  0  0  0  0  0  0  0  0
   39.9393   34.6129   36.4347 H   0  0  0  0  0  0  0  0  0  0  0  0
   46.4217   34.8022   40.4259 H   0  0  0  0  0  0  0  0  0  0  0  0
   48.2881   34.4463   42.0826 H   0  0  0  0  0  0  0  0  0  0  0  0
   47.4834   32.0592   45.0201 H   0  0  0  0  0  0  0  0  0  0  0  0
   48.0405   30.3286   46.6944 H   0  0  0  0  0  0  0  0  0  0  0  0
   46.6820   30.3533   49.0248 H   0  0  0  0  0  0  0  0  0  0  0  0
  2  1  1  0
  3  4  1  0
  4  5  2  0
  5  6  1  0
  5  2  1  0
  7  6  2  0
  8  7  1  0
  9  8  1  0
 10  8  2  0
 10  4  1  0
 11  1  1  0
 11 12  1  0
 12 17  1  0
 13 12  2  0
 13 14  1  0
 14 15  2  0
 15 16  1  0
 16 18  1  0
 17 16  2  0
 18 19  2  0
 18 20  1  0
 20 24  1  0
 21 20  2  0
 21 22  1  0
 22 23  2  0
 24 23  1  0
  1 25  1  0
  1 26  1  0
  2 27  1  0
  2 28  1  0
  6 29  1  0
  7 30  1  0
 10 31  1  0
 13 32  1  0
 14 33  1  0
 21 34  1  0
 22 35  1  0
 23 36  1  0
M  ISO  8  25   8  26   8  27   8  28   8  29  14  30  14  31  14  32  14
M  ISO  4  33  14  34  14  35  14  36  14
M  END
>  <minimizedAffinity>  (1) 
-6.63484001

>  <minimizedRMSD>  (1) 
0.35957858

$$$$
