
     RDKit          3D

 24 25  0  0  0  0  0  0  0  0999 V2000
   45.2490   35.0480   42.8040 C   0  0  0  0  0  0  0  0  0  0  0  0
   46.3260   35.3920   41.9470 C   0  0  0  0  0  0  0  0  0  0  0  0
   47.5890   34.8940   42.3210 C   0  0  0  0  0  0  0  0  0  0  0  0
   47.6800   34.1470   43.4370 N   0  0  0  0  0  0  0  0  0  0  0  0
   46.6250   33.8470   44.2190 C   0  0  0  0  0  0  0  0  0  0  0  0
   45.4060   34.3060   43.8920 N   0  0  0  0  0  0  0  0  0  0  0  0
   43.3630   34.7810   41.4380 C   0  0  0  0  0  0  0  0  0  0  0  0
   44.0450   33.8690   40.8920 O   0  0  0  0  0  0  0  0  0  0  0  0
   43.9210   35.5060   42.5110 N   0  0  0  0  0  0  0  0  0  0  0  0
   42.0040   35.0100   40.8840 C   0  0  0  0  0  0  0  0  0  0  0  0
   41.0980   35.9470   41.1790 C   0  0  0  0  0  0  0  0  0  0  0  0
   39.8970   35.9480   40.5180 C   0  0  0  0  0  0  0  0  0  0  0  0
   39.7040   34.9410   39.5600 C   0  0  0  0  0  0  0  0  0  0  0  0
   41.3450   34.0050   39.6720 S   0  0  0  0  0  0  0  0  0  0  0  0
   48.6830   35.2600   41.4250 C   0  0  0  0  0  0  0  0  0  0  0  0
   49.7670   34.4160   41.6710 F   0  0  0  0  0  0  0  0  0  0  0  0
   49.1190   36.5280   41.8120 F   0  0  0  0  0  0  0  0  0  0  0  0
   48.3710   35.1800   40.1100 F   0  0  0  0  0  0  0  0  0  0  0  0
   46.1835   36.0087   41.0473 H   0  0  0  0  0  0  0  0  0  0  0  0
   46.7611   33.2301   45.1195 H   0  0  0  0  0  0  0  0  0  0  0  0
   43.4397   36.2632   43.0169 H   0  0  0  0  0  0  0  0  0  0  0  0
   41.3134   36.7084   41.9431 H   0  0  0  0  0  0  0  0  0  0  0  0
   39.1230   36.7008   40.7282 H   0  0  0  0  0  0  0  0  0  0  0  0
   38.8329   34.7476   38.9167 H   0  0  0  0  0  0  0  0  0  0  0  0
  1  6  2  0
  2  3  2  0
  2  1  1  0
  3  4  1  0
  4  5  2  0
  6  5  1  0
  7  9  1  0
  8  7  2  0
  9  1  1  0
 10 11  2  0
 10  7  1  0
 12 11  1  0
 13 14  1  0
 13 12  2  0
 14 10  1  0
 15 16  1  0
 15 17  1  0
 15  3  1  0
 18 15  1  0
  2 19  1  0
  5 20  1  0
  9 21  1  0
 11 22  1  0
 12 23  1  0
 13 24  1  0
M  ISO  5  19  14  20  14  22  14  23  14  24  14
M  END
>  <minimizedAffinity>  (1) 
-5.98405647

>  <minimizedRMSD>  (1) 
0.874849141

$$$$
