
     RDKit          3D

 32 34  0  0  0  0  0  0  0  0999 V2000
   44.5574   36.0368   44.4847 C   0  0  0  0  0  0  0  0  0  0  0  0
   45.2127   35.9464   43.2495 C   0  0  0  0  0  0  0  0  0  0  0  0
   46.0882   34.8730   43.0214 C   0  0  0  0  0  0  0  0  0  0  0  0
   46.2462   33.9677   44.0427 N   0  0  0  0  0  0  0  0  0  0  0  0
   45.5969   34.1020   45.2003 C   0  0  0  0  0  0  0  0  0  0  0  0
   44.7529   35.1223   45.4416 N   0  0  0  0  0  0  0  0  0  0  0  0
   46.7845   34.7748   41.7158 C   0  0  0  0  0  0  0  0  0  0  0  0
   48.1792   35.3019   41.8849 C   0  0  0  0  0  0  0  0  0  0  0  0
   43.8925   36.8774   44.6199 H   0  0  0  0  0  0  0  0  0  0  0  0
   45.0582   36.6915   42.4599 H   0  0  0  0  0  0  0  0  0  0  0  0
   45.7992   33.3204   45.9443 H   0  0  0  0  0  0  0  0  0  0  0  0
   46.1852   35.3026   40.9741 H   0  0  0  0  0  0  0  0  0  0  0  0
   46.8097   33.7014   41.4242 H   0  0  0  0  0  0  0  0  0  0  0  0
   48.6706   34.6545   42.6492 H   0  0  0  0  0  0  0  0  0  0  0  0
   48.1141   36.3519   42.2552 H   0  0  0  0  0  0  0  0  0  0  0  0
   49.0237   35.2860   40.6985 C   0  0  0  0  0  0  0  0  0  0  0  0
   49.9941   36.2637   40.5957 C   0  0  0  0  0  0  0  0  0  0  0  0
   50.1350   37.0290   41.3697 H   0  0  0  0  0  0  0  0  0  0  0  0
   50.8372   36.3139   39.4949 C   0  0  0  0  0  0  0  0  0  0  0  0
   50.7266   35.3970   38.4873 C   0  0  0  0  0  0  0  0  0  0  0  0
   49.7671   34.4205   38.5765 C   0  0  0  0  0  0  0  0  0  0  0  0
   49.6186   33.4734   37.5832 C   0  0  0  0  0  0  0  0  0  0  0  0
   48.6332   32.4970   37.7083 C   0  0  0  0  0  0  0  0  0  0  0  0
   47.7890   32.4353   38.7963 C   0  0  0  0  0  0  0  0  0  0  0  0
   47.9419   33.3786   39.7787 C   0  0  0  0  0  0  0  0  0  0  0  0
   48.9152   34.3515   39.6658 C   0  0  0  0  0  0  0  0  0  0  0  0
   51.6075   37.0870   39.4095 H   0  0  0  0  0  0  0  0  0  0  0  0
   51.3941   35.4456   37.6270 H   0  0  0  0  0  0  0  0  0  0  0  0
   50.2855   33.5156   36.7156 H   0  0  0  0  0  0  0  0  0  0  0  0
   48.5785   31.7850   36.8829 H   0  0  0  0  0  0  0  0  0  0  0  0
   47.0710   31.6451   38.7876 H   0  0  0  0  0  0  0  0  0  0  0  0
   47.2798   33.3378   40.6415 H   0  0  0  0  0  0  0  0  0  0  0  0
  1  6  2  0
  2  1  1  0
  3  2  2  0
  3  4  1  0
  4  5  2  0
  5  6  1  0
  7  8  1  0
  7  3  1  0
  1  9  1  0
  2 10  1  0
  5 11  1  0
  7 12  1  0
  7 13  1  0
  8 14  1  0
  8 15  1  0
 16 17  2  0
 17 18  1  0
 17 19  1  0
 19 20  2  0
 20 21  1  0
 21 22  2  0
 22 23  1  0
 23 24  2  0
 24 25  1  0
 25 26  2  0
 26 16  1  0
 26 21  1  0
 19 27  1  0
 20 28  1  0
 22 29  1  0
 23 30  1  0
 24 31  1  0
 25 32  1  0
  8 16  1  0
M  ISO  8   9  14  10  14  11  14  12   8  13   8  14   8  15   8  18  15
M  END
>  <DihAtoms>  (1) 
6,7,15,16

>  <DihDeg>  (1) 
-0.0027367480888377906

$$$$
