
     RDKit          3D

 52 56  0  0  0  0  0  0  0  0999 V2000
   47.0656   34.8158   41.9560 C   0  0  2  0  0  0  0  0  0  0  0  0
   46.2997   34.1845   40.7902 C   0  0  0  0  0  0  0  0  0  0  0  0
   47.4995   33.9997   39.8335 C   0  0  0  0  0  0  0  0  0  0  0  0
   48.6456   33.6320   40.7256 C   0  0  1  0  0  0  0  0  0  0  0  0
   48.1413   33.7803   42.1296 C   0  0  0  0  0  0  0  0  0  0  0  0
   44.5285   35.9723   44.4851 C   0  0  0  0  0  0  0  0  0  0  0  0
   45.2628   35.9581   43.3055 C   0  0  0  0  0  0  0  0  0  0  0  0
   46.1968   34.9328   43.1594 C   0  0  0  0  0  0  0  0  0  0  0  0
   46.3657   33.9779   44.1685 N   0  0  0  0  0  0  0  0  0  0  0  0
   45.6158   34.0477   45.3004 C   0  0  0  0  0  0  0  0  0  0  0  0
   44.7016   35.0425   45.4544 N   0  0  0  0  0  0  0  0  0  0  0  0
   49.1278   32.2084   40.5689 C   0  0  2  0  0  0  0  0  0  0  0  0
   49.7693   31.6178   41.7356 C   0  0  0  0  0  0  0  0  0  0  0  0
   50.5506   31.8825   40.4894 C   0  0  1  0  0  0  0  0  0  0  0  0
   50.9166   30.7612   39.7031 O   0  0  0  0  0  0  0  0  0  0  0  0
   52.0231   30.2118   37.4050 O   0  0  0  0  0  0  0  0  0  0  0  0
   51.8742   31.3054   38.4331 P   0  0  1  0  0  0  0  0  0  0  0  0
   51.1243   32.6423   37.6638 O   0  0  0  0  0  0  0  0  0  0  0  0
   53.3920   31.8071   38.8918 O   0  0  0  0  0  0  0  0  0  0  0  0
   47.5152   35.7700   41.6421 H   0  0  0  0  0  0  0  0  0  0  0  0
   45.9401   33.2117   41.1403 H   0  0  0  0  0  0  0  0  0  0  0  0
   45.5525   34.8498   40.3570 H   0  0  0  0  0  0  0  0  0  0  0  0
   47.2549   33.2184   39.0907 H   0  0  0  0  0  0  0  0  0  0  0  0
   47.7194   34.9664   39.3495 H   0  0  0  0  0  0  0  0  0  0  0  0
   49.5234   34.3110   40.5983 H   0  0  0  0  0  0  0  0  0  0  0  0
   47.6958   32.8299   42.4851 H   0  0  0  0  0  0  0  0  0  0  0  0
   48.9268   34.0727   42.8570 H   0  0  0  0  0  0  0  0  0  0  0  0
   43.7986   36.7607   44.6152 H   0  0  0  0  0  0  0  0  0  0  0  0
   45.1537   36.6805   42.5122 H   0  0  0  0  0  0  0  0  0  0  0  0
   45.8289   33.2616   46.0115 H   0  0  0  0  0  0  0  0  0  0  0  0
   48.4326   31.5721   39.9898 H   0  0  0  0  0  0  0  0  0  0  0  0
   50.0607   32.2904   42.5809 H   0  0  0  0  0  0  0  0  0  0  0  0
   49.6544   30.5580   42.0428 H   0  0  0  0  0  0  0  0  0  0  0  0
   51.2119   32.7367   40.3244 H   0  0  0  0  0  0  0  0  0  0  0  0
   50.5869   32.3268   36.9030 H   0  0  0  0  0  0  0  0  0  0  0  0
   54.2301   32.3833   37.9489 C   0  0  0  0  0  0  0  0  0  0  0  0
   55.5671   32.1125   37.7533 C   0  0  0  0  0  0  0  0  0  0  0  0
   55.9996   31.3725   38.4075 H   0  0  0  0  0  0  0  0  0  0  0  0
   56.3011   32.7525   36.7785 C   0  0  0  0  0  0  0  0  0  0  0  0
   55.7108   33.7070   35.9466 C   0  0  0  0  0  0  0  0  0  0  0  0
   54.3738   33.9905   36.1282 C   0  0  0  0  0  0  0  0  0  0  0  0
   53.7675   34.9372   35.3108 C   0  0  0  0  0  0  0  0  0  0  0  0
   52.4172   35.2521   35.4627 C   0  0  0  0  0  0  0  0  0  0  0  0
   51.6810   34.6022   36.4492 C   0  0  0  0  0  0  0  0  0  0  0  0
   52.3308   33.6781   37.2259 C   0  0  0  0  0  0  0  0  0  0  0  0
   53.6597   33.3326   37.1153 C   0  0  0  0  0  0  0  0  0  0  0  0
   57.3522   32.5205   36.6458 H   0  0  0  0  0  0  0  0  0  0  0  0
   56.3218   34.1876   35.1925 H   0  0  0  0  0  0  0  0  0  0  0  0
   54.3424   35.4488   34.5358 H   0  0  0  0  0  0  0  0  0  0  0  0
   52.0109   35.9977   34.7927 H   0  0  0  0  0  0  0  0  0  0  0  0
   50.6437   34.8498   36.5598 H   0  0  0  0  0  0  0  0  0  0  0  0
   51.7394   33.1810   37.9908 H   0  0  0  0  0  0  0  0  0  0  0  0
  1  5  1  0
  1  8  1  0
  2  1  1  0
  3  4  1  0
  3  2  1  0
  4  5  1  0
  6 11  2  0
  7  6  1  0
  8  7  2  0
  8  9  1  0
  9 10  2  0
 10 11  1  0
 12  4  1  0
 12 13  1  0
 14 12  1  0
 14 13  1  0
 15 14  1  0
 16 17  2  0
 17 19  1  1
 17 15  1  0
 18 17  1  0
  1 20  1  6
  2 21  1  0
  2 22  1  0
  3 23  1  0
  3 24  1  0
  4 25  1  1
  5 26  1  0
  5 27  1  0
  6 28  1  0
  7 29  1  0
 10 30  1  0
 12 31  1  6
 13 32  1  0
 13 33  1  0
 14 34  1  1
 18 35  1  0
 36 37  2  0
 37 38  1  0
 37 39  1  0
 39 40  2  0
 40 41  1  0
 41 42  2  0
 42 43  1  0
 43 44  2  0
 44 45  1  0
 45 46  2  0
 46 36  1  0
 46 41  1  0
 39 47  1  0
 40 48  1  0
 42 49  1  0
 43 50  1  0
 44 51  1  0
 45 52  1  0
 19 36  1  0
M  ISO  8  20  13  21  13  22  13  23  13  24  13  25  13  26  13  27  13
M  ISO  8  28  14  29  14  30  14  31  13  32  13  33  13  34  13  35   3
M  ISO  1  38  15
M  END
>  <DihAtoms>  (1) 
16,18,35,36

>  <DihDeg>  (1) 
-0.005124330987120436

$$$$
