
     RDKit          3D

 56 61  0  0  0  0  0  0  0  0999 V2000
   46.0580   32.9310   44.9170 C   0  0  0  0  0  0  0  0  0  0  0  0
   45.9110   33.4720   46.1910 C   0  0  0  0  0  0  0  0  0  0  0  0
   45.7330   32.6890   47.3380 C   0  0  0  0  0  0  0  0  0  0  0  0
   45.6950   31.3260   47.2470 C   0  0  0  0  0  0  0  0  0  0  0  0
   45.8330   30.7510   45.9700 C   0  0  0  0  0  0  0  0  0  0  0  0
   45.7310   29.3960   45.9130 C   0  0  0  0  0  0  0  0  0  0  0  0
   45.7850   28.8000   44.6490 C   0  0  0  0  0  0  0  0  0  0  0  0
   45.9330   29.6470   43.4940 C   0  0  0  0  0  0  0  0  0  0  0  0
   46.0220   31.0010   43.7200 C   0  0  0  0  0  0  0  0  0  0  0  0
   45.9990   31.6220   44.8920 C   0  0  0  0  0  0  0  0  0  0  0  0
   44.3210   31.3390   42.1580 C   0  0  0  0  0  0  0  0  0  0  0  0
   45.7590   31.3160   42.3310 C   0  0  0  0  0  0  0  0  0  0  0  0
   46.3790   31.4440   41.1590 C   0  0  0  0  0  0  0  0  0  0  0  0
   45.7660   31.5770   39.9290 C   0  0  0  0  0  0  0  0  0  0  0  0
   44.3940   31.5900   39.7980 C   0  0  0  0  0  0  0  0  0  0  0  0
   43.6530   31.4670   40.9500 C   0  0  0  0  0  0  0  0  0  0  0  0
   43.3500   31.2360   43.1860 O   0  0  0  0  0  0  0  0  0  0  0  0
   42.3210   31.4800   40.7430 O   0  0  0  0  0  0  0  0  0  0  0  0
   41.2610   32.1970   40.6560 C   0  0  0  0  0  0  0  0  0  0  0  0
   40.9770   33.5100   40.3800 C   0  0  0  0  0  0  0  0  0  0  0  0
   39.7530   34.1410   40.3240 C   0  0  0  0  0  0  0  0  0  0  0  0
   38.7050   33.2870   40.5900 C   0  0  0  0  0  0  0  0  0  0  0  0
   38.8230   31.9550   40.8820 C   0  0  0  0  0  0  0  0  0  0  0  0
   37.6600   31.2620   41.1190 C   0  0  0  0  0  0  0  0  0  0  0  0
   37.7670   29.9220   41.4130 C   0  0  0  0  0  0  0  0  0  0  0  0
   38.9850   29.3240   41.4630 C   0  0  0  0  0  0  0  0  0  0  0  0
   40.0950   30.0750   41.2150 C   0  0  0  0  0  0  0  0  0  0  0  0
   40.1140   31.4280   40.9090 C   0  0  0  0  0  0  0  0  0  0  0  0
   46.5150   35.2320   42.0150 C   0  0  0  0  0  0  0  0  0  0  0  0
   47.9270   35.2730   41.9580 C   0  0  0  0  0  0  0  0  0  0  0  0
   48.5990   34.5010   42.8860 C   0  0  0  0  0  0  0  0  0  0  0  0
   47.8240   33.8160   43.7220 N   0  0  0  0  0  0  0  0  0  0  0  0
   46.4990   33.7570   43.8050 C   0  0  0  0  0  0  0  0  0  0  0  0
   45.8810   34.4850   42.9230 N   0  0  0  0  0  0  0  0  0  0  0  0
   50.0080   34.3950   42.8950 N   0  0  0  0  0  0  0  0  0  0  0  0
   45.9358   34.5661   46.3019 H   0  0  0  0  0  0  0  0  0  0  0  0
   45.6230   33.1743   48.3190 H   0  0  0  0  0  0  0  0  0  0  0  0
   45.5611   30.6997   48.1414 H   0  0  0  0  0  0  0  0  0  0  0  0
   45.6108   28.7928   46.8250 H   0  0  0  0  0  0  0  0  0  0  0  0
   45.7159   27.7076   44.5395 H   0  0  0  0  0  0  0  0  0  0  0  0
   45.9731   29.2301   42.4768 H   0  0  0  0  0  0  0  0  0  0  0  0
   47.4789   31.4437   41.1723 H   0  0  0  0  0  0  0  0  0  0  0  0
   46.3900   31.6753   39.0285 H   0  0  0  0  0  0  0  0  0  0  0  0
   43.9125   31.6943   38.8145 H   0  0  0  0  0  0  0  0  0  0  0  0
   42.3863   31.2627   42.9611 H   0  0  0  0  0  0  0  0  0  0  0  0
   41.8483   34.1492   40.1745 H   0  0  0  0  0  0  0  0  0  0  0  0
   39.6267   35.2089   40.0924 H   0  0  0  0  0  0  0  0  0  0  0  0
   37.6901   33.7105   40.5657 H   0  0  0  0  0  0  0  0  0  0  0  0
   36.6802   31.7600   41.0753 H   0  0  0  0  0  0  0  0  0  0  0  0
   36.8599   29.3314   41.6088 H   0  0  0  0  0  0  0  0  0  0  0  0
   39.0742   28.2534   41.6993 H   0  0  0  0  0  0  0  0  0  0  0  0
   41.0661   29.5605   41.2618 H   0  0  0  0  0  0  0  0  0  0  0  0
   45.9280   35.8258   41.2989 H   0  0  0  0  0  0  0  0  0  0  0  0
   48.4608   35.8853   41.2163 H   0  0  0  0  0  0  0  0  0  0  0  0
   50.4759   33.8100   43.6019 H   0  0  0  0  0  0  0  0  0  0  0  0
   50.5671   34.9027   42.1947 H   0  0  0  0  0  0  0  0  0  0  0  0
  1  2  2  0
  2  3  1  0
  4  3  2  0
  5  4  1  0
  6  5  2  0
  7  6  1  0
  8  9  1  0
  8  7  2  0
  9 10  2  0
 10  1  1  0
 10  5  1  0
 11 12  2  0
 11 17  1  0
 12  9  1  0
 13 12  1  0
 14 13  2  0
 15 14  1  0
 15 16  2  0
 16 11  1  0
 18 16  1  0
 19 18  1  0
 19 28  1  0
 20 19  2  0
 21 20  1  0
 21 22  2  0
 22 23  1  0
 23 28  2  0
 23 24  1  0
 24 25  2  0
 25 26  1  0
 27 26  2  0
 28 27  1  0
 29 34  2  0
 30 29  1  0
 30 31  2  0
 31 35  1  0
 31 32  1  0
 32 33  2  0
 33  1  1  0
 34 33  1  0
  2 36  1  0
  3 37  1  0
  4 38  1  0
  6 39  1  0
  7 40  1  0
  8 41  1  0
 13 42  1  0
 14 43  1  0
 15 44  1  0
 17 45  1  0
 20 46  1  0
 21 47  1  0
 22 48  1  0
 24 49  1  0
 25 50  1  0
 26 51  1  0
 27 52  1  0
 29 53  1  0
 30 54  1  0
 35 55  1  0
 35 56  1  0
M  END
>  <minimizedAffinity>  (1) 
-7.0136199

>  <minimizedRMSD>  (1) 
3.47868371

$$$$
