
     RDKit          3D

 38 41  0  0  0  0  0  0  0  0999 V2000
   44.6735   35.3748   45.1409 C   0  0  0  0  0  0  0  0  0  0  0  0
   45.1350   35.6964   43.8354 C   0  0  0  0  0  0  0  0  0  0  0  0
   46.0869   34.8517   43.3393 C   0  0  0  0  0  0  0  0  0  0  0  0
   46.5551   33.7785   44.0628 N   0  0  0  0  0  0  0  0  0  0  0  0
   46.0914   33.5133   45.2927 C   0  0  0  0  0  0  0  0  0  0  0  0
   45.1407   34.3198   45.8368 N   0  0  0  0  0  0  0  0  0  0  0  0
   46.5837   35.0942   41.9322 C   0  0  1  0  0  0  0  0  0  0  0  0
   48.0990   35.2967   41.9160 C   0  0  0  0  0  0  0  0  0  0  0  0
   47.3348   34.0768   41.3090 C   0  0  2  0  0  0  0  0  0  0  0  0
   47.4015   33.8920   39.8159 C   0  0  0  0  0  0  0  0  0  0  0  0
   44.6564   36.8129   43.1280 N   0  0  0  0  0  0  0  0  0  0  0  0
   43.9146   35.9833   45.6120 H   0  0  0  0  0  0  0  0  0  0  0  0
   46.4725   32.6652   45.8510 H   0  0  0  0  0  0  0  0  0  0  0  0
   46.0569   35.8873   41.4057 H   0  0  0  0  0  0  0  0  0  0  0  0
   48.5224   35.9867   41.1465 H   0  0  0  0  0  0  0  0  0  0  0  0
   48.6771   35.1598   42.8226 H   0  0  0  0  0  0  0  0  0  0  0  0
   47.6574   33.1441   41.8763 H   0  0  0  0  0  0  0  0  0  0  0  0
   47.9818   32.9485   39.6138 H   0  0  0  0  0  0  0  0  0  0  0  0
   47.9762   34.7608   39.4661 H   0  0  0  0  0  0  0  0  0  0  0  0
   45.4536   37.4856   43.0297 H   0  0  0  0  0  0  0  0  0  0  0  0
   43.6576   36.9319   42.7680 H   0  0  0  0  0  0  0  0  0  0  0  0
   46.0780   33.7200   39.2137 C   0  0  0  0  0  0  0  0  0  0  0  0
   46.0800   32.9495   38.0421 C   0  0  0  0  0  0  0  0  0  0  0  0
   46.9776   32.5996   37.5446 H   0  0  0  0  0  0  0  0  0  0  0  0
   44.8814   32.5795   37.4427 C   0  0  0  0  0  0  0  0  0  0  0  0
   43.6509   32.9418   37.9521 C   0  0  0  0  0  0  0  0  0  0  0  0
   43.6378   33.6926   39.0832 C   0  0  0  0  0  0  0  0  0  0  0  0
   42.4259   34.1284   39.6143 C   0  0  0  0  0  0  0  0  0  0  0  0
   42.4619   34.9304   40.7370 C   0  0  0  0  0  0  0  0  0  0  0  0
   43.6541   35.2972   41.3304 C   0  0  0  0  0  0  0  0  0  0  0  0
   44.8390   34.8490   40.7860 C   0  0  0  0  0  0  0  0  0  0  0  0
   44.8112   34.0393   39.6501 C   0  0  0  0  0  0  0  0  0  0  0  0
   44.8466   31.9730   36.5360 H   0  0  0  0  0  0  0  0  0  0  0  0
   42.6938   32.6753   37.5257 H   0  0  0  0  0  0  0  0  0  0  0  0
   41.4798   33.8358   39.1412 H   0  0  0  0  0  0  0  0  0  0  0  0
   41.4652   35.2330   41.0875 H   0  0  0  0  0  0  0  0  0  0  0  0
   43.5745   35.9322   42.2069 H   0  0  0  0  0  0  0  0  0  0  0  0
   45.7048   35.1785   41.2984 H   0  0  0  0  0  0  0  0  0  0  0  0
  1  6  2  0
  2  1  1  0
  3  2  2  0
  3  4  1  0
  4  5  2  0
  5  6  1  0
  7  3  1  0
  8  7  1  0
  9  8  1  0
  9  7  1  0
 10  9  1  0
 11  2  1  0
  1 12  1  0
  5 13  1  0
  7 14  1  6
  8 15  1  0
  8 16  1  0
  9 17  1  1
 10 18  1  0
 10 19  1  0
 11 20  1  0
 11 21  1  0
 22 23  2  0
 23 24  1  0
 23 25  1  0
 25 26  2  0
 26 27  1  0
 27 28  2  0
 28 29  1  0
 29 30  2  0
 30 31  1  0
 31 32  2  0
 32 22  1  0
 32 27  1  0
 25 33  1  0
 26 34  1  0
 28 35  1  0
 29 36  1  0
 30 37  1  0
 31 38  1  0
 10 22  1  0
M  ISO  8  12  14  13  14  14  13  15  13  16  13  17  13  18   8  19   8
M  ISO  1  24  15
M  END
>  <DihAtoms>  (1) 
8,9,21,22

>  <DihDeg>  (1) 
-46.29226912365502

$$$$
