
     RDKit          3D

 45 48  0  0  0  0  0  0  0  0999 V2000
   45.1377   36.0049   43.0586 C   0  0  0  0  0  0  0  0  0  0  0  0
   44.1387   35.8072   42.0861 C   0  0  0  0  0  0  0  0  0  0  0  0
   44.3788   34.8106   41.1215 C   0  0  0  0  0  0  0  0  0  0  0  0
   45.5343   34.1022   41.1708 N   0  0  0  0  0  0  0  0  0  0  0  0
   46.4555   34.3305   42.1204 C   0  0  0  0  0  0  0  0  0  0  0  0
   46.2562   35.2785   43.0596 N   0  0  0  0  0  0  0  0  0  0  0  0
   48.9538   35.7992   41.2369 Cl  0  0  0  0  0  0  0  0  0  0  0  0
   48.8713   34.1432   41.7054 C   0  0  0  0  0  0  0  0  0  0  0  0
   47.6843   33.5176   42.1045 C   0  0  0  0  0  0  0  0  0  0  0  0
   47.6005   32.2060   42.4782 C   0  0  0  0  0  0  0  0  0  0  0  0
   48.7545   31.4698   42.4569 C   0  0  0  0  0  0  0  0  0  0  0  0
   49.9894   31.9830   42.0793 C   0  0  0  0  0  0  0  0  0  0  0  0
   49.9853   33.3325   41.7121 C   0  0  0  0  0  0  0  0  0  0  0  0
   44.9267   37.0394   44.0901 C   0  0  0  0  0  0  0  0  0  0  0  0
   45.4478   38.2162   43.8977 C   0  0  0  0  0  0  0  0  0  0  0  0
   45.2420   39.2785   44.9328 C   0  0  0  0  0  0  0  0  0  0  0  0
   44.8012   40.4648   44.2560 N   0  0  0  0  0  0  0  0  0  0  0  0
   43.2371   36.4081   42.1027 H   0  0  0  0  0  0  0  0  0  0  0  0
   43.6354   34.6358   40.3661 H   0  0  0  0  0  0  0  0  0  0  0  0
   46.6726   31.7499   42.7811 H   0  0  0  0  0  0  0  0  0  0  0  0
   48.7052   30.4295   42.7500 H   0  0  0  0  0  0  0  0  0  0  0  0
   50.8804   31.3918   42.0691 H   0  0  0  0  0  0  0  0  0  0  0  0
   50.9534   33.7195   41.4203 H   0  0  0  0  0  0  0  0  0  0  0  0
   44.3600   36.8593   44.9935 H   0  0  0  0  0  0  0  0  0  0  0  0
   46.0424   38.5704   43.0544 H   0  0  0  0  0  0  0  0  0  0  0  0
   44.4652   38.9399   45.6540 H   0  0  0  0  0  0  0  0  0  0  0  0
   46.2010   39.4125   45.4587 H   0  0  0  0  0  0  0  0  0  0  0  0
   45.5084   41.2239   44.3338 H   0  0  0  0  0  0  0  0  0  0  0  0
   43.6112   40.6815   43.5593 C   0  0  0  0  0  0  0  0  0  0  0  0
   43.0055   41.9132   43.4348 C   0  0  0  0  0  0  0  0  0  0  0  0
   43.4177   42.7897   43.8742 H   0  0  0  0  0  0  0  0  0  0  0  0
   41.8374   42.1694   42.7468 C   0  0  0  0  0  0  0  0  0  0  0  0
   41.2032   41.1100   42.1196 C   0  0  0  0  0  0  0  0  0  0  0  0
   41.7648   39.8661   42.2132 C   0  0  0  0  0  0  0  0  0  0  0  0
   41.1058   38.8371   41.5767 C   0  0  0  0  0  0  0  0  0  0  0  0
   41.5821   37.5459   41.6063 C   0  0  0  0  0  0  0  0  0  0  0  0
   42.7517   37.3129   42.3004 C   0  0  0  0  0  0  0  0  0  0  0  0
   43.3781   38.3709   42.9223 C   0  0  0  0  0  0  0  0  0  0  0  0
   42.9311   39.6721   42.9133 C   0  0  0  0  0  0  0  0  0  0  0  0
   41.3803   43.1332   42.6603 H   0  0  0  0  0  0  0  0  0  0  0  0
   40.2890   41.2624   41.5709 H   0  0  0  0  0  0  0  0  0  0  0  0
   40.1729   39.0229   41.0230 H   0  0  0  0  0  0  0  0  0  0  0  0
   41.0236   36.7793   41.0892 H   0  0  0  0  0  0  0  0  0  0  0  0
   43.1095   36.2999   42.3136 H   0  0  0  0  0  0  0  0  0  0  0  0
   44.2777   38.0742   43.4315 H   0  0  0  0  0  0  0  0  0  0  0  0
  1  6  1  0
  1 14  1  0
  2  1  2  0
  3  4  2  0
  3  2  1  0
  4  5  1  0
  5  6  2  0
  7  8  1  0
  8 13  2  0
  8  9  1  0
  9  5  1  0
  9 10  2  0
 11 10  1  0
 12 11  2  0
 13 12  1  0
 15 14  2  0
 15 16  1  0
 17 16  1  0
  2 18  1  0
  3 19  1  0
 10 20  1  0
 11 21  1  0
 12 22  1  0
 13 23  1  0
 14 24  1  0
 15 25  1  0
 16 26  1  0
 16 27  1  0
 17 28  1  0
 29 30  2  0
 30 31  1  0
 30 32  1  0
 32 33  2  0
 33 34  1  0
 34 35  2  0
 35 36  1  0
 36 37  2  0
 37 38  1  0
 38 39  2  0
 39 29  1  0
 39 34  1  0
 32 40  1  0
 33 41  1  0
 35 42  1  0
 36 43  1  0
 37 44  1  0
 38 45  1  0
 17 29  1  0
M  ISO  8  18  14  19  14  20  14  21  14  22  14  23  14  26   8  27   8
M  ISO  2  28   5  31  15
M  END
>  <DihAtoms>  (1) 
15,16,28,29

>  <DihDeg>  (1) 
1.1693836256373789

$$$$
