
     RDKit          3D

 40 44  0  0  0  0  0  0  0  0999 V2000
   47.4554   31.6792   44.8244 C   0  0  0  0  0  0  0  0  0  0  0  0
   46.7814   32.8595   44.5355 C   0  0  0  0  0  0  0  0  0  0  0  0
   45.9198   33.4384   45.4254 C   0  0  0  0  0  0  0  0  0  0  0  0
   45.6865   32.8544   46.6694 C   0  0  0  0  0  0  0  0  0  0  0  0
   44.9258   33.1423   47.7570 N   0  0  0  0  0  0  0  0  0  0  0  0
   45.1144   32.1778   48.6965 C   0  0  0  0  0  0  0  0  0  0  0  0
   45.9995   31.3069   48.1564 N   0  0  0  0  0  0  0  0  0  0  0  0
   46.3608   31.6976   46.9256 C   0  0  0  0  0  0  0  0  0  0  0  0
   47.2365   31.0771   46.0647 C   0  0  0  0  0  0  0  0  0  0  0  0
   46.3765   33.8099   41.0185 C   0  0  0  0  0  0  0  0  0  0  0  0
   47.4240   34.7187   40.8264 C   0  0  0  0  0  0  0  0  0  0  0  0
   48.2689   35.0043   41.9057 C   0  0  0  0  0  0  0  0  0  0  0  0
   48.0198   34.3731   43.0962 N   0  0  0  0  0  0  0  0  0  0  0  0
   46.9986   33.5015   43.2439 C   0  0  0  0  0  0  0  0  0  0  0  0
   46.1765   33.2149   42.2178 N   0  0  0  0  0  0  0  0  0  0  0  0
   45.0477   34.9613   45.0536 S   0  0  0  0  0  0  0  0  0  0  0  0
   48.1299   31.2624   44.0785 H   0  0  0  0  0  0  0  0  0  0  0  0
   44.3074   34.0067   47.7879 H   0  0  0  0  0  0  0  0  0  0  0  0
   44.6227   32.1689   49.6634 H   0  0  0  0  0  0  0  0  0  0  0  0
   47.7557   30.1517   46.3091 H   0  0  0  0  0  0  0  0  0  0  0  0
   45.7196   33.5844   40.1889 H   0  0  0  0  0  0  0  0  0  0  0  0
   47.5835   35.1941   39.8677 H   0  0  0  0  0  0  0  0  0  0  0  0
   49.0996   35.7026   41.8152 H   0  0  0  0  0  0  0  0  0  0  0  0
   45.9968   36.3870   45.5569 C   0  0  0  0  0  0  0  0  0  0  0  0
   47.0948   36.8041   44.8292 C   0  0  0  0  0  0  0  0  0  0  0  0
   47.3649   36.2413   43.9431 H   0  0  0  0  0  0  0  0  0  0  0  0
   47.7541   37.9179   45.3101 C   0  0  0  0  0  0  0  0  0  0  0  0
   47.3532   38.5819   46.4433 C   0  0  0  0  0  0  0  0  0  0  0  0
   46.2395   38.1455   47.1673 C   0  0  0  0  0  0  0  0  0  0  0  0
   45.9051   38.8707   48.2946 C   0  0  0  0  0  0  0  0  0  0  0  0
   44.8052   38.4323   49.0017 C   0  0  0  0  0  0  0  0  0  0  0  0
   44.1004   37.3204   48.5717 C   0  0  0  0  0  0  0  0  0  0  0  0
   44.4708   36.6326   47.4456 C   0  0  0  0  0  0  0  0  0  0  0  0
   45.5625   37.0269   46.7005 C   0  0  0  0  0  0  0  0  0  0  0  0
   48.6217   38.2167   44.7023 H   0  0  0  0  0  0  0  0  0  0  0  0
   47.9575   39.4412   46.7121 H   0  0  0  0  0  0  0  0  0  0  0  0
   46.4899   39.7259   48.5801 H   0  0  0  0  0  0  0  0  0  0  0  0
   44.5290   39.0001   49.8999 H   0  0  0  0  0  0  0  0  0  0  0  0
   43.2340   36.9988   49.1537 H   0  0  0  0  0  0  0  0  0  0  0  0
   43.9302   35.7719   47.1072 H   0  0  0  0  0  0  0  0  0  0  0  0
  1  9  2  0
  2  1  1  0
  2  3  2  0
  3  4  1  0
  4  8  2  0
  4  5  1  0
  5  6  1  0
  7  6  2  0
  8  7  1  0
  9  8  1  0
 10 15  2  0
 11 10  1  0
 11 12  2  0
 12 13  1  0
 13 14  2  0
 14  2  1  0
 15 14  1  0
 16  3  1  0
  1 17  1  0
  5 18  1  0
  6 19  1  0
  9 20  1  0
 10 21  1  0
 11 22  1  0
 12 23  1  0
 24 25  2  0
 25 26  1  0
 25 27  1  0
 27 28  2  0
 28 29  1  0
 29 30  2  0
 30 31  1  0
 31 32  2  0
 32 33  1  0
 33 34  2  0
 34 24  1  0
 34 29  1  0
 27 35  1  0
 28 36  1  0
 30 37  1  0
 31 38  1  0
 32 39  1  0
 33 40  1  0
 16 24  1  0
M  ISO  8  17  14  18   9  19  14  20  14  21  14  22  14  23  14  26  15
M  END
>  <DihAtoms>  (1) 
2,15,23,24

>  <DihDeg>  (1) 
-0.0022900085077317413

$$$$
