
     RDKit          3D

 37 39  0  0  0  0  0  0  0  0999 V2000
   48.0902   32.9112   41.9126 O   0  0  0  0  0  0  0  0  0  0  0  0
   47.1948   34.0377   41.3324 P   0  0  2  0  0  0  0  0  0  0  0  0
   45.5965   33.8243   41.9196 O   0  0  0  0  0  0  0  0  0  0  0  0
   44.3660   35.9171   44.6349 C   0  0  0  0  0  0  0  0  0  0  0  0
   44.6652   35.4656   43.3283 C   0  0  0  0  0  0  0  0  0  0  0  0
   45.3176   34.2314   43.2069 C   0  0  0  0  0  0  0  0  0  0  0  0
   45.6215   33.5465   44.3274 N   0  0  0  0  0  0  0  0  0  0  0  0
   45.3221   34.0043   45.5635 C   0  0  0  0  0  0  0  0  0  0  0  0
   44.6982   35.1818   45.7269 N   0  0  0  0  0  0  0  0  0  0  0  0
   47.1758   33.9161   39.6785 O   0  0  0  0  0  0  0  0  0  0  0  0
   46.5486   33.0189   38.8732 C   0  0  0  0  0  0  0  0  0  0  0  0
   45.9203   33.5010   37.7729 O   0  0  0  0  0  0  0  0  0  0  0  0
   47.7896   35.4705   41.9161 O   0  0  0  0  0  0  0  0  0  0  0  0
   49.0447   35.7725   41.4056 C   0  0  0  0  0  0  0  0  0  0  0  0
   49.4521   37.0549   41.7274 F   0  0  0  0  0  0  0  0  0  0  0  0
   49.9483   34.8241   41.7628 F   0  0  0  0  0  0  0  0  0  0  0  0
   48.9146   35.7431   40.0191 F   0  0  0  0  0  0  0  0  0  0  0  0
   43.8630   36.8689   44.7367 H   0  0  0  0  0  0  0  0  0  0  0  0
   44.3794   36.0867   42.5020 H   0  0  0  0  0  0  0  0  0  0  0  0
   45.6019   33.3896   46.4263 H   0  0  0  0  0  0  0  0  0  0  0  0
   46.2345   31.5884   38.6537 C   0  0  0  0  0  0  0  0  0  0  0  0
   44.9902   31.2060   38.1019 C   0  0  0  0  0  0  0  0  0  0  0  0
   44.3817   32.0664   37.7360 H   0  0  0  0  0  0  0  0  0  0  0  0
   44.3996   29.9810   37.9378 C   0  0  0  0  0  0  0  0  0  0  0  0
   45.2139   28.9843   38.4152 C   0  0  0  0  0  0  0  0  0  0  0  0
   46.4405   29.2620   38.9653 C   0  0  0  0  0  0  0  0  0  0  0  0
   47.2556   28.2383   39.3988 C   0  0  0  0  0  0  0  0  0  0  0  0
   48.5223   28.3479   39.9339 C   0  0  0  0  0  0  0  0  0  0  0  0
   48.9938   29.6644   40.0277 C   0  0  0  0  0  0  0  0  0  0  0  0
   48.2036   30.7037   39.6051 C   0  0  0  0  0  0  0  0  0  0  0  0
   46.9509   30.5521   39.0841 C   0  0  0  0  0  0  0  0  0  0  0  0
   43.4366   29.8815   37.4927 H   0  0  0  0  0  0  0  0  0  0  0  0
   44.8636   27.9660   38.3479 H   0  0  0  0  0  0  0  0  0  0  0  0
   46.8388   27.2381   39.3016 H   0  0  0  0  0  0  0  0  0  0  0  0
   49.0418   27.4470   40.2314 H   0  0  0  0  0  0  0  0  0  0  0  0
   49.9985   29.7268   40.4520 H   0  0  0  0  0  0  0  0  0  0  0  0
   48.7420   31.6134   39.7086 H   0  0  0  0  0  0  0  0  0  0  0  0
  2  1  2  0
  2  3  1  1
  2 13  1  0
  3  6  1  0
  4  9  2  0
  5  4  1  0
  6  5  2  0
  6  7  1  0
  7  8  2  0
  8  9  1  0
 10  2  1  0
 11 10  1  0
 12 11  2  0
 14 16  1  0
 14 15  1  0
 14 13  1  0
 17 14  1  0
  4 18  1  0
  5 19  1  0
  8 20  1  0
 21 22  2  0
 22 23  1  0
 22 24  1  0
 24 25  2  0
 25 26  1  0
 26 27  2  0
 27 28  1  0
 28 29  2  0
 29 30  1  0
 30 31  2  0
 31 21  1  0
 31 26  1  0
 24 32  1  0
 25 33  1  0
 27 34  1  0
 28 35  1  0
 29 36  1  0
 30 37  1  0
 11 21  1  0
M  ISO  4  18  14  19  14  20  14  23  15
M  END
>  <DihAtoms>  (1) 
9,10,20,21

>  <DihDeg>  (1) 
-20.291404428908407

$$$$
