
     RDKit          3D

 51 54  0  0  0  0  0  0  0  0999 V2000
   44.6681   35.2851   45.0680 O   0  0  0  0  0  0  0  0  0  0  0  0
   45.4908   34.2565   44.3383 P   0  0  2  0  0  0  0  0  0  0  0  0
   44.5278   33.0603   43.6438 O   0  0  0  0  0  0  0  0  0  0  0  0
   46.5192   33.4700   45.4103 O   0  0  0  0  0  0  0  0  0  0  0  0
   46.2091   32.1452   45.4256 C   0  0  0  0  0  0  0  0  0  0  0  0
   45.7540   32.0316   49.1130 C   0  0  0  0  0  0  0  0  0  0  0  0
   46.0582   32.5281   47.8363 C   0  0  0  0  0  0  0  0  0  0  0  0
   45.8962   31.6493   46.7770 C   0  0  0  0  0  0  0  0  0  0  0  0
   45.4585   30.3725   47.0222 N   0  0  0  0  0  0  0  0  0  0  0  0
   45.1785   29.9397   48.2662 C   0  0  0  0  0  0  0  0  0  0  0  0
   45.3264   30.7634   49.2934 N   0  0  0  0  0  0  0  0  0  0  0  0
   46.4087   35.0364   43.1659 O   0  0  0  0  0  0  0  0  0  0  0  0
   46.9349   34.0893   42.2867 C   0  0  1  0  0  0  0  0  0  0  0  0
   46.3996   34.2572   40.8810 C   0  0  0  0  0  0  0  0  0  0  0  0
   47.3368   33.3619   40.1044 C   0  0  0  0  0  0  0  0  0  0  0  0
   48.6257   33.3542   40.8620 C   0  0  0  0  0  0  0  0  0  0  0  0
   48.4163   34.3013   42.0572 C   0  0  1  0  0  0  0  0  0  0  0  0
   48.7653   35.7009   41.7038 C   0  0  0  0  0  0  0  0  0  0  0  0
   43.5807   33.3336   43.6077 H   0  0  0  0  0  0  0  0  0  0  0  0
   45.4300   31.7839   44.7643 H   0  0  0  0  0  0  0  0  0  0  0  0
   47.1391   31.5852   45.1127 H   0  0  0  0  0  0  0  0  0  0  0  0
   45.8503   32.6445   49.9961 H   0  0  0  0  0  0  0  0  0  0  0  0
   46.3968   33.5520   47.7547 H   0  0  0  0  0  0  0  0  0  0  0  0
   44.8463   28.9013   48.2528 H   0  0  0  0  0  0  0  0  0  0  0  0
   46.7303   33.0682   42.5968 H   0  0  0  0  0  0  0  0  0  0  0  0
   46.3318   35.2766   40.5246 H   0  0  0  0  0  0  0  0  0  0  0  0
   45.3702   33.8314   40.8522 H   0  0  0  0  0  0  0  0  0  0  0  0
   46.8932   32.3699   39.9433 H   0  0  0  0  0  0  0  0  0  0  0  0
   47.4981   33.8244   39.1112 H   0  0  0  0  0  0  0  0  0  0  0  0
   49.4874   33.8009   40.2984 H   0  0  0  0  0  0  0  0  0  0  0  0
   48.8452   32.3253   41.2134 H   0  0  0  0  0  0  0  0  0  0  0  0
   48.9597   33.8383   42.8777 H   0  0  0  0  0  0  0  0  0  0  0  0
   48.2590   35.9253   40.7350 H   0  0  0  0  0  0  0  0  0  0  0  0
   49.8541   35.6969   41.4333 H   0  0  0  0  0  0  0  0  0  0  0  0
   48.4242   36.7279   42.6831 C   0  0  0  0  0  0  0  0  0  0  0  0
   49.3287   37.7591   42.9777 C   0  0  0  0  0  0  0  0  0  0  0  0
   50.2800   37.7539   42.4559 H   0  0  0  0  0  0  0  0  0  0  0  0
   49.1186   38.7856   43.8755 C   0  0  0  0  0  0  0  0  0  0  0  0
   47.9147   38.8092   44.5493 C   0  0  0  0  0  0  0  0  0  0  0  0
   46.9808   37.8231   44.3054 C   0  0  0  0  0  0  0  0  0  0  0  0
   45.7928   37.8865   45.0051 C   0  0  0  0  0  0  0  0  0  0  0  0
   44.8369   36.8986   44.7768 C   0  0  0  0  0  0  0  0  0  0  0  0
   45.0976   35.8919   43.8671 C   0  0  0  0  0  0  0  0  0  0  0  0
   46.2963   35.8610   43.1862 C   0  0  0  0  0  0  0  0  0  0  0  0
   47.2465   36.8204   43.3955 C   0  0  0  0  0  0  0  0  0  0  0  0
   49.8820   39.5270   44.0251 H   0  0  0  0  0  0  0  0  0  0  0  0
   47.7158   39.5900   45.2535 H   0  0  0  0  0  0  0  0  0  0  0  0
   45.6296   38.6964   45.7109 H   0  0  0  0  0  0  0  0  0  0  0  0
   43.9125   36.9556   45.3272 H   0  0  0  0  0  0  0  0  0  0  0  0
   44.3144   35.1491   43.7319 H   0  0  0  0  0  0  0  0  0  0  0  0
   46.4624   35.0712   42.4990 H   0  0  0  0  0  0  0  0  0  0  0  0
  2  1  2  0
  2  4  1  1
  3  2  1  0
  4  5  1  0
  5  8  1  0
  6 11  2  0
  7  6  1  0
  8  9  1  0
  8  7  2  0
  9 10  2  0
 10 11  1  0
 12  2  1  0
 13 12  1  0
 14 13  1  0
 15 16  1  0
 15 14  1  0
 16 17  1  0
 17 13  1  0
 18 17  1  0
  3 19  1  0
  5 20  1  0
  5 21  1  0
  6 22  1  0
  7 23  1  0
 10 24  1  0
 13 25  1  1
 14 26  1  0
 14 27  1  0
 15 28  1  0
 15 29  1  0
 16 30  1  0
 16 31  1  0
 17 32  1  1
 18 33  1  0
 18 34  1  0
 35 36  2  0
 36 37  1  0
 36 38  1  0
 38 39  2  0
 39 40  1  0
 40 41  2  0
 41 42  1  0
 42 43  2  0
 43 44  1  0
 44 45  2  0
 45 35  1  0
 45 40  1  0
 38 46  1  0
 39 47  1  0
 41 48  1  0
 42 49  1  0
 43 50  1  0
 44 51  1  0
 18 35  1  0
M  ISO  8  19   3  20   8  21   8  22  14  23  14  24  14  25  13  26  13
M  ISO  8  27  13  28  13  29  13  30  13  31  13  32  13  33   8  34   8
M  ISO  1  37  15
M  END
>  <DihAtoms>  (1) 
16,17,34,35

>  <DihDeg>  (1) 
-102.63144460083276

$$$$
