
     RDKit          3D

 46 49  0  0  0  0  0  0  0  0999 V2000
   47.6220   29.9860   44.9300 F   0  0  0  0  0  0  0  0  0  0  0  0
   47.5010   30.7650   46.0530 C   0  0  0  0  0  0  0  0  0  0  0  0
   46.9370   32.0220   45.9610 C   0  0  0  0  0  0  0  0  0  0  0  0
   46.8580   32.7340   47.1470 C   0  0  0  0  0  0  0  0  0  0  0  0
   47.3190   32.2140   48.3330 C   0  0  0  0  0  0  0  0  0  0  0  0
   47.8750   30.9490   48.3580 C   0  0  0  0  0  0  0  0  0  0  0  0
   47.9800   30.1860   47.2050 C   0  0  0  0  0  0  0  0  0  0  0  0
   46.7960   34.1100   42.9610 C   0  0  0  0  0  0  0  0  0  0  0  0
   45.6620   33.6460   42.2920 C   0  0  0  0  0  0  0  0  0  0  0  0
   44.9480   32.5960   42.8970 C   0  0  0  0  0  0  0  0  0  0  0  0
   45.3690   32.0870   44.0680 N   0  0  0  0  0  0  0  0  0  0  0  0
   46.4600   32.5590   44.6790 C   0  0  0  0  0  0  0  0  0  0  0  0
   47.1800   33.5690   44.1350 N   0  0  0  0  0  0  0  0  0  0  0  0
   45.2700   34.2580   41.0170 C   0  0  0  0  0  0  0  0  0  0  0  0
   44.9410   35.5910   41.2050 F   0  0  0  0  0  0  0  0  0  0  0  0
   46.3740   34.2350   40.1770 F   0  0  0  0  0  0  0  0  0  0  0  0
   44.2400   33.6560   40.3800 F   0  0  0  0  0  0  0  0  0  0  0  0
   47.4900   35.1170   42.3860 O   0  0  0  0  0  0  0  0  0  0  0  0
   48.8160   35.0690   41.9090 C   0  0  0  0  0  0  0  0  0  0  0  0
   49.6480   35.3270   42.9790 F   0  0  0  0  0  0  0  0  0  0  0  0
   49.0500   33.8460   41.3280 F   0  0  0  0  0  0  0  0  0  0  0  0
   49.0220   36.1080   41.0300 F   0  0  0  0  0  0  0  0  0  0  0  0
   48.5690   28.8080   47.2200 C   0  0  0  0  0  0  0  0  0  0  0  0
   50.0600   28.8800   47.2730 C   0  0  0  0  0  0  0  0  0  0  0  0
   50.7330   29.1230   46.0940 C   0  0  0  0  0  0  0  0  0  0  0  0
   52.1040   29.1370   46.1240 C   0  0  0  0  0  0  0  0  0  0  0  0
   52.8690   28.9260   47.2490 C   0  0  0  0  0  0  0  0  0  0  0  0
   52.1620   28.6860   48.4220 C   0  0  0  0  0  0  0  0  0  0  0  0
   52.8640   28.4760   49.5880 C   0  0  0  0  0  0  0  0  0  0  0  0
   52.2410   28.2360   50.8190 C   0  0  0  0  0  0  0  0  0  0  0  0
   50.8650   28.2350   50.7200 C   0  0  0  0  0  0  0  0  0  0  0  0
   50.0820   28.4330   49.6100 C   0  0  0  0  0  0  0  0  0  0  0  0
   50.7820   28.6630   48.4350 C   0  0  0  0  0  0  0  0  0  0  0  0
   46.4152   33.7409   47.1393 H   0  0  0  0  0  0  0  0  0  0  0  0
   47.2456   32.8028   49.2592 H   0  0  0  0  0  0  0  0  0  0  0  0
   48.2413   30.5395   49.3110 H   0  0  0  0  0  0  0  0  0  0  0  0
   44.0467   32.1920   42.4129 H   0  0  0  0  0  0  0  0  0  0  0  0
   48.2006   28.2659   48.1034 H   0  0  0  0  0  0  0  0  0  0  0  0
   48.2694   28.2817   46.3017 H   0  0  0  0  0  0  0  0  0  0  0  0
   50.1858   29.3005   45.1564 H   0  0  0  0  0  0  0  0  0  0  0  0
   52.6318   29.3313   45.1787 H   0  0  0  0  0  0  0  0  0  0  0  0
   53.9685   28.9460   47.2217 H   0  0  0  0  0  0  0  0  0  0  0  0
   53.9632   28.4977   49.5508 H   0  0  0  0  0  0  0  0  0  0  0  0
   52.7872   28.0673   51.7588 H   0  0  0  0  0  0  0  0  0  0  0  0
   50.3213   28.0504   51.6582 H   0  0  0  0  0  0  0  0  0  0  0  0
   48.9829   28.4109   49.6495 H   0  0  0  0  0  0  0  0  0  0  0  0
  1  2  1  0
  2  7  2  0
  3  2  1  0
  3  4  2  0
  4  5  1  0
  5  6  2  0
  7 23  1  0
  7  6  1  0
  8 13  2  0
  9 10  2  0
  9  8  1  0
 10 11  1  0
 11 12  2  0
 12  3  1  0
 13 12  1  0
 14 15  1  0
 14  9  1  0
 16 14  1  0
 17 14  1  0
 18  8  1  0
 19 18  1  0
 19 20  1  0
 21 19  1  0
 22 19  1  0
 23 24  1  0
 24 33  2  0
 25 26  2  0
 25 24  1  0
 26 27  1  0
 27 28  2  0
 28 33  1  0
 28 29  1  0
 29 30  2  0
 31 30  1  0
 32 31  2  0
 33 32  1  0
  4 34  1  0
  5 35  1  0
  6 36  1  0
 10 37  1  0
 23 38  1  0
 23 39  1  0
 25 40  1  0
 26 41  1  0
 27 42  1  0
 29 43  1  0
 30 44  1  0
 31 45  1  0
 32 46  1  0
M  ISO  8  34  14  35  14  36  14  37  14  38   8  39   8  40  14  41  14
M  ISO  5  42  14  43  14  44  14  45  14  46  14
M  END
>  <minimizedAffinity>  (1) 
-6.10693979

>  <minimizedRMSD>  (1) 
1.70880353

$$$$
