
     RDKit          3D

 38 41  0  0  0  0  0  0  0  0999 V2000
   44.6735   35.3748   45.1409 C   0  0  0  0  0  0  0  0  0  0  0  0
   45.1350   35.6964   43.8354 C   0  0  0  0  0  0  0  0  0  0  0  0
   46.0869   34.8517   43.3393 C   0  0  0  0  0  0  0  0  0  0  0  0
   46.5551   33.7785   44.0628 N   0  0  0  0  0  0  0  0  0  0  0  0
   46.0914   33.5133   45.2927 C   0  0  0  0  0  0  0  0  0  0  0  0
   45.1407   34.3198   45.8368 N   0  0  0  0  0  0  0  0  0  0  0  0
   46.5837   35.0942   41.9322 C   0  0  1  0  0  0  0  0  0  0  0  0
   48.0990   35.2967   41.9160 C   0  0  0  0  0  0  0  0  0  0  0  0
   47.3348   34.0768   41.3090 C   0  0  2  0  0  0  0  0  0  0  0  0
   47.4015   33.8920   39.8159 C   0  0  0  0  0  0  0  0  0  0  0  0
   44.6564   36.8129   43.1280 N   0  0  0  0  0  0  0  0  0  0  0  0
   43.9146   35.9833   45.6120 H   0  0  0  0  0  0  0  0  0  0  0  0
   46.4725   32.6652   45.8510 H   0  0  0  0  0  0  0  0  0  0  0  0
   46.0569   35.8873   41.4057 H   0  0  0  0  0  0  0  0  0  0  0  0
   48.5224   35.9867   41.1465 H   0  0  0  0  0  0  0  0  0  0  0  0
   48.6771   35.1598   42.8226 H   0  0  0  0  0  0  0  0  0  0  0  0
   47.6574   33.1441   41.8763 H   0  0  0  0  0  0  0  0  0  0  0  0
   47.9818   32.9485   39.6138 H   0  0  0  0  0  0  0  0  0  0  0  0
   47.9762   34.7608   39.4661 H   0  0  0  0  0  0  0  0  0  0  0  0
   45.4536   37.4856   43.0297 H   0  0  0  0  0  0  0  0  0  0  0  0
   43.6576   36.9319   42.7680 H   0  0  0  0  0  0  0  0  0  0  0  0
   46.0780   33.7200   39.2137 C   0  0  0  0  0  0  0  0  0  0  0  0
   46.1088   33.2478   37.8937 C   0  0  0  0  0  0  0  0  0  0  0  0
   47.0153   33.1240   37.3119 H   0  0  0  0  0  0  0  0  0  0  0  0
   44.9298   32.8975   37.2454 C   0  0  0  0  0  0  0  0  0  0  0  0
   43.6917   32.9938   37.8475 C   0  0  0  0  0  0  0  0  0  0  0  0
   43.6502   33.4552   39.1237 C   0  0  0  0  0  0  0  0  0  0  0  0
   42.4239   33.6197   39.7640 C   0  0  0  0  0  0  0  0  0  0  0  0
   42.4256   34.1378   41.0432 C   0  0  0  0  0  0  0  0  0  0  0  0
   43.5982   34.4857   41.6851 C   0  0  0  0  0  0  0  0  0  0  0  0
   44.7983   34.3094   41.0295 C   0  0  0  0  0  0  0  0  0  0  0  0
   44.8050   33.7878   39.7355 C   0  0  0  0  0  0  0  0  0  0  0  0
   44.9186   32.5182   36.2221 H   0  0  0  0  0  0  0  0  0  0  0  0
   42.7496   32.7300   37.3874 H   0  0  0  0  0  0  0  0  0  0  0  0
   41.4934   33.3427   39.2521 H   0  0  0  0  0  0  0  0  0  0  0  0
   41.4191   34.2392   41.4727 H   0  0  0  0  0  0  0  0  0  0  0  0
   43.4916   34.8870   42.6877 H   0  0  0  0  0  0  0  0  0  0  0  0
   45.6470   34.6041   41.5896 H   0  0  0  0  0  0  0  0  0  0  0  0
  1  6  2  0
  2  1  1  0
  3  2  2  0
  3  4  1  0
  4  5  2  0
  5  6  1  0
  7  3  1  0
  8  7  1  0
  9  8  1  0
  9  7  1  0
 10  9  1  0
 11  2  1  0
  1 12  1  0
  5 13  1  0
  7 14  1  6
  8 15  1  0
  8 16  1  0
  9 17  1  1
 10 18  1  0
 10 19  1  0
 11 20  1  0
 11 21  1  0
 22 23  2  0
 23 24  1  0
 23 25  1  0
 25 26  2  0
 26 27  1  0
 27 28  2  0
 28 29  1  0
 29 30  2  0
 30 31  1  0
 31 32  2  0
 32 22  1  0
 32 27  1  0
 25 33  1  0
 26 34  1  0
 28 35  1  0
 29 36  1  0
 30 37  1  0
 31 38  1  0
 10 22  1  0
M  ISO  8  12  14  13  14  14  13  15  13  16  13  17  13  18   8  19   8
M  ISO  1  24  15
M  END
>  <DihAtoms>  (1) 
8,9,21,22

>  <DihDeg>  (1) 
-46.29226912365502

$$$$
