
     RDKit          3D

 40 44  0  0  0  0  0  0  0  0999 V2000
   47.4554   31.6792   44.8244 C   0  0  0  0  0  0  0  0  0  0  0  0
   46.7814   32.8595   44.5355 C   0  0  0  0  0  0  0  0  0  0  0  0
   45.9198   33.4384   45.4254 C   0  0  0  0  0  0  0  0  0  0  0  0
   45.6865   32.8544   46.6694 C   0  0  0  0  0  0  0  0  0  0  0  0
   44.9258   33.1423   47.7570 N   0  0  0  0  0  0  0  0  0  0  0  0
   45.1144   32.1778   48.6965 C   0  0  0  0  0  0  0  0  0  0  0  0
   45.9995   31.3069   48.1564 N   0  0  0  0  0  0  0  0  0  0  0  0
   46.3608   31.6976   46.9256 C   0  0  0  0  0  0  0  0  0  0  0  0
   47.2365   31.0771   46.0647 C   0  0  0  0  0  0  0  0  0  0  0  0
   46.3765   33.8099   41.0185 C   0  0  0  0  0  0  0  0  0  0  0  0
   47.4240   34.7187   40.8264 C   0  0  0  0  0  0  0  0  0  0  0  0
   48.2689   35.0043   41.9057 C   0  0  0  0  0  0  0  0  0  0  0  0
   48.0198   34.3731   43.0962 N   0  0  0  0  0  0  0  0  0  0  0  0
   46.9986   33.5015   43.2439 C   0  0  0  0  0  0  0  0  0  0  0  0
   46.1765   33.2149   42.2178 N   0  0  0  0  0  0  0  0  0  0  0  0
   45.0477   34.9613   45.0536 S   0  0  0  0  0  0  0  0  0  0  0  0
   48.1299   31.2624   44.0785 H   0  0  0  0  0  0  0  0  0  0  0  0
   44.3074   34.0067   47.7879 H   0  0  0  0  0  0  0  0  0  0  0  0
   44.6227   32.1689   49.6634 H   0  0  0  0  0  0  0  0  0  0  0  0
   47.7557   30.1517   46.3091 H   0  0  0  0  0  0  0  0  0  0  0  0
   45.7196   33.5844   40.1889 H   0  0  0  0  0  0  0  0  0  0  0  0
   47.5835   35.1941   39.8677 H   0  0  0  0  0  0  0  0  0  0  0  0
   49.0996   35.7026   41.8152 H   0  0  0  0  0  0  0  0  0  0  0  0
   45.9968   36.3870   45.5569 C   0  0  0  0  0  0  0  0  0  0  0  0
   47.2364   36.2435   46.1501 C   0  0  0  0  0  0  0  0  0  0  0  0
   47.6176   35.2403   46.3020 H   0  0  0  0  0  0  0  0  0  0  0  0
   47.8815   37.4135   46.4986 C   0  0  0  0  0  0  0  0  0  0  0  0
   47.3352   38.6534   46.2747 C   0  0  0  0  0  0  0  0  0  0  0  0
   46.0794   38.7795   45.6732 C   0  0  0  0  0  0  0  0  0  0  0  0
   45.6041   40.0630   45.4849 C   0  0  0  0  0  0  0  0  0  0  0  0
   44.3647   40.1768   44.8908 C   0  0  0  0  0  0  0  0  0  0  0  0
   43.6658   39.0409   44.5176 C   0  0  0  0  0  0  0  0  0  0  0  0
   44.1791   37.7872   44.7251 C   0  0  0  0  0  0  0  0  0  0  0  0
   45.4139   37.6149   45.3151 C   0  0  0  0  0  0  0  0  0  0  0  0
   48.8646   37.2553   46.9676 H   0  0  0  0  0  0  0  0  0  0  0  0
   47.9452   39.4905   46.5956 H   0  0  0  0  0  0  0  0  0  0  0  0
   46.1915   40.9077   45.7952 H   0  0  0  0  0  0  0  0  0  0  0  0
   43.9755   41.1916   44.7356 H   0  0  0  0  0  0  0  0  0  0  0  0
   42.6869   39.1649   44.0494 H   0  0  0  0  0  0  0  0  0  0  0  0
   43.6441   36.9043   44.4389 H   0  0  0  0  0  0  0  0  0  0  0  0
  1  9  2  0
  2  1  1  0
  2  3  2  0
  3  4  1  0
  4  8  2  0
  4  5  1  0
  5  6  1  0
  7  6  2  0
  8  7  1  0
  9  8  1  0
 10 15  2  0
 11 10  1  0
 11 12  2  0
 12 13  1  0
 13 14  2  0
 14  2  1  0
 15 14  1  0
 16  3  1  0
  1 17  1  0
  5 18  1  0
  6 19  1  0
  9 20  1  0
 10 21  1  0
 11 22  1  0
 12 23  1  0
 24 25  2  0
 25 26  1  0
 25 27  1  0
 27 28  2  0
 28 29  1  0
 29 30  2  0
 30 31  1  0
 31 32  2  0
 32 33  1  0
 33 34  2  0
 34 24  1  0
 34 29  1  0
 27 35  1  0
 28 36  1  0
 30 37  1  0
 31 38  1  0
 32 39  1  0
 33 40  1  0
 16 24  1  0
M  ISO  8  17  14  18   9  19  14  20  14  21  14  22  14  23  14  26  15
M  END
>  <DihAtoms>  (1) 
2,15,23,24

>  <DihDeg>  (1) 
-0.0022900085077317413

$$$$
