
     RDKit          3D

 50 54  0  0  0  0  0  0  0  0999 V2000
   45.7230   31.1470   46.5040 C   0  0  0  0  0  0  0  0  0  0  0  0
   46.7310   30.9920   45.5370 C   0  0  0  0  0  0  0  0  0  0  0  0
   47.0380   29.6490   45.2240 C   0  0  0  0  0  0  0  0  0  0  0  0
   46.3520   28.6630   45.8650 N   0  0  0  0  0  0  0  0  0  0  0  0
   45.3880   28.8890   46.7890 C   0  0  0  0  0  0  0  0  0  0  0  0
   45.0700   30.1550   47.1110 N   0  0  0  0  0  0  0  0  0  0  0  0
   43.4120   27.5460   45.0730 Cl  0  0  0  0  0  0  0  0  0  0  0  0
   43.7680   27.0610   46.7420 C   0  0  0  0  0  0  0  0  0  0  0  0
   44.7140   27.7800   47.4220 C   0  0  0  0  0  0  0  0  0  0  0  0
   44.9850   27.4060   48.7040 C   0  0  0  0  0  0  0  0  0  0  0  0
   44.2850   26.3110   49.2520 C   0  0  0  0  0  0  0  0  0  0  0  0
   43.3420   25.6100   48.5460 C   0  0  0  0  0  0  0  0  0  0  0  0
   43.0590   25.9900   47.2310 C   0  0  0  0  0  0  0  0  0  0  0  0
   43.9340   23.8740   45.7320 F   0  0  0  0  0  0  0  0  0  0  0  0
   42.6370   24.2330   45.6990 C   0  0  0  0  0  0  0  0  0  0  0  0
   42.0660   25.2910   46.4150 C   0  0  0  0  0  0  0  0  0  0  0  0
   40.7250   25.5620   46.2990 C   0  0  0  0  0  0  0  0  0  0  0  0
   39.9550   24.7840   45.4740 C   0  0  0  0  0  0  0  0  0  0  0  0
   40.4770   23.7330   44.7510 C   0  0  0  0  0  0  0  0  0  0  0  0
   41.8410   23.4500   44.8630 C   0  0  0  0  0  0  0  0  0  0  0  0
   48.0800   29.4640   44.2140 C   0  0  0  0  0  0  0  0  0  0  0  0
   48.5280   28.1570   44.2400 F   0  0  0  0  0  0  0  0  0  0  0  0
   49.1490   30.2320   44.6210 F   0  0  0  0  0  0  0  0  0  0  0  0
   47.6280   29.7210   42.9360 F   0  0  0  0  0  0  0  0  0  0  0  0
   47.3810   32.0180   44.9300 O   0  0  0  0  0  0  0  0  0  0  0  0
   47.2330   32.7910   43.8930 C   0  0  0  0  0  0  0  0  0  0  0  0
   47.7500   32.8150   42.6230 C   0  0  0  0  0  0  0  0  0  0  0  0
   47.5070   33.7010   41.6010 C   0  0  0  0  0  0  0  0  0  0  0  0
   46.6150   34.7020   41.9120 C   0  0  0  0  0  0  0  0  0  0  0  0
   46.0240   34.7950   43.1510 C   0  0  0  0  0  0  0  0  0  0  0  0
   45.1510   35.8440   43.3090 C   0  0  0  0  0  0  0  0  0  0  0  0
   44.5200   35.9900   44.5180 C   0  0  0  0  0  0  0  0  0  0  0  0
   44.7700   35.0980   45.5310 C   0  0  0  0  0  0  0  0  0  0  0  0
   45.6580   34.0810   45.2770 C   0  0  0  0  0  0  0  0  0  0  0  0
   46.3400   33.8500   44.1040 C   0  0  0  0  0  0  0  0  0  0  0  0
   45.4491   32.1748   46.7843 H   0  0  0  0  0  0  0  0  0  0  0  0
   45.7348   27.9473   49.2997 H   0  0  0  0  0  0  0  0  0  0  0  0
   44.5044   26.0077   50.2863 H   0  0  0  0  0  0  0  0  0  0  0  0
   42.8159   24.7612   49.0074 H   0  0  0  0  0  0  0  0  0  0  0  0
   40.2742   26.3931   46.8611 H   0  0  0  0  0  0  0  0  0  0  0  0
   38.8814   25.0065   45.3857 H   0  0  0  0  0  0  0  0  0  0  0  0
   39.8315   23.1278   44.0975 H   0  0  0  0  0  0  0  0  0  0  0  0
   42.2830   22.6170   44.2968 H   0  0  0  0  0  0  0  0  0  0  0  0
   48.4614   32.0093   42.3887 H   0  0  0  0  0  0  0  0  0  0  0  0
   47.9864   33.6170   40.6145 H   0  0  0  0  0  0  0  0  0  0  0  0
   46.3668   35.4513   41.1458 H   0  0  0  0  0  0  0  0  0  0  0  0
   44.9627   36.5494   42.4862 H   0  0  0  0  0  0  0  0  0  0  0  0
   43.8153   36.8198   44.6755 H   0  0  0  0  0  0  0  0  0  0  0  0
   44.2775   35.1940   46.5099 H   0  0  0  0  0  0  0  0  0  0  0  0
   45.8440   33.3751   46.0999 H   0  0  0  0  0  0  0  0  0  0  0  0
  1  6  2  0
  2  1  1  0
  3  2  2  0
  3  4  1  0
  4  5  2  0
  5  6  1  0
  5  9  1  0
  7  8  1  0
  8 13  2  0
  8  9  1  0
  9 10  2  0
 10 11  1  0
 12 11  2  0
 13 12  1  0
 15 14  1  0
 15 16  2  0
 16 13  1  0
 17 16  1  0
 18 17  2  0
 19 20  2  0
 19 18  1  0
 20 15  1  0
 21 22  1  0
 21 23  1  0
 21  3  1  0
 24 21  1  0
 25  2  1  0
 26 35  1  0
 26 25  1  0
 27 26  2  0
 28 29  2  0
 28 27  1  0
 29 30  1  0
 30 31  1  0
 30 35  2  0
 31 32  2  0
 32 33  1  0
 34 33  2  0
 35 34  1  0
  1 36  1  0
 10 37  1  0
 11 38  1  0
 12 39  1  0
 17 40  1  0
 18 41  1  0
 19 42  1  0
 20 43  1  0
 27 44  1  0
 28 45  1  0
 29 46  1  0
 31 47  1  0
 32 48  1  0
 33 49  1  0
 34 50  1  0
M  ISO  8  36  14  37  14  38  14  39  14  40  14  41  14  42  14  43  14
M  ISO  7  44  14  45  14  46  14  47  14  48  14  49  14  50  14
M  END
>  <minimizedAffinity>  (1) 
-6.73690939

>  <minimizedRMSD>  (1) 
6.56206036

$$$$
