
     RDKit          3D

 35 38  0  0  0  0  0  0  0  0999 V2000
   45.3360   36.0580   43.3520 C   0  0  0  0  0  0  0  0  0  0  0  0
   46.0750   34.8630   43.1650 C   0  0  0  0  0  0  0  0  0  0  0  0
   46.0300   33.9620   44.1800 C   0  0  0  0  0  0  0  0  0  0  0  0
   45.3190   34.1830   45.3170 N   0  0  0  0  0  0  0  0  0  0  0  0
   44.6160   35.3520   45.4560 C   0  0  0  0  0  0  0  0  0  0  0  0
   44.6230   36.2770   44.4930 N   0  0  0  0  0  0  0  0  0  0  0  0
   46.7510   32.7790   44.0670 C   0  0  0  0  0  0  0  0  0  0  0  0
   47.3900   32.1770   43.0100 C   0  0  0  0  0  0  0  0  0  0  0  0
   48.0340   31.0240   43.1480 C   0  0  0  0  0  0  0  0  0  0  0  0
   48.0340   30.4310   44.4380 C   0  0  0  0  0  0  0  0  0  0  0  0
   47.0340   31.6490   45.4780 S   0  0  0  0  0  0  0  0  0  0  0  0
   46.7210   34.7320   41.9300 C   0  0  0  0  0  0  0  0  0  0  0  0
   47.8620   35.2930   41.7980 O   0  0  0  0  0  0  0  0  0  0  0  0
   46.7160   34.2350   40.5810 C   0  0  0  0  0  0  0  0  0  0  0  0
   48.0010   34.4710   40.0620 C   0  0  0  0  0  0  0  0  0  0  0  0
   48.3660   34.1080   38.7610 C   0  0  0  0  0  0  0  0  0  0  0  0
   47.4160   33.4880   37.9450 C   0  0  0  0  0  0  0  0  0  0  0  0
   46.1660   33.2670   38.4740 C   0  0  0  0  0  0  0  0  0  0  0  0
   45.1350   32.6640   37.7870 C   0  0  0  0  0  0  0  0  0  0  0  0
   43.8760   32.4310   38.2990 C   0  0  0  0  0  0  0  0  0  0  0  0
   43.6010   32.8280   39.6120 C   0  0  0  0  0  0  0  0  0  0  0  0
   44.5950   33.4350   40.3380 C   0  0  0  0  0  0  0  0  0  0  0  0
   45.8270   33.6330   39.7610 C   0  0  0  0  0  0  0  0  0  0  0  0
   45.3379   36.8230   42.5616 H   0  0  0  0  0  0  0  0  0  0  0  0
   44.0376   35.5305   46.3745 H   0  0  0  0  0  0  0  0  0  0  0  0
   47.3675   32.6630   42.0235 H   0  0  0  0  0  0  0  0  0  0  0  0
   48.5460   30.5483   42.2986 H   0  0  0  0  0  0  0  0  0  0  0  0
   48.5038   29.4883   44.7554 H   0  0  0  0  0  0  0  0  0  0  0  0
   48.7486   34.9601   40.7037 H   0  0  0  0  0  0  0  0  0  0  0  0
   49.3814   34.3069   38.3876 H   0  0  0  0  0  0  0  0  0  0  0  0
   47.6596   33.1872   36.9153 H   0  0  0  0  0  0  0  0  0  0  0  0
   45.3309   32.3446   36.7528 H   0  0  0  0  0  0  0  0  0  0  0  0
   43.1032   31.9427   37.6872 H   0  0  0  0  0  0  0  0  0  0  0  0
   42.6081   32.6571   40.0536 H   0  0  0  0  0  0  0  0  0  0  0  0
   44.4076   33.7601   41.3720 H   0  0  0  0  0  0  0  0  0  0  0  0
  1  6  2  0
  2  1  1  0
  2  3  2  0
  3  4  1  0
  4  5  2  0
  6  5  1  0
  7  3  1  0
  7 11  1  0
  8  9  1  0
  8  7  2  0
  9 10  2  0
 10 11  1  0
 12  2  1  0
 13 12  2  0
 14 12  1  0
 15 14  2  0
 16 15  1  0
 17 18  1  0
 17 16  2  0
 18 23  2  0
 19 20  2  0
 19 18  1  0
 20 21  1  0
 21 22  2  0
 23 22  1  0
 23 14  1  0
  1 24  1  0
  5 25  1  0
  8 26  1  0
  9 27  1  0
 10 28  1  0
 15 29  1  0
 16 30  1  0
 17 31  1  0
 19 32  1  0
 20 33  1  0
 21 34  1  0
 22 35  1  0
M  ISO  8  24  14  25  14  26  14  27  14  28  14  29  14  30  14  31  14
M  ISO  4  32  14  33  14  34  14  35  14
M  END
>  <minimizedAffinity>  (1) 
-5.6201849

>  <minimizedRMSD>  (1) 
0.919789493

$$$$
