
     RDKit          3D

 39 42  0  0  0  0  0  0  0  0999 V2000
   44.9051   35.0445   43.5610 C   0  0  0  0  0  0  0  0  0  0  0  0
   45.2780   34.9267   42.2027 C   0  0  0  0  0  0  0  0  0  0  0  0
   46.3914   34.1238   41.8723 C   0  0  0  0  0  0  0  0  0  0  0  0
   47.0346   33.5133   42.8934 N   0  0  0  0  0  0  0  0  0  0  0  0
   46.6551   33.6462   44.1688 C   0  0  0  0  0  0  0  0  0  0  0  0
   45.5929   34.4099   44.5027 N   0  0  0  0  0  0  0  0  0  0  0  0
   43.7942   35.8495   43.8597 N   0  0  0  0  0  0  0  0  0  0  0  0
   47.9665   34.6469   40.1108 C   0  0  0  0  0  0  0  0  0  0  0  0
   46.8102   33.9752   40.4805 C   0  0  0  0  0  0  0  0  0  0  0  0
   46.1701   33.2436   39.5307 C   0  0  0  0  0  0  0  0  0  0  0  0
   46.6094   33.1353   38.2236 C   0  0  0  0  0  0  0  0  0  0  0  0
   47.7646   33.8126   37.8741 C   0  0  0  0  0  0  0  0  0  0  0  0
   48.4376   34.5599   38.8026 C   0  0  0  0  0  0  0  0  0  0  0  0
   49.3226   36.0758   41.8109 N   0  0  0  0  0  0  0  0  0  0  0  0
   48.7036   35.4388   41.0422 C   0  0  0  0  0  0  0  0  0  0  0  0
   44.7349   35.4321   41.4239 H   0  0  0  0  0  0  0  0  0  0  0  0
   47.1465   33.1729   45.0055 H   0  0  0  0  0  0  0  0  0  0  0  0
   43.7399   36.3856   44.7553 H   0  0  0  0  0  0  0  0  0  0  0  0
   43.0138   35.9079   43.1705 H   0  0  0  0  0  0  0  0  0  0  0  0
   45.2617   32.7178   39.8273 H   0  0  0  0  0  0  0  0  0  0  0  0
   46.0856   32.5488   37.4852 H   0  0  0  0  0  0  0  0  0  0  0  0
   48.1924   33.7976   36.8913 H   0  0  0  0  0  0  0  0  0  0  0  0
   49.6698   35.2888   38.4504 C   0  0  0  0  0  0  0  0  0  0  0  0
   50.1352   35.2017   37.1540 C   0  0  0  0  0  0  0  0  0  0  0  0
   49.6633   34.6354   36.3666 H   0  0  0  0  0  0  0  0  0  0  0  0
   51.3031   35.8963   36.8324 C   0  0  0  0  0  0  0  0  0  0  0  0
   51.9048   36.6159   37.8283 C   0  0  0  0  0  0  0  0  0  0  0  0
   51.4670   36.7227   39.1276 C   0  0  0  0  0  0  0  0  0  0  0  0
   52.1119   37.4630   40.0956 C   0  0  0  0  0  0  0  0  0  0  0  0
   51.6147   37.5271   41.3877 C   0  0  0  0  0  0  0  0  0  0  0  0
   50.4574   36.8101   41.6145 C   0  0  0  0  0  0  0  0  0  0  0  0
   49.7556   36.0486   40.7029 C   0  0  0  0  0  0  0  0  0  0  0  0
   50.2995   36.0235   39.4334 C   0  0  0  0  0  0  0  0  0  0  0  0
   51.7550   35.8978   35.8500 H   0  0  0  0  0  0  0  0  0  0  0  0
   52.8278   37.1839   37.6351 H   0  0  0  0  0  0  0  0  0  0  0  0
   53.0041   37.9929   39.8477 H   0  0  0  0  0  0  0  0  0  0  0  0
   52.0779   38.0884   42.1782 H   0  0  0  0  0  0  0  0  0  0  0  0
   50.0583   36.8557   42.6327 H   0  0  0  0  0  0  0  0  0  0  0  0
   48.8569   35.5281   40.9953 H   0  0  0  0  0  0  0  0  0  0  0  0
  1  7  1  0
  1  6  2  0
  2  1  1  0
  3  2  2  0
  3  4  1  0
  4  5  2  0
  5  6  1  0
  8  9  2  0
  8 15  1  0
  9  3  1  0
 10  9  1  0
 11 10  2  0
 12 11  1  0
 12 13  2  0
 13  8  1  0
 15 14  3  0
  2 16  1  0
  5 17  1  0
  7 18  1  0
  7 19  1  0
 10 20  1  0
 11 21  1  0
 12 22  1  0
 23 24  2  0
 24 25  1  0
 24 26  1  0
 26 27  2  0
 27 28  1  0
 28 29  2  0
 29 30  1  0
 30 31  2  0
 31 32  1  0
 32 33  2  0
 33 23  1  0
 33 28  1  0
 26 34  1  0
 27 35  1  0
 29 36  1  0
 30 37  1  0
 31 38  1  0
 32 39  1  0
 13 23  1  0
M  ISO  6  16  14  17  14  20  14  21  14  22  14  25  15
M  END
>  <DihAtoms>  (1) 
11,12,22,23

>  <DihDeg>  (1) 
90.00126202889

$$$$
