
     RDKit          3D

 49 54  0  0  0  0  0  0  0  0999 V2000
   46.3919   32.6651   45.8701 C   0  0  1  0  0  0  0  0  0  0  0  0
   46.9774   32.8316   47.2071 C   0  0  0  0  0  0  0  0  0  0  0  0
   45.5491   32.2042   46.9551 C   0  0  2  0  0  0  0  0  0  0  0  0
   45.3015   30.8032   47.2977 C   0  0  0  0  0  0  0  0  0  0  0  0
   45.1701   30.2666   48.5435 C   0  0  0  0  0  0  0  0  0  0  0  0
   45.0625   28.9151   48.8414 C   0  0  0  0  0  0  0  0  0  0  0  0
   45.0950   28.0324   47.7420 C   0  0  0  0  0  0  0  0  0  0  0  0
   45.2254   28.5614   46.4679 C   0  0  0  0  0  0  0  0  0  0  0  0
   45.1945   27.6610   45.4223 C   0  0  0  0  0  0  0  0  0  0  0  0
   45.2556   28.1351   44.1081 C   0  0  0  0  0  0  0  0  0  0  0  0
   45.3432   29.4882   43.8590 C   0  0  0  0  0  0  0  0  0  0  0  0
   45.3724   30.3385   44.9389 C   0  0  0  0  0  0  0  0  0  0  0  0
   45.3230   29.9120   46.2540 C   0  0  0  0  0  0  0  0  0  0  0  0
   44.6207   35.7307   44.8287 C   0  0  0  0  0  0  0  0  0  0  0  0
   45.1438   35.9631   43.5177 C   0  0  0  0  0  0  0  0  0  0  0  0
   46.1045   35.0571   43.0316 C   0  0  0  0  0  0  0  0  0  0  0  0
   46.4704   34.0433   43.8196 N   0  0  0  0  0  0  0  0  0  0  0  0
   45.9612   33.8420   45.0621 C   0  0  0  0  0  0  0  0  0  0  0  0
   45.0527   34.6762   45.5491 N   0  0  0  0  0  0  0  0  0  0  0  0
   47.1497   32.0231   45.2923 H   0  0  0  0  0  0  0  0  0  0  0  0
   46.9908   33.8248   47.6577 H   0  0  0  0  0  0  0  0  0  0  0  0
   47.6474   32.1090   47.6962 H   0  0  0  0  0  0  0  0  0  0  0  0
   44.8776   32.8844   47.5684 H   0  0  0  0  0  0  0  0  0  0  0  0
   45.1519   31.0023   49.3564 H   0  0  0  0  0  0  0  0  0  0  0  0
   44.9604   28.5805   49.8653 H   0  0  0  0  0  0  0  0  0  0  0  0
   45.0142   26.9771   47.9699 H   0  0  0  0  0  0  0  0  0  0  0  0
   45.1231   26.5967   45.6352 H   0  0  0  0  0  0  0  0  0  0  0  0
   45.2262   27.3279   43.3601 H   0  0  0  0  0  0  0  0  0  0  0  0
   45.3757   29.6567   42.8073 H   0  0  0  0  0  0  0  0  0  0  0  0
   45.3539   31.2964   44.5025 H   0  0  0  0  0  0  0  0  0  0  0  0
   43.8838   36.4410   45.1746 H   0  0  0  0  0  0  0  0  0  0  0  0
   44.8143   36.8288   42.9958 H   0  0  0  0  0  0  0  0  0  0  0  0
   46.8165   35.1362   41.7798 C   0  0  0  0  0  0  0  0  0  0  0  0
   46.6465   36.3075   41.0288 C   0  0  0  0  0  0  0  0  0  0  0  0
   45.9820   37.0978   41.4121 H   0  0  0  0  0  0  0  0  0  0  0  0
   47.2491   36.5710   39.8219 C   0  0  0  0  0  0  0  0  0  0  0  0
   48.0928   35.6242   39.2876 C   0  0  0  0  0  0  0  0  0  0  0  0
   48.3124   34.4486   39.9691 C   0  0  0  0  0  0  0  0  0  0  0  0
   49.1809   33.5034   39.4703 C   0  0  0  0  0  0  0  0  0  0  0  0
   49.4643   32.3161   40.1446 C   0  0  0  0  0  0  0  0  0  0  0  0
   48.8011   32.1558   41.3677 C   0  0  0  0  0  0  0  0  0  0  0  0
   47.9385   33.1153   41.8411 C   0  0  0  0  0  0  0  0  0  0  0  0
   47.6740   34.2621   41.1673 C   0  0  0  0  0  0  0  0  0  0  0  0
   47.0618   37.5025   39.3074 H   0  0  0  0  0  0  0  0  0  0  0  0
   48.5944   35.7714   38.3427 H   0  0  0  0  0  0  0  0  0  0  0  0
   49.6686   33.6771   38.5193 H   0  0  0  0  0  0  0  0  0  0  0  0
   50.1557   31.6166   39.6957 H   0  0  0  0  0  0  0  0  0  0  0  0
   49.0577   31.2060   41.8625 H   0  0  0  0  0  0  0  0  0  0  0  0
   47.5652   32.8462   42.7846 H   0  0  0  0  0  0  0  0  0  0  0  0
  1  3  1  0
  1  2  1  0
  3  2  1  0
  3  4  1  0
  4  5  2  0
  5  6  1  0
  7  6  2  0
  8  7  1  0
  9  8  2  0
 10  9  1  0
 11 10  2  0
 11 12  1  0
 12 13  2  0
 13  8  1  0
 13  4  1  0
 14 19  2  0
 15 14  1  0
 16 15  2  0
 16 17  1  0
 17 18  2  0
 18 19  1  0
 18  1  1  0
  1 20  1  6
  2 21  1  0
  2 22  1  0
  3 23  1  1
  5 24  1  0
  6 25  1  0
  7 26  1  0
  9 27  1  0
 10 28  1  0
 11 29  1  0
 12 30  1  0
 14 31  1  0
 15 32  1  0
 33 34  2  0
 34 35  1  0
 34 36  1  0
 36 37  2  0
 37 38  1  0
 38 39  2  0
 39 40  1  0
 40 41  2  0
 41 42  1  0
 42 43  2  0
 43 33  1  0
 43 38  1  0
 36 44  1  0
 37 45  1  0
 39 46  1  0
 40 47  1  0
 41 48  1  0
 42 49  1  0
 16 33  1  0
M  ISO  8  20  13  21  13  22  13  23  13  24  14  25  14  26  14  27  14
M  ISO  6  28  14  29  14  30  14  31  14  32  14  35  15
M  END
>  <DihAtoms>  (1) 
14,15,32,33

>  <DihDeg>  (1) 
142.43151082909455

$$$$
