
     RDKit          3D

 39 42  0  0  0  0  0  0  0  0999 V2000
   45.0340   34.9010   44.5210 C   0  0  0  0  0  0  0  0  0  0  0  0
   46.0930   34.6060   43.6450 C   0  0  0  0  0  0  0  0  0  0  0  0
   47.0430   33.6940   44.1070 C   0  0  0  0  0  0  0  0  0  0  0  0
   46.9040   33.1410   45.3550 N   0  0  0  0  0  0  0  0  0  0  0  0
   45.8640   33.4660   46.1440 C   0  0  0  0  0  0  0  0  0  0  0  0
   44.9140   34.3430   45.7510 N   0  0  0  0  0  0  0  0  0  0  0  0
   48.1470   33.3530   43.2310 C   0  0  0  0  0  0  0  0  0  0  0  0
   49.1860   34.1270   42.8020 C   0  0  0  0  0  0  0  0  0  0  0  0
   50.1540   33.6380   41.9580 C   0  0  0  0  0  0  0  0  0  0  0  0
   50.0740   32.3370   41.5380 C   0  0  0  0  0  0  0  0  0  0  0  0
   49.0470   31.5200   41.9450 C   0  0  0  0  0  0  0  0  0  0  0  0
   48.0740   32.0310   42.7990 C   0  0  0  0  0  0  0  0  0  0  0  0
   46.1280   35.2560   42.3480 C   0  0  0  0  0  0  0  0  0  0  0  0
   45.6220   34.5030   41.2060 C   0  0  0  0  0  0  0  0  0  0  0  0
   46.2810   33.6620   40.3680 C   0  0  0  0  0  0  0  0  0  0  0  0
   45.7660   32.9790   39.2980 C   0  0  0  0  0  0  0  0  0  0  0  0
   44.4190   33.1660   39.0380 C   0  0  0  0  0  0  0  0  0  0  0  0
   43.6940   34.0160   39.8630 C   0  0  0  0  0  0  0  0  0  0  0  0
   42.3550   34.1220   39.5000 C   0  0  0  0  0  0  0  0  0  0  0  0
   41.5310   34.9430   40.2480 C   0  0  0  0  0  0  0  0  0  0  0  0
   42.1150   35.6000   41.3100 C   0  0  0  0  0  0  0  0  0  0  0  0
   43.4430   35.4980   41.6750 C   0  0  0  0  0  0  0  0  0  0  0  0
   44.2610   34.6760   40.9250 C   0  0  0  0  0  0  0  0  0  0  0  0
   44.2668   35.6180   44.1934 H   0  0  0  0  0  0  0  0  0  0  0  0
   45.7845   33.0039   47.1391 H   0  0  0  0  0  0  0  0  0  0  0  0
   49.2504   35.1714   43.1413 H   0  0  0  0  0  0  0  0  0  0  0  0
   50.9810   34.2822   41.6247 H   0  0  0  0  0  0  0  0  0  0  0  0
   50.8457   31.9389   40.8627 H   0  0  0  0  0  0  0  0  0  0  0  0
   48.9945   30.4766   41.6007 H   0  0  0  0  0  0  0  0  0  0  0  0
   47.2455   31.3893   43.1335 H   0  0  0  0  0  0  0  0  0  0  0  0
   45.5332   36.1781   42.4249 H   0  0  0  0  0  0  0  0  0  0  0  0
   47.1973   35.4037   42.1361 H   0  0  0  0  0  0  0  0  0  0  0  0
   47.3515   33.5119   40.5718 H   0  0  0  0  0  0  0  0  0  0  0  0
   46.3893   32.3174   38.6785 H   0  0  0  0  0  0  0  0  0  0  0  0
   43.9332   32.6520   38.1955 H   0  0  0  0  0  0  0  0  0  0  0  0
   41.9606   33.5652   38.6372 H   0  0  0  0  0  0  0  0  0  0  0  0
   40.4645   35.0655   40.0079 H   0  0  0  0  0  0  0  0  0  0  0  0
   41.4725   36.2573   41.9143 H   0  0  0  0  0  0  0  0  0  0  0  0
   43.8376   36.0550   42.5376 H   0  0  0  0  0  0  0  0  0  0  0  0
  1  6  2  0
  2  3  2  0
  2  1  1  0
  3  4  1  0
  4  5  2  0
  6  5  1  0
  7  3  1  0
  8  7  2  0
  9  8  1  0
 10 11  1  0
 10  9  2  0
 11 12  2  0
 12  7  1  0
 13  2  1  0
 14 13  1  0
 15 14  2  0
 16 15  1  0
 17 16  2  0
 17 18  1  0
 18 23  2  0
 19 18  1  0
 19 20  2  0
 20 21  1  0
 21 22  2  0
 23 14  1  0
 23 22  1  0
  1 24  1  0
  5 25  1  0
  8 26  1  0
  9 27  1  0
 10 28  1  0
 11 29  1  0
 12 30  1  0
 13 31  1  0
 13 32  1  0
 15 33  1  0
 16 34  1  0
 17 35  1  0
 19 36  1  0
 20 37  1  0
 21 38  1  0
 22 39  1  0
M  ISO  8  24  14  25  14  26  14  27  14  28  14  29  14  30  14  31   8
M  ISO  8  32   8  33  14  34  14  35  14  36  14  37  14  38  14  39  14
M  END
>  <minimizedAffinity>  (1) 
-6.12819338

>  <minimizedRMSD>  (1) 
4.89225531

$$$$
