
     RDKit          3D

 52 57  0  0  1  0  0  0  0  0999 V2000
   47.1710   34.3780   42.6760 N   0  0  0  0  0  0  0  0  0  0  0  0
   48.5250   33.8600   42.6390 C   0  0  0  0  0  0  0  0  0  0  0  0
   49.1140   34.8910   41.6990 C   0  0  0  0  0  0  0  0  0  0  0  0
   48.1240   34.8110   40.5610 C   0  0  0  0  0  0  0  0  0  0  0  0
   46.7950   34.6980   41.2740 C   0  0  1  0  0  0  0  0  0  0  0  0
   45.9830   33.5750   40.8190 C   0  0  0  0  0  0  0  0  0  0  0  0
   46.5330   32.3510   40.6350 N   0  0  0  0  0  0  0  0  0  0  0  0
   45.8540   31.2710   40.2070 C   0  0  0  0  0  0  0  0  0  0  0  0
   44.5470   31.4090   39.9450 N   0  0  0  0  0  0  0  0  0  0  0  0
   43.9710   32.5820   40.1100 C   0  0  0  0  0  0  0  0  0  0  0  0
   42.6110   32.6570   39.8260 C   0  0  0  0  0  0  0  0  0  0  0  0
   41.9960   33.8990   40.0030 C   0  0  0  0  0  0  0  0  0  0  0  0
   42.6380   35.0530   40.4390 C   0  0  0  0  0  0  0  0  0  0  0  0
   43.9890   34.8840   40.6980 C   0  0  0  0  0  0  0  0  0  0  0  0
   44.6440   33.7180   40.5490 C   0  0  0  0  0  0  0  0  0  0  0  0
   44.5310   35.6830   44.9420 C   0  0  0  0  0  0  0  0  0  0  0  0
   45.3420   35.6170   43.8210 C   0  0  0  0  0  0  0  0  0  0  0  0
   46.2730   34.5960   43.7450 C   0  0  0  0  0  0  0  0  0  0  0  0
   46.3170   33.7310   44.7920 N   0  0  0  0  0  0  0  0  0  0  0  0
   45.5310   33.7930   45.8830 C   0  0  0  0  0  0  0  0  0  0  0  0
   44.6310   34.7940   45.9350 N   0  0  0  0  0  0  0  0  0  0  0  0
   45.8070   32.7250   46.8400 C   0  0  0  0  0  0  0  0  0  0  0  0
   45.2970   32.7840   48.1180 C   0  0  0  0  0  0  0  0  0  0  0  0
   45.5160   31.8130   49.0730 C   0  0  0  0  0  0  0  0  0  0  0  0
   46.2770   30.7060   48.7800 C   0  0  0  0  0  0  0  0  0  0  0  0
   46.8110   30.5980   47.5140 C   0  0  0  0  0  0  0  0  0  0  0  0
   47.5760   29.4960   47.1960 C   0  0  0  0  0  0  0  0  0  0  0  0
   48.1320   29.3370   45.9440 C   0  0  0  0  0  0  0  0  0  0  0  0
   47.8810   30.3500   45.0110 C   0  0  0  0  0  0  0  0  0  0  0  0
   47.1090   31.4290   45.3790 C   0  0  0  0  0  0  0  0  0  0  0  0
   46.5520   31.6050   46.6130 C   0  0  0  0  0  0  0  0  0  0  0  0
   49.0049   33.8750   43.6287 H   0  0  0  0  0  0  0  0  0  0  0  0
   48.6335   32.8086   42.3345 H   0  0  0  0  0  0  0  0  0  0  0  0
   49.1328   35.8927   42.1530 H   0  0  0  0  0  0  0  0  0  0  0  0
   50.1609   34.7107   41.4136 H   0  0  0  0  0  0  0  0  0  0  0  0
   48.3128   33.9271   39.9341 H   0  0  0  0  0  0  0  0  0  0  0  0
   48.1779   35.6716   39.8781 H   0  0  0  0  0  0  0  0  0  0  0  0
   46.2140   35.6180   41.1125 H   0  0  0  0  0  0  0  0  0  0  0  0
   46.3577   30.3019   40.0758 H   0  0  0  0  0  0  0  0  0  0  0  0
   42.0463   31.7794   39.4783 H   0  0  0  0  0  0  0  0  0  0  0  0
   40.9211   33.9695   39.7803 H   0  0  0  0  0  0  0  0  0  0  0  0
   42.1195   36.0147   40.5670 H   0  0  0  0  0  0  0  0  0  0  0  0
   44.5609   35.7565   41.0468 H   0  0  0  0  0  0  0  0  0  0  0  0
   43.7852   36.4881   45.0169 H   0  0  0  0  0  0  0  0  0  0  0  0
   45.2484   36.3568   43.0124 H   0  0  0  0  0  0  0  0  0  0  0  0
   44.6812   33.6532   48.3922 H   0  0  0  0  0  0  0  0  0  0  0  0
   45.0787   31.9251   50.0761 H   0  0  0  0  0  0  0  0  0  0  0  0
   46.4549   29.9271   49.5361 H   0  0  0  0  0  0  0  0  0  0  0  0
   47.7473   28.7238   47.9605 H   0  0  0  0  0  0  0  0  0  0  0  0
   48.7425   28.4576   45.6910 H   0  0  0  0  0  0  0  0  0  0  0  0
   48.2962   30.2846   43.9945 H   0  0  0  0  0  0  0  0  0  0  0  0
   46.9275   32.2069   44.6227 H   0  0  0  0  0  0  0  0  0  0  0  0
  1 18  1  0
  2  1  1  0
  3  2  1  0
  4  5  1  0
  4  3  1  0
  5  1  1  0
  6  5  1  0
  7  6  2  0
  8  7  1  0
  9 10  1  0
  9  8  2  0
 10 15  2  0
 11 12  2  0
 11 10  1  0
 12 13  1  0
 13 14  2  0
 15 14  1  0
 15  6  1  0
 16 21  2  0
 17 16  1  0
 18 17  2  0
 18 19  1  0
 19 20  2  0
 20 21  1  0
 20 22  1  0
 22 23  2  0
 23 24  1  0
 25 24  2  0
 26 25  1  0
 27 26  2  0
 28 27  1  0
 29 30  1  0
 29 28  2  0
 30 31  2  0
 31 22  1  0
 31 26  1  0
  2 32  1  0
  2 33  1  0
  3 34  1  0
  3 35  1  0
  4 36  1  0
  4 37  1  0
  5 38  1  1
  8 39  1  0
 11 40  1  0
 12 41  1  0
 13 42  1  0
 14 43  1  0
 16 44  1  0
 17 45  1  0
 23 46  1  0
 24 47  1  0
 25 48  1  0
 27 49  1  0
 28 50  1  0
 29 51  1  0
 30 52  1  0
M  END
>  <minimizedAffinity>  (1) 
-7.7632041

>  <minimizedRMSD>  (1) 
0.544150293

$$$$
