
     RDKit          3D

 32 34  0  0  0  0  0  0  0  0999 V2000
   47.2704   34.1992   43.2859 C   0  0  0  0  0  0  0  0  0  0  0  0
   46.6203   35.1823   42.5578 C   0  0  0  0  0  0  0  0  0  0  0  0
   45.3693   35.6374   43.0381 C   0  0  0  0  0  0  0  0  0  0  0  0
   44.8969   35.0800   44.1745 N   0  0  0  0  0  0  0  0  0  0  0  0
   45.5629   34.1287   44.8472 C   0  0  0  0  0  0  0  0  0  0  0  0
   46.7391   33.6911   44.4082 N   0  0  0  0  0  0  0  0  0  0  0  0
   48.5720   33.6580   42.8757 C   0  0  0  0  0  0  0  0  0  0  0  0
   49.5032   34.8203   42.5745 C   0  0  0  0  0  0  0  0  0  0  0  0
   47.0403   35.5951   41.6549 H   0  0  0  0  0  0  0  0  0  0  0  0
   44.8083   36.4034   42.5178 H   0  0  0  0  0  0  0  0  0  0  0  0
   45.1611   33.6867   45.7725 H   0  0  0  0  0  0  0  0  0  0  0  0
   48.9718   32.9095   43.5411 H   0  0  0  0  0  0  0  0  0  0  0  0
   48.4553   33.1315   41.8776 H   0  0  0  0  0  0  0  0  0  0  0  0
   49.5508   35.4483   43.4839 H   0  0  0  0  0  0  0  0  0  0  0  0
   49.0710   35.4181   41.7560 H   0  0  0  0  0  0  0  0  0  0  0  0
   50.8459   34.3676   42.1615 C   0  0  0  0  0  0  0  0  0  0  0  0
   51.1269   33.7858   40.9530 C   0  0  0  0  0  0  0  0  0  0  0  0
   50.3243   33.6456   40.2310 H   0  0  0  0  0  0  0  0  0  0  0  0
   52.3993   33.3655   40.6083 C   0  0  0  0  0  0  0  0  0  0  0  0
   53.4552   33.5042   41.4508 C   0  0  0  0  0  0  0  0  0  0  0  0
   53.1822   34.0923   42.6771 C   0  0  0  0  0  0  0  0  0  0  0  0
   54.2598   34.2451   43.5517 C   0  0  0  0  0  0  0  0  0  0  0  0
   54.0981   34.8216   44.7943 C   0  0  0  0  0  0  0  0  0  0  0  0
   52.8377   35.2514   45.1659 C   0  0  0  0  0  0  0  0  0  0  0  0
   51.8089   35.0763   44.2641 C   0  0  0  0  0  0  0  0  0  0  0  0
   51.9195   34.5078   43.0152 C   0  0  0  0  0  0  0  0  0  0  0  0
   52.5989   32.9015   39.6339 H   0  0  0  0  0  0  0  0  0  0  0  0
   54.4484   33.1939   41.2231 H   0  0  0  0  0  0  0  0  0  0  0  0
   55.2664   33.9340   43.3281 H   0  0  0  0  0  0  0  0  0  0  0  0
   54.9129   34.9534   45.4932 H   0  0  0  0  0  0  0  0  0  0  0  0
   52.6882   35.7052   46.1329 H   0  0  0  0  0  0  0  0  0  0  0  0
   50.8525   35.4341   44.6090 H   0  0  0  0  0  0  0  0  0  0  0  0
  1  6  2  0
  2  3  2  0
  2  1  1  0
  3  4  1  0
  4  5  2  0
  6  5  1  0
  7  1  1  0
  8  7  1  0
  2  9  1  0
  3 10  1  0
  5 11  1  0
  7 12  1  0
  7 13  1  0
  8 14  1  0
  8 15  1  0
 16 17  2  0
 17 18  1  0
 17 19  1  0
 19 20  2  0
 20 21  1  0
 21 22  2  0
 22 23  1  0
 23 24  2  0
 24 25  1  0
 25 26  2  0
 26 16  1  0
 26 21  1  0
 19 27  1  0
 20 28  1  0
 22 29  1  0
 23 30  1  0
 24 31  1  0
 25 32  1  0
  8 16  1  0
M  ISO  8   9  14  10  14  11  14  12   8  13   8  14   8  15   8  18  15
M  END
>  <DihAtoms>  (1) 
6,7,15,16

>  <DihDeg>  (1) 
101.90310626467304

$$$$
