
     RDKit          3D

 51 54  0  0  0  0  0  0  0  0999 V2000
   46.6527   34.9055   42.0332 C   0  0  0  0  0  0  0  0  0  0  0  0
   45.1906   34.9084   41.8052 C   0  0  0  0  0  0  0  0  0  0  0  0
   44.3159   35.5357   42.7316 C   0  0  0  0  0  0  0  0  0  0  0  0
   42.6580   35.2658   42.0093 S   0  0  0  0  0  0  0  0  0  0  0  0
   43.4172   34.3322   40.5438 C   0  0  0  0  0  0  0  0  0  0  0  0
   44.5287   34.3823   40.8061 N   0  0  0  0  0  0  0  0  0  0  0  0
   42.6528   33.7990   39.5153 O   0  0  0  0  0  0  0  0  0  0  0  0
   40.6861   34.1244   37.7633 O   0  0  0  0  0  0  0  0  0  0  0  0
   41.7370   34.8686   38.5685 P   0  0  0  0  0  0  0  0  0  0  0  0
   40.9432   35.9415   39.6293 O   0  0  0  0  0  0  0  0  0  0  0  0
   42.7590   35.7735   37.5765 O   0  0  0  0  0  0  0  0  0  0  0  0
   47.4623   34.5788   40.8117 C   0  0  0  0  0  0  0  0  0  0  0  0
   48.7099   33.8470   41.1292 C   0  0  0  0  0  0  0  0  0  0  0  0
   49.0336   32.7795   40.2901 C   0  0  0  0  0  0  0  0  0  0  0  0
   50.1718   32.0306   40.4943 C   0  0  0  0  0  0  0  0  0  0  0  0
   50.9694   32.3881   41.5640 N   0  0  0  0  0  0  0  0  0  0  0  0
   50.6185   33.4301   42.3531 C   0  0  0  0  0  0  0  0  0  0  0  0
   49.5134   34.1346   42.1308 N   0  0  0  0  0  0  0  0  0  0  0  0
   47.9609   32.3622   38.9154 S   0  0  0  0  0  0  0  0  0  0  0  0
   48.6181   32.9895   37.3705 C   0  0  0  0  0  0  0  0  0  0  0  0
   48.3059   34.4640   37.2878 C   0  0  0  0  0  0  0  0  0  0  0  0
   46.9758   35.8956   42.4192 H   0  0  0  0  0  0  0  0  0  0  0  0
   46.8475   34.1535   42.8375 H   0  0  0  0  0  0  0  0  0  0  0  0
   44.5280   36.0618   43.6587 H   0  0  0  0  0  0  0  0  0  0  0  0
   40.9192   36.8317   39.1982 H   0  0  0  0  0  0  0  0  0  0  0  0
   42.8913   35.3275   36.6919 H   0  0  0  0  0  0  0  0  0  0  0  0
   47.7107   35.5330   40.2836 H   0  0  0  0  0  0  0  0  0  0  0  0
   46.8001   33.9969   40.1525 H   0  0  0  0  0  0  0  0  0  0  0  0
   50.4438   31.1974   39.8560 H   0  0  0  0  0  0  0  0  0  0  0  0
   51.2152   33.7415   43.1997 H   0  0  0  0  0  0  0  0  0  0  0  0
   49.7454   32.9472   37.4787 H   0  0  0  0  0  0  0  0  0  0  0  0
   48.4018   32.4103   36.4818 H   0  0  0  0  0  0  0  0  0  0  0  0
   47.2281   34.6777   37.4438 H   0  0  0  0  0  0  0  0  0  0  0  0
   48.8199   35.0168   38.1261 H   0  0  0  0  0  0  0  0  0  0  0  0
   48.7939   35.0602   36.0207 C   0  0  0  0  0  0  0  0  0  0  0  0
   47.9709   35.4700   34.9875 C   0  0  0  0  0  0  0  0  0  0  0  0
   46.9021   35.3472   35.1009 H   0  0  0  0  0  0  0  0  0  0  0  0
   48.5419   36.0253   33.8386 C   0  0  0  0  0  0  0  0  0  0  0  0
   49.9156   36.1755   33.7092 C   0  0  0  0  0  0  0  0  0  0  0  0
   50.7713   35.7696   34.7381 C   0  0  0  0  0  0  0  0  0  0  0  0
   52.1392   35.9052   34.6337 C   0  0  0  0  0  0  0  0  0  0  0  0
   52.9654   35.5010   35.6483 C   0  0  0  0  0  0  0  0  0  0  0  0
   52.3726   34.9581   36.7664 C   0  0  0  0  0  0  0  0  0  0  0  0
   51.0040   34.8258   36.8626 C   0  0  0  0  0  0  0  0  0  0  0  0
   50.1505   35.2299   35.8454 C   0  0  0  0  0  0  0  0  0  0  0  0
   47.8953   36.3502   33.0179 H   0  0  0  0  0  0  0  0  0  0  0  0
   50.3683   36.6071   32.8141 H   0  0  0  0  0  0  0  0  0  0  0  0
   52.5825   36.3353   33.7441 H   0  0  0  0  0  0  0  0  0  0  0  0
   54.0302   35.6210   35.5348 H   0  0  0  0  0  0  0  0  0  0  0  0
   53.0817   34.6538   37.5411 H   0  0  0  0  0  0  0  0  0  0  0  0
   50.7116   34.3838   37.7923 H   0  0  0  0  0  0  0  0  0  0  0  0
  2  1  1  0
  2  3  2  0
  4  3  1  0
  5  6  2  0
  5  4  1  0
  6  2  1  0
  7  5  1  0
  8  9  2  0
  9  7  1  0
  9 10  1  0
 11  9  1  0
 12 13  1  0
 12  1  1  0
 13 18  2  0
 14 15  2  0
 14 13  1  0
 15 16  1  0
 16 17  2  0
 18 17  1  0
 19 14  1  0
 20 19  1  0
 21 20  1  0
  1 22  1  0
  1 23  1  0
  3 24  1  0
 10 25  1  0
 11 26  1  0
 12 27  1  0
 12 28  1  0
 15 29  1  0
 17 30  1  0
 20 31  1  0
 20 32  1  0
 21 33  1  0
 21 34  1  0
 35 36  2  0
 36 37  1  0
 36 38  1  0
 38 39  2  0
 39 40  1  0
 40 41  2  0
 41 42  1  0
 42 43  2  0
 43 44  1  0
 44 45  2  0
 45 35  1  0
 45 40  1  0
 38 46  1  0
 39 47  1  0
 41 48  1  0
 42 49  1  0
 43 50  1  0
 44 51  1  0
 21 35  1  0
M  ISO  8  22   8  23   8  24  14  25   3  26   3  27   8  28   8  29  14
M  ISO  6  30  14  31   8  32   8  33   8  34   8  37  15
M  END
>  <DihAtoms>  (1) 
19,20,34,35

>  <DihDeg>  (1) 
-101.41482721728744

$$$$
