
     RDKit          3D

 32 34  0  0  0  0  0  0  0  0999 V2000
   47.2704   34.1992   43.2859 C   0  0  0  0  0  0  0  0  0  0  0  0
   46.6203   35.1823   42.5578 C   0  0  0  0  0  0  0  0  0  0  0  0
   45.3693   35.6374   43.0381 C   0  0  0  0  0  0  0  0  0  0  0  0
   44.8969   35.0800   44.1745 N   0  0  0  0  0  0  0  0  0  0  0  0
   45.5629   34.1287   44.8472 C   0  0  0  0  0  0  0  0  0  0  0  0
   46.7391   33.6911   44.4082 N   0  0  0  0  0  0  0  0  0  0  0  0
   48.5720   33.6580   42.8757 C   0  0  0  0  0  0  0  0  0  0  0  0
   49.5032   34.8203   42.5745 C   0  0  0  0  0  0  0  0  0  0  0  0
   47.0403   35.5951   41.6549 H   0  0  0  0  0  0  0  0  0  0  0  0
   44.8083   36.4034   42.5178 H   0  0  0  0  0  0  0  0  0  0  0  0
   45.1611   33.6867   45.7725 H   0  0  0  0  0  0  0  0  0  0  0  0
   48.9718   32.9095   43.5411 H   0  0  0  0  0  0  0  0  0  0  0  0
   48.4553   33.1315   41.8776 H   0  0  0  0  0  0  0  0  0  0  0  0
   49.5508   35.4483   43.4839 H   0  0  0  0  0  0  0  0  0  0  0  0
   49.0710   35.4181   41.7560 H   0  0  0  0  0  0  0  0  0  0  0  0
   50.8459   34.3676   42.1615 C   0  0  0  0  0  0  0  0  0  0  0  0
   51.9935   35.0965   42.3338 C   0  0  0  0  0  0  0  0  0  0  0  0
   51.9364   36.0728   42.8119 H   0  0  0  0  0  0  0  0  0  0  0  0
   53.2331   34.6395   41.9226 C   0  0  0  0  0  0  0  0  0  0  0  0
   53.3907   33.4333   41.3191 C   0  0  0  0  0  0  0  0  0  0  0  0
   52.2355   32.6867   41.1398 C   0  0  0  0  0  0  0  0  0  0  0  0
   52.3837   31.4423   40.5244 C   0  0  0  0  0  0  0  0  0  0  0  0
   51.2996   30.6190   40.3023 C   0  0  0  0  0  0  0  0  0  0  0  0
   50.0482   31.0492   40.7031 C   0  0  0  0  0  0  0  0  0  0  0  0
   49.9584   32.2866   41.3059 C   0  0  0  0  0  0  0  0  0  0  0  0
   51.0084   33.1431   41.5490 C   0  0  0  0  0  0  0  0  0  0  0  0
   54.1380   35.2426   42.0714 H   0  0  0  0  0  0  0  0  0  0  0  0
   54.3265   33.0463   40.9884 H   0  0  0  0  0  0  0  0  0  0  0  0
   53.3263   31.0447   40.1878 H   0  0  0  0  0  0  0  0  0  0  0  0
   51.3825   29.6504   39.8283 H   0  0  0  0  0  0  0  0  0  0  0  0
   49.1864   30.4216   40.5395 H   0  0  0  0  0  0  0  0  0  0  0  0
   48.9592   32.5645   41.5989 H   0  0  0  0  0  0  0  0  0  0  0  0
  1  6  2  0
  2  3  2  0
  2  1  1  0
  3  4  1  0
  4  5  2  0
  6  5  1  0
  7  1  1  0
  8  7  1  0
  2  9  1  0
  3 10  1  0
  5 11  1  0
  7 12  1  0
  7 13  1  0
  8 14  1  0
  8 15  1  0
 16 17  2  0
 17 18  1  0
 17 19  1  0
 19 20  2  0
 20 21  1  0
 21 22  2  0
 22 23  1  0
 23 24  2  0
 24 25  1  0
 25 26  2  0
 26 16  1  0
 26 21  1  0
 19 27  1  0
 20 28  1  0
 22 29  1  0
 23 30  1  0
 24 31  1  0
 25 32  1  0
  8 16  1  0
M  ISO  8   9  14  10  14  11  14  12   8  13   8  14   8  15   8  18  15
M  END
>  <DihAtoms>  (1) 
6,7,15,16

>  <DihDeg>  (1) 
101.90310626467304

$$$$
