
     RDKit          3D

 30 32  0  0  0  0  0  0  0  0999 V2000
   44.7440   35.0140   43.6550 C   0  0  0  0  0  0  0  0  0  0  0  0
   45.6950   35.6400   42.8490 C   0  0  0  0  0  0  0  0  0  0  0  0
   46.9650   35.1100   42.7800 C   0  0  0  0  0  0  0  0  0  0  0  0
   47.1690   34.0120   43.5130 N   0  0  0  0  0  0  0  0  0  0  0  0
   46.2780   33.3920   44.2910 C   0  0  0  0  0  0  0  0  0  0  0  0
   45.0510   33.9160   44.3510 N   0  0  0  0  0  0  0  0  0  0  0  0
   46.8250   32.2080   44.9620 C   0  0  0  0  0  0  0  0  0  0  0  0
   47.6030   31.3020   44.2750 C   0  0  0  0  0  0  0  0  0  0  0  0
   48.1450   30.1720   44.8450 C   0  0  0  0  0  0  0  0  0  0  0  0
   47.9280   29.8870   46.1730 C   0  0  0  0  0  0  0  0  0  0  0  0
   47.1560   30.7640   46.8980 C   0  0  0  0  0  0  0  0  0  0  0  0
   46.9410   30.4770   48.2220 C   0  0  0  0  0  0  0  0  0  0  0  0
   46.1790   31.3030   49.0230 C   0  0  0  0  0  0  0  0  0  0  0  0
   45.6510   32.4380   48.3940 C   0  0  0  0  0  0  0  0  0  0  0  0
   45.8890   32.6920   47.0640 C   0  0  0  0  0  0  0  0  0  0  0  0
   46.6400   31.8760   46.2790 C   0  0  0  0  0  0  0  0  0  0  0  0
   48.0170   35.6070   42.0380 O   0  0  0  0  0  0  0  0  0  0  0  0
   48.2990   34.9490   40.8070 C   0  0  0  0  0  0  0  0  0  0  0  0
   47.0970   34.5600   40.2200 F   0  0  0  0  0  0  0  0  0  0  0  0
   48.9100   35.8790   39.9660 F   0  0  0  0  0  0  0  0  0  0  0  0
   49.1790   33.8940   40.9860 F   0  0  0  0  0  0  0  0  0  0  0  0
   43.7277   35.4301   43.7183 H   0  0  0  0  0  0  0  0  0  0  0  0
   45.4350   36.5430   42.2772 H   0  0  0  0  0  0  0  0  0  0  0  0
   47.8026   31.4923   43.2101 H   0  0  0  0  0  0  0  0  0  0  0  0
   48.7563   29.4919   44.2337 H   0  0  0  0  0  0  0  0  0  0  0  0
   48.3575   28.9880   46.6392 H   0  0  0  0  0  0  0  0  0  0  0  0
   47.3856   29.5687   48.6547 H   0  0  0  0  0  0  0  0  0  0  0  0
   45.9980   31.0845   50.0858 H   0  0  0  0  0  0  0  0  0  0  0  0
   45.0343   33.1393   48.9753 H   0  0  0  0  0  0  0  0  0  0  0  0
   45.4519   33.5962   46.6153 H   0  0  0  0  0  0  0  0  0  0  0  0
  1  6  2  0
  2  1  1  0
  3  2  2  0
  3  4  1  0
  4  5  2  0
  5  6  1  0
  5  7  1  0
  7 16  2  0
  8  9  2  0
  8  7  1  0
  9 10  1  0
 10 11  2  0
 11 12  1  0
 12 13  2  0
 14 13  1  0
 15 14  2  0
 16 11  1  0
 16 15  1  0
 17  3  1  0
 18 21  1  0
 18 17  1  0
 19 18  1  0
 20 18  1  0
  1 22  1  0
  2 23  1  0
  8 24  1  0
  9 25  1  0
 10 26  1  0
 12 27  1  0
 13 28  1  0
 14 29  1  0
 15 30  1  0
M  ISO  8  22  14  23  14  24  14  25  14  26  14  27  14  28  14  29  14
M  ISO  1  30  14
M  END
>  <minimizedAffinity>  (1) 
-6.00477934

>  <minimizedRMSD>  (1) 
1.52138925

$$$$
