
     RDKit          3D

 39 42  0  0  0  0  0  0  0  0999 V2000
   44.9051   35.0445   43.5610 C   0  0  0  0  0  0  0  0  0  0  0  0
   45.2780   34.9267   42.2027 C   0  0  0  0  0  0  0  0  0  0  0  0
   46.3914   34.1238   41.8723 C   0  0  0  0  0  0  0  0  0  0  0  0
   47.0346   33.5133   42.8934 N   0  0  0  0  0  0  0  0  0  0  0  0
   46.6551   33.6462   44.1688 C   0  0  0  0  0  0  0  0  0  0  0  0
   45.5929   34.4099   44.5027 N   0  0  0  0  0  0  0  0  0  0  0  0
   43.7942   35.8495   43.8597 N   0  0  0  0  0  0  0  0  0  0  0  0
   47.9665   34.6469   40.1108 C   0  0  0  0  0  0  0  0  0  0  0  0
   46.8102   33.9752   40.4805 C   0  0  0  0  0  0  0  0  0  0  0  0
   46.1701   33.2436   39.5307 C   0  0  0  0  0  0  0  0  0  0  0  0
   46.6094   33.1353   38.2236 C   0  0  0  0  0  0  0  0  0  0  0  0
   47.7646   33.8126   37.8741 C   0  0  0  0  0  0  0  0  0  0  0  0
   48.4376   34.5599   38.8026 C   0  0  0  0  0  0  0  0  0  0  0  0
   49.3226   36.0758   41.8109 N   0  0  0  0  0  0  0  0  0  0  0  0
   48.7036   35.4388   41.0422 C   0  0  0  0  0  0  0  0  0  0  0  0
   44.7349   35.4321   41.4239 H   0  0  0  0  0  0  0  0  0  0  0  0
   47.1465   33.1729   45.0055 H   0  0  0  0  0  0  0  0  0  0  0  0
   43.7399   36.3856   44.7553 H   0  0  0  0  0  0  0  0  0  0  0  0
   43.0138   35.9079   43.1705 H   0  0  0  0  0  0  0  0  0  0  0  0
   45.2617   32.7178   39.8273 H   0  0  0  0  0  0  0  0  0  0  0  0
   46.0856   32.5488   37.4852 H   0  0  0  0  0  0  0  0  0  0  0  0
   48.1924   33.7976   36.8913 H   0  0  0  0  0  0  0  0  0  0  0  0
   49.6698   35.2888   38.4504 C   0  0  0  0  0  0  0  0  0  0  0  0
   49.8154   35.7430   37.1553 C   0  0  0  0  0  0  0  0  0  0  0  0
   49.0900   35.6057   36.3689 H   0  0  0  0  0  0  0  0  0  0  0  0
   50.9866   36.4319   36.8336 C   0  0  0  0  0  0  0  0  0  0  0  0
   51.9094   36.6082   37.8282 C   0  0  0  0  0  0  0  0  0  0  0  0
   51.7944   36.1686   39.1262 C   0  0  0  0  0  0  0  0  0  0  0  0
   52.7560   36.3729   40.0929 C   0  0  0  0  0  0  0  0  0  0  0  0
   52.5749   35.9019   41.3838 C   0  0  0  0  0  0  0  0  0  0  0  0
   51.3891   35.2334   41.6107 C   0  0  0  0  0  0  0  0  0  0  0  0
   50.3815   34.9893   40.7004 C   0  0  0  0  0  0  0  0  0  0  0  0
   50.6192   35.4824   39.4321 C   0  0  0  0  0  0  0  0  0  0  0  0
   51.2040   36.8304   35.8522 H   0  0  0  0  0  0  0  0  0  0  0  0
   52.8518   37.1433   37.6349 H   0  0  0  0  0  0  0  0  0  0  0  0
   53.6501   36.8995   39.8450 H   0  0  0  0  0  0  0  0  0  0  0  0
   53.2918   36.0339   42.1732 H   0  0  0  0  0  0  0  0  0  0  0  0
   51.2385   34.8582   42.6279 H   0  0  0  0  0  0  0  0  0  0  0  0
   49.4925   34.4523   40.9927 H   0  0  0  0  0  0  0  0  0  0  0  0
  1  7  1  0
  1  6  2  0
  2  1  1  0
  3  2  2  0
  3  4  1  0
  4  5  2  0
  5  6  1  0
  8  9  2  0
  8 15  1  0
  9  3  1  0
 10  9  1  0
 11 10  2  0
 12 11  1  0
 12 13  2  0
 13  8  1  0
 15 14  3  0
  2 16  1  0
  5 17  1  0
  7 18  1  0
  7 19  1  0
 10 20  1  0
 11 21  1  0
 12 22  1  0
 23 24  2  0
 24 25  1  0
 24 26  1  0
 26 27  2  0
 27 28  1  0
 28 29  2  0
 29 30  1  0
 30 31  2  0
 31 32  1  0
 32 33  2  0
 33 23  1  0
 33 28  1  0
 26 34  1  0
 27 35  1  0
 29 36  1  0
 30 37  1  0
 31 38  1  0
 32 39  1  0
 13 23  1  0
M  ISO  6  16  14  17  14  20  14  21  14  22  14  25  15
M  END
>  <DihAtoms>  (1) 
11,12,22,23

>  <DihDeg>  (1) 
90.00126202889

$$$$
