
     RDKit          3D

 36 39  0  0  1  0  0  0  0  0999 V2000
   44.8710   32.1490   39.5970 C   0  0  1  0  0  0  0  0  0  0  0  0
   45.0530   31.1190   40.5910 C   0  0  0  0  0  0  0  0  0  0  0  0
   46.1590   32.1150   40.4200 C   0  0  1  0  0  0  0  0  0  0  0  0
   44.7510   30.5590   37.6520 C   0  0  0  0  0  0  0  0  0  0  0  0
   44.9730   31.8810   38.1430 C   0  0  0  0  0  0  0  0  0  0  0  0
   45.2900   32.8830   37.2430 C   0  0  0  0  0  0  0  0  0  0  0  0
   45.3770   32.5520   35.9200 N   0  0  0  0  0  0  0  0  0  0  0  0
   45.1600   31.2780   35.4760 C   0  0  0  0  0  0  0  0  0  0  0  0
   44.8440   30.2690   36.3400 N   0  0  0  0  0  0  0  0  0  0  0  0
   47.4230   31.7240   39.7630 C   0  0  0  0  0  0  0  0  0  0  0  0
   48.5920   31.8590   40.6950 C   0  0  0  0  0  0  0  0  0  0  0  0
   49.3440   30.7550   41.0560 C   0  0  0  0  0  0  0  0  0  0  0  0
   50.4070   30.9700   41.9270 C   0  0  0  0  0  0  0  0  0  0  0  0
   50.7390   32.2180   42.4380 C   0  0  0  0  0  0  0  0  0  0  0  0
   49.9900   33.2970   42.0740 C   0  0  0  0  0  0  0  0  0  0  0  0
   50.2960   34.5550   42.5670 C   0  0  0  0  0  0  0  0  0  0  0  0
   49.5620   35.6620   42.2200 C   0  0  0  0  0  0  0  0  0  0  0  0
   48.4910   35.5070   41.3550 C   0  0  0  0  0  0  0  0  0  0  0  0
   48.2080   34.2400   40.8800 C   0  0  0  0  0  0  0  0  0  0  0  0
   48.9240   33.1100   41.2080 C   0  0  0  0  0  0  0  0  0  0  0  0
   44.0595   32.8662   39.4045 H   0  0  0  0  0  0  0  0  0  0  0  0
   44.4447   31.1356   41.5073 H   0  0  0  0  0  0  0  0  0  0  0  0
   45.0064   30.0202   40.5673 H   0  0  0  0  0  0  0  0  0  0  0  0
   46.7089   32.8030   41.0790 H   0  0  0  0  0  0  0  0  0  0  0  0
   44.4979   29.7580   38.3622 H   0  0  0  0  0  0  0  0  0  0  0  0
   45.4666   33.9144   37.5821 H   0  0  0  0  0  0  0  0  0  0  0  0
   45.2415   31.0609   34.4007 H   0  0  0  0  0  0  0  0  0  0  0  0
   47.3464   30.6768   39.4351 H   0  0  0  0  0  0  0  0  0  0  0  0
   47.5869   32.3921   38.9046 H   0  0  0  0  0  0  0  0  0  0  0  0
   49.1113   29.7512   40.6710 H   0  0  0  0  0  0  0  0  0  0  0  0
   51.0173   30.1054   42.2271 H   0  0  0  0  0  0  0  0  0  0  0  0
   51.5910   32.3336   43.1241 H   0  0  0  0  0  0  0  0  0  0  0  0
   51.1480   34.6697   43.2533 H   0  0  0  0  0  0  0  0  0  0  0  0
   49.8194   36.6534   42.6212 H   0  0  0  0  0  0  0  0  0  0  0  0
   47.8807   36.3711   41.0535 H   0  0  0  0  0  0  0  0  0  0  0  0
   47.3548   34.1268   40.1950 H   0  0  0  0  0  0  0  0  0  0  0  0
  1  3  1  0
  1  2  1  0
  3  2  1  0
  4  5  2  0
  5  1  1  0
  6  5  1  0
  7  6  2  0
  8  7  1  0
  8  9  2  0
  9  4  1  0
 10  3  1  0
 10 11  1  0
 11 12  2  0
 11 20  1  0
 12 13  1  0
 13 14  2  0
 15 14  1  0
 15 16  2  0
 17 16  1  0
 18 17  2  0
 19 20  2  0
 19 18  1  0
 20 15  1  0
  1 21  1  6
  2 22  1  0
  2 23  1  0
  3 24  1  1
  4 25  1  0
  6 26  1  0
  8 27  1  0
 10 28  1  0
 10 29  1  0
 12 30  1  0
 13 31  1  0
 14 32  1  0
 16 33  1  0
 17 34  1  0
 18 35  1  0
 19 36  1  0
M  ISO  8  21  13  22  13  23  13  24  13  25  14  26  14  27  14  28   8
M  ISO  8  29   8  30  14  31  14  32  14  33  14  34  14  35  14  36  14
M  END
>  <minimizedAffinity>  (1) 
-4.00818634

>  <minimizedRMSD>  (1) 
5.93755436

$$$$
