
     RDKit          3D

 32 34  0  0  0  0  0  0  0  0999 V2000
   47.2704   34.1992   43.2859 C   0  0  0  0  0  0  0  0  0  0  0  0
   46.6203   35.1823   42.5578 C   0  0  0  0  0  0  0  0  0  0  0  0
   45.3693   35.6374   43.0381 C   0  0  0  0  0  0  0  0  0  0  0  0
   44.8969   35.0800   44.1745 N   0  0  0  0  0  0  0  0  0  0  0  0
   45.5629   34.1287   44.8472 C   0  0  0  0  0  0  0  0  0  0  0  0
   46.7391   33.6911   44.4082 N   0  0  0  0  0  0  0  0  0  0  0  0
   48.5720   33.6580   42.8757 C   0  0  0  0  0  0  0  0  0  0  0  0
   49.5032   34.8203   42.5745 C   0  0  0  0  0  0  0  0  0  0  0  0
   47.0403   35.5951   41.6549 H   0  0  0  0  0  0  0  0  0  0  0  0
   44.8083   36.4034   42.5178 H   0  0  0  0  0  0  0  0  0  0  0  0
   45.1611   33.6867   45.7725 H   0  0  0  0  0  0  0  0  0  0  0  0
   48.9718   32.9095   43.5411 H   0  0  0  0  0  0  0  0  0  0  0  0
   48.4553   33.1315   41.8776 H   0  0  0  0  0  0  0  0  0  0  0  0
   49.5508   35.4483   43.4839 H   0  0  0  0  0  0  0  0  0  0  0  0
   49.0710   35.4181   41.7560 H   0  0  0  0  0  0  0  0  0  0  0  0
   50.8459   34.3676   42.1615 C   0  0  0  0  0  0  0  0  0  0  0  0
   51.0794   33.3216   41.3075 C   0  0  0  0  0  0  0  0  0  0  0  0
   50.2341   32.7795   40.8873 H   0  0  0  0  0  0  0  0  0  0  0  0
   52.3559   32.9220   40.9531 C   0  0  0  0  0  0  0  0  0  0  0  0
   53.4632   33.5451   41.4322 C   0  0  0  0  0  0  0  0  0  0  0  0
   53.2386   34.6058   42.2975 C   0  0  0  0  0  0  0  0  0  0  0  0
   54.3685   35.2583   42.7943 C   0  0  0  0  0  0  0  0  0  0  0  0
   54.2565   36.3277   43.6582 C   0  0  0  0  0  0  0  0  0  0  0  0
   52.9933   36.7495   44.0296 C   0  0  0  0  0  0  0  0  0  0  0  0
   51.9117   36.0696   43.5097 C   0  0  0  0  0  0  0  0  0  0  0  0
   51.9716   34.9990   42.6464 C   0  0  0  0  0  0  0  0  0  0  0  0
   52.5170   32.0803   40.2674 H   0  0  0  0  0  0  0  0  0  0  0  0
   54.4614   33.2681   41.1840 H   0  0  0  0  0  0  0  0  0  0  0  0
   55.3803   34.9839   42.5476 H   0  0  0  0  0  0  0  0  0  0  0  0
   55.1124   36.8531   44.0596 H   0  0  0  0  0  0  0  0  0  0  0  0
   52.8822   37.5838   44.7041 H   0  0  0  0  0  0  0  0  0  0  0  0
   50.9552   36.4467   43.8326 H   0  0  0  0  0  0  0  0  0  0  0  0
  1  6  2  0
  2  3  2  0
  2  1  1  0
  3  4  1  0
  4  5  2  0
  6  5  1  0
  7  1  1  0
  8  7  1  0
  2  9  1  0
  3 10  1  0
  5 11  1  0
  7 12  1  0
  7 13  1  0
  8 14  1  0
  8 15  1  0
 16 17  2  0
 17 18  1  0
 17 19  1  0
 19 20  2  0
 20 21  1  0
 21 22  2  0
 22 23  1  0
 23 24  2  0
 24 25  1  0
 25 26  2  0
 26 16  1  0
 26 21  1  0
 19 27  1  0
 20 28  1  0
 22 29  1  0
 23 30  1  0
 24 31  1  0
 25 32  1  0
  8 16  1  0
M  ISO  8   9  14  10  14  11  14  12   8  13   8  14   8  15   8  18  15
M  END
>  <DihAtoms>  (1) 
6,7,15,16

>  <DihDeg>  (1) 
101.90310626467304

$$$$
