
     RDKit          3D

 43 46  0  0  0  0  0  0  0  0999 V2000
   44.1090   33.5200   40.6550 C   0  0  0  0  0  0  0  0  0  0  0  0
   44.4170   34.6790   41.3800 C   0  0  0  0  0  0  0  0  0  0  0  0
   43.4450   35.6970   41.5280 C   0  0  0  0  0  0  0  0  0  0  0  0
   42.2330   35.4790   40.9390 N   0  0  0  0  0  0  0  0  0  0  0  0
   41.9730   34.3630   40.2560 C   0  0  0  0  0  0  0  0  0  0  0  0
   42.9000   33.3970   40.1170 N   0  0  0  0  0  0  0  0  0  0  0  0
   39.7740   33.6010   41.7610 F   0  0  0  0  0  0  0  0  0  0  0  0
   39.5670   33.8070   40.4280 C   0  0  0  0  0  0  0  0  0  0  0  0
   40.6580   34.1910   39.6490 C   0  0  0  0  0  0  0  0  0  0  0  0
   40.5140   34.4140   38.3040 C   0  0  0  0  0  0  0  0  0  0  0  0
   39.2530   34.2470   37.7400 C   0  0  0  0  0  0  0  0  0  0  0  0
   38.1520   33.8620   38.5140 C   0  0  0  0  0  0  0  0  0  0  0  0
   38.3220   33.6420   39.8740 C   0  0  0  0  0  0  0  0  0  0  0  0
   45.7320   34.8820   42.0000 C   0  0  0  0  0  0  0  0  0  0  0  0
   46.8750   34.8970   41.2990 C   0  0  0  0  0  0  0  0  0  0  0  0
   48.1850   35.1140   42.0040 C   0  0  0  0  0  0  0  0  0  0  0  0
   49.1160   33.9760   41.7050 C   0  0  0  0  0  0  0  0  0  0  0  0
   50.0810   33.4810   42.5770 C   0  0  0  0  0  0  0  0  0  0  0  0
   50.8780   32.4320   42.1970 C   0  0  0  0  0  0  0  0  0  0  0  0
   50.7550   31.8490   40.9730 C   0  0  0  0  0  0  0  0  0  0  0  0
   49.8130   32.3110   40.0840 C   0  0  0  0  0  0  0  0  0  0  0  0
   49.7550   31.6660   38.8680 C   0  0  0  0  0  0  0  0  0  0  0  0
   48.8060   32.1190   37.9490 C   0  0  0  0  0  0  0  0  0  0  0  0
   47.9600   33.1810   38.2670 C   0  0  0  0  0  0  0  0  0  0  0  0
   48.1000   33.7580   39.5120 C   0  0  0  0  0  0  0  0  0  0  0  0
   49.0120   33.3650   40.4660 C   0  0  0  0  0  0  0  0  0  0  0  0
   44.8574   32.7232   40.5329 H   0  0  0  0  0  0  0  0  0  0  0  0
   43.6559   36.6187   42.0901 H   0  0  0  0  0  0  0  0  0  0  0  0
   41.3727   34.7170   37.6869 H   0  0  0  0  0  0  0  0  0  0  0  0
   39.1183   34.4213   36.6623 H   0  0  0  0  0  0  0  0  0  0  0  0
   37.1629   33.7352   38.0496 H   0  0  0  0  0  0  0  0  0  0  0  0
   37.4696   33.3392   40.4999 H   0  0  0  0  0  0  0  0  0  0  0  0
   45.7820   35.0285   43.0891 H   0  0  0  0  0  0  0  0  0  0  0  0
   46.8542   34.7506   40.2090 H   0  0  0  0  0  0  0  0  0  0  0  0
   48.6354   36.0555   41.6566 H   0  0  0  0  0  0  0  0  0  0  0  0
   48.0102   35.1657   43.0888 H   0  0  0  0  0  0  0  0  0  0  0  0
   50.2046   33.9320   43.5727 H   0  0  0  0  0  0  0  0  0  0  0  0
   51.6354   32.0522   42.8984 H   0  0  0  0  0  0  0  0  0  0  0  0
   51.4086   31.0090   40.6953 H   0  0  0  0  0  0  0  0  0  0  0  0
   50.4282   30.8290   38.6308 H   0  0  0  0  0  0  0  0  0  0  0  0
   48.7251   31.6336   36.9652 H   0  0  0  0  0  0  0  0  0  0  0  0
   47.2085   33.5453   37.5511 H   0  0  0  0  0  0  0  0  0  0  0  0
   47.4324   34.5958   39.7618 H   0  0  0  0  0  0  0  0  0  0  0  0
  1  2  2  0
  2  3  1  0
  2 14  1  0
  4  3  2  0
  5  4  1  0
  6  5  2  0
  6  1  1  0
  8  7  1  0
  9  5  1  0
  9  8  2  0
 10  9  1  0
 11 10  2  0
 11 12  1  0
 12 13  2  0
 13  8  1  0
 15 14  2  0
 15 16  1  0
 17 16  1  0
 17 18  2  0
 19 18  1  0
 20 19  2  0
 21 26  2  0
 21 20  1  0
 22 21  1  0
 23 24  1  0
 23 22  2  0
 24 25  2  0
 25 26  1  0
 26 17  1  0
  1 27  1  0
  3 28  1  0
 10 29  1  0
 11 30  1  0
 12 31  1  0
 13 32  1  0
 14 33  1  0
 15 34  1  0
 16 35  1  0
 16 36  1  0
 18 37  1  0
 19 38  1  0
 20 39  1  0
 22 40  1  0
 23 41  1  0
 24 42  1  0
 25 43  1  0
M  ISO  8  27  14  28  14  29  14  30  14  31  14  32  14  35   8  36   8
M  ISO  7  37  14  38  14  39  14  40  14  41  14  42  14  43  14
M  END
>  <minimizedAffinity>  (1) 
-6.71241236

>  <minimizedRMSD>  (1) 
0.938554108

$$$$
