
     RDKit          3D

 32 34  0  0  0  0  0  0  0  0999 V2000
   45.1943   35.2093   44.0566 C   0  0  0  0  0  0  0  0  0  0  0  0
   46.2300   34.5907   43.3708 C   0  0  0  0  0  0  0  0  0  0  0  0
   46.8949   33.5850   44.0648 C   0  0  0  0  0  0  0  0  0  0  0  0
   46.4926   33.2947   45.3176 N   0  0  0  0  0  0  0  0  0  0  0  0
   45.5074   33.8909   45.9545 C   0  0  0  0  0  0  0  0  0  0  0  0
   44.8647   34.8563   45.2976 N   0  0  0  0  0  0  0  0  0  0  0  0
   46.5571   34.9827   42.0248 C   0  0  0  0  0  0  0  0  0  0  0  0
   48.0551   35.1763   41.9193 C   0  0  0  0  0  0  0  0  0  0  0  0
   44.6649   36.0030   43.5187 H   0  0  0  0  0  0  0  0  0  0  0  0
   47.7031   33.0513   43.6262 H   0  0  0  0  0  0  0  0  0  0  0  0
   46.0072   35.9032   41.7468 H   0  0  0  0  0  0  0  0  0  0  0  0
   46.2970   34.1341   41.3359 H   0  0  0  0  0  0  0  0  0  0  0  0
   48.4764   35.7738   42.7441 H   0  0  0  0  0  0  0  0  0  0  0  0
   48.2819   35.7277   40.9799 H   0  0  0  0  0  0  0  0  0  0  0  0
   48.5054   34.1681   41.8289 H   0  0  0  0  0  0  0  0  0  0  0  0
   44.9674   33.6856   47.2930 C   0  0  0  0  0  0  0  0  0  0  0  0
   44.3774   34.7014   48.0567 C   0  0  0  0  0  0  0  0  0  0  0  0
   44.3223   35.7086   47.6138 H   0  0  0  0  0  0  0  0  0  0  0  0
   43.8634   34.5575   49.3015 C   0  0  0  0  0  0  0  0  0  0  0  0
   43.9011   33.3280   49.9092 C   0  0  0  0  0  0  0  0  0  0  0  0
   44.4652   32.2763   49.2244 C   0  0  0  0  0  0  0  0  0  0  0  0
   44.4770   31.0689   49.8780 C   0  0  0  0  0  0  0  0  0  0  0  0
   45.0216   29.9645   49.2670 C   0  0  0  0  0  0  0  0  0  0  0  0
   45.5475   30.1299   47.9827 C   0  0  0  0  0  0  0  0  0  0  0  0
   45.4966   31.3740   47.3969 C   0  0  0  0  0  0  0  0  0  0  0  0
   44.9677   32.4897   47.9661 C   0  0  0  0  0  0  0  0  0  0  0  0
   43.4298   35.4050   49.8061 H   0  0  0  0  0  0  0  0  0  0  0  0
   43.4893   33.2439   50.8890 H   0  0  0  0  0  0  0  0  0  0  0  0
   44.0647   30.9576   50.8745 H   0  0  0  0  0  0  0  0  0  0  0  0
   45.0162   29.0297   49.8057 H   0  0  0  0  0  0  0  0  0  0  0  0
   45.9657   29.2367   47.5391 H   0  0  0  0  0  0  0  0  0  0  0  0
   45.9294   31.3621   46.4237 H   0  0  0  0  0  0  0  0  0  0  0  0
  1  6  2  0
  2  1  1  0
  2  3  2  0
  3  4  1  0
  4  5  2  0
  6  5  1  0
  7  2  1  0
  8  7  1  0
  1  9  1  0
  3 10  1  0
  7 11  1  0
  7 12  1  0
  8 13  1  0
  8 14  1  0
  8 15  1  0
 16 17  2  0
 17 18  1  0
 17 19  1  0
 19 20  2  0
 20 21  1  0
 21 22  2  0
 22 23  1  0
 23 24  2  0
 24 25  1  0
 25 26  2  0
 26 16  1  0
 26 21  1  0
 19 27  1  0
 20 28  1  0
 22 29  1  0
 23 30  1  0
 24 31  1  0
 25 32  1  0
  5 16  1  0
M  ISO  8   9  14  10  14  11   8  12   8  13   8  14   8  15   8  18  15
M  END
>  <DihAtoms>  (1) 
3,4,15,16

>  <DihDeg>  (1) 
179.99828602761605

$$$$
