
     RDKit          3D

 32 34  0  0  0  0  0  0  0  0999 V2000
   44.5520   35.9110   44.6090 C   0  0  0  0  0  0  0  0  0  0  0  0
   45.1740   35.9860   43.3520 C   0  0  0  0  0  0  0  0  0  0  0  0
   46.0830   35.0020   43.0310 C   0  0  0  0  0  0  0  0  0  0  0  0
   46.3080   34.0520   43.9390 N   0  0  0  0  0  0  0  0  0  0  0  0
   45.7330   33.9510   45.1410 C   0  0  0  0  0  0  0  0  0  0  0  0
   44.8350   34.9170   45.4640 N   0  0  0  0  0  0  0  0  0  0  0  0
   45.9100   32.9650   46.1820 C   0  0  0  0  0  0  0  0  0  0  0  0
   45.3310   33.1020   47.4350 C   0  0  0  0  0  0  0  0  0  0  0  0
   45.4640   32.2020   48.4600 C   0  0  0  0  0  0  0  0  0  0  0  0
   46.2130   31.0620   48.2890 C   0  0  0  0  0  0  0  0  0  0  0  0
   46.8150   30.8630   47.0670 C   0  0  0  0  0  0  0  0  0  0  0  0
   47.5620   29.7170   46.9110 C   0  0  0  0  0  0  0  0  0  0  0  0
   48.1920   29.4590   45.7120 C   0  0  0  0  0  0  0  0  0  0  0  0
   48.0410   30.3860   44.6950 C   0  0  0  0  0  0  0  0  0  0  0  0
   47.2810   31.5110   44.9160 C   0  0  0  0  0  0  0  0  0  0  0  0
   46.6340   31.8160   46.0900 C   0  0  0  0  0  0  0  0  0  0  0  0
   46.7050   35.0560   41.7940 O   0  0  0  0  0  0  0  0  0  0  0  0
   48.5100   33.2920   41.0170 O   0  0  0  0  0  0  0  0  0  0  0  0
   48.3580   34.6730   41.6400 P   0  0  0  0  0  0  0  0  0  0  0  0
   49.0990   35.8710   40.7280 O   0  0  0  0  0  0  0  0  0  0  0  0
   48.9940   34.5970   43.2080 O   0  0  0  0  0  0  0  0  0  0  0  0
   43.8205   36.6803   44.8972 H   0  0  0  0  0  0  0  0  0  0  0  0
   44.9437   36.8006   42.6496 H   0  0  0  0  0  0  0  0  0  0  0  0
   44.7206   33.9983   47.6194 H   0  0  0  0  0  0  0  0  0  0  0  0
   44.9692   32.3927   49.4238 H   0  0  0  0  0  0  0  0  0  0  0  0
   46.3278   30.3315   49.1033 H   0  0  0  0  0  0  0  0  0  0  0  0
   47.6564   29.0057   47.7447 H   0  0  0  0  0  0  0  0  0  0  0  0
   48.7932   28.5490   45.5687 H   0  0  0  0  0  0  0  0  0  0  0  0
   48.5239   30.2246   43.7200 H   0  0  0  0  0  0  0  0  0  0  0  0
   47.1829   32.2252   44.0852 H   0  0  0  0  0  0  0  0  0  0  0  0
   49.5116   36.5380   41.3322 H   0  0  0  0  0  0  0  0  0  0  0  0
   48.2599   34.6847   43.8665 H   0  0  0  0  0  0  0  0  0  0  0  0
  1  6  2  0
  2  1  1  0
  3  2  2  0
  3  4  1  0
  4  5  2  0
  5  6  1  0
  5  7  1  0
  7  8  2  0
  8  9  1  0
 10  9  2  0
 11 10  1  0
 12 11  2  0
 13 12  1  0
 14 15  1  0
 14 13  2  0
 15 16  2  0
 16  7  1  0
 16 11  1  0
 17  3  1  0
 18 19  2  0
 19 17  1  0
 19 21  1  0
 20 19  1  0
  1 22  1  0
  2 23  1  0
  8 24  1  0
  9 25  1  0
 10 26  1  0
 12 27  1  0
 13 28  1  0
 14 29  1  0
 15 30  1  0
 20 31  1  0
 21 32  1  0
M  ISO  8  22  14  23  14  24  14  25  14  26  14  27  14  28  14  29  14
M  ISO  3  30  14  31   3  32   3
M  END
>  <minimizedAffinity>  (1) 
-6.46777391

>  <minimizedRMSD>  (1) 
0.27297309

$$$$
