
     RDKit          3D

 33 36  0  0  0  0  0  0  0  0999 V2000
   44.6397   35.8673   44.2994 C   0  0  0  0  0  0  0  0  0  0  0  0
   45.3269   35.9587   43.0868 C   0  0  0  0  0  0  0  0  0  0  0  0
   46.2837   34.9452   43.0296 C   0  0  0  0  0  0  0  0  0  0  0  0
   46.4630   34.0226   44.0602 N   0  0  0  0  0  0  0  0  0  0  0  0
   45.7359   34.0385   45.1771 C   0  0  0  0  0  0  0  0  0  0  0  0
   44.7995   34.9933   45.2915 N   0  0  0  0  0  0  0  0  0  0  0  0
   47.0829   34.7956   41.7711 C   0  0  0  0  0  0  0  0  0  0  0  0
   48.4401   35.4569   41.8606 C   0  0  0  0  0  0  0  0  0  0  0  0
   48.2253   33.9359   41.7818 C   0  0  0  0  0  0  0  0  0  0  0  0
   43.8478   36.6158   44.4816 H   0  0  0  0  0  0  0  0  0  0  0  0
   46.0497   33.2380   45.8197 H   0  0  0  0  0  0  0  0  0  0  0  0
   46.5418   35.0572   40.8640 H   0  0  0  0  0  0  0  0  0  0  0  0
   48.8083   35.9874   40.9630 H   0  0  0  0  0  0  0  0  0  0  0  0
   48.6613   35.9360   42.8027 H   0  0  0  0  0  0  0  0  0  0  0  0
   48.7324   33.5077   40.8902 H   0  0  0  0  0  0  0  0  0  0  0  0
   48.5414   33.3610   42.7083 H   0  0  0  0  0  0  0  0  0  0  0  0
   45.1027   36.9167   42.0699 C   0  0  0  0  0  0  0  0  0  0  0  0
   45.9304   37.9925   41.8153 C   0  0  0  0  0  0  0  0  0  0  0  0
   46.8179   38.1003   42.4510 H   0  0  0  0  0  0  0  0  0  0  0  0
   45.7424   38.9433   40.8343 C   0  0  0  0  0  0  0  0  0  0  0  0
   44.5994   38.7541   40.0591 C   0  0  0  0  0  0  0  0  0  0  0  0
   43.7063   37.6970   40.2438 C   0  0  0  0  0  0  0  0  0  0  0  0
   42.5992   37.5886   39.4279 C   0  0  0  0  0  0  0  0  0  0  0  0
   41.7119   36.5284   39.6200 C   0  0  0  0  0  0  0  0  0  0  0  0
   42.0041   35.6405   40.6319 C   0  0  0  0  0  0  0  0  0  0  0  0
   43.1005   35.7281   41.4570 C   0  0  0  0  0  0  0  0  0  0  0  0
   43.9696   36.7866   41.2515 C   0  0  0  0  0  0  0  0  0  0  0  0
   46.4012   39.7601   40.6659 H   0  0  0  0  0  0  0  0  0  0  0  0
   44.3797   39.4485   39.2750 H   0  0  0  0  0  0  0  0  0  0  0  0
   42.3865   38.2857   38.6473 H   0  0  0  0  0  0  0  0  0  0  0  0
   40.8376   36.3816   39.0289 H   0  0  0  0  0  0  0  0  0  0  0  0
   41.3328   34.7885   40.8205 H   0  0  0  0  0  0  0  0  0  0  0  0
   43.3030   35.0077   42.2496 H   0  0  0  0  0  0  0  0  0  0  0  0
  1  6  2  0
  2  1  1  0
  3  2  2  0
  3  4  1  0
  4  5  2  0
  5  6  1  0
  7  8  1  0
  7  9  1  0
  7  3  1  0
  8  9  1  0
  1 10  1  0
  5 11  1  0
  7 12  1  0
  8 13  1  0
  8 14  1  0
  9 15  1  0
  9 16  1  0
 17 18  2  0
 18 19  1  0
 18 20  1  0
 20 21  2  0
 21 22  1  0
 22 23  2  0
 23 24  1  0
 24 25  2  0
 25 26  1  0
 26 27  2  0
 27 17  1  0
 27 22  1  0
 20 28  1  0
 21 29  1  0
 23 30  1  0
 24 31  1  0
 25 32  1  0
 26 33  1  0
  2 17  1  0
M  ISO  8  10  14  11  14  12  13  13  13  14  13  15  13  16  13  19  15
M  END
>  <DihAtoms>  (1) 
0,1,16,17

>  <DihDeg>  (1) 
90.00400474185848

$$$$
