
     RDKit          3D

 49 54  0  0  0  0  0  0  0  0999 V2000
   46.3919   32.6651   45.8701 C   0  0  1  0  0  0  0  0  0  0  0  0
   46.9774   32.8316   47.2071 C   0  0  0  0  0  0  0  0  0  0  0  0
   45.5491   32.2042   46.9551 C   0  0  2  0  0  0  0  0  0  0  0  0
   45.3015   30.8032   47.2977 C   0  0  0  0  0  0  0  0  0  0  0  0
   45.1701   30.2666   48.5435 C   0  0  0  0  0  0  0  0  0  0  0  0
   45.0625   28.9151   48.8414 C   0  0  0  0  0  0  0  0  0  0  0  0
   45.0950   28.0324   47.7420 C   0  0  0  0  0  0  0  0  0  0  0  0
   45.2254   28.5614   46.4679 C   0  0  0  0  0  0  0  0  0  0  0  0
   45.1945   27.6610   45.4223 C   0  0  0  0  0  0  0  0  0  0  0  0
   45.2556   28.1351   44.1081 C   0  0  0  0  0  0  0  0  0  0  0  0
   45.3432   29.4882   43.8590 C   0  0  0  0  0  0  0  0  0  0  0  0
   45.3724   30.3385   44.9389 C   0  0  0  0  0  0  0  0  0  0  0  0
   45.3230   29.9120   46.2540 C   0  0  0  0  0  0  0  0  0  0  0  0
   44.6207   35.7307   44.8287 C   0  0  0  0  0  0  0  0  0  0  0  0
   45.1438   35.9631   43.5177 C   0  0  0  0  0  0  0  0  0  0  0  0
   46.1045   35.0571   43.0316 C   0  0  0  0  0  0  0  0  0  0  0  0
   46.4704   34.0433   43.8196 N   0  0  0  0  0  0  0  0  0  0  0  0
   45.9612   33.8420   45.0621 C   0  0  0  0  0  0  0  0  0  0  0  0
   45.0527   34.6762   45.5491 N   0  0  0  0  0  0  0  0  0  0  0  0
   47.1497   32.0231   45.2923 H   0  0  0  0  0  0  0  0  0  0  0  0
   46.9908   33.8248   47.6577 H   0  0  0  0  0  0  0  0  0  0  0  0
   47.6474   32.1090   47.6962 H   0  0  0  0  0  0  0  0  0  0  0  0
   44.8776   32.8844   47.5684 H   0  0  0  0  0  0  0  0  0  0  0  0
   45.1519   31.0023   49.3564 H   0  0  0  0  0  0  0  0  0  0  0  0
   44.9604   28.5805   49.8653 H   0  0  0  0  0  0  0  0  0  0  0  0
   45.0142   26.9771   47.9699 H   0  0  0  0  0  0  0  0  0  0  0  0
   45.1231   26.5967   45.6352 H   0  0  0  0  0  0  0  0  0  0  0  0
   45.2262   27.3279   43.3601 H   0  0  0  0  0  0  0  0  0  0  0  0
   45.3757   29.6567   42.8073 H   0  0  0  0  0  0  0  0  0  0  0  0
   45.3539   31.2964   44.5025 H   0  0  0  0  0  0  0  0  0  0  0  0
   43.8838   36.4410   45.1746 H   0  0  0  0  0  0  0  0  0  0  0  0
   44.8143   36.8288   42.9958 H   0  0  0  0  0  0  0  0  0  0  0  0
   46.8165   35.1362   41.7798 C   0  0  0  0  0  0  0  0  0  0  0  0
   47.8467   34.2071   41.5787 C   0  0  0  0  0  0  0  0  0  0  0  0
   48.0723   33.4775   42.3722 H   0  0  0  0  0  0  0  0  0  0  0  0
   48.6260   34.1180   40.4500 C   0  0  0  0  0  0  0  0  0  0  0  0
   48.3946   35.0006   39.4199 C   0  0  0  0  0  0  0  0  0  0  0  0
   47.3967   35.9407   39.5425 C   0  0  0  0  0  0  0  0  0  0  0  0
   47.1243   36.8097   38.5095 C   0  0  0  0  0  0  0  0  0  0  0  0
   46.0980   37.7516   38.5734 C   0  0  0  0  0  0  0  0  0  0  0  0
   45.3635   37.7485   39.7658 C   0  0  0  0  0  0  0  0  0  0  0  0
   45.6580   36.8704   40.7813 C   0  0  0  0  0  0  0  0  0  0  0  0
   46.6634   35.9640   40.7000 C   0  0  0  0  0  0  0  0  0  0  0  0
   49.4020   33.3697   40.3774 H   0  0  0  0  0  0  0  0  0  0  0  0
   48.9738   34.9824   38.5086 H   0  0  0  0  0  0  0  0  0  0  0  0
   47.7227   36.7698   37.6079 H   0  0  0  0  0  0  0  0  0  0  0  0
   45.9388   38.4040   37.7261 H   0  0  0  0  0  0  0  0  0  0  0  0
   44.5649   38.5068   39.7684 H   0  0  0  0  0  0  0  0  0  0  0  0
   44.9837   36.9839   41.5777 H   0  0  0  0  0  0  0  0  0  0  0  0
  1  3  1  0
  1  2  1  0
  3  2  1  0
  3  4  1  0
  4  5  2  0
  5  6  1  0
  7  6  2  0
  8  7  1  0
  9  8  2  0
 10  9  1  0
 11 10  2  0
 11 12  1  0
 12 13  2  0
 13  8  1  0
 13  4  1  0
 14 19  2  0
 15 14  1  0
 16 15  2  0
 16 17  1  0
 17 18  2  0
 18 19  1  0
 18  1  1  0
  1 20  1  6
  2 21  1  0
  2 22  1  0
  3 23  1  1
  5 24  1  0
  6 25  1  0
  7 26  1  0
  9 27  1  0
 10 28  1  0
 11 29  1  0
 12 30  1  0
 14 31  1  0
 15 32  1  0
 33 34  2  0
 34 35  1  0
 34 36  1  0
 36 37  2  0
 37 38  1  0
 38 39  2  0
 39 40  1  0
 40 41  2  0
 41 42  1  0
 42 43  2  0
 43 33  1  0
 43 38  1  0
 36 44  1  0
 37 45  1  0
 39 46  1  0
 40 47  1  0
 41 48  1  0
 42 49  1  0
 16 33  1  0
M  ISO  8  20  13  21  13  22  13  23  13  24  14  25  14  26  14  27  14
M  ISO  6  28  14  29  14  30  14  31  14  32  14  35  15
M  END
>  <DihAtoms>  (1) 
14,15,32,33

>  <DihDeg>  (1) 
142.43151082909455

$$$$
