
     RDKit          3D

 51 55  0  0  1  0  0  0  0  0999 V2000
   44.5640   35.3780   45.6210 C   0  0  0  0  0  0  0  0  0  0  0  0
   44.3850   35.8260   44.2980 C   0  0  0  0  0  0  0  0  0  0  0  0
   44.9220   35.0620   43.2470 C   0  0  0  0  0  0  0  0  0  0  0  0
   45.5860   33.9270   43.5740 N   0  0  0  0  0  0  0  0  0  0  0  0
   45.7410   33.5210   44.8600 C   0  0  0  0  0  0  0  0  0  0  0  0
   45.2300   34.2450   45.8940 N   0  0  0  0  0  0  0  0  0  0  0  0
   46.4580   32.3070   45.1030 N   0  0  0  0  0  0  0  0  0  0  0  0
   46.3430   31.7540   46.4520 C   0  0  0  0  0  0  0  0  0  0  0  0
   47.3580   30.7530   46.8070 C   0  0  0  0  0  0  0  0  0  0  0  0
   47.7300   29.9280   45.6190 C   0  0  0  0  0  0  0  0  0  0  0  0
   48.3290   30.8510   44.6030 C   0  0  0  0  0  0  0  0  0  0  0  0
   47.2360   31.6970   44.0540 C   0  0  2  0  0  0  0  0  0  0  0  0
   46.7550   31.4220   41.2360 F   0  0  0  0  0  0  0  0  0  0  0  0
   47.4790   32.5150   41.6470 C   0  0  0  0  0  0  0  0  0  0  0  0
   47.7080   32.6430   43.0090 C   0  0  0  0  0  0  0  0  0  0  0  0
   48.4420   33.7610   43.3740 C   0  0  0  0  0  0  0  0  0  0  0  0
   48.9260   34.6950   42.4890 C   0  0  0  0  0  0  0  0  0  0  0  0
   48.6750   34.5300   41.1390 C   0  0  0  0  0  0  0  0  0  0  0  0
   47.9580   33.4440   40.7370 C   0  0  0  0  0  0  0  0  0  0  0  0
   47.6300   33.1630   39.3220 C   0  0  0  0  0  0  0  0  0  0  0  0
   48.6490   32.8310   38.4460 C   0  0  0  0  0  0  0  0  0  0  0  0
   48.3880   32.5630   37.1230 C   0  0  0  0  0  0  0  0  0  0  0  0
   47.0830   32.6370   36.6970 C   0  0  0  0  0  0  0  0  0  0  0  0
   46.0380   32.9710   37.5660 C   0  0  0  0  0  0  0  0  0  0  0  0
   44.7250   33.0440   37.1290 C   0  0  0  0  0  0  0  0  0  0  0  0
   43.7310   33.3750   38.0170 C   0  0  0  0  0  0  0  0  0  0  0  0
   43.9940   33.6460   39.3540 C   0  0  0  0  0  0  0  0  0  0  0  0
   45.3090   33.5760   39.7960 C   0  0  0  0  0  0  0  0  0  0  0  0
   46.3200   33.2380   38.8960 C   0  0  0  0  0  0  0  0  0  0  0  0
   44.1485   35.9701   46.4497 H   0  0  0  0  0  0  0  0  0  0  0  0
   43.8354   36.7561   44.0908 H   0  0  0  0  0  0  0  0  0  0  0  0
   44.8074   35.3740   42.1984 H   0  0  0  0  0  0  0  0  0  0  0  0
   46.4201   32.5854   47.1682 H   0  0  0  0  0  0  0  0  0  0  0  0
   45.3752   31.2323   46.4862 H   0  0  0  0  0  0  0  0  0  0  0  0
   48.2546   31.2670   47.1838 H   0  0  0  0  0  0  0  0  0  0  0  0
   46.9426   30.0896   47.5799 H   0  0  0  0  0  0  0  0  0  0  0  0
   48.4632   29.1608   45.9086 H   0  0  0  0  0  0  0  0  0  0  0  0
   46.8462   29.4184   45.2077 H   0  0  0  0  0  0  0  0  0  0  0  0
   49.0907   31.4865   45.0783 H   0  0  0  0  0  0  0  0  0  0  0  0
   48.8093   30.2753   43.7981 H   0  0  0  0  0  0  0  0  0  0  0  0
   46.5412   31.0320   43.5202 H   0  0  0  0  0  0  0  0  0  0  0  0
   48.6511   33.9108   44.4435 H   0  0  0  0  0  0  0  0  0  0  0  0
   49.5034   35.5594   42.8487 H   0  0  0  0  0  0  0  0  0  0  0  0
   49.0466   35.2605   40.4053 H   0  0  0  0  0  0  0  0  0  0  0  0
   49.6843   32.7808   38.8143 H   0  0  0  0  0  0  0  0  0  0  0  0
   49.1978   32.2978   36.4273 H   0  0  0  0  0  0  0  0  0  0  0  0
   46.8533   32.4275   35.6418 H   0  0  0  0  0  0  0  0  0  0  0  0
   44.4802   32.8379   36.0766 H   0  0  0  0  0  0  0  0  0  0  0  0
   42.6926   33.4273   37.6579 H   0  0  0  0  0  0  0  0  0  0  0  0
   43.1805   33.9096   40.0459 H   0  0  0  0  0  0  0  0  0  0  0  0
   45.5515   33.7856   40.8483 H   0  0  0  0  0  0  0  0  0  0  0  0
  1  6  2  0
  2  1  1  0
  3  4  1  0
  3  2  2  0
  4  5  2  0
  5  7  1  0
  5  6  1  0
  7  8  1  0
  8  9  1  0
 10  9  1  0
 11 10  1  0
 12 11  1  0
 12  7  1  0
 13 14  1  0
 14 15  2  0
 15 16  1  0
 15 12  1  0
 17 16  2  0
 18 17  1  0
 19 18  2  0
 19 14  1  0
 20 19  1  0
 21 20  2  0
 22 21  1  0
 23 22  2  0
 23 24  1  0
 24 29  2  0
 25 24  1  0
 25 26  2  0
 26 27  1  0
 27 28  2  0
 29 20  1  0
 29 28  1  0
  1 30  1  0
  2 31  1  0
  3 32  1  0
  8 33  1  0
  8 34  1  0
  9 35  1  0
  9 36  1  0
 10 37  1  0
 10 38  1  0
 11 39  1  0
 11 40  1  0
 12 41  1  6
 16 42  1  0
 17 43  1  0
 18 44  1  0
 21 45  1  0
 22 46  1  0
 23 47  1  0
 25 48  1  0
 26 49  1  0
 27 50  1  0
 28 51  1  0
M  ISO  8  30  14  31  14  32  14  33  13  34  13  35  13  36  13  37  13
M  ISO  8  38  13  39  13  40  13  41  13  42  14  43  14  44  14  45  14
M  ISO  6  46  14  47  14  48  14  49  14  50  14  51  14
M  END
>  <minimizedAffinity>  (1) 
-6.15196991

>  <minimizedRMSD>  (1) 
1.5231396

$$$$
