
     RDKit          3D

 33 36  0  0  0  0  0  0  0  0999 V2000
   44.6397   35.8673   44.2994 C   0  0  0  0  0  0  0  0  0  0  0  0
   45.3269   35.9587   43.0868 C   0  0  0  0  0  0  0  0  0  0  0  0
   46.2837   34.9452   43.0296 C   0  0  0  0  0  0  0  0  0  0  0  0
   46.4630   34.0226   44.0602 N   0  0  0  0  0  0  0  0  0  0  0  0
   45.7359   34.0385   45.1771 C   0  0  0  0  0  0  0  0  0  0  0  0
   44.7995   34.9933   45.2915 N   0  0  0  0  0  0  0  0  0  0  0  0
   47.0829   34.7956   41.7711 C   0  0  0  0  0  0  0  0  0  0  0  0
   48.4401   35.4569   41.8606 C   0  0  0  0  0  0  0  0  0  0  0  0
   48.2253   33.9359   41.7818 C   0  0  0  0  0  0  0  0  0  0  0  0
   43.8478   36.6158   44.4816 H   0  0  0  0  0  0  0  0  0  0  0  0
   46.0497   33.2380   45.8197 H   0  0  0  0  0  0  0  0  0  0  0  0
   46.5418   35.0572   40.8640 H   0  0  0  0  0  0  0  0  0  0  0  0
   48.8083   35.9874   40.9630 H   0  0  0  0  0  0  0  0  0  0  0  0
   48.6613   35.9360   42.8027 H   0  0  0  0  0  0  0  0  0  0  0  0
   48.7324   33.5077   40.8902 H   0  0  0  0  0  0  0  0  0  0  0  0
   48.5414   33.3610   42.7083 H   0  0  0  0  0  0  0  0  0  0  0  0
   45.1027   36.9167   42.0699 C   0  0  0  0  0  0  0  0  0  0  0  0
   43.9046   37.0805   41.4026 C   0  0  0  0  0  0  0  0  0  0  0  0
   43.0794   36.4172   41.6896 H   0  0  0  0  0  0  0  0  0  0  0  0
   43.6519   38.0021   40.4086 C   0  0  0  0  0  0  0  0  0  0  0  0
   44.7369   38.8162   40.0873 C   0  0  0  0  0  0  0  0  0  0  0  0
   45.9841   38.7227   40.7078 C   0  0  0  0  0  0  0  0  0  0  0  0
   47.0021   39.5712   40.3249 C   0  0  0  0  0  0  0  0  0  0  0  0
   48.2456   39.4703   40.9509 C   0  0  0  0  0  0  0  0  0  0  0  0
   48.3794   38.5110   41.9306 C   0  0  0  0  0  0  0  0  0  0  0  0
   47.3798   37.6549   42.3288 C   0  0  0  0  0  0  0  0  0  0  0  0
   46.1531   37.7698   41.6963 C   0  0  0  0  0  0  0  0  0  0  0  0
   42.7157   38.1009   39.9153 H   0  0  0  0  0  0  0  0  0  0  0  0
   44.6246   39.5589   39.3250 H   0  0  0  0  0  0  0  0  0  0  0  0
   46.8825   40.3100   39.5632 H   0  0  0  0  0  0  0  0  0  0  0  0
   49.0765   40.0912   40.7072 H   0  0  0  0  0  0  0  0  0  0  0  0
   49.3420   38.3947   42.4521 H   0  0  0  0  0  0  0  0  0  0  0  0
   47.5187   36.9059   43.1083 H   0  0  0  0  0  0  0  0  0  0  0  0
  1  6  2  0
  2  1  1  0
  3  2  2  0
  3  4  1  0
  4  5  2  0
  5  6  1  0
  7  8  1  0
  7  9  1  0
  7  3  1  0
  8  9  1  0
  1 10  1  0
  5 11  1  0
  7 12  1  0
  8 13  1  0
  8 14  1  0
  9 15  1  0
  9 16  1  0
 17 18  2  0
 18 19  1  0
 18 20  1  0
 20 21  2  0
 21 22  1  0
 22 23  2  0
 23 24  1  0
 24 25  2  0
 25 26  1  0
 26 27  2  0
 27 17  1  0
 27 22  1  0
 20 28  1  0
 21 29  1  0
 23 30  1  0
 24 31  1  0
 25 32  1  0
 26 33  1  0
  2 17  1  0
M  ISO  8  10  14  11  14  12  13  13  13  14  13  15  13  16  13  19  15
M  END
>  <DihAtoms>  (1) 
0,1,16,17

>  <DihDeg>  (1) 
90.00400474185848

$$$$
