
     RDKit          3D

 28 30  0  0  0  0  0  0  0  0999 V2000
   46.1460   34.8110   43.3660 C   0  0  0  0  0  0  0  0  0  0  0  0
   45.2760   35.8860   43.3940 C   0  0  0  0  0  0  0  0  0  0  0  0
   44.4990   35.9990   44.5710 C   0  0  0  0  0  0  0  0  0  0  0  0
   44.6490   35.0860   45.5560 N   0  0  0  0  0  0  0  0  0  0  0  0
   45.5010   34.0640   45.4870 C   0  0  0  0  0  0  0  0  0  0  0  0
   46.2190   33.9760   44.3800 N   0  0  0  0  0  0  0  0  0  0  0  0
   45.8000   32.9950   46.4370 C   0  0  0  0  0  0  0  0  0  0  0  0
   45.3340   32.9710   47.7460 C   0  0  0  0  0  0  0  0  0  0  0  0
   45.5970   31.9840   48.6530 C   0  0  0  0  0  0  0  0  0  0  0  0
   46.3780   30.9150   48.2840 C   0  0  0  0  0  0  0  0  0  0  0  0
   46.8690   30.8730   47.0100 C   0  0  0  0  0  0  0  0  0  0  0  0
   47.6420   29.7830   46.6960 C   0  0  0  0  0  0  0  0  0  0  0  0
   48.1780   29.6590   45.4350 C   0  0  0  0  0  0  0  0  0  0  0  0
   47.8980   30.6790   44.5210 C   0  0  0  0  0  0  0  0  0  0  0  0
   47.1170   31.7430   44.9020 C   0  0  0  0  0  0  0  0  0  0  0  0
   46.5700   31.8950   46.1430 C   0  0  0  0  0  0  0  0  0  0  0  0
   46.9090   34.7050   42.1690 C   0  0  0  0  0  0  0  0  0  0  0  0
   47.9270   35.3540   41.8410 O   0  0  0  0  0  0  0  0  0  0  0  0
   45.1942   36.6008   42.5619 H   0  0  0  0  0  0  0  0  0  0  0  0
   43.7790   36.8230   44.6834 H   0  0  0  0  0  0  0  0  0  0  0  0
   44.7054   33.8108   48.0770 H   0  0  0  0  0  0  0  0  0  0  0  0
   45.1865   32.0444   49.6717 H   0  0  0  0  0  0  0  0  0  0  0  0
   46.6029   30.1103   48.9994 H   0  0  0  0  0  0  0  0  0  0  0  0
   47.8330   29.0082   47.4531 H   0  0  0  0  0  0  0  0  0  0  0  0
   48.7998   28.7949   45.1581 H   0  0  0  0  0  0  0  0  0  0  0  0
   48.3021   30.6298   43.4991 H   0  0  0  0  0  0  0  0  0  0  0  0
   46.9189   32.5263   44.1555 H   0  0  0  0  0  0  0  0  0  0  0  0
   46.5595   33.9584   41.4407 H   0  0  0  0  0  0  0  0  0  0  0  0
  1  2  2  0
  1  6  1  0
  2  3  1  0
  3  4  2  0
  5  4  1  0
  5  7  1  0
  6  5  2  0
  7  8  2  0
  8  9  1  0
 10  9  2  0
 11 10  1  0
 12 11  2  0
 13 12  1  0
 14 15  1  0
 14 13  2  0
 15 16  2  0
 16  7  1  0
 16 11  1  0
 17  1  1  0
 18 17  2  0
  2 19  1  0
  3 20  1  0
  8 21  1  0
  9 22  1  0
 10 23  1  0
 12 24  1  0
 13 25  1  0
 14 26  1  0
 15 27  1  0
 17 28  1  0
M  ISO  8  19  14  20  14  21  14  22  14  23  14  24  14  25  14  26  14
M  ISO  2  27  14  28   6
M  END
>  <minimizedAffinity>  (1) 
-5.48819685

>  <minimizedRMSD>  (1) 
0.570449889

$$$$
