
     RDKit          3D

 41 44  0  0  0  0  0  0  0  0999 V2000
   46.5838   34.8031   42.0987 C   0  0  0  0  0  0  0  0  0  0  0  0
   47.9202   35.2188   42.0401 C   0  0  0  0  0  0  0  0  0  0  0  0
   48.7137   35.0374   40.9024 C   0  0  0  0  0  0  0  0  0  0  0  0
   48.1769   34.4329   39.7986 C   0  0  0  0  0  0  0  0  0  0  0  0
   46.8713   34.0262   39.8548 C   0  0  0  0  0  0  0  0  0  0  0  0
   46.0782   34.2035   40.9823 C   0  0  0  0  0  0  0  0  0  0  0  0
   44.4290   36.2269   44.7965 C   0  0  0  0  0  0  0  0  0  0  0  0
   45.0728   36.1330   43.5357 C   0  0  0  0  0  0  0  0  0  0  0  0
   45.8700   35.0297   43.3184 C   0  0  0  0  0  0  0  0  0  0  0  0
   45.9994   34.1002   44.3095 N   0  0  0  0  0  0  0  0  0  0  0  0
   45.3672   34.2299   45.4995 C   0  0  0  0  0  0  0  0  0  0  0  0
   44.5787   35.2984   45.7413 N   0  0  0  0  0  0  0  0  0  0  0  0
   45.5223   33.2620   46.5262 N   0  0  0  0  0  0  0  0  0  0  0  0
   44.6758   33.7487   41.0255 C   0  0  0  0  0  0  0  0  0  0  0  0
   44.4673   32.8949   39.9458 F   0  0  0  0  0  0  0  0  0  0  0  0
   43.8485   34.8488   40.9282 F   0  0  0  0  0  0  0  0  0  0  0  0
   44.3169   33.0976   42.1795 F   0  0  0  0  0  0  0  0  0  0  0  0
   48.3672   35.6990   42.8995 H   0  0  0  0  0  0  0  0  0  0  0  0
   49.7490   35.3865   40.9271 H   0  0  0  0  0  0  0  0  0  0  0  0
   48.7525   34.2735   38.9005 H   0  0  0  0  0  0  0  0  0  0  0  0
   46.4136   33.5382   38.9847 H   0  0  0  0  0  0  0  0  0  0  0  0
   43.7864   37.0494   45.0781 H   0  0  0  0  0  0  0  0  0  0  0  0
   46.4703   33.5053   46.8930 H   0  0  0  0  0  0  0  0  0  0  0  0
   44.8309   32.5191   46.8011 H   0  0  0  0  0  0  0  0  0  0  0  0
   44.8077   37.2641   42.6691 C   0  0  0  0  0  0  0  0  0  0  0  0
   45.3395   37.3234   41.3865 C   0  0  0  0  0  0  0  0  0  0  0  0
   45.9468   36.5515   40.9712 H   0  0  0  0  0  0  0  0  0  0  0  0
   45.1478   38.3749   40.5229 C   0  0  0  0  0  0  0  0  0  0  0  0
   44.3896   39.4586   40.9083 C   0  0  0  0  0  0  0  0  0  0  0  0
   43.8335   39.4614   42.1699 C   0  0  0  0  0  0  0  0  0  0  0  0
   43.0773   40.5379   42.5728 C   0  0  0  0  0  0  0  0  0  0  0  0
   42.5110   40.5836   43.8177 C   0  0  0  0  0  0  0  0  0  0  0  0
   42.7198   39.5119   44.6662 C   0  0  0  0  0  0  0  0  0  0  0  0
   43.4825   38.4512   44.2284 C   0  0  0  0  0  0  0  0  0  0  0  0
   44.0610   38.3792   42.9892 C   0  0  0  0  0  0  0  0  0  0  0  0
   45.5587   38.4251   39.5256 H   0  0  0  0  0  0  0  0  0  0  0  0
   44.2177   40.3005   40.2589 H   0  0  0  0  0  0  0  0  0  0  0  0
   42.9360   41.3673   41.8692 H   0  0  0  0  0  0  0  0  0  0  0  0
   41.9331   41.4432   44.0804 H   0  0  0  0  0  0  0  0  0  0  0  0
   42.2560   39.5845   45.6422 H   0  0  0  0  0  0  0  0  0  0  0  0
   43.5873   37.6627   44.9364 H   0  0  0  0  0  0  0  0  0  0  0  0
  1  9  1  0
  2  1  2  0
  3  2  1  0
  4  5  1  0
  4  3  2  0
  5  6  2  0
  6 14  1  0
  6  1  1  0
  7 12  2  0
  8  7  1  0
  9  8  2  0
  9 10  1  0
 10 11  2  0
 11 12  1  0
 11 13  1  0
 14 17  1  0
 15 14  1  0
 16 14  1  0
  2 18  1  0
  3 19  1  0
  4 20  1  0
  5 21  1  0
  7 22  1  0
 13 23  1  0
 13 24  1  0
 25 26  2  0
 26 27  1  0
 26 28  1  0
 28 29  2  0
 29 30  1  0
 30 31  2  0
 31 32  1  0
 32 33  2  0
 33 34  1  0
 34 35  2  0
 35 25  1  0
 35 30  1  0
 28 36  1  0
 29 37  1  0
 31 38  1  0
 32 39  1  0
 33 40  1  0
 34 41  1  0
  8 25  1  0
M  ISO  6  18  14  19  14  20  14  21  14  22  14  27  15
M  END
>  <DihAtoms>  (1) 
6,7,24,25

>  <DihDeg>  (1) 
121.2085445473976

$$$$
