
     RDKit          3D

 42 45  0  0  0  0  0  0  0  0999 V2000
   46.0566   34.3230   41.5283 N   0  0  0  0  0  0  0  0  0  0  0  0
   45.1006   34.0844   40.4741 C   0  0  0  0  0  0  0  0  0  0  0  0
   45.6765   33.2402   39.3663 C   0  0  0  0  0  0  0  0  0  0  0  0
   46.9465   33.6619   38.8797 N   0  0  0  0  0  0  0  0  0  0  0  0
   47.7893   34.2949   39.7982 C   0  0  0  0  0  0  0  0  0  0  0  0
   47.4713   34.2215   41.2604 C   0  0  1  0  0  0  0  0  0  0  0  0
   44.6056   36.0572   44.5110 C   0  0  0  0  0  0  0  0  0  0  0  0
   44.9899   35.8217   43.1952 C   0  0  0  0  0  0  0  0  0  0  0  0
   45.6092   34.6584   42.8171 C   0  0  0  0  0  0  0  0  0  0  0  0
   45.7888   33.8030   43.8483 N   0  0  0  0  0  0  0  0  0  0  0  0
   45.4322   33.9996   45.1222 C   0  0  0  0  0  0  0  0  0  0  0  0
   44.8350   35.1418   45.4473 N   0  0  0  0  0  0  0  0  0  0  0  0
   48.2146   35.2345   41.9798 C   0  0  0  0  0  0  0  0  0  0  0  0
   48.9417   36.1099   41.3532 O   0  0  0  0  0  0  0  0  0  0  0  0
   44.1833   33.6131   40.8256 H   0  0  0  0  0  0  0  0  0  0  0  0
   44.8144   35.0681   40.0210 H   0  0  0  0  0  0  0  0  0  0  0  0
   44.9393   33.2246   38.5420 H   0  0  0  0  0  0  0  0  0  0  0  0
   45.7871   32.1881   39.7229 H   0  0  0  0  0  0  0  0  0  0  0  0
   47.3950   32.8297   38.4041 H   0  0  0  0  0  0  0  0  0  0  0  0
   48.8315   33.9324   39.6636 H   0  0  0  0  0  0  0  0  0  0  0  0
   47.8206   35.3873   39.5430 H   0  0  0  0  0  0  0  0  0  0  0  0
   47.7582   33.1924   41.5872 H   0  0  0  0  0  0  0  0  0  0  0  0
   44.1164   36.9945   44.7694 H   0  0  0  0  0  0  0  0  0  0  0  0
   44.8096   36.5653   42.4059 H   0  0  0  0  0  0  0  0  0  0  0  0
   45.6582   33.2021   45.8115 H   0  0  0  0  0  0  0  0  0  0  0  0
   48.5283   35.7495   43.2778 C   0  0  0  0  0  0  0  0  0  0  0  0
   48.0544   37.0591   43.4948 C   0  0  0  0  0  0  0  0  0  0  0  0
   47.6020   37.7520   42.7581 H   0  0  0  0  0  0  0  0  0  0  0  0
   48.0014   37.7465   44.6843 C   0  0  0  0  0  0  0  0  0  0  0  0
   48.4578   37.1003   45.8095 C   0  0  0  0  0  0  0  0  0  0  0  0
   48.9346   35.8218   45.6724 C   0  0  0  0  0  0  0  0  0  0  0  0
   49.4510   35.0655   46.7026 C   0  0  0  0  0  0  0  0  0  0  0  0
   49.9682   33.7954   46.6099 C   0  0  0  0  0  0  0  0  0  0  0  0
   49.9700   33.2130   45.3382 C   0  0  0  0  0  0  0  0  0  0  0  0
   49.4612   33.9359   44.2800 C   0  0  0  0  0  0  0  0  0  0  0  0
   48.9497   35.2179   44.4454 C   0  0  0  0  0  0  0  0  0  0  0  0
   47.6508   38.7425   44.8978 H   0  0  0  0  0  0  0  0  0  0  0  0
   48.4948   37.4706   46.8193 H   0  0  0  0  0  0  0  0  0  0  0  0
   49.4343   35.5481   47.6735 H   0  0  0  0  0  0  0  0  0  0  0  0
   50.3380   33.3282   47.5144 H   0  0  0  0  0  0  0  0  0  0  0  0
   50.3873   32.2172   45.3196 H   0  0  0  0  0  0  0  0  0  0  0  0
   49.5723   33.3542   43.3776 H   0  0  0  0  0  0  0  0  0  0  0  0
  1  9  1  0
  2  1  1  0
  3  2  1  0
  4  3  1  0
  4  5  1  0
  5  6  1  0
  6  1  1  0
  6 13  1  0
  7 12  2  0
  8  7  1  0
  9  8  2  0
  9 10  1  0
 10 11  2  0
 11 12  1  0
 14 13  2  0
  2 15  1  0
  2 16  1  0
  3 17  1  0
  3 18  1  0
  4 19  1  0
  5 20  1  0
  5 21  1  0
  6 22  1  1
  7 23  1  0
  8 24  1  0
 11 25  1  0
 26 27  2  0
 27 28  1  0
 27 29  1  0
 29 30  2  0
 30 31  1  0
 31 32  2  0
 32 33  1  0
 33 34  2  0
 34 35  1  0
 35 36  2  0
 36 26  1  0
 36 31  1  0
 29 37  1  0
 30 38  1  0
 32 39  1  0
 33 40  1  0
 34 41  1  0
 35 42  1  0
 13 26  1  0
M  ISO  8  15  13  16  13  17  13  18  13  19   5  20  13  21  13  22  13
M  ISO  4  23  14  24  14  25  14  28  15
M  END
>  <DihAtoms>  (1) 
5,12,25,26

>  <DihDeg>  (1) 
34.6024677289141

$$$$
