
     RDKit          3D

 40 42  0  0  0  0  0  0  0  0999 V2000
   45.6141   34.4043   41.8604 N   0  0  0  0  0  0  0  0  0  0  0  0
   46.9520   34.1328   41.4042 C   0  0  1  0  0  0  0  0  0  0  0  0
   47.0895   34.0380   39.9251 C   0  0  0  0  0  0  0  0  0  0  0  0
   46.0581   33.3662   39.2549 N   0  0  0  0  0  0  0  0  0  0  0  0
   44.7557   33.4751   39.7701 C   0  0  0  0  0  0  0  0  0  0  0  0
   44.6565   34.5768   40.8052 C   0  0  0  0  0  0  0  0  0  0  0  0
   44.7319   35.6215   43.6936 C   0  0  0  0  0  0  0  0  0  0  0  0
   45.3845   34.4716   43.2357 C   0  0  0  0  0  0  0  0  0  0  0  0
   45.7482   33.5037   44.1709 C   0  0  0  0  0  0  0  0  0  0  0  0
   45.4663   33.6930   45.4886 N   0  0  0  0  0  0  0  0  0  0  0  0
   44.8316   34.8215   45.8983 C   0  0  0  0  0  0  0  0  0  0  0  0
   44.4688   35.7700   45.0278 N   0  0  0  0  0  0  0  0  0  0  0  0
   47.8469   35.2535   41.8762 C   0  0  0  0  0  0  0  0  0  0  0  0
   47.2230   33.1397   41.8280 H   0  0  0  0  0  0  0  0  0  0  0  0
   47.1752   35.0722   39.5210 H   0  0  0  0  0  0  0  0  0  0  0  0
   48.0654   33.5433   39.6992 H   0  0  0  0  0  0  0  0  0  0  0  0
   46.3073   32.3368   39.1685 H   0  0  0  0  0  0  0  0  0  0  0  0
   44.3559   32.5518   40.2761 H   0  0  0  0  0  0  0  0  0  0  0  0
   44.0200   33.7031   38.9630 H   0  0  0  0  0  0  0  0  0  0  0  0
   43.6417   34.5746   41.2681 H   0  0  0  0  0  0  0  0  0  0  0  0
   44.8023   35.5479   40.2665 H   0  0  0  0  0  0  0  0  0  0  0  0
   44.4293   36.3996   43.0069 H   0  0  0  0  0  0  0  0  0  0  0  0
   46.2496   32.6374   43.7602 H   0  0  0  0  0  0  0  0  0  0  0  0
   44.6511   34.8830   46.9689 H   0  0  0  0  0  0  0  0  0  0  0  0
   47.4007   36.1908   41.4928 H   0  0  0  0  0  0  0  0  0  0  0  0
   47.7451   35.3341   42.9929 H   0  0  0  0  0  0  0  0  0  0  0  0
   47.8657   32.5101   41.7334 H   0  0  0  0  0  0  0  0  0  0  0  0
   48.9301   32.5448   40.9044 S   0  0  0  0  0  0  0  0  0  0  0  0
   49.7771   31.3312   41.2624 O   0  0  0  0  0  0  0  0  0  0  0  0
   48.5834   32.3590   39.4507 O   0  0  0  0  0  0  0  0  0  0  0  0
   49.8816   33.9956   41.0331 C   0  0  0  0  0  0  0  0  0  0  0  0
   49.2538   35.1192   41.4835 C   0  0  0  0  0  0  0  0  0  0  0  0
   50.0593   36.2619   41.5732 C   0  0  0  0  0  0  0  0  0  0  0  0
   49.7148   37.2393   41.9143 H   0  0  0  0  0  0  0  0  0  0  0  0
   51.3950   36.2350   41.2251 C   0  0  0  0  0  0  0  0  0  0  0  0
   52.0297   37.1146   41.2897 H   0  0  0  0  0  0  0  0  0  0  0  0
   51.9924   35.0767   40.7735 C   0  0  0  0  0  0  0  0  0  0  0  0
   51.2136   33.9395   40.6787 C   0  0  0  0  0  0  0  0  0  0  0  0
   53.0349   35.0567   40.5020 H   0  0  0  0  0  0  0  0  0  0  0  0
   51.6834   33.0374   40.3262 H   0  0  0  0  0  0  0  0  0  0  0  0
  1  8  1  0
  2  1  1  0
  2 13  1  0
  3  2  1  0
  4  5  1  0
  4  3  1  0
  5  6  1  0
  6  1  1  0
  7 12  2  0
  8  7  1  0
  8  9  2  0
  9 10  1  0
 10 11  2  0
 12 11  1  0
  2 14  1  1
  3 15  1  0
  3 16  1  0
  4 17  1  0
  5 18  1  0
  5 19  1  0
  6 20  1  0
  6 21  1  0
  7 22  1  0
  9 23  1  0
 11 24  1  0
 13 25  1  0
 13 26  1  0
 27 28  1  0
 28 29  2  0
 28 30  2  0
 28 31  1  0
 31 32  2  0
 32 33  1  0
 33 34  1  0
 33 35  2  0
 35 36  1  0
 35 37  1  0
 37 38  2  0
 38 31  1  0
 37 39  1  0
 38 40  1  0
 13 32  1  0
M  ISO  8  14  13  15  13  16  13  17   5  18  13  19  13  20  13  21  13
M  ISO  8  22  14  23  14  24  14  25   8  26   8  27  12  34  15  36  16
M  END
>  <DihAtoms>  (1) 
1,12,31,30

>  <DihDeg>  (1) 
-76.30093098805938

$$$$
