
     RDKit          3D

 37 40  0  0  0  0  0  0  0  0999 V2000
   47.4628   31.6804   44.8252 C   0  0  0  0  0  0  0  0  0  0  0  0
   46.7837   32.8644   44.5342 C   0  0  0  0  0  0  0  0  0  0  0  0
   45.9175   33.4443   45.4241 C   0  0  0  0  0  0  0  0  0  0  0  0
   45.6824   32.8567   46.6753 C   0  0  0  0  0  0  0  0  0  0  0  0
   44.9285   33.1337   47.7560 N   0  0  0  0  0  0  0  0  0  0  0  0
   45.1086   32.1833   48.6938 C   0  0  0  0  0  0  0  0  0  0  0  0
   45.9937   31.3156   48.1589 N   0  0  0  0  0  0  0  0  0  0  0  0
   46.3682   31.6888   46.9315 C   0  0  0  0  0  0  0  0  0  0  0  0
   47.2447   31.0754   46.0670 C   0  0  0  0  0  0  0  0  0  0  0  0
   46.3752   33.8247   41.0199 C   0  0  0  0  0  0  0  0  0  0  0  0
   47.4317   34.7269   40.8251 C   0  0  0  0  0  0  0  0  0  0  0  0
   48.2680   34.9919   41.9019 C   0  0  0  0  0  0  0  0  0  0  0  0
   48.0235   34.3638   43.0965 N   0  0  0  0  0  0  0  0  0  0  0  0
   46.9995   33.5041   43.2447 C   0  0  0  0  0  0  0  0  0  0  0  0
   46.1564   33.2165   42.2152 N   0  0  0  0  0  0  0  0  0  0  0  0
   45.0476   34.9465   45.0476 S   0  0  0  0  0  0  0  0  0  0  0  0
   48.1268   31.2913   44.0682 H   0  0  0  0  0  0  0  0  0  0  0  0
   44.3392   33.9805   47.7487 H   0  0  0  0  0  0  0  0  0  0  0  0
   44.6006   32.2011   49.6502 H   0  0  0  0  0  0  0  0  0  0  0  0
   47.7690   30.1710   46.2784 H   0  0  0  0  0  0  0  0  0  0  0  0
   45.6607   33.5436   40.2498 H   0  0  0  0  0  0  0  0  0  0  0  0
   47.5455   35.1698   39.8562 H   0  0  0  0  0  0  0  0  0  0  0  0
   49.0898   35.6833   41.7787 H   0  0  0  0  0  0  0  0  0  0  0  0
   48.7578   34.5918   44.4991 H   0  0  0  0  0  0  0  0  0  0  0  0
   48.1172   34.6744   45.7164 S   0  0  0  0  0  0  0  0  0  0  0  0
   47.1453   33.5434   45.8571 O   0  0  0  0  0  0  0  0  0  0  0  0
   49.1075   34.5889   46.8430 O   0  0  0  0  0  0  0  0  0  0  0  0
   47.2635   36.2149   45.7918 C   0  0  0  0  0  0  0  0  0  0  0  0
   45.9253   36.4063   45.5131 C   0  0  0  0  0  0  0  0  0  0  0  0
   45.4203   37.6855   45.6231 C   0  0  0  0  0  0  0  0  0  0  0  0
   44.3547   37.7802   45.3910 H   0  0  0  0  0  0  0  0  0  0  0  0
   46.2049   38.7457   45.9955 C   0  0  0  0  0  0  0  0  0  0  0  0
   45.7822   39.7263   46.0716 H   0  0  0  0  0  0  0  0  0  0  0  0
   47.5334   38.5656   46.2740 C   0  0  0  0  0  0  0  0  0  0  0  0
   48.0499   37.3001   46.1691 C   0  0  0  0  0  0  0  0  0  0  0  0
   48.1513   39.4171   46.5701 H   0  0  0  0  0  0  0  0  0  0  0  0
   49.1165   37.1927   46.3993 H   0  0  0  0  0  0  0  0  0  0  0  0
  1  9  2  0
  2  1  1  0
  2  3  2  0
  3  4  1  0
  4  8  2  0
  4  5  1  0
  5  6  1  0
  7  6  2  0
  8  7  1  0
  9  8  1  0
 10 15  2  0
 11 10  1  0
 11 12  2  0
 12 13  1  0
 13 14  2  0
 14  2  1  0
 15 14  1  0
 16  3  1  0
  1 17  1  0
  5 18  1  0
  6 19  1  0
  9 20  1  0
 10 21  1  0
 11 22  1  0
 12 23  1  0
 24 25  1  0
 25 26  2  0
 25 27  2  0
 25 28  1  0
 28 29  2  0
 29 30  1  0
 30 31  1  0
 30 32  2  0
 32 33  1  0
 32 34  1  0
 34 35  2  0
 35 28  1  0
 34 36  1  0
 35 37  1  0
 16 29  1  0
M  ISO  8  17  14  18   9  19  14  20  14  21  14  22  14  23  14  24  12
M  ISO  2  31  15  33  16
M  END
>  <DihAtoms>  (1) 
2,15,28,27

>  <DihDeg>  (1) 
-179.93590164242804

$$$$
