
     RDKit          3D

 52 55  0  0  1  0  0  0  0  0999 V2000
   47.1170   33.1500   43.1800 C   0  0  0  0  0  0  0  0  0  0  0  0
   48.3360   33.2010   43.5450 O   0  0  0  0  0  0  0  0  0  0  0  0
   46.6200   32.2130   42.2350 N   0  0  0  0  0  0  0  0  0  0  0  0
   45.4040   31.4050   42.2430 C   0  0  0  0  0  0  0  0  0  0  0  0
   44.6460   31.5890   40.9350 C   0  0  0  0  0  0  0  0  0  0  0  0
   45.4610   31.1040   39.7810 C   0  0  0  0  0  0  0  0  0  0  0  0
   46.8920   30.8430   40.2480 C   0  0  0  0  0  0  0  0  0  0  0  0
   47.4130   31.9680   41.0530 C   0  0  2  0  0  0  0  0  0  0  0  0
   45.8110   35.2010   42.9690 C   0  0  0  0  0  0  0  0  0  0  0  0
   46.2090   34.0960   43.7620 C   0  0  0  0  0  0  0  0  0  0  0  0
   45.7190   33.9660   45.0480 C   0  0  0  0  0  0  0  0  0  0  0  0
   44.8700   34.9160   45.4920 N   0  0  0  0  0  0  0  0  0  0  0  0
   44.4780   35.9760   44.7550 C   0  0  0  0  0  0  0  0  0  0  0  0
   44.9590   36.1010   43.4960 N   0  0  0  0  0  0  0  0  0  0  0  0
   46.1440   32.8350   45.8320 C   0  0  0  0  0  0  0  0  0  0  0  0
   45.6550   31.5970   45.5820 C   0  0  0  0  0  0  0  0  0  0  0  0
   46.0840   30.5360   46.3490 C   0  0  0  0  0  0  0  0  0  0  0  0
   47.0060   30.6770   47.3800 C   0  0  0  0  0  0  0  0  0  0  0  0
   47.4740   31.9640   47.5930 C   0  0  0  0  0  0  0  0  0  0  0  0
   47.0390   32.9810   46.8310 N   0  0  0  0  0  0  0  0  0  0  0  0
   48.8820   31.8220   41.3200 C   0  0  0  0  0  0  0  0  0  0  0  0
   50.9330   31.3310   39.8310 C   0  0  0  0  0  0  0  0  0  0  0  0
   49.6760   31.8360   40.0450 C   0  0  0  0  0  0  0  0  0  0  0  0
   49.0810   32.3540   38.8830 C   0  0  0  0  0  0  0  0  0  0  0  0
   49.6390   32.3840   37.6220 C   0  0  0  0  0  0  0  0  0  0  0  0
   50.9050   31.8540   37.4960 C   0  0  0  0  0  0  0  0  0  0  0  0
   51.5240   31.3410   38.5960 C   0  0  0  0  0  0  0  0  0  0  0  0
   51.8700   30.7240   41.1480 S   0  0  0  0  0  0  0  0  0  0  0  0
   53.3300   30.6330   40.7130 O   0  0  0  0  0  0  0  0  0  0  0  0
   51.5130   29.2980   41.5190 O   0  0  0  0  0  0  0  0  0  0  0  0
   45.6722   30.3449   42.3623 H   0  0  0  0  0  0  0  0  0  0  0  0
   44.7641   31.7250   43.0785 H   0  0  0  0  0  0  0  0  0  0  0  0
   43.7063   31.0188   40.9787 H   0  0  0  0  0  0  0  0  0  0  0  0
   44.4359   32.6596   40.7950 H   0  0  0  0  0  0  0  0  0  0  0  0
   45.4664   31.8669   38.9886 H   0  0  0  0  0  0  0  0  0  0  0  0
   45.0260   30.1732   39.3879 H   0  0  0  0  0  0  0  0  0  0  0  0
   46.9073   29.9288   40.8595 H   0  0  0  0  0  0  0  0  0  0  0  0
   47.5299   30.7303   39.3590 H   0  0  0  0  0  0  0  0  0  0  0  0
   47.3097   32.8837   40.4523 H   0  0  0  0  0  0  0  0  0  0  0  0
   46.1904   35.3212   41.9435 H   0  0  0  0  0  0  0  0  0  0  0  0
   43.7830   36.7219   45.1681 H   0  0  0  0  0  0  0  0  0  0  0  0
   44.9235   31.4404   44.7756 H   0  0  0  0  0  0  0  0  0  0  0  0
   45.6800   29.5351   46.1367 H   0  0  0  0  0  0  0  0  0  0  0  0
   47.3419   29.8232   47.9868 H   0  0  0  0  0  0  0  0  0  0  0  0
   48.2065   32.1539   48.3914 H   0  0  0  0  0  0  0  0  0  0  0  0
   49.2142   32.6547   41.9574 H   0  0  0  0  0  0  0  0  0  0  0  0
   49.0482   30.8565   41.8201 H   0  0  0  0  0  0  0  0  0  0  0  0
   48.0712   32.7772   38.9890 H   0  0  0  0  0  0  0  0  0  0  0  0
   49.1015   32.8089   36.7615 H   0  0  0  0  0  0  0  0  0  0  0  0
   51.4098   31.8453   36.5187 H   0  0  0  0  0  0  0  0  0  0  0  0
   52.5345   30.9199   38.4880 H   0  0  0  0  0  0  0  0  0  0  0  0
   51.6366   31.5722   42.1982 H   0  0  0  0  0  0  0  0  0  0  0  0
  1  2  2  0
  1 10  1  0
  3  4  1  0
  3  1  1  0
  5  4  1  0
  6  7  1  0
  6  5  1  0
  7  8  1  0
  8 21  1  0
  8  3  1  0
  9 14  2  0
  9 10  1  0
 10 11  2  0
 11 12  1  0
 11 15  1  0
 13 12  2  0
 14 13  1  0
 15 20  1  0
 16 15  2  0
 16 17  1  0
 17 18  2  0
 18 19  1  0
 20 19  2  0
 22 23  2  0
 22 28  1  0
 23 21  1  0
 24 23  1  0
 25 24  2  0
 26 25  1  0
 26 27  2  0
 27 22  1  0
 28 30  2  0
 29 28  2  0
  4 31  1  0
  4 32  1  0
  5 33  1  0
  5 34  1  0
  6 35  1  0
  6 36  1  0
  7 37  1  0
  7 38  1  0
  8 39  1  6
  9 40  1  0
 13 41  1  0
 16 42  1  0
 17 43  1  0
 18 44  1  0
 19 45  1  0
 21 46  1  0
 21 47  1  0
 24 48  1  0
 25 49  1  0
 26 50  1  0
 27 51  1  0
 28 52  1  0
M  ISO  8  31  13  32  13  33  13  34  13  35  13  36  13  37  13  38  13
M  ISO  8  39  13  40  14  41  14  42  14  43  14  44  14  45  14  46   8
M  ISO  6  47   8  48  14  49  14  50  14  51  14  52  11
M  END
>  <minimizedAffinity>  (1) 
-5.20027828

>  <minimizedRMSD>  (1) 
1.21633708

$$$$
