
     RDKit          3D

 36 38  0  0  0  0  0  0  0  0999 V2000
   46.6135   34.4151   41.4518 C   0  0  0  0  0  0  0  0  0  0  0  0
   47.8809   34.8982   41.2417 C   0  0  0  0  0  0  0  0  0  0  0  0
   48.5238   34.6513   40.0494 C   0  0  0  0  0  0  0  0  0  0  0  0
   47.8757   33.9233   39.0929 C   0  0  0  0  0  0  0  0  0  0  0  0
   46.6127   33.4215   39.2572 C   0  0  0  0  0  0  0  0  0  0  0  0
   45.9981   33.6946   40.4807 C   0  0  0  0  0  0  0  0  0  0  0  0
   44.6927   36.0495   44.2644 C   0  0  0  0  0  0  0  0  0  0  0  0
   45.2340   35.8624   42.9737 C   0  0  0  0  0  0  0  0  0  0  0  0
   46.0068   34.7187   42.7326 C   0  0  0  0  0  0  0  0  0  0  0  0
   46.1653   33.8910   43.7669 N   0  0  0  0  0  0  0  0  0  0  0  0
   45.6521   34.0629   45.0002 C   0  0  0  0  0  0  0  0  0  0  0  0
   44.9047   35.1569   45.2543 N   0  0  0  0  0  0  0  0  0  0  0  0
   48.5686   35.7196   42.3023 C   0  0  0  0  0  0  0  0  0  0  0  0
   49.5273   35.0278   39.8657 H   0  0  0  0  0  0  0  0  0  0  0  0
   48.4022   33.7421   38.1665 H   0  0  0  0  0  0  0  0  0  0  0  0
   46.1042   32.8459   38.4995 H   0  0  0  0  0  0  0  0  0  0  0  0
   44.9919   33.3042   40.6308 H   0  0  0  0  0  0  0  0  0  0  0  0
   44.0891   36.9407   44.4537 H   0  0  0  0  0  0  0  0  0  0  0  0
   45.0785   36.5614   42.1604 H   0  0  0  0  0  0  0  0  0  0  0  0
   45.9019   33.2716   45.6921 H   0  0  0  0  0  0  0  0  0  0  0  0
   48.5104   35.2907   43.3003 H   0  0  0  0  0  0  0  0  0  0  0  0
   47.9800   36.6608   42.3439 H   0  0  0  0  0  0  0  0  0  0  0  0
   49.6488   34.9641   38.4514 H   0  0  0  0  0  0  0  0  0  0  0  0
   49.1204   35.9538   39.2760 S   0  0  0  0  0  0  0  0  0  0  0  0
   47.7785   35.5244   39.6644 O   0  0  0  0  0  0  0  0  0  0  0  0
   49.0086   37.1657   38.3584 O   0  0  0  0  0  0  0  0  0  0  0  0
   50.2687   36.2128   40.5236 C   0  0  0  0  0  0  0  0  0  0  0  0
   49.9186   36.0774   41.8361 C   0  0  0  0  0  0  0  0  0  0  0  0
   50.9660   36.3209   42.7315 C   0  0  0  0  0  0  0  0  0  0  0  0
   50.6986   36.2152   43.7923 H   0  0  0  0  0  0  0  0  0  0  0  0
   52.2677   36.6713   42.4123 C   0  0  0  0  0  0  0  0  0  0  0  0
   52.9575   36.8245   43.2370 H   0  0  0  0  0  0  0  0  0  0  0  0
   52.5541   36.7922   41.0461 C   0  0  0  0  0  0  0  0  0  0  0  0
   51.5474   36.5596   40.1378 C   0  0  0  0  0  0  0  0  0  0  0  0
   53.5759   37.0664   40.8193 H   0  0  0  0  0  0  0  0  0  0  0  0
   51.8682   36.6779   39.0965 H   0  0  0  0  0  0  0  0  0  0  0  0
  1  9  1  0
  2  1  1  0
  2 13  1  0
  3  2  2  0
  4  5  2  0
  4  3  1  0
  5  6  1  0
  6  1  2  0
  7 12  2  0
  8  7  1  0
  9  8  2  0
  9 10  1  0
 10 11  2  0
 11 12  1  0
  3 14  1  0
  4 15  1  0
  5 16  1  0
  6 17  1  0
  7 18  1  0
  8 19  1  0
 11 20  1  0
 13 21  1  0
 13 22  1  0
 23 24  1  0
 24 25  2  0
 24 26  2  0
 24 27  1  0
 27 28  2  0
 28 29  1  0
 29 30  1  0
 29 31  2  0
 31 32  1  0
 31 33  1  0
 33 34  2  0
 34 27  1  0
 33 35  1  0
 34 36  1  0
 13 28  1  0
M  ISO  8  14  14  15  14  16  14  17  14  18  14  19  14  20  14  21   8
M  ISO  4  22   8  23  12  30  15  32  16
M  END
>  <DihAtoms>  (1) 
1,12,27,26

>  <DihDeg>  (1) 
-77.19902702222316

$$$$
