
     RDKit          3D

 50 53  0  0  0  0  0  0  0  0999 V2000
   44.3000   34.4420   41.6490 C   0  0  0  0  0  0  0  0  0  0  0  0
   44.1530   33.2550   42.1140 O   0  0  0  0  0  0  0  0  0  0  0  0
   45.1920   35.2120   42.4450 N   0  0  0  0  0  0  0  0  0  0  0  0
   45.6230   34.4350   43.5860 C   0  0  0  0  0  0  0  0  0  0  0  0
   45.1980   34.5870   44.8710 C   0  0  0  0  0  0  0  0  0  0  0  0
   45.7420   33.7370   45.8000 C   0  0  0  0  0  0  0  0  0  0  0  0
   46.6470   32.8210   45.3780 N   0  0  0  0  0  0  0  0  0  0  0  0
   47.0440   32.6970   44.1090 C   0  0  0  0  0  0  0  0  0  0  0  0
   46.5190   33.5250   43.1870 N   0  0  0  0  0  0  0  0  0  0  0  0
   49.1340   31.8500   43.0120 C   0  0  0  0  0  0  0  0  0  0  0  0
   48.0280   31.6620   43.8120 C   0  0  0  0  0  0  0  0  0  0  0  0
   47.8530   30.4100   44.3610 C   0  0  0  0  0  0  0  0  0  0  0  0
   48.7380   29.3660   44.1330 C   0  0  0  0  0  0  0  0  0  0  0  0
   49.8460   29.5500   43.3330 C   0  0  0  0  0  0  0  0  0  0  0  0
   50.0170   30.8040   42.7860 C   0  0  0  0  0  0  0  0  0  0  0  0
   49.4070   33.4160   42.2890 S   0  0  0  0  0  0  0  0  0  0  0  0
   50.8640   33.8300   42.3830 O   0  0  0  0  0  0  0  0  0  0  0  0
   48.9850   33.3970   40.8490 O   0  0  0  0  0  0  0  0  0  0  0  0
   44.2450   35.5940   45.1300 N   0  0  0  0  0  0  0  0  0  0  0  0
   43.6940   34.9750   40.5150 O   0  0  0  0  0  0  0  0  0  0  0  0
   42.9330   32.3830   39.2750 Cl  0  0  0  0  0  0  0  0  0  0  0  0
   41.8450   33.6530   39.8130 C   0  0  0  0  0  0  0  0  0  0  0  0
   42.3000   34.8390   40.3860 C   0  0  0  0  0  0  0  0  0  0  0  0
   41.4140   35.7940   40.7870 C   0  0  0  0  0  0  0  0  0  0  0  0
   40.0450   35.6550   40.6560 C   0  0  0  0  0  0  0  0  0  0  0  0
   39.5620   34.4650   40.0810 C   0  0  0  0  0  0  0  0  0  0  0  0
   37.8380   34.2000   39.8750 Cl  0  0  0  0  0  0  0  0  0  0  0  0
   40.4890   33.5190   39.6860 C   0  0  0  0  0  0  0  0  0  0  0  0
   39.9200   31.3800   41.2670 F   0  0  0  0  0  0  0  0  0  0  0  0
   39.7190   31.2150   39.9180 C   0  0  0  0  0  0  0  0  0  0  0  0
   39.9970   32.2790   39.0870 C   0  0  0  0  0  0  0  0  0  0  0  0
   39.7810   32.0770   37.7190 C   0  0  0  0  0  0  0  0  0  0  0  0
   39.3120   30.8510   37.2820 C   0  0  0  0  0  0  0  0  0  0  0  0
   39.0490   29.8090   38.1810 C   0  0  0  0  0  0  0  0  0  0  0  0
   39.2530   29.9770   39.5470 C   0  0  0  0  0  0  0  0  0  0  0  0
   45.4866   36.1774   42.2399 H   0  0  0  0  0  0  0  0  0  0  0  0
   45.4514   33.7973   46.8592 H   0  0  0  0  0  0  0  0  0  0  0  0
   46.9787   30.2317   45.0042 H   0  0  0  0  0  0  0  0  0  0  0  0
   48.5544   28.3842   44.5938 H   0  0  0  0  0  0  0  0  0  0  0  0
   50.5594   28.7352   43.1404 H   0  0  0  0  0  0  0  0  0  0  0  0
   50.8912   30.9829   42.1427 H   0  0  0  0  0  0  0  0  0  0  0  0
   48.6575   34.3292   42.9827 H   0  0  0  0  0  0  0  0  0  0  0  0
   43.8984   35.7407   46.0888 H   0  0  0  0  0  0  0  0  0  0  0  0
   43.8957   36.1827   44.3604 H   0  0  0  0  0  0  0  0  0  0  0  0
   41.8067   36.7183   41.2358 H   0  0  0  0  0  0  0  0  0  0  0  0
   39.3576   36.4464   40.9894 H   0  0  0  0  0  0  0  0  0  0  0  0
   39.9819   32.8842   36.9992 H   0  0  0  0  0  0  0  0  0  0  0  0
   39.1421   30.6910   36.2070 H   0  0  0  0  0  0  0  0  0  0  0  0
   38.6765   28.8459   37.8020 H   0  0  0  0  0  0  0  0  0  0  0  0
   39.0557   29.1774   40.2762 H   0  0  0  0  0  0  0  0  0  0  0  0
  1  2  2  0
  1  3  1  0
  3  4  1  0
  4  5  2  0
  5 19  1  0
  5  6  1  0
  7  6  2  0
  8  7  1  0
  9  4  1  0
  9  8  2  0
 10 11  2  0
 11  8  1  0
 11 12  1  0
 13 12  2  0
 14 13  1  0
 15 10  1  0
 15 14  2  0
 16 17  2  0
 16 10  1  0
 18 16  2  0
 20  1  1  0
 21 22  1  0
 22 23  2  0
 23 20  1  0
 23 24  1  0
 25 24  2  0
 26 25  1  0
 27 26  1  0
 28 22  1  0
 28 26  2  0
 30 29  1  0
 31 28  1  0
 31 30  2  0
 32 31  1  0
 33 32  2  0
 33 34  1  0
 34 35  2  0
 35 30  1  0
  3 36  1  0
  6 37  1  0
 12 38  1  0
 13 39  1  0
 14 40  1  0
 15 41  1  0
 16 42  1  0
 19 43  1  0
 19 44  1  0
 24 45  1  0
 25 46  1  0
 32 47  1  0
 33 48  1  0
 34 49  1  0
 35 50  1  0
M  ISO  8  37  14  38  14  39  14  40  14  41  14  42  11  45  14  46  14
M  ISO  4  47  14  48  14  49  14  50  14
M  END
>  <minimizedAffinity>  (1) 
-6.77134752

>  <minimizedRMSD>  (1) 
0.804079115

$$$$
