
     RDKit          3D

 43 47  0  0  0  0  0  0  0  0999 V2000
   45.7040   34.8210   43.5500 C   0  0  0  0  0  0  0  0  0  0  0  0
   46.4140   33.7510   44.1500 C   0  0  0  0  0  0  0  0  0  0  0  0
   46.1560   33.4860   45.4840 C   0  0  0  0  0  0  0  0  0  0  0  0
   45.2560   34.2500   46.1360 N   0  0  0  0  0  0  0  0  0  0  0  0
   44.5890   35.2680   45.5410 C   0  0  0  0  0  0  0  0  0  0  0  0
   44.8180   35.5420   44.2630 N   0  0  0  0  0  0  0  0  0  0  0  0
   47.0480   32.6490   47.5900 C   0  0  0  0  0  0  0  0  0  0  0  0
   46.8050   32.4210   46.2410 C   0  0  0  0  0  0  0  0  0  0  0  0
   47.1860   31.2140   45.7070 C   0  0  0  0  0  0  0  0  0  0  0  0
   47.7950   30.2320   46.4510 C   0  0  0  0  0  0  0  0  0  0  0  0
   48.2500   28.9970   46.1530 N   0  0  0  0  0  0  0  0  0  0  0  0
   48.7760   28.4630   47.3210 C   0  0  0  0  0  0  0  0  0  0  0  0
   48.6330   29.3680   48.2930 N   0  0  0  0  0  0  0  0  0  0  0  0
   48.0350   30.4580   47.7850 C   0  0  0  0  0  0  0  0  0  0  0  0
   47.6640   31.6600   48.3510 C   0  0  0  0  0  0  0  0  0  0  0  0
   45.9660   35.0860   42.2010 O   0  0  0  0  0  0  0  0  0  0  0  0
   45.0730   34.6390   41.2280 C   0  0  0  0  0  0  0  0  0  0  0  0
   45.8660   33.7790   40.5620 C   0  0  0  0  0  0  0  0  0  0  0  0
   44.6730   33.1410   39.2220 S   0  0  0  0  0  0  0  0  0  0  0  0
   43.3220   34.2420   39.9110 C   0  0  0  0  0  0  0  0  0  0  0  0
   43.8590   34.7130   40.7360 N   0  0  0  0  0  0  0  0  0  0  0  0
   40.8900   33.6460   39.9010 C   0  0  0  0  0  0  0  0  0  0  0  0
   41.9160   34.3370   39.3560 C   0  0  0  0  0  0  0  0  0  0  0  0
   41.8100   35.1640   38.2920 C   0  0  0  0  0  0  0  0  0  0  0  0
   40.5720   35.3080   37.7300 C   0  0  0  0  0  0  0  0  0  0  0  0
   39.4440   34.6680   38.1790 C   0  0  0  0  0  0  0  0  0  0  0  0
   39.6550   33.8480   39.2670 C   0  0  0  0  0  0  0  0  0  0  0  0
   41.0510   32.5830   41.2750 S   0  0  0  0  0  0  0  0  0  0  0  0
   41.0950   31.1760   40.7140 O   0  0  0  0  0  0  0  0  0  0  0  0
   39.8020   32.6280   42.1190 O   0  0  0  0  0  0  0  0  0  0  0  0
   47.1409   33.1551   43.5786 H   0  0  0  0  0  0  0  0  0  0  0  0
   43.8625   35.8634   46.1134 H   0  0  0  0  0  0  0  0  0  0  0  0
   46.7559   33.6033   48.0526 H   0  0  0  0  0  0  0  0  0  0  0  0
   46.9958   31.0258   44.6400 H   0  0  0  0  0  0  0  0  0  0  0  0
   48.2137   28.5372   45.2320 H   0  0  0  0  0  0  0  0  0  0  0  0
   49.2315   27.4675   47.4278 H   0  0  0  0  0  0  0  0  0  0  0  0
   47.8578   31.8393   49.4188 H   0  0  0  0  0  0  0  0  0  0  0  0
   46.9186   33.5159   40.7429 H   0  0  0  0  0  0  0  0  0  0  0  0
   42.6846   35.6996   37.8943 H   0  0  0  0  0  0  0  0  0  0  0  0
   40.4739   35.9788   36.8637 H   0  0  0  0  0  0  0  0  0  0  0  0
   38.4569   34.7981   37.7112 H   0  0  0  0  0  0  0  0  0  0  0  0
   38.7852   33.3089   39.6703 H   0  0  0  0  0  0  0  0  0  0  0  0
   42.1494   32.9396   42.0120 H   0  0  0  0  0  0  0  0  0  0  0  0
  1  2  2  0
  1  6  1  0
  2  3  1  0
  3  4  2  0
  3  8  1  0
  5  4  1  0
  6  5  2  0
  7 15  2  0
  8  7  1  0
  9  8  2  0
  9 10  1  0
 10 14  2  0
 11 10  1  0
 11 12  1  0
 12 13  2  0
 14 13  1  0
 14 15  1  0
 16  1  1  0
 17 16  1  0
 18 17  2  0
 19 20  1  0
 19 18  1  0
 20 21  2  0
 21 17  1  0
 22 28  1  0
 23 22  2  0
 23 20  1  0
 24 23  1  0
 25 26  1  0
 25 24  2  0
 26 27  2  0
 27 22  1  0
 28 30  2  0
 29 28  2  0
  2 31  1  0
  5 32  1  0
  7 33  1  0
  9 34  1  0
 11 35  1  0
 12 36  1  0
 15 37  1  0
 18 38  1  0
 24 39  1  0
 25 40  1  0
 26 41  1  0
 27 42  1  0
 28 43  1  0
M  ISO  8  31  14  32  14  33  14  34  14  35   9  36  14  37  14  38  14
M  ISO  5  39  14  40  14  41  14  42  14  43  11
M  END
>  <minimizedAffinity>  (1) 
-7.14637423

>  <minimizedRMSD>  (1) 
1.89194775

$$$$
