
     RDKit          3D

 34 36  0  0  0  0  0  0  0  0999 V2000
   41.9930   30.0100   39.9550 C   0  0  0  0  0  0  0  0  0  0  0  0
   42.8630   29.9200   38.8570 C   0  0  0  0  0  0  0  0  0  0  0  0
   43.2020   31.1030   38.1810 C   0  0  0  0  0  0  0  0  0  0  0  0
   42.6700   32.2780   38.6220 N   0  0  0  0  0  0  0  0  0  0  0  0
   41.8360   32.3170   39.6840 C   0  0  0  0  0  0  0  0  0  0  0  0
   41.4860   31.2060   40.3580 N   0  0  0  0  0  0  0  0  0  0  0  0
   42.0100   34.4970   40.8920 C   0  0  0  0  0  0  0  0  0  0  0  0
   41.3280   33.6310   40.0640 C   0  0  0  0  0  0  0  0  0  0  0  0
   40.1030   34.0390   39.5760 C   0  0  0  0  0  0  0  0  0  0  0  0
   39.5410   35.2710   39.8850 C   0  0  0  0  0  0  0  0  0  0  0  0
   40.2090   36.1500   40.7110 C   0  0  0  0  0  0  0  0  0  0  0  0
   41.4220   35.7220   41.1800 C   0  0  0  0  0  0  0  0  0  0  0  0
   43.5660   34.0330   41.5380 S   0  0  0  0  0  0  0  0  0  0  0  0
   43.8820   35.0020   42.6690 O   0  0  0  0  0  0  0  0  0  0  0  0
   44.6640   34.2790   40.5120 O   0  0  0  0  0  0  0  0  0  0  0  0
   41.6060   28.4620   40.7690 S   0  0  0  0  0  0  0  0  0  0  0  0
   43.9990   27.8750   42.8090 Cl  0  0  0  0  0  0  0  0  0  0  0  0
   42.4370   28.3860   43.4600 C   0  0  0  0  0  0  0  0  0  0  0  0
   41.4780   28.6090   42.5180 C   0  0  0  0  0  0  0  0  0  0  0  0
   40.2240   29.0100   42.9660 C   0  0  0  0  0  0  0  0  0  0  0  0
   39.9950   29.1660   44.3350 C   0  0  0  0  0  0  0  0  0  0  0  0
   40.9780   28.9350   45.2910 C   0  0  0  0  0  0  0  0  0  0  0  0
   42.2170   28.5370   44.8120 C   0  0  0  0  0  0  0  0  0  0  0  0
   43.5560   28.2160   45.9040 Cl  0  0  0  0  0  0  0  0  0  0  0  0
   43.2680   28.9493   38.5350 H   0  0  0  0  0  0  0  0  0  0  0  0
   43.8810   31.0821   37.3158 H   0  0  0  0  0  0  0  0  0  0  0  0
   39.5476   33.3588   38.9135 H   0  0  0  0  0  0  0  0  0  0  0  0
   38.5603   35.5462   39.4696 H   0  0  0  0  0  0  0  0  0  0  0  0
   39.7935   37.1333   40.9765 H   0  0  0  0  0  0  0  0  0  0  0  0
   41.9771   36.4051   41.8398 H   0  0  0  0  0  0  0  0  0  0  0  0
   43.5187   32.7154   41.9104 H   0  0  0  0  0  0  0  0  0  0  0  0
   39.4159   29.2035   42.2453 H   0  0  0  0  0  0  0  0  0  0  0  0
   38.9969   29.4844   44.6704 H   0  0  0  0  0  0  0  0  0  0  0  0
   40.7838   29.0609   46.3664 H   0  0  0  0  0  0  0  0  0  0  0  0
  1  6  1  0
  1 16  1  0
  2  1  2  0
  3  4  2  0
  3  2  1  0
  4  5  1  0
  5  8  1  0
  5  6  2  0
  7 12  2  0
  7 13  1  0
  8  7  1  0
  9 10  1  0
  9  8  2  0
 10 11  2  0
 11 12  1  0
 13 14  2  0
 15 13  2  0
 16 19  1  0
 17 18  1  0
 18 23  2  0
 19 20  2  0
 19 18  1  0
 20 21  1  0
 21 22  2  0
 23 22  1  0
 23 24  1  0
  2 25  1  0
  3 26  1  0
  9 27  1  0
 10 28  1  0
 11 29  1  0
 12 30  1  0
 13 31  1  0
 20 32  1  0
 21 33  1  0
 22 34  1  0
M  ISO  8  25  14  26  14  27  14  28  14  29  14  30  14  31  11  32  14
M  ISO  2  33  14  34  14
M  END
>  <minimizedAffinity>  (1) 
-4.54678965

>  <minimizedRMSD>  (1) 
6.94373417

$$$$
