
     RDKit          3D

 53 57  0  0  0  0  0  0  0  0999 V2000
   46.0720   32.2980   46.1200 C   0  0  0  0  0  0  0  0  0  0  0  0
   45.8610   32.9490   47.3310 C   0  0  0  0  0  0  0  0  0  0  0  0
   46.1250   32.3540   48.5710 C   0  0  0  0  0  0  0  0  0  0  0  0
   46.6130   31.0780   48.6410 C   0  0  0  0  0  0  0  0  0  0  0  0
   46.8280   30.3940   47.4300 C   0  0  0  0  0  0  0  0  0  0  0  0
   47.2550   29.1100   47.5400 C   0  0  0  0  0  0  0  0  0  0  0  0
   47.4010   28.3760   46.3570 C   0  0  0  0  0  0  0  0  0  0  0  0
   47.0850   29.0150   45.1080 C   0  0  0  0  0  0  0  0  0  0  0  0
   46.6620   30.3230   45.1670 C   0  0  0  0  0  0  0  0  0  0  0  0
   46.5250   31.0750   46.2490 C   0  0  0  0  0  0  0  0  0  0  0  0
   44.7690   29.8490   43.8840 C   0  0  0  0  0  0  0  0  0  0  0  0
   46.1490   30.2830   43.8100 C   0  0  0  0  0  0  0  0  0  0  0  0
   46.5530   30.3710   42.5440 C   0  0  0  0  0  0  0  0  0  0  0  0
   45.7760   30.0870   41.4320 C   0  0  0  0  0  0  0  0  0  0  0  0
   44.4700   29.6750   41.5370 C   0  0  0  0  0  0  0  0  0  0  0  0
   43.9560   29.5520   42.8040 C   0  0  0  0  0  0  0  0  0  0  0  0
   44.0100   29.6530   45.0660 O   0  0  0  0  0  0  0  0  0  0  0  0
   42.6710   29.1200   42.8380 O   0  0  0  0  0  0  0  0  0  0  0  0
   40.6060   29.1070   43.2510 C   0  0  0  0  0  0  0  0  0  0  0  0
   41.5820   29.3210   42.2330 C   0  0  0  0  0  0  0  0  0  0  0  0
   41.0070   29.6480   41.0460 C   0  0  0  0  0  0  0  0  0  0  0  0
   39.6970   29.8010   40.6670 C   0  0  0  0  0  0  0  0  0  0  0  0
   38.8120   29.5810   41.6940 C   0  0  0  0  0  0  0  0  0  0  0  0
   39.2300   29.2430   42.9540 C   0  0  0  0  0  0  0  0  0  0  0  0
   40.9530   28.6650   44.9340 S   0  0  0  0  0  0  0  0  0  0  0  0
   39.8550   29.2160   45.7790 O   0  0  0  0  0  0  0  0  0  0  0  0
   40.9200   27.1770   45.1000 O   0  0  0  0  0  0  0  0  0  0  0  0
   45.2650   34.1740   42.9960 C   0  0  0  0  0  0  0  0  0  0  0  0
   46.5660   34.5660   42.6050 C   0  0  0  0  0  0  0  0  0  0  0  0
   47.6000   34.1410   43.4130 C   0  0  0  0  0  0  0  0  0  0  0  0
   47.2370   33.4130   44.4690 N   0  0  0  0  0  0  0  0  0  0  0  0
   46.0300   33.0300   44.8650 C   0  0  0  0  0  0  0  0  0  0  0  0
   45.0670   33.4350   44.0900 N   0  0  0  0  0  0  0  0  0  0  0  0
   48.9580   34.4000   43.1090 N   0  0  0  0  0  0  0  0  0  0  0  0
   45.4694   33.9768   47.3140 H   0  0  0  0  0  0  0  0  0  0  0  0
   45.9383   32.9178   49.4969 H   0  0  0  0  0  0  0  0  0  0  0  0
   46.8297   30.6034   49.6094 H   0  0  0  0  0  0  0  0  0  0  0  0
   47.4776   28.6638   48.5205 H   0  0  0  0  0  0  0  0  0  0  0  0
   47.7499   27.3331   46.3822 H   0  0  0  0  0  0  0  0  0  0  0  0
   47.1772   28.4827   44.1498 H   0  0  0  0  0  0  0  0  0  0  0  0
   47.5888   30.6959   42.3662 H   0  0  0  0  0  0  0  0  0  0  0  0
   46.2203   30.1952   40.4316 H   0  0  0  0  0  0  0  0  0  0  0  0
   43.8635   29.4537   40.6464 H   0  0  0  0  0  0  0  0  0  0  0  0
   43.0686   29.3528   45.0056 H   0  0  0  0  0  0  0  0  0  0  0  0
   41.7288   29.8234   40.2347 H   0  0  0  0  0  0  0  0  0  0  0  0
   39.3878   30.0717   39.6466 H   0  0  0  0  0  0  0  0  0  0  0  0
   37.7340   29.6793   41.4987 H   0  0  0  0  0  0  0  0  0  0  0  0
   38.4851   29.0750   43.7457 H   0  0  0  0  0  0  0  0  0  0  0  0
   42.1857   29.1495   45.2841 H   0  0  0  0  0  0  0  0  0  0  0  0
   44.4016   34.4831   42.3886 H   0  0  0  0  0  0  0  0  0  0  0  0
   46.7436   35.1757   41.7068 H   0  0  0  0  0  0  0  0  0  0  0  0
   49.7000   34.0645   43.7397 H   0  0  0  0  0  0  0  0  0  0  0  0
   49.2042   34.9239   42.2571 H   0  0  0  0  0  0  0  0  0  0  0  0
  1 10  1  0
  1  2  2  0
  2  3  1  0
  3  4  2  0
  5  6  2  0
  5  4  1  0
  7  6  1  0
  8  9  1  0
  8  7  2  0
  9 10  2  0
 10  5  1  0
 11 17  1  0
 12 11  2  0
 12  9  1  0
 13 12  1  0
 14 15  1  0
 14 13  2  0
 15 16  2  0
 16 18  1  0
 16 11  1  0
 19 25  1  0
 20 18  1  0
 20 19  2  0
 21 20  1  0
 22 21  2  0
 22 23  1  0
 23 24  2  0
 24 19  1  0
 25 27  2  0
 25 26  2  0
 28 33  2  0
 29 28  1  0
 29 30  2  0
 30 31  1  0
 31 32  2  0
 32  1  1  0
 33 32  1  0
 34 30  1  0
  2 35  1  0
  3 36  1  0
  4 37  1  0
  6 38  1  0
  7 39  1  0
  8 40  1  0
 13 41  1  0
 14 42  1  0
 15 43  1  0
 17 44  1  0
 21 45  1  0
 22 46  1  0
 23 47  1  0
 24 48  1  0
 25 49  1  0
 28 50  1  0
 29 51  1  0
 34 52  1  0
 34 53  1  0
M  ISO  8  35  14  36  14  37  14  38  14  39  14  40  14  41  14  42  14
M  ISO  8  43  14  44   3  45  14  46  14  47  14  48  14  49  11  50  14
M  ISO  1  51  14
M  END
>  <minimizedAffinity>  (1) 
-5.78857183

>  <minimizedRMSD>  (1) 
0.891684175

$$$$
