
     RDKit          3D

 36 39  0  0  0  0  0  0  0  0999 V2000
   47.2166   31.3538   45.0774 C   0  0  0  0  0  0  0  0  0  0  0  0
   46.8736   32.6803   45.0874 C   0  0  0  0  0  0  0  0  0  0  0  0
   46.2694   33.3187   46.1766 C   0  0  0  0  0  0  0  0  0  0  0  0
   45.9983   32.5616   47.3251 C   0  0  0  0  0  0  0  0  0  0  0  0
   45.4458   32.8153   48.5357 N   0  0  0  0  0  0  0  0  0  0  0  0
   45.4451   31.6641   49.2665 C   0  0  0  0  0  0  0  0  0  0  0  0
   46.0058   30.7107   48.4793 N   0  0  0  0  0  0  0  0  0  0  0  0
   46.3494   31.2354   47.2946 C   0  0  0  0  0  0  0  0  0  0  0  0
   46.9451   30.5984   46.2245 C   0  0  0  0  0  0  0  0  0  0  0  0
   46.5325   35.2050   42.4146 C   0  0  0  0  0  0  0  0  0  0  0  0
   47.7306   35.0683   41.7164 C   0  0  0  0  0  0  0  0  0  0  0  0
   48.6492   34.1111   42.1637 C   0  0  0  0  0  0  0  0  0  0  0  0
   48.3129   33.3677   43.2613 N   0  0  0  0  0  0  0  0  0  0  0  0
   47.1361   33.5280   43.9173 C   0  0  0  0  0  0  0  0  0  0  0  0
   46.2547   34.4336   43.5026 N   0  0  0  0  0  0  0  0  0  0  0  0
   47.6850   30.9333   44.1857 H   0  0  0  0  0  0  0  0  0  0  0  0
   45.0897   33.7500   48.8282 H   0  0  0  0  0  0  0  0  0  0  0  0
   45.0617   31.5779   50.2722 H   0  0  0  0  0  0  0  0  0  0  0  0
   47.2104   29.5450   46.2336 H   0  0  0  0  0  0  0  0  0  0  0  0
   45.8375   35.9505   42.0516 H   0  0  0  0  0  0  0  0  0  0  0  0
   48.0137   35.6389   40.8564 H   0  0  0  0  0  0  0  0  0  0  0  0
   49.6167   33.9028   41.7121 H   0  0  0  0  0  0  0  0  0  0  0  0
   49.2126   35.4785   47.2171 H   0  0  0  0  0  0  0  0  0  0  0  0
   48.0108   35.1902   47.8548 S   0  0  0  0  0  0  0  0  0  0  0  0
   47.9806   33.7906   48.3540 O   0  0  0  0  0  0  0  0  0  0  0  0
   47.9942   36.0990   49.0634 O   0  0  0  0  0  0  0  0  0  0  0  0
   46.6542   35.6222   46.8615 C   0  0  0  0  0  0  0  0  0  0  0  0
   45.9266   34.7116   46.1393 C   0  0  0  0  0  0  0  0  0  0  0  0
   44.8573   35.1556   45.3760 C   0  0  0  0  0  0  0  0  0  0  0  0
   44.3028   34.4111   44.8167 H   0  0  0  0  0  0  0  0  0  0  0  0
   44.4860   36.4818   45.3071 C   0  0  0  0  0  0  0  0  0  0  0  0
   43.6297   36.7933   44.6886 H   0  0  0  0  0  0  0  0  0  0  0  0
   45.2076   37.4151   46.0285 C   0  0  0  0  0  0  0  0  0  0  0  0
   46.2756   36.9664   46.7899 C   0  0  0  0  0  0  0  0  0  0  0  0
   44.9540   38.4541   46.0044 H   0  0  0  0  0  0  0  0  0  0  0  0
   46.8350   37.6938   47.3496 H   0  0  0  0  0  0  0  0  0  0  0  0
  1  2  2  0
  1  9  1  0
  2  3  1  0
  3  4  2  0
  4  5  1  0
  5  6  1  0
  7  6  2  0
  8  4  1  0
  8  7  1  0
  9  8  2  0
 10 15  2  0
 11 12  2  0
 11 10  1  0
 12 13  1  0
 13 14  2  0
 14  2  1  0
 15 14  1  0
  1 16  1  0
  5 17  1  0
  6 18  1  0
  9 19  1  0
 10 20  1  0
 11 21  1  0
 12 22  1  0
 23 24  1  0
 24 25  2  0
 24 26  2  0
 24 27  1  0
 27 28  2  0
 28 29  1  0
 29 30  1  0
 29 31  2  0
 31 32  1  0
 31 33  1  0
 33 34  2  0
 34 27  1  0
 33 35  1  0
 34 36  1  0
  3 28  1  0
M  ISO  8  16  14  17   9  18  14  19  14  20  14  21  14  22  14  23  12
M  ISO  2  30  15  32  16
M  END
>  <DihAtoms>  (1) 
1,2,27,26

>  <DihDeg>  (1) 
117.67918199245868

$$$$
