
     RDKit          3D

 54 58  0  0  0  0  0  0  0  0999 V2000
   45.7631   33.1378   46.2348 C   0  0  0  0  0  0  0  0  0  0  0  0
   45.9301   31.9503   45.8313 C   0  0  0  0  0  0  0  0  0  0  0  0
   44.5303   36.1388   44.4839 C   0  0  0  0  0  0  0  0  0  0  0  0
   45.2044   36.0916   43.2704 C   0  0  0  0  0  0  0  0  0  0  0  0
   46.0460   35.0492   43.0946 C   0  0  0  0  0  0  0  0  0  0  0  0
   46.2077   34.1072   44.0708 N   0  0  0  0  0  0  0  0  0  0  0  0
   45.5351   34.1867   45.2375 C   0  0  0  0  0  0  0  0  0  0  0  0
   44.7104   35.2049   45.4139 N   0  0  0  0  0  0  0  0  0  0  0  0
   46.8212   34.8638   41.8726 C   0  0  0  0  0  0  0  0  0  0  0  0
   48.0465   35.4099   41.6284 C   0  0  0  0  0  0  0  0  0  0  0  0
   48.7684   35.2253   40.4673 C   0  0  0  0  0  0  0  0  0  0  0  0
   48.2471   34.4387   39.4576 C   0  0  0  0  0  0  0  0  0  0  0  0
   47.0184   33.8605   39.6409 C   0  0  0  0  0  0  0  0  0  0  0  0
   46.3437   34.0825   40.8258 C   0  0  0  0  0  0  0  0  0  0  0  0
   46.0755   30.9030   46.9127 C   0  0  0  0  0  0  0  0  0  0  0  0
   45.9022   31.5078   48.2621 C   0  0  1  0  0  0  0  0  0  0  0  0
   45.7079   30.5122   49.3580 C   0  0  0  0  0  0  0  0  0  0  0  0
   46.9206   31.3260   49.3070 C   0  0  1  0  0  0  0  0  0  0  0  0
   48.2438   30.7770   48.9014 C   0  0  2  0  0  0  0  0  0  0  0  0
   49.1939   30.4121   50.0590 C   0  0  0  0  0  0  0  0  0  0  0  0
   49.4805   31.6025   49.2300 C   0  0  2  0  0  0  0  0  0  0  0  0
   45.7632   33.6148   47.2025 H   0  0  0  0  0  0  0  0  0  0  0  0
   45.9299   31.6053   44.8088 H   0  0  0  0  0  0  0  0  0  0  0  0
   43.8460   36.9575   44.6662 H   0  0  0  0  0  0  0  0  0  0  0  0
   45.1018   36.8077   42.4901 H   0  0  0  0  0  0  0  0  0  0  0  0
   48.4934   36.0422   42.4096 H   0  0  0  0  0  0  0  0  0  0  0  0
   49.7276   35.6640   40.2987 H   0  0  0  0  0  0  0  0  0  0  0  0
   48.7506   34.2464   38.5199 H   0  0  0  0  0  0  0  0  0  0  0  0
   46.5855   33.2394   38.8669 H   0  0  0  0  0  0  0  0  0  0  0  0
   45.3714   33.5938   40.9084 H   0  0  0  0  0  0  0  0  0  0  0  0
   46.8933   30.2389   46.7331 H   0  0  0  0  0  0  0  0  0  0  0  0
   45.1449   30.2760   46.7538 H   0  0  0  0  0  0  0  0  0  0  0  0
   45.0801   32.2778   48.3132 H   0  0  0  0  0  0  0  0  0  0  0  0
   44.9715   30.6635   50.1715 H   0  0  0  0  0  0  0  0  0  0  0  0
   45.8478   29.4230   49.1459 H   0  0  0  0  0  0  0  0  0  0  0  0
   46.9828   32.1341   50.0673 H   0  0  0  0  0  0  0  0  0  0  0  0
   48.4102   30.1079   48.0574 H   0  0  0  0  0  0  0  0  0  0  0  0
   48.7596   30.4997   51.0830 H   0  0  0  0  0  0  0  0  0  0  0  0
   49.8797   29.5748   49.9723 H   0  0  0  0  0  0  0  0  0  0  0  0
   50.3474   31.5896   48.5396 H   0  0  0  0  0  0  0  0  0  0  0  0
   50.3576   30.3866   51.4023 H   0  0  0  0  0  0  0  0  0  0  0  0
   49.5901   31.2201   52.1478 S   0  0  0  0  0  0  0  0  0  0  0  0
   50.1167   31.4938   53.5142 O   0  0  0  0  0  0  0  0  0  0  0  0
   48.2522   30.5242   52.3482 O   0  0  0  0  0  0  0  0  0  0  0  0
   49.3408   32.7523   51.3412 C   0  0  0  0  0  0  0  0  0  0  0  0
   49.2952   32.8914   49.9486 C   0  0  0  0  0  0  0  0  0  0  0  0
   49.0922   34.1541   49.4275 C   0  0  0  0  0  0  0  0  0  0  0  0
   49.0705   34.1719   48.3465 H   0  0  0  0  0  0  0  0  0  0  0  0
   48.9391   35.2415   50.2283 C   0  0  0  0  0  0  0  0  0  0  0  0
   48.7808   36.2171   49.7462 H   0  0  0  0  0  0  0  0  0  0  0  0
   48.9725   35.1782   51.5897 C   0  0  0  0  0  0  0  0  0  0  0  0
   49.1764   33.9094   52.1111 C   0  0  0  0  0  0  0  0  0  0  0  0
   48.8556   36.0137   52.2512 H   0  0  0  0  0  0  0  0  0  0  0  0
   49.2126   33.7960   53.1918 H   0  0  0  0  0  0  0  0  0  0  0  0
  2  1  2  0
  2 15  1  0
  3  8  2  0
  4  3  1  0
  5  4  2  0
  5  6  1  0
  6  7  2  0
  7  8  1  0
  7  1  1  0
  9  5  1  0
 10  9  2  0
 11 10  1  0
 12 13  1  0
 12 11  2  0
 13 14  2  0
 14  9  1  0
 15 16  1  0
 16 18  1  0
 16 17  1  0
 18 17  1  0
 19 21  1  0
 19 18  1  0
 19 20  1  0
 21 20  1  0
  1 22  1  0
  2 23  1  0
  3 24  1  0
  4 25  1  0
 10 26  1  0
 11 27  1  0
 12 28  1  0
 13 29  1  0
 14 30  1  0
 15 31  1  0
 15 32  1  0
 16 33  1  6
 17 34  1  0
 17 35  1  0
 18 36  1  1
 19 37  1  6
 20 38  1  0
 20 39  1  0
 21 40  1  6
 41 42  1  0
 42 43  2  0
 42 44  2  0
 42 45  1  0
 45 46  2  0
 46 47  1  0
 47 48  1  0
 47 49  2  0
 49 50  1  0
 49 51  1  0
 51 52  2  0
 52 45  1  0
 51 53  1  0
 52 54  1  0
 21 46  1  0
M  ISO  8  24  14  25  14  26  14  27  14  28  14  29  14  30  14  31   8
M  ISO  8  32   8  33  13  34  13  35  13  36  13  37  13  38  13  39  13
M  ISO  4  40  13  41  12  48  15  50  16
M  END
>  <DihAtoms>  (1) 
18,20,45,44

>  <DihDeg>  (1) 
-89.81652789472427

$$$$
