
     RDKit          3D

 26 27  0  0  0  0  0  0  0  0999 V2000
   47.5650   34.9370   42.1940 C   0  0  0  0  0  0  0  0  0  0  0  0
   47.7780   34.0880   43.2850 C   0  0  0  0  0  0  0  0  0  0  0  0
   46.6910   33.6250   44.0200 C   0  0  0  0  0  0  0  0  0  0  0  0
   45.4670   34.0370   43.6230 N   0  0  0  0  0  0  0  0  0  0  0  0
   45.2610   34.8610   42.5640 C   0  0  0  0  0  0  0  0  0  0  0  0
   46.3110   35.3090   41.8520 N   0  0  0  0  0  0  0  0  0  0  0  0
   47.1650   31.4050   44.9370 C   0  0  0  0  0  0  0  0  0  0  0  0
   46.8440   32.7400   45.1660 C   0  0  0  0  0  0  0  0  0  0  0  0
   46.6810   33.1830   46.4630 C   0  0  0  0  0  0  0  0  0  0  0  0
   46.8230   32.3550   47.5670 C   0  0  0  0  0  0  0  0  0  0  0  0
   47.1400   31.0280   47.3840 C   0  0  0  0  0  0  0  0  0  0  0  0
   47.2960   30.6130   46.0820 C   0  0  0  0  0  0  0  0  0  0  0  0
   47.3940   30.7300   43.3450 S   0  0  0  0  0  0  0  0  0  0  0  0
   46.9370   29.2780   43.4110 O   0  0  0  0  0  0  0  0  0  0  0  0
   48.8490   30.6790   42.9470 O   0  0  0  0  0  0  0  0  0  0  0  0
   48.7640   35.4010   41.4450 C   0  0  0  0  0  0  0  0  0  0  0  0
   48.5630   35.3890   40.0880 F   0  0  0  0  0  0  0  0  0  0  0  0
   49.0940   36.6770   41.9120 F   0  0  0  0  0  0  0  0  0  0  0  0
   49.8540   34.6060   41.7780 F   0  0  0  0  0  0  0  0  0  0  0  0
   48.7997   33.7878   43.5606 H   0  0  0  0  0  0  0  0  0  0  0  0
   44.2392   35.1614   42.2890 H   0  0  0  0  0  0  0  0  0  0  0  0
   46.4270   34.2404   46.6288 H   0  0  0  0  0  0  0  0  0  0  0  0
   46.6832   32.7561   48.5817 H   0  0  0  0  0  0  0  0  0  0  0  0
   47.2618   30.3379   48.2319 H   0  0  0  0  0  0  0  0  0  0  0  0
   47.5487   29.5538   45.9261 H   0  0  0  0  0  0  0  0  0  0  0  0
   46.7052   31.5054   42.4499 H   0  0  0  0  0  0  0  0  0  0  0  0
  1  2  2  0
  2  3  1  0
  3  8  1  0
  4  3  2  0
  5  4  1  0
  6  1  1  0
  6  5  2  0
  7  8  2  0
  7 12  1  0
  8  9  1  0
  9 10  2  0
 11 10  1  0
 12 11  2  0
 13 14  2  0
 13  7  1  0
 15 13  2  0
 16 19  1  0
 16 18  1  0
 16  1  1  0
 17 16  1  0
  2 20  1  0
  5 21  1  0
  9 22  1  0
 10 23  1  0
 11 24  1  0
 12 25  1  0
 13 26  1  0
M  ISO  7  20  14  21  14  22  14  23  14  24  14  25  14  26  11
M  END
>  <minimizedAffinity>  (1) 
-5.0034833

>  <minimizedRMSD>  (1) 
0.581966579

$$$$
