
     RDKit          3D

 29 30  0  0  0  0  0  0  0  0999 V2000
   45.1907   35.2189   44.0477 C   0  0  0  0  0  0  0  0  0  0  0  0
   46.2292   34.5797   43.3756 C   0  0  0  0  0  0  0  0  0  0  0  0
   46.9087   33.5663   44.0518 C   0  0  0  0  0  0  0  0  0  0  0  0
   46.5120   33.2670   45.3269 N   0  0  0  0  0  0  0  0  0  0  0  0
   45.5037   33.9044   45.9475 C   0  0  0  0  0  0  0  0  0  0  0  0
   44.8439   34.8806   45.3061 N   0  0  0  0  0  0  0  0  0  0  0  0
   46.5556   34.9777   42.0293 C   0  0  0  0  0  0  0  0  0  0  0  0
   48.0523   35.1914   41.9212 C   0  0  0  0  0  0  0  0  0  0  0  0
   44.5895   36.0296   43.6110 H   0  0  0  0  0  0  0  0  0  0  0  0
   47.7229   33.0322   43.5852 H   0  0  0  0  0  0  0  0  0  0  0  0
   46.0423   35.9113   41.7512 H   0  0  0  0  0  0  0  0  0  0  0  0
   46.3094   34.1373   41.3300 H   0  0  0  0  0  0  0  0  0  0  0  0
   48.6366   34.5330   42.5607 H   0  0  0  0  0  0  0  0  0  0  0  0
   48.2355   36.2746   42.1222 H   0  0  0  0  0  0  0  0  0  0  0  0
   48.3052   35.0552   40.8296 H   0  0  0  0  0  0  0  0  0  0  0  0
   47.4279   31.4994   46.2265 H   0  0  0  0  0  0  0  0  0  0  0  0
   47.5733   32.1901   47.3972 S   0  0  0  0  0  0  0  0  0  0  0  0
   48.5188   33.3567   47.2408 O   0  0  0  0  0  0  0  0  0  0  0  0
   48.1981   31.2153   48.3833 O   0  0  0  0  0  0  0  0  0  0  0  0
   46.0416   32.7113   48.0615 C   0  0  0  0  0  0  0  0  0  0  0  0
   45.1784   33.4896   47.3099 C   0  0  0  0  0  0  0  0  0  0  0  0
   43.9697   33.9017   47.8324 C   0  0  0  0  0  0  0  0  0  0  0  0
   43.2393   34.5199   47.2899 H   0  0  0  0  0  0  0  0  0  0  0  0
   43.5633   33.5590   49.1263 C   0  0  0  0  0  0  0  0  0  0  0  0
   42.6205   33.8712   49.5553 H   0  0  0  0  0  0  0  0  0  0  0  0
   44.4440   32.7836   49.8497 C   0  0  0  0  0  0  0  0  0  0  0  0
   45.6593   32.3547   49.3584 C   0  0  0  0  0  0  0  0  0  0  0  0
   44.2054   32.4819   50.8432 H   0  0  0  0  0  0  0  0  0  0  0  0
   46.3396   31.7454   49.9413 H   0  0  0  0  0  0  0  0  0  0  0  0
  1  6  2  0
  2  1  1  0
  2  3  2  0
  3  4  1  0
  4  5  2  0
  6  5  1  0
  7  2  1  0
  8  7  1  0
  1  9  1  0
  3 10  1  0
  7 11  1  0
  7 12  1  0
  8 13  1  0
  8 14  1  0
  8 15  1  0
 16 17  1  0
 17 18  2  0
 17 19  2  0
 17 20  1  0
 20 21  2  0
 21 22  1  0
 22 23  1  0
 22 24  2  0
 24 25  1  0
 24 26  1  0
 26 27  2  0
 27 20  1  0
 26 28  1  0
 27 29  1  0
  5 21  1  0
M  ISO  8   9  14  10  14  11   8  12   8  13   8  14   8  15   8  16  12
M  ISO  2  23  15  25  16
M  END
>  <DihAtoms>  (1) 
3,4,20,19

>  <DihDeg>  (1) 
179.99815642107492

$$$$
