
     RDKit          3D

 30 32  0  0  0  0  0  0  0  0999 V2000
   46.0100   33.8190   43.6500 C   0  0  0  0  0  0  0  0  0  0  0  0
   45.6970   33.9070   42.2660 C   0  0  0  0  0  0  0  0  0  0  0  0
   46.7960   33.8930   41.4070 C   0  0  0  0  0  0  0  0  0  0  0  0
   48.0840   33.7990   41.8940 N   0  0  0  0  0  0  0  0  0  0  0  0
   48.3170   33.7170   43.2180 C   0  0  0  0  0  0  0  0  0  0  0  0
   47.2740   33.7280   44.0930 N   0  0  0  0  0  0  0  0  0  0  0  0
   46.5040   33.8970   39.9230 C   0  0  0  0  0  0  0  0  0  0  0  0
   47.7990   33.9840   39.1110 C   0  0  0  0  0  0  0  0  0  0  0  0
   46.8900   32.7180   39.1770 C   0  0  0  0  0  0  0  0  0  0  0  0
   43.5150   32.9730   41.4420 C   0  0  0  0  0  0  0  0  0  0  0  0
   44.3320   34.0070   41.7680 C   0  0  0  0  0  0  0  0  0  0  0  0
   43.8730   35.3200   41.6330 C   0  0  0  0  0  0  0  0  0  0  0  0
   42.5800   35.5570   41.1660 C   0  0  0  0  0  0  0  0  0  0  0  0
   41.7990   34.4480   40.8510 C   0  0  0  0  0  0  0  0  0  0  0  0
   42.2410   33.1500   40.9800 C   0  0  0  0  0  0  0  0  0  0  0  0
   44.1330   31.3640   41.6270 S   0  0  0  0  0  0  0  0  0  0  0  0
   43.5350   30.3980   40.6420 O   0  0  0  0  0  0  0  0  0  0  0  0
   43.9880   30.8060   42.9900 O   0  0  0  0  0  0  0  0  0  0  0  0
   45.1892   33.8257   44.3822 H   0  0  0  0  0  0  0  0  0  0  0  0
   49.3487   33.6412   43.5919 H   0  0  0  0  0  0  0  0  0  0  0  0
   45.5543   34.4500   39.9699 H   0  0  0  0  0  0  0  0  0  0  0  0
   48.7770   33.9995   39.6143 H   0  0  0  0  0  0  0  0  0  0  0  0
   48.2103   34.6352   38.3257 H   0  0  0  0  0  0  0  0  0  0  0  0
   46.3089   32.4151   38.2935 H   0  0  0  0  0  0  0  0  0  0  0  0
   47.0559   31.6617   39.4352 H   0  0  0  0  0  0  0  0  0  0  0  0
   44.5289   36.1636   41.8940 H   0  0  0  0  0  0  0  0  0  0  0  0
   42.1925   36.5801   41.0511 H   0  0  0  0  0  0  0  0  0  0  0  0
   40.7772   34.6172   40.4804 H   0  0  0  0  0  0  0  0  0  0  0  0
   41.5982   32.2951   40.7230 H   0  0  0  0  0  0  0  0  0  0  0  0
   45.4723   31.5075   41.3768 H   0  0  0  0  0  0  0  0  0  0  0  0
  1  6  2  0
  2  1  1  0
  3  4  1  0
  3  2  2  0
  4  5  2  0
  5  6  1  0
  7  3  1  0
  8  9  1  0
  8  7  1  0
  9  7  1  0
 10 16  1  0
 10 11  2  0
 11  2  1  0
 12 11  1  0
 13 12  2  0
 14 15  2  0
 14 13  1  0
 15 10  1  0
 16 18  2  0
 17 16  2  0
  1 19  1  0
  5 20  1  0
  7 21  1  0
  8 22  1  0
  8 23  1  0
  9 24  1  0
  9 25  1  0
 12 26  1  0
 13 27  1  0
 14 28  1  0
 15 29  1  0
 16 30  1  0
M  ISO  8  19  14  20  14  21  13  22  13  23  13  24  13  25  13  26  14
M  ISO  4  27  14  28  14  29  14  30  11
M  END
>  <minimizedAffinity>  (1) 
-3.6044631

>  <minimizedRMSD>  (1) 
3.52526689

$$$$
