
     RDKit          3D

 29 30  0  0  0  0  0  0  0  0999 V2000
   44.7980   32.9760   42.9030 C   0  0  0  0  0  0  0  0  0  0  0  0
   45.8440   33.8950   42.8740 C   0  0  0  0  0  0  0  0  0  0  0  0
   45.6650   35.0540   42.1180 C   0  0  0  0  0  0  0  0  0  0  0  0
   44.4770   35.2120   41.4570 N   0  0  0  0  0  0  0  0  0  0  0  0
   43.4870   34.3050   41.5060 C   0  0  0  0  0  0  0  0  0  0  0  0
   43.6490   33.1860   42.2300 N   0  0  0  0  0  0  0  0  0  0  0  0
   41.9840   33.9610   39.5550 C   0  0  0  0  0  0  0  0  0  0  0  0
   42.2670   34.5920   40.7540 C   0  0  0  0  0  0  0  0  0  0  0  0
   41.3960   35.5230   41.2800 C   0  0  0  0  0  0  0  0  0  0  0  0
   40.2030   35.8710   40.6380 C   0  0  0  0  0  0  0  0  0  0  0  0
   39.9480   35.2250   39.4480 C   0  0  0  0  0  0  0  0  0  0  0  0
   40.7980   34.2900   38.8930 C   0  0  0  0  0  0  0  0  0  0  0  0
   43.0910   32.7800   38.8900 S   0  0  0  0  0  0  0  0  0  0  0  0
   42.3690   31.8210   37.9740 O   0  0  0  0  0  0  0  0  0  0  0  0
   44.1220   33.5280   38.0590 O   0  0  0  0  0  0  0  0  0  0  0  0
   47.0500   33.6230   43.6160 C   0  0  0  0  0  0  0  0  0  0  0  0
   48.2260   34.2650   42.9100 C   0  0  0  0  0  0  0  0  0  0  0  0
   44.9125   32.0535   43.4912 H   0  0  0  0  0  0  0  0  0  0  0  0
   46.4545   35.8174   42.0552 H   0  0  0  0  0  0  0  0  0  0  0  0
   41.6476   36.0074   42.2350 H   0  0  0  0  0  0  0  0  0  0  0  0
   39.5103   36.6153   41.0577 H   0  0  0  0  0  0  0  0  0  0  0  0
   39.0183   35.4672   38.9123 H   0  0  0  0  0  0  0  0  0  0  0  0
   40.5441   33.8077   37.9375 H   0  0  0  0  0  0  0  0  0  0  0  0
   43.6649   32.0751   39.9150 H   0  0  0  0  0  0  0  0  0  0  0  0
   46.9590   34.0381   44.6306 H   0  0  0  0  0  0  0  0  0  0  0  0
   47.2066   32.5361   43.6801 H   0  0  0  0  0  0  0  0  0  0  0  0
   48.9351   34.6521   43.6566 H   0  0  0  0  0  0  0  0  0  0  0  0
   48.7289   33.5163   42.2803 H   0  0  0  0  0  0  0  0  0  0  0  0
   47.8682   35.0929   42.2803 H   0  0  0  0  0  0  0  0  0  0  0  0
  2  1  2  0
  2 16  1  0
  3  2  1  0
  4  5  1  0
  4  3  2  0
  5  6  2  0
  6  1  1  0
  7  8  2  0
  8  9  1  0
  8  5  1  0
 10  9  2  0
 11 10  1  0
 12 11  2  0
 12  7  1  0
 13  7  1  0
 14 13  2  0
 15 13  2  0
 17 16  1  0
  1 18  1  0
  3 19  1  0
  9 20  1  0
 10 21  1  0
 11 22  1  0
 12 23  1  0
 13 24  1  0
 16 25  1  0
 16 26  1  0
 17 27  1  0
 17 28  1  0
 17 29  1  0
M  ISO  8  18  14  19  14  20  14  21  14  22  14  23  14  24  11  25   8
M  ISO  4  26   8  27   8  28   8  29   8
M  END
>  <minimizedAffinity>  (1) 
-4.384305

>  <minimizedRMSD>  (1) 
7.75797224

$$$$
