
     RDKit          3D

 35 37  0  0  0  0  0  0  0  0999 V2000
   46.4860   34.5740   42.1940 C   0  0  0  0  0  0  0  0  0  0  0  0
   47.6360   35.2820   41.9170 C   0  0  0  0  0  0  0  0  0  0  0  0
   48.3630   35.1190   40.7370 C   0  0  0  0  0  0  0  0  0  0  0  0
   47.9200   34.2050   39.7950 C   0  0  0  0  0  0  0  0  0  0  0  0
   46.7670   33.5010   40.0850 C   0  0  0  0  0  0  0  0  0  0  0  0
   46.0670   33.6770   41.2510 C   0  0  0  0  0  0  0  0  0  0  0  0
   44.4160   36.0950   44.9440 C   0  0  0  0  0  0  0  0  0  0  0  0
   45.0180   35.9410   43.6820 C   0  0  0  0  0  0  0  0  0  0  0  0
   45.8250   34.8290   43.4410 C   0  0  0  0  0  0  0  0  0  0  0  0
   45.9900   33.9410   44.4470 N   0  0  0  0  0  0  0  0  0  0  0  0
   45.3950   34.1170   45.6530 C   0  0  0  0  0  0  0  0  0  0  0  0
   44.6050   35.2010   45.8970 N   0  0  0  0  0  0  0  0  0  0  0  0
   45.5840   33.1630   46.7060 N   0  0  0  0  0  0  0  0  0  0  0  0
   43.5760   33.3260   41.1980 C   0  0  0  0  0  0  0  0  0  0  0  0
   44.8530   32.9090   41.5080 C   0  0  0  0  0  0  0  0  0  0  0  0
   45.0000   31.6720   42.1100 C   0  0  0  0  0  0  0  0  0  0  0  0
   43.8710   30.9030   42.3770 C   0  0  0  0  0  0  0  0  0  0  0  0
   42.6010   31.3420   42.0590 C   0  0  0  0  0  0  0  0  0  0  0  0
   42.4510   32.5810   41.4560 C   0  0  0  0  0  0  0  0  0  0  0  0
   43.3850   34.8900   40.4360 S   0  0  0  0  0  0  0  0  0  0  0  0
   42.5000   35.7810   41.2740 O   0  0  0  0  0  0  0  0  0  0  0  0
   42.8700   34.7570   39.0350 O   0  0  0  0  0  0  0  0  0  0  0  0
   47.9970   36.0085   42.6599 H   0  0  0  0  0  0  0  0  0  0  0  0
   49.2746   35.7078   40.5575 H   0  0  0  0  0  0  0  0  0  0  0  0
   48.4649   34.0459   38.8528 H   0  0  0  0  0  0  0  0  0  0  0  0
   46.3958   32.7703   39.3514 H   0  0  0  0  0  0  0  0  0  0  0  0
   43.7800   36.9710   45.1393 H   0  0  0  0  0  0  0  0  0  0  0  0
   44.8540   36.6899   42.8932 H   0  0  0  0  0  0  0  0  0  0  0  0
   45.1277   33.3058   47.6183 H   0  0  0  0  0  0  0  0  0  0  0  0
   46.1761   32.3347   46.5503 H   0  0  0  0  0  0  0  0  0  0  0  0
   46.0004   31.2995   42.3753 H   0  0  0  0  0  0  0  0  0  0  0  0
   43.9937   29.9194   42.8540 H   0  0  0  0  0  0  0  0  0  0  0  0
   41.7224   30.7184   42.2807 H   0  0  0  0  0  0  0  0  0  0  0  0
   41.4530   32.9594   41.1899 H   0  0  0  0  0  0  0  0  0  0  0  0
   44.6188   35.4796   40.3525 H   0  0  0  0  0  0  0  0  0  0  0  0
  1  9  1  0
  2  1  2  0
  3  2  1  0
  4  5  1  0
  4  3  2  0
  5  6  2  0
  6 15  1  0
  6  1  1  0
  7 12  2  0
  8  7  1  0
  9  8  2  0
  9 10  1  0
 10 11  2  0
 11 12  1  0
 11 13  1  0
 14 19  2  0
 14 15  1  0
 15 16  2  0
 16 17  1  0
 18 17  2  0
 19 18  1  0
 20 14  1  0
 20 21  2  0
 22 20  2  0
  2 23  1  0
  3 24  1  0
  4 25  1  0
  5 26  1  0
  7 27  1  0
  8 28  1  0
 13 29  1  0
 13 30  1  0
 16 31  1  0
 17 32  1  0
 18 33  1  0
 19 34  1  0
 20 35  1  0
M  ISO  8  23  14  24  14  25  14  26  14  27  14  28  14  31  14  32  14
M  ISO  3  33  14  34  14  35  11
M  END
>  <minimizedAffinity>  (1) 
-6.18988276

>  <minimizedRMSD>  (1) 
1.13275146

$$$$
