
     RDKit          3D

 49 52  0  0  0  0  0  0  0  0999 V2000
   41.0193   35.8656   39.3254 C   0  0  0  0  0  0  0  0  0  0  0  0
   43.9081   34.6561   41.4598 C   0  0  0  0  0  0  0  0  0  0  0  0
   42.7690   35.3939   41.0395 C   0  0  0  0  0  0  0  0  0  0  0  0
   42.2146   35.1332   39.8023 C   0  0  0  0  0  0  0  0  0  0  0  0
   42.8305   34.1473   39.0493 N   0  0  0  0  0  0  0  0  0  0  0  0
   43.9185   33.4750   39.5047 C   0  0  0  0  0  0  0  0  0  0  0  0
   44.4489   33.7286   40.6971 N   0  0  0  0  0  0  0  0  0  0  0  0
   44.4997   34.9684   42.7998 C   0  0  0  0  0  0  0  0  0  0  0  0
   46.0278   35.3444   42.6657 C   0  0  0  0  0  0  0  0  0  0  0  0
   44.9897   36.2230   43.2056 C   0  0  0  0  0  0  0  0  0  0  0  0
   39.8514   35.6317   40.2884 C   0  0  0  0  0  0  0  0  0  0  0  0
   39.2395   33.3545   40.8804 C   0  0  0  0  0  0  0  0  0  0  0  0
   39.8061   33.4231   42.0167 O   0  0  0  0  0  0  0  0  0  0  0  0
   39.1229   34.4219   39.9726 N   0  0  0  0  0  0  0  0  0  0  0  0
   38.6396   32.0620   40.4370 C   0  0  0  0  0  0  0  0  0  0  0  0
   38.8082   31.6327   39.1423 C   0  0  0  0  0  0  0  0  0  0  0  0
   38.3059   30.4589   38.6211 C   0  0  0  0  0  0  0  0  0  0  0  0
   37.5726   29.6812   39.5313 C   0  0  0  0  0  0  0  0  0  0  0  0
   37.4150   30.1209   40.8160 C   0  0  0  0  0  0  0  0  0  0  0  0
   37.9337   31.2716   41.2409 N   0  0  0  0  0  0  0  0  0  0  0  0
   41.2579   36.9549   39.4038 H   0  0  0  0  0  0  0  0  0  0  0  0
   40.7710   35.5564   38.3090 H   0  0  0  0  0  0  0  0  0  0  0  0
   42.3169   36.1584   41.6585 H   0  0  0  0  0  0  0  0  0  0  0  0
   44.3510   32.7164   38.8656 H   0  0  0  0  0  0  0  0  0  0  0  0
   44.3700   34.1038   43.5152 H   0  0  0  0  0  0  0  0  0  0  0  0
   46.7070   34.8657   43.4002 H   0  0  0  0  0  0  0  0  0  0  0  0
   46.4103   35.5117   41.6553 H   0  0  0  0  0  0  0  0  0  0  0  0
   45.0199   36.4899   44.2779 H   0  0  0  0  0  0  0  0  0  0  0  0
   44.6943   37.1273   42.5949 H   0  0  0  0  0  0  0  0  0  0  0  0
   40.2091   35.6627   41.3170 H   0  0  0  0  0  0  0  0  0  0  0  0
   39.1285   36.4806   40.1257 H   0  0  0  0  0  0  0  0  0  0  0  0
   38.5498   34.3839   39.1030 H   0  0  0  0  0  0  0  0  0  0  0  0
   39.3805   32.2656   38.4783 H   0  0  0  0  0  0  0  0  0  0  0  0
   38.4686   30.1743   37.6033 H   0  0  0  0  0  0  0  0  0  0  0  0
   37.1501   28.7912   39.1275 H   0  0  0  0  0  0  0  0  0  0  0  0
   38.3151   31.2144   44.2536 H   0  0  0  0  0  0  0  0  0  0  0  0
   37.0589   31.2665   43.7700 S   0  0  0  0  0  0  0  0  0  0  0  0
   36.8426   32.4567   42.8616 O   0  0  0  0  0  0  0  0  0  0  0  0
   36.1952   31.6058   45.0026 O   0  0  0  0  0  0  0  0  0  0  0  0
   36.4191   29.8028   43.1339 C   0  0  0  0  0  0  0  0  0  0  0  0
   36.6319   29.4209   41.8298 C   0  0  0  0  0  0  0  0  0  0  0  0
   35.9804   28.2417   41.4545 C   0  0  0  0  0  0  0  0  0  0  0  0
   36.0973   27.8683   40.4281 H   0  0  0  0  0  0  0  0  0  0  0  0
   35.1744   27.4505   42.2419 C   0  0  0  0  0  0  0  0  0  0  0  0
   34.7138   26.5540   41.8607 H   0  0  0  0  0  0  0  0  0  0  0  0
   34.9747   27.8430   43.5398 C   0  0  0  0  0  0  0  0  0  0  0  0
   35.6005   29.0014   43.9424 C   0  0  0  0  0  0  0  0  0  0  0  0
   34.3675   27.3006   44.2376 H   0  0  0  0  0  0  0  0  0  0  0  0
   35.4374   29.3133   44.9875 H   0  0  0  0  0  0  0  0  0  0  0  0
  1  4  1  0
  1 11  1  0
  2  8  1  0
  3  2  2  0
  4  3  1  0
  5  6  1  0
  5  4  2  0
  6  7  2  0
  7  2  1  0
  8 10  1  0
  9  8  1  0
  9 10  1  0
 12 13  2  0
 14 11  1  0
 14 12  1  0
 15 12  1  0
 15 20  1  0
 16 15  2  0
 17 16  1  0
 17 18  2  0
 18 19  1  0
 19 20  2  0
  1 21  1  0
  1 22  1  0
  3 23  1  0
  6 24  1  0
  8 25  1  0
  9 26  1  0
  9 27  1  0
 10 28  1  0
 10 29  1  0
 11 30  1  0
 11 31  1  0
 14 32  1  0
 16 33  1  0
 17 34  1  0
 18 35  1  0
 36 37  1  0
 37 38  2  0
 37 39  2  0
 37 40  1  0
 40 41  2  0
 41 42  1  0
 42 43  1  0
 42 44  2  0
 44 45  1  0
 44 46  1  0
 46 47  2  0
 47 40  1  0
 46 48  1  0
 47 49  1  0
 19 41  1  0
M  ISO  8  21   8  22   8  23  14  24  14  25  13  26  13  27  13  28  13
M  ISO  8  29  13  30   8  31   8  33  14  34  14  35  14  36  12  43  15
M  ISO  1  45  16
M  END
>  <DihAtoms>  (1) 
17,18,40,39

>  <DihDeg>  (1) 
30.52245818044589

$$$$
