
     RDKit          3D

 37 39  0  0  0  0  0  0  0  0999 V2000
   43.5990   35.3960   42.7450 C   0  0  0  0  0  0  0  0  0  0  0  0
   44.3080   34.7280   41.7550 C   0  0  0  0  0  0  0  0  0  0  0  0
   45.6100   34.4230   42.0550 C   0  0  0  0  0  0  0  0  0  0  0  0
   46.1770   34.7470   43.2430 N   0  0  0  0  0  0  0  0  0  0  0  0
   45.4330   35.4050   44.1860 C   0  0  0  0  0  0  0  0  0  0  0  0
   44.1470   35.7270   43.9280 N   0  0  0  0  0  0  0  0  0  0  0  0
   43.6610   34.3620   40.5650 N   0  0  0  0  0  0  0  0  0  0  0  0
   42.7660   35.1940   39.9000 C   0  0  0  0  0  0  0  0  0  0  0  0
   42.3920   34.8090   38.4980 C   0  0  0  0  0  0  0  0  0  0  0  0
   43.3790   34.1870   37.7330 N   0  0  0  0  0  0  0  0  0  0  0  0
   44.1680   33.2480   38.4100 C   0  0  0  0  0  0  0  0  0  0  0  0
   43.8260   33.1150   39.8880 C   0  0  0  0  0  0  0  0  0  0  0  0
   47.0770   32.4460   41.5070 C   0  0  0  0  0  0  0  0  0  0  0  0
   46.6030   33.7580   41.2800 C   0  0  0  0  0  0  0  0  0  0  0  0
   47.3380   34.3350   40.2220 C   0  0  0  0  0  0  0  0  0  0  0  0
   48.3570   33.7900   39.4800 C   0  0  0  0  0  0  0  0  0  0  0  0
   48.7160   32.5130   39.8020 C   0  0  0  0  0  0  0  0  0  0  0  0
   48.0850   31.8390   40.8080 C   0  0  0  0  0  0  0  0  0  0  0  0
   46.2870   31.5340   42.8030 S   0  0  0  0  0  0  0  0  0  0  0  0
   44.8020   31.7490   42.7840 O   0  0  0  0  0  0  0  0  0  0  0  0
   46.8610   32.0230   44.1080 O   0  0  0  0  0  0  0  0  0  0  0  0
   42.5495   35.6646   42.5544 H   0  0  0  0  0  0  0  0  0  0  0  0
   45.8830   35.6713   45.1538 H   0  0  0  0  0  0  0  0  0  0  0  0
   41.8403   35.2276   40.4933 H   0  0  0  0  0  0  0  0  0  0  0  0
   43.2888   36.1569   39.8025 H   0  0  0  0  0  0  0  0  0  0  0  0
   41.5353   34.1217   38.5587 H   0  0  0  0  0  0  0  0  0  0  0  0
   42.1846   35.7590   37.9837 H   0  0  0  0  0  0  0  0  0  0  0  0
   44.0033   34.9191   37.3653 H   0  0  0  0  0  0  0  0  0  0  0  0
   44.0287   32.2674   37.9314 H   0  0  0  0  0  0  0  0  0  0  0  0
   45.2088   33.5991   38.3506 H   0  0  0  0  0  0  0  0  0  0  0  0
   42.8874   32.5481   39.9753 H   0  0  0  0  0  0  0  0  0  0  0  0
   44.6768   32.6063   40.3649 H   0  0  0  0  0  0  0  0  0  0  0  0
   47.0553   35.3639   39.9548 H   0  0  0  0  0  0  0  0  0  0  0  0
   48.8544   34.3494   38.6740 H   0  0  0  0  0  0  0  0  0  0  0  0
   49.5251   32.0199   39.2432 H   0  0  0  0  0  0  0  0  0  0  0  0
   48.3861   30.8105   41.0561 H   0  0  0  0  0  0  0  0  0  0  0  0
   46.5090   30.1923   42.6374 H   0  0  0  0  0  0  0  0  0  0  0  0
  1  6  2  0
  2  3  2  0
  2  1  1  0
  3  4  1  0
  4  5  2  0
  6  5  1  0
  7  2  1  0
  8  7  1  0
  9  8  1  0
 10 11  1  0
 10  9  1  0
 11 12  1  0
 12  7  1  0
 13 19  1  0
 14 13  2  0
 14  3  1  0
 15 14  1  0
 16 17  1  0
 16 15  2  0
 17 18  2  0
 18 13  1  0
 19 21  2  0
 20 19  2  0
  1 22  1  0
  5 23  1  0
  8 24  1  0
  8 25  1  0
  9 26  1  0
  9 27  1  0
 10 28  1  0
 11 29  1  0
 11 30  1  0
 12 31  1  0
 12 32  1  0
 15 33  1  0
 16 34  1  0
 17 35  1  0
 18 36  1  0
 19 37  1  0
M  ISO  8  22  14  23  14  24  13  25  13  26  13  27  13  28   5  29  13
M  ISO  8  30  13  31  13  32  13  33  14  34  14  35  14  36  14  37  11
M  END
>  <minimizedAffinity>  (1) 
-4.34127092

>  <minimizedRMSD>  (1) 
3.04866195

$$$$
