
     RDKit          3D

 33 35  0  0  0  0  0  0  0  0999 V2000
   45.9510   32.8530   47.0120 C   0  0  0  0  0  0  0  0  0  0  0  0
   47.1920   32.3570   47.2940 C   0  0  0  0  0  0  0  0  0  0  0  0
   47.4580   31.5390   48.3710 C   0  0  0  0  0  0  0  0  0  0  0  0
   46.4180   31.1910   49.2250 C   0  0  0  0  0  0  0  0  0  0  0  0
   45.1670   31.6680   48.9710 C   0  0  0  0  0  0  0  0  0  0  0  0
   44.9530   32.4860   47.8770 C   0  0  0  0  0  0  0  0  0  0  0  0
   44.5550   35.5350   44.9670 C   0  0  0  0  0  0  0  0  0  0  0  0
   45.2120   35.4150   43.7460 C   0  0  0  0  0  0  0  0  0  0  0  0
   46.1560   34.3930   43.6170 C   0  0  0  0  0  0  0  0  0  0  0  0
   46.3810   33.5720   44.6870 N   0  0  0  0  0  0  0  0  0  0  0  0
   45.7270   33.7150   45.8590 C   0  0  0  0  0  0  0  0  0  0  0  0
   44.8050   34.7130   45.9880 N   0  0  0  0  0  0  0  0  0  0  0  0
   49.2430   29.7430   48.3450 C   0  0  0  0  0  0  0  0  0  0  0  0
   48.7560   30.9770   48.7230 C   0  0  0  0  0  0  0  0  0  0  0  0
   49.5720   31.7710   49.5100 C   0  0  0  0  0  0  0  0  0  0  0  0
   50.8340   31.3510   49.9080 C   0  0  0  0  0  0  0  0  0  0  0  0
   51.2860   30.1110   49.5100 C   0  0  0  0  0  0  0  0  0  0  0  0
   50.4930   29.2990   48.7250 C   0  0  0  0  0  0  0  0  0  0  0  0
   48.2260   28.7320   47.3640 S   0  0  0  0  0  0  0  0  0  0  0  0
   48.4980   28.8970   45.8830 O   0  0  0  0  0  0  0  0  0  0  0  0
   48.5140   27.2720   47.6970 O   0  0  0  0  0  0  0  0  0  0  0  0
   48.0237   32.6247   46.6258 H   0  0  0  0  0  0  0  0  0  0  0  0
   46.6020   30.5404   50.0927 H   0  0  0  0  0  0  0  0  0  0  0  0
   44.3302   31.4031   49.6341 H   0  0  0  0  0  0  0  0  0  0  0  0
   43.9350   32.8595   47.6923 H   0  0  0  0  0  0  0  0  0  0  0  0
   43.8071   36.3315   45.0943 H   0  0  0  0  0  0  0  0  0  0  0  0
   44.9960   36.0999   42.9128 H   0  0  0  0  0  0  0  0  0  0  0  0
   46.7063   34.2520   42.6750 H   0  0  0  0  0  0  0  0  0  0  0  0
   49.2113   32.7602   49.8283 H   0  0  0  0  0  0  0  0  0  0  0  0
   51.4653   31.9996   50.5331 H   0  0  0  0  0  0  0  0  0  0  0  0
   52.2839   29.7670   49.8197 H   0  0  0  0  0  0  0  0  0  0  0  0
   50.8530   28.3097   48.4061 H   0  0  0  0  0  0  0  0  0  0  0  0
   46.9314   29.0939   47.6283 H   0  0  0  0  0  0  0  0  0  0  0  0
  1  2  2  0
  1  6  1  0
  2  3  1  0
  3 14  1  0
  3  4  2  0
  5  4  1  0
  6  5  2  0
  7 12  2  0
  8  7  1  0
  9  8  2  0
  9 10  1  0
 10 11  2  0
 11 12  1  0
 11  1  1  0
 13 14  2  0
 13 18  1  0
 14 15  1  0
 15 16  2  0
 17 16  1  0
 18 17  2  0
 19 21  2  0
 19 13  1  0
 20 19  2  0
  2 22  1  0
  4 23  1  0
  5 24  1  0
  6 25  1  0
  7 26  1  0
  8 27  1  0
  9 28  1  0
 15 29  1  0
 16 30  1  0
 17 31  1  0
 18 32  1  0
 19 33  1  0
M  ISO  8  22  14  23  14  24  14  25  14  26  14  27  14  28  14  29  14
M  ISO  4  30  14  31  14  32  14  33  11
M  END
>  <minimizedAffinity>  (1) 
-5.90159941

>  <minimizedRMSD>  (1) 
0.649318218

$$$$
