
     RDKit          3D

 33 35  0  0  0  0  0  0  0  0999 V2000
   45.0110   32.9360   41.2170 Cl  0  0  0  0  0  0  0  0  0  0  0  0
   46.4640   33.8980   41.0110 C   0  0  0  0  0  0  0  0  0  0  0  0
   46.9160   34.7340   41.9960 C   0  0  0  0  0  0  0  0  0  0  0  0
   48.0590   35.4320   41.7170 C   0  0  0  0  0  0  0  0  0  0  0  0
   48.7320   35.3210   40.5330 C   0  0  0  0  0  0  0  0  0  0  0  0
   48.2750   34.4860   39.5570 C   0  0  0  0  0  0  0  0  0  0  0  0
   47.1270   33.7700   39.8070 C   0  0  0  0  0  0  0  0  0  0  0  0
   44.5020   35.8730   44.6780 C   0  0  0  0  0  0  0  0  0  0  0  0
   45.2120   35.8240   43.4660 C   0  0  0  0  0  0  0  0  0  0  0  0
   46.1630   34.8170   43.2390 C   0  0  0  0  0  0  0  0  0  0  0  0
   46.3500   33.9190   44.2340 N   0  0  0  0  0  0  0  0  0  0  0  0
   45.6560   33.9920   45.3840 C   0  0  0  0  0  0  0  0  0  0  0  0
   44.7440   34.9450   45.6180 N   0  0  0  0  0  0  0  0  0  0  0  0
   47.0280   31.5580   38.6570 C   0  0  0  0  0  0  0  0  0  0  0  0
   46.6290   32.8700   38.7620 C   0  0  0  0  0  0  0  0  0  0  0  0
   45.7150   33.4500   37.8780 C   0  0  0  0  0  0  0  0  0  0  0  0
   45.2410   32.6080   36.8880 C   0  0  0  0  0  0  0  0  0  0  0  0
   45.6010   31.2860   36.7300 C   0  0  0  0  0  0  0  0  0  0  0  0
   46.5180   30.7600   37.6420 C   0  0  0  0  0  0  0  0  0  0  0  0
   48.1910   30.9180   39.8260 S   0  0  0  0  0  0  0  0  0  0  0  0
   48.8920   29.7760   39.1230 O   0  0  0  0  0  0  0  0  0  0  0  0
   47.3510   30.3490   40.9620 O   0  0  0  0  0  0  0  0  0  0  0  0
   48.4553   36.1154   42.4825 H   0  0  0  0  0  0  0  0  0  0  0  0
   49.6471   35.9083   40.3665 H   0  0  0  0  0  0  0  0  0  0  0  0
   48.8075   34.3878   38.5995 H   0  0  0  0  0  0  0  0  0  0  0  0
   43.7566   36.6625   44.8546 H   0  0  0  0  0  0  0  0  0  0  0  0
   45.0211   36.5800   42.6901 H   0  0  0  0  0  0  0  0  0  0  0  0
   45.8449   33.2391   46.1634 H   0  0  0  0  0  0  0  0  0  0  0  0
   45.3959   34.4992   37.9632 H   0  0  0  0  0  0  0  0  0  0  0  0
   44.5200   33.0259   36.1700 H   0  0  0  0  0  0  0  0  0  0  0  0
   45.1830   30.6715   35.9190 H   0  0  0  0  0  0  0  0  0  0  0  0
   46.8371   29.7108   37.5561 H   0  0  0  0  0  0  0  0  0  0  0  0
   49.0913   31.8433   40.2843 H   0  0  0  0  0  0  0  0  0  0  0  0
  2  1  1  0
  2  3  2  0
  3 10  1  0
  4  3  1  0
  5  4  2  0
  6  7  2  0
  6  5  1  0
  7  2  1  0
  8 13  2  0
  9  8  1  0
 10  9  2  0
 10 11  1  0
 11 12  2  0
 12 13  1  0
 14 15  2  0
 14 20  1  0
 15  7  1  0
 16 15  1  0
 17 16  2  0
 18 17  1  0
 18 19  2  0
 19 14  1  0
 20 22  2  0
 21 20  2  0
  4 23  1  0
  5 24  1  0
  6 25  1  0
  8 26  1  0
  9 27  1  0
 12 28  1  0
 16 29  1  0
 17 30  1  0
 18 31  1  0
 19 32  1  0
 20 33  1  0
M  ISO  8  23  14  24  14  25  14  26  14  27  14  28  14  29  14  30  14
M  ISO  3  31  14  32  14  33  11
M  END
>  <minimizedAffinity>  (1) 
-5.26228762

>  <minimizedRMSD>  (1) 
0.926275849

$$$$
