
     RDKit          3D

 33 35  0  0  0  0  0  0  0  0999 V2000
   47.3620   33.8070   42.6350 C   0  0  0  0  0  0  0  0  0  0  0  0
   46.7160   34.1280   41.4720 C   0  0  0  0  0  0  0  0  0  0  0  0
   45.4980   34.7620   41.5010 C   0  0  0  0  0  0  0  0  0  0  0  0
   44.9440   35.0680   42.7400 C   0  0  0  0  0  0  0  0  0  0  0  0
   45.5510   34.7660   43.9390 C   0  0  0  0  0  0  0  0  0  0  0  0
   46.7940   34.1180   43.8440 C   0  0  0  0  0  0  0  0  0  0  0  0
   51.0590   33.0740   42.3230 C   0  0  0  0  0  0  0  0  0  0  0  0
   49.8710   33.8150   42.4330 C   0  0  0  0  0  0  0  0  0  0  0  0
   48.6460   33.1400   42.5180 C   0  0  0  0  0  0  0  0  0  0  0  0
   48.6990   31.7970   42.4880 N   0  0  0  0  0  0  0  0  0  0  0  0
   49.8370   31.0770   42.3830 C   0  0  0  0  0  0  0  0  0  0  0  0
   51.0200   31.7170   42.3000 N   0  0  0  0  0  0  0  0  0  0  0  0
   46.7930   32.7680   39.4030 C   0  0  0  0  0  0  0  0  0  0  0  0
   47.1950   33.8680   40.1120 C   0  0  0  0  0  0  0  0  0  0  0  0
   48.0840   34.7530   39.4950 C   0  0  0  0  0  0  0  0  0  0  0  0
   48.5130   34.4820   38.2090 C   0  0  0  0  0  0  0  0  0  0  0  0
   48.0990   33.3700   37.5080 C   0  0  0  0  0  0  0  0  0  0  0  0
   47.2100   32.4750   38.1110 C   0  0  0  0  0  0  0  0  0  0  0  0
   45.6920   31.6400   40.1320 S   0  0  0  0  0  0  0  0  0  0  0  0
   44.5650   31.3620   39.1770 O   0  0  0  0  0  0  0  0  0  0  0  0
   46.3620   30.3070   40.4100 O   0  0  0  0  0  0  0  0  0  0  0  0
   44.9742   35.0211   40.5690 H   0  0  0  0  0  0  0  0  0  0  0  0
   43.9697   35.5781   42.7633 H   0  0  0  0  0  0  0  0  0  0  0  0
   45.0927   35.0158   44.9073 H   0  0  0  0  0  0  0  0  0  0  0  0
   47.3282   33.8518   44.7680 H   0  0  0  0  0  0  0  0  0  0  0  0
   52.0253   33.5953   42.2552 H   0  0  0  0  0  0  0  0  0  0  0  0
   49.9019   34.9144   42.4522 H   0  0  0  0  0  0  0  0  0  0  0  0
   49.7984   29.9778   42.3654 H   0  0  0  0  0  0  0  0  0  0  0  0
   48.4365   35.6506   40.0242 H   0  0  0  0  0  0  0  0  0  0  0  0
   49.2119   35.1811   37.7265 H   0  0  0  0  0  0  0  0  0  0  0  0
   48.4637   33.1887   36.4862 H   0  0  0  0  0  0  0  0  0  0  0  0
   46.8558   31.5766   37.5843 H   0  0  0  0  0  0  0  0  0  0  0  0
   45.2539   32.1965   41.3047 H   0  0  0  0  0  0  0  0  0  0  0  0
  1  6  2  0
  2  3  2  0
  2  1  1  0
  3  4  1  0
  4  5  2  0
  6  5  1  0
  7  8  2  0
  8  9  1  0
  9  1  1  0
 10  9  2  0
 11 10  1  0
 12  7  1  0
 12 11  2  0
 13 14  2  0
 13 19  1  0
 14  2  1  0
 15 14  1  0
 16 15  2  0
 17 18  2  0
 17 16  1  0
 18 13  1  0
 19 21  2  0
 20 19  2  0
  3 22  1  0
  4 23  1  0
  5 24  1  0
  6 25  1  0
  7 26  1  0
  8 27  1  0
 11 28  1  0
 15 29  1  0
 16 30  1  0
 17 31  1  0
 18 32  1  0
 19 33  1  0
M  ISO  8  22  14  23  14  24  14  25  14  26  14  27  14  28  14  29  14
M  ISO  4  30  14  31  14  32  14  33  11
M  END
>  <minimizedAffinity>  (1) 
-4.53964472

>  <minimizedRMSD>  (1) 
5.69499207

$$$$
