
     RDKit          3D

 43 46  0  0  0  0  0  0  0  0999 V2000
   46.7730   33.0010   38.7070 C   0  0  0  0  0  0  0  0  0  0  0  0
   45.5450   33.2320   38.1030 C   0  0  0  0  0  0  0  0  0  0  0  0
   45.2190   32.5120   36.9790 C   0  0  0  0  0  0  0  0  0  0  0  0
   46.1000   31.5790   36.4630 C   0  0  0  0  0  0  0  0  0  0  0  0
   47.3080   31.4120   37.1380 C   0  0  0  0  0  0  0  0  0  0  0  0
   47.6710   32.0880   38.2420 C   0  0  0  0  0  0  0  0  0  0  0  0
   45.4280   33.2130   41.1480 F   0  0  0  0  0  0  0  0  0  0  0  0
   46.5770   33.9370   41.0230 C   0  0  0  0  0  0  0  0  0  0  0  0
   47.0050   34.7360   42.0320 C   0  0  0  0  0  0  0  0  0  0  0  0
   48.1290   35.4980   41.7750 C   0  0  0  0  0  0  0  0  0  0  0  0
   48.7890   35.4630   40.5620 C   0  0  0  0  0  0  0  0  0  0  0  0
   48.2640   34.6200   39.6210 C   0  0  0  0  0  0  0  0  0  0  0  0
   47.1740   33.8420   39.8070 C   0  0  0  0  0  0  0  0  0  0  0  0
   44.5270   35.8070   44.6830 C   0  0  0  0  0  0  0  0  0  0  0  0
   45.2620   35.7620   43.4970 C   0  0  0  0  0  0  0  0  0  0  0  0
   46.2450   34.7680   43.2710 C   0  0  0  0  0  0  0  0  0  0  0  0
   46.4280   33.8770   44.2560 N   0  0  0  0  0  0  0  0  0  0  0  0
   45.7060   33.9380   45.3950 C   0  0  0  0  0  0  0  0  0  0  0  0
   44.7850   34.8680   45.6100 N   0  0  0  0  0  0  0  0  0  0  0  0
   49.2000   30.7510   39.7390 C   0  0  0  0  0  0  0  0  0  0  0  0
   48.8950   31.5490   38.6420 C   0  0  0  0  0  0  0  0  0  0  0  0
   49.9650   31.9840   37.8180 C   0  0  0  0  0  0  0  0  0  0  0  0
   51.3070   31.6530   38.0500 C   0  0  0  0  0  0  0  0  0  0  0  0
   51.5700   30.8480   39.1660 C   0  0  0  0  0  0  0  0  0  0  0  0
   50.5260   30.4210   39.9730 C   0  0  0  0  0  0  0  0  0  0  0  0
   47.8680   30.2590   40.6850 S   0  0  0  0  0  0  0  0  0  0  0  0
   47.1140   29.0810   40.0680 O   0  0  0  0  0  0  0  0  0  0  0  0
   48.4730   29.5830   41.9030 O   0  0  0  0  0  0  0  0  0  0  0  0
   44.8474   33.9758   38.5154 H   0  0  0  0  0  0  0  0  0  0  0  0
   44.2500   32.6789   36.4858 H   0  0  0  0  0  0  0  0  0  0  0  0
   45.8586   30.9960   35.5620 H   0  0  0  0  0  0  0  0  0  0  0  0
   48.0169   30.6723   36.7378 H   0  0  0  0  0  0  0  0  0  0  0  0
   48.5129   36.1579   42.5670 H   0  0  0  0  0  0  0  0  0  0  0  0
   49.6815   36.0751   40.3649 H   0  0  0  0  0  0  0  0  0  0  0  0
   48.7647   34.5717   38.6428 H   0  0  0  0  0  0  0  0  0  0  0  0
   43.7650   36.5820   44.8528 H   0  0  0  0  0  0  0  0  0  0  0  0
   45.0731   36.5167   42.7194 H   0  0  0  0  0  0  0  0  0  0  0  0
   45.8889   33.1859   46.1766 H   0  0  0  0  0  0  0  0  0  0  0  0
   49.7283   32.6158   36.9492 H   0  0  0  0  0  0  0  0  0  0  0  0
   52.1124   32.0071   37.3897 H   0  0  0  0  0  0  0  0  0  0  0  0
   52.6036   30.5549   39.4020 H   0  0  0  0  0  0  0  0  0  0  0  0
   50.7618   29.7891   40.8419 H   0  0  0  0  0  0  0  0  0  0  0  0
   47.0608   31.3506   40.8687 H   0  0  0  0  0  0  0  0  0  0  0  0
  1 13  1  0
  2  1  2  0
  3  2  1  0
  4  3  2  0
  4  5  1  0
  5  6  2  0
  6 21  1  0
  6  1  1  0
  8  7  1  0
  8  9  2  0
  9 16  1  0
 10  9  1  0
 11 10  2  0
 12 13  2  0
 12 11  1  0
 13  8  1  0
 14 19  2  0
 15 14  1  0
 16 15  2  0
 16 17  1  0
 17 18  2  0
 18 19  1  0
 20 25  2  0
 20 26  1  0
 21 20  1  0
 22 23  1  0
 22 21  2  0
 23 24  2  0
 24 25  1  0
 26 28  2  0
 27 26  2  0
  2 29  1  0
  3 30  1  0
  4 31  1  0
  5 32  1  0
 10 33  1  0
 11 34  1  0
 12 35  1  0
 14 36  1  0
 15 37  1  0
 18 38  1  0
 22 39  1  0
 23 40  1  0
 24 41  1  0
 25 42  1  0
 26 43  1  0
M  ISO  8  29  14  30  14  31  14  32  14  33  14  34  14  35  14  36  14
M  ISO  7  37  14  38  14  39  14  40  14  41  14  42  14  43  11
M  END
>  <minimizedAffinity>  (1) 
-5.82642889

>  <minimizedRMSD>  (1) 
2.54328465

$$$$
