
     RDKit          3D

 29 30  0  0  0  0  0  0  0  0999 V2000
   45.1907   35.2189   44.0477 C   0  0  0  0  0  0  0  0  0  0  0  0
   46.2292   34.5797   43.3756 C   0  0  0  0  0  0  0  0  0  0  0  0
   46.9087   33.5663   44.0518 C   0  0  0  0  0  0  0  0  0  0  0  0
   46.5120   33.2670   45.3269 N   0  0  0  0  0  0  0  0  0  0  0  0
   45.5037   33.9044   45.9475 C   0  0  0  0  0  0  0  0  0  0  0  0
   44.8439   34.8806   45.3061 N   0  0  0  0  0  0  0  0  0  0  0  0
   46.5556   34.9777   42.0293 C   0  0  0  0  0  0  0  0  0  0  0  0
   48.0523   35.1914   41.9212 C   0  0  0  0  0  0  0  0  0  0  0  0
   44.5895   36.0296   43.6110 H   0  0  0  0  0  0  0  0  0  0  0  0
   47.7229   33.0322   43.5852 H   0  0  0  0  0  0  0  0  0  0  0  0
   46.0423   35.9113   41.7512 H   0  0  0  0  0  0  0  0  0  0  0  0
   46.3094   34.1373   41.3300 H   0  0  0  0  0  0  0  0  0  0  0  0
   48.6366   34.5330   42.5607 H   0  0  0  0  0  0  0  0  0  0  0  0
   48.2355   36.2746   42.1222 H   0  0  0  0  0  0  0  0  0  0  0  0
   48.3052   35.0552   40.8296 H   0  0  0  0  0  0  0  0  0  0  0  0
   43.9798   36.4207   46.9016 H   0  0  0  0  0  0  0  0  0  0  0  0
   43.2087   35.3742   47.3245 S   0  0  0  0  0  0  0  0  0  0  0  0
   42.3263   34.8505   46.2170 O   0  0  0  0  0  0  0  0  0  0  0  0
   42.3051   35.9332   48.4127 O   0  0  0  0  0  0  0  0  0  0  0  0
   44.1578   34.0857   48.0301 C   0  0  0  0  0  0  0  0  0  0  0  0
   45.1784   33.4896   47.3099 C   0  0  0  0  0  0  0  0  0  0  0  0
   45.9281   32.4730   47.8650 C   0  0  0  0  0  0  0  0  0  0  0  0
   46.7514   31.9579   47.3484 H   0  0  0  0  0  0  0  0  0  0  0  0
   45.6978   32.0020   49.1619 C   0  0  0  0  0  0  0  0  0  0  0  0
   46.2733   31.2065   49.6162 H   0  0  0  0  0  0  0  0  0  0  0  0
   44.6752   32.6152   49.8536 C   0  0  0  0  0  0  0  0  0  0  0  0
   43.9067   33.6334   49.3293 C   0  0  0  0  0  0  0  0  0  0  0  0
   44.4391   32.3116   50.8472 H   0  0  0  0  0  0  0  0  0  0  0  0
   43.1064   34.1043   49.8875 H   0  0  0  0  0  0  0  0  0  0  0  0
  1  6  2  0
  2  1  1  0
  2  3  2  0
  3  4  1  0
  4  5  2  0
  6  5  1  0
  7  2  1  0
  8  7  1  0
  1  9  1  0
  3 10  1  0
  7 11  1  0
  7 12  1  0
  8 13  1  0
  8 14  1  0
  8 15  1  0
 16 17  1  0
 17 18  2  0
 17 19  2  0
 17 20  1  0
 20 21  2  0
 21 22  1  0
 22 23  1  0
 22 24  2  0
 24 25  1  0
 24 26  1  0
 26 27  2  0
 27 20  1  0
 26 28  1  0
 27 29  1  0
  5 21  1  0
M  ISO  8   9  14  10  14  11   8  12   8  13   8  14   8  15   8  16  12
M  ISO  2  23  15  25  16
M  END
>  <DihAtoms>  (1) 
3,4,20,19

>  <DihDeg>  (1) 
179.99815642107492

$$$$
