
     RDKit          3D

 31 32  0  0  0  0  0  0  0  0999 V2000
   46.5392   33.6229   44.3396 C   0  0  0  0  0  0  0  0  0  0  0  0
   46.2451   33.2114   45.6485 C   0  0  0  0  0  0  0  0  0  0  0  0
   45.2990   33.9033   46.3648 C   0  0  0  0  0  0  0  0  0  0  0  0
   44.6861   34.9626   45.7671 N   0  0  0  0  0  0  0  0  0  0  0  0
   44.9762   35.3443   44.5173 C   0  0  0  0  0  0  0  0  0  0  0  0
   45.8950   34.6865   43.7990 N   0  0  0  0  0  0  0  0  0  0  0  0
   45.0384   33.4708   47.6474 O   0  0  0  0  0  0  0  0  0  0  0  0
   45.3177   30.8737   47.4686 O   0  0  0  0  0  0  0  0  0  0  0  0
   45.8149   32.1078   48.2694 P   0  0  2  0  0  0  0  0  0  0  0  0
   45.3205   31.8200   49.8501 O   0  0  0  0  0  0  0  0  0  0  0  0
   47.4588   32.2062   48.1229 O   0  0  0  0  0  0  0  0  0  0  0  0
   48.4794   31.4245   48.5266 C   0  0  0  0  0  0  0  0  0  0  0  0
   49.2196   32.0078   49.4417 O   0  0  0  0  0  0  0  0  0  0  0  0
   47.2646   33.1478   43.6956 H   0  0  0  0  0  0  0  0  0  0  0  0
   46.8265   32.3697   45.9206 H   0  0  0  0  0  0  0  0  0  0  0  0
   44.3882   36.2061   44.2122 H   0  0  0  0  0  0  0  0  0  0  0  0
   45.5002   30.8843   50.0633 H   0  0  0  0  0  0  0  0  0  0  0  0
   51.9343   30.6052   45.7456 H   0  0  0  0  0  0  0  0  0  0  0  0
   50.8703   31.1864   46.4380 S   0  0  0  0  0  0  0  0  0  0  0  0
   49.9445   31.6715   45.3589 O   0  0  0  0  0  0  0  0  0  0  0  0
   51.5286   32.3135   47.2009 O   0  0  0  0  0  0  0  0  0  0  0  0
   50.1645   29.9706   47.4407 C   0  0  0  0  0  0  0  0  0  0  0  0
   49.1522   30.0938   48.3433 C   0  0  0  0  0  0  0  0  0  0  0  0
   48.7316   28.9644   49.0683 C   0  0  0  0  0  0  0  0  0  0  0  0
   47.9053   29.1484   49.7806 H   0  0  0  0  0  0  0  0  0  0  0  0
   49.2383   27.6989   48.9730 C   0  0  0  0  0  0  0  0  0  0  0  0
   48.8130   26.9348   49.5942 H   0  0  0  0  0  0  0  0  0  0  0  0
   50.2539   27.5702   48.0686 C   0  0  0  0  0  0  0  0  0  0  0  0
   50.6775   28.6582   47.3534 C   0  0  0  0  0  0  0  0  0  0  0  0
   50.6962   26.6042   47.9442 H   0  0  0  0  0  0  0  0  0  0  0  0
   51.4919   28.4542   46.6574 H   0  0  0  0  0  0  0  0  0  0  0  0
  1  2  2  0
  2  3  1  0
  3  7  1  0
  4  3  2  0
  5  4  1  0
  6  1  1  0
  6  5  2  0
  9  7  1  6
  9  8  2  0
  9 10  1  0
 11  9  1  0
 11 12  1  0
 12 13  2  0
  1 14  1  0
  2 15  1  0
  5 16  1  0
 10 17  1  0
 18 19  1  0
 19 20  2  0
 19 21  2  0
 19 22  1  0
 22 23  2  0
 23 24  1  0
 24 25  1  0
 24 26  2  0
 26 27  1  0
 26 28  1  0
 28 29  2  0
 29 22  1  0
 28 30  1  0
 29 31  1  0
 12 23  1  0
M  ISO  7  14  14  15  14  16  14  17   3  18  12  25  15  27  16
M  END
>  <DihAtoms>  (1) 
10,11,22,21

>  <DihDeg>  (1) 
-178.43772882615795

$$$$
