
     RDKit          3D

 43 45  0  0  0  0  0  0  0  0999 V2000
   44.5165   35.8292   44.8579 C   0  0  0  0  0  0  0  0  0  0  0  0
   45.1293   35.7694   43.5890 C   0  0  0  0  0  0  0  0  0  0  0  0
   46.0164   34.7155   43.3624 C   0  0  0  0  0  0  0  0  0  0  0  0
   46.2363   33.8158   44.3696 N   0  0  0  0  0  0  0  0  0  0  0  0
   45.6331   33.9133   45.5547 C   0  0  0  0  0  0  0  0  0  0  0  0
   44.7588   34.9229   45.8257 N   0  0  0  0  0  0  0  0  0  0  0  0
   46.6455   34.6379   42.0875 N   0  0  0  0  0  0  0  0  0  0  0  0
   47.8878   35.1651   41.9633 C   0  0  0  0  0  0  0  0  0  0  0  0
   48.5128   35.0932   40.7167 C   0  0  0  0  0  0  0  0  0  0  0  0
   47.8406   34.4990   39.6992 C   0  0  0  0  0  0  0  0  0  0  0  0
   48.4157   34.4332   38.5529 O   0  0  0  0  0  0  0  0  0  0  0  0
   46.6015   33.9672   39.8030 N   0  0  0  0  0  0  0  0  0  0  0  0
   46.0508   34.0690   41.0362 C   0  0  0  0  0  0  0  0  0  0  0  0
   44.9076   33.6117   41.2482 O   0  0  0  0  0  0  0  0  0  0  0  0
   46.0523   32.8074   46.4629 C   0  0  0  0  0  0  0  0  0  0  0  0
   45.2416   32.8126   47.7434 C   0  0  0  0  0  0  0  0  0  0  0  0
   45.1159   30.6731   48.8705 C   0  0  0  0  0  0  0  0  0  0  0  0
   46.2005   30.9767   49.4424 O   0  0  0  0  0  0  0  0  0  0  0  0
   44.5848   31.5490   47.9207 N   0  0  0  0  0  0  0  0  0  0  0  0
   43.8295   36.6296   45.0602 H   0  0  0  0  0  0  0  0  0  0  0  0
   44.9132   36.5073   42.8405 H   0  0  0  0  0  0  0  0  0  0  0  0
   48.4091   35.6309   42.7702 H   0  0  0  0  0  0  0  0  0  0  0  0
   49.5112   35.4999   40.5489 H   0  0  0  0  0  0  0  0  0  0  0  0
   46.0798   33.5081   39.0208 H   0  0  0  0  0  0  0  0  0  0  0  0
   47.1432   32.9385   46.6853 H   0  0  0  0  0  0  0  0  0  0  0  0
   45.9487   31.8399   45.9224 H   0  0  0  0  0  0  0  0  0  0  0  0
   44.4909   33.6541   47.6846 H   0  0  0  0  0  0  0  0  0  0  0  0
   45.8952   33.0765   48.5997 H   0  0  0  0  0  0  0  0  0  0  0  0
   43.7424   31.2635   47.3781 H   0  0  0  0  0  0  0  0  0  0  0  0
   47.6176   28.1732   49.2422 H   0  0  0  0  0  0  0  0  0  0  0  0
   46.8073   28.5453   50.2679 S   0  0  0  0  0  0  0  0  0  0  0  0
   47.1021   27.5763   51.4008 O   0  0  0  0  0  0  0  0  0  0  0  0
   47.1003   29.9110   50.7980 O   0  0  0  0  0  0  0  0  0  0  0  0
   45.1071   28.3352   49.9065 C   0  0  0  0  0  0  0  0  0  0  0  0
   44.5169   29.4070   49.2725 C   0  0  0  0  0  0  0  0  0  0  0  0
   43.1591   29.3551   48.9337 C   0  0  0  0  0  0  0  0  0  0  0  0
   42.5979   30.1485   48.4317 H   0  0  0  0  0  0  0  0  0  0  0  0
   42.4060   28.2281   49.2337 C   0  0  0  0  0  0  0  0  0  0  0  0
   41.3550   28.1279   48.9984 H   0  0  0  0  0  0  0  0  0  0  0  0
   43.0146   27.1649   49.8686 C   0  0  0  0  0  0  0  0  0  0  0  0
   44.3694   27.2096   50.2102 C   0  0  0  0  0  0  0  0  0  0  0  0
   42.5211   26.2264   50.1538 H   0  0  0  0  0  0  0  0  0  0  0  0
   44.8898   26.3950   50.7116 H   0  0  0  0  0  0  0  0  0  0  0  0
  1  6  2  0
  2  1  1  0
  3  2  2  0
  3  4  1  0
  4  5  2  0
  5  6  1  0
  5 15  1  0
  7  3  1  0
  8  7  1  0
  9  8  2  0
 10 12  1  0
 10  9  1  0
 11 10  2  0
 12 13  1  0
 13 14  2  0
 13  7  1  0
 15 16  1  0
 16 19  1  0
 17 18  2  0
 19 17  1  0
  1 20  1  0
  2 21  1  0
  8 22  1  0
  9 23  1  0
 12 24  1  0
 15 25  1  0
 15 26  1  0
 16 27  1  0
 16 28  1  0
 19 29  1  0
 30 31  1  0
 31 32  2  0
 31 33  2  0
 31 34  1  0
 34 35  2  0
 35 36  1  0
 36 37  1  0
 36 38  2  0
 38 39  1  0
 38 40  1  0
 40 41  2  0
 41 34  1  0
 40 42  1  0
 41 43  1  0
 17 35  1  0
M  ISO  8  20  14  21  14  22  14  23  14  24   9  25   8  26   8  27   8
M  ISO  4  28   8  30  12  37  15  39  16
M  END
>  <DihAtoms>  (1) 
17,16,34,33

>  <DihDeg>  (1) 
-123.98769172527209

$$$$
