
     RDKit          3D

 29 30  0  0  0  0  0  0  0  0999 V2000
   45.2980   34.5566   45.0375 C   0  0  0  0  0  0  0  0  0  0  0  0
   45.2681   33.9390   46.2719 C   0  0  0  0  0  0  0  0  0  0  0  0
   46.1734   32.9057   46.4787 C   0  0  0  0  0  0  0  0  0  0  0  0
   47.0064   32.5784   45.4804 N   0  0  0  0  0  0  0  0  0  0  0  0
   47.0069   33.2070   44.2813 C   0  0  0  0  0  0  0  0  0  0  0  0
   46.1530   34.2052   44.0424 N   0  0  0  0  0  0  0  0  0  0  0  0
   43.9793   35.3908   43.2892 C   0  0  0  0  0  0  0  0  0  0  0  0
   44.4160   34.2867   42.8413 O   0  0  0  0  0  0  0  0  0  0  0  0
   44.4395   35.6517   44.6207 N   0  0  0  0  0  0  0  0  0  0  0  0
   44.3134   34.4299   47.1857 N   0  0  0  0  0  0  0  0  0  0  0  0
   46.1313   32.4376   47.4525 H   0  0  0  0  0  0  0  0  0  0  0  0
   47.7331   32.8431   43.5603 H   0  0  0  0  0  0  0  0  0  0  0  0
   44.1767   36.4940   45.1550 H   0  0  0  0  0  0  0  0  0  0  0  0
   44.1126   35.4435   47.2837 H   0  0  0  0  0  0  0  0  0  0  0  0
   43.7157   33.8674   47.8479 H   0  0  0  0  0  0  0  0  0  0  0  0
   41.3236   34.6204   44.4823 H   0  0  0  0  0  0  0  0  0  0  0  0
   41.2896   35.9894   44.5445 S   0  0  0  0  0  0  0  0  0  0  0  0
   42.0773   36.5220   45.7013 O   0  0  0  0  0  0  0  0  0  0  0  0
   39.8446   36.4016   44.7103 O   0  0  0  0  0  0  0  0  0  0  0  0
   41.8570   36.7323   43.0735 C   0  0  0  0  0  0  0  0  0  0  0  0
   43.1046   36.3634   42.6179 C   0  0  0  0  0  0  0  0  0  0  0  0
   43.6507   36.8929   41.4598 C   0  0  0  0  0  0  0  0  0  0  0  0
   44.6122   36.6425   41.0616 H   0  0  0  0  0  0  0  0  0  0  0  0
   42.9245   37.8313   40.7209 C   0  0  0  0  0  0  0  0  0  0  0  0
   43.3063   38.2840   39.7970 H   0  0  0  0  0  0  0  0  0  0  0  0
   41.6868   38.1842   41.1912 C   0  0  0  0  0  0  0  0  0  0  0  0
   41.1207   37.6670   42.3477 C   0  0  0  0  0  0  0  0  0  0  0  0
   41.1179   38.9223   40.6082 H   0  0  0  0  0  0  0  0  0  0  0  0
   40.1405   37.9477   42.7181 H   0  0  0  0  0  0  0  0  0  0  0  0
  1  2  2  0
  2  3  1  0
  2 10  1  0
  4  3  2  0
  5  4  1  0
  6  5  2  0
  6  1  1  0
  7  9  1  0
  8  7  2  0
  9  1  1  0
  3 11  1  0
  5 12  1  0
  9 13  1  0
 10 14  1  0
 10 15  1  0
 16 17  1  0
 17 18  2  0
 17 19  2  0
 17 20  1  0
 20 21  2  0
 21 22  1  0
 22 23  1  0
 22 24  2  0
 24 25  1  0
 24 26  1  0
 26 27  2  0
 27 20  1  0
 26 28  1  0
 27 29  1  0
  7 21  1  0
M  ISO  5  11  14  12  14  16  12  23  15  25  16
M  END
>  <DihAtoms>  (1) 
8,6,20,19

>  <DihDeg>  (1) 
-121.2793412863025

$$$$
