
     RDKit          3D

 34 36  0  0  0  0  0  0  0  0999 V2000
   46.2573   34.7547   43.2365 C   0  0  0  0  0  0  0  0  0  0  0  0
   45.2922   35.7463   43.5879 C   0  0  0  0  0  0  0  0  0  0  0  0
   44.6631   35.5666   44.8105 C   0  0  0  0  0  0  0  0  0  0  0  0
   44.9949   34.4934   45.5688 N   0  0  0  0  0  0  0  0  0  0  0  0
   45.9250   33.5782   45.1788 C   0  0  0  0  0  0  0  0  0  0  0  0
   46.5594   33.6893   44.0314 N   0  0  0  0  0  0  0  0  0  0  0  0
   46.2154   32.4402   46.0840 C   0  0  1  0  0  0  0  0  0  0  0  0
   47.0321   32.6709   47.3327 C   0  0  0  0  0  0  0  0  0  0  0  0
   45.5368   32.5017   47.3964 C   0  0  1  0  0  0  0  0  0  0  0  0
   44.8577   33.7107   47.8041 N   0  0  0  0  0  0  0  0  0  0  0  0
   46.9249   34.9547   41.9659 C   0  0  0  0  0  0  0  0  0  0  0  0
   48.0764   35.5133   41.8711 O   0  0  0  0  0  0  0  0  0  0  0  0
   45.1061   36.5626   42.9039 H   0  0  0  0  0  0  0  0  0  0  0  0
   43.9279   36.2917   45.1157 H   0  0  0  0  0  0  0  0  0  0  0  0
   46.3688   31.4951   45.5391 H   0  0  0  0  0  0  0  0  0  0  0  0
   47.6103   31.8229   47.7248 H   0  0  0  0  0  0  0  0  0  0  0  0
   47.4826   33.6600   47.4170 H   0  0  0  0  0  0  0  0  0  0  0  0
   45.1152   31.5725   47.7992 H   0  0  0  0  0  0  0  0  0  0  0  0
   43.8851   33.8037   47.5588 H   0  0  0  0  0  0  0  0  0  0  0  0
   45.4394   34.5382   47.9304 H   0  0  0  0  0  0  0  0  0  0  0  0
   48.6894   32.8220   41.0342 H   0  0  0  0  0  0  0  0  0  0  0  0
   48.3370   33.3102   39.8163 S   0  0  0  0  0  0  0  0  0  0  0  0
   49.0914   34.5997   39.5231 O   0  0  0  0  0  0  0  0  0  0  0  0
   48.6950   32.2995   38.7686 O   0  0  0  0  0  0  0  0  0  0  0  0
   46.6418   33.6987   39.7996 C   0  0  0  0  0  0  0  0  0  0  0  0
   46.1388   34.4522   40.8402 C   0  0  0  0  0  0  0  0  0  0  0  0
   44.7679   34.7345   40.7746 C   0  0  0  0  0  0  0  0  0  0  0  0
   44.3550   35.3285   41.5886 H   0  0  0  0  0  0  0  0  0  0  0  0
   43.9441   34.3051   39.7541 C   0  0  0  0  0  0  0  0  0  0  0  0
   42.8941   34.5625   39.7712 H   0  0  0  0  0  0  0  0  0  0  0  0
   44.4862   33.5533   38.7314 C   0  0  0  0  0  0  0  0  0  0  0  0
   45.8340   33.2603   38.7706 C   0  0  0  0  0  0  0  0  0  0  0  0
   43.8615   33.2035   37.9178 H   0  0  0  0  0  0  0  0  0  0  0  0
   46.2294   32.6677   37.9521 H   0  0  0  0  0  0  0  0  0  0  0  0
  1  2  2  0
  1  6  1  0
  2  3  1  0
  3  4  2  0
  5  4  1  0
  5  7  1  0
  6  5  2  0
  7  8  1  0
  7  9  1  0
  8  9  1  0
  9 10  1  0
 11  1  1  0
 12 11  2  0
  2 13  1  0
  3 14  1  0
  7 15  1  6
  8 16  1  0
  8 17  1  0
  9 18  1  1
 10 19  1  0
 10 20  1  0
 21 22  1  0
 22 23  2  0
 22 24  2  0
 22 25  1  0
 25 26  2  0
 26 27  1  0
 27 28  1  0
 27 29  2  0
 29 30  1  0
 29 31  1  0
 31 32  2  0
 32 25  1  0
 31 33  1  0
 32 34  1  0
 11 26  1  0
M  ISO  8  13  14  14  14  15  13  16  13  17  13  18  13  19   5  20   5
M  ISO  3  21  12  28  15  30  16
M  END
>  <DihAtoms>  (1) 
0,10,25,24

>  <DihDeg>  (1) 
134.99805064701934

$$$$
