
     RDKit          3D

 42 44  0  0  0  0  0  0  0  0999 V2000
   45.1560   36.6980   43.3930 C   0  0  0  0  0  0  0  0  0  0  0  0
   44.1420   36.5440   42.4280 C   0  0  0  0  0  0  0  0  0  0  0  0
   44.2940   35.5120   41.4930 C   0  0  0  0  0  0  0  0  0  0  0  0
   45.3910   34.7210   41.5590 N   0  0  0  0  0  0  0  0  0  0  0  0
   46.3340   34.9060   42.5010 C   0  0  0  0  0  0  0  0  0  0  0  0
   46.2250   35.8900   43.4200 N   0  0  0  0  0  0  0  0  0  0  0  0
   48.9020   36.1080   41.4430 Cl  0  0  0  0  0  0  0  0  0  0  0  0
   48.7090   34.4900   42.0270 C   0  0  0  0  0  0  0  0  0  0  0  0
   47.4980   33.9980   42.5010 C   0  0  0  0  0  0  0  0  0  0  0  0
   47.3260   32.7250   42.9660 C   0  0  0  0  0  0  0  0  0  0  0  0
   48.4240   31.9030   42.9540 C   0  0  0  0  0  0  0  0  0  0  0  0
   49.6660   32.2810   42.5100 C   0  0  0  0  0  0  0  0  0  0  0  0
   49.7460   33.5850   42.0580 C   0  0  0  0  0  0  0  0  0  0  0  0
   45.0060   37.7830   44.3810 C   0  0  0  0  0  0  0  0  0  0  0  0
   45.3400   39.0010   44.0220 C   0  0  0  0  0  0  0  0  0  0  0  0
   45.1980   40.1120   45.0020 C   0  0  0  0  0  0  0  0  0  0  0  0
   44.4990   41.2020   44.3220 N   0  0  0  0  0  0  0  0  0  0  0  0
   44.0730   42.3220   45.5920 S   0  0  0  0  0  0  0  0  0  0  0  0
   44.0570   41.6450   46.9180 O   0  0  0  0  0  0  0  0  0  0  0  0
   45.1020   43.4170   45.5490 O   0  0  0  0  0  0  0  0  0  0  0  0
   42.5150   43.0150   45.1800 C   0  0  0  0  0  0  0  0  0  0  0  0
   42.3110   43.6960   43.9940 C   0  0  0  0  0  0  0  0  0  0  0  0
   41.1000   44.2360   43.6720 C   0  0  0  0  0  0  0  0  0  0  0  0
   40.0910   44.0520   44.6170 C   0  0  0  0  0  0  0  0  0  0  0  0
   40.2360   43.3780   45.8240 C   0  0  0  0  0  0  0  0  0  0  0  0
   41.4960   42.8470   46.1000 C   0  0  0  0  0  0  0  0  0  0  0  0
   43.2651   37.2079   42.4092 H   0  0  0  0  0  0  0  0  0  0  0  0
   43.5330   35.3466   40.7162 H   0  0  0  0  0  0  0  0  0  0  0  0
   46.3502   32.3747   43.3337 H   0  0  0  0  0  0  0  0  0  0  0  0
   48.3009   30.8745   43.3242 H   0  0  0  0  0  0  0  0  0  0  0  0
   50.5299   31.6001   42.5134 H   0  0  0  0  0  0  0  0  0  0  0  0
   50.7240   33.9297   41.6909 H   0  0  0  0  0  0  0  0  0  0  0  0
   44.6244   37.5771   45.3919 H   0  0  0  0  0  0  0  0  0  0  0  0
   45.7203   39.1979   43.0088 H   0  0  0  0  0  0  0  0  0  0  0  0
   44.6150   39.7751   45.8718 H   0  0  0  0  0  0  0  0  0  0  0  0
   46.1832   40.4441   45.3612 H   0  0  0  0  0  0  0  0  0  0  0  0
   45.1160   41.6538   43.6320 H   0  0  0  0  0  0  0  0  0  0  0  0
   43.1490   43.8056   43.2899 H   0  0  0  0  0  0  0  0  0  0  0  0
   40.9310   44.7796   42.7308 H   0  0  0  0  0  0  0  0  0  0  0  0
   39.1011   44.4741   44.3889 H   0  0  0  0  0  0  0  0  0  0  0  0
   39.3976   43.2686   46.5276 H   0  0  0  0  0  0  0  0  0  0  0  0
   41.6770   42.3013   47.0378 H   0  0  0  0  0  0  0  0  0  0  0  0
  1  6  1  0
  1 14  1  0
  2  1  2  0
  3  4  2  0
  3  2  1  0
  4  5  1  0
  5  6  2  0
  7  8  1  0
  8 13  2  0
  8  9  1  0
  9  5  1  0
  9 10  2  0
 11 10  1  0
 12 11  2  0
 13 12  1  0
 15 14  2  0
 15 16  1  0
 17 16  1  0
 17 18  1  0
 18 19  2  0
 20 18  2  0
 21 18  1  0
 21 26  1  0
 22 21  2  0
 23 22  1  0
 23 24  2  0
 24 25  1  0
 25 26  2  0
  2 27  1  0
  3 28  1  0
 10 29  1  0
 11 30  1  0
 12 31  1  0
 13 32  1  0
 14 33  1  0
 15 34  1  0
 16 35  1  0
 16 36  1  0
 17 37  1  0
 22 38  1  0
 23 39  1  0
 24 40  1  0
 25 41  1  0
 26 42  1  0
M  ISO  8  27  14  28  14  29  14  30  14  31  14  32  14  35   8  36   8
M  ISO  6  37   5  38  14  39  14  40  14  41  14  42  14
M  END
>  <minimizedAffinity>  (1) 
-4.04624605

>  <minimizedRMSD>  (1) 
0.84378767

$$$$
