
     RDKit          3D

 46 48  0  0  1  0  0  0  0  0999 V2000
   45.4730   33.7480   41.8200 C   0  0  0  0  0  0  0  0  0  0  0  0
   46.4520   34.7580   41.5380 C   0  0  0  0  0  0  0  0  0  0  0  0
   47.7930   34.3810   41.7660 C   0  0  0  0  0  0  0  0  0  0  0  0
   48.0420   33.1400   42.2170 N   0  0  0  0  0  0  0  0  0  0  0  0
   47.0730   32.2260   42.4670 C   0  0  0  0  0  0  0  0  0  0  0  0
   45.7790   32.5440   42.2620 N   0  0  0  0  0  0  0  0  0  0  0  0
   43.7550   34.0450   40.2490 C   0  0  0  0  0  0  0  0  0  0  0  0
   44.6770   33.8400   39.3890 O   0  0  0  0  0  0  0  0  0  0  0  0
   44.0840   34.0430   41.6180 N   0  0  0  0  0  0  0  0  0  0  0  0
   42.4450   34.2600   39.7520 N   0  0  0  0  0  0  0  0  0  0  0  0
   42.2490   34.5790   38.3240 C   0  0  0  0  0  0  0  0  0  0  0  0
   41.0330   35.4520   38.3580 C   0  0  0  0  0  0  0  0  0  0  0  0
   40.5720   35.4690   39.7850 C   0  0  0  0  0  0  0  0  0  0  0  0
   41.1570   34.2110   40.3780 C   0  0  1  0  0  0  0  0  0  0  0  0
   39.0550   32.7450   40.1910 C   0  0  0  0  0  0  0  0  0  0  0  0
   38.4680   33.8270   40.4360 O   0  0  0  0  0  0  0  0  0  0  0  0
   40.4770   32.9800   40.0120 N   0  0  0  0  0  0  0  0  0  0  0  0
   38.1580   30.6660   39.0220 C   0  0  0  0  0  0  0  0  0  0  0  0
   38.3810   31.4810   40.1070 C   0  0  0  0  0  0  0  0  0  0  0  0
   37.8940   31.0590   41.3470 C   0  0  0  0  0  0  0  0  0  0  0  0
   37.2020   29.8580   41.5030 C   0  0  0  0  0  0  0  0  0  0  0  0
   37.0280   29.1120   40.3620 C   0  0  0  0  0  0  0  0  0  0  0  0
   37.4840   29.4730   39.1140 C   0  0  0  0  0  0  0  0  0  0  0  0
   38.7920   31.2540   37.5160 S   0  0  0  0  0  0  0  0  0  0  0  0
   38.2720   32.6090   37.1480 O   0  0  0  0  0  0  0  0  0  0  0  0
   40.2830   31.3690   37.6270 O   0  0  0  0  0  0  0  0  0  0  0  0
   48.7720   35.4210   41.4710 C   0  0  0  0  0  0  0  0  0  0  0  0
   50.0200   35.0100   41.9320 F   0  0  0  0  0  0  0  0  0  0  0  0
   48.4350   36.5280   42.2630 F   0  0  0  0  0  0  0  0  0  0  0  0
   48.8730   35.7320   40.1430 F   0  0  0  0  0  0  0  0  0  0  0  0
   46.1766   35.7572   41.1695 H   0  0  0  0  0  0  0  0  0  0  0  0
   47.3421   31.2256   42.8368 H   0  0  0  0  0  0  0  0  0  0  0  0
   43.4132   34.2295   42.3771 H   0  0  0  0  0  0  0  0  0  0  0  0
   42.0698   33.6687   37.7331 H   0  0  0  0  0  0  0  0  0  0  0  0
   43.1219   35.0564   37.8547 H   0  0  0  0  0  0  0  0  0  0  0  0
   41.2847   36.4701   38.0261 H   0  0  0  0  0  0  0  0  0  0  0  0
   40.2480   35.0734   37.6869 H   0  0  0  0  0  0  0  0  0  0  0  0
   40.9518   36.3596   40.3071 H   0  0  0  0  0  0  0  0  0  0  0  0
   39.4762   35.5064   39.8733 H   0  0  0  0  0  0  0  0  0  0  0  0
   41.1131   34.1898   41.4769 H   0  0  0  0  0  0  0  0  0  0  0  0
   41.0409   32.2239   39.5982 H   0  0  0  0  0  0  0  0  0  0  0  0
   38.0619   31.6947   42.2289 H   0  0  0  0  0  0  0  0  0  0  0  0
   36.8188   29.5280   42.4799 H   0  0  0  0  0  0  0  0  0  0  0  0
   36.4861   28.1590   40.4522 H   0  0  0  0  0  0  0  0  0  0  0  0
   37.3165   28.8363   38.2328 H   0  0  0  0  0  0  0  0  0  0  0  0
   38.4012   30.3625   36.5519 H   0  0  0  0  0  0  0  0  0  0  0  0
  1  6  2  0
  2  3  2  0
  2  1  1  0
  3  4  1  0
  4  5  2  0
  6  5  1  0
  7  9  1  0
  8  7  2  0
  9  1  1  0
 10  7  1  0
 10 14  1  0
 11 12  1  0
 11 10  1  0
 12 13  1  0
 13 14  1  0
 15 16  2  0
 17 15  1  0
 17 14  1  0
 18 23  2  0
 18 19  1  0
 19 15  1  0
 19 20  2  0
 20 21  1  0
 22 21  2  0
 23 22  1  0
 24 26  2  0
 24 18  1  0
 25 24  2  0
 27  3  1  0
 27 28  1  0
 27 29  1  0
 30 27  1  0
  2 31  1  0
  5 32  1  0
  9 33  1  0
 11 34  1  0
 11 35  1  0
 12 36  1  0
 12 37  1  0
 13 38  1  0
 13 39  1  0
 14 40  1  1
 17 41  1  0
 20 42  1  0
 21 43  1  0
 22 44  1  0
 23 45  1  0
 24 46  1  0
M  ISO  8  31  14  32  14  34  13  35  13  36  13  37  13  38  13  39  13
M  ISO  6  40  13  42  14  43  14  44  14  45  14  46  11
M  END
>  <minimizedAffinity>  (1) 
-7.01008844

>  <minimizedRMSD>  (1) 
1.79263508

$$$$
