
     RDKit          3D

 30 31  0  0  0  0  0  0  0  0999 V2000
   45.2310   34.6270   43.0190 C   0  0  0  0  0  0  0  0  0  0  0  0
   46.2050   35.1270   42.1410 C   0  0  0  0  0  0  0  0  0  0  0  0
   47.5280   34.6930   42.3840 C   0  0  0  0  0  0  0  0  0  0  0  0
   47.7390   33.8560   43.4140 N   0  0  0  0  0  0  0  0  0  0  0  0
   46.7730   33.3970   44.2370 C   0  0  0  0  0  0  0  0  0  0  0  0
   45.4970   33.7960   44.0280 N   0  0  0  0  0  0  0  0  0  0  0  0
   43.2590   34.3580   41.7540 C   0  0  0  0  0  0  0  0  0  0  0  0
   43.9720   33.5210   41.0920 O   0  0  0  0  0  0  0  0  0  0  0  0
   43.8550   35.0050   42.8630 N   0  0  0  0  0  0  0  0  0  0  0  0
   41.0000   33.4890   41.1410 C   0  0  0  0  0  0  0  0  0  0  0  0
   41.9050   34.5010   41.2250 C   0  0  0  0  0  0  0  0  0  0  0  0
   41.6000   35.7800   40.8040 C   0  0  0  0  0  0  0  0  0  0  0  0
   40.3490   36.1010   40.2700 C   0  0  0  0  0  0  0  0  0  0  0  0
   39.4420   35.0370   40.1970 C   0  0  0  0  0  0  0  0  0  0  0  0
   39.7300   33.7510   40.6140 C   0  0  0  0  0  0  0  0  0  0  0  0
   41.4490   31.9160   41.6870 S   0  0  0  0  0  0  0  0  0  0  0  0
   40.4430   31.3690   42.6740 O   0  0  0  0  0  0  0  0  0  0  0  0
   41.5410   30.9100   40.5600 O   0  0  0  0  0  0  0  0  0  0  0  0
   48.5300   35.2260   41.4550 C   0  0  0  0  0  0  0  0  0  0  0  0
   49.7180   34.4960   41.6200 F   0  0  0  0  0  0  0  0  0  0  0  0
   48.8250   36.5090   41.8700 F   0  0  0  0  0  0  0  0  0  0  0  0
   48.1710   35.1330   40.1420 F   0  0  0  0  0  0  0  0  0  0  0  0
   45.9551   35.8120   41.3174 H   0  0  0  0  0  0  0  0  0  0  0  0
   47.0181   32.7117   45.0618 H   0  0  0  0  0  0  0  0  0  0  0  0
   43.3624   35.6652   43.4814 H   0  0  0  0  0  0  0  0  0  0  0  0
   42.3625   36.5680   40.8913 H   0  0  0  0  0  0  0  0  0  0  0  0
   40.0953   37.1164   39.9315 H   0  0  0  0  0  0  0  0  0  0  0  0
   38.4422   35.2360   39.7838 H   0  0  0  0  0  0  0  0  0  0  0  0
   38.9784   32.9518   40.5335 H   0  0  0  0  0  0  0  0  0  0  0  0
   42.6791   32.0787   42.2677 H   0  0  0  0  0  0  0  0  0  0  0  0
  1  6  2  0
  2  3  2  0
  2  1  1  0
  3  4  1  0
  4  5  2  0
  6  5  1  0
  7  9  1  0
  8  7  2  0
  9  1  1  0
 10 11  2  0
 10 16  1  0
 11  7  1  0
 12 11  1  0
 13 12  2  0
 14 13  1  0
 14 15  2  0
 15 10  1  0
 16 17  2  0
 18 16  2  0
 19 20  1  0
 19 21  1  0
 19  3  1  0
 22 19  1  0
  2 23  1  0
  5 24  1  0
  9 25  1  0
 12 26  1  0
 13 27  1  0
 14 28  1  0
 15 29  1  0
 16 30  1  0
M  ISO  7  23  14  24  14  26  14  27  14  28  14  29  14  30  11
M  END
>  <minimizedAffinity>  (1) 
-6.57569456

>  <minimizedRMSD>  (1) 
1.10306203

$$$$
