
     RDKit          3D

 50 53  0  0  0  0  0  0  0  0999 V2000
   46.4687   32.5406   46.7045 C   0  0  2  0  0  0  0  0  0  0  0  0
   46.3126   31.1090   46.1942 C   0  0  0  0  0  0  0  0  0  0  0  0
   46.9288   30.1754   47.1915 C   0  0  0  0  0  0  0  0  0  0  0  0
   46.4950   30.3989   48.5994 C   0  0  0  0  0  0  0  0  0  0  0  0
   46.5072   31.8136   48.9924 C   0  0  0  0  0  0  0  0  0  0  0  0
   45.7489   32.6868   47.9793 C   0  0  2  0  0  0  0  0  0  0  0  0
   46.0645   33.5321   45.7190 C   0  0  0  0  0  0  0  0  0  0  0  0
   45.0454   34.4225   46.0640 C   0  0  0  0  0  0  0  0  0  0  0  0
   44.6250   35.3790   45.1102 C   0  0  0  0  0  0  0  0  0  0  0  0
   45.2703   35.3640   43.8784 N   0  0  0  0  0  0  0  0  0  0  0  0
   46.2485   34.4736   43.6193 C   0  0  0  0  0  0  0  0  0  0  0  0
   46.6417   33.5725   44.5181 N   0  0  0  0  0  0  0  0  0  0  0  0
   46.8933   34.5237   42.3004 C   0  0  0  0  0  0  0  0  0  0  0  0
   48.0175   35.2683   42.0742 C   0  0  0  0  0  0  0  0  0  0  0  0
   48.6587   35.3495   40.8576 C   0  0  0  0  0  0  0  0  0  0  0  0
   48.0959   34.6214   39.8458 C   0  0  0  0  0  0  0  0  0  0  0  0
   46.9568   33.8576   40.0455 C   0  0  0  0  0  0  0  0  0  0  0  0
   46.3577   33.8115   41.2769 N   0  0  0  0  0  0  0  0  0  0  0  0
   44.4105   32.2931   47.9205 N   0  0  0  0  0  0  0  0  0  0  0  0
   47.5768   32.6583   46.8704 H   0  0  0  0  0  0  0  0  0  0  0  0
   45.2896   30.8800   45.9435 H   0  0  0  0  0  0  0  0  0  0  0  0
   46.9377   31.0094   45.2653 H   0  0  0  0  0  0  0  0  0  0  0  0
   48.0361   30.1564   47.1040 H   0  0  0  0  0  0  0  0  0  0  0  0
   46.6116   29.1368   46.9073 H   0  0  0  0  0  0  0  0  0  0  0  0
   45.5298   29.9136   48.8301 H   0  0  0  0  0  0  0  0  0  0  0  0
   47.2500   29.8665   49.2461 H   0  0  0  0  0  0  0  0  0  0  0  0
   46.1500   31.9503   50.0130 H   0  0  0  0  0  0  0  0  0  0  0  0
   47.5684   32.2007   48.9658 H   0  0  0  0  0  0  0  0  0  0  0  0
   45.9602   33.6813   48.4730 H   0  0  0  0  0  0  0  0  0  0  0  0
   44.5457   34.5340   46.9463 H   0  0  0  0  0  0  0  0  0  0  0  0
   43.8456   36.1097   45.2762 H   0  0  0  0  0  0  0  0  0  0  0  0
   48.4202   35.8260   42.9146 H   0  0  0  0  0  0  0  0  0  0  0  0
   49.5416   35.9699   40.7931 H   0  0  0  0  0  0  0  0  0  0  0  0
   48.5862   34.6692   38.8698 H   0  0  0  0  0  0  0  0  0  0  0  0
   46.5804   33.3131   39.1869 H   0  0  0  0  0  0  0  0  0  0  0  0
   44.0708   31.9511   46.9891 H   0  0  0  0  0  0  0  0  0  0  0  0
   43.2246   33.0430   48.8447 S   0  0  0  0  0  0  0  0  0  0  0  0
   43.0130   34.4392   48.2673 O   0  0  0  0  0  0  0  0  0  0  0  0
   41.8793   32.3635   48.7504 O   0  0  0  0  0  0  0  0  0  0  0  0
   43.7089   33.2379   50.5013 C   0  0  0  0  0  0  0  0  0  0  0  0
   44.5130   34.3493   50.7696 C   0  0  0  0  0  0  0  0  0  0  0  0
   44.8188   35.0345   49.9689 H   0  0  0  0  0  0  0  0  0  0  0  0
   45.0038   34.7161   52.0036 C   0  0  0  0  0  0  0  0  0  0  0  0
   45.6185   35.5801   52.1589 H   0  0  0  0  0  0  0  0  0  0  0  0
   44.6831   33.9272   53.0839 C   0  0  0  0  0  0  0  0  0  0  0  0
   44.9986   34.0976   54.1024 H   0  0  0  0  0  0  0  0  0  0  0  0
   43.8932   32.8174   52.8831 C   0  0  0  0  0  0  0  0  0  0  0  0
   43.4185   32.4773   51.6387 C   0  0  0  0  0  0  0  0  0  0  0  0
   43.5767   32.1244   53.6556 H   0  0  0  0  0  0  0  0  0  0  0  0
   42.7914   31.6272   51.3725 H   0  0  0  0  0  0  0  0  0  0  0  0
  1  6  1  0
  2  1  1  0
  2  3  1  0
  3  4  1  0
  4  5  1  0
  6  5  1  0
  7  8  2  0
  7  1  1  0
  9  8  1  0
 10  9  2  0
 11 10  1  0
 11 12  2  0
 12  7  1  0
 13 11  1  0
 14 13  2  0
 15 14  1  0
 16 17  1  0
 16 15  2  0
 17 18  2  0
 18 13  1  0
 19  6  1  0
  1 20  1  1
  2 21  1  0
  2 22  1  0
  3 23  1  0
  3 24  1  0
  4 25  1  0
  4 26  1  0
  5 27  1  0
  5 28  1  0
  6 29  1  1
  8 30  1  0
  9 31  1  0
 14 32  1  0
 15 33  1  0
 16 34  1  0
 17 35  1  0
 19 36  1  0
 37 38  2  0
 37 39  2  0
 37 40  1  0
 40 41  2  0
 41 42  1  0
 41 43  1  0
 43 44  1  0
 43 45  2  0
 45 46  1  0
 45 47  1  0
 47 48  2  0
 48 40  1  0
 47 49  1  0
 48 50  1  0
 19 37  1  0
M  ISO  8  20  13  21  13  22  13  23  13  24  13  25  13  26  13  27  13
M  ISO  8  28  13  29  13  30  14  31  14  32  14  33  14  34  14  35  14
M  ISO  4  36   5  42  14  44  15  46  16
M  END
>  <DihAtoms>  (1) 
5,18,36,37

>  <DihDeg>  (1) 
-124.18447715273874

$$$$
