
     RDKit          3D

 34 36  0  0  0  0  0  0  0  0999 V2000
   45.9760   32.7470   46.9330 C   0  0  0  0  0  0  0  0  0  0  0  0
   47.0990   31.9570   46.9820 C   0  0  0  0  0  0  0  0  0  0  0  0
   47.3290   31.0860   48.0270 C   0  0  0  0  0  0  0  0  0  0  0  0
   46.4120   30.9870   49.0730 C   0  0  0  0  0  0  0  0  0  0  0  0
   45.2960   31.7580   49.0450 C   0  0  0  0  0  0  0  0  0  0  0  0
   45.0960   32.6180   47.9870 C   0  0  0  0  0  0  0  0  0  0  0  0
   44.5780   35.5110   45.0090 C   0  0  0  0  0  0  0  0  0  0  0  0
   45.2360   35.4390   43.7860 C   0  0  0  0  0  0  0  0  0  0  0  0
   46.1750   34.4260   43.6140 C   0  0  0  0  0  0  0  0  0  0  0  0
   46.4170   33.5520   44.6340 N   0  0  0  0  0  0  0  0  0  0  0  0
   45.7390   33.6670   45.8250 C   0  0  0  0  0  0  0  0  0  0  0  0
   44.8190   34.6450   46.0160 N   0  0  0  0  0  0  0  0  0  0  0  0
   48.8160   30.0950   48.0110 S   0  0  0  0  0  0  0  0  0  0  0  0
   50.3970   29.2050   49.9430 C   0  0  0  0  0  0  0  0  0  0  0  0
   49.8070   30.3750   49.4590 C   0  0  0  0  0  0  0  0  0  0  0  0
   50.0420   31.5610   50.1180 C   0  0  0  0  0  0  0  0  0  0  0  0
   50.8530   31.5660   51.2370 C   0  0  0  0  0  0  0  0  0  0  0  0
   51.4310   30.4310   51.7170 C   0  0  0  0  0  0  0  0  0  0  0  0
   51.2110   29.2280   51.0730 C   0  0  0  0  0  0  0  0  0  0  0  0
   50.1970   27.6080   49.2160 S   0  0  0  0  0  0  0  0  0  0  0  0
   51.2500   27.4720   48.1440 O   0  0  0  0  0  0  0  0  0  0  0  0
   50.3670   26.5300   50.2330 O   0  0  0  0  0  0  0  0  0  0  0  0
   47.8343   32.0206   46.1664 H   0  0  0  0  0  0  0  0  0  0  0  0
   46.5909   30.2941   49.9084 H   0  0  0  0  0  0  0  0  0  0  0  0
   44.5582   31.6972   49.8586 H   0  0  0  0  0  0  0  0  0  0  0  0
   44.1853   33.2349   47.9829 H   0  0  0  0  0  0  0  0  0  0  0  0
   43.8319   36.3047   45.1618 H   0  0  0  0  0  0  0  0  0  0  0  0
   45.0217   36.1582   42.9818 H   0  0  0  0  0  0  0  0  0  0  0  0
   46.7184   34.3305   42.6624 H   0  0  0  0  0  0  0  0  0  0  0  0
   49.5884   32.4959   49.7571 H   0  0  0  0  0  0  0  0  0  0  0  0
   51.0374   32.5179   51.7565 H   0  0  0  0  0  0  0  0  0  0  0  0
   52.0693   30.4709   52.6120 H   0  0  0  0  0  0  0  0  0  0  0  0
   51.6721   28.3022   51.4475 H   0  0  0  0  0  0  0  0  0  0  0  0
   48.9364   27.4833   48.6942 H   0  0  0  0  0  0  0  0  0  0  0  0
  1  2  2  0
  1  6  1  0
  2  3  1  0
  3  4  2  0
  5  4  1  0
  6  5  2  0
  7 12  2  0
  8  7  1  0
  9  8  2  0
  9 10  1  0
 10 11  2  0
 11 12  1  0
 11  1  1  0
 13  3  1  0
 13 15  1  0
 14 19  2  0
 15 14  1  0
 15 16  2  0
 16 17  1  0
 17 18  2  0
 19 18  1  0
 20 14  1  0
 20 22  2  0
 21 20  2  0
  2 23  1  0
  4 24  1  0
  5 25  1  0
  6 26  1  0
  7 27  1  0
  8 28  1  0
  9 29  1  0
 16 30  1  0
 17 31  1  0
 18 32  1  0
 19 33  1  0
 20 34  1  0
M  ISO  8  23  14  24  14  25  14  26  14  27  14  28  14  29  14  30  14
M  ISO  4  31  14  32  14  33  14  34  11
M  END
>  <minimizedAffinity>  (1) 
-5.84152126

>  <minimizedRMSD>  (1) 
1.44691706

$$$$
