
     RDKit          3D

 49 53  0  0  1  0  0  0  0  0999 V2000
   45.5870   35.8090   43.0240 C   0  0  0  0  0  0  0  0  0  0  0  0
   44.7940   35.2470   41.9220 C   0  0  0  0  0  0  0  0  0  0  0  0
   43.5260   35.6500   41.5740 C   0  0  0  0  0  0  0  0  0  0  0  0
   42.8220   35.0880   40.5370 C   0  0  0  0  0  0  0  0  0  0  0  0
   43.4060   34.0800   39.8140 C   0  0  0  0  0  0  0  0  0  0  0  0
   44.6910   33.6560   40.1480 C   0  0  0  0  0  0  0  0  0  0  0  0
   45.3960   34.2360   41.2050 C   0  0  0  0  0  0  0  0  0  0  0  0
   46.6670   33.6130   41.2870 N   0  0  0  0  0  0  0  0  0  0  0  0
   46.9610   32.3100   41.1230 C   0  0  0  0  0  0  0  0  0  0  0  0
   48.2670   32.1140   41.2810 N   0  0  0  0  0  0  0  0  0  0  0  0
   48.8520   33.2950   41.5540 C   0  0  0  0  0  0  0  0  0  0  0  0
   50.1200   33.7230   41.8060 C   0  0  0  0  0  0  0  0  0  0  0  0
   50.4170   35.0210   42.0550 N   0  0  0  0  0  0  0  0  0  0  0  0
   49.4160   35.9450   42.0580 C   0  0  0  0  0  0  0  0  0  0  0  0
   48.1640   35.5440   41.8110 N   0  0  0  0  0  0  0  0  0  0  0  0
   47.8390   34.2620   41.5610 C   0  0  0  0  0  0  0  0  0  0  0  0
   51.1250   32.7150   41.7910 N   0  0  0  0  0  0  0  0  0  0  0  0
   44.7480   35.0880   45.2410 C   0  0  0  0  0  0  0  0  0  0  0  0
   45.5960   34.8970   44.1550 C   0  0  0  0  0  0  0  0  0  0  0  0
   46.4500   33.7950   44.2030 C   0  0  0  0  0  0  0  0  0  0  0  0
   46.4470   32.9500   45.2620 N   0  0  0  0  0  0  0  0  0  0  0  0
   45.6070   33.1710   46.2980 C   0  0  0  0  0  0  0  0  0  0  0  0
   44.7560   34.2360   46.2960 N   0  0  0  0  0  0  0  0  0  0  0  0
   47.0860   31.7650   47.7190 C   0  0  2  0  0  0  0  0  0  0  0  0
   45.6320   32.2310   47.4190 C   0  0  1  0  0  0  0  0  0  0  0  0
   45.3190   32.7450   48.6300 O   0  0  0  0  0  0  0  0  0  0  0  0
   45.7190   31.8570   49.5860 C   0  0  0  0  0  0  0  0  0  0  0  0
   46.7660   30.9460   48.9770 C   0  0  2  0  0  0  0  0  0  0  0  0
   47.8430   32.8100   48.1010 O   0  0  0  0  0  0  0  0  0  0  0  0
   47.8530   30.7300   49.7690 O   0  0  0  0  0  0  0  0  0  0  0  0
   45.1475   36.7683   43.3349 H   0  0  0  0  0  0  0  0  0  0  0  0
   46.6204   35.9620   42.6795 H   0  0  0  0  0  0  0  0  0  0  0  0
   43.0545   36.4585   42.1519 H   0  0  0  0  0  0  0  0  0  0  0  0
   41.8092   35.4399   40.2913 H   0  0  0  0  0  0  0  0  0  0  0  0
   42.8658   33.6106   38.9787 H   0  0  0  0  0  0  0  0  0  0  0  0
   45.1596   32.8479   39.5671 H   0  0  0  0  0  0  0  0  0  0  0  0
   46.2285   31.5225   40.8921 H   0  0  0  0  0  0  0  0  0  0  0  0
   49.6338   37.0041   42.2603 H   0  0  0  0  0  0  0  0  0  0  0  0
   52.1075   32.9646   41.9732 H   0  0  0  0  0  0  0  0  0  0  0  0
   50.8697   31.7360   41.5980 H   0  0  0  0  0  0  0  0  0  0  0  0
   44.0588   35.9453   45.2441 H   0  0  0  0  0  0  0  0  0  0  0  0
   47.1385   33.6087   43.3656 H   0  0  0  0  0  0  0  0  0  0  0  0
   47.6143   31.2713   46.8901 H   0  0  0  0  0  0  0  0  0  0  0  0
   44.9117   31.4716   47.0806 H   0  0  0  0  0  0  0  0  0  0  0  0
   46.1489   32.3990   50.4413 H   0  0  0  0  0  0  0  0  0  0  0  0
   44.8607   31.2667   49.9396 H   0  0  0  0  0  0  0  0  0  0  0  0
   46.4318   29.9124   48.8037 H   0  0  0  0  0  0  0  0  0  0  0  0
   47.8732   32.8517   49.0897 H   0  0  0  0  0  0  0  0  0  0  0  0
   47.5840   30.7834   50.7203 H   0  0  0  0  0  0  0  0  0  0  0  0
  1 19  1  0
  2  1  1  0
  3  2  2  0
  4  3  1  0
  5  6  1  0
  5  4  2  0
  6  7  2  0
  7  8  1  0
  7  2  1  0
  8 16  1  0
  9 10  2  0
  9  8  1  0
 10 11  1  0
 11 16  2  0
 11 12  1  0
 12 13  2  0
 13 14  1  0
 15 14  2  0
 16 15  1  0
 17 12  1  0
 18 23  2  0
 19 20  2  0
 19 18  1  0
 20 21  1  0
 21 22  2  0
 22 25  1  0
 23 22  1  0
 24 29  1  0
 24 28  1  0
 25 24  1  0
 25 26  1  0
 26 27  1  0
 28 27  1  0
 28 30  1  0
  1 31  1  0
  1 32  1  0
  3 33  1  0
  4 34  1  0
  5 35  1  0
  6 36  1  0
  9 37  1  0
 14 38  1  0
 17 39  1  0
 17 40  1  0
 18 41  1  0
 20 42  1  0
 24 43  1  6
 25 44  1  6
 27 45  1  0
 27 46  1  0
 28 47  1  6
 29 48  1  0
 30 49  1  0
M  ISO  8  31   8  32   8  33  14  34  14  35  14  36  14  37  14  38  14
M  ISO  8  41  14  42  14  43  13  44  13  45  13  46  13  47  13  48   3
M  ISO  1  49   3
M  END
>  <minimizedAffinity>  (1) 
-7.37955046

>  <minimizedRMSD>  (1) 
0.578646362

$$$$
