
     RDKit          3D

 50 53  0  0  0  0  0  0  0  0999 V2000
   47.5267   34.4451   40.7655 C   0  0  0  0  0  0  0  0  0  0  0  0
   48.7833   33.7687   41.1291 C   0  0  0  0  0  0  0  0  0  0  0  0
   49.1124   32.6298   40.4197 C   0  0  0  0  0  0  0  0  0  0  0  0
   50.2632   31.9248   40.6811 C   0  0  0  0  0  0  0  0  0  0  0  0
   51.0687   32.4236   41.6941 N   0  0  0  0  0  0  0  0  0  0  0  0
   50.7108   33.5424   42.3654 C   0  0  0  0  0  0  0  0  0  0  0  0
   49.5910   34.1944   42.0826 N   0  0  0  0  0  0  0  0  0  0  0  0
   48.0126   32.0487   39.1200 S   0  0  0  0  0  0  0  0  0  0  0  0
   48.8247   32.1650   37.5112 C   0  0  0  0  0  0  0  0  0  0  0  0
   48.4893   33.4939   36.8956 C   0  0  0  0  0  0  0  0  0  0  0  0
   48.1865   33.2823   35.5111 N   0  0  0  0  0  0  0  0  0  0  0  0
   46.7559   34.9495   41.9426 C   0  0  0  0  0  0  0  0  0  0  0  0
   45.2804   34.9393   41.7544 C   0  0  0  0  0  0  0  0  0  0  0  0
   44.4329   35.5938   42.6900 C   0  0  0  0  0  0  0  0  0  0  0  0
   42.7608   35.2984   42.0283 S   0  0  0  0  0  0  0  0  0  0  0  0
   43.4865   34.3160   40.5605 C   0  0  0  0  0  0  0  0  0  0  0  0
   44.6014   34.3763   40.7856 N   0  0  0  0  0  0  0  0  0  0  0  0
   42.7043   33.7482   39.5720 O   0  0  0  0  0  0  0  0  0  0  0  0
   40.7475   33.9764   37.7991 O   0  0  0  0  0  0  0  0  0  0  0  0
   41.7774   34.7862   38.5980 P   0  0  1  0  0  0  0  0  0  0  0  0
   40.9343   35.8437   39.6373 O   0  0  0  0  0  0  0  0  0  0  0  0
   42.7834   35.7043   37.6096 O   0  0  0  0  0  0  0  0  0  0  0  0
   46.8466   33.7785   40.1948 H   0  0  0  0  0  0  0  0  0  0  0  0
   47.7054   35.3304   40.0870 H   0  0  0  0  0  0  0  0  0  0  0  0
   50.5441   31.0373   40.1463 H   0  0  0  0  0  0  0  0  0  0  0  0
   51.3388   33.9336   43.1572 H   0  0  0  0  0  0  0  0  0  0  0  0
   48.5431   31.3031   36.8609 H   0  0  0  0  0  0  0  0  0  0  0  0
   49.9232   32.1031   37.6959 H   0  0  0  0  0  0  0  0  0  0  0  0
   47.6147   33.9470   37.4158 H   0  0  0  0  0  0  0  0  0  0  0  0
   49.3276   34.2105   37.0188 H   0  0  0  0  0  0  0  0  0  0  0  0
   48.3420   34.1821   34.9884 H   0  0  0  0  0  0  0  0  0  0  0  0
   48.8368   32.5766   35.0800 H   0  0  0  0  0  0  0  0  0  0  0  0
   46.9662   34.2493   42.7890 H   0  0  0  0  0  0  0  0  0  0  0  0
   47.0945   35.9545   42.2882 H   0  0  0  0  0  0  0  0  0  0  0  0
   44.7408   36.1287   43.5712 H   0  0  0  0  0  0  0  0  0  0  0  0
   40.2646   35.3008   40.1508 H   0  0  0  0  0  0  0  0  0  0  0  0
   41.7932   33.7879   35.7499 H   0  0  0  0  0  0  0  0  0  0  0  0
   42.7191   34.2443   35.5946 N   0  0  0  0  0  0  0  0  0  0  0  0
   43.2633   35.1620   36.4244 C   0  0  0  0  0  0  0  0  0  0  0  0
   44.4681   35.5540   35.9356 N   0  0  0  0  0  0  0  0  0  0  0  0
   44.7138   34.8939   34.7864 C   0  0  0  0  0  0  0  0  0  0  0  0
   45.7248   34.8519   33.8502 C   0  0  0  0  0  0  0  0  0  0  0  0
   46.8564   35.6903   34.0582 N   0  0  0  0  0  0  0  0  0  0  0  0
   46.6224   36.6043   33.5990 H   0  0  0  0  0  0  0  0  0  0  0  0
   45.7085   34.0712   32.7570 N   0  0  0  0  0  0  0  0  0  0  0  0
   44.6023   33.2869   32.6038 C   0  0  0  0  0  0  0  0  0  0  0  0
   44.5975   32.6621   31.7217 H   0  0  0  0  0  0  0  0  0  0  0  0
   43.6036   33.3119   33.5053 N   0  0  0  0  0  0  0  0  0  0  0  0
   43.6147   34.0960   34.6078 C   0  0  0  0  0  0  0  0  0  0  0  0
   47.8063   35.8069   34.4577 H   0  0  0  0  0  0  0  0  0  0  0  0
  1  2  1  0
  1 12  1  0
  2  7  2  0
  3  4  2  0
  3  2  1  0
  4  5  1  0
  5  6  2  0
  7  6  1  0
  8  3  1  0
  9  8  1  0
 10  9  1  0
 11 10  1  0
 13 12  1  0
 13 14  2  0
 15 14  1  0
 16 17  2  0
 16 15  1  0
 17 13  1  0
 18 16  1  0
 19 20  2  0
 20 18  1  1
 20 21  1  0
 22 20  1  0
  1 23  1  0
  1 24  1  0
  4 25  1  0
  6 26  1  0
  9 27  1  0
  9 28  1  0
 10 29  1  0
 10 30  1  0
 11 31  1  0
 11 32  1  0
 12 33  1  0
 12 34  1  0
 14 35  1  0
 21 36  1  0
 37 38  1  0
 38 39  1  0
 39 40  2  0
 40 41  1  0
 41 42  2  0
 42 43  1  0
 43 44  1  0
 42 45  1  0
 45 46  2  0
 46 47  1  0
 46 48  1  0
 48 49  2  0
 49 38  1  0
 49 41  1  0
 43 50  1  0
 22 39  1  0
M  ISO  8  23   8  24   8  25  14  26  14  27   8  28   8  29   8  30   8
M  ISO  8  31   5  32   5  33   8  34   8  35  14  36   3  37   9  44   5
M  ISO  1  47  16
M  END
>  <DihAtoms>  (1) 
19,21,38,37

>  <DihDeg>  (1) 
-0.000978913311226746

$$$$
