
     RDKit          3D

 32 34  0  0  0  0  0  0  0  0999 V2000
   47.1671   33.9846   42.4775 C   0  0  0  0  0  0  0  0  0  0  0  0
   45.2930   34.2262   45.6939 C   0  0  0  0  0  0  0  0  0  0  0  0
   46.1701   33.7474   44.6985 C   0  0  0  0  0  0  0  0  0  0  0  0
   46.2644   34.4609   43.5249 C   0  0  0  0  0  0  0  0  0  0  0  0
   45.5122   35.5962   43.3680 N   0  0  0  0  0  0  0  0  0  0  0  0
   44.6796   36.0266   44.3466 C   0  0  0  0  0  0  0  0  0  0  0  0
   44.5694   35.3490   45.5003 N   0  0  0  0  0  0  0  0  0  0  0  0
   48.3128   33.4109   43.0111 O   0  0  0  0  0  0  0  0  0  0  0  0
   50.6570   33.1109   41.9083 O   0  0  0  0  0  0  0  0  0  0  0  0
   49.6262   34.1591   42.2287 P   0  0  2  0  0  0  0  0  0  0  0  0
   50.2089   35.3631   43.2495 O   0  0  0  0  0  0  0  0  0  0  0  0
   49.0603   34.7910   40.7797 O   0  0  0  0  0  0  0  0  0  0  0  0
   46.6834   33.2139   41.8133 H   0  0  0  0  0  0  0  0  0  0  0  0
   47.3633   34.8410   41.8023 H   0  0  0  0  0  0  0  0  0  0  0  0
   45.1626   33.7242   46.6413 H   0  0  0  0  0  0  0  0  0  0  0  0
   46.7291   32.8366   44.9086 H   0  0  0  0  0  0  0  0  0  0  0  0
   44.0880   36.9282   44.2111 H   0  0  0  0  0  0  0  0  0  0  0  0
   51.0887   35.1707   43.6426 H   0  0  0  0  0  0  0  0  0  0  0  0
   50.2951   35.4179   38.3124 H   0  0  0  0  0  0  0  0  0  0  0  0
   50.1053   36.1725   39.0111 N   0  0  0  0  0  0  0  0  0  0  0  0
   49.5249   35.9645   40.2036 C   0  0  0  0  0  0  0  0  0  0  0  0
   49.4480   37.1690   40.8244 N   0  0  0  0  0  0  0  0  0  0  0  0
   49.9771   38.1122   40.0205 C   0  0  0  0  0  0  0  0  0  0  0  0
   50.1892   39.4684   40.0656 C   0  0  0  0  0  0  0  0  0  0  0  0
   49.7805   40.1803   41.2278 N   0  0  0  0  0  0  0  0  0  0  0  0
   48.7394   40.2873   41.3215 H   0  0  0  0  0  0  0  0  0  0  0  0
   50.7644   40.1708   39.0703 N   0  0  0  0  0  0  0  0  0  0  0  0
   51.1683   39.5327   37.9466 C   0  0  0  0  0  0  0  0  0  0  0  0
   51.6415   39.9468   37.0661 H   0  0  0  0  0  0  0  0  0  0  0  0
   50.9653   38.2147   37.8959 N   0  0  0  0  0  0  0  0  0  0  0  0
   50.3949   37.4837   38.8700 C   0  0  0  0  0  0  0  0  0  0  0  0
   50.0276   40.6951   42.1131 H   0  0  0  0  0  0  0  0  0  0  0  0
  1  8  1  0
  1  4  1  0
  3  2  2  0
  4  3  1  0
  5  4  2  0
  5  6  1  0
  6  7  2  0
  7  2  1  0
  9 10  2  0
 10  8  1  1
 10 11  1  0
 12 10  1  0
  1 13  1  0
  1 14  1  0
  2 15  1  0
  3 16  1  0
  6 17  1  0
 11 18  1  0
 19 20  1  0
 20 21  1  0
 21 22  2  0
 22 23  1  0
 23 24  2  0
 24 25  1  0
 25 26  1  0
 24 27  1  0
 27 28  2  0
 28 29  1  0
 28 30  1  0
 30 31  2  0
 31 20  1  0
 31 23  1  0
 25 32  1  0
 12 21  1  0
M  ISO  8  13   8  14   8  15  14  16  14  17  14  18   3  19   9  26   5
M  ISO  1  29  16
M  END
>  <DihAtoms>  (1) 
9,11,20,19

>  <DihDeg>  (1) 
6.754143117934402e-05

$$$$
