
     RDKit          3D

 29 31  0  0  0  0  0  0  0  0999 V2000
   44.8010   34.5270   43.1510 O   0  0  0  0  0  0  0  0  0  0  0  0
   45.1250   32.0980   43.8430 N   0  0  0  0  0  0  0  0  0  0  0  0
   45.2140   33.4540   43.9260 C   0  0  0  0  0  0  0  0  0  0  0  0
   45.8870   33.7110   45.0820 N   0  0  0  0  0  0  0  0  0  0  0  0
   46.1960   32.5480   45.6810 C   0  0  0  0  0  0  0  0  0  0  0  0
   46.8450   32.1620   46.8290 C   0  0  0  0  0  0  0  0  0  0  0  0
   47.0020   30.8710   47.1710 N   0  0  0  0  0  0  0  0  0  0  0  0
   46.5160   29.9060   46.3770 C   0  0  0  0  0  0  0  0  0  0  0  0
   45.8820   30.2750   45.2550 N   0  0  0  0  0  0  0  0  0  0  0  0
   45.7130   31.5420   44.8960 C   0  0  0  0  0  0  0  0  0  0  0  0
   47.3730   33.1630   47.6920 N   0  0  0  0  0  0  0  0  0  0  0  0
   46.0580   34.3680   40.8650 O   0  0  0  0  0  0  0  0  0  0  0  0
   44.6730   34.4500   41.4700 P   0  0  2  0  0  0  0  0  0  0  0  0
   43.8220   35.7650   40.8630 O   0  0  0  0  0  0  0  0  0  0  0  0
   43.8000   33.0270   41.0830 O   0  0  0  0  0  0  0  0  0  0  0  0
   40.5260   31.7020   42.0410 C   0  0  0  0  0  0  0  0  0  0  0  0
   41.9090   31.7760   41.7680 C   0  0  0  0  0  0  0  0  0  0  0  0
   42.4400   32.9830   41.3450 C   0  0  0  0  0  0  0  0  0  0  0  0
   41.5970   34.0420   41.2140 N   0  0  0  0  0  0  0  0  0  0  0  0
   40.2850   33.9570   41.4770 C   0  0  0  0  0  0  0  0  0  0  0  0
   39.7510   32.8020   41.8870 N   0  0  0  0  0  0  0  0  0  0  0  0
   44.6696   31.5805   43.0777 H   0  0  0  0  0  0  0  0  0  0  0  0
   46.6339   28.8440   46.6383 H   0  0  0  0  0  0  0  0  0  0  0  0
   47.8624   32.8916   48.5567 H   0  0  0  0  0  0  0  0  0  0  0  0
   47.2657   34.1589   47.4519 H   0  0  0  0  0  0  0  0  0  0  0  0
   43.4716   36.3065   41.6141 H   0  0  0  0  0  0  0  0  0  0  0  0
   40.0795   30.7547   42.3775 H   0  0  0  0  0  0  0  0  0  0  0  0
   42.5524   30.8920   41.8889 H   0  0  0  0  0  0  0  0  0  0  0  0
   39.6443   34.8427   41.3547 H   0  0  0  0  0  0  0  0  0  0  0  0
  1  3  1  0
  2  3  1  0
  2 10  1  0
  3  4  2  0
  4  5  1  0
  5  6  2  0
  6  7  1  0
  6 11  1  0
  8  7  2  0
  9  8  1  0
 10  9  2  0
 10  5  1  0
 13 12  2  0
 13  1  1  0
 14 13  1  0
 15 18  1  0
 15 13  1  0
 17 16  2  0
 18 17  1  0
 19 18  2  0
 19 20  1  0
 20 21  2  0
 21 16  1  0
  2 22  1  0
  8 23  1  0
 11 24  1  0
 11 25  1  0
 14 26  1  0
 16 27  1  0
 17 28  1  0
 20 29  1  0
M  ISO  6  22   9  23  14  26   3  27  14  28  14  29  14
M  END
>  <minimizedAffinity>  (1) 
-5.07064295

>  <minimizedRMSD>  (1) 
4.32622099

$$$$
