
     RDKit          3D

 31 33  0  0  0  0  0  0  0  0999 V2000
   46.5335   33.6176   44.3358 C   0  0  0  0  0  0  0  0  0  0  0  0
   46.2321   33.2040   45.6466 C   0  0  0  0  0  0  0  0  0  0  0  0
   45.2935   33.9044   46.3650 C   0  0  0  0  0  0  0  0  0  0  0  0
   44.6968   34.9686   45.7717 N   0  0  0  0  0  0  0  0  0  0  0  0
   44.9908   35.3537   44.5238 C   0  0  0  0  0  0  0  0  0  0  0  0
   45.9016   34.6896   43.8025 N   0  0  0  0  0  0  0  0  0  0  0  0
   45.0359   33.4617   47.6437 O   0  0  0  0  0  0  0  0  0  0  0  0
   45.3143   30.8684   47.4693 O   0  0  0  0  0  0  0  0  0  0  0  0
   45.8113   32.1024   48.2683 P   0  0  2  0  0  0  0  0  0  0  0  0
   45.3198   31.8228   49.8524 O   0  0  0  0  0  0  0  0  0  0  0  0
   47.4555   32.1877   48.1135 O   0  0  0  0  0  0  0  0  0  0  0  0
   48.4738   31.4186   48.5369 C   0  0  0  0  0  0  0  0  0  0  0  0
   49.2312   32.0425   49.4334 O   0  0  0  0  0  0  0  0  0  0  0  0
   47.2511   33.1399   43.6901 H   0  0  0  0  0  0  0  0  0  0  0  0
   46.8115   32.3471   45.9118 H   0  0  0  0  0  0  0  0  0  0  0  0
   44.4729   36.2151   44.1151 H   0  0  0  0  0  0  0  0  0  0  0  0
   45.8390   32.4192   50.4538 H   0  0  0  0  0  0  0  0  0  0  0  0
   50.6025   30.4288   46.7563 H   0  0  0  0  0  0  0  0  0  0  0  0
   50.0782   29.8694   47.4663 N   0  0  0  0  0  0  0  0  0  0  0  0
   49.1174   30.0554   48.3694 C   0  0  0  0  0  0  0  0  0  0  0  0
   48.8488   28.9044   49.0186 N   0  0  0  0  0  0  0  0  0  0  0  0
   49.6440   27.9611   48.5317 C   0  0  0  0  0  0  0  0  0  0  0  0
   49.7306   26.6300   48.8838 C   0  0  0  0  0  0  0  0  0  0  0  0
   48.8994   26.0987   49.8931 N   0  0  0  0  0  0  0  0  0  0  0  0
   47.8701   25.9017   49.9372 H   0  0  0  0  0  0  0  0  0  0  0  0
   50.6249   25.8532   48.2422 N   0  0  0  0  0  0  0  0  0  0  0  0
   51.3747   26.4713   47.2858 C   0  0  0  0  0  0  0  0  0  0  0  0
   52.1374   25.9547   46.6906 H   0  0  0  0  0  0  0  0  0  0  0  0
   51.2791   27.7674   46.9544 N   0  0  0  0  0  0  0  0  0  0  0  0
   50.4089   28.5608   47.5661 C   0  0  0  0  0  0  0  0  0  0  0  0
   47.8917   25.8540   50.0716 H   0  0  0  0  0  0  0  0  0  0  0  0
  1  2  2  0
  2  3  1  0
  3  7  1  0
  4  3  2  0
  5  4  1  0
  6  1  1  0
  6  5  2  0
  9  7  1  6
  9  8  2  0
  9 10  1  0
 11  9  1  0
 11 12  1  0
 12 13  2  0
  1 14  1  0
  2 15  1  0
  5 16  1  0
 10 17  1  0
 18 19  1  0
 19 20  1  0
 20 21  2  0
 21 22  1  0
 22 23  2  0
 23 24  1  0
 24 25  1  0
 23 26  1  0
 26 27  2  0
 27 28  1  0
 27 29  1  0
 29 30  2  0
 30 19  1  0
 30 22  1  0
 24 31  1  0
 12 20  1  0
M  ISO  7  14  14  15  14  16  14  17   3  18   9  25   5  28  16
M  END
>  <DihAtoms>  (1) 
10,11,19,18

>  <DihDeg>  (1) 
-179.2041363703087

$$$$
