
     RDKit          3D

 24 26  0  0  0  0  0  0  0  0999 V2000
   45.3020   33.5660   42.1710 N   0  0  0  0  0  0  0  0  0  0  0  0
   44.4070   34.5600   42.0910 C   0  0  0  0  0  0  0  0  0  0  0  0
   44.1980   35.0620   43.3360 N   0  0  0  0  0  0  0  0  0  0  0  0
   44.9550   34.3970   44.2240 C   0  0  0  0  0  0  0  0  0  0  0  0
   45.1800   34.4370   45.5890 C   0  0  0  0  0  0  0  0  0  0  0  0
   46.0620   33.5580   46.1400 N   0  0  0  0  0  0  0  0  0  0  0  0
   46.7020   32.6690   45.3620 C   0  0  0  0  0  0  0  0  0  0  0  0
   46.5000   32.6080   44.0120 N   0  0  0  0  0  0  0  0  0  0  0  0
   45.6270   33.4720   43.4520 C   0  0  0  0  0  0  0  0  0  0  0  0
   44.4530   35.4140   46.3150 N   0  0  0  0  0  0  0  0  0  0  0  0
   43.4610   35.3510   40.7990 S   0  0  0  0  0  0  0  0  0  0  0  0
   39.4990   34.7080   40.3840 C   0  0  0  0  0  0  0  0  0  0  0  0
   39.3850   33.3960   40.9330 C   0  0  0  0  0  0  0  0  0  0  0  0
   40.5470   32.7920   41.3980 C   0  0  0  0  0  0  0  0  0  0  0  0
   41.7300   33.4440   41.3220 N   0  0  0  0  0  0  0  0  0  0  0  0
   41.8030   34.7050   40.7880 C   0  0  0  0  0  0  0  0  0  0  0  0
   40.7030   35.3180   40.3300 N   0  0  0  0  0  0  0  0  0  0  0  0
   45.6633   32.9925   41.3955 H   0  0  0  0  0  0  0  0  0  0  0  0
   47.4111   31.9680   45.8266 H   0  0  0  0  0  0  0  0  0  0  0  0
   44.5757   35.4951   47.3344 H   0  0  0  0  0  0  0  0  0  0  0  0
   43.8022   36.0427   45.8230 H   0  0  0  0  0  0  0  0  0  0  0  0
   38.6048   35.2237   40.0040 H   0  0  0  0  0  0  0  0  0  0  0  0
   38.4140   32.8820   40.9862 H   0  0  0  0  0  0  0  0  0  0  0  0
   40.5048   31.7809   41.8291 H   0  0  0  0  0  0  0  0  0  0  0  0
  1  9  1  0
  2  1  1  0
  2  3  2  0
  3  4  1  0
  4  5  2  0
  5  6  1  0
  5 10  1  0
  7  6  2  0
  8  7  1  0
  9  8  2  0
  9  4  1  0
 11  2  1  0
 12 13  2  0
 13 14  1  0
 15 14  2  0
 16 11  1  0
 16 15  1  0
 17 12  1  0
 17 16  2  0
  1 18  1  0
  7 19  1  0
 10 20  1  0
 10 21  1  0
 12 22  1  0
 13 23  1  0
 14 24  1  0
M  ISO  5  18   9  19  14  22  14  23  14  24  14
M  END
>  <minimizedAffinity>  (1) 
-5.0106101

>  <minimizedRMSD>  (1) 
6.16059923

$$$$
