
     RDKit          3D

 41 44  0  0  0  0  0  0  0  0999 V2000
   44.5690   35.5881   44.7519 C   0  0  0  0  0  0  0  0  0  0  0  0
   45.1479   35.7318   43.4788 C   0  0  0  0  0  0  0  0  0  0  0  0
   46.2020   34.8726   43.1593 C   0  0  0  0  0  0  0  0  0  0  0  0
   46.6068   33.9670   44.0640 N   0  0  0  0  0  0  0  0  0  0  0  0
   46.0431   33.8456   45.2704 C   0  0  0  0  0  0  0  0  0  0  0  0
   45.0148   34.6643   45.6161 N   0  0  0  0  0  0  0  0  0  0  0  0
   45.4072   32.5480   47.3229 C   0  0  1  0  0  0  0  0  0  0  0  0
   46.4531   32.8782   46.3037 C   0  0  1  0  0  0  0  0  0  0  0  0
   46.6283   31.4842   45.6749 C   0  0  0  0  0  0  0  0  0  0  0  0
   46.3217   30.5663   46.6280 O   0  0  0  0  0  0  0  0  0  0  0  0
   45.9744   31.2171   47.8102 C   0  0  0  0  0  0  0  0  0  0  0  0
   45.2424   33.4870   48.2982 O   0  0  0  0  0  0  0  0  0  0  0  0
   46.7582   35.0288   41.9011 O   0  0  0  0  0  0  0  0  0  0  0  0
   48.5774   33.2502   41.1294 O   0  0  0  0  0  0  0  0  0  0  0  0
   48.4272   34.6818   41.6585 P   0  0  1  0  0  0  0  0  0  0  0  0
   49.0361   35.7972   40.5881 O   0  0  0  0  0  0  0  0  0  0  0  0
   49.1554   34.7689   43.1772 O   0  0  0  0  0  0  0  0  0  0  0  0
   43.7450   36.2372   45.0422 H   0  0  0  0  0  0  0  0  0  0  0  0
   44.7285   36.4999   42.8460 H   0  0  0  0  0  0  0  0  0  0  0  0
   44.4601   32.3144   46.7901 H   0  0  0  0  0  0  0  0  0  0  0  0
   47.3967   33.1698   46.8087 H   0  0  0  0  0  0  0  0  0  0  0  0
   47.7097   31.4086   45.4354 H   0  0  0  0  0  0  0  0  0  0  0  0
   46.0673   31.3972   44.7351 H   0  0  0  0  0  0  0  0  0  0  0  0
   45.1585   30.6361   48.3080 H   0  0  0  0  0  0  0  0  0  0  0  0
   46.8799   31.3323   48.4092 H   0  0  0  0  0  0  0  0  0  0  0  0
   44.4638   34.0644   48.0940 H   0  0  0  0  0  0  0  0  0  0  0  0
   49.2887   35.3622   39.7542 H   0  0  0  0  0  0  0  0  0  0  0  0
   50.7942   36.8081   42.0528 H   0  0  0  0  0  0  0  0  0  0  0  0
   51.1795   36.1186   42.7325 N   0  0  0  0  0  0  0  0  0  0  0  0
   50.4816   35.1337   43.3054 C   0  0  0  0  0  0  0  0  0  0  0  0
   51.2868   34.4256   44.1340 N   0  0  0  0  0  0  0  0  0  0  0  0
   52.5020   35.0345   44.0297 C   0  0  0  0  0  0  0  0  0  0  0  0
   53.7074   34.7450   44.6478 C   0  0  0  0  0  0  0  0  0  0  0  0
   53.7349   33.6323   45.5553 N   0  0  0  0  0  0  0  0  0  0  0  0
   54.2010   32.7156   45.3189 H   0  0  0  0  0  0  0  0  0  0  0  0
   54.8244   35.4777   44.4123 N   0  0  0  0  0  0  0  0  0  0  0  0
   54.7409   36.5165   43.5466 C   0  0  0  0  0  0  0  0  0  0  0  0
   55.6231   37.1290   43.3333 H   0  0  0  0  0  0  0  0  0  0  0  0
   53.5721   36.7889   42.9540 N   0  0  0  0  0  0  0  0  0  0  0  0
   52.4495   36.0925   43.1585 C   0  0  0  0  0  0  0  0  0  0  0  0
   54.2639   32.9327   44.9905 H   0  0  0  0  0  0  0  0  0  0  0  0
  1  6  2  0
  2  1  1  0
  3  2  2  0
  3  4  1  0
  4  5  2  0
  5  6  1  0
  7 11  1  0
  7 12  1  0
  8  5  1  0
  8  7  1  0
  9  8  1  0
  9 10  1  0
 10 11  1  0
 13  3  1  0
 14 15  2  0
 15 13  1  1
 15 17  1  0
 16 15  1  0
  1 18  1  0
  2 19  1  0
  7 20  1  6
  8 21  1  1
  9 22  1  0
  9 23  1  0
 11 24  1  0
 11 25  1  0
 12 26  1  0
 16 27  1  0
 28 29  1  0
 29 30  1  0
 30 31  2  0
 31 32  1  0
 32 33  2  0
 33 34  1  0
 34 35  1  0
 33 36  1  0
 36 37  2  0
 37 38  1  0
 37 39  1  0
 39 40  2  0
 40 29  1  0
 40 32  1  0
 34 41  1  0
 17 30  1  0
M  ISO  8  18  14  19  14  20  13  21  13  22  13  23  13  24  13  25  13
M  ISO  5  26   3  27   3  28   9  35   5  38  16
M  END
>  <DihAtoms>  (1) 
14,16,29,28

>  <DihDeg>  (1) 
-4.304193952374755e-05

$$$$
