
     RDKit          3D

 48 52  0  0  0  0  0  0  0  0999 V2000
   47.5573   29.9752   48.2732 C   0  0  1  0  0  0  0  0  0  0  0  0
   47.4563   28.7810   47.3708 C   0  0  0  0  0  0  0  0  0  0  0  0
   48.7493   28.0269   47.1959 C   0  0  0  0  0  0  0  0  0  0  0  0
   49.5207   27.8510   48.4749 C   0  0  0  0  0  0  0  0  0  0  0  0
   49.5480   29.0973   49.3027 C   0  0  0  0  0  0  0  0  0  0  0  0
   49.0523   30.3023   48.4635 C   0  0  2  0  0  0  0  0  0  0  0  0
   45.8985   33.1324   46.2306 C   0  0  0  0  0  0  0  0  0  0  0  0
   45.3317   32.9194   47.4832 C   0  0  0  0  0  0  0  0  0  0  0  0
   45.7878   31.9243   48.2312 C   0  0  0  0  0  0  0  0  0  0  0  0
   46.8358   31.0961   47.7642 C   0  0  0  0  0  0  0  0  0  0  0  0
   47.1805   31.8019   46.1282 S   0  0  0  0  0  0  0  0  0  0  0  0
   44.4391   36.1142   44.5591 C   0  0  0  0  0  0  0  0  0  0  0  0
   45.0702   36.0436   43.3175 C   0  0  0  0  0  0  0  0  0  0  0  0
   45.9674   34.9775   43.0941 C   0  0  0  0  0  0  0  0  0  0  0  0
   46.1657   34.0752   44.1103 N   0  0  0  0  0  0  0  0  0  0  0  0
   45.5260   34.2004   45.2830 C   0  0  0  0  0  0  0  0  0  0  0  0
   44.6575   35.2225   45.5140 N   0  0  0  0  0  0  0  0  0  0  0  0
   49.2434   31.5303   49.1998 C   0  0  0  0  0  0  0  0  0  0  0  0
   49.9711   31.5946   50.1587 O   0  0  0  0  0  0  0  0  0  0  0  0
   47.1755   29.7153   49.2559 H   0  0  0  0  0  0  0  0  0  0  0  0
   47.1276   29.1100   46.3622 H   0  0  0  0  0  0  0  0  0  0  0  0
   46.6855   28.0930   47.7563 H   0  0  0  0  0  0  0  0  0  0  0  0
   49.3888   28.5785   46.4803 H   0  0  0  0  0  0  0  0  0  0  0  0
   48.5220   27.0539   46.7726 H   0  0  0  0  0  0  0  0  0  0  0  0
   50.5473   27.5321   48.1963 H   0  0  0  0  0  0  0  0  0  0  0  0
   49.0878   27.0036   49.0254 H   0  0  0  0  0  0  0  0  0  0  0  0
   50.5427   29.3299   49.7176 H   0  0  0  0  0  0  0  0  0  0  0  0
   48.7918   28.9766   50.1058 H   0  0  0  0  0  0  0  0  0  0  0  0
   49.5654   30.2883   47.4730 H   0  0  0  0  0  0  0  0  0  0  0  0
   44.5334   33.5622   47.8286 H   0  0  0  0  0  0  0  0  0  0  0  0
   45.4561   31.6288   49.2142 H   0  0  0  0  0  0  0  0  0  0  0  0
   43.7453   36.9228   44.7573 H   0  0  0  0  0  0  0  0  0  0  0  0
   44.9032   36.7564   42.5380 H   0  0  0  0  0  0  0  0  0  0  0  0
   46.4999   34.8452   42.1620 H   0  0  0  0  0  0  0  0  0  0  0  0
   46.8782   33.3507   48.9711 H   0  0  0  0  0  0  0  0  0  0  0  0
   47.8061   33.6256   49.2976 N   0  0  0  0  0  0  0  0  0  0  0  0
   48.9262   32.9209   49.3327 C   0  0  0  0  0  0  0  0  0  0  0  0
   49.7587   33.9214   49.7737 N   0  0  0  0  0  0  0  0  0  0  0  0
   49.1092   35.0667   49.9592 C   0  0  0  0  0  0  0  0  0  0  0  0
   49.7616   36.1986   50.4079 C   0  0  0  0  0  0  0  0  0  0  0  0
   51.1366   36.3331   50.7227 N   0  0  0  0  0  0  0  0  0  0  0  0
   51.5629   36.7130   49.8538 H   0  0  0  0  0  0  0  0  0  0  0  0
   48.9148   37.2597   50.5349 N   0  0  0  0  0  0  0  0  0  0  0  0
   47.5991   37.1555   50.2408 C   0  0  0  0  0  0  0  0  0  0  0  0
   46.9269   38.0231   50.3484 H   0  0  0  0  0  0  0  0  0  0  0  0
   47.0823   35.9929   49.8107 N   0  0  0  0  0  0  0  0  0  0  0  0
   47.7913   34.8942   49.6456 C   0  0  0  0  0  0  0  0  0  0  0  0
   51.7231   36.1452   51.5581 H   0  0  0  0  0  0  0  0  0  0  0  0
  1  6  1  0
  2  1  1  0
  3  2  1  0
  3  4  1  0
  4  5  1  0
  6 18  1  0
  6  5  1  0
  7  8  2  0
  8  9  1  0
 10  1  1  0
 10  9  2  0
 11  7  1  0
 11 10  1  0
 12 17  2  0
 13 12  1  0
 14 13  2  0
 14 15  1  0
 15 16  2  0
 16 17  1  0
 16  7  1  0
 18 19  2  0
  1 20  1  1
  2 21  1  0
  2 22  1  0
  3 23  1  0
  3 24  1  0
  4 25  1  0
  4 26  1  0
  5 27  1  0
  5 28  1  0
  6 29  1  6
  8 30  1  0
  9 31  1  0
 12 32  1  0
 13 33  1  0
 14 34  1  0
 35 36  1  0
 36 37  1  0
 37 38  2  0
 38 39  1  0
 39 40  2  0
 40 41  1  0
 41 42  1  0
 40 43  1  0
 43 44  2  0
 44 45  1  0
 44 46  1  0
 46 47  2  0
 47 36  1  0
 47 39  1  0
 41 48  1  0
 18 37  1  0
M  ISO  8  20  13  21  13  22  13  23  13  24  13  25  13  26  13  27  13
M  ISO  8  28  13  29  13  30  14  31  14  32  14  33  14  34  14  35   9
M  ISO  2  42   5  45  16
M  END
>  <DihAtoms>  (1) 
5,17,36,35

>  <DihDeg>  (1) 
-13.694185857232885

$$$$
