
     RDKit          3D

 49 53  0  0  0  0  0  0  0  0999 V2000
   45.1303   36.0158   42.9158 C   0  0  0  0  0  0  0  0  0  0  0  0
   45.3713   34.6510   42.9096 C   0  0  0  0  0  0  0  0  0  0  0  0
   45.2148   33.9196   44.0613 C   0  0  0  0  0  0  0  0  0  0  0  0
   44.8126   34.6108   45.1886 N   0  0  0  0  0  0  0  0  0  0  0  0
   44.5826   35.9194   45.1889 C   0  0  0  0  0  0  0  0  0  0  0  0
   44.7462   36.6125   44.0414 N   0  0  0  0  0  0  0  0  0  0  0  0
   45.4189   32.5294   44.2202 C   0  0  0  0  0  0  0  0  0  0  0  0
   44.9399   31.5608   43.3334 C   0  0  0  0  0  0  0  0  0  0  0  0
   45.0790   30.2104   43.5183 C   0  0  0  0  0  0  0  0  0  0  0  0
   45.7243   29.7408   44.6350 C   0  0  0  0  0  0  0  0  0  0  0  0
   46.2210   30.7072   45.5500 C   0  0  0  0  0  0  0  0  0  0  0  0
   46.8640   30.2516   46.6724 C   0  0  0  0  0  0  0  0  0  0  0  0
   47.3705   31.1351   47.6040 C   0  0  0  0  0  0  0  0  0  0  0  0
   47.2230   32.5163   47.3916 C   0  0  0  0  0  0  0  0  0  0  0  0
   46.5564   32.9369   46.2274 C   0  0  0  0  0  0  0  0  0  0  0  0
   46.0622   32.0357   45.3253 C   0  0  0  0  0  0  0  0  0  0  0  0
   45.7600   34.0901   41.7245 O   0  0  0  0  0  0  0  0  0  0  0  0
   47.6832   32.4281   41.0897 O   0  0  0  0  0  0  0  0  0  0  0  0
   47.3699   33.8743   41.2429 P   0  0  1  0  0  0  0  0  0  0  0  0
   47.6489   34.6053   39.7429 O   0  0  0  0  0  0  0  0  0  0  0  0
   48.3625   34.5947   42.3890 O   0  0  0  0  0  0  0  0  0  0  0  0
   49.5354   35.2923   42.1493 C   0  0  0  0  0  0  0  0  0  0  0  0
   49.2046   36.2117   41.3778 O   0  0  0  0  0  0  0  0  0  0  0  0
   50.6397   34.7003   42.8624 N   0  0  0  0  0  0  0  0  0  0  0  0
   45.2492   36.6218   42.0082 H   0  0  0  0  0  0  0  0  0  0  0  0
   44.2694   36.4434   46.0778 H   0  0  0  0  0  0  0  0  0  0  0  0
   44.4239   31.8892   42.4389 H   0  0  0  0  0  0  0  0  0  0  0  0
   44.6921   29.4941   42.8041 H   0  0  0  0  0  0  0  0  0  0  0  0
   45.8774   28.6931   44.8608 H   0  0  0  0  0  0  0  0  0  0  0  0
   46.9802   29.1869   46.8377 H   0  0  0  0  0  0  0  0  0  0  0  0
   47.8702   30.7169   48.4769 H   0  0  0  0  0  0  0  0  0  0  0  0
   47.6494   33.1298   48.1672 H   0  0  0  0  0  0  0  0  0  0  0  0
   46.5659   34.0056   46.2350 H   0  0  0  0  0  0  0  0  0  0  0  0
   51.4742   34.2383   42.4229 H   0  0  0  0  0  0  0  0  0  0  0  0
   50.6240   34.7243   43.8988 H   0  0  0  0  0  0  0  0  0  0  0  0
   49.1864   32.2826   39.4298 H   0  0  0  0  0  0  0  0  0  0  0  0
   49.2784   33.0825   38.7479 N   0  0  0  0  0  0  0  0  0  0  0  0
   48.5858   34.2126   38.8295 C   0  0  0  0  0  0  0  0  0  0  0  0
   48.9830   34.9830   37.7805 N   0  0  0  0  0  0  0  0  0  0  0  0
   49.9152   34.2941   37.0823 C   0  0  0  0  0  0  0  0  0  0  0  0
   50.6693   34.5394   35.9507 C   0  0  0  0  0  0  0  0  0  0  0  0
   50.5189   35.7679   35.2740 N   0  0  0  0  0  0  0  0  0  0  0  0
   50.2495   36.1412   34.3166 H   0  0  0  0  0  0  0  0  0  0  0  0
   51.5243   33.6304   35.5063 N   0  0  0  0  0  0  0  0  0  0  0  0
   51.6874   32.4545   36.1297 C   0  0  0  0  0  0  0  0  0  0  0  0
   52.3684   31.6389   35.8404 H   0  0  0  0  0  0  0  0  0  0  0  0
   50.9818   32.1734   37.2252 N   0  0  0  0  0  0  0  0  0  0  0  0
   50.1142   33.0723   37.6927 C   0  0  0  0  0  0  0  0  0  0  0  0
   50.7241   36.6180   35.8458 H   0  0  0  0  0  0  0  0  0  0  0  0
  1  6  2  0
  2  1  1  0
  2  3  2  0
  3  7  1  0
  3  4  1  0
  5  4  2  0
  6  5  1  0
  7 16  2  0
  8  9  2  0
  8  7  1  0
  9 10  1  0
 10 11  2  0
 11 12  1  0
 12 13  2  0
 14 13  1  0
 15 14  2  0
 16 11  1  0
 16 15  1  0
 17  2  1  0
 19 18  2  0
 19 17  1  1
 19 21  1  0
 20 19  1  0
 22 21  1  0
 22 24  1  0
 23 22  2  0
  1 25  1  0
  5 26  1  0
  8 27  1  0
  9 28  1  0
 10 29  1  0
 12 30  1  0
 13 31  1  0
 14 32  1  0
 15 33  1  0
 24 34  1  0
 24 35  1  0
 36 37  1  0
 37 38  1  0
 38 39  2  0
 39 40  1  0
 40 41  2  0
 41 42  1  0
 42 43  1  0
 41 44  1  0
 44 45  2  0
 45 46  1  0
 45 47  1  0
 47 48  2  0
 48 37  1  0
 48 40  1  0
 42 49  1  0
 20 38  1  0
M  ISO  8  25  14  26  14  27  14  28  14  29  14  30  14  31  14  32  14
M  ISO  4  33  14  36   9  43   5  46  16
M  END
>  <DihAtoms>  (1) 
18,19,37,36

>  <DihDeg>  (1) 
9.542153487294396e-05

$$$$
