
     RDKit          3D

 49 53  0  0  0  0  0  0  0  0999 V2000
   44.4996   35.5340   45.1217 C   0  0  0  0  0  0  0  0  0  0  0  0
   45.1664   35.5055   43.8777 C   0  0  0  0  0  0  0  0  0  0  0  0
   46.0891   34.5405   43.6399 C   0  0  0  0  0  0  0  0  0  0  0  0
   46.3120   33.6496   44.6363 N   0  0  0  0  0  0  0  0  0  0  0  0
   45.6842   33.6791   45.8030 C   0  0  0  0  0  0  0  0  0  0  0  0
   44.7734   34.6158   46.0635 N   0  0  0  0  0  0  0  0  0  0  0  0
   46.0099   32.6795   46.7853 N   0  0  0  0  0  0  0  0  0  0  0  0
   45.2672   32.4468   47.9686 C   0  0  0  0  0  0  0  0  0  0  0  0
   46.3407   32.1235   48.9934 C   0  0  0  0  0  0  0  0  0  0  0  0
   47.6242   32.0048   48.2295 C   0  0  0  0  0  0  0  0  0  0  0  0
   47.1313   31.7711   46.8031 C   0  0  1  0  0  0  0  0  0  0  0  0
   44.8131   36.5257   42.9270 N   0  0  0  0  0  0  0  0  0  0  0  0
   46.6214   30.0768   46.6407 S   0  0  0  0  0  0  0  0  0  0  0  0
   45.6193   30.5087   43.4896 O   0  0  0  0  0  0  0  0  0  0  0  0
   44.9842   29.9851   44.4196 C   0  0  0  0  0  0  0  0  0  0  0  0
   45.0756   29.7812   45.8877 C   0  0  1  0  0  0  0  0  0  0  0  0
   44.5264   28.3849   46.0406 C   0  0  0  0  0  0  0  0  0  0  0  0
   43.2222   28.5895   45.2699 C   0  0  0  0  0  0  0  0  0  0  0  0
   43.7359   29.3270   44.1228 N   0  0  0  0  0  0  0  0  0  0  0  0
   43.7703   36.3101   45.2882 H   0  0  0  0  0  0  0  0  0  0  0  0
   46.5990   34.5056   42.7096 H   0  0  0  0  0  0  0  0  0  0  0  0
   44.4795   31.7770   48.0828 H   0  0  0  0  0  0  0  0  0  0  0  0
   44.8773   33.4582   48.3067 H   0  0  0  0  0  0  0  0  0  0  0  0
   46.4238   32.8512   49.8057 H   0  0  0  0  0  0  0  0  0  0  0  0
   46.1174   31.1404   49.4970 H   0  0  0  0  0  0  0  0  0  0  0  0
   48.1927   31.1477   48.6062 H   0  0  0  0  0  0  0  0  0  0  0  0
   48.1731   32.9708   48.3173 H   0  0  0  0  0  0  0  0  0  0  0  0
   47.9540   32.0727   46.1266 H   0  0  0  0  0  0  0  0  0  0  0  0
   45.5591   36.7632   42.2106 H   0  0  0  0  0  0  0  0  0  0  0  0
   43.8893   36.9687   42.9746 H   0  0  0  0  0  0  0  0  0  0  0  0
   44.1933   30.3952   46.2175 H   0  0  0  0  0  0  0  0  0  0  0  0
   45.2112   27.7036   45.5076 H   0  0  0  0  0  0  0  0  0  0  0  0
   44.3556   28.0816   47.0850 H   0  0  0  0  0  0  0  0  0  0  0  0
   42.5835   29.2562   45.8511 H   0  0  0  0  0  0  0  0  0  0  0  0
   42.7630   27.6299   44.9840 H   0  0  0  0  0  0  0  0  0  0  0  0
   43.0649   27.1505   42.5795 H   0  0  0  0  0  0  0  0  0  0  0  0
   42.7794   28.1217   42.2865 N   0  0  0  0  0  0  0  0  0  0  0  0
   42.9957   29.3287   42.8810 C   0  0  0  0  0  0  0  0  0  0  0  0
   42.4451   30.3038   42.1438 N   0  0  0  0  0  0  0  0  0  0  0  0
   41.8684   29.7065   41.0615 C   0  0  0  0  0  0  0  0  0  0  0  0
   41.1712   30.1465   39.9759 C   0  0  0  0  0  0  0  0  0  0  0  0
   40.9385   31.5413   39.8529 N   0  0  0  0  0  0  0  0  0  0  0  0
   40.6805   32.0897   40.7061 H   0  0  0  0  0  0  0  0  0  0  0  0
   40.7248   29.2820   39.0610 N   0  0  0  0  0  0  0  0  0  0  0  0
   40.9287   27.9449   39.1467 C   0  0  0  0  0  0  0  0  0  0  0  0
   40.5853   27.2112   38.4297 H   0  0  0  0  0  0  0  0  0  0  0  0
   41.6128   27.4712   40.2040 N   0  0  0  0  0  0  0  0  0  0  0  0
   42.0721   28.3242   41.1383 C   0  0  0  0  0  0  0  0  0  0  0  0
   40.9613   32.2270   39.0504 H   0  0  0  0  0  0  0  0  0  0  0  0
  1  6  2  0
  2  1  1  0
  3  2  2  0
  3  4  1  0
  4  5  2  0
  5  6  1  0
  5  7  1  0
  7 11  1  0
  7  8  1  0
  8  9  1  0
 10  9  1  0
 11 10  1  0
 12  2  1  0
 13 11  1  0
 14 15  2  0
 15 16  1  0
 16 17  1  0
 16 13  1  0
 18 17  1  0
 19 15  1  0
 19 18  1  0
  1 20  1  0
  3 21  1  0
  8 22  1  0
  8 23  1  0
  9 24  1  0
  9 25  1  0
 10 26  1  0
 10 27  1  0
 11 28  1  6
 12 29  1  0
 12 30  1  0
 16 31  1  1
 17 32  1  0
 17 33  1  0
 18 34  1  0
 18 35  1  0
 36 37  1  0
 37 38  1  0
 38 39  2  0
 39 40  1  0
 40 41  2  0
 41 42  1  0
 42 43  1  0
 41 44  1  0
 44 45  2  0
 45 46  1  0
 45 47  1  0
 47 48  2  0
 48 37  1  0
 48 40  1  0
 42 49  1  0
 19 38  1  0
M  ISO  8  20  14  21  14  22  13  23  13  24  13  25  13  26  13  27  13
M  ISO  8  28  13  31  13  32  13  33  13  34  13  35  13  36   9  43   5
M  ISO  1  46  16
M  END
>  <DihAtoms>  (1) 
14,18,37,36

>  <DihDeg>  (1) 
-89.99757423276533

$$$$
