
     RDKit          3D

 45 48  0  0  0  0  0  0  0  0999 V2000
   46.1799   32.0879   45.4369 C   0  0  0  0  0  0  0  0  0  0  0  0
   45.7683   32.0298   49.1354 C   0  0  0  0  0  0  0  0  0  0  0  0
   46.0572   32.4938   47.8466 C   0  0  0  0  0  0  0  0  0  0  0  0
   45.8803   31.6134   46.7901 C   0  0  0  0  0  0  0  0  0  0  0  0
   45.4330   30.3347   47.0518 N   0  0  0  0  0  0  0  0  0  0  0  0
   45.1668   29.9329   48.3184 C   0  0  0  0  0  0  0  0  0  0  0  0
   45.3341   30.7708   49.3340 N   0  0  0  0  0  0  0  0  0  0  0  0
   46.5499   33.3983   45.4102 O   0  0  0  0  0  0  0  0  0  0  0  0
   44.6440   35.1780   45.2558 O   0  0  0  0  0  0  0  0  0  0  0  0
   45.4515   34.2362   44.4234 P   0  0  2  0  0  0  0  0  0  0  0  0
   44.5217   33.0573   43.6766 O   0  0  0  0  0  0  0  0  0  0  0  0
   46.3452   35.1204   43.3043 O   0  0  0  0  0  0  0  0  0  0  0  0
   47.1148   34.2407   42.5359 C   0  0  1  0  0  0  0  0  0  0  0  0
   46.9555   34.4583   41.0530 C   0  0  0  0  0  0  0  0  0  0  0  0
   48.1118   33.6771   40.5003 C   0  0  0  0  0  0  0  0  0  0  0  0
   49.1708   33.6741   41.5962 C   0  0  0  0  0  0  0  0  0  0  0  0
   48.5882   34.5502   42.6943 C   0  0  2  0  0  0  0  0  0  0  0  0
   47.0990   31.5079   45.1214 H   0  0  0  0  0  0  0  0  0  0  0  0
   45.3968   31.7438   44.7788 H   0  0  0  0  0  0  0  0  0  0  0  0
   45.8812   32.6577   50.0134 H   0  0  0  0  0  0  0  0  0  0  0  0
   46.3962   33.4956   47.7500 H   0  0  0  0  0  0  0  0  0  0  0  0
   44.8291   28.9034   48.3172 H   0  0  0  0  0  0  0  0  0  0  0  0
   43.6825   33.4757   43.3356 H   0  0  0  0  0  0  0  0  0  0  0  0
   46.9391   33.1859   42.8350 H   0  0  0  0  0  0  0  0  0  0  0  0
   46.9804   35.5259   40.8381 H   0  0  0  0  0  0  0  0  0  0  0  0
   46.0224   33.9552   40.7264 H   0  0  0  0  0  0  0  0  0  0  0  0
   48.5388   34.2535   39.6499 H   0  0  0  0  0  0  0  0  0  0  0  0
   47.8553   32.6550   40.1773 H   0  0  0  0  0  0  0  0  0  0  0  0
   50.1367   34.0988   41.2342 H   0  0  0  0  0  0  0  0  0  0  0  0
   49.3515   32.6431   41.9028 H   0  0  0  0  0  0  0  0  0  0  0  0
   48.7199   35.5961   42.3594 H   0  0  0  0  0  0  0  0  0  0  0  0
   49.1292   34.2651   43.9777 N   0  0  0  0  0  0  0  0  0  0  0  0
   50.4514   34.3935   44.2934 C   0  0  0  0  0  0  0  0  0  0  0  0
   51.3028   34.6993   43.7314 H   0  0  0  0  0  0  0  0  0  0  0  0
   50.6037   34.0368   45.6026 N   0  0  0  0  0  0  0  0  0  0  0  0
   49.4131   33.7025   46.0680 C   0  0  0  0  0  0  0  0  0  0  0  0
   48.8935   33.2661   47.2669 C   0  0  0  0  0  0  0  0  0  0  0  0
   49.7381   33.0791   48.3891 N   0  0  0  0  0  0  0  0  0  0  0  0
   50.3326   32.8978   49.1931 H   0  0  0  0  0  0  0  0  0  0  0  0
   47.5908   32.9905   47.4671 N   0  0  0  0  0  0  0  0  0  0  0  0
   46.6834   33.1266   46.4824 C   0  0  0  0  0  0  0  0  0  0  0  0
   45.6349   32.9647   46.4383 H   0  0  0  0  0  0  0  0  0  0  0  0
   47.1739   33.5502   45.3110 N   0  0  0  0  0  0  0  0  0  0  0  0
   48.4617   33.8301   45.0873 C   0  0  0  0  0  0  0  0  0  0  0  0
   50.1518   34.0221   48.6445 H   0  0  0  0  0  0  0  0  0  0  0  0
  1  4  1  0
  2  7  2  0
  3  2  1  0
  4  5  1  0
  4  3  2  0
  5  6  2  0
  6  7  1  0
  8  1  1  0
 10  9  2  0
 10  8  1  1
 11 10  1  0
 12 10  1  0
 13 17  1  0
 13 12  1  0
 14 13  1  0
 15 14  1  0
 15 16  1  0
 16 17  1  0
  1 18  1  0
  1 19  1  0
  2 20  1  0
  3 21  1  0
  6 22  1  0
 11 23  1  0
 13 24  1  6
 14 25  1  0
 14 26  1  0
 15 27  1  0
 15 28  1  0
 16 29  1  0
 16 30  1  0
 17 31  1  6
 32 33  1  0
 33 34  1  0
 33 35  2  0
 35 36  1  0
 36 37  2  0
 37 38  1  0
 38 39  1  0
 37 40  1  0
 40 41  2  0
 41 42  1  0
 41 43  1  0
 43 44  2  0
 44 32  1  0
 44 36  1  0
 38 45  1  0
 17 32  1  0
M  ISO  8  18   8  19   8  20  14  21  14  22  14  23   3  24  13  25  13
M  ISO  8  26  13  27  13  28  13  29  13  30  13  31  13  34  15  39   5
M  ISO  1  42  16
M  END
>  <DihAtoms>  (1) 
12,16,31,32

>  <DihDeg>  (1) 
85.64465412988831

$$$$
