
     RDKit          3D

 34 37  0  0  0  0  0  0  0  0999 V2000
   42.0957   31.9345   41.7132 Cl  0  0  0  0  0  0  0  0  0  0  0  0
   41.2701   33.3560   41.1150 C   0  0  0  0  0  0  0  0  0  0  0  0
   42.0759   34.4285   40.8449 C   0  0  0  0  0  0  0  0  0  0  0  0
   41.4730   35.5916   40.3646 C   0  0  0  0  0  0  0  0  0  0  0  0
   40.0899   35.6207   40.1791 C   0  0  0  0  0  0  0  0  0  0  0  0
   39.2726   34.5310   40.4539 C   0  0  0  0  0  0  0  0  0  0  0  0
   39.9001   33.3920   40.9288 C   0  0  0  0  0  0  0  0  0  0  0  0
   38.9740   31.9425   41.3147 Cl  0  0  0  0  0  0  0  0  0  0  0  0
   43.8284   34.5451   41.0265 S   0  0  0  0  0  0  0  0  0  0  0  0
   44.3640   34.6233   42.7367 C   0  0  0  0  0  0  0  0  0  0  0  0
   45.0315   33.4852   43.1971 C   0  0  0  0  0  0  0  0  0  0  0  0
   45.4743   33.4940   44.5354 C   0  0  0  0  0  0  0  0  0  0  0  0
   45.2355   34.5882   45.3002 N   0  0  0  0  0  0  0  0  0  0  0  0
   44.5791   35.6726   44.8005 C   0  0  0  0  0  0  0  0  0  0  0  0
   44.1390   35.7036   43.5241 N   0  0  0  0  0  0  0  0  0  0  0  0
   41.9931   36.4830   40.1211 H   0  0  0  0  0  0  0  0  0  0  0  0
   39.5994   36.5114   39.8078 H   0  0  0  0  0  0  0  0  0  0  0  0
   38.2181   34.5707   40.3064 H   0  0  0  0  0  0  0  0  0  0  0  0
   45.2074   32.6288   42.5660 H   0  0  0  0  0  0  0  0  0  0  0  0
   45.9860   32.6173   44.8827 H   0  0  0  0  0  0  0  0  0  0  0  0
   44.3680   36.7814   45.6678 N   0  0  0  0  0  0  0  0  0  0  0  0
   45.2692   37.1162   46.6303 C   0  0  0  0  0  0  0  0  0  0  0  0
   46.2022   36.6929   46.9180 H   0  0  0  0  0  0  0  0  0  0  0  0
   44.7944   38.2072   47.2895 N   0  0  0  0  0  0  0  0  0  0  0  0
   43.6017   38.5357   46.7260 C   0  0  0  0  0  0  0  0  0  0  0  0
   42.6654   39.5449   46.9750 C   0  0  0  0  0  0  0  0  0  0  0  0
   42.9480   40.4629   48.0252 N   0  0  0  0  0  0  0  0  0  0  0  0
   43.4064   41.2229   47.4520 H   0  0  0  0  0  0  0  0  0  0  0  0
   41.5482   39.5939   46.2089 N   0  0  0  0  0  0  0  0  0  0  0  0
   41.3067   38.7119   45.2218 C   0  0  0  0  0  0  0  0  0  0  0  0
   40.3709   38.8306   44.6516 H   0  0  0  0  0  0  0  0  0  0  0  0
   42.2145   37.7228   44.9707 N   0  0  0  0  0  0  0  0  0  0  0  0
   43.3339   37.6352   45.7027 C   0  0  0  0  0  0  0  0  0  0  0  0
   43.4189   41.4118   47.9612 H   0  0  0  0  0  0  0  0  0  0  0  0
  2  1  1  0
  3  9  1  0
  3  2  2  0
  4  3  1  0
  5  4  2  0
  5  6  1  0
  6  7  2  0
  7  2  1  0
  7  8  1  0
  9 10  1  0
 10 11  2  0
 10 15  1  0
 11 12  1  0
 12 13  2  0
 14 13  1  0
 15 14  2  0
  4 16  1  0
  5 17  1  0
  6 18  1  0
 11 19  1  0
 12 20  1  0
 21 22  1  0
 22 23  1  0
 22 24  2  0
 24 25  1  0
 25 26  2  0
 26 27  1  0
 27 28  1  0
 26 29  1  0
 29 30  2  0
 30 31  1  0
 30 32  1  0
 32 33  2  0
 33 21  1  0
 33 25  1  0
 27 34  1  0
 14 21  1  0
M  ISO  8  16  14  17  14  18  14  19  14  20  14  23  15  28   5  31  16
M  END
>  <DihAtoms>  (1) 
12,13,20,21

>  <DihDeg>  (1) 
-146.60589867948877

$$$$
