
     RDKit          3D

 24 26  0  0  0  0  0  0  0  0999 V2000
   47.5760   34.8960   41.9800 N   0  0  0  0  0  0  0  0  0  0  0  0
   48.6440   35.7110   41.7830 C   0  0  0  0  0  0  0  0  0  0  0  0
   49.0050   35.6100   40.4860 N   0  0  0  0  0  0  0  0  0  0  0  0
   48.1950   34.7540   39.8450 C   0  0  0  0  0  0  0  0  0  0  0  0
   48.0790   34.2730   38.5760 C   0  0  0  0  0  0  0  0  0  0  0  0
   47.1190   33.3790   38.2190 N   0  0  0  0  0  0  0  0  0  0  0  0
   46.2540   32.9500   39.1330 C   0  0  0  0  0  0  0  0  0  0  0  0
   46.3440   33.4030   40.3800 N   0  0  0  0  0  0  0  0  0  0  0  0
   47.2870   34.2990   40.7880 C   0  0  0  0  0  0  0  0  0  0  0  0
   44.8180   35.1140   44.3960 C   0  0  0  0  0  0  0  0  0  0  0  0
   45.6230   35.3640   43.2730 C   0  0  0  0  0  0  0  0  0  0  0  0
   46.7930   34.6070   43.1330 C   0  0  0  0  0  0  0  0  0  0  0  0
   47.0890   33.6790   44.0770 N   0  0  0  0  0  0  0  0  0  0  0  0
   46.2940   33.4700   45.1340 C   0  0  0  0  0  0  0  0  0  0  0  0
   45.1690   34.1820   45.2910 N   0  0  0  0  0  0  0  0  0  0  0  0
   43.6730   35.8500   44.5410 O   0  0  0  0  0  0  0  0  0  0  0  0
   48.9870   34.7090   37.5670 N   0  0  0  0  0  0  0  0  0  0  0  0
   49.1283   36.3407   42.5438 H   0  0  0  0  0  0  0  0  0  0  0  0
   45.4711   32.2270   38.8602 H   0  0  0  0  0  0  0  0  0  0  0  0
   45.3449   36.1264   42.5305 H   0  0  0  0  0  0  0  0  0  0  0  0
   46.5661   32.7081   45.8793 H   0  0  0  0  0  0  0  0  0  0  0  0
   43.4350   36.5335   43.8655 H   0  0  0  0  0  0  0  0  0  0  0  0
   48.9019   34.3472   36.6064 H   0  0  0  0  0  0  0  0  0  0  0  0
   49.7280   35.3858   37.7986 H   0  0  0  0  0  0  0  0  0  0  0  0
  1 12  1  0
  2  1  1  0
  3  2  2  0
  4  3  1  0
  4  9  2  0
  5  4  1  0
  6  5  2  0
  6  7  1  0
  7  8  2  0
  8  9  1  0
  9  1  1  0
 10 16  1  0
 10 15  2  0
 11 10  1  0
 12 11  2  0
 12 13  1  0
 13 14  2  0
 14 15  1  0
 17  5  1  0
  2 18  1  0
  7 19  1  0
 11 20  1  0
 14 21  1  0
 16 22  1  0
 17 23  1  0
 17 24  1  0
M  ISO  5  18  14  19  14  20  14  21  14  22   3
M  END
>  <minimizedAffinity>  (1) 
-5.9337635

>  <minimizedRMSD>  (1) 
3.70351982

$$$$
