
     RDKit          3D

 53 56  0  0  0  0  0  0  0  0999 V2000
   47.1462   34.1530   43.0694 N   0  0  0  0  0  0  0  0  0  0  0  0
   46.6555   35.3647   42.5214 C   0  0  0  0  0  0  0  0  0  0  0  0
   45.1766   35.5831   42.7222 C   0  0  0  0  0  0  0  0  0  0  0  0
   44.6425   35.0413   44.0345 C   0  0  0  0  0  0  0  0  0  0  0  0
   45.7672   34.4900   44.8956 C   0  0  0  0  0  0  0  0  0  0  0  0
   46.4219   33.3964   43.9573 C   0  0  2  0  0  0  0  0  0  0  0  0
   48.1542   33.5038   42.2668 C   0  0  0  0  0  0  0  0  0  0  0  0
   47.4677   32.6543   41.2606 C   0  0  0  0  0  0  0  0  0  0  0  0
   49.3366   32.2754   38.0310 C   0  0  0  0  0  0  0  0  0  0  0  0
   48.8162   32.0230   39.3146 C   0  0  0  0  0  0  0  0  0  0  0  0
   48.0032   32.9412   39.9105 C   0  0  0  0  0  0  0  0  0  0  0  0
   47.7372   34.0554   39.2322 N   0  0  0  0  0  0  0  0  0  0  0  0
   48.2233   34.3124   38.0104 C   0  0  0  0  0  0  0  0  0  0  0  0
   49.0282   33.4281   37.3936 N   0  0  0  0  0  0  0  0  0  0  0  0
   47.2068   32.7156   44.8705 O   0  0  0  0  0  0  0  0  0  0  0  0
   46.0387   30.5392   43.8828 O   0  0  0  0  0  0  0  0  0  0  0  0
   46.6793   31.1392   45.1310 P   0  0  2  0  0  0  0  0  0  0  0  0
   45.3912   31.2600   46.2503 O   0  0  0  0  0  0  0  0  0  0  0  0
   47.8448   30.1547   45.7874 O   0  0  0  0  0  0  0  0  0  0  0  0
   47.7648   28.8962   45.2139 C   0  0  0  0  0  0  0  0  0  0  0  0
   47.2085   36.1933   43.0534 H   0  0  0  0  0  0  0  0  0  0  0  0
   46.8575   35.5223   41.4529 H   0  0  0  0  0  0  0  0  0  0  0  0
   45.0113   36.6935   42.7564 H   0  0  0  0  0  0  0  0  0  0  0  0
   44.5946   35.2358   41.8464 H   0  0  0  0  0  0  0  0  0  0  0  0
   43.9839   34.1834   43.7731 H   0  0  0  0  0  0  0  0  0  0  0  0
   44.0267   35.7825   44.5782 H   0  0  0  0  0  0  0  0  0  0  0  0
   46.5108   35.2636   45.0901 H   0  0  0  0  0  0  0  0  0  0  0  0
   45.3373   33.9930   45.7658 H   0  0  0  0  0  0  0  0  0  0  0  0
   45.5879   32.7823   43.5619 H   0  0  0  0  0  0  0  0  0  0  0  0
   48.7940   32.9163   42.9795 H   0  0  0  0  0  0  0  0  0  0  0  0
   48.8018   34.3006   41.8445 H   0  0  0  0  0  0  0  0  0  0  0  0
   47.5856   31.5891   41.5067 H   0  0  0  0  0  0  0  0  0  0  0  0
   46.3676   32.8937   41.1924 H   0  0  0  0  0  0  0  0  0  0  0  0
   49.9803   31.5413   37.5668 H   0  0  0  0  0  0  0  0  0  0  0  0
   49.1097   31.0738   39.7624 H   0  0  0  0  0  0  0  0  0  0  0  0
   47.8874   35.2683   37.6376 H   0  0  0  0  0  0  0  0  0  0  0  0
   45.7558   31.2658   47.1727 H   0  0  0  0  0  0  0  0  0  0  0  0
   47.8160   28.8979   44.1230 H   0  0  0  0  0  0  0  0  0  0  0  0
   46.7930   28.4388   45.5109 H   0  0  0  0  0  0  0  0  0  0  0  0
   48.8042   28.0757   45.8223 N   0  0  0  0  0  0  0  0  0  0  0  0
   49.9286   27.7841   45.1177 C   0  0  0  0  0  0  0  0  0  0  0  0
   50.1928   28.0894   44.0976 H   0  0  0  0  0  0  0  0  0  0  0  0
   50.7501   27.0146   45.8753 N   0  0  0  0  0  0  0  0  0  0  0  0
   50.1317   26.8207   47.0729 C   0  0  0  0  0  0  0  0  0  0  0  0
   50.4068   26.1553   48.2583 C   0  0  0  0  0  0  0  0  0  0  0  0
   51.6420   25.4652   48.3301 N   0  0  0  0  0  0  0  0  0  0  0  0
   52.6281   25.7765   48.5408 H   0  0  0  0  0  0  0  0  0  0  0  0
   49.5074   26.1982   49.2571 N   0  0  0  0  0  0  0  0  0  0  0  0
   48.3525   26.8552   49.1635 C   0  0  0  0  0  0  0  0  0  0  0  0
   47.7440   26.7948   50.0436 H   0  0  0  0  0  0  0  0  0  0  0  0
   48.0411   27.5128   48.0397 N   0  0  0  0  0  0  0  0  0  0  0  0
   48.9109   27.4939   47.0223 C   0  0  0  0  0  0  0  0  0  0  0  0
   52.0082   24.5018   48.2165 H   0  0  0  0  0  0  0  0  0  0  0  0
  1  6  1  0
  2  3  1  0
  2  1  1  0
  3  4  1  0
  4  5  1  0
  6 15  1  0
  6  5  1  0
  7  1  1  0
  8  7  1  0
  9 10  2  0
 10 11  1  0
 11  8  1  0
 12 11  2  0
 13 12  1  0
 14 13  2  0
 14  9  1  0
 17 15  1  6
 17 16  2  0
 17 19  1  0
 17 18  1  0
 20 19  1  0
  2 21  1  0
  2 22  1  0
  3 23  1  0
  3 24  1  0
  4 25  1  0
  4 26  1  0
  5 27  1  0
  5 28  1  0
  6 29  1  6
  7 30  1  0
  7 31  1  0
  8 32  1  0
  8 33  1  0
  9 34  1  0
 10 35  1  0
 13 36  1  0
 18 37  1  0
 20 38  1  0
 20 39  1  0
 40 41  1  0
 41 42  1  0
 41 43  2  0
 43 44  1  0
 44 45  2  0
 45 46  1  0
 46 47  1  0
 45 48  1  0
 48 49  2  0
 49 50  1  0
 49 51  1  0
 51 52  2  0
 52 40  1  0
 52 44  1  0
 46 53  1  0
 20 40  1  0
M  ISO  8  21  13  22  13  23  13  24  13  25  13  26  13  27  13  28  13
M  ISO  8  29  13  30   8  31   8  32   8  33   8  34  14  35  14  36  14
M  ISO  6  37   3  38   8  39   8  42  15  47   5  50  16
M  END
>  <DihAtoms>  (1) 
18,19,39,40

>  <DihDeg>  (1) 
-89.99823959111635

$$$$
