
     RDKit          3D

 30 32  0  0  0  0  0  0  0  0999 V2000
   46.6690   34.1860   42.6710 C   0  0  0  0  0  0  0  0  0  0  0  0
   45.5140   33.6260   42.1180 C   0  0  0  0  0  0  0  0  0  0  0  0
   44.8200   32.6670   42.8600 C   0  0  0  0  0  0  0  0  0  0  0  0
   45.2990   32.3230   44.0810 N   0  0  0  0  0  0  0  0  0  0  0  0
   46.4240   32.8880   44.5840 C   0  0  0  0  0  0  0  0  0  0  0  0
   47.1140   33.8190   43.8890 N   0  0  0  0  0  0  0  0  0  0  0  0
   46.7980   32.4240   45.8760 N   0  0  0  0  0  0  0  0  0  0  0  0
   46.4960   33.1210   47.0090 C   0  0  0  0  0  0  0  0  0  0  0  0
   46.9490   32.4850   48.1010 N   0  0  0  0  0  0  0  0  0  0  0  0
   47.5550   31.3600   47.6810 C   0  0  0  0  0  0  0  0  0  0  0  0
   48.2000   30.3280   48.3420 C   0  0  0  0  0  0  0  0  0  0  0  0
   48.7180   29.3110   47.6030 N   0  0  0  0  0  0  0  0  0  0  0  0
   48.5940   29.3270   46.2460 C   0  0  0  0  0  0  0  0  0  0  0  0
   47.9660   30.3290   45.5660 N   0  0  0  0  0  0  0  0  0  0  0  0
   47.4560   31.3320   46.3060 C   0  0  0  0  0  0  0  0  0  0  0  0
   45.0650   34.0690   40.7650 C   0  0  0  0  0  0  0  0  0  0  0  0
   44.6280   35.3870   40.8270 F   0  0  0  0  0  0  0  0  0  0  0  0
   46.1640   34.0590   39.9250 F   0  0  0  0  0  0  0  0  0  0  0  0
   44.0570   33.3370   40.2340 F   0  0  0  0  0  0  0  0  0  0  0  0
   48.2670   30.4200   49.7570 N   0  0  0  0  0  0  0  0  0  0  0  0
   47.3290   35.1080   41.9480 O   0  0  0  0  0  0  0  0  0  0  0  0
   48.6570   35.0750   41.4960 C   0  0  0  0  0  0  0  0  0  0  0  0
   49.4360   35.6310   42.5250 F   0  0  0  0  0  0  0  0  0  0  0  0
   49.0140   33.7810   41.2010 F   0  0  0  0  0  0  0  0  0  0  0  0
   48.8240   35.9210   40.4150 F   0  0  0  0  0  0  0  0  0  0  0  0
   43.9059   32.2016   42.4628 H   0  0  0  0  0  0  0  0  0  0  0  0
   45.9531   34.0776   47.0257 H   0  0  0  0  0  0  0  0  0  0  0  0
   49.0208   28.4918   45.6714 H   0  0  0  0  0  0  0  0  0  0  0  0
   48.7352   29.6802   50.2996 H   0  0  0  0  0  0  0  0  0  0  0  0
   47.8474   31.2265   50.2411 H   0  0  0  0  0  0  0  0  0  0  0  0
  1  6  2  0
  2  1  1  0
  2  3  2  0
  3  4  1  0
  4  5  2  0
  5  7  1  0
  6  5  1  0
  7 15  1  0
  7  8  1  0
  8  9  2  0
 10  9  1  0
 10 11  2  0
 11 20  1  0
 12 11  1  0
 13 12  2  0
 14 13  1  0
 14 15  2  0
 15 10  1  0
 16 17  1  0
 16  2  1  0
 18 16  1  0
 19 16  1  0
 21  1  1  0
 22 21  1  0
 22 23  1  0
 24 22  1  0
 25 22  1  0
  3 26  1  0
  8 27  1  0
 13 28  1  0
 20 29  1  0
 20 30  1  0
M  ISO  3  26  14  27  14  28  14
M  END
>  <minimizedAffinity>  (1) 
-6.13704634

>  <minimizedRMSD>  (1) 
2.28188252

$$$$
