
     RDKit          3D

 29 31  0  0  0  0  0  0  0  0999 V2000
   44.1160   33.8520   42.0550 C   0  0  0  0  0  0  0  0  0  0  0  0
   45.4490   34.0280   42.6510 N   0  0  0  0  0  0  0  0  0  0  0  0
   45.8250   33.9910   43.9550 C   0  0  0  0  0  0  0  0  0  0  0  0
   47.1520   34.2060   44.0360 N   0  0  0  0  0  0  0  0  0  0  0  0
   47.5770   34.3730   42.7900 C   0  0  0  0  0  0  0  0  0  0  0  0
   48.8450   34.6200   42.3260 C   0  0  0  0  0  0  0  0  0  0  0  0
   49.0390   34.7560   40.9830 N   0  0  0  0  0  0  0  0  0  0  0  0
   47.9790   34.6450   40.1330 C   0  0  0  0  0  0  0  0  0  0  0  0
   46.7340   34.4020   40.5860 N   0  0  0  0  0  0  0  0  0  0  0  0
   46.5360   34.2680   41.8900 C   0  0  0  0  0  0  0  0  0  0  0  0
   49.9990   34.7490   43.1520 N   0  0  0  0  0  0  0  0  0  0  0  0
   43.4230   35.2090   42.1510 C   0  0  0  0  0  0  0  0  0  0  0  0
   41.6510   34.9840   38.8460 C   0  0  0  0  0  0  0  0  0  0  0  0
   42.6710   34.9050   39.8100 C   0  0  0  0  0  0  0  0  0  0  0  0
   42.3680   35.2810   41.1100 C   0  0  0  0  0  0  0  0  0  0  0  0
   41.1090   35.7020   41.3760 N   0  0  0  0  0  0  0  0  0  0  0  0
   40.1410   35.7710   40.4370 C   0  0  0  0  0  0  0  0  0  0  0  0
   40.4100   35.4130   39.1720 N   0  0  0  0  0  0  0  0  0  0  0  0
   43.5467   33.0931   42.6117 H   0  0  0  0  0  0  0  0  0  0  0  0
   44.1857   33.5108   41.0116 H   0  0  0  0  0  0  0  0  0  0  0  0
   45.1537   33.8139   44.8082 H   0  0  0  0  0  0  0  0  0  0  0  0
   48.1444   34.7566   39.0512 H   0  0  0  0  0  0  0  0  0  0  0  0
   50.9185   34.9349   42.7268 H   0  0  0  0  0  0  0  0  0  0  0  0
   49.9136   34.6563   44.1743 H   0  0  0  0  0  0  0  0  0  0  0  0
   42.9688   35.3227   43.1464 H   0  0  0  0  0  0  0  0  0  0  0  0
   44.1557   36.0149   41.9974 H   0  0  0  0  0  0  0  0  0  0  0  0
   41.8657   34.6917   37.8075 H   0  0  0  0  0  0  0  0  0  0  0  0
   43.6788   34.5556   39.5414 H   0  0  0  0  0  0  0  0  0  0  0  0
   39.1338   36.1200   40.7086 H   0  0  0  0  0  0  0  0  0  0  0  0
  1 12  1  0
  1  2  1  0
  2  3  1  0
  3  4  2  0
  5  4  1  0
  6  5  2  0
  6 11  1  0
  7  6  1  0
  8  9  1  0
  8  7  2  0
  9 10  2  0
 10  2  1  0
 10  5  1  0
 13 18  2  0
 13 14  1  0
 14 15  2  0
 15 16  1  0
 15 12  1  0
 17 16  2  0
 18 17  1  0
  1 19  1  0
  1 20  1  0
  3 21  1  0
  8 22  1  0
 11 23  1  0
 11 24  1  0
 12 25  1  0
 12 26  1  0
 13 27  1  0
 14 28  1  0
 17 29  1  0
M  ISO  8  19   8  20   8  21  14  22  14  25   8  26   8  27  14  28  14
M  ISO  1  29  14
M  END
>  <minimizedAffinity>  (1) 
-5.07993507

>  <minimizedRMSD>  (1) 
5.30258369

$$$$
