
     RDKit          3D

 49 52  0  0  0  0  0  0  0  0999 V2000
   44.7720   35.6530   44.4250 C   0  0  0  0  0  0  0  0  0  0  0  0
   44.1700   35.7770   43.1620 C   0  0  0  0  0  0  0  0  0  0  0  0
   44.1980   34.6540   42.3560 C   0  0  0  0  0  0  0  0  0  0  0  0
   44.7800   33.5180   42.7920 N   0  0  0  0  0  0  0  0  0  0  0  0
   45.3410   33.4680   44.0210 C   0  0  0  0  0  0  0  0  0  0  0  0
   45.3440   34.4950   44.8230 N   0  0  0  0  0  0  0  0  0  0  0  0
   45.9600   32.1940   44.4350 C   0  0  0  0  0  0  0  0  0  0  0  0
   46.7700   32.4250   45.6870 C   0  0  0  0  0  0  0  0  0  0  0  0
   46.1760   31.7830   46.8480 C   0  0  0  0  0  0  0  0  0  0  0  0
   45.4020   32.3480   47.8300 C   0  0  0  0  0  0  0  0  0  0  0  0
   44.8900   31.6560   48.8780 C   0  0  0  0  0  0  0  0  0  0  0  0
   45.1610   30.3100   48.9590 C   0  0  0  0  0  0  0  0  0  0  0  0
   45.9350   29.7340   47.9810 C   0  0  0  0  0  0  0  0  0  0  0  0
   46.4430   30.4520   46.9310 C   0  0  0  0  0  0  0  0  0  0  0  0
   48.5420   29.3210   46.5330 C   0  0  0  0  0  0  0  0  0  0  0  0
   49.3540   29.7140   47.4440 O   0  0  0  0  0  0  0  0  0  0  0  0
   47.2020   29.5570   46.0990 N   0  0  0  0  0  0  0  0  0  0  0  0
   43.5610   34.7860   41.0170 C   0  0  0  0  0  0  0  0  0  0  0  0
   42.2710   35.5700   41.0900 C   0  0  0  0  0  0  0  0  0  0  0  0
   41.4150   35.1470   39.9950 N   0  0  0  0  0  0  0  0  0  0  0  0
   41.6180   35.5710   38.7200 C   0  0  0  0  0  0  0  0  0  0  0  0
   40.6670   35.0070   37.9520 N   0  0  0  0  0  0  0  0  0  0  0  0
   39.8790   34.2360   38.7490 C   0  0  0  0  0  0  0  0  0  0  0  0
   38.7730   33.4220   38.6010 C   0  0  0  0  0  0  0  0  0  0  0  0
   38.2190   32.7780   39.6440 N   0  0  0  0  0  0  0  0  0  0  0  0
   38.7340   32.9050   40.9020 C   0  0  0  0  0  0  0  0  0  0  0  0
   39.8270   33.6960   41.1140 N   0  0  0  0  0  0  0  0  0  0  0  0
   40.3530   34.3220   40.0590 C   0  0  0  0  0  0  0  0  0  0  0  0
   38.2480   33.2980   37.2840 N   0  0  0  0  0  0  0  0  0  0  0  0
   44.7780   36.5175   45.1052 H   0  0  0  0  0  0  0  0  0  0  0  0
   43.7019   36.7162   42.8322 H   0  0  0  0  0  0  0  0  0  0  0  0
   45.1746   31.4505   44.6359 H   0  0  0  0  0  0  0  0  0  0  0  0
   46.6139   31.8208   43.6331 H   0  0  0  0  0  0  0  0  0  0  0  0
   47.7810   32.0189   45.5355 H   0  0  0  0  0  0  0  0  0  0  0  0
   46.7996   33.5081   45.8766 H   0  0  0  0  0  0  0  0  0  0  0  0
   45.1842   33.4242   47.7634 H   0  0  0  0  0  0  0  0  0  0  0  0
   44.2759   32.1566   49.6410 H   0  0  0  0  0  0  0  0  0  0  0  0
   44.7661   29.7070   49.7899 H   0  0  0  0  0  0  0  0  0  0  0  0
   46.1546   28.6579   48.0434 H   0  0  0  0  0  0  0  0  0  0  0  0
   49.0256   28.5727   45.8879 H   0  0  0  0  0  0  0  0  0  0  0  0
   46.8086   29.1192   45.2537 H   0  0  0  0  0  0  0  0  0  0  0  0
   43.3466   33.7816   40.6230 H   0  0  0  0  0  0  0  0  0  0  0  0
   44.2555   35.3266   40.3571 H   0  0  0  0  0  0  0  0  0  0  0  0
   41.7708   35.3738   42.0498 H   0  0  0  0  0  0  0  0  0  0  0  0
   42.4786   36.6475   41.0131 H   0  0  0  0  0  0  0  0  0  0  0  0
   42.4131   36.2501   38.3783 H   0  0  0  0  0  0  0  0  0  0  0  0
   38.2692   32.3709   41.7438 H   0  0  0  0  0  0  0  0  0  0  0  0
   37.4239   32.7045   37.1118 H   0  0  0  0  0  0  0  0  0  0  0  0
   38.6921   33.8017   36.5030 H   0  0  0  0  0  0  0  0  0  0  0  0
  1  6  2  0
  2  1  1  0
  3  4  1  0
  3  2  2  0
  4  5  2  0
  5  7  1  0
  5  6  1  0
  7  8  1  0
  8  9  1  0
  9 14  1  0
  9 10  2  0
 10 11  1  0
 11 12  2  0
 13 12  1  0
 14 13  2  0
 15 16  2  0
 17 15  1  0
 17 14  1  0
 18 19  1  0
 18  3  1  0
 20 28  1  0
 20 19  1  0
 21 20  1  0
 22 21  2  0
 22 23  1  0
 23 28  2  0
 24 23  1  0
 24 25  2  0
 25 26  1  0
 26 27  2  0
 28 27  1  0
 29 24  1  0
  1 30  1  0
  2 31  1  0
  7 32  1  0
  7 33  1  0
  8 34  1  0
  8 35  1  0
 10 36  1  0
 11 37  1  0
 12 38  1  0
 13 39  1  0
 15 40  1  0
 17 41  1  0
 18 42  1  0
 18 43  1  0
 19 44  1  0
 19 45  1  0
 21 46  1  0
 26 47  1  0
 29 48  1  0
 29 49  1  0
M  ISO  8  30  14  31  14  32   8  33   8  34   8  35   8  36  14  37  14
M  ISO  8  38  14  39  14  40   6  42   8  43   8  44   8  45   8  46  14
M  ISO  1  47  14
M  END
>  <minimizedAffinity>  (1) 
-6.30368853

>  <minimizedRMSD>  (1) 
1.39832652

$$$$
