
     RDKit          3D

 29 31  0  0  0  0  0  0  0  0999 V2000
   44.5647   36.0408   44.4771 C   0  0  0  0  0  0  0  0  0  0  0  0
   45.2194   35.9501   43.2359 C   0  0  0  0  0  0  0  0  0  0  0  0
   46.0755   34.8786   43.0289 C   0  0  0  0  0  0  0  0  0  0  0  0
   46.2321   33.9829   44.0311 N   0  0  0  0  0  0  0  0  0  0  0  0
   45.5947   34.0853   45.2184 C   0  0  0  0  0  0  0  0  0  0  0  0
   44.7617   35.1129   45.4422 N   0  0  0  0  0  0  0  0  0  0  0  0
   46.7804   34.7546   41.7290 C   0  0  0  0  0  0  0  0  0  0  0  0
   48.1896   35.3198   41.8784 C   0  0  0  0  0  0  0  0  0  0  0  0
   43.9197   36.9067   44.5459 H   0  0  0  0  0  0  0  0  0  0  0  0
   45.0858   36.6733   42.4419 H   0  0  0  0  0  0  0  0  0  0  0  0
   45.7705   33.3296   45.9720 H   0  0  0  0  0  0  0  0  0  0  0  0
   46.8713   33.6934   41.4408 H   0  0  0  0  0  0  0  0  0  0  0  0
   46.2136   35.3021   40.9561 H   0  0  0  0  0  0  0  0  0  0  0  0
   48.1858   36.3688   42.1908 H   0  0  0  0  0  0  0  0  0  0  0  0
   48.7782   34.6469   42.5358 H   0  0  0  0  0  0  0  0  0  0  0  0
   48.8340   35.1696   40.5647 N   0  0  0  0  0  0  0  0  0  0  0  0
   49.1013   36.1064   39.6201 C   0  0  0  0  0  0  0  0  0  0  0  0
   48.8363   37.1594   39.7640 H   0  0  0  0  0  0  0  0  0  0  0  0
   49.7040   35.5152   38.5713 N   0  0  0  0  0  0  0  0  0  0  0  0
   49.8016   34.2278   38.8781 C   0  0  0  0  0  0  0  0  0  0  0  0
   50.3369   33.1952   38.1497 C   0  0  0  0  0  0  0  0  0  0  0  0
   50.9180   33.3320   36.8557 N   0  0  0  0  0  0  0  0  0  0  0  0
   51.8002   32.8666   36.5486 H   0  0  0  0  0  0  0  0  0  0  0  0
   50.3234   31.9386   38.6809 N   0  0  0  0  0  0  0  0  0  0  0  0
   49.7826   31.7341   39.9157 C   0  0  0  0  0  0  0  0  0  0  0  0
   49.7656   30.7321   40.3526 H   0  0  0  0  0  0  0  0  0  0  0  0
   49.2565   32.7467   40.6327 N   0  0  0  0  0  0  0  0  0  0  0  0
   49.2663   33.9698   40.1227 C   0  0  0  0  0  0  0  0  0  0  0  0
   50.5401   33.9088   36.0581 H   0  0  0  0  0  0  0  0  0  0  0  0
  1  6  2  0
  2  1  1  0
  3  2  2  0
  3  4  1  0
  4  5  2  0
  5  6  1  0
  7  8  1  0
  7  3  1  0
  1  9  1  0
  2 10  1  0
  5 11  1  0
  7 12  1  0
  7 13  1  0
  8 14  1  0
  8 15  1  0
 16 17  1  0
 17 18  1  0
 17 19  2  0
 19 20  1  0
 20 21  2  0
 21 22  1  0
 22 23  1  0
 21 24  1  0
 24 25  2  0
 25 26  1  0
 25 27  1  0
 27 28  2  0
 28 16  1  0
 28 20  1  0
 22 29  1  0
  8 16  1  0
M  ISO  8   9  14  10  14  11  14  12   8  13   8  14   8  15   8  18  15
M  ISO  2  23   5  26  16
M  END
>  <DihAtoms>  (1) 
6,7,15,16

>  <DihDeg>  (1) 
-90.00153830346275

$$$$
