
     RDKit          3D

 29 31  0  0  0  0  0  0  0  0999 V2000
   44.5647   36.0408   44.4771 C   0  0  0  0  0  0  0  0  0  0  0  0
   45.2194   35.9501   43.2359 C   0  0  0  0  0  0  0  0  0  0  0  0
   46.0755   34.8786   43.0289 C   0  0  0  0  0  0  0  0  0  0  0  0
   46.2321   33.9829   44.0311 N   0  0  0  0  0  0  0  0  0  0  0  0
   45.5947   34.0853   45.2184 C   0  0  0  0  0  0  0  0  0  0  0  0
   44.7617   35.1129   45.4422 N   0  0  0  0  0  0  0  0  0  0  0  0
   46.7804   34.7546   41.7290 C   0  0  0  0  0  0  0  0  0  0  0  0
   48.1896   35.3198   41.8784 C   0  0  0  0  0  0  0  0  0  0  0  0
   43.9197   36.9067   44.5459 H   0  0  0  0  0  0  0  0  0  0  0  0
   45.0858   36.6733   42.4419 H   0  0  0  0  0  0  0  0  0  0  0  0
   45.7705   33.3296   45.9720 H   0  0  0  0  0  0  0  0  0  0  0  0
   46.8713   33.6934   41.4408 H   0  0  0  0  0  0  0  0  0  0  0  0
   46.2136   35.3021   40.9561 H   0  0  0  0  0  0  0  0  0  0  0  0
   48.1858   36.3688   42.1908 H   0  0  0  0  0  0  0  0  0  0  0  0
   48.7782   34.6469   42.5358 H   0  0  0  0  0  0  0  0  0  0  0  0
   48.8340   35.1696   40.5647 N   0  0  0  0  0  0  0  0  0  0  0  0
   49.7763   34.2810   40.1599 C   0  0  0  0  0  0  0  0  0  0  0  0
   50.1807   33.5230   40.8392 H   0  0  0  0  0  0  0  0  0  0  0  0
   50.0748   34.5133   38.8677 N   0  0  0  0  0  0  0  0  0  0  0  0
   49.3182   35.5365   38.4913 C   0  0  0  0  0  0  0  0  0  0  0  0
   49.2403   36.1625   37.2725 C   0  0  0  0  0  0  0  0  0  0  0  0
   50.0057   35.8020   36.1258 N   0  0  0  0  0  0  0  0  0  0  0  0
   49.6286   35.7433   35.1545 H   0  0  0  0  0  0  0  0  0  0  0  0
   48.3760   37.2075   37.1233 N   0  0  0  0  0  0  0  0  0  0  0  0
   47.6118   37.6069   38.1795 C   0  0  0  0  0  0  0  0  0  0  0  0
   46.9154   38.4428   38.0729 H   0  0  0  0  0  0  0  0  0  0  0  0
   47.6866   36.9935   39.3771 N   0  0  0  0  0  0  0  0  0  0  0  0
   48.5241   35.9778   39.5291 C   0  0  0  0  0  0  0  0  0  0  0  0
   51.0302   35.5529   36.1105 H   0  0  0  0  0  0  0  0  0  0  0  0
  1  6  2  0
  2  1  1  0
  3  2  2  0
  3  4  1  0
  4  5  2  0
  5  6  1  0
  7  8  1  0
  7  3  1  0
  1  9  1  0
  2 10  1  0
  5 11  1  0
  7 12  1  0
  7 13  1  0
  8 14  1  0
  8 15  1  0
 16 17  1  0
 17 18  1  0
 17 19  2  0
 19 20  1  0
 20 21  2  0
 21 22  1  0
 22 23  1  0
 21 24  1  0
 24 25  2  0
 25 26  1  0
 25 27  1  0
 27 28  2  0
 28 16  1  0
 28 20  1  0
 22 29  1  0
  8 16  1  0
M  ISO  8   9  14  10  14  11  14  12   8  13   8  14   8  15   8  18  15
M  ISO  2  23   5  26  16
M  END
>  <DihAtoms>  (1) 
6,7,15,16

>  <DihDeg>  (1) 
-90.00153830346275

$$$$
