
     RDKit          3D

 24 26  0  0  0  0  0  0  0  0999 V2000
   44.5500   35.6400   45.0630 C   0  0  0  0  0  0  0  0  0  0  0  0
   44.2670   35.7090   43.6700 C   0  0  0  0  0  0  0  0  0  0  0  0
   44.6860   34.6270   42.8860 C   0  0  0  0  0  0  0  0  0  0  0  0
   45.3230   33.5880   43.4640 N   0  0  0  0  0  0  0  0  0  0  0  0
   45.5730   33.5610   44.7980 C   0  0  0  0  0  0  0  0  0  0  0  0
   45.1910   34.5760   45.5940 N   0  0  0  0  0  0  0  0  0  0  0  0
   46.2400   32.4960   45.4660 N   0  0  0  0  0  0  0  0  0  0  0  0
   47.0890   31.6420   44.8430 C   0  0  0  0  0  0  0  0  0  0  0  0
   47.5700   30.7400   45.7180 N   0  0  0  0  0  0  0  0  0  0  0  0
   47.0370   30.9980   46.9290 C   0  0  0  0  0  0  0  0  0  0  0  0
   47.1400   30.4340   48.2030 C   0  0  0  0  0  0  0  0  0  0  0  0
   46.4160   31.0030   49.2070 N   0  0  0  0  0  0  0  0  0  0  0  0
   45.6270   32.0680   48.9910 C   0  0  0  0  0  0  0  0  0  0  0  0
   45.5120   32.6280   47.7710 N   0  0  0  0  0  0  0  0  0  0  0  0
   46.2100   32.0960   46.7520 C   0  0  0  0  0  0  0  0  0  0  0  0
   47.9730   29.3250   48.3900 N   0  0  0  0  0  0  0  0  0  0  0  0
   44.3680   34.6330   41.1210 S   0  0  0  0  0  0  0  0  0  0  0  0
   44.2414   36.4675   45.7188 H   0  0  0  0  0  0  0  0  0  0  0  0
   43.7441   36.5711   43.2302 H   0  0  0  0  0  0  0  0  0  0  0  0
   47.3477   31.6810   43.7746 H   0  0  0  0  0  0  0  0  0  0  0  0
   45.0600   32.4941   49.8318 H   0  0  0  0  0  0  0  0  0  0  0  0
   48.0598   28.8976   49.3231 H   0  0  0  0  0  0  0  0  0  0  0  0
   48.4992   28.9362   47.5945 H   0  0  0  0  0  0  0  0  0  0  0  0
   43.0161   34.6585   40.9006 H   0  0  0  0  0  0  0  0  0  0  0  0
  1  6  2  0
  2  1  1  0
  3  4  1  0
  3  2  2  0
  4  5  2  0
  5  7  1  0
  5  6  1  0
  7 15  1  0
  8  7  1  0
  8  9  2  0
  9 10  1  0
 10 11  2  0
 11 16  1  0
 11 12  1  0
 13 12  2  0
 14 13  1  0
 15 10  1  0
 15 14  2  0
 17  3  1  0
  1 18  1  0
  2 19  1  0
  8 20  1  0
 13 21  1  0
 16 22  1  0
 16 23  1  0
 17 24  1  0
M  ISO  5  18  14  19  14  20  14  21  14  24  11
M  END
>  <minimizedAffinity>  (1) 
-5.50202274

>  <minimizedRMSD>  (1) 
2.27173829

$$$$
