
     RDKit          3D

 32 34  0  0  0  0  0  0  0  0999 V2000
   45.2390   29.7500   47.5790 C   0  0  0  0  0  0  0  0  0  0  0  0
   44.5920   28.5890   46.9950 N   0  0  0  0  0  0  0  0  0  0  0  0
   43.7690   28.6720   45.9130 C   0  0  0  0  0  0  0  0  0  0  0  0
   43.3070   27.4550   45.5800 N   0  0  0  0  0  0  0  0  0  0  0  0
   43.8360   26.5880   46.4510 C   0  0  0  0  0  0  0  0  0  0  0  0
   43.7640   25.2190   46.6550 C   0  0  0  0  0  0  0  0  0  0  0  0
   44.4140   24.6030   47.6280 N   0  0  0  0  0  0  0  0  0  0  0  0
   45.1920   25.3340   48.4760 C   0  0  0  0  0  0  0  0  0  0  0  0
   45.3190   26.6880   48.3470 N   0  0  0  0  0  0  0  0  0  0  0  0
   44.6460   27.2910   47.3460 C   0  0  0  0  0  0  0  0  0  0  0  0
   42.9180   24.5410   45.7090 N   0  0  0  0  0  0  0  0  0  0  0  0
   45.4690   30.6610   46.5840 O   0  0  0  0  0  0  0  0  0  0  0  0
   46.8960   31.7750   48.4170 O   0  0  0  0  0  0  0  0  0  0  0  0
   45.9240   32.1200   47.2920 P   0  0  2  0  0  0  0  0  0  0  0  0
   44.5510   32.8710   47.8900 O   0  0  0  0  0  0  0  0  0  0  0  0
   46.7450   33.1170   46.1940 O   0  0  0  0  0  0  0  0  0  0  0  0
   44.4830   35.5100   44.8430 C   0  0  0  0  0  0  0  0  0  0  0  0
   44.8890   35.6730   43.4990 C   0  0  0  0  0  0  0  0  0  0  0  0
   45.9980   34.8940   43.1060 C   0  0  0  0  0  0  0  0  0  0  0  0
   46.5970   34.0590   44.0020 N   0  0  0  0  0  0  0  0  0  0  0  0
   46.1440   33.9640   45.2720 C   0  0  0  0  0  0  0  0  0  0  0  0
   45.1040   34.6780   45.6810 N   0  0  0  0  0  0  0  0  0  0  0  0
   44.5860   30.1933   48.3452 H   0  0  0  0  0  0  0  0  0  0  0  0
   46.1885   29.4569   48.0507 H   0  0  0  0  0  0  0  0  0  0  0  0
   43.5178   29.6042   45.3859 H   0  0  0  0  0  0  0  0  0  0  0  0
   45.7315   24.8201   49.2852 H   0  0  0  0  0  0  0  0  0  0  0  0
   42.7930   23.5204   45.7690 H   0  0  0  0  0  0  0  0  0  0  0  0
   42.4374   25.0763   44.9719 H   0  0  0  0  0  0  0  0  0  0  0  0
   44.5729   32.8590   48.8797 H   0  0  0  0  0  0  0  0  0  0  0  0
   43.6240   36.0900   45.2114 H   0  0  0  0  0  0  0  0  0  0  0  0
   44.3766   36.3587   42.8081 H   0  0  0  0  0  0  0  0  0  0  0  0
   46.3794   34.9604   42.0764 H   0  0  0  0  0  0  0  0  0  0  0  0
  2 10  1  0
  2  1  1  0
  3  2  1  0
  4  3  2  0
  4  5  1  0
  5  6  2  0
  5 10  1  0
  6  7  1  0
  7  8  2  0
  9  8  1  0
 10  9  2  0
 11  6  1  0
 12 14  1  0
 12  1  1  0
 14 15  1  0
 14 13  2  0
 16 14  1  0
 17 22  2  0
 18 17  1  0
 19 18  2  0
 19 20  1  0
 20 21  2  0
 21 22  1  0
 21 16  1  0
  1 23  1  0
  1 24  1  0
  3 25  1  0
  8 26  1  0
 11 27  1  0
 11 28  1  0
 15 29  1  0
 17 30  1  0
 18 31  1  0
 19 32  1  0
M  ISO  8  23   8  24   8  25  14  26  14  29   3  30  14  31  14  32  14
M  END
>  <minimizedAffinity>  (1) 
-4.93484497

>  <minimizedRMSD>  (1) 
1.19632161

$$$$
