
     RDKit          3D

 54 58  0  0  1  0  0  0  0  0999 V2000
   45.4630   30.0980   47.1380 C   0  0  0  0  0  0  0  0  0  0  0  0
   45.0010   34.7480   44.9790 C   0  0  0  0  0  0  0  0  0  0  0  0
   45.8660   34.6080   43.8600 C   0  0  0  0  0  0  0  0  0  0  0  0
   46.9180   33.6860   43.9470 C   0  0  0  0  0  0  0  0  0  0  0  0
   47.0420   32.9850   45.0970 N   0  0  0  0  0  0  0  0  0  0  0  0
   46.2340   33.1140   46.1410 C   0  0  0  0  0  0  0  0  0  0  0  0
   45.2320   33.9990   46.0480 N   0  0  0  0  0  0  0  0  0  0  0  0
   46.4410   32.3500   47.2800 N   0  0  0  0  0  0  0  0  0  0  0  0
   47.7030   32.4150   47.9860 C   0  0  0  0  0  0  0  0  0  0  0  0
   47.9230   31.2820   48.9370 C   0  0  0  0  0  0  0  0  0  0  0  0
   46.7690   30.7160   49.5500 N   0  0  0  0  0  0  0  0  0  0  0  0
   45.5610   31.4370   49.2510 C   0  0  0  0  0  0  0  0  0  0  0  0
   45.3600   31.4660   47.7680 C   0  0  2  0  0  0  0  0  0  0  0  0
   44.9030   29.1350   48.1500 C   0  0  0  0  0  0  0  0  0  0  0  0
   45.0560   27.8230   47.9910 C   0  0  0  0  0  0  0  0  0  0  0  0
   44.5460   26.7870   48.9250 C   0  0  0  0  0  0  0  0  0  0  0  0
   43.5910   25.8750   48.1860 C   0  0  2  0  0  0  0  0  0  0  0  0
   44.1810   24.8720   47.2380 C   0  0  0  0  0  0  0  0  0  0  0  0
   43.3930   26.0500   46.7260 C   0  0  1  0  0  0  0  0  0  0  0  0
   42.1030   25.6520   46.1390 N   0  0  0  0  0  0  0  0  0  0  0  0
   40.9050   25.5850   46.7470 C   0  0  0  0  0  0  0  0  0  0  0  0
   39.9680   25.1860   45.9000 N   0  0  0  0  0  0  0  0  0  0  0  0
   40.5540   24.9840   44.7130 C   0  0  0  0  0  0  0  0  0  0  0  0
   40.1170   24.5760   43.4740 C   0  0  0  0  0  0  0  0  0  0  0  0
   40.9700   24.4690   42.4550 N   0  0  0  0  0  0  0  0  0  0  0  0
   42.2810   24.7640   42.6390 C   0  0  0  0  0  0  0  0  0  0  0  0
   42.7590   25.1710   43.8420 N   0  0  0  0  0  0  0  0  0  0  0  0
   41.9080   25.2780   44.8620 C   0  0  0  0  0  0  0  0  0  0  0  0
   38.7140   24.2830   43.3660 N   0  0  0  0  0  0  0  0  0  0  0  0
   44.8767   30.0598   46.2081 H   0  0  0  0  0  0  0  0  0  0  0  0
   46.5026   29.8506   46.8770 H   0  0  0  0  0  0  0  0  0  0  0  0
   44.1620   35.4591   44.9585 H   0  0  0  0  0  0  0  0  0  0  0  0
   45.7139   35.2072   42.9501 H   0  0  0  0  0  0  0  0  0  0  0  0
   47.6171   33.5379   43.1107 H   0  0  0  0  0  0  0  0  0  0  0  0
   48.5156   32.4080   47.2446 H   0  0  0  0  0  0  0  0  0  0  0  0
   47.6870   33.3372   48.5854 H   0  0  0  0  0  0  0  0  0  0  0  0
   48.4318   30.4789   48.3836 H   0  0  0  0  0  0  0  0  0  0  0  0
   48.5021   31.7148   49.7660 H   0  0  0  0  0  0  0  0  0  0  0  0
   46.6632   29.7468   49.2177 H   0  0  0  0  0  0  0  0  0  0  0  0
   44.7058   30.9363   49.7286 H   0  0  0  0  0  0  0  0  0  0  0  0
   45.6398   32.4653   49.6337 H   0  0  0  0  0  0  0  0  0  0  0  0
   44.3523   31.8201   47.5051 H   0  0  0  0  0  0  0  0  0  0  0  0
   44.3630   29.5189   49.0280 H   0  0  0  0  0  0  0  0  0  0  0  0
   45.6018   27.4794   47.0999 H   0  0  0  0  0  0  0  0  0  0  0  0
   45.3886   26.1978   49.3160 H   0  0  0  0  0  0  0  0  0  0  0  0
   44.0208   27.2711   49.7616 H   0  0  0  0  0  0  0  0  0  0  0  0
   42.9095   25.8349   49.0485 H   0  0  0  0  0  0  0  0  0  0  0  0
   45.2698   24.8281   47.0873 H   0  0  0  0  0  0  0  0  0  0  0  0
   44.1239   23.7801   47.1181 H   0  0  0  0  0  0  0  0  0  0  0  0
   43.5535   26.9037   46.0511 H   0  0  0  0  0  0  0  0  0  0  0  0
   40.7274   25.8287   47.8049 H   0  0  0  0  0  0  0  0  0  0  0  0
   42.9750   24.6709   41.7907 H   0  0  0  0  0  0  0  0  0  0  0  0
   38.3205   23.9724   42.4662 H   0  0  0  0  0  0  0  0  0  0  0  0
   38.1021   24.3837   44.1884 H   0  0  0  0  0  0  0  0  0  0  0  0
  1 13  1  0
  1 14  1  0
  2  7  2  0
  3  4  2  0
  3  2  1  0
  4  5  1  0
  5  6  2  0
  6  8  1  0
  7  6  1  0
  8 13  1  0
  8  9  1  0
  9 10  1  0
 10 11  1  0
 12 11  1  0
 13 12  1  0
 15 14  2  0
 15 16  1  0
 17 16  1  0
 18 17  1  0
 19 18  1  0
 19 17  1  0
 20 19  1  0
 20 21  1  0
 22 21  2  0
 23 28  2  0
 23 22  1  0
 24 23  1  0
 25 26  1  0
 25 24  2  0
 26 27  2  0
 27 28  1  0
 28 20  1  0
 29 24  1  0
  1 30  1  0
  1 31  1  0
  2 32  1  0
  3 33  1  0
  4 34  1  0
  9 35  1  0
  9 36  1  0
 10 37  1  0
 10 38  1  0
 11 39  1  0
 12 40  1  0
 12 41  1  0
 13 42  1  1
 14 43  1  0
 15 44  1  0
 16 45  1  0
 16 46  1  0
 17 47  1  1
 18 48  1  0
 18 49  1  0
 19 50  1  6
 21 51  1  0
 26 52  1  0
 29 53  1  0
 29 54  1  0
M  ISO  8  30   8  31   8  32  14  33  14  34  14  35  13  36  13  37  13
M  ISO  8  38  13  39   5  40  13  41  13  42  13  45   8  46   8  47  13
M  ISO  5  48  13  49  13  50  13  51  14  52  14
M  END
>  <minimizedAffinity>  (1) 
-6.27956581

>  <minimizedRMSD>  (1) 
0.399693817

$$$$
