
     RDKit          3D

 35 38  0  0  1  0  0  0  0  0999 V2000
   46.6410   34.0750   42.3750 N   0  0  0  0  0  0  0  0  0  0  0  0
   48.0330   34.2810   41.9740 C   0  0  0  0  0  0  0  0  0  0  0  0
   47.8050   34.7110   40.5510 C   0  0  0  0  0  0  0  0  0  0  0  0
   46.9110   33.5650   40.0880 C   0  0  0  0  0  0  0  0  0  0  0  0
   46.0570   33.3020   41.2940 C   0  0  2  0  0  0  0  0  0  0  0  0
   44.6600   33.4370   41.1190 N   0  0  0  0  0  0  0  0  0  0  0  0
   44.1120   34.4940   40.4500 C   0  0  0  0  0  0  0  0  0  0  0  0
   42.7740   34.3860   40.4280 N   0  0  0  0  0  0  0  0  0  0  0  0
   42.4000   33.2690   41.0750 C   0  0  0  0  0  0  0  0  0  0  0  0
   41.1770   32.6880   41.3430 C   0  0  0  0  0  0  0  0  0  0  0  0
   41.1910   31.5220   42.0440 N   0  0  0  0  0  0  0  0  0  0  0  0
   42.3600   30.9730   42.4490 C   0  0  0  0  0  0  0  0  0  0  0  0
   43.5330   31.5670   42.1680 N   0  0  0  0  0  0  0  0  0  0  0  0
   43.5910   32.7090   41.4880 C   0  0  0  0  0  0  0  0  0  0  0  0
   39.9910   33.3280   40.8840 N   0  0  0  0  0  0  0  0  0  0  0  0
   44.5550   35.9670   44.7950 C   0  0  0  0  0  0  0  0  0  0  0  0
   45.2090   35.6620   43.5990 C   0  0  0  0  0  0  0  0  0  0  0  0
   45.9500   34.4860   43.5150 C   0  0  0  0  0  0  0  0  0  0  0  0
   45.9910   33.6840   44.6330 N   0  0  0  0  0  0  0  0  0  0  0  0
   45.3560   33.9920   45.7770 C   0  0  0  0  0  0  0  0  0  0  0  0
   44.6390   35.1250   45.8650 N   0  0  0  0  0  0  0  0  0  0  0  0
   48.5221   35.0663   42.5691 H   0  0  0  0  0  0  0  0  0  0  0  0
   48.6973   33.4143   42.1063 H   0  0  0  0  0  0  0  0  0  0  0  0
   47.2922   35.6823   40.4920 H   0  0  0  0  0  0  0  0  0  0  0  0
   48.7163   34.8670   39.9550 H   0  0  0  0  0  0  0  0  0  0  0  0
   46.2974   33.8646   39.2256 H   0  0  0  0  0  0  0  0  0  0  0  0
   47.4739   32.6818   39.7517 H   0  0  0  0  0  0  0  0  0  0  0  0
   46.0789   32.2296   41.5377 H   0  0  0  0  0  0  0  0  0  0  0  0
   44.6845   35.3156   39.9947 H   0  0  0  0  0  0  0  0  0  0  0  0
   42.3503   30.0297   43.0147 H   0  0  0  0  0  0  0  0  0  0  0  0
   39.0710   32.9066   41.0762 H   0  0  0  0  0  0  0  0  0  0  0  0
   40.0530   34.2124   40.3597 H   0  0  0  0  0  0  0  0  0  0  0  0
   43.9675   36.8936   44.8747 H   0  0  0  0  0  0  0  0  0  0  0  0
   45.1397   36.3408   42.7362 H   0  0  0  0  0  0  0  0  0  0  0  0
   45.4234   33.3158   46.6420 H   0  0  0  0  0  0  0  0  0  0  0  0
  1 18  1  0
  2  1  1  0
  3  2  1  0
  4  3  1  0
  4  5  1  0
  5  1  1  0
  6  5  1  0
  6 14  1  0
  7  6  1  0
  8  7  2  0
  8  9  1  0
  9 10  2  0
  9 14  1  0
 10 11  1  0
 11 12  2  0
 13 12  1  0
 14 13  2  0
 15 10  1  0
 16 21  2  0
 17 16  1  0
 18 17  2  0
 18 19  1  0
 19 20  2  0
 20 21  1  0
  2 22  1  0
  2 23  1  0
  3 24  1  0
  3 25  1  0
  4 26  1  0
  4 27  1  0
  5 28  1  1
  7 29  1  0
 12 30  1  0
 15 31  1  0
 15 32  1  0
 16 33  1  0
 17 34  1  0
 20 35  1  0
M  ISO  8  22  13  23  13  24  13  25  13  26  13  27  13  28  13  29  14
M  ISO  4  30  14  33  14  34  14  35  14
M  END
>  <minimizedAffinity>  (1) 
-5.41078091

>  <minimizedRMSD>  (1) 
2.11254287

$$$$
