
     RDKit          3D

 28 30  0  0  0  0  0  0  0  0999 V2000
   45.3057   33.2449   47.3974 C   0  0  0  0  0  0  0  0  0  0  0  0
   45.8114   33.3272   46.0875 C   0  0  0  0  0  0  0  0  0  0  0  0
   46.8945   32.4973   45.7562 C   0  0  0  0  0  0  0  0  0  0  0  0
   47.3938   31.6670   46.7042 N   0  0  0  0  0  0  0  0  0  0  0  0
   46.8828   31.6156   47.9498 C   0  0  0  0  0  0  0  0  0  0  0  0
   45.8409   32.4005   48.3014 N   0  0  0  0  0  0  0  0  0  0  0  0
   45.2192   34.2426   45.1338 C   0  0  0  0  0  0  0  0  0  0  0  0
   45.2002   34.0522   43.7768 C   0  0  0  0  0  0  0  0  0  0  0  0
   44.5583   35.1275   43.2443 C   0  0  0  0  0  0  0  0  0  0  0  0
   44.1913   35.9583   44.2436 N   0  0  0  0  0  0  0  0  0  0  0  0
   44.5999   35.4066   45.3829 N   0  0  0  0  0  0  0  0  0  0  0  0
   44.2510   34.0543   47.7169 O   0  0  0  0  0  0  0  0  0  0  0  0
   47.2778   32.5678   44.7437 H   0  0  0  0  0  0  0  0  0  0  0  0
   47.3477   30.9200   48.6418 H   0  0  0  0  0  0  0  0  0  0  0  0
   45.5878   33.2468   43.1564 H   0  0  0  0  0  0  0  0  0  0  0  0
   44.3119   35.4051   42.2246 H   0  0  0  0  0  0  0  0  0  0  0  0
   43.6842   36.8838   44.2813 H   0  0  0  0  0  0  0  0  0  0  0  0
   42.3937   31.8121   48.5306 Cl  0  0  0  0  0  0  0  0  0  0  0  0
   42.7560   33.2108   49.5246 C   0  0  0  0  0  0  0  0  0  0  0  0
   43.6292   34.1060   48.9516 C   0  0  0  0  0  0  0  0  0  0  0  0
   44.0003   35.2589   49.6343 C   0  0  0  0  0  0  0  0  0  0  0  0
   44.6775   36.0377   49.2910 H   0  0  0  0  0  0  0  0  0  0  0  0
   43.4924   35.5251   50.9112 C   0  0  0  0  0  0  0  0  0  0  0  0
   42.6198   34.6022   51.4501 C   0  0  0  0  0  0  0  0  0  0  0  0
   41.9337   34.8547   53.0468 Cl  0  0  0  0  0  0  0  0  0  0  0  0
   42.2350   33.4366   50.7780 C   0  0  0  0  0  0  0  0  0  0  0  0
   41.5587   32.7054   51.1765 H   0  0  0  0  0  0  0  0  0  0  0  0
   43.7487   36.4063   51.4846 H   0  0  0  0  0  0  0  0  0  0  0  0
  1 12  1  0
  1  6  2  0
  2  1  1  0
  3  2  2  0
  3  4  1  0
  4  5  2  0
  5  6  1  0
  7 11  2  0
  7  2  1  0
  8  7  1  0
  9  8  2  0
  9 10  1  0
 10 11  1  0
  3 13  1  0
  5 14  1  0
  8 15  1  0
  9 16  1  0
 10 17  1  0
 18 19  1  0
 19 20  2  0
 20 21  1  0
 21 22  1  0
 21 23  2  0
 23 24  1  0
 24 25  1  0
 24 26  2  0
 26 27  1  0
 26 19  1  0
 23 28  1  0
 12 20  1  0
M  ISO  7  13  14  14  14  15  14  16  14  17   9  22  16  27  15
M  END
>  <DihAtoms>  (1) 
0,11,19,18

>  <DihDeg>  (1) 
-60.00083405611413

$$$$
