
     RDKit          3D

 45 47  0  0  0  0  0  0  0  0999 V2000
   44.6830   35.2890   45.0737 O   0  0  0  0  0  0  0  0  0  0  0  0
   45.4853   34.2451   44.3305 P   0  0  2  0  0  0  0  0  0  0  0  0
   44.5260   33.0684   43.6503 O   0  0  0  0  0  0  0  0  0  0  0  0
   46.5144   33.4626   45.4054 O   0  0  0  0  0  0  0  0  0  0  0  0
   46.2020   32.1352   45.4192 C   0  0  0  0  0  0  0  0  0  0  0  0
   45.7533   32.0441   49.1180 C   0  0  0  0  0  0  0  0  0  0  0  0
   46.0508   32.5269   47.8331 C   0  0  0  0  0  0  0  0  0  0  0  0
   45.8923   31.6449   46.7753 C   0  0  0  0  0  0  0  0  0  0  0  0
   45.4618   30.3681   47.0220 N   0  0  0  0  0  0  0  0  0  0  0  0
   45.1861   29.9413   48.2709 C   0  0  0  0  0  0  0  0  0  0  0  0
   45.3308   30.7680   49.2960 N   0  0  0  0  0  0  0  0  0  0  0  0
   46.4089   35.0366   43.1651 O   0  0  0  0  0  0  0  0  0  0  0  0
   46.9290   34.0870   42.2736 C   0  0  1  0  0  0  0  0  0  0  0  0
   46.3921   34.2531   40.8814 C   0  0  0  0  0  0  0  0  0  0  0  0
   47.3413   33.3767   40.1006 C   0  0  0  0  0  0  0  0  0  0  0  0
   48.6347   33.3514   40.8695 C   0  0  0  0  0  0  0  0  0  0  0  0
   48.4131   34.2983   42.0556 C   0  0  1  0  0  0  0  0  0  0  0  0
   48.7691   35.7061   41.7149 C   0  0  0  0  0  0  0  0  0  0  0  0
   44.7731   32.7287   42.7811 H   0  0  0  0  0  0  0  0  0  0  0  0
   45.4284   31.7778   44.7485 H   0  0  0  0  0  0  0  0  0  0  0  0
   47.1363   31.5825   45.0987 H   0  0  0  0  0  0  0  0  0  0  0  0
   45.8590   32.6860   49.9744 H   0  0  0  0  0  0  0  0  0  0  0  0
   46.3867   33.5405   47.6823 H   0  0  0  0  0  0  0  0  0  0  0  0
   44.8489   28.9178   48.4083 H   0  0  0  0  0  0  0  0  0  0  0  0
   46.7730   33.0445   42.6295 H   0  0  0  0  0  0  0  0  0  0  0  0
   46.4865   35.2862   40.5478 H   0  0  0  0  0  0  0  0  0  0  0  0
   45.3373   33.9012   40.7878 H   0  0  0  0  0  0  0  0  0  0  0  0
   47.4509   33.7148   39.0518 H   0  0  0  0  0  0  0  0  0  0  0  0
   46.8739   32.3676   40.0710 H   0  0  0  0  0  0  0  0  0  0  0  0
   49.4186   33.8536   40.2411 H   0  0  0  0  0  0  0  0  0  0  0  0
   48.9308   32.3533   41.1988 H   0  0  0  0  0  0  0  0  0  0  0  0
   48.9883   33.8720   42.8838 H   0  0  0  0  0  0  0  0  0  0  0  0
   48.3918   36.3835   42.4850 H   0  0  0  0  0  0  0  0  0  0  0  0
   48.2933   35.9799   40.7545 H   0  0  0  0  0  0  0  0  0  0  0  0
   49.3565   37.2236   39.2648 Cl  0  0  0  0  0  0  0  0  0  0  0  0
   50.5702   36.5922   40.3892 C   0  0  0  0  0  0  0  0  0  0  0  0
   50.2438   35.8766   41.5315 C   0  0  0  0  0  0  0  0  0  0  0  0
   51.2035   35.3951   42.3913 C   0  0  0  0  0  0  0  0  0  0  0  0
   50.8952   34.8552   43.2494 H   0  0  0  0  0  0  0  0  0  0  0  0
   52.4955   35.6838   42.0202 C   0  0  0  0  0  0  0  0  0  0  0  0
   52.9145   36.3837   40.9113 C   0  0  0  0  0  0  0  0  0  0  0  0
   54.6026   36.6793   40.5612 Cl  0  0  0  0  0  0  0  0  0  0  0  0
   51.8895   36.8458   40.0775 C   0  0  0  0  0  0  0  0  0  0  0  0
   52.1402   37.4078   39.1792 H   0  0  0  0  0  0  0  0  0  0  0  0
   53.3023   35.3330   42.6571 H   0  0  0  0  0  0  0  0  0  0  0  0
  2  1  2  0
  2  4  1  1
  3  2  1  0
  4  5  1  0
  5  8  1  0
  6 11  2  0
  7  6  1  0
  8  9  1  0
  8  7  2  0
  9 10  2  0
 10 11  1  0
 12  2  1  0
 13 12  1  0
 14 13  1  0
 15 16  1  0
 15 14  1  0
 16 17  1  0
 17 13  1  0
 18 17  1  0
  3 19  1  0
  5 20  1  0
  5 21  1  0
  6 22  1  0
  7 23  1  0
 10 24  1  0
 13 25  1  1
 14 26  1  0
 14 27  1  0
 15 28  1  0
 15 29  1  0
 16 30  1  0
 16 31  1  0
 17 32  1  1
 18 33  1  0
 18 34  1  0
 35 36  1  0
 36 37  2  0
 37 38  1  0
 38 39  1  0
 38 40  2  0
 40 41  1  0
 41 42  1  0
 41 43  2  0
 43 44  1  0
 43 36  1  0
 40 45  1  0
 18 37  1  0
M  ISO  8  19   3  20   8  21   8  22  14  23  14  24  14  25  13  26  13
M  ISO  8  27  13  28  13  29  13  30  13  31  13  32  13  33   8  34   8
M  ISO  2  39  16  44  15
M  END
>  <DihAtoms>  (1) 
16,17,36,35

>  <DihDeg>  (1) 
-76.69996902115717

$$$$
