
     RDKit          3D

 26 27  0  0  0  0  0  0  0  0999 V2000
   45.7150   32.7340   46.8470 C   0  0  0  0  0  0  0  0  0  0  0  0
   45.6430   30.6580   44.5450 Cl  0  0  0  0  0  0  0  0  0  0  0  0
   45.4260   30.2430   46.2010 C   0  0  0  0  0  0  0  0  0  0  0  0
   45.4920   31.3080   47.0690 C   0  0  0  0  0  0  0  0  0  0  0  0
   45.3210   31.0300   48.4350 C   0  0  0  0  0  0  0  0  0  0  0  0
   45.0970   29.7140   48.8370 C   0  0  0  0  0  0  0  0  0  0  0  0
   45.0330   28.6650   47.9600 C   0  0  0  0  0  0  0  0  0  0  0  0
   44.7510   27.0130   48.4670 Cl  0  0  0  0  0  0  0  0  0  0  0  0
   45.2040   28.9630   46.6250 C   0  0  0  0  0  0  0  0  0  0  0  0
   46.7120   33.1290   45.8180 C   0  0  0  0  0  0  0  0  0  0  0  0
   44.4470   35.7950   44.5500 C   0  0  0  0  0  0  0  0  0  0  0  0
   44.9260   36.0010   43.2360 C   0  0  0  0  0  0  0  0  0  0  0  0
   46.0030   35.2160   42.8480 C   0  0  0  0  0  0  0  0  0  0  0  0
   46.5320   34.3200   43.7070 N   0  0  0  0  0  0  0  0  0  0  0  0
   46.0260   34.1640   44.9670 C   0  0  0  0  0  0  0  0  0  0  0  0
   44.9810   34.8960   45.4040 N   0  0  0  0  0  0  0  0  0  0  0  0
   44.7505   33.1751   46.5552 H   0  0  0  0  0  0  0  0  0  0  0  0
   46.1372   33.0985   47.7951 H   0  0  0  0  0  0  0  0  0  0  0  0
   45.3633   31.8400   49.1780 H   0  0  0  0  0  0  0  0  0  0  0  0
   44.9655   29.5090   49.9097 H   0  0  0  0  0  0  0  0  0  0  0  0
   45.1607   28.1515   45.8837 H   0  0  0  0  0  0  0  0  0  0  0  0
   47.6072   33.5553   46.2943 H   0  0  0  0  0  0  0  0  0  0  0  0
   47.0451   32.2669   45.2215 H   0  0  0  0  0  0  0  0  0  0  0  0
   43.5946   36.3988   44.8947 H   0  0  0  0  0  0  0  0  0  0  0  0
   44.4716   36.7405   42.5602 H   0  0  0  0  0  0  0  0  0  0  0  0
   46.4260   35.3246   41.8384 H   0  0  0  0  0  0  0  0  0  0  0  0
  1  4  1  0
  2  3  1  0
  3  9  2  0
  3  4  1  0
  4  5  2  0
  5  6  1  0
  7  8  1  0
  7  6  2  0
  9  7  1  0
 10  1  1  0
 11 16  2  0
 12 11  1  0
 13 12  2  0
 13 14  1  0
 14 15  2  0
 15 16  1  0
 15 10  1  0
  1 17  1  0
  1 18  1  0
  5 19  1  0
  6 20  1  0
  9 21  1  0
 10 22  1  0
 10 23  1  0
 11 24  1  0
 12 25  1  0
 13 26  1  0
M  ISO  8  17   8  18   8  19  14  20  14  21  14  22   8  23   8  24  14
M  ISO  2  25  14  26  14
M  END
>  <minimizedAffinity>  (1) 
-4.42076921

>  <minimizedRMSD>  (1) 
2.53265834

$$$$
