
     RDKit          3D

 27 29  0  0  0  0  0  0  0  0999 V2000
   44.5575   35.8844   44.4014 C   0  0  0  0  0  0  0  0  0  0  0  0
   45.3488   35.9393   43.2313 C   0  0  0  0  0  0  0  0  0  0  0  0
   46.3465   34.9765   43.0633 C   0  0  0  0  0  0  0  0  0  0  0  0
   46.5204   34.0301   44.0203 N   0  0  0  0  0  0  0  0  0  0  0  0
   45.7377   34.0118   45.1321 C   0  0  0  0  0  0  0  0  0  0  0  0
   44.7820   34.9198   45.3110 N   0  0  0  0  0  0  0  0  0  0  0  0
   47.2168   34.9479   41.8891 C   0  0  0  0  0  0  0  0  0  0  0  0
   46.9804   34.2261   40.7290 C   0  0  0  0  0  0  0  0  0  0  0  0
   48.0103   34.4398   39.8413 C   0  0  0  0  0  0  0  0  0  0  0  0
   48.8534   35.2878   40.4788 N   0  0  0  0  0  0  0  0  0  0  0  0
   48.3862   35.5815   41.6734 N   0  0  0  0  0  0  0  0  0  0  0  0
   43.8331   36.6889   44.3897 H   0  0  0  0  0  0  0  0  0  0  0  0
   45.2844   36.6382   42.4355 H   0  0  0  0  0  0  0  0  0  0  0  0
   45.8613   33.2683   45.9021 H   0  0  0  0  0  0  0  0  0  0  0  0
   46.1037   33.6054   40.5954 H   0  0  0  0  0  0  0  0  0  0  0  0
   48.1090   34.0203   38.8641 H   0  0  0  0  0  0  0  0  0  0  0  0
   49.1425   34.7470   37.5477 Cl  0  0  0  0  0  0  0  0  0  0  0  0
   50.2903   35.5680   38.5528 C   0  0  0  0  0  0  0  0  0  0  0  0
   50.0698   35.7718   39.8996 C   0  0  0  0  0  0  0  0  0  0  0  0
   51.0068   36.4301   40.6693 C   0  0  0  0  0  0  0  0  0  0  0  0
   50.7551   36.5447   41.7033 H   0  0  0  0  0  0  0  0  0  0  0  0
   52.1952   36.9097   40.1317 C   0  0  0  0  0  0  0  0  0  0  0  0
   52.4075   36.7018   38.7854 C   0  0  0  0  0  0  0  0  0  0  0  0
   53.8955   37.2894   38.0580 Cl  0  0  0  0  0  0  0  0  0  0  0  0
   51.4741   36.0379   37.9842 C   0  0  0  0  0  0  0  0  0  0  0  0
   51.6893   35.8975   36.9194 H   0  0  0  0  0  0  0  0  0  0  0  0
   52.8859   37.4155   40.7864 H   0  0  0  0  0  0  0  0  0  0  0  0
  1  6  2  0
  2  1  1  0
  3  2  2  0
  3  4  1  0
  4  5  2  0
  5  6  1  0
  7  3  1  0
  8  7  1  0
  9 10  1  0
  9  8  2  0
 10 11  1  0
 11  7  2  0
  1 12  1  0
  2 13  1  0
  5 14  1  0
  8 15  1  0
  9 16  1  0
 17 18  1  0
 18 19  2  0
 19 20  1  0
 20 21  1  0
 20 22  2  0
 22 23  1  0
 23 24  1  0
 23 25  2  0
 25 26  1  0
 25 18  1  0
 22 27  1  0
 10 19  1  0
M  ISO  7  12  14  13  14  14  14  15  14  16  14  21  16  26  15
M  END
>  <DihAtoms>  (1) 
8,9,18,17

>  <DihDeg>  (1) 
161.9443094343546

$$$$
