
     RDKit          3D

 51 55  0  0  1  0  0  0  0  0999 V2000
   47.3840   31.0500   46.9700 C   0  0  0  0  0  0  0  0  0  0  0  0
   47.6620   31.7250   48.2710 C   0  0  1  0  0  0  0  0  0  0  0  0
   47.3560   30.9250   49.4900 C   0  0  0  0  0  0  0  0  0  0  0  0
   48.7410   31.2260   49.1480 C   0  0  1  0  0  0  0  0  0  0  0  0
   49.6600   30.1780   48.6040 C   0  0  2  0  0  0  0  0  0  0  0  0
   50.0070   29.0860   49.6490 C   0  0  0  0  0  0  0  0  0  0  0  0
   51.0410   30.0380   49.2350 C   0  0  2  0  0  0  0  0  0  0  0  0
   53.1990   31.7020   48.0480 Cl  0  0  0  0  0  0  0  0  0  0  0  0
   52.4430   32.0410   49.6130 C   0  0  0  0  0  0  0  0  0  0  0  0
   51.4460   31.1920   50.0640 C   0  0  0  0  0  0  0  0  0  0  0  0
   50.8750   31.4830   51.2890 C   0  0  0  0  0  0  0  0  0  0  0  0
   51.2720   32.5720   52.0470 C   0  0  0  0  0  0  0  0  0  0  0  0
   52.2700   33.3920   51.5580 C   0  0  0  0  0  0  0  0  0  0  0  0
   52.8250   34.7980   52.4730 Cl  0  0  0  0  0  0  0  0  0  0  0  0
   52.8760   33.1510   50.3430 C   0  0  0  0  0  0  0  0  0  0  0  0
   46.2410   32.9860   46.2610 C   0  0  0  0  0  0  0  0  0  0  0  0
   47.0380   32.0690   45.9070 C   0  0  0  0  0  0  0  0  0  0  0  0
   44.5470   35.7760   44.5470 C   0  0  0  0  0  0  0  0  0  0  0  0
   45.1720   35.8090   43.3090 C   0  0  0  0  0  0  0  0  0  0  0  0
   46.1480   34.8760   43.0960 C   0  0  0  0  0  0  0  0  0  0  0  0
   46.4560   33.9830   44.0760 N   0  0  0  0  0  0  0  0  0  0  0  0
   45.8270   33.9820   45.2670 C   0  0  0  0  0  0  0  0  0  0  0  0
   44.8830   34.8840   45.4720 N   0  0  0  0  0  0  0  0  0  0  0  0
   46.8900   34.7900   41.8480 C   0  0  0  0  0  0  0  0  0  0  0  0
   48.0820   35.4210   41.6110 C   0  0  0  0  0  0  0  0  0  0  0  0
   48.7740   35.3290   40.4170 C   0  0  0  0  0  0  0  0  0  0  0  0
   48.2650   34.5730   39.3950 C   0  0  0  0  0  0  0  0  0  0  0  0
   47.0750   33.9190   39.5760 C   0  0  0  0  0  0  0  0  0  0  0  0
   46.4240   34.0420   40.7880 C   0  0  0  0  0  0  0  0  0  0  0  0
   48.2760   30.4881   46.6560 H   0  0  0  0  0  0  0  0  0  0  0  0
   46.5312   30.3672   47.0989 H   0  0  0  0  0  0  0  0  0  0  0  0
   47.4090   32.7166   47.8677 H   0  0  0  0  0  0  0  0  0  0  0  0
   46.8876   31.4073   50.3606 H   0  0  0  0  0  0  0  0  0  0  0  0
   46.7882   30.0051   49.6934 H   0  0  0  0  0  0  0  0  0  0  0  0
   49.5739   31.6706   49.7125 H   0  0  0  0  0  0  0  0  0  0  0  0
   49.2927   30.2461   47.5694 H   0  0  0  0  0  0  0  0  0  0  0  0
   49.5836   29.1430   50.6626 H   0  0  0  0  0  0  0  0  0  0  0  0
   49.9313   27.9889   49.6762 H   0  0  0  0  0  0  0  0  0  0  0  0
   52.0753   29.8654   48.9026 H   0  0  0  0  0  0  0  0  0  0  0  0
   50.0794   30.8283   51.6742 H   0  0  0  0  0  0  0  0  0  0  0  0
   50.8017   32.7798   53.0194 H   0  0  0  0  0  0  0  0  0  0  0  0
   53.6713   33.8087   49.9623 H   0  0  0  0  0  0  0  0  0  0  0  0
   45.8660   33.0352   47.2939 H   0  0  0  0  0  0  0  0  0  0  0  0
   47.4533   32.0162   44.8898 H   0  0  0  0  0  0  0  0  0  0  0  0
   43.7543   36.5059   44.7679 H   0  0  0  0  0  0  0  0  0  0  0  0
   44.8970   36.5462   42.5403 H   0  0  0  0  0  0  0  0  0  0  0  0
   48.5132   36.0353   42.4151 H   0  0  0  0  0  0  0  0  0  0  0  0
   49.7285   35.8605   40.2890 H   0  0  0  0  0  0  0  0  0  0  0  0
   48.8052   34.4918   38.4402 H   0  0  0  0  0  0  0  0  0  0  0  0
   46.6452   33.3063   38.7698 H   0  0  0  0  0  0  0  0  0  0  0  0
   45.4709   33.5079   40.9158 H   0  0  0  0  0  0  0  0  0  0  0  0
  1  2  1  0
  2  4  1  0
  2  3  1  0
  4  3  1  0
  5  4  1  0
  5  7  1  0
  5  6  1  0
  7  6  1  0
  7 10  1  0
  8  9  1  0
  9 10  2  0
  9 15  1  0
 10 11  1  0
 11 12  2  0
 13 12  1  0
 13 14  1  0
 15 13  2  0
 17 16  2  0
 17  1  1  0
 18 23  2  0
 19 18  1  0
 20 19  2  0
 20 21  1  0
 21 22  2  0
 22 23  1  0
 22 16  1  0
 24 20  1  0
 25 24  2  0
 26 25  1  0
 27 28  1  0
 27 26  2  0
 28 29  2  0
 29 24  1  0
  1 30  1  0
  1 31  1  0
  2 32  1  1
  3 33  1  0
  3 34  1  0
  4 35  1  1
  5 36  1  6
  6 37  1  0
  6 38  1  0
  7 39  1  6
 11 40  1  0
 12 41  1  0
 15 42  1  0
 16 43  1  0
 17 44  1  0
 18 45  1  0
 19 46  1  0
 25 47  1  0
 26 48  1  0
 27 49  1  0
 28 50  1  0
 29 51  1  0
M  ISO  8  30   8  31   8  32  13  33  13  34  13  35  13  36  13  37  13
M  ISO  8  38  13  39  13  40  14  41  14  42  14  45  14  46  14  47  14
M  ISO  4  48  14  49  14  50  14  51  14
M  END
>  <minimizedAffinity>  (1) 
-7.17218781

>  <minimizedRMSD>  (1) 
2.46710825

$$$$
