
     RDKit          3D

 34 37  0  0  0  0  0  0  0  0999 V2000
   48.1788   35.0645   41.9369 C   0  0  0  0  0  0  0  0  0  0  0  0
   47.0686   34.2675   42.0953 C   0  0  0  0  0  0  0  0  0  0  0  0
   46.5100   33.6689   40.9863 C   0  0  0  0  0  0  0  0  0  0  0  0
   47.0104   33.8290   39.7201 C   0  0  0  0  0  0  0  0  0  0  0  0
   46.6515   33.3575   38.5105 N   0  0  0  0  0  0  0  0  0  0  0  0
   47.5474   33.8639   37.5813 C   0  0  0  0  0  0  0  0  0  0  0  0
   48.4490   34.6454   38.2455 N   0  0  0  0  0  0  0  0  0  0  0  0
   48.1333   34.6320   39.5436 C   0  0  0  0  0  0  0  0  0  0  0  0
   48.7102   35.2452   40.6556 C   0  0  0  0  0  0  0  0  0  0  0  0
   45.1060   34.6332   45.3034 C   0  0  0  0  0  0  0  0  0  0  0  0
   45.5441   34.8549   43.9883 C   0  0  0  0  0  0  0  0  0  0  0  0
   46.5562   34.1055   43.4403 C   0  0  0  0  0  0  0  0  0  0  0  0
   47.1183   33.1417   44.2156 N   0  0  0  0  0  0  0  0  0  0  0  0
   46.6954   32.9252   45.4893 C   0  0  0  0  0  0  0  0  0  0  0  0
   45.7137   33.6526   46.0205 N   0  0  0  0  0  0  0  0  0  0  0  0
   44.0921   35.3850   45.8446 O   0  0  0  0  0  0  0  0  0  0  0  0
   48.7058   35.5865   42.7235 H   0  0  0  0  0  0  0  0  0  0  0  0
   45.6327   33.0469   41.1563 H   0  0  0  0  0  0  0  0  0  0  0  0
   45.8353   32.7273   38.3632 H   0  0  0  0  0  0  0  0  0  0  0  0
   47.4215   33.5928   36.5353 H   0  0  0  0  0  0  0  0  0  0  0  0
   49.5839   35.8684   40.5061 H   0  0  0  0  0  0  0  0  0  0  0  0
   45.1264   35.5923   43.3454 H   0  0  0  0  0  0  0  0  0  0  0  0
   47.2040   32.1272   46.0444 H   0  0  0  0  0  0  0  0  0  0  0  0
   41.9004   36.4129   47.6947 Cl  0  0  0  0  0  0  0  0  0  0  0  0
   42.4006   36.9298   46.0832 C   0  0  0  0  0  0  0  0  0  0  0  0
   43.4116   36.4151   45.2751 C   0  0  0  0  0  0  0  0  0  0  0  0
   43.5891   36.9938   44.0384 C   0  0  0  0  0  0  0  0  0  0  0  0
   44.3972   36.5424   43.4569 H   0  0  0  0  0  0  0  0  0  0  0  0
   42.8270   38.0425   43.5681 C   0  0  0  0  0  0  0  0  0  0  0  0
   41.8269   38.5478   44.3754 C   0  0  0  0  0  0  0  0  0  0  0  0
   40.8818   39.8801   43.7408 Cl  0  0  0  0  0  0  0  0  0  0  0  0
   41.6189   37.9884   45.6292 C   0  0  0  0  0  0  0  0  0  0  0  0
   40.8113   38.4736   46.1551 H   0  0  0  0  0  0  0  0  0  0  0  0
   43.0484   38.4272   42.5772 H   0  0  0  0  0  0  0  0  0  0  0  0
  1  2  2  0
  2 12  1  0
  3  2  1  0
  4  3  2  0
  5  4  1  0
  6  7  2  0
  6  5  1  0
  7  8  1  0
  8  4  1  0
  8  9  2  0
  9  1  1  0
 10 16  1  0
 10 15  1  0
 11 10  2  0
 12 11  1  0
 12 13  2  0
 13 14  1  0
 14 15  2  0
  1 17  1  0
  3 18  1  0
  5 19  1  0
  6 20  1  0
  9 21  1  0
 11 22  1  0
 14 23  1  0
 24 25  1  0
 25 26  2  0
 26 27  1  0
 27 28  1  0
 27 29  2  0
 29 30  1  0
 30 31  1  0
 30 32  2  0
 32 33  1  0
 32 25  1  0
 29 34  1  0
 16 26  1  0
M  ISO  8  17  14  18  14  19   9  20  14  21  14  22  14  23  14  28  16
M  ISO  1  33  15
M  END
>  <DihAtoms>  (1) 
9,15,25,24

>  <DihDeg>  (1) 
-62.42434263388302

$$$$
