
     RDKit          3D

 26 27  0  0  0  0  0  0  0  0999 V2000
   44.5589   36.0379   44.4850 C   0  0  0  0  0  0  0  0  0  0  0  0
   45.2098   35.9573   43.2437 C   0  0  0  0  0  0  0  0  0  0  0  0
   46.0786   34.8815   43.0271 C   0  0  0  0  0  0  0  0  0  0  0  0
   46.2374   33.9782   44.0381 N   0  0  0  0  0  0  0  0  0  0  0  0
   45.5967   34.0962   45.2024 C   0  0  0  0  0  0  0  0  0  0  0  0
   44.7604   35.1108   45.4421 N   0  0  0  0  0  0  0  0  0  0  0  0
   46.7965   34.7552   41.7246 C   0  0  0  0  0  0  0  0  0  0  0  0
   48.1797   35.3079   41.8782 C   0  0  0  0  0  0  0  0  0  0  0  0
   43.8754   36.8569   44.6878 H   0  0  0  0  0  0  0  0  0  0  0  0
   45.0311   36.7241   42.4718 H   0  0  0  0  0  0  0  0  0  0  0  0
   45.8650   33.2709   45.8705 H   0  0  0  0  0  0  0  0  0  0  0  0
   46.7567   33.6922   41.4146 H   0  0  0  0  0  0  0  0  0  0  0  0
   46.2576   35.3605   40.9846 H   0  0  0  0  0  0  0  0  0  0  0  0
   48.6775   35.3342   40.8892 H   0  0  0  0  0  0  0  0  0  0  0  0
   48.0472   36.3621   42.2273 H   0  0  0  0  0  0  0  0  0  0  0  0
   47.9731   36.3629   44.7066 Cl  0  0  0  0  0  0  0  0  0  0  0  0
   48.9878   34.9881   44.2349 C   0  0  0  0  0  0  0  0  0  0  0  0
   48.9903   34.6109   42.9045 C   0  0  0  0  0  0  0  0  0  0  0  0
   49.8026   33.5332   42.6167 C   0  0  0  0  0  0  0  0  0  0  0  0
   49.8690   33.1675   41.5958 H   0  0  0  0  0  0  0  0  0  0  0  0
   50.5601   32.8677   43.5556 C   0  0  0  0  0  0  0  0  0  0  0  0
   50.5189   33.2886   44.8728 C   0  0  0  0  0  0  0  0  0  0  0  0
   51.4532   32.4976   46.1387 Cl  0  0  0  0  0  0  0  0  0  0  0  0
   49.7134   34.3790   45.2336 C   0  0  0  0  0  0  0  0  0  0  0  0
   49.6544   34.7408   46.2655 H   0  0  0  0  0  0  0  0  0  0  0  0
   51.1859   32.0334   43.3157 H   0  0  0  0  0  0  0  0  0  0  0  0
  1  6  2  0
  2  1  1  0
  3  2  2  0
  3  4  1  0
  4  5  2  0
  5  6  1  0
  7  8  1  0
  7  3  1  0
  1  9  1  0
  2 10  1  0
  5 11  1  0
  7 12  1  0
  7 13  1  0
  8 14  1  0
  8 15  1  0
 16 17  1  0
 17 18  2  0
 18 19  1  0
 19 20  1  0
 19 21  2  0
 21 22  1  0
 22 23  1  0
 22 24  2  0
 24 25  1  0
 24 17  1  0
 21 26  1  0
  8 18  1  0
M  ISO  8   9  14  10  14  11  14  12   8  13   8  14   8  15   8  20  16
M  ISO  1  25  15
M  END
>  <DihAtoms>  (1) 
6,7,17,16

>  <DihDeg>  (1) 
76.37908154110029

$$$$
