
     RDKit          3D

 27 29  0  0  0  0  0  0  0  0999 V2000
   44.5575   35.8844   44.4014 C   0  0  0  0  0  0  0  0  0  0  0  0
   45.3488   35.9393   43.2313 C   0  0  0  0  0  0  0  0  0  0  0  0
   46.3465   34.9765   43.0633 C   0  0  0  0  0  0  0  0  0  0  0  0
   46.5204   34.0301   44.0203 N   0  0  0  0  0  0  0  0  0  0  0  0
   45.7377   34.0118   45.1321 C   0  0  0  0  0  0  0  0  0  0  0  0
   44.7820   34.9198   45.3110 N   0  0  0  0  0  0  0  0  0  0  0  0
   47.2168   34.9479   41.8891 C   0  0  0  0  0  0  0  0  0  0  0  0
   46.9804   34.2261   40.7290 C   0  0  0  0  0  0  0  0  0  0  0  0
   48.0103   34.4398   39.8413 C   0  0  0  0  0  0  0  0  0  0  0  0
   48.8534   35.2878   40.4788 N   0  0  0  0  0  0  0  0  0  0  0  0
   48.3862   35.5815   41.6734 N   0  0  0  0  0  0  0  0  0  0  0  0
   43.8331   36.6889   44.3897 H   0  0  0  0  0  0  0  0  0  0  0  0
   45.2844   36.6382   42.4355 H   0  0  0  0  0  0  0  0  0  0  0  0
   45.8613   33.2683   45.9021 H   0  0  0  0  0  0  0  0  0  0  0  0
   46.1037   33.6054   40.5954 H   0  0  0  0  0  0  0  0  0  0  0  0
   48.1090   34.0203   38.8641 H   0  0  0  0  0  0  0  0  0  0  0  0
   50.6864   36.6730   42.3995 Cl  0  0  0  0  0  0  0  0  0  0  0  0
   50.9767   36.4242   40.7096 C   0  0  0  0  0  0  0  0  0  0  0  0
   50.0698   35.7718   39.8996 C   0  0  0  0  0  0  0  0  0  0  0  0
   50.3348   35.5918   38.5576 C   0  0  0  0  0  0  0  0  0  0  0  0
   49.5779   35.0759   38.0038 H   0  0  0  0  0  0  0  0  0  0  0  0
   51.5076   36.0517   37.9708 C   0  0  0  0  0  0  0  0  0  0  0  0
   52.4082   36.7024   38.7873 C   0  0  0  0  0  0  0  0  0  0  0  0
   53.9066   37.3030   38.0927 Cl  0  0  0  0  0  0  0  0  0  0  0  0
   52.1632   36.8974   40.1496 C   0  0  0  0  0  0  0  0  0  0  0  0
   52.9102   37.4206   40.7562 H   0  0  0  0  0  0  0  0  0  0  0  0
   51.6548   35.8793   36.9172 H   0  0  0  0  0  0  0  0  0  0  0  0
  1  6  2  0
  2  1  1  0
  3  2  2  0
  3  4  1  0
  4  5  2  0
  5  6  1  0
  7  3  1  0
  8  7  1  0
  9 10  1  0
  9  8  2  0
 10 11  1  0
 11  7  2  0
  1 12  1  0
  2 13  1  0
  5 14  1  0
  8 15  1  0
  9 16  1  0
 17 18  1  0
 18 19  2  0
 19 20  1  0
 20 21  1  0
 20 22  2  0
 22 23  1  0
 23 24  1  0
 23 25  2  0
 25 26  1  0
 25 18  1  0
 22 27  1  0
 10 19  1  0
M  ISO  7  12  14  13  14  14  14  15  14  16  14  21  16  26  15
M  END
>  <DihAtoms>  (1) 
8,9,18,17

>  <DihDeg>  (1) 
161.9443094343546

$$$$
