
     RDKit          3D

 33 36  0  0  0  0  0  0  0  0999 V2000
   46.9570   35.0520   42.6330 C   0  0  0  0  0  0  0  0  0  0  0  0
   47.9690   34.5350   41.8250 C   0  0  0  0  0  0  0  0  0  0  0  0
   48.4990   33.2810   42.1430 C   0  0  0  0  0  0  0  0  0  0  0  0
   47.9740   32.6600   43.2330 N   0  0  0  0  0  0  0  0  0  0  0  0
   47.0050   33.1660   44.0000 C   0  0  0  0  0  0  0  0  0  0  0  0
   46.4990   34.3600   43.6990 N   0  0  0  0  0  0  0  0  0  0  0  0
   46.2540   31.0450   45.0150 C   0  0  0  0  0  0  0  0  0  0  0  0
   46.5310   32.3970   45.1400 C   0  0  0  0  0  0  0  0  0  0  0  0
   46.3750   33.0880   46.3480 C   0  0  0  0  0  0  0  0  0  0  0  0
   45.9220   32.4000   47.4810 C   0  0  0  0  0  0  0  0  0  0  0  0
   45.6630   32.7380   48.7760 N   0  0  0  0  0  0  0  0  0  0  0  0
   45.2360   31.6040   49.4160 C   0  0  0  0  0  0  0  0  0  0  0  0
   45.2440   30.5930   48.4960 N   0  0  0  0  0  0  0  0  0  0  0  0
   45.6590   31.0620   47.3120 C   0  0  0  0  0  0  0  0  0  0  0  0
   45.8020   30.3580   46.1460 C   0  0  0  0  0  0  0  0  0  0  0  0
   47.6680   32.1430   39.4330 Cl  0  0  0  0  0  0  0  0  0  0  0  0
   49.2540   32.1120   40.1420 C   0  0  0  0  0  0  0  0  0  0  0  0
   49.5560   32.6470   41.3710 C   0  0  0  0  0  0  0  0  0  0  0  0
   50.8570   32.5500   41.8060 C   0  0  0  0  0  0  0  0  0  0  0  0
   51.8130   31.9370   41.0320 C   0  0  0  0  0  0  0  0  0  0  0  0
   51.5390   31.3910   39.7940 C   0  0  0  0  0  0  0  0  0  0  0  0
   52.7510   30.6100   38.8010 Cl  0  0  0  0  0  0  0  0  0  0  0  0
   50.2150   31.4980   39.3640 C   0  0  0  0  0  0  0  0  0  0  0  0
   46.5258   36.0366   42.3993 H   0  0  0  0  0  0  0  0  0  0  0  0
   48.3415   35.1003   40.9580 H   0  0  0  0  0  0  0  0  0  0  0  0
   46.3859   30.5270   44.0536 H   0  0  0  0  0  0  0  0  0  0  0  0
   46.6062   34.1618   46.4067 H   0  0  0  0  0  0  0  0  0  0  0  0
   45.7687   33.6727   49.1957 H   0  0  0  0  0  0  0  0  0  0  0  0
   44.9417   31.5225   50.4728 H   0  0  0  0  0  0  0  0  0  0  0  0
   45.5683   29.2841   46.1005 H   0  0  0  0  0  0  0  0  0  0  0  0
   51.1357   32.9678   42.7847 H   0  0  0  0  0  0  0  0  0  0  0  0
   52.8422   31.8788   41.4160 H   0  0  0  0  0  0  0  0  0  0  0  0
   49.9317   31.0844   38.3849 H   0  0  0  0  0  0  0  0  0  0  0  0
  1  6  2  0
  2  3  2  0
  2  1  1  0
  3  4  1  0
  4  5  2  0
  5  8  1  0
  6  5  1  0
  7  8  2  0
  7 15  1  0
  8  9  1  0
  9 10  2  0
 10 11  1  0
 11 12  1  0
 13 12  2  0
 14 10  1  0
 14 13  1  0
 15 14  2  0
 16 17  1  0
 17 18  2  0
 18 19  1  0
 18  3  1  0
 20 19  2  0
 21 20  1  0
 22 21  1  0
 23 21  2  0
 23 17  1  0
  1 24  1  0
  2 25  1  0
  7 26  1  0
  9 27  1  0
 11 28  1  0
 12 29  1  0
 15 30  1  0
 19 31  1  0
 20 32  1  0
 23 33  1  0
M  ISO  8  24  14  25  14  26  14  27  14  28   9  29  14  30  14  31  14
M  ISO  2  32  14  33  14
M  END
>  <minimizedAffinity>  (1) 
-5.95993137

>  <minimizedRMSD>  (1) 
1.2554934

$$$$
