
     RDKit          3D

 26 27  0  0  0  0  0  0  0  0999 V2000
   44.5589   36.0379   44.4850 C   0  0  0  0  0  0  0  0  0  0  0  0
   45.2098   35.9573   43.2437 C   0  0  0  0  0  0  0  0  0  0  0  0
   46.0786   34.8815   43.0271 C   0  0  0  0  0  0  0  0  0  0  0  0
   46.2374   33.9782   44.0381 N   0  0  0  0  0  0  0  0  0  0  0  0
   45.5967   34.0962   45.2024 C   0  0  0  0  0  0  0  0  0  0  0  0
   44.7604   35.1108   45.4421 N   0  0  0  0  0  0  0  0  0  0  0  0
   46.7965   34.7552   41.7246 C   0  0  0  0  0  0  0  0  0  0  0  0
   48.1797   35.3079   41.8782 C   0  0  0  0  0  0  0  0  0  0  0  0
   43.8754   36.8569   44.6878 H   0  0  0  0  0  0  0  0  0  0  0  0
   45.0311   36.7241   42.4718 H   0  0  0  0  0  0  0  0  0  0  0  0
   45.8650   33.2709   45.8705 H   0  0  0  0  0  0  0  0  0  0  0  0
   46.7567   33.6922   41.4146 H   0  0  0  0  0  0  0  0  0  0  0  0
   46.2576   35.3605   40.9846 H   0  0  0  0  0  0  0  0  0  0  0  0
   48.6775   35.3342   40.8892 H   0  0  0  0  0  0  0  0  0  0  0  0
   48.0472   36.3621   42.2273 H   0  0  0  0  0  0  0  0  0  0  0  0
   48.7057   32.3648   41.4127 Cl  0  0  0  0  0  0  0  0  0  0  0  0
   49.3070   33.2678   42.8145 C   0  0  0  0  0  0  0  0  0  0  0  0
   48.9903   34.6109   42.9045 C   0  0  0  0  0  0  0  0  0  0  0  0
   49.4951   35.2443   44.0217 C   0  0  0  0  0  0  0  0  0  0  0  0
   49.2953   36.3009   44.1769 H   0  0  0  0  0  0  0  0  0  0  0  0
   50.2548   34.6172   44.9849 C   0  0  0  0  0  0  0  0  0  0  0  0
   50.5409   33.2711   44.8434 C   0  0  0  0  0  0  0  0  0  0  0  0
   51.5042   32.3890   46.0246 Cl  0  0  0  0  0  0  0  0  0  0  0  0
   50.0581   32.5666   43.7306 C   0  0  0  0  0  0  0  0  0  0  0  0
   50.2640   31.5012   43.5839 H   0  0  0  0  0  0  0  0  0  0  0  0
   50.6385   35.1230   45.8463 H   0  0  0  0  0  0  0  0  0  0  0  0
  1  6  2  0
  2  1  1  0
  3  2  2  0
  3  4  1  0
  4  5  2  0
  5  6  1  0
  7  8  1  0
  7  3  1  0
  1  9  1  0
  2 10  1  0
  5 11  1  0
  7 12  1  0
  7 13  1  0
  8 14  1  0
  8 15  1  0
 16 17  1  0
 17 18  2  0
 18 19  1  0
 19 20  1  0
 19 21  2  0
 21 22  1  0
 22 23  1  0
 22 24  2  0
 24 25  1  0
 24 17  1  0
 21 26  1  0
  8 18  1  0
M  ISO  8   9  14  10  14  11  14  12   8  13   8  14   8  15   8  20  16
M  ISO  1  25  15
M  END
>  <DihAtoms>  (1) 
6,7,17,16

>  <DihDeg>  (1) 
76.37908154110029

$$$$
