
     RDKit          3D

 36 39  0  0  0  0  0  0  0  0999 V2000
   46.9690   34.7610   41.9300 C   0  0  0  0  0  0  0  0  0  0  0  0
   48.1800   35.1070   42.0570 O   0  0  0  0  0  0  0  0  0  0  0  0
   45.5420   36.2390   43.2720 C   0  0  0  0  0  0  0  0  0  0  0  0
   46.1470   34.9800   43.0660 C   0  0  0  0  0  0  0  0  0  0  0  0
   45.8650   34.0370   44.0330 C   0  0  0  0  0  0  0  0  0  0  0  0
   45.0660   34.3000   45.1000 N   0  0  0  0  0  0  0  0  0  0  0  0
   44.5120   35.5290   45.2450 C   0  0  0  0  0  0  0  0  0  0  0  0
   44.7470   36.4880   44.3400 N   0  0  0  0  0  0  0  0  0  0  0  0
   46.4290   32.7570   43.9170 C   0  0  0  0  0  0  0  0  0  0  0  0
   47.6360   32.2100   44.2890 C   0  0  0  0  0  0  0  0  0  0  0  0
   47.9260   30.9360   44.0560 C   0  0  0  0  0  0  0  0  0  0  0  0
   46.9830   30.1830   43.4330 C   0  0  0  0  0  0  0  0  0  0  0  0
   45.6110   31.3830   43.1730 S   0  0  0  0  0  0  0  0  0  0  0  0
   46.3870   34.1580   40.6870 C   0  0  0  0  0  0  0  0  0  0  0  0
   45.0360   34.0760   40.3750 C   0  0  0  0  0  0  0  0  0  0  0  0
   44.9820   33.4660   39.1780 N   0  0  0  0  0  0  0  0  0  0  0  0
   46.2670   33.1870   38.7760 C   0  0  0  0  0  0  0  0  0  0  0  0
   47.1350   33.6190   39.7170 N   0  0  0  0  0  0  0  0  0  0  0  0
   48.2840   34.6150   37.1670 Cl  0  0  0  0  0  0  0  0  0  0  0  0
   47.6070   33.0720   36.6830 C   0  0  0  0  0  0  0  0  0  0  0  0
   46.6790   32.5250   37.5290 C   0  0  0  0  0  0  0  0  0  0  0  0
   46.0870   31.2960   37.2220 C   0  0  0  0  0  0  0  0  0  0  0  0
   46.4880   30.6830   36.0370 C   0  0  0  0  0  0  0  0  0  0  0  0
   47.4250   31.2550   35.2010 C   0  0  0  0  0  0  0  0  0  0  0  0
   47.9550   30.5130   33.7020 Cl  0  0  0  0  0  0  0  0  0  0  0  0
   48.0090   32.4710   35.5080 C   0  0  0  0  0  0  0  0  0  0  0  0
   45.7219   37.0425   42.5426 H   0  0  0  0  0  0  0  0  0  0  0  0
   43.8663   35.7395   46.1103 H   0  0  0  0  0  0  0  0  0  0  0  0
   48.3796   32.8453   44.7925 H   0  0  0  0  0  0  0  0  0  0  0  0
   48.8932   30.5064   44.3560 H   0  0  0  0  0  0  0  0  0  0  0  0
   47.0278   29.1201   43.1532 H   0  0  0  0  0  0  0  0  0  0  0  0
   44.1895   34.4342   40.9792 H   0  0  0  0  0  0  0  0  0  0  0  0
   44.1244   33.2454   38.6519 H   0  0  0  0  0  0  0  0  0  0  0  0
   45.3399   30.8350   37.8848 H   0  0  0  0  0  0  0  0  0  0  0  0
   46.0449   29.7151   35.7598 H   0  0  0  0  0  0  0  0  0  0  0  0
   48.7566   32.9355   34.8482 H   0  0  0  0  0  0  0  0  0  0  0  0
  1  2  2  0
  1  4  1  0
  3  8  2  0
  4  3  1  0
  4  5  2  0
  5  6  1  0
  6  7  2  0
  8  7  1  0
  9  5  1  0
  9 10  2  0
 11 10  1  0
 12 11  2  0
 13 12  1  0
 13  9  1  0
 14  1  1  0
 15 14  2  0
 16 15  1  0
 17 16  1  0
 17 18  2  0
 18 14  1  0
 20 19  1  0
 20 21  2  0
 21 17  1  0
 22 21  1  0
 23 22  2  0
 24 26  2  0
 24 23  1  0
 25 24  1  0
 26 20  1  0
  3 27  1  0
  7 28  1  0
 10 29  1  0
 11 30  1  0
 12 31  1  0
 15 32  1  0
 16 33  1  0
 22 34  1  0
 23 35  1  0
 26 36  1  0
M  ISO  8  27  14  28  14  29  14  30  14  31  14  32  14  33   9  34  14
M  ISO  2  35  14  36  14
M  END
>  <minimizedAffinity>  (1) 
-5.44850302

>  <minimizedRMSD>  (1) 
0.89052856

$$$$
