
     RDKit          3D

 47 49  0  0  0  0  0  0  0  0999 V2000
   42.6860   31.4000   42.5950 N   0  0  0  0  0  0  0  0  0  0  0  0
   42.9690   32.4390   41.6550 C   0  0  0  0  0  0  0  0  0  0  0  0
   43.5950   34.8600   41.8660 C   0  0  0  0  0  0  0  0  0  0  0  0
   43.8510   33.5210   42.1850 C   0  0  0  0  0  0  0  0  0  0  0  0
   44.9290   33.2370   42.9960 C   0  0  0  0  0  0  0  0  0  0  0  0
   45.7240   34.2380   43.4720 C   0  0  0  0  0  0  0  0  0  0  0  0
   45.4920   35.5620   43.1710 C   0  0  0  0  0  0  0  0  0  0  0  0
   44.4000   35.8170   42.3530 C   0  0  0  0  0  0  0  0  0  0  0  0
   40.1580   35.6860   40.5440 C   0  0  0  0  0  0  0  0  0  0  0  0
   41.1930   35.4750   41.4780 C   0  0  0  0  0  0  0  0  0  0  0  0
   42.4500   35.1070   41.0100 C   0  0  0  0  0  0  0  0  0  0  0  0
   42.5950   34.9730   39.6580 N   0  0  0  0  0  0  0  0  0  0  0  0
   41.5840   35.1830   38.7790 C   0  0  0  0  0  0  0  0  0  0  0  0
   40.3770   35.5360   39.2360 N   0  0  0  0  0  0  0  0  0  0  0  0
   41.0110   31.0200   42.6760 S   0  0  0  0  0  0  0  0  0  0  0  0
   40.1680   32.2600   42.4930 O   0  0  0  0  0  0  0  0  0  0  0  0
   40.6710   30.3270   43.9400 O   0  0  0  0  0  0  0  0  0  0  0  0
   40.7030   29.9670   41.3990 O   0  0  0  0  0  0  0  0  0  0  0  0
   39.3530   29.7290   41.3240 C   0  0  0  0  0  0  0  0  0  0  0  0
   39.0930   28.2300   41.5610 C   0  0  0  0  0  0  0  0  0  0  0  0
   38.1830   25.3080   41.7790 Cl  0  0  0  0  0  0  0  0  0  0  0  0
   37.2900   26.5630   40.9460 C   0  0  0  0  0  0  0  0  0  0  0  0
   37.8090   27.8380   40.9310 C   0  0  0  0  0  0  0  0  0  0  0  0
   37.1040   28.8510   40.2710 C   0  0  0  0  0  0  0  0  0  0  0  0
   35.9040   28.6030   39.6370 C   0  0  0  0  0  0  0  0  0  0  0  0
   35.4220   27.3190   39.6750 C   0  0  0  0  0  0  0  0  0  0  0  0
   33.8870   27.0260   38.8540 Cl  0  0  0  0  0  0  0  0  0  0  0  0
   36.0810   26.2760   40.3150 C   0  0  0  0  0  0  0  0  0  0  0  0
   43.0008   31.7040   43.5274 H   0  0  0  0  0  0  0  0  0  0  0  0
   42.0160   32.8921   41.3444 H   0  0  0  0  0  0  0  0  0  0  0  0
   43.5106   31.9706   40.8200 H   0  0  0  0  0  0  0  0  0  0  0  0
   45.1502   32.1928   43.2619 H   0  0  0  0  0  0  0  0  0  0  0  0
   46.5772   33.9798   44.1165 H   0  0  0  0  0  0  0  0  0  0  0  0
   46.1334   36.3686   43.5557 H   0  0  0  0  0  0  0  0  0  0  0  0
   44.1821   36.8624   42.0890 H   0  0  0  0  0  0  0  0  0  0  0  0
   39.1581   35.9777   40.8976 H   0  0  0  0  0  0  0  0  0  0  0  0
   41.0099   35.5990   42.5555 H   0  0  0  0  0  0  0  0  0  0  0  0
   41.7548   35.0641   37.6989 H   0  0  0  0  0  0  0  0  0  0  0  0
   39.9203   32.6244   43.3795 H   0  0  0  0  0  0  0  0  0  0  0  0
   40.9461   30.8877   44.7081 H   0  0  0  0  0  0  0  0  0  0  0  0
   38.8315   30.3194   42.0917 H   0  0  0  0  0  0  0  0  0  0  0  0
   38.9799   30.0178   40.3303 H   0  0  0  0  0  0  0  0  0  0  0  0
   39.9113   27.6429   41.1186 H   0  0  0  0  0  0  0  0  0  0  0  0
   39.0413   28.0365   42.6426 H   0  0  0  0  0  0  0  0  0  0  0  0
   37.5170   29.8704   40.2574 H   0  0  0  0  0  0  0  0  0  0  0  0
   35.3547   29.4041   39.1208 H   0  0  0  0  0  0  0  0  0  0  0  0
   35.6626   25.2587   40.3232 H   0  0  0  0  0  0  0  0  0  0  0  0
  1 15  1  0
  2  4  1  0
  2  1  1  0
  3  4  1  0
  3  8  2  0
  4  5  2  0
  5  6  1  0
  7  6  2  0
  8  7  1  0
  9 10  2  0
 11 10  1  0
 11  3  1  0
 12 11  2  0
 13 14  2  0
 13 12  1  0
 14  9  1  0
 15 17  1  0
 16 15  1  0
 18 15  1  0
 19 18  1  0
 19 20  1  0
 22 21  1  0
 23 22  2  0
 23 20  1  0
 24 23  1  0
 25 26  1  0
 25 24  2  0
 26 28  2  0
 27 26  1  0
 28 22  1  0
  1 29  1  0
  2 30  1  0
  2 31  1  0
  5 32  1  0
  6 33  1  0
  7 34  1  0
  8 35  1  0
  9 36  1  0
 10 37  1  0
 13 38  1  0
 16 39  1  0
 17 40  1  0
 19 41  1  0
 19 42  1  0
 20 43  1  0
 20 44  1  0
 24 45  1  0
 25 46  1  0
 28 47  1  0
M  ISO  8  29   5  30   8  31   8  32  14  33  14  34  14  35  14  36  14
M  ISO  8  37  14  38  14  39   3  40   3  41   8  42   8  43   8  44   8
M  ISO  3  45  14  46  14  47  14
M  END
>  <minimizedAffinity>  (1) 
-5.67268085

>  <minimizedRMSD>  (1) 
2.49296689

$$$$
