
     RDKit          3D

 33 35  0  0  0  0  0  0  0  0999 V2000
   46.6100   34.4206   41.4457 C   0  0  0  0  0  0  0  0  0  0  0  0
   47.8836   34.9102   41.2395 C   0  0  0  0  0  0  0  0  0  0  0  0
   48.5269   34.6522   40.0409 C   0  0  0  0  0  0  0  0  0  0  0  0
   47.8715   33.9143   39.0944 C   0  0  0  0  0  0  0  0  0  0  0  0
   46.6128   33.4130   39.2599 C   0  0  0  0  0  0  0  0  0  0  0  0
   46.0122   33.7006   40.4802 C   0  0  0  0  0  0  0  0  0  0  0  0
   44.6862   36.0619   44.2705 C   0  0  0  0  0  0  0  0  0  0  0  0
   45.2361   35.8519   42.9928 C   0  0  0  0  0  0  0  0  0  0  0  0
   45.9984   34.7297   42.7311 C   0  0  0  0  0  0  0  0  0  0  0  0
   46.1730   33.8709   43.7639 N   0  0  0  0  0  0  0  0  0  0  0  0
   45.6499   34.0615   44.9960 C   0  0  0  0  0  0  0  0  0  0  0  0
   44.9029   35.1635   45.2486 N   0  0  0  0  0  0  0  0  0  0  0  0
   48.5656   35.7146   42.3045 C   0  0  0  0  0  0  0  0  0  0  0  0
   49.5260   35.0163   39.8353 H   0  0  0  0  0  0  0  0  0  0  0  0
   48.3450   33.6874   38.1319 H   0  0  0  0  0  0  0  0  0  0  0  0
   46.0735   32.8272   38.5271 H   0  0  0  0  0  0  0  0  0  0  0  0
   45.0039   33.3566   40.7379 H   0  0  0  0  0  0  0  0  0  0  0  0
   44.1252   36.9847   44.2874 H   0  0  0  0  0  0  0  0  0  0  0  0
   45.1176   36.5168   42.1416 H   0  0  0  0  0  0  0  0  0  0  0  0
   45.7911   33.3767   45.8131 H   0  0  0  0  0  0  0  0  0  0  0  0
   48.6504   34.9867   43.1643 H   0  0  0  0  0  0  0  0  0  0  0  0
   47.9213   36.5194   42.7050 H   0  0  0  0  0  0  0  0  0  0  0  0
   49.3755   35.5036   39.3547 Cl  0  0  0  0  0  0  0  0  0  0  0  0
   50.3806   36.1097   40.6392 C   0  0  0  0  0  0  0  0  0  0  0  0
   49.9097   36.1589   41.9350 C   0  0  0  0  0  0  0  0  0  0  0  0
   50.6845   36.6334   42.9675 C   0  0  0  0  0  0  0  0  0  0  0  0
   50.3259   36.6789   43.9992 H   0  0  0  0  0  0  0  0  0  0  0  0
   51.9757   37.0876   42.7705 C   0  0  0  0  0  0  0  0  0  0  0  0
   52.4332   37.0312   41.4630 C   0  0  0  0  0  0  0  0  0  0  0  0
   54.0784   37.6064   41.1942 Cl  0  0  0  0  0  0  0  0  0  0  0  0
   51.6587   36.5564   40.4285 C   0  0  0  0  0  0  0  0  0  0  0  0
   52.0915   36.5466   39.4393 H   0  0  0  0  0  0  0  0  0  0  0  0
   52.5636   37.4541   43.5902 H   0  0  0  0  0  0  0  0  0  0  0  0
  1  9  1  0
  2  1  1  0
  2 13  1  0
  3  2  2  0
  4  5  2  0
  4  3  1  0
  5  6  1  0
  6  1  2  0
  7 12  2  0
  8  7  1  0
  9  8  2  0
  9 10  1  0
 10 11  2  0
 11 12  1  0
  3 14  1  0
  4 15  1  0
  5 16  1  0
  6 17  1  0
  7 18  1  0
  8 19  1  0
 11 20  1  0
 13 21  1  0
 13 22  1  0
 23 24  1  0
 24 25  2  0
 25 26  1  0
 26 27  1  0
 26 28  2  0
 28 29  1  0
 29 30  1  0
 29 31  2  0
 31 32  1  0
 31 24  1  0
 28 33  1  0
 13 25  1  0
M  ISO  8  14  14  15  14  16  14  17  14  18  14  19  14  20  14  21   8
M  ISO  3  22   8  27  16  32  15
M  END
>  <DihAtoms>  (1) 
1,12,24,23

>  <DihDeg>  (1) 
-76.03586525819937

$$$$
