
     RDKit          3D

 45 49  0  0  0  0  0  0  0  0999 V2000
   44.7830   35.9800   43.2700 Cl  0  0  0  0  0  0  0  0  0  0  0  0
   45.5340   34.7410   44.2240 C   0  0  0  0  0  0  0  0  0  0  0  0
   46.6280   34.0520   43.7310 C   0  0  0  0  0  0  0  0  0  0  0  0
   47.1460   33.0850   44.5770 C   0  0  0  0  0  0  0  0  0  0  0  0
   46.6660   32.7770   45.8260 C   0  0  0  0  0  0  0  0  0  0  0  0
   45.5800   33.4830   46.2780 C   0  0  0  0  0  0  0  0  0  0  0  0
   44.9880   33.0700   47.8730 Cl  0  0  0  0  0  0  0  0  0  0  0  0
   45.0190   34.4520   45.4920 C   0  0  0  0  0  0  0  0  0  0  0  0
   47.3550   31.7240   46.5580 C   0  0  0  0  0  0  0  0  0  0  0  0
   47.4690   30.4280   46.0800 C   0  0  0  0  0  0  0  0  0  0  0  0
   48.1150   29.4100   46.7490 C   0  0  0  0  0  0  0  0  0  0  0  0
   48.6910   29.6760   47.9710 C   0  0  0  0  0  0  0  0  0  0  0  0
   49.3160   28.6750   48.6100 N   0  0  0  0  0  0  0  0  0  0  0  0
   49.9100   28.8530   49.8200 C   0  0  0  0  0  0  0  0  0  0  0  0
   49.8380   30.1210   50.3610 C   0  0  0  0  0  0  0  0  0  0  0  0
   49.1980   31.1440   49.7090 C   0  0  0  0  0  0  0  0  0  0  0  0
   48.6010   30.9430   48.4780 C   0  0  0  0  0  0  0  0  0  0  0  0
   47.9490   31.9520   47.7930 C   0  0  0  0  0  0  0  0  0  0  0  0
   48.7620   35.4290   41.1270 C   0  0  0  0  0  0  0  0  0  0  0  0
   48.2610   34.8430   39.9560 C   0  0  0  0  0  0  0  0  0  0  0  0
   47.1690   33.9580   40.0680 C   0  0  0  0  0  0  0  0  0  0  0  0
   46.7020   33.7560   41.3140 N   0  0  0  0  0  0  0  0  0  0  0  0
   47.1920   34.3240   42.4200 C   0  0  0  0  0  0  0  0  0  0  0  0
   48.2260   35.1640   42.3370 N   0  0  0  0  0  0  0  0  0  0  0  0
   48.5540   34.6120   37.5550 Cl  0  0  0  0  0  0  0  0  0  0  0  0
   47.1560   33.5420   37.6780 C   0  0  0  0  0  0  0  0  0  0  0  0
   46.5820   33.3030   38.9090 C   0  0  0  0  0  0  0  0  0  0  0  0
   45.5040   32.4700   38.9520 C   0  0  0  0  0  0  0  0  0  0  0  0
   45.0180   31.8900   37.7750 C   0  0  0  0  0  0  0  0  0  0  0  0
   45.6140   32.1500   36.5680 C   0  0  0  0  0  0  0  0  0  0  0  0
   44.9950   31.4160   35.0940 Cl  0  0  0  0  0  0  0  0  0  0  0  0
   46.7050   32.9900   36.5060 C   0  0  0  0  0  0  0  0  0  0  0  0
   48.0158   32.5155   44.2176 H   0  0  0  0  0  0  0  0  0  0  0  0
   44.1487   35.0130   45.8632 H   0  0  0  0  0  0  0  0  0  0  0  0
   47.0153   30.1969   45.1050 H   0  0  0  0  0  0  0  0  0  0  0  0
   48.1693   28.4014   46.3134 H   0  0  0  0  0  0  0  0  0  0  0  0
   50.4212   28.0298   50.3406 H   0  0  0  0  0  0  0  0  0  0  0  0
   50.3048   30.3155   51.3379 H   0  0  0  0  0  0  0  0  0  0  0  0
   49.1590   32.1406   50.1729 H   0  0  0  0  0  0  0  0  0  0  0  0
   47.8996   32.9577   48.2359 H   0  0  0  0  0  0  0  0  0  0  0  0
   49.6133   36.1222   41.0578 H   0  0  0  0  0  0  0  0  0  0  0  0
   48.7078   35.0676   38.9762 H   0  0  0  0  0  0  0  0  0  0  0  0
   45.0154   32.2534   39.9134 H   0  0  0  0  0  0  0  0  0  0  0  0
   44.1482   31.2180   37.8186 H   0  0  0  0  0  0  0  0  0  0  0  0
   47.1981   33.2106   35.5478 H   0  0  0  0  0  0  0  0  0  0  0  0
  1  2  1  0
  2  8  2  0
  3  2  1  0
  3  4  2  0
  4  5  1  0
  5  6  2  0
  5  9  1  0
  6  7  1  0
  8  6  1  0
  9 18  1  0
 10  9  2  0
 10 11  1  0
 11 12  2  0
 12 17  1  0
 12 13  1  0
 13 14  2  0
 14 15  1  0
 16 15  2  0
 17 16  1  0
 18 17  2  0
 19 24  2  0
 20 21  2  0
 20 19  1  0
 21 22  1  0
 22 23  2  0
 23  3  1  0
 24 23  1  0
 25 26  1  0
 26 27  2  0
 27 28  1  0
 27 21  1  0
 29 28  2  0
 30 29  1  0
 31 30  1  0
 32 30  2  0
 32 26  1  0
  4 33  1  0
  8 34  1  0
 10 35  1  0
 11 36  1  0
 14 37  1  0
 15 38  1  0
 16 39  1  0
 18 40  1  0
 19 41  1  0
 20 42  1  0
 28 43  1  0
 29 44  1  0
 32 45  1  0
M  ISO  8  33  14  34  14  35  14  36  14  37  14  38  14  39  14  40  14
M  ISO  5  41  14  42  14  43  14  44  14  45  14
M  END
>  <minimizedAffinity>  (1) 
-7.80062723

>  <minimizedRMSD>  (1) 
0.0374822579

$$$$
