
     RDKit          3D

 41 44  0  0  0  0  0  0  0  0999 V2000
   47.1490   31.2801   46.7183 C   0  0  0  0  0  0  0  0  0  0  0  0
   46.7831   31.7717   48.0824 C   0  0  1  0  0  0  0  0  0  0  0  0
   46.1823   30.7756   49.0191 C   0  0  0  0  0  0  0  0  0  0  0  0
   47.5221   31.2700   49.2705 C   0  0  1  0  0  0  0  0  0  0  0  0
   48.7690   30.5129   49.0374 C   0  0  0  0  0  0  0  0  0  0  0  0
   49.5886   30.2265   50.3244 C   0  0  0  0  0  0  0  0  0  0  0  0
   50.0814   31.2608   49.3712 C   0  0  0  0  0  0  0  0  0  0  0  0
   45.9164   33.1267   45.9006 C   0  0  0  0  0  0  0  0  0  0  0  0
   46.9381   32.3984   45.7055 C   0  0  0  0  0  0  0  0  0  0  0  0
   44.5114   36.1654   44.3641 C   0  0  0  0  0  0  0  0  0  0  0  0
   45.1169   36.2067   43.1163 C   0  0  0  0  0  0  0  0  0  0  0  0
   46.0088   35.1874   42.8388 C   0  0  0  0  0  0  0  0  0  0  0  0
   46.2466   34.2256   43.7598 N   0  0  0  0  0  0  0  0  0  0  0  0
   45.6441   34.2117   44.9586 C   0  0  0  0  0  0  0  0  0  0  0  0
   44.7802   35.1946   45.2368 N   0  0  0  0  0  0  0  0  0  0  0  0
   46.4247   30.4642   46.4442 H   0  0  0  0  0  0  0  0  0  0  0  0
   48.1526   30.8595   46.6613 H   0  0  0  0  0  0  0  0  0  0  0  0
   46.3675   32.8075   48.1566 H   0  0  0  0  0  0  0  0  0  0  0  0
   45.3136   31.0672   49.6660 H   0  0  0  0  0  0  0  0  0  0  0  0
   46.1146   29.7024   48.6851 H   0  0  0  0  0  0  0  0  0  0  0  0
   47.6047   31.9990   50.1334 H   0  0  0  0  0  0  0  0  0  0  0  0
   48.8322   29.7588   48.2395 H   0  0  0  0  0  0  0  0  0  0  0  0
   50.1618   29.2772   50.2850 H   0  0  0  0  0  0  0  0  0  0  0  0
   49.1625   30.5699   51.2829 H   0  0  0  0  0  0  0  0  0  0  0  0
   50.9058   31.0730   48.6810 H   0  0  0  0  0  0  0  0  0  0  0  0
   49.9845   32.3370   49.6352 H   0  0  0  0  0  0  0  0  0  0  0  0
   45.1709   33.0659   46.6858 H   0  0  0  0  0  0  0  0  0  0  0  0
   47.6834   32.4524   44.9343 H   0  0  0  0  0  0  0  0  0  0  0  0
   43.7947   36.8734   44.7492 H   0  0  0  0  0  0  0  0  0  0  0  0
   44.7883   37.0511   42.5387 H   0  0  0  0  0  0  0  0  0  0  0  0
   47.2861   32.6178   41.7440 Cl  0  0  0  0  0  0  0  0  0  0  0  0
   47.2350   34.1547   40.9251 C   0  0  0  0  0  0  0  0  0  0  0  0
   46.6277   35.2301   41.5338 C   0  0  0  0  0  0  0  0  0  0  0  0
   46.6669   36.3607   40.7544 C   0  0  0  0  0  0  0  0  0  0  0  0
   46.2449   37.2841   41.0715 H   0  0  0  0  0  0  0  0  0  0  0  0
   47.2430   36.4314   39.5045 C   0  0  0  0  0  0  0  0  0  0  0  0
   47.8356   35.3235   38.9470 C   0  0  0  0  0  0  0  0  0  0  0  0
   48.5696   35.3874   37.3711 Cl  0  0  0  0  0  0  0  0  0  0  0  0
   47.8269   34.1546   39.6859 C   0  0  0  0  0  0  0  0  0  0  0  0
   48.2959   33.2943   39.2349 H   0  0  0  0  0  0  0  0  0  0  0  0
   47.2630   37.3270   38.9101 H   0  0  0  0  0  0  0  0  0  0  0  0
  1  2  1  0
  2  3  1  0
  2  4  1  0
  3  4  1  0
  5  4  1  0
  5  7  1  0
  5  6  1  0
  7  6  1  0
  9  8  2  0
  9  1  1  0
 10 15  2  0
 11 10  1  0
 12 11  2  0
 12 13  1  0
 13 14  2  0
 14 15  1  0
 14  8  1  0
  1 16  1  0
  1 17  1  0
  2 18  1  6
  3 19  1  0
  3 20  1  0
  4 21  1  1
  5 22  1  0
  6 23  1  0
  6 24  1  0
  7 25  1  0
  7 26  1  0
  8 27  1  0
  9 28  1  0
 10 29  1  0
 11 30  1  0
 31 32  1  0
 32 33  2  0
 33 34  1  0
 34 35  1  0
 34 36  2  0
 36 37  1  0
 37 38  1  0
 37 39  2  0
 39 40  1  0
 39 32  1  0
 36 41  1  0
 12 33  1  0
M  ISO  8  16   8  17   8  18  13  19  13  20  13  21  13  22  13  23  13
M  ISO  7  24  13  25  13  26  13  29  14  30  14  35  16  40  15
M  END
>  <DihAtoms>  (1) 
10,11,32,31

>  <DihDeg>  (1) 
-176.17307930116593

$$$$
