
     RDKit          3D

 47 51  0  0  0  0  0  0  0  0999 V2000
   47.5357   32.6770   44.2736 C   0  0  0  0  0  0  0  0  0  0  0  0
   46.8343   33.6546   43.5591 C   0  0  0  0  0  0  0  0  0  0  0  0
   45.7853   34.3675   44.0943 C   0  0  0  0  0  0  0  0  0  0  0  0
   45.3917   34.1130   45.4121 C   0  0  0  0  0  0  0  0  0  0  0  0
   44.4490   34.5904   46.2419 N   0  0  0  0  0  0  0  0  0  0  0  0
   44.5242   33.9662   47.4301 C   0  0  0  0  0  0  0  0  0  0  0  0
   45.5364   33.0909   47.3151 N   0  0  0  0  0  0  0  0  0  0  0  0
   46.0903   33.1514   46.0980 C   0  0  0  0  0  0  0  0  0  0  0  0
   47.1552   32.4122   45.5881 C   0  0  0  0  0  0  0  0  0  0  0  0
   47.0693   33.4227   39.9128 C   0  0  0  0  0  0  0  0  0  0  0  0
   47.9715   34.4296   39.5885 C   0  0  0  0  0  0  0  0  0  0  0  0
   48.5012   35.1936   40.6385 C   0  0  0  0  0  0  0  0  0  0  0  0
   48.1161   34.9243   41.9289 N   0  0  0  0  0  0  0  0  0  0  0  0
   47.2365   33.9324   42.1726 C   0  0  0  0  0  0  0  0  0  0  0  0
   46.6822   33.1496   41.1931 N   0  0  0  0  0  0  0  0  0  0  0  0
   44.9068   35.6061   43.1692 S   0  0  0  0  0  0  0  0  0  0  0  0
   42.3258   35.5899   42.6876 N   0  0  0  0  0  0  0  0  0  0  0  0
   43.5158   34.9442   42.2241 C   0  0  1  0  0  0  0  0  0  0  0  0
   43.8026   35.3142   40.7588 C   0  0  0  0  0  0  0  0  0  0  0  0
   42.6734   35.2777   39.9611 O   0  0  0  0  0  0  0  0  0  0  0  0
   41.5484   34.7664   40.5345 C   0  0  0  0  0  0  0  0  0  0  0  0
   41.2323   35.5581   41.7850 C   0  0  1  0  0  0  0  0  0  0  0  0
   48.3535   32.1448   43.8060 H   0  0  0  0  0  0  0  0  0  0  0  0
   43.7976   35.3428   45.9113 H   0  0  0  0  0  0  0  0  0  0  0  0
   43.8451   34.2188   48.2230 H   0  0  0  0  0  0  0  0  0  0  0  0
   47.6656   31.6696   46.1747 H   0  0  0  0  0  0  0  0  0  0  0  0
   46.6189   32.7920   39.1568 H   0  0  0  0  0  0  0  0  0  0  0  0
   48.2552   34.6198   38.5788 H   0  0  0  0  0  0  0  0  0  0  0  0
   49.2001   35.9843   40.4634 H   0  0  0  0  0  0  0  0  0  0  0  0
   42.1590   35.3992   43.6696 H   0  0  0  0  0  0  0  0  0  0  0  0
   43.5038   33.8434   42.2479 H   0  0  0  0  0  0  0  0  0  0  0  0
   44.2167   36.3467   40.7952 H   0  0  0  0  0  0  0  0  0  0  0  0
   44.5043   34.6433   40.2874 H   0  0  0  0  0  0  0  0  0  0  0  0
   41.7125   33.6872   40.7314 H   0  0  0  0  0  0  0  0  0  0  0  0
   40.7223   34.8616   39.8336 H   0  0  0  0  0  0  0  0  0  0  0  0
   41.1521   36.6189   41.3891 H   0  0  0  0  0  0  0  0  0  0  0  0
   40.9340   33.1857   43.7361 Cl  0  0  0  0  0  0  0  0  0  0  0  0
   39.6418   34.2265   43.2364 C   0  0  0  0  0  0  0  0  0  0  0  0
   39.9175   35.2568   42.3467 C   0  0  0  0  0  0  0  0  0  0  0  0
   38.7705   36.0010   42.0387 C   0  0  0  0  0  0  0  0  0  0  0  0
   38.9098   36.8353   41.3389 H   0  0  0  0  0  0  0  0  0  0  0  0
   37.5110   35.8000   42.5123 C   0  0  0  0  0  0  0  0  0  0  0  0
   37.3339   34.7520   43.3919 C   0  0  0  0  0  0  0  0  0  0  0  0
   35.7274   34.4667   44.0192 Cl  0  0  0  0  0  0  0  0  0  0  0  0
   38.3967   33.9549   43.7629 C   0  0  0  0  0  0  0  0  0  0  0  0
   38.2265   33.1469   44.4494 H   0  0  0  0  0  0  0  0  0  0  0  0
   36.7032   36.4451   42.1989 H   0  0  0  0  0  0  0  0  0  0  0  0
  1  9  2  0
  2  3  2  0
  2  1  1  0
  3  4  1  0
  4  8  2  0
  4  5  1  0
  5  6  1  0
  7  6  2  0
  8  7  1  0
  9  8  1  0
 10 15  2  0
 11 10  1  0
 11 12  2  0
 12 13  1  0
 13 14  2  0
 14  2  1  0
 15 14  1  0
 16  3  1  0
 18 17  1  0
 18 16  1  0
 19 18  1  0
 20 21  1  0
 20 19  1  0
 21 22  1  0
 22 17  1  0
  1 23  1  0
  5 24  1  0
  6 25  1  0
  9 26  1  0
 10 27  1  0
 11 28  1  0
 12 29  1  0
 17 30  1  0
 18 31  1  6
 19 32  1  0
 19 33  1  0
 21 34  1  0
 21 35  1  0
 22 36  1  6
 37 38  1  0
 38 39  2  0
 39 40  1  0
 40 41  1  0
 40 42  2  0
 42 43  1  0
 43 44  1  0
 43 45  2  0
 45 46  1  0
 45 38  1  0
 42 47  1  0
 22 39  1  0
M  ISO  8  23  14  24   9  25  14  26  14  27  14  28  14  29  14  30   5
M  ISO  8  31  13  32  13  33  13  34  13  35  13  36  13  41  16  46  15
M  END
>  <DihAtoms>  (1) 
20,21,38,37

>  <DihDeg>  (1) 
86.39248423839233

$$$$
