
     RDKit          3D

 40 43  0  0  0  0  0  0  0  0999 V2000
   49.0290   33.7270   37.2290 Cl  0  0  0  0  0  0  0  0  0  0  0  0
   47.9220   32.4130   37.5790 C   0  0  0  0  0  0  0  0  0  0  0  0
   47.4010   32.2980   38.8230 C   0  0  0  0  0  0  0  0  0  0  0  0
   46.6440   31.1560   39.0250 C   0  0  0  0  0  0  0  0  0  0  0  0
   46.3960   30.1830   38.0840 C   0  0  0  0  0  0  0  0  0  0  0  0
   46.9450   30.3460   36.8220 C   0  0  0  0  0  0  0  0  0  0  0  0
   47.7140   31.4770   36.5780 C   0  0  0  0  0  0  0  0  0  0  0  0
   45.7590   32.5110   34.6500 Cl  0  0  0  0  0  0  0  0  0  0  0  0
   47.4390   32.1070   34.2600 C   0  0  0  0  0  0  0  0  0  0  0  0
   48.2810   31.6260   35.2410 C   0  0  0  0  0  0  0  0  0  0  0  0
   49.5790   31.3270   34.8790 C   0  0  0  0  0  0  0  0  0  0  0  0
   50.0090   31.5100   33.5710 C   0  0  0  0  0  0  0  0  0  0  0  0
   49.1060   32.0010   32.6240 C   0  0  0  0  0  0  0  0  0  0  0  0
   49.6020   32.2520   30.9490 Cl  0  0  0  0  0  0  0  0  0  0  0  0
   47.7890   32.3140   32.9480 C   0  0  0  0  0  0  0  0  0  0  0  0
   48.5260   35.3990   40.5670 C   0  0  0  0  0  0  0  0  0  0  0  0
   48.3120   34.4660   39.5390 C   0  0  0  0  0  0  0  0  0  0  0  0
   47.6070   33.3040   39.8290 C   0  0  0  0  0  0  0  0  0  0  0  0
   47.1570   33.1470   41.0940 N   0  0  0  0  0  0  0  0  0  0  0  0
   47.3590   34.0460   42.0720 C   0  0  0  0  0  0  0  0  0  0  0  0
   48.0460   35.1730   41.8110 N   0  0  0  0  0  0  0  0  0  0  0  0
   45.0160   35.8590   42.8240 Cl  0  0  0  0  0  0  0  0  0  0  0  0
   45.7270   34.6310   43.8440 C   0  0  0  0  0  0  0  0  0  0  0  0
   46.7970   33.8590   43.3910 C   0  0  0  0  0  0  0  0  0  0  0  0
   47.2650   32.9320   44.2630 C   0  0  0  0  0  0  0  0  0  0  0  0
   46.7450   32.7270   45.5340 C   0  0  0  0  0  0  0  0  0  0  0  0
   45.6940   33.5000   45.9530 C   0  0  0  0  0  0  0  0  0  0  0  0
   45.1260   33.1290   47.5630 Cl  0  0  0  0  0  0  0  0  0  0  0  0
   45.1850   34.4460   45.1180 C   0  0  0  0  0  0  0  0  0  0  0  0
   46.2033   31.0146   40.0229 H   0  0  0  0  0  0  0  0  0  0  0  0
   45.7813   29.3034   38.3259 H   0  0  0  0  0  0  0  0  0  0  0  0
   46.7761   29.5984   36.0330 H   0  0  0  0  0  0  0  0  0  0  0  0
   50.2796   30.9401   35.6336 H   0  0  0  0  0  0  0  0  0  0  0  0
   51.0442   31.2722   33.2849 H   0  0  0  0  0  0  0  0  0  0  0  0
   47.0770   32.7008   32.2040 H   0  0  0  0  0  0  0  0  0  0  0  0
   49.0886   36.3210   40.3585 H   0  0  0  0  0  0  0  0  0  0  0  0
   48.6948   34.6514   38.5246 H   0  0  0  0  0  0  0  0  0  0  0  0
   48.1092   32.3033   43.9435 H   0  0  0  0  0  0  0  0  0  0  0  0
   47.1699   31.9564   46.1940 H   0  0  0  0  0  0  0  0  0  0  0  0
   44.3410   35.0693   45.4484 H   0  0  0  0  0  0  0  0  0  0  0  0
  1  2  1  0
  2  3  2  0
  3  4  1  0
  3 18  1  0
  5  4  2  0
  6  5  1  0
  7  6  2  0
  7  2  1  0
  9  8  1  0
  9 10  2  0
 10  7  1  0
 11 10  1  0
 12 11  2  0
 13 15  2  0
 13 12  1  0
 14 13  1  0
 15  9  1  0
 16 21  2  0
 17 18  2  0
 17 16  1  0
 18 19  1  0
 19 20  2  0
 20 24  1  0
 21 20  1  0
 22 23  1  0
 23 29  2  0
 24 23  1  0
 24 25  2  0
 25 26  1  0
 26 27  2  0
 27 28  1  0
 29 27  1  0
  4 30  1  0
  5 31  1  0
  6 32  1  0
 11 33  1  0
 12 34  1  0
 15 35  1  0
 16 36  1  0
 17 37  1  0
 25 38  1  0
 26 39  1  0
 29 40  1  0
M  ISO  8  30  14  31  14  32  14  33  14  34  14  35  14  36  14  37  14
M  ISO  3  38  14  39  14  40  14
M  END
>  <minimizedAffinity>  (1) 
-6.54400492

>  <minimizedRMSD>  (1) 
1.27366757

$$$$
