
     RDKit          3D

 27 29  0  0  0  0  0  0  0  0999 V2000
   44.5760   35.9107   44.3130 C   0  0  0  0  0  0  0  0  0  0  0  0
   45.3513   35.9120   43.1089 C   0  0  0  0  0  0  0  0  0  0  0  0
   46.3106   34.9207   43.0413 C   0  0  0  0  0  0  0  0  0  0  0  0
   46.4926   34.0073   44.0681 N   0  0  0  0  0  0  0  0  0  0  0  0
   45.7347   34.0570   45.1698 C   0  0  0  0  0  0  0  0  0  0  0  0
   44.7732   35.0073   45.2995 N   0  0  0  0  0  0  0  0  0  0  0  0
   47.0783   34.8069   41.7428 C   0  0  0  0  0  0  0  0  0  0  0  0
   48.4610   35.4622   41.8789 C   0  0  0  0  0  0  0  0  0  0  0  0
   48.2193   33.9300   41.7356 C   0  0  0  0  0  0  0  0  0  0  0  0
   43.8164   36.6574   44.4228 H   0  0  0  0  0  0  0  0  0  0  0  0
   46.0081   33.2754   45.8638 H   0  0  0  0  0  0  0  0  0  0  0  0
   46.5698   35.2174   40.8473 H   0  0  0  0  0  0  0  0  0  0  0  0
   48.7578   35.8525   42.8444 H   0  0  0  0  0  0  0  0  0  0  0  0
   48.8527   35.9125   40.9550 H   0  0  0  0  0  0  0  0  0  0  0  0
   48.5267   33.3848   42.6717 H   0  0  0  0  0  0  0  0  0  0  0  0
   48.6272   33.4468   40.8114 H   0  0  0  0  0  0  0  0  0  0  0  0
   45.3288   34.5882   40.4790 Cl  0  0  0  0  0  0  0  0  0  0  0  0
   45.1076   36.3196   40.7766 C   0  0  0  0  0  0  0  0  0  0  0  0
   45.1290   36.8889   42.0541 C   0  0  0  0  0  0  0  0  0  0  0  0
   44.9451   38.2521   42.1659 C   0  0  0  0  0  0  0  0  0  0  0  0
   44.9759   38.6111   43.1880 H   0  0  0  0  0  0  0  0  0  0  0  0
   44.7465   39.0170   41.0340 C   0  0  0  0  0  0  0  0  0  0  0  0
   44.7292   38.4332   39.7824 C   0  0  0  0  0  0  0  0  0  0  0  0
   44.4767   39.4246   38.3758 Cl  0  0  0  0  0  0  0  0  0  0  0  0
   44.9107   37.0752   39.6501 C   0  0  0  0  0  0  0  0  0  0  0  0
   44.8896   36.6609   38.6506 H   0  0  0  0  0  0  0  0  0  0  0  0
   44.6060   40.0980   41.1881 H   0  0  0  0  0  0  0  0  0  0  0  0
  1  6  2  0
  2  1  1  0
  3  2  2  0
  3  4  1  0
  4  5  2  0
  5  6  1  0
  7  8  1  0
  7  9  1  0
  7  3  1  0
  8  9  1  0
  1 10  1  0
  5 11  1  0
  7 12  1  0
  8 13  1  0
  8 14  1  0
  9 15  1  0
  9 16  1  0
 17 18  1  0
 18 19  2  0
 19 20  1  0
 20 21  1  0
 20 22  2  0
 22 23  1  0
 23 24  1  0
 23 25  2  0
 25 26  1  0
 25 18  1  0
 22 27  1  0
  2 19  1  0
M  ISO  8  10  14  11  14  12  13  13  13  14  13  15  13  16  13  21  16
M  ISO  1  26  15
M  END
>  <DihAtoms>  (1) 
0,1,18,17

>  <DihDeg>  (1) 
89.99896688918547

$$$$
