
     RDKit          3D

 30 32  0  0  1  0  0  0  0  0999 V2000
   47.4620   35.1090   41.4790 C   0  0  1  0  0  0  0  0  0  0  0  0
   48.9160   35.5690   41.4680 C   0  0  0  0  0  0  0  0  0  0  0  0
   48.3360   34.8530   40.3070 C   0  0  1  0  0  0  0  0  0  0  0  0
   48.1120   34.5070   37.4040 Cl  0  0  0  0  0  0  0  0  0  0  0  0
   48.4780   33.2680   38.5980 C   0  0  0  0  0  0  0  0  0  0  0  0
   48.5910   33.4640   39.9610 C   0  0  0  0  0  0  0  0  0  0  0  0
   48.8840   32.3300   40.6860 C   0  0  0  0  0  0  0  0  0  0  0  0
   49.0590   31.0840   40.1250 C   0  0  0  0  0  0  0  0  0  0  0  0
   48.9440   30.9080   38.7640 C   0  0  0  0  0  0  0  0  0  0  0  0
   49.1840   29.2940   38.1670 Cl  0  0  0  0  0  0  0  0  0  0  0  0
   48.6450   32.0320   37.9940 C   0  0  0  0  0  0  0  0  0  0  0  0
   47.1850   34.0280   42.4570 C   0  0  0  0  0  0  0  0  0  0  0  0
   46.2780   34.4780   43.5430 C   0  0  0  0  0  0  0  0  0  0  0  0
   45.5170   35.5990   43.3140 C   0  0  0  0  0  0  0  0  0  0  0  0
   44.6410   36.0140   44.3300 C   0  0  0  0  0  0  0  0  0  0  0  0
   44.6060   35.2740   45.4750 N   0  0  0  0  0  0  0  0  0  0  0  0
   45.3810   34.1720   45.6500 C   0  0  0  0  0  0  0  0  0  0  0  0
   46.2250   33.7720   44.6720 N   0  0  0  0  0  0  0  0  0  0  0  0
   46.4603   35.5519   41.5808 H   0  0  0  0  0  0  0  0  0  0  0  0
   49.1560   36.6399   41.3929 H   0  0  0  0  0  0  0  0  0  0  0  0
   49.7884   35.4228   42.1219 H   0  0  0  0  0  0  0  0  0  0  0  0
   48.3538   35.0940   39.2339 H   0  0  0  0  0  0  0  0  0  0  0  0
   48.9842   32.4249   41.7773 H   0  0  0  0  0  0  0  0  0  0  0  0
   49.2923   30.2233   40.7690 H   0  0  0  0  0  0  0  0  0  0  0  0
   48.5414   31.9369   36.9030 H   0  0  0  0  0  0  0  0  0  0  0  0
   46.7161   33.1840   41.9299 H   0  0  0  0  0  0  0  0  0  0  0  0
   48.1404   33.7310   42.9141 H   0  0  0  0  0  0  0  0  0  0  0  0
   45.5915   36.1528   42.3665 H   0  0  0  0  0  0  0  0  0  0  0  0
   44.0060   36.9037   44.2068 H   0  0  0  0  0  0  0  0  0  0  0  0
   45.3218   33.6035   46.5898 H   0  0  0  0  0  0  0  0  0  0  0  0
  1 12  1  0
  2  1  1  0
  3  2  1  0
  3  1  1  0
  4  5  1  0
  5  6  2  0
  6  3  1  0
  6  7  1  0
  8  7  2  0
  9  8  1  0
 10  9  1  0
 11  5  1  0
 11  9  2  0
 12 13  1  0
 13 18  1  0
 14 13  2  0
 14 15  1  0
 15 16  2  0
 16 17  1  0
 18 17  2  0
  1 19  1  6
  2 20  1  0
  2 21  1  0
  3 22  1  6
  7 23  1  0
  8 24  1  0
 11 25  1  0
 12 26  1  0
 12 27  1  0
 14 28  1  0
 15 29  1  0
 17 30  1  0
M  ISO  8  19  13  20  13  21  13  22  13  23  14  24  14  25  14  26   8
M  ISO  4  27   8  28  14  29  14  30  14
M  END
>  <minimizedAffinity>  (1) 
-5.19509649

>  <minimizedRMSD>  (1) 
0.565209031

$$$$
