
     RDKit          3D

 46 49  0  0  1  0  0  0  0  0999 V2000
   45.3510   34.6970   41.9100 C   0  0  0  0  0  0  0  0  0  0  0  0
   43.9160   32.2210   41.6280 F   0  0  0  0  0  0  0  0  0  0  0  0
   43.2820   33.3830   41.4960 C   0  0  0  0  0  0  0  0  0  0  0  0
   43.9120   34.6000   41.6200 C   0  0  0  0  0  0  0  0  0  0  0  0
   43.1820   35.7570   41.4720 C   0  0  0  0  0  0  0  0  0  0  0  0
   41.8320   35.6360   41.2020 C   0  0  0  0  0  0  0  0  0  0  0  0
   41.1480   34.4490   41.0670 C   0  0  0  0  0  0  0  0  0  0  0  0
   41.9160   33.2980   41.2230 C   0  0  0  0  0  0  0  0  0  0  0  0
   41.8340   32.0460   38.4730 Cl  0  0  0  0  0  0  0  0  0  0  0  0
   41.1200   31.3010   39.9120 C   0  0  0  0  0  0  0  0  0  0  0  0
   41.2460   32.0060   41.0910 C   0  0  0  0  0  0  0  0  0  0  0  0
   40.7190   31.5090   42.2850 C   0  0  0  0  0  0  0  0  0  0  0  0
   40.0710   30.2810   42.2160 C   0  0  0  0  0  0  0  0  0  0  0  0
   39.9400   29.5680   41.0430 C   0  0  0  0  0  0  0  0  0  0  0  0
   39.1380   28.0320   40.9200 Cl  0  0  0  0  0  0  0  0  0  0  0  0
   40.4750   30.0830   39.8570 C   0  0  0  0  0  0  0  0  0  0  0  0
   45.7050   34.2340   43.2790 C   0  0  0  0  0  0  0  0  0  0  0  0
   46.8460   33.4630   43.4130 C   0  0  0  0  0  0  0  0  0  0  0  0
   47.1770   33.0490   44.7180 C   0  0  0  0  0  0  0  0  0  0  0  0
   46.3850   33.4150   45.7560 N   0  0  0  0  0  0  0  0  0  0  0  0
   45.2890   34.1660   45.5630 C   0  0  0  0  0  0  0  0  0  0  0  0
   44.9640   34.5630   44.3450 N   0  0  0  0  0  0  0  0  0  0  0  0
   48.8950   33.9640   42.0800 C   0  0  2  0  0  0  0  0  0  0  0  0
   47.6840   33.0090   42.2660 C   0  0  1  0  0  0  0  0  0  0  0  0
   48.1250   31.7460   42.3190 O   0  0  0  0  0  0  0  0  0  0  0  0
   49.4900   31.7200   42.5010 C   0  0  0  0  0  0  0  0  0  0  0  0
   49.9700   32.9100   41.7210 C   0  0  1  0  0  0  0  0  0  0  0  0
   49.2490   34.6550   43.1660 O   0  0  0  0  0  0  0  0  0  0  0  0
   49.9100   32.5670   40.3880 O   0  0  0  0  0  0  0  0  0  0  0  0
   45.6587   35.7479   41.8058 H   0  0  0  0  0  0  0  0  0  0  0  0
   45.8732   34.0413   41.1977 H   0  0  0  0  0  0  0  0  0  0  0  0
   43.6569   36.7448   41.5654 H   0  0  0  0  0  0  0  0  0  0  0  0
   41.2560   36.5658   41.0852 H   0  0  0  0  0  0  0  0  0  0  0  0
   40.0700   34.4123   40.8510 H   0  0  0  0  0  0  0  0  0  0  0  0
   40.8119   32.0611   43.2319 H   0  0  0  0  0  0  0  0  0  0  0  0
   39.6439   29.8595   43.1379 H   0  0  0  0  0  0  0  0  0  0  0  0
   40.3839   29.5328   38.9089 H   0  0  0  0  0  0  0  0  0  0  0  0
   48.0714   32.4333   44.8938 H   0  0  0  0  0  0  0  0  0  0  0  0
   44.6607   34.4513   46.4197 H   0  0  0  0  0  0  0  0  0  0  0  0
   48.7085   34.7693   41.3543 H   0  0  0  0  0  0  0  0  0  0  0  0
   47.0003   33.0392   41.4048 H   0  0  0  0  0  0  0  0  0  0  0  0
   49.7467   31.8184   43.5661 H   0  0  0  0  0  0  0  0  0  0  0  0
   49.9487   30.7768   42.1694 H   0  0  0  0  0  0  0  0  0  0  0  0
   50.9923   33.2583   41.9299 H   0  0  0  0  0  0  0  0  0  0  0  0
   48.9903   34.1500   43.9773 H   0  0  0  0  0  0  0  0  0  0  0  0
   49.7400   31.5953   40.3046 H   0  0  0  0  0  0  0  0  0  0  0  0
  1 17  1  0
  3  4  2  0
  3  2  1  0
  4  1  1  0
  5  4  1  0
  6  5  2  0
  7  6  1  0
  7  8  2  0
  8  3  1  0
  9 10  1  0
 10 11  2  0
 11  8  1  0
 11 12  1  0
 13 12  2  0
 14 13  1  0
 15 14  1  0
 16 10  1  0
 16 14  2  0
 17 18  1  0
 17 22  2  0
 18 19  2  0
 19 20  1  0
 21 20  2  0
 22 21  1  0
 23 24  1  0
 23 28  1  0
 24 25  1  0
 24 18  1  0
 25 26  1  0
 27 23  1  0
 27 26  1  0
 29 27  1  0
  1 30  1  0
  1 31  1  0
  5 32  1  0
  6 33  1  0
  7 34  1  0
 12 35  1  0
 13 36  1  0
 16 37  1  0
 19 38  1  0
 21 39  1  0
 23 40  1  6
 24 41  1  6
 26 42  1  0
 26 43  1  0
 27 44  1  1
 28 45  1  0
 29 46  1  0
M  ISO  8  30   8  31   8  32  14  33  14  34  14  35  14  36  14  37  14
M  ISO  8  38  14  39  14  40  13  41  13  42  13  43  13  44  13  45   3
M  ISO  1  46   3
M  END
>  <minimizedAffinity>  (1) 
-6.19295359

>  <minimizedRMSD>  (1) 
2.56387329

$$$$
