
     RDKit          3D

 33 35  0  0  1  0  0  0  0  0999 V2000
   48.9010   34.7830   41.5010 C   0  0  1  0  0  0  0  0  0  0  0  0
   49.9710   34.5610   42.5130 C   0  0  0  0  0  0  0  0  0  0  0  0
   49.1370   33.4340   42.0040 C   0  0  2  0  0  0  0  0  0  0  0  0
   47.8940   32.5670   39.2620 Cl  0  0  0  0  0  0  0  0  0  0  0  0
   49.4840   32.1180   39.8360 C   0  0  0  0  0  0  0  0  0  0  0  0
   49.9180   32.5850   41.0530 C   0  0  0  0  0  0  0  0  0  0  0  0
   51.1630   32.2930   41.5640 C   0  0  0  0  0  0  0  0  0  0  0  0
   52.0510   31.4900   40.8450 C   0  0  0  0  0  0  0  0  0  0  0  0
   51.6240   31.0080   39.6080 C   0  0  0  0  0  0  0  0  0  0  0  0
   52.5760   29.9830   38.5370 Cl  0  0  0  0  0  0  0  0  0  0  0  0
   50.3650   31.3260   39.1300 C   0  0  0  0  0  0  0  0  0  0  0  0
   47.6540   35.4790   41.9560 C   0  0  0  0  0  0  0  0  0  0  0  0
   46.6050   34.3850   42.1220 C   0  0  0  0  0  0  0  0  0  0  0  0
   44.4760   35.9340   44.8030 C   0  0  0  0  0  0  0  0  0  0  0  0
   45.1000   35.7200   43.5430 C   0  0  0  0  0  0  0  0  0  0  0  0
   45.8960   34.6140   43.4140 C   0  0  0  0  0  0  0  0  0  0  0  0
   46.0510   33.7790   44.4800 N   0  0  0  0  0  0  0  0  0  0  0  0
   45.4640   33.9910   45.6440 C   0  0  0  0  0  0  0  0  0  0  0  0
   44.6790   35.0600   45.8160 N   0  0  0  0  0  0  0  0  0  0  0  0
   48.8647   35.2415   40.5018 H   0  0  0  0  0  0  0  0  0  0  0  0
   51.0299   34.6401   42.2258 H   0  0  0  0  0  0  0  0  0  0  0  0
   50.2142   34.9740   43.5031 H   0  0  0  0  0  0  0  0  0  0  0  0
   48.4961   32.6590   42.4497 H   0  0  0  0  0  0  0  0  0  0  0  0
   51.4597   32.6946   42.5441 H   0  0  0  0  0  0  0  0  0  0  0  0
   53.0488   31.2471   41.2392 H   0  0  0  0  0  0  0  0  0  0  0  0
   50.0554   30.9325   38.1506 H   0  0  0  0  0  0  0  0  0  0  0  0
   47.8287   35.9908   42.9139 H   0  0  0  0  0  0  0  0  0  0  0  0
   47.3308   36.2438   41.2344 H   0  0  0  0  0  0  0  0  0  0  0  0
   45.8867   34.4280   41.2900 H   0  0  0  0  0  0  0  0  0  0  0  0
   47.0841   33.3948   42.1209 H   0  0  0  0  0  0  0  0  0  0  0  0
   43.8283   36.8101   44.9541 H   0  0  0  0  0  0  0  0  0  0  0  0
   44.9488   36.4162   42.7048 H   0  0  0  0  0  0  0  0  0  0  0  0
   45.6212   33.2865   46.4741 H   0  0  0  0  0  0  0  0  0  0  0  0
  1 12  1  0
  1  3  1  0
  1  2  1  0
  3  2  1  0
  4  5  1  0
  5  6  2  0
  6  7  1  0
  6  3  1  0
  8  7  2  0
  9  8  1  0
 10  9  1  0
 11  9  2  0
 11  5  1  0
 12 13  1  0
 13 16  1  0
 14 19  2  0
 15 14  1  0
 16 15  2  0
 16 17  1  0
 17 18  2  0
 18 19  1  0
  1 20  1  6
  2 21  1  0
  2 22  1  0
  3 23  1  1
  7 24  1  0
  8 25  1  0
 11 26  1  0
 12 27  1  0
 12 28  1  0
 13 29  1  0
 13 30  1  0
 14 31  1  0
 15 32  1  0
 18 33  1  0
M  ISO  8  20  13  21  13  22  13  23  13  24  14  25  14  26  14  27   8
M  ISO  6  28   8  29   8  30   8  31  14  32  14  33  14
M  END
>  <minimizedAffinity>  (1) 
-5.09003592

>  <minimizedRMSD>  (1) 
1.50470483

$$$$
