
     RDKit          3D

 41 43  0  0  0  0  0  0  0  0999 V2000
   46.3150   34.9209   41.7960 C   0  0  0  0  0  0  0  0  0  0  0  0
   44.4802   35.9803   44.9021 C   0  0  0  0  0  0  0  0  0  0  0  0
   44.9907   35.9717   43.5898 C   0  0  0  0  0  0  0  0  0  0  0  0
   45.7825   34.9280   43.1775 C   0  0  0  0  0  0  0  0  0  0  0  0
   46.0283   33.9559   44.0711 N   0  0  0  0  0  0  0  0  0  0  0  0
   45.5405   33.9665   45.3217 C   0  0  0  0  0  0  0  0  0  0  0  0
   44.7593   34.9801   45.7533 N   0  0  0  0  0  0  0  0  0  0  0  0
   47.8136   34.9006   41.8504 C   0  0  0  0  0  0  0  0  0  0  0  0
   48.3532   34.1871   40.7456 N   0  0  0  0  0  0  0  0  0  0  0  0
   49.2445   33.1351   41.1000 C   0  0  0  0  0  0  0  0  0  0  0  0
   49.1728   31.8673   40.3359 C   0  0  0  0  0  0  0  0  0  0  0  0
   48.6908   31.9966   38.9248 C   0  0  0  0  0  0  0  0  0  0  0  0
   48.4708   33.4224   38.5181 C   0  0  0  0  0  0  0  0  0  0  0  0
   47.5566   34.0145   39.6097 C   0  0  2  0  0  0  0  0  0  0  0  0
   45.8547   34.0235   41.3313 H   0  0  0  0  0  0  0  0  0  0  0  0
   45.9096   35.7820   41.2418 H   0  0  0  0  0  0  0  0  0  0  0  0
   43.8544   36.8238   45.1985 H   0  0  0  0  0  0  0  0  0  0  0  0
   44.7693   36.7660   42.9132 H   0  0  0  0  0  0  0  0  0  0  0  0
   45.7890   33.1338   45.9887 H   0  0  0  0  0  0  0  0  0  0  0  0
   48.1577   34.3671   42.7820 H   0  0  0  0  0  0  0  0  0  0  0  0
   48.1837   35.9392   41.9052 H   0  0  0  0  0  0  0  0  0  0  0  0
   50.2849   33.5623   41.0083 H   0  0  0  0  0  0  0  0  0  0  0  0
   49.1172   32.9475   42.1887 H   0  0  0  0  0  0  0  0  0  0  0  0
   50.2020   31.4124   40.3333 H   0  0  0  0  0  0  0  0  0  0  0  0
   48.5482   31.1510   40.9041 H   0  0  0  0  0  0  0  0  0  0  0  0
   47.7911   31.3588   38.7532 H   0  0  0  0  0  0  0  0  0  0  0  0
   49.4613   31.5905   38.2088 H   0  0  0  0  0  0  0  0  0  0  0  0
   47.9707   33.4480   37.5335 H   0  0  0  0  0  0  0  0  0  0  0  0
   49.4225   33.9558   38.5578 H   0  0  0  0  0  0  0  0  0  0  0  0
   46.7460   33.2659   39.6829 H   0  0  0  0  0  0  0  0  0  0  0  0
   48.3969   34.6924   36.7474 Cl  0  0  0  0  0  0  0  0  0  0  0  0
   47.4237   35.7349   37.7809 C   0  0  0  0  0  0  0  0  0  0  0  0
   47.1086   35.3041   39.0631 C   0  0  0  0  0  0  0  0  0  0  0  0
   46.3460   36.2140   39.7589 C   0  0  0  0  0  0  0  0  0  0  0  0
   46.0369   36.0033   40.7726 H   0  0  0  0  0  0  0  0  0  0  0  0
   45.9171   37.4326   39.2779 C   0  0  0  0  0  0  0  0  0  0  0  0
   46.2718   37.7867   37.9953 C   0  0  0  0  0  0  0  0  0  0  0  0
   45.7560   39.3216   37.3311 Cl  0  0  0  0  0  0  0  0  0  0  0  0
   47.0358   36.9354   37.2246 C   0  0  0  0  0  0  0  0  0  0  0  0
   47.3068   37.2210   36.2265 H   0  0  0  0  0  0  0  0  0  0  0  0
   45.3189   38.1136   39.8636 H   0  0  0  0  0  0  0  0  0  0  0  0
  1  8  1  0
  1  4  1  0
  2  7  2  0
  3  2  1  0
  4  3  2  0
  4  5  1  0
  5  6  2  0
  6  7  1  0
  9 10  1  0
  9  8  1  0
 11 10  1  0
 12 11  1  0
 13 12  1  0
 13 14  1  0
 14  9  1  0
  1 15  1  0
  1 16  1  0
  2 17  1  0
  3 18  1  0
  6 19  1  0
  8 20  1  0
  8 21  1  0
 10 22  1  0
 10 23  1  0
 11 24  1  0
 11 25  1  0
 12 26  1  0
 12 27  1  0
 13 28  1  0
 13 29  1  0
 14 30  1  1
 31 32  1  0
 32 33  2  0
 33 34  1  0
 34 35  1  0
 34 36  2  0
 36 37  1  0
 37 38  1  0
 37 39  2  0
 39 40  1  0
 39 32  1  0
 36 41  1  0
 14 33  1  0
M  ISO  8  15   8  16   8  17  14  18  14  19  14  20   8  21   8  22  13
M  ISO  8  23  13  24  13  25  13  26  13  27  13  28  13  29  13  30  13
M  ISO  2  35  16  40  15
M  END
>  <DihAtoms>  (1) 
12,13,32,31

>  <DihDeg>  (1) 
94.49774442706862

$$$$
