
     RDKit          3D

 30 32  0  0  0  0  0  0  0  0999 V2000
   46.6340   34.7590   42.0550 C   0  0  0  0  0  0  0  0  0  0  0  0
   47.9690   35.1180   42.0440 C   0  0  0  0  0  0  0  0  0  0  0  0
   48.7310   34.9560   40.9090 C   0  0  0  0  0  0  0  0  0  0  0  0
   48.1240   34.4300   39.7960 C   0  0  0  0  0  0  0  0  0  0  0  0
   46.7880   34.0520   39.7490 C   0  0  0  0  0  0  0  0  0  0  0  0
   46.0560   34.2400   40.9380 C   0  0  0  0  0  0  0  0  0  0  0  0
   45.6390   31.3900   41.8040 Cl  0  0  0  0  0  0  0  0  0  0  0  0
   44.4050   32.5310   41.2860 C   0  0  0  0  0  0  0  0  0  0  0  0
   44.6690   33.8490   40.8920 C   0  0  0  0  0  0  0  0  0  0  0  0
   43.5680   34.5870   40.5210 C   0  0  0  0  0  0  0  0  0  0  0  0
   42.2750   34.1250   40.5140 C   0  0  0  0  0  0  0  0  0  0  0  0
   42.0520   32.8110   40.9110 C   0  0  0  0  0  0  0  0  0  0  0  0
   40.3760   32.2650   40.8830 Cl  0  0  0  0  0  0  0  0  0  0  0  0
   43.1300   32.0190   41.2970 C   0  0  0  0  0  0  0  0  0  0  0  0
   44.4540   36.1800   44.8060 C   0  0  0  0  0  0  0  0  0  0  0  0
   45.1080   36.0700   43.5660 C   0  0  0  0  0  0  0  0  0  0  0  0
   45.9150   34.9690   43.2960 C   0  0  0  0  0  0  0  0  0  0  0  0
   46.0070   34.0610   44.2850 N   0  0  0  0  0  0  0  0  0  0  0  0
   45.3950   34.1390   45.4780 C   0  0  0  0  0  0  0  0  0  0  0  0
   44.6120   35.2070   45.7420 N   0  0  0  0  0  0  0  0  0  0  0  0
   48.4272   35.5375   42.9518 H   0  0  0  0  0  0  0  0  0  0  0  0
   49.7938   35.2394   40.8945 H   0  0  0  0  0  0  0  0  0  0  0  0
   48.7310   34.3001   38.8879 H   0  0  0  0  0  0  0  0  0  0  0  0
   46.3306   33.6324   38.8408 H   0  0  0  0  0  0  0  0  0  0  0  0
   43.7370   35.6272   40.2058 H   0  0  0  0  0  0  0  0  0  0  0  0
   41.4422   34.7735   40.2043 H   0  0  0  0  0  0  0  0  0  0  0  0
   42.9602   30.9789   41.6121 H   0  0  0  0  0  0  0  0  0  0  0  0
   43.8164   37.0509   45.0179 H   0  0  0  0  0  0  0  0  0  0  0  0
   44.9813   36.8564   42.8074 H   0  0  0  0  0  0  0  0  0  0  0  0
   45.5294   33.3456   46.2280 H   0  0  0  0  0  0  0  0  0  0  0  0
  1 17  1  0
  2  1  2  0
  3  2  1  0
  4  3  2  0
  5  4  1  0
  5  6  2  0
  6  1  1  0
  8 14  2  0
  8  7  1  0
  9  6  1  0
  9  8  1  0
 10  9  2  0
 11 10  1  0
 11 12  2  0
 12 14  1  0
 13 12  1  0
 15 20  2  0
 16 15  1  0
 17 16  2  0
 17 18  1  0
 18 19  2  0
 19 20  1  0
  2 21  1  0
  3 22  1  0
  4 23  1  0
  5 24  1  0
 10 25  1  0
 11 26  1  0
 14 27  1  0
 15 28  1  0
 16 29  1  0
 19 30  1  0
M  ISO  8  21  14  22  14  23  14  24  14  25  14  26  14  27  14  28  14
M  ISO  2  29  14  30  14
M  END
>  <minimizedAffinity>  (1) 
-5.90607691

>  <minimizedRMSD>  (1) 
0.769234359

$$$$
