
     RDKit          3D

 23 24  0  0  0  0  0  0  0  0999 V2000
   45.4010   35.1990   43.5950 C   0  0  0  0  0  0  0  0  0  0  0  0
   46.5400   34.7910   42.9060 C   0  0  0  0  0  0  0  0  0  0  0  0
   47.3400   33.8040   43.4830 C   0  0  0  0  0  0  0  0  0  0  0  0
   46.9670   33.2980   44.6780 N   0  0  0  0  0  0  0  0  0  0  0  0
   45.8540   33.7190   45.3170 C   0  0  0  0  0  0  0  0  0  0  0  0
   45.0660   34.6710   44.7770 N   0  0  0  0  0  0  0  0  0  0  0  0
   46.9760   31.2970   42.0030 Cl  0  0  0  0  0  0  0  0  0  0  0  0
   48.4930   32.1630   42.0920 C   0  0  0  0  0  0  0  0  0  0  0  0
   48.5490   33.3310   42.8160 C   0  0  0  0  0  0  0  0  0  0  0  0
   49.7720   33.9620   42.8430 C   0  0  0  0  0  0  0  0  0  0  0  0
   50.8870   33.4870   42.2030 C   0  0  0  0  0  0  0  0  0  0  0  0
   50.7520   32.3120   41.4980 C   0  0  0  0  0  0  0  0  0  0  0  0
   52.1450   31.6400   40.6470 Cl  0  0  0  0  0  0  0  0  0  0  0  0
   49.5690   31.6080   41.4120 C   0  0  0  0  0  0  0  0  0  0  0  0
   44.5550   36.2570   42.9630 C   0  0  0  0  0  0  0  0  0  0  0  0
   46.8019   35.2343   41.9340 H   0  0  0  0  0  0  0  0  0  0  0  0
   45.5870   33.2801   46.2897 H   0  0  0  0  0  0  0  0  0  0  0  0
   49.8594   34.9004   43.4102 H   0  0  0  0  0  0  0  0  0  0  0  0
   51.8475   34.0210   42.2505 H   0  0  0  0  0  0  0  0  0  0  0  0
   49.4837   30.6703   40.8432 H   0  0  0  0  0  0  0  0  0  0  0  0
   44.0737   36.8590   43.7478 H   0  0  0  0  0  0  0  0  0  0  0  0
   45.1859   36.9062   42.3381 H   0  0  0  0  0  0  0  0  0  0  0  0
   43.7829   35.7844   42.3381 H   0  0  0  0  0  0  0  0  0  0  0  0
  1  6  2  0
  2  3  2  0
  2  1  1  0
  3  4  1  0
  4  5  2  0
  6  5  1  0
  7  8  1  0
  8  9  2  0
  9 10  1  0
  9  3  1  0
 11 10  2  0
 12 11  1  0
 13 12  1  0
 14 12  2  0
 14  8  1  0
 15  1  1  0
  2 16  1  0
  5 17  1  0
 10 18  1  0
 11 19  1  0
 14 20  1  0
 15 21  1  0
 15 22  1  0
 15 23  1  0
M  ISO  8  16  14  17  14  18  14  19  14  20  14  21   8  22   8  23   8
M  END
>  <minimizedAffinity>  (1) 
-4.35668325

>  <minimizedRMSD>  (1) 
2.07894206

$$$$
