
     RDKit          3D

 34 36  0  0  1  0  0  0  0  0999 V2000
   45.5320   33.7640   42.9620 N   0  0  0  0  0  0  0  0  0  0  0  0
   45.8540   33.2190   41.6940 C   0  0  1  0  0  0  0  0  0  0  0  0
   45.4760   34.0620   40.5300 C   0  0  0  0  0  0  0  0  0  0  0  0
   44.3190   34.8310   40.6380 N   0  0  0  0  0  0  0  0  0  0  0  0
   43.8530   35.1820   41.9090 C   0  0  0  0  0  0  0  0  0  0  0  0
   44.9900   35.0880   42.9150 C   0  0  0  0  0  0  0  0  0  0  0  0
   47.8370   35.4910   42.0180 Cl  0  0  0  0  0  0  0  0  0  0  0  0
   48.3690   33.8600   41.6580 C   0  0  0  0  0  0  0  0  0  0  0  0
   47.3280   32.9460   41.5430 C   0  0  0  0  0  0  0  0  0  0  0  0
   47.6760   31.6250   41.2580 C   0  0  0  0  0  0  0  0  0  0  0  0
   48.9960   31.2430   41.0960 C   0  0  0  0  0  0  0  0  0  0  0  0
   50.0130   32.1670   41.2130 C   0  0  0  0  0  0  0  0  0  0  0  0
   51.7180   31.8220   41.0330 Cl  0  0  0  0  0  0  0  0  0  0  0  0
   49.6600   33.4660   41.4950 C   0  0  0  0  0  0  0  0  0  0  0  0
   46.2840   33.6550   45.2300 C   0  0  0  0  0  0  0  0  0  0  0  0
   45.7760   32.9620   44.1140 C   0  0  0  0  0  0  0  0  0  0  0  0
   45.5630   31.5990   44.2280 C   0  0  0  0  0  0  0  0  0  0  0  0
   45.8500   30.9890   45.4010 N   0  0  0  0  0  0  0  0  0  0  0  0
   46.3380   31.6720   46.4680 C   0  0  0  0  0  0  0  0  0  0  0  0
   46.5510   32.9990   46.3730 N   0  0  0  0  0  0  0  0  0  0  0  0
   45.2581   32.2945   41.6805 H   0  0  0  0  0  0  0  0  0  0  0  0
   45.3464   33.3922   39.6671 H   0  0  0  0  0  0  0  0  0  0  0  0
   46.2910   34.7953   40.4404 H   0  0  0  0  0  0  0  0  0  0  0  0
   44.4914   35.7085   40.1270 H   0  0  0  0  0  0  0  0  0  0  0  0
   43.4691   36.2126   41.8861 H   0  0  0  0  0  0  0  0  0  0  0  0
   43.0469   34.4944   42.2045 H   0  0  0  0  0  0  0  0  0  0  0  0
   45.7848   35.7909   42.6248 H   0  0  0  0  0  0  0  0  0  0  0  0
   44.5953   35.3382   43.9108 H   0  0  0  0  0  0  0  0  0  0  0  0
   46.8823   30.8697   41.1598 H   0  0  0  0  0  0  0  0  0  0  0  0
   49.2362   30.1932   40.8719 H   0  0  0  0  0  0  0  0  0  0  0  0
   50.4564   34.2185   41.5929 H   0  0  0  0  0  0  0  0  0  0  0  0
   46.4632   34.7384   45.1662 H   0  0  0  0  0  0  0  0  0  0  0  0
   45.1672   31.0217   43.3794 H   0  0  0  0  0  0  0  0  0  0  0  0
   46.5588   31.1436   47.4072 H   0  0  0  0  0  0  0  0  0  0  0  0
  1 16  1  0
  2  1  1  0
  3  4  1  0
  3  2  1  0
  4  5  1  0
  5  6  1  0
  6  1  1  0
  8  7  1  0
  9  8  2  0
  9  2  1  0
 10  9  1  0
 11 12  1  0
 11 10  2  0
 12 14  2  0
 13 12  1  0
 14  8  1  0
 15 20  2  0
 16 17  2  0
 16 15  1  0
 17 18  1  0
 18 19  2  0
 20 19  1  0
  2 21  1  6
  3 22  1  0
  3 23  1  0
  4 24  1  0
  5 25  1  0
  5 26  1  0
  6 27  1  0
  6 28  1  0
 10 29  1  0
 11 30  1  0
 14 31  1  0
 15 32  1  0
 17 33  1  0
 19 34  1  0
M  ISO  8  21  13  22  13  23  13  24   5  25  13  26  13  27  13  28  13
M  ISO  6  29  14  30  14  31  14  32  14  33  14  34  14
M  END
>  <minimizedAffinity>  (1) 
-4.50264549

>  <minimizedRMSD>  (1) 
1.94871068

$$$$
