
     RDKit          3D

 22 23  0  0  0  0  0  0  0  0999 V2000
   47.7380   34.5920   42.3940 C   0  0  0  0  0  0  0  0  0  0  0  0
   46.7710   34.6080   41.3900 C   0  0  0  0  0  0  0  0  0  0  0  0
   45.5240   34.0790   41.7060 C   0  0  0  0  0  0  0  0  0  0  0  0
   45.3310   33.5890   42.9550 N   0  0  0  0  0  0  0  0  0  0  0  0
   46.2970   33.5920   43.9050 C   0  0  0  0  0  0  0  0  0  0  0  0
   47.5070   34.1020   43.6090 N   0  0  0  0  0  0  0  0  0  0  0  0
   47.2050   30.7990   44.2830 Cl  0  0  0  0  0  0  0  0  0  0  0  0
   46.4230   31.7500   45.5150 C   0  0  0  0  0  0  0  0  0  0  0  0
   46.0350   33.0510   45.2400 C   0  0  0  0  0  0  0  0  0  0  0  0
   45.4130   33.8430   46.1870 C   0  0  0  0  0  0  0  0  0  0  0  0
   45.1510   33.3550   47.4660 C   0  0  0  0  0  0  0  0  0  0  0  0
   45.5490   32.0560   47.7090 C   0  0  0  0  0  0  0  0  0  0  0  0
   45.2350   31.3980   49.3200 Cl  0  0  0  0  0  0  0  0  0  0  0  0
   46.1720   31.2350   46.7930 C   0  0  0  0  0  0  0  0  0  0  0  0
   49.0120   35.1510   42.0160 C   0  0  0  0  0  0  0  0  0  0  0  0
   49.2030   36.2150   41.3630 O   0  0  0  0  0  0  0  0  0  0  0  0
   46.9845   35.0204   40.3928 H   0  0  0  0  0  0  0  0  0  0  0  0
   44.7149   34.0588   40.9611 H   0  0  0  0  0  0  0  0  0  0  0  0
   45.1211   34.8714   45.9279 H   0  0  0  0  0  0  0  0  0  0  0  0
   44.6572   33.9677   48.2347 H   0  0  0  0  0  0  0  0  0  0  0  0
   46.4628   30.2077   47.0577 H   0  0  0  0  0  0  0  0  0  0  0  0
   49.9082   34.5946   42.3278 H   0  0  0  0  0  0  0  0  0  0  0  0
  1  6  2  0
  2  3  2  0
  2  1  1  0
  3  4  1  0
  4  5  2  0
  5  9  1  0
  6  5  1  0
  7  8  1  0
  8 14  2  0
  9  8  1  0
  9 10  2  0
 10 11  1  0
 11 12  2  0
 12 13  1  0
 14 12  1  0
 15  1  1  0
 16 15  2  0
  2 17  1  0
  3 18  1  0
 10 19  1  0
 11 20  1  0
 14 21  1  0
 15 22  1  0
M  ISO  6  17  14  18  14  19  14  20  14  21  14  22   6
M  END
>  <minimizedAffinity>  (1) 
-4.58059168

>  <minimizedRMSD>  (1) 
1.8756392

$$$$
