
     RDKit          3D

 43 45  0  0  0  0  0  0  0  0999 V2000
   45.3446   34.6926   42.3511 C   0  0  0  0  0  0  0  0  0  0  0  0
   46.4707   35.2149   41.6528 C   0  0  0  0  0  0  0  0  0  0  0  0
   47.7324   34.9253   42.1999 C   0  0  0  0  0  0  0  0  0  0  0  0
   47.7761   34.1845   43.3295 N   0  0  0  0  0  0  0  0  0  0  0  0
   46.6773   33.7128   43.9531 C   0  0  0  0  0  0  0  0  0  0  0  0
   45.4521   33.9739   43.4525 N   0  0  0  0  0  0  0  0  0  0  0  0
   43.7373   34.1526   40.7264 C   0  0  0  0  0  0  0  0  0  0  0  0
   44.6452   33.3749   40.2732 O   0  0  0  0  0  0  0  0  0  0  0  0
   44.0230   34.9474   41.8539 N   0  0  0  0  0  0  0  0  0  0  0  0
   42.4933   34.1568   40.0524 N   0  0  0  0  0  0  0  0  0  0  0  0
   42.3918   33.5670   38.7029 C   0  0  0  0  0  0  0  0  0  0  0  0
   41.3175   34.3978   38.0737 C   0  0  0  0  0  0  0  0  0  0  0  0
   40.8139   35.3176   39.1493 C   0  0  0  0  0  0  0  0  0  0  0  0
   41.1943   34.6239   40.4335 C   0  0  1  0  0  0  0  0  0  0  0  0
   38.9037   33.4884   40.7536 C   0  0  0  0  0  0  0  0  0  0  0  0
   38.5000   34.4865   40.1133 O   0  0  0  0  0  0  0  0  0  0  0  0
   40.3546   33.4867   40.7837 N   0  0  0  0  0  0  0  0  0  0  0  0
   48.8658   35.4772   41.4577 C   0  0  0  0  0  0  0  0  0  0  0  0
   50.0020   34.7187   41.7635 F   0  0  0  0  0  0  0  0  0  0  0  0
   49.1196   36.7426   41.9848 F   0  0  0  0  0  0  0  0  0  0  0  0
   48.6967   35.4679   40.1131 F   0  0  0  0  0  0  0  0  0  0  0  0
   46.2483   35.7868   40.7649 H   0  0  0  0  0  0  0  0  0  0  0  0
   46.7958   33.1189   44.8659 H   0  0  0  0  0  0  0  0  0  0  0  0
   43.2948   35.6014   42.1965 H   0  0  0  0  0  0  0  0  0  0  0  0
   43.3382   33.5662   38.1650 H   0  0  0  0  0  0  0  0  0  0  0  0
   41.9653   32.5504   38.8746 H   0  0  0  0  0  0  0  0  0  0  0  0
   41.8000   34.9450   37.2242 H   0  0  0  0  0  0  0  0  0  0  0  0
   40.5112   33.8024   37.5995 H   0  0  0  0  0  0  0  0  0  0  0  0
   41.6135   36.1409   39.1298 H   0  0  0  0  0  0  0  0  0  0  0  0
   39.9349   35.8564   39.0174 H   0  0  0  0  0  0  0  0  0  0  0  0
   41.1954   35.3981   41.1929 H   0  0  0  0  0  0  0  0  0  0  0  0
   40.8531   32.5906   41.0841 H   0  0  0  0  0  0  0  0  0  0  0  0
   40.3393   32.2160   43.1269 Cl  0  0  0  0  0  0  0  0  0  0  0  0
   38.7693   31.7072   42.5307 C   0  0  0  0  0  0  0  0  0  0  0  0
   38.2377   32.3739   41.4464 C   0  0  0  0  0  0  0  0  0  0  0  0
   36.9983   31.9930   40.9538 C   0  0  0  0  0  0  0  0  0  0  0  0
   36.5587   32.4946   40.1095 H   0  0  0  0  0  0  0  0  0  0  0  0
   36.2677   30.9701   41.5034 C   0  0  0  0  0  0  0  0  0  0  0  0
   36.8029   30.3082   42.5854 C   0  0  0  0  0  0  0  0  0  0  0  0
   35.9622   28.9928   43.3627 Cl  0  0  0  0  0  0  0  0  0  0  0  0
   38.0414   30.6593   43.1085 C   0  0  0  0  0  0  0  0  0  0  0  0
   38.5314   30.1919   43.9534 H   0  0  0  0  0  0  0  0  0  0  0  0
   35.3042   30.6584   41.1365 H   0  0  0  0  0  0  0  0  0  0  0  0
  1  6  2  0
  2  3  2  0
  2  1  1  0
  3  4  1  0
  4  5  2  0
  6  5  1  0
  7  9  1  0
  8  7  2  0
  9  1  1  0
 10 14  1  0
 10  7  1  0
 11 10  1  0
 12 11  1  0
 12 13  1  0
 13 14  1  0
 14 17  1  0
 15 17  1  0
 16 15  2  0
 18 19  1  0
 18 20  1  0
 18  3  1  0
 21 18  1  0
  2 22  1  0
  5 23  1  0
  9 24  1  0
 11 25  1  0
 11 26  1  0
 12 27  1  0
 12 28  1  0
 13 29  1  0
 13 30  1  0
 14 31  1  1
 17 32  1  0
 33 34  1  0
 34 35  2  0
 35 36  1  0
 36 37  1  0
 36 38  2  0
 38 39  1  0
 39 40  1  0
 39 41  2  0
 41 42  1  0
 41 34  1  0
 38 43  1  0
 15 35  1  0
M  ISO  8  22  14  23  14  25  13  26  13  27  13  28  13  29  13  30  13
M  ISO  3  31  13  37  16  42  15
M  END
>  <DihAtoms>  (1) 
16,14,34,33

>  <DihDeg>  (1) 
-61.18448969010108

$$$$
