
     RDKit          3D

 43 45  0  0  1  0  0  0  0  0999 V2000
   45.4150   34.5410   42.2490 C   0  0  0  0  0  0  0  0  0  0  0  0
   46.5220   35.2420   41.6910 C   0  0  0  0  0  0  0  0  0  0  0  0
   47.7940   34.8630   42.1520 C   0  0  0  0  0  0  0  0  0  0  0  0
   47.8660   33.8780   43.0750 N   0  0  0  0  0  0  0  0  0  0  0  0
   46.7830   33.2460   43.5720 C   0  0  0  0  0  0  0  0  0  0  0  0
   45.5480   33.5860   43.1500 N   0  0  0  0  0  0  0  0  0  0  0  0
   43.8080   34.3580   40.5450 C   0  0  0  0  0  0  0  0  0  0  0  0
   44.7310   33.7320   39.9200 O   0  0  0  0  0  0  0  0  0  0  0  0
   44.0830   34.8710   41.8280 N   0  0  0  0  0  0  0  0  0  0  0  0
   42.5590   34.4890   39.8930 N   0  0  0  0  0  0  0  0  0  0  0  0
   42.4620   34.2310   38.4440 C   0  0  0  0  0  0  0  0  0  0  0  0
   41.3630   35.1590   38.0300 C   0  0  0  0  0  0  0  0  0  0  0  0
   40.8450   35.7860   39.2930 C   0  0  0  0  0  0  0  0  0  0  0  0
   41.2520   34.8190   40.3770 C   0  0  1  0  0  0  0  0  0  0  0  0
   39.8160   33.1060   41.6580 C   0  0  0  0  0  0  0  0  0  0  0  0
   39.8230   34.0000   42.5370 O   0  0  0  0  0  0  0  0  0  0  0  0
   40.4440   33.6110   40.4510 N   0  0  0  0  0  0  0  0  0  0  0  0
   41.6660   30.8940   42.6560 Cl  0  0  0  0  0  0  0  0  0  0  0  0
   40.0520   30.6260   42.0230 C   0  0  0  0  0  0  0  0  0  0  0  0
   39.3250   31.7210   41.6070 C   0  0  0  0  0  0  0  0  0  0  0  0
   38.0460   31.5370   41.1030 C   0  0  0  0  0  0  0  0  0  0  0  0
   37.4640   30.2990   40.9980 C   0  0  0  0  0  0  0  0  0  0  0  0
   38.1930   29.2090   41.4150 C   0  0  0  0  0  0  0  0  0  0  0  0
   37.5530   27.5890   41.3270 Cl  0  0  0  0  0  0  0  0  0  0  0  0
   39.4780   29.3510   41.9260 C   0  0  0  0  0  0  0  0  0  0  0  0
   48.9090   35.6040   41.5590 C   0  0  0  0  0  0  0  0  0  0  0  0
   50.1010   34.9640   41.9170 F   0  0  0  0  0  0  0  0  0  0  0  0
   48.9560   36.8450   42.1930 F   0  0  0  0  0  0  0  0  0  0  0  0
   48.8560   35.6820   40.2060 F   0  0  0  0  0  0  0  0  0  0  0  0
   46.3887   36.0357   40.9411 H   0  0  0  0  0  0  0  0  0  0  0  0
   46.9073   32.4518   44.3229 H   0  0  0  0  0  0  0  0  0  0  0  0
   43.4135   35.4137   42.3920 H   0  0  0  0  0  0  0  0  0  0  0  0
   43.4042   34.4751   37.9316 H   0  0  0  0  0  0  0  0  0  0  0  0
   42.2671   33.1773   38.1954 H   0  0  0  0  0  0  0  0  0  0  0  0
   41.7526   35.9328   37.3522 H   0  0  0  0  0  0  0  0  0  0  0  0
   40.5667   34.6226   37.4933 H   0  0  0  0  0  0  0  0  0  0  0  0
   41.3045   36.7720   39.4565 H   0  0  0  0  0  0  0  0  0  0  0  0
   39.7587   35.9565   39.2652 H   0  0  0  0  0  0  0  0  0  0  0  0
   41.1640   35.2412   41.3889 H   0  0  0  0  0  0  0  0  0  0  0  0
   40.3077   33.0746   39.5823 H   0  0  0  0  0  0  0  0  0  0  0  0
   37.4757   32.4184   40.7745 H   0  0  0  0  0  0  0  0  0  0  0  0
   36.4478   30.1816   40.5937 H   0  0  0  0  0  0  0  0  0  0  0  0
   40.0426   28.4655   42.2532 H   0  0  0  0  0  0  0  0  0  0  0  0
  1  6  2  0
  2  3  2  0
  2  1  1  0
  3  4  1  0
  4  5  2  0
  6  5  1  0
  7  9  1  0
  8  7  2  0
  9  1  1  0
 10 14  1  0
 10  7  1  0
 11 10  1  0
 12 11  1  0
 12 13  1  0
 13 14  1  0
 14 17  1  0
 15 16  2  0
 17 15  1  0
 19 18  1  0
 20 15  1  0
 20 19  2  0
 21 20  1  0
 22 21  2  0
 22 23  1  0
 23 25  2  0
 24 23  1  0
 25 19  1  0
 26 27  1  0
 26  3  1  0
 26 28  1  0
 29 26  1  0
  2 30  1  0
  5 31  1  0
  9 32  1  0
 11 33  1  0
 11 34  1  0
 12 35  1  0
 12 36  1  0
 13 37  1  0
 13 38  1  0
 14 39  1  1
 17 40  1  0
 21 41  1  0
 22 42  1  0
 25 43  1  0
M  ISO  8  30  14  31  14  33  13  34  13  35  13  36  13  37  13  38  13
M  ISO  4  39  13  41  14  42  14  43  14
M  END
>  <minimizedAffinity>  (1) 
-7.42232656

>  <minimizedRMSD>  (1) 
1.20627987

$$$$
