
     RDKit          3D

 27 28  0  0  0  0  0  0  0  0999 V2000
   45.4236   35.2007   43.0914 C   0  0  0  0  0  0  0  0  0  0  0  0
   46.4624   35.5551   42.2093 C   0  0  0  0  0  0  0  0  0  0  0  0
   47.6844   34.8821   42.3790 C   0  0  0  0  0  0  0  0  0  0  0  0
   47.7689   33.9562   43.3650 N   0  0  0  0  0  0  0  0  0  0  0  0
   46.7443   33.6494   44.1878 C   0  0  0  0  0  0  0  0  0  0  0  0
   45.5663   34.2768   44.0478 N   0  0  0  0  0  0  0  0  0  0  0  0
   43.4050   35.3525   41.8864 C   0  0  0  0  0  0  0  0  0  0  0  0
   43.9468   34.4713   41.1501 O   0  0  0  0  0  0  0  0  0  0  0  0
   44.1477   35.8188   43.0077 N   0  0  0  0  0  0  0  0  0  0  0  0
   48.7393   35.2661   41.4565 C   0  0  0  0  0  0  0  0  0  0  0  0
   49.8452   34.4438   41.6747 F   0  0  0  0  0  0  0  0  0  0  0  0
   49.1528   36.5499   41.7967 F   0  0  0  0  0  0  0  0  0  0  0  0
   48.3851   35.1492   40.1436 F   0  0  0  0  0  0  0  0  0  0  0  0
   46.2827   36.3092   41.4584 H   0  0  0  0  0  0  0  0  0  0  0  0
   46.8367   32.9059   44.9680 H   0  0  0  0  0  0  0  0  0  0  0  0
   43.7418   36.5333   43.6535 H   0  0  0  0  0  0  0  0  0  0  0  0
   41.5587   35.5178   44.2918 Cl  0  0  0  0  0  0  0  0  0  0  0  0
   41.1435   36.0029   42.6480 C   0  0  0  0  0  0  0  0  0  0  0  0
   42.0619   35.8876   41.6129 C   0  0  0  0  0  0  0  0  0  0  0  0
   41.6980   36.2823   40.3204 C   0  0  0  0  0  0  0  0  0  0  0  0
   42.4025   36.1984   39.5038 H   0  0  0  0  0  0  0  0  0  0  0  0
   40.4262   36.7873   40.0697 C   0  0  0  0  0  0  0  0  0  0  0  0
   39.5055   36.9077   41.0845 C   0  0  0  0  0  0  0  0  0  0  0  0
   37.9150   37.5407   40.7665 Cl  0  0  0  0  0  0  0  0  0  0  0  0
   39.8882   36.5085   42.3655 C   0  0  0  0  0  0  0  0  0  0  0  0
   39.1784   36.5968   43.1703 H   0  0  0  0  0  0  0  0  0  0  0  0
   40.1370   37.0965   39.0645 H   0  0  0  0  0  0  0  0  0  0  0  0
  1  6  2  0
  2  3  2  0
  2  1  1  0
  3  4  1  0
  4  5  2  0
  6  5  1  0
  7  9  1  0
  8  7  2  0
  9  1  1  0
 10 11  1  0
 10 12  1  0
 10  3  1  0
 13 10  1  0
  2 14  1  0
  5 15  1  0
  9 16  1  0
 17 18  1  0
 18 19  2  0
 19 20  1  0
 20 21  1  0
 20 22  2  0
 22 23  1  0
 23 24  1  0
 23 25  2  0
 25 26  1  0
 25 18  1  0
 22 27  1  0
  7 19  1  0
M  ISO  4  14  14  15  14  21  16  26  15
M  END
>  <DihAtoms>  (1) 
8,6,18,17

>  <DihDeg>  (1) 
-61.27911983266608

$$$$
