
     RDKit          3D

 36 38  0  0  0  0  0  0  0  0999 V2000
   45.8114   33.2323   46.3594 C   0  0  0  0  0  0  0  0  0  0  0  0
   45.1936   33.1363   47.6157 C   0  0  0  0  0  0  0  0  0  0  0  0
   45.7632   32.3150   48.5286 C   0  0  0  0  0  0  0  0  0  0  0  0
   46.9296   31.5955   48.2064 C   0  0  0  0  0  0  0  0  0  0  0  0
   47.2521   32.1113   46.4927 S   0  0  0  0  0  0  0  0  0  0  0  0
   44.3363   35.9189   44.2437 C   0  0  0  0  0  0  0  0  0  0  0  0
   44.4921   35.3348   42.9760 C   0  0  0  0  0  0  0  0  0  0  0  0
   45.0870   34.0683   42.8984 C   0  0  0  0  0  0  0  0  0  0  0  0
   45.4880   33.4591   44.0552 N   0  0  0  0  0  0  0  0  0  0  0  0
   45.3116   34.0743   45.2638 C   0  0  0  0  0  0  0  0  0  0  0  0
   44.7402   35.2924   45.3457 N   0  0  0  0  0  0  0  0  0  0  0  0
   47.7872   30.6567   48.8489 C   0  0  1  0  0  0  0  0  0  0  0  0
   48.1692   29.4958   47.9994 C   0  0  0  0  0  0  0  0  0  0  0  0
   49.5914   29.0529   48.1324 C   0  0  0  0  0  0  0  0  0  0  0  0
   50.0772   29.0332   49.5657 C   0  0  0  0  0  0  0  0  0  0  0  0
   49.6535   30.2404   50.3496 C   0  0  0  0  0  0  0  0  0  0  0  0
   49.0854   31.2928   49.3942 C   0  0  2  0  0  0  0  0  0  0  0  0
   44.2994   33.6839   47.8704 H   0  0  0  0  0  0  0  0  0  0  0  0
   45.4496   32.1067   49.5300 H   0  0  0  0  0  0  0  0  0  0  0  0
   43.8790   36.9019   44.3496 H   0  0  0  0  0  0  0  0  0  0  0  0
   44.1512   35.8755   42.1045 H   0  0  0  0  0  0  0  0  0  0  0  0
   45.2163   33.6030   41.9404 H   0  0  0  0  0  0  0  0  0  0  0  0
   47.2693   30.2742   49.7606 H   0  0  0  0  0  0  0  0  0  0  0  0
   48.0210   29.7703   46.9151 H   0  0  0  0  0  0  0  0  0  0  0  0
   47.4992   28.6171   48.1503 H   0  0  0  0  0  0  0  0  0  0  0  0
   50.2313   29.6506   47.4783 H   0  0  0  0  0  0  0  0  0  0  0  0
   49.6432   27.9926   47.7877 H   0  0  0  0  0  0  0  0  0  0  0  0
   51.1793   28.9101   49.5267 H   0  0  0  0  0  0  0  0  0  0  0  0
   49.6550   28.1324   50.0802 H   0  0  0  0  0  0  0  0  0  0  0  0
   50.5854   30.7225   50.7576 H   0  0  0  0  0  0  0  0  0  0  0  0
   48.9415   30.0230   51.1674 H   0  0  0  0  0  0  0  0  0  0  0  0
   49.8315   31.4033   48.5970 H   0  0  0  0  0  0  0  0  0  0  0  0
   48.8306   32.5992   50.0646 C   0  0  0  0  0  0  0  0  0  0  0  0
   48.2129   32.5115   50.9631 H   0  0  0  0  0  0  0  0  0  0  0  0
   49.8127   33.0785   50.2482 H   0  0  0  0  0  0  0  0  0  0  0  0
   48.2916   33.2625   49.3471 H   0  0  0  0  0  0  0  0  0  0  0  0
  1  5  1  0
  1  2  2  0
  2  3  1  0
  4  3  2  0
  4 12  1  0
  5  4  1  0
  6 11  2  0
  7  6  1  0
  8  7  2  0
  8  9  1  0
  9 10  2  0
 10 11  1  0
 10  1  1  0
 12 17  1  0
 13 14  1  0
 13 12  1  0
 14 15  1  0
 15 16  1  0
 17 16  1  0
  2 18  1  0
  3 19  1  0
  6 20  1  0
  7 21  1  0
  8 22  1  0
 12 23  1  1
 13 24  1  0
 13 25  1  0
 14 26  1  0
 14 27  1  0
 15 28  1  0
 15 29  1  0
 16 30  1  0
 16 31  1  0
 17 32  1  6
 33 34  1  0
 33 35  1  0
 33 36  1  0
 17 33  1  0
M  ISO  8  18  14  19  14  20  14  21  14  22  14  23  13  24  13  25  13
M  ISO  8  26  13  27  13  28  13  29  13  30  13  31  13  32  13  34   8
M  END
>  <DihAtoms>  (1) 
11,16,32,33

>  <DihDeg>  (1) 
79.49825641719673

$$$$
