
     RDKit          3D

 39 40  0  0  0  0  0  0  0  0999 V2000
   46.5746   34.9093   43.2482 O   0  0  0  0  0  0  0  0  0  0  0  0
   46.8039   33.9738   42.2305 C   0  0  1  0  0  0  0  0  0  0  0  0
   46.0755   34.4113   40.9561 C   0  0  0  0  0  0  0  0  0  0  0  0
   46.6928   33.4776   39.9474 C   0  0  0  0  0  0  0  0  0  0  0  0
   48.0679   33.1368   40.4717 C   0  0  0  0  0  0  0  0  0  0  0  0
   48.2194   33.9569   41.7454 C   0  0  1  0  0  0  0  0  0  0  0  0
   48.7620   35.3296   41.4596 C   0  0  0  0  0  0  0  0  0  0  0  0
   49.6534   35.7584   42.4179 O   0  0  0  0  0  0  0  0  0  0  0  0
   44.7281   35.3541   44.9935 O   0  0  0  0  0  0  0  0  0  0  0  0
   45.5785   34.2424   44.4123 P   0  0  1  0  0  0  0  0  0  0  0  0
   44.6050   33.0420   43.7183 O   0  0  0  0  0  0  0  0  0  0  0  0
   46.4723   33.4967   45.6057 O   0  0  0  0  0  0  0  0  0  0  0  0
   46.2322   32.1587   45.5726 C   0  0  0  0  0  0  0  0  0  0  0  0
   45.6455   31.9012   49.2375 C   0  0  0  0  0  0  0  0  0  0  0  0
   45.9811   32.4545   47.9906 C   0  0  0  0  0  0  0  0  0  0  0  0
   45.8848   31.6129   46.8961 C   0  0  0  0  0  0  0  0  0  0  0  0
   45.4773   30.3143   47.0762 N   0  0  0  0  0  0  0  0  0  0  0  0
   45.1625   29.8143   48.2870 C   0  0  0  0  0  0  0  0  0  0  0  0
   45.2470   30.6009   49.3505 N   0  0  0  0  0  0  0  0  0  0  0  0
   46.4487   32.9718   42.4614 H   0  0  0  0  0  0  0  0  0  0  0  0
   46.1647   35.4693   40.7374 H   0  0  0  0  0  0  0  0  0  0  0  0
   44.9832   34.1630   41.0355 H   0  0  0  0  0  0  0  0  0  0  0  0
   46.0594   32.5639   39.8025 H   0  0  0  0  0  0  0  0  0  0  0  0
   46.8044   33.9418   38.9495 H   0  0  0  0  0  0  0  0  0  0  0  0
   48.8854   33.3298   39.7670 H   0  0  0  0  0  0  0  0  0  0  0  0
   48.0415   32.0501   40.7557 H   0  0  0  0  0  0  0  0  0  0  0  0
   48.8300   33.3846   42.4718 H   0  0  0  0  0  0  0  0  0  0  0  0
   49.3508   35.2312   40.5117 H   0  0  0  0  0  0  0  0  0  0  0  0
   48.0132   36.1099   41.3228 H   0  0  0  0  0  0  0  0  0  0  0  0
   50.2767   34.9957   42.6136 H   0  0  0  0  0  0  0  0  0  0  0  0
   43.8786   33.4878   43.1943 H   0  0  0  0  0  0  0  0  0  0  0  0
   47.2060   31.6638   45.2870 H   0  0  0  0  0  0  0  0  0  0  0  0
   45.5043   31.7818   44.8603 H   0  0  0  0  0  0  0  0  0  0  0  0
   45.7069   32.5310   50.1333 H   0  0  0  0  0  0  0  0  0  0  0  0
   46.2940   33.4944   47.9418 H   0  0  0  0  0  0  0  0  0  0  0  0
   44.7270   28.3984   48.4209 C   0  0  0  0  0  0  0  0  0  0  0  0
   44.0373   28.2770   49.3062 H   0  0  0  0  0  0  0  0  0  0  0  0
   44.2933   27.9817   47.4866 H   0  0  0  0  0  0  0  0  0  0  0  0
   45.5827   27.7322   48.6597 H   0  0  0  0  0  0  0  0  0  0  0  0
 10  1  1  6
  2  1  1  0
  3  2  1  0
  4  5  1  0
  4  3  1  0
  5  6  1  0
  6  2  1  0
  7  6  1  0
  7  8  1  0
 10  9  2  0
 10 12  1  0
 11 10  1  0
 13 12  1  0
 13 16  1  0
 14 19  2  0
 15 14  1  0
 16 17  1  0
 16 15  2  0
 17 18  2  0
 18 19  1  0
  2 20  1  1
  3 21  1  0
  3 22  1  0
  4 23  1  0
  4 24  1  0
  5 25  1  0
  5 26  1  0
  6 27  1  1
  7 28  1  0
  7 29  1  0
  8 30  1  0
 11 31  1  0
 13 32  1  0
 13 33  1  0
 14 34  1  0
 15 35  1  0
 36 37  1  0
 36 38  1  0
 36 39  1  0
 18 36  1  0
M  ISO  8  20  13  21  13  22  13  23  13  24  13  25  13  26  13  27  13
M  ISO  8  28   8  29   8  30   3  31   3  32   8  33   8  34  14  35  14
M  ISO  1  37   8
M  END
>  <DihAtoms>  (1) 
16,17,35,36

>  <DihDeg>  (1) 
103.5733776276509

$$$$
