
     RDKit          3D

 26 27  0  0  1  0  0  0  0  0999 V2000
   47.0070   33.8110   42.4840 C   0  0  0  0  0  0  0  0  0  0  0  0
   44.6450   36.0340   44.3690 C   0  0  0  0  0  0  0  0  0  0  0  0
   45.4400   35.5180   43.3080 C   0  0  0  0  0  0  0  0  0  0  0  0
   46.1170   34.3550   43.5510 C   0  0  0  0  0  0  0  0  0  0  0  0
   46.0080   33.7450   44.7630 N   0  0  0  0  0  0  0  0  0  0  0  0
   45.2600   34.2420   45.7370 C   0  0  0  0  0  0  0  0  0  0  0  0
   44.5860   35.3790   45.5400 N   0  0  0  0  0  0  0  0  0  0  0  0
   46.8100   34.5990   41.2280 C   0  0  0  0  0  0  0  0  0  0  0  0
   48.2320   34.8900   40.7880 C   0  0  1  0  0  0  0  0  0  0  0  0
   48.9940   35.9250   41.4370 C   0  0  0  0  0  0  0  0  0  0  0  0
   49.3420   34.4170   41.4870 C   0  0  1  0  0  0  0  0  0  0  0  0
   50.1100   34.1380   42.6610 C   0  0  0  0  0  0  0  0  0  0  0  0
   48.0561   33.8881   42.8056 H   0  0  0  0  0  0  0  0  0  0  0  0
   46.7593   32.7552   42.2998 H   0  0  0  0  0  0  0  0  0  0  0  0
   44.0798   36.9675   44.2306 H   0  0  0  0  0  0  0  0  0  0  0  0
   45.5070   36.0308   42.3372 H   0  0  0  0  0  0  0  0  0  0  0  0
   45.1940   33.7211   46.7036 H   0  0  0  0  0  0  0  0  0  0  0  0
   46.2735   34.0092   40.4702 H   0  0  0  0  0  0  0  0  0  0  0  0
   46.2046   35.5059   41.3731 H   0  0  0  0  0  0  0  0  0  0  0  0
   47.9076   34.7329   39.7487 H   0  0  0  0  0  0  0  0  0  0  0  0
   49.6070   36.6241   40.8493 H   0  0  0  0  0  0  0  0  0  0  0  0
   48.8016   36.7295   42.1621 H   0  0  0  0  0  0  0  0  0  0  0  0
   49.7672   33.4344   41.2346 H   0  0  0  0  0  0  0  0  0  0  0  0
   49.5068   34.3571   43.5544 H   0  0  0  0  0  0  0  0  0  0  0  0
   50.4002   33.0770   42.6657 H   0  0  0  0  0  0  0  0  0  0  0  0
   51.0136   34.7653   42.6657 H   0  0  0  0  0  0  0  0  0  0  0  0
  1  4  1  0
  2  7  2  0
  3  4  2  0
  3  2  1  0
  4  5  1  0
  5  6  2  0
  7  6  1  0
  8  1  1  0
  9  8  1  0
  9 10  1  0
  9 11  1  0
 10 11  1  0
 11 12  1  0
  1 13  1  0
  1 14  1  0
  2 15  1  0
  3 16  1  0
  6 17  1  0
  8 18  1  0
  8 19  1  0
  9 20  1  6
 10 21  1  0
 10 22  1  0
 11 23  1  6
 12 24  1  0
 12 25  1  0
 12 26  1  0
M  ISO  8  13   8  14   8  15  14  16  14  17  14  18   8  19   8  20  13
M  ISO  6  21  13  22  13  23  13  24   8  25   8  26   8
M  END
>  <minimizedAffinity>  (1) 
-4.56592417

>  <minimizedRMSD>  (1) 
0.722734451

$$$$
