
     RDKit          3D

 33 35  0  0  0  0  0  0  0  0999 V2000
   46.9052   34.9267   42.1650 C   0  0  2  0  0  0  0  0  0  0  0  0
   46.3771   33.9243   41.1669 C   0  0  0  0  0  0  0  0  0  0  0  0
   47.5861   33.9242   40.2084 C   0  0  0  0  0  0  0  0  0  0  0  0
   48.7861   34.0846   41.0938 C   0  0  1  0  0  0  0  0  0  0  0  0
   48.2527   34.2876   42.4780 C   0  0  0  0  0  0  0  0  0  0  0  0
   44.4069   36.0637   44.7558 C   0  0  0  0  0  0  0  0  0  0  0  0
   45.1405   36.0609   43.5615 C   0  0  0  0  0  0  0  0  0  0  0  0
   46.0588   35.0207   43.3836 C   0  0  0  0  0  0  0  0  0  0  0  0
   46.2097   34.0565   44.3626 N   0  0  0  0  0  0  0  0  0  0  0  0
   45.4710   34.1135   45.4974 C   0  0  0  0  0  0  0  0  0  0  0  0
   44.5807   35.1043   45.6920 N   0  0  0  0  0  0  0  0  0  0  0  0
   49.6824   32.8845   41.1544 C   0  0  2  0  0  0  0  0  0  0  0  0
   49.5965   32.0141   42.3001 C   0  0  0  0  0  0  0  0  0  0  0  0
   50.8693   32.7913   41.9794 C   0  0  1  0  0  0  0  0  0  0  0  0
   47.0119   35.8885   41.6639 H   0  0  0  0  0  0  0  0  0  0  0  0
   46.3114   32.9137   41.6257 H   0  0  0  0  0  0  0  0  0  0  0  0
   45.4702   34.2401   40.6441 H   0  0  0  0  0  0  0  0  0  0  0  0
   47.5948   33.0236   39.5901 H   0  0  0  0  0  0  0  0  0  0  0  0
   47.4596   34.8643   39.6253 H   0  0  0  0  0  0  0  0  0  0  0  0
   49.3823   34.9717   40.8315 H   0  0  0  0  0  0  0  0  0  0  0  0
   47.8675   33.3779   42.9798 H   0  0  0  0  0  0  0  0  0  0  0  0
   48.8866   34.9188   43.1249 H   0  0  0  0  0  0  0  0  0  0  0  0
   43.6872   36.8846   44.8872 H   0  0  0  0  0  0  0  0  0  0  0  0
   45.0200   36.8168   42.7976 H   0  0  0  0  0  0  0  0  0  0  0  0
   45.6234   33.3361   46.2375 H   0  0  0  0  0  0  0  0  0  0  0  0
   49.7617   32.4108   40.1558 H   0  0  0  0  0  0  0  0  0  0  0  0
   49.6748   30.8975   42.0958 H   0  0  0  0  0  0  0  0  0  0  0  0
   49.4171   32.1417   43.3514 H   0  0  0  0  0  0  0  0  0  0  0  0
   51.1685   33.6783   42.5293 H   0  0  0  0  0  0  0  0  0  0  0  0
   52.0581   31.9760   41.4822 C   0  0  0  0  0  0  0  0  0  0  0  0
   52.5953   32.5085   40.6635 H   0  0  0  0  0  0  0  0  0  0  0  0
   52.7118   31.6399   42.2935 H   0  0  0  0  0  0  0  0  0  0  0  0
   51.5892   31.0687   41.0012 H   0  0  0  0  0  0  0  0  0  0  0  0
  1  5  1  0
  1  8  1  0
  2  1  1  0
  3  4  1  0
  3  2  1  0
  4 12  1  0
  4  5  1  0
  6 11  2  0
  7  6  1  0
  8  7  2  0
  8  9  1  0
  9 10  2  0
 10 11  1  0
 12 14  1  0
 12 13  1  0
 14 13  1  0
  1 15  1  6
  2 16  1  0
  2 17  1  0
  3 18  1  0
  3 19  1  0
  4 20  1  6
  5 21  1  0
  5 22  1  0
  6 23  1  0
  7 24  1  0
 10 25  1  0
 12 26  1  6
 13 27  1  0
 13 28  1  0
 14 29  1  1
 30 31  1  0
 30 32  1  0
 30 33  1  0
 14 30  1  0
M  ISO  8  15  13  16  13  17  13  18  13  19  13  20  13  21  13  22  13
M  ISO  8  23  14  24  14  25  14  26  13  27  13  28  13  29  13  31   8
M  END
>  <DihAtoms>  (1) 
11,13,29,30

>  <DihDeg>  (1) 
13.63086617874314

$$$$
