
     RDKit          3D

 26 28  0  0  1  0  0  0  0  0999 V2000
   48.7260   34.8360   42.6060 C   0  0  1  0  0  0  0  0  0  0  0  0
   49.2600   34.2710   41.3540 C   0  0  2  0  0  0  0  0  0  0  0  0
   49.0290   35.7090   41.4370 C   0  0  0  0  0  0  0  0  0  0  0  0
   47.0570   33.5910   43.9550 C   0  0  0  0  0  0  0  0  0  0  0  0
   47.3310   34.6220   43.0400 C   0  0  0  0  0  0  0  0  0  0  0  0
   46.2680   35.3950   42.5980 C   0  0  0  0  0  0  0  0  0  0  0  0
   45.0270   35.1120   43.0700 N   0  0  0  0  0  0  0  0  0  0  0  0
   44.7840   34.1260   43.9410 C   0  0  0  0  0  0  0  0  0  0  0  0
   45.8150   33.3520   44.3910 N   0  0  0  0  0  0  0  0  0  0  0  0
   48.4740   33.5420   40.3390 C   0  0  0  0  0  0  0  0  0  0  0  0
   48.0570   32.2510   40.3280 N   0  0  0  0  0  0  0  0  0  0  0  0
   47.3810   32.0000   39.1860 C   0  0  0  0  0  0  0  0  0  0  0  0
   47.3860   33.1530   38.4870 N   0  0  0  0  0  0  0  0  0  0  0  0
   48.0310   34.0870   39.1540 N   0  0  0  0  0  0  0  0  0  0  0  0
   46.7850   33.4110   37.1770 C   0  0  0  0  0  0  0  0  0  0  0  0
   49.0252   34.7906   43.6636 H   0  0  0  0  0  0  0  0  0  0  0  0
   50.0953   33.5767   41.1804 H   0  0  0  0  0  0  0  0  0  0  0  0
   49.8824   36.4020   41.4745 H   0  0  0  0  0  0  0  0  0  0  0  0
   48.4607   36.4412   40.8447 H   0  0  0  0  0  0  0  0  0  0  0  0
   47.8840   32.9652   44.3216 H   0  0  0  0  0  0  0  0  0  0  0  0
   46.4262   36.2162   41.8835 H   0  0  0  0  0  0  0  0  0  0  0  0
   43.7586   33.9397   44.2929 H   0  0  0  0  0  0  0  0  0  0  0  0
   46.9196   31.0474   38.8866 H   0  0  0  0  0  0  0  0  0  0  0  0
   45.7819   33.8416   37.3122 H   0  0  0  0  0  0  0  0  0  0  0  0
   47.4151   34.1179   36.6173 H   0  0  0  0  0  0  0  0  0  0  0  0
   46.7065   32.4673   36.6173 H   0  0  0  0  0  0  0  0  0  0  0  0
  1  5  1  0
  2  3  1  0
  2  1  1  0
  3  1  1  0
  4  9  2  0
  5  4  1  0
  6  5  2  0
  6  7  1  0
  7  8  2  0
  8  9  1  0
 10  2  1  0
 11 10  1  0
 12 11  2  0
 13 14  1  0
 13 12  1  0
 14 10  2  0
 15 13  1  0
  1 16  1  1
  2 17  1  1
  3 18  1  0
  3 19  1  0
  4 20  1  0
  6 21  1  0
  8 22  1  0
 12 23  1  0
 15 24  1  0
 15 25  1  0
 15 26  1  0
M  ISO  8  16  13  17  13  18  13  19  13  20  14  21  14  22  14  23  14
M  ISO  3  24   8  25   8  26   8
M  END
>  <minimizedAffinity>  (1) 
-3.8814981

>  <minimizedRMSD>  (1) 
0.876898825

$$$$
