
     RDKit          3D

 27 29  0  0  0  0  0  0  0  0999 V2000
   47.4599   31.6841   44.8217 C   0  0  0  0  0  0  0  0  0  0  0  0
   46.7875   32.8586   44.5372 C   0  0  0  0  0  0  0  0  0  0  0  0
   45.9203   33.4455   45.4200 C   0  0  0  0  0  0  0  0  0  0  0  0
   45.6791   32.8636   46.6693 C   0  0  0  0  0  0  0  0  0  0  0  0
   44.9241   33.1353   47.7594 N   0  0  0  0  0  0  0  0  0  0  0  0
   45.1110   32.1769   48.6896 C   0  0  0  0  0  0  0  0  0  0  0  0
   45.9930   31.3067   48.1608 N   0  0  0  0  0  0  0  0  0  0  0  0
   46.3593   31.6963   46.9293 C   0  0  0  0  0  0  0  0  0  0  0  0
   47.2446   31.0748   46.0581 C   0  0  0  0  0  0  0  0  0  0  0  0
   46.3843   33.8171   41.0238 C   0  0  0  0  0  0  0  0  0  0  0  0
   47.4183   34.7156   40.8235 C   0  0  0  0  0  0  0  0  0  0  0  0
   48.2580   34.9947   41.8973 C   0  0  0  0  0  0  0  0  0  0  0  0
   48.0310   34.3755   43.0995 N   0  0  0  0  0  0  0  0  0  0  0  0
   47.0048   33.5028   43.2462 C   0  0  0  0  0  0  0  0  0  0  0  0
   46.1671   33.2086   42.2181 N   0  0  0  0  0  0  0  0  0  0  0  0
   45.0497   34.9610   45.0634 S   0  0  0  0  0  0  0  0  0  0  0  0
   48.1445   31.2430   44.0953 H   0  0  0  0  0  0  0  0  0  0  0  0
   44.3029   33.9969   47.7980 H   0  0  0  0  0  0  0  0  0  0  0  0
   44.5698   32.2577   49.6264 H   0  0  0  0  0  0  0  0  0  0  0  0
   47.7443   30.1556   46.3333 H   0  0  0  0  0  0  0  0  0  0  0  0
   45.7092   33.5723   40.2159 H   0  0  0  0  0  0  0  0  0  0  0  0
   47.5637   35.1809   39.8613 H   0  0  0  0  0  0  0  0  0  0  0  0
   49.0785   35.6959   41.7719 H   0  0  0  0  0  0  0  0  0  0  0  0
   43.4634   34.6748   44.2607 C   0  0  0  0  0  0  0  0  0  0  0  0
   43.4899   34.7534   43.1582 H   0  0  0  0  0  0  0  0  0  0  0  0
   42.6381   35.2687   44.7030 H   0  0  0  0  0  0  0  0  0  0  0  0
   43.2023   33.5968   44.4737 H   0  0  0  0  0  0  0  0  0  0  0  0
  1  9  2  0
  2  1  1  0
  2  3  2  0
  3  4  1  0
  4  8  2  0
  4  5  1  0
  5  6  1  0
  7  6  2  0
  8  7  1  0
  9  8  1  0
 10 15  2  0
 11 10  1  0
 11 12  2  0
 12 13  1  0
 13 14  2  0
 14  2  1  0
 15 14  1  0
 16  3  1  0
  1 17  1  0
  5 18  1  0
  6 19  1  0
  9 20  1  0
 10 21  1  0
 11 22  1  0
 12 23  1  0
 24 25  1  0
 24 26  1  0
 24 27  1  0
 16 24  1  0
M  ISO  8  17  14  18   9  19  14  20  14  21  14  22  14  23  14  25   8
M  END
>  <DihAtoms>  (1) 
2,15,23,24

>  <DihDeg>  (1) 
23.87244762765016

$$$$
