
     RDKit          3D

 40 41  0  0  0  0  0  0  0  0999 V2000
   47.1691   34.1595   43.0864 N   0  0  0  0  0  0  0  0  0  0  0  0
   46.6592   35.3547   42.5250 C   0  0  0  0  0  0  0  0  0  0  0  0
   45.1808   35.5867   42.7362 C   0  0  0  0  0  0  0  0  0  0  0  0
   44.6486   35.0503   44.0408 C   0  0  0  0  0  0  0  0  0  0  0  0
   45.7490   34.4718   44.8985 C   0  0  0  0  0  0  0  0  0  0  0  0
   46.4134   33.3968   43.9600 C   0  0  2  0  0  0  0  0  0  0  0  0
   48.1515   33.5024   42.2682 C   0  0  0  0  0  0  0  0  0  0  0  0
   47.4536   32.6558   41.2596 C   0  0  0  0  0  0  0  0  0  0  0  0
   49.3339   32.2793   38.0290 C   0  0  0  0  0  0  0  0  0  0  0  0
   48.8109   32.0225   39.3098 C   0  0  0  0  0  0  0  0  0  0  0  0
   47.9952   32.9460   39.9083 C   0  0  0  0  0  0  0  0  0  0  0  0
   47.7297   34.0711   39.2321 N   0  0  0  0  0  0  0  0  0  0  0  0
   48.2268   34.3204   38.0095 C   0  0  0  0  0  0  0  0  0  0  0  0
   49.0299   33.4355   37.3944 N   0  0  0  0  0  0  0  0  0  0  0  0
   47.2057   32.6975   44.8565 O   0  0  0  0  0  0  0  0  0  0  0  0
   45.9957   30.5469   43.8631 O   0  0  0  0  0  0  0  0  0  0  0  0
   46.6643   31.1275   45.1177 P   0  0  2  0  0  0  0  0  0  0  0  0
   45.4017   31.2426   46.2680 O   0  0  0  0  0  0  0  0  0  0  0  0
   47.8369   30.1207   45.7340 O   0  0  0  0  0  0  0  0  0  0  0  0
   47.1557   36.1973   43.0669 H   0  0  0  0  0  0  0  0  0  0  0  0
   46.8707   35.5273   41.4695 H   0  0  0  0  0  0  0  0  0  0  0  0
   44.6757   35.0782   41.8740 H   0  0  0  0  0  0  0  0  0  0  0  0
   44.9854   36.6748   42.5952 H   0  0  0  0  0  0  0  0  0  0  0  0
   44.0662   35.8353   44.5270 H   0  0  0  0  0  0  0  0  0  0  0  0
   43.9454   34.2050   43.8249 H   0  0  0  0  0  0  0  0  0  0  0  0
   45.3172   33.9553   45.7604 H   0  0  0  0  0  0  0  0  0  0  0  0
   46.5149   35.2244   45.1290 H   0  0  0  0  0  0  0  0  0  0  0  0
   45.5902   32.7920   43.5165 H   0  0  0  0  0  0  0  0  0  0  0  0
   48.9102   32.9395   42.8765 H   0  0  0  0  0  0  0  0  0  0  0  0
   48.7319   34.3073   41.7664 H   0  0  0  0  0  0  0  0  0  0  0  0
   47.5863   31.6030   41.5068 H   0  0  0  0  0  0  0  0  0  0  0  0
   46.3535   32.8384   41.2562 H   0  0  0  0  0  0  0  0  0  0  0  0
   49.9853   31.5638   37.5278 H   0  0  0  0  0  0  0  0  0  0  0  0
   49.0975   31.0822   39.7501 H   0  0  0  0  0  0  0  0  0  0  0  0
   47.9489   35.2712   37.5414 H   0  0  0  0  0  0  0  0  0  0  0  0
   45.8338   31.4421   47.1469 H   0  0  0  0  0  0  0  0  0  0  0  0
   47.7736   28.8968   45.0731 C   0  0  0  0  0  0  0  0  0  0  0  0
   47.7804   29.0762   43.9776 H   0  0  0  0  0  0  0  0  0  0  0  0
   48.6054   28.2195   45.3561 H   0  0  0  0  0  0  0  0  0  0  0  0
   46.8341   28.4106   45.4224 H   0  0  0  0  0  0  0  0  0  0  0  0
  1  6  1  0
  2  3  1  0
  2  1  1  0
  3  4  1  0
  4  5  1  0
  6 15  1  0
  6  5  1  0
  7  1  1  0
  8  7  1  0
  9 10  2  0
 10 11  1  0
 11  8  1  0
 12 11  2  0
 13 12  1  0
 14 13  2  0
 14  9  1  0
 17 15  1  6
 16 17  2  0
 17 19  1  0
 17 18  1  0
  2 20  1  0
  2 21  1  0
  3 22  1  0
  3 23  1  0
  4 24  1  0
  4 25  1  0
  5 26  1  0
  5 27  1  0
  6 28  1  6
  7 29  1  0
  7 30  1  0
  8 31  1  0
  8 32  1  0
  9 33  1  0
 10 34  1  0
 13 35  1  0
 18 36  1  0
 37 38  1  0
 37 39  1  0
 37 40  1  0
 19 37  1  0
M  ISO  8  20  13  21  13  22  13  23  13  24  13  25  13  26  13  27  13
M  ISO  8  28  13  29   8  30   8  31   8  32   8  33  14  34  14  35  14
M  ISO  2  36   3  38   8
M  END
>  <DihAtoms>  (1) 
16,18,36,37

>  <DihDeg>  (1) 
-99.14876118117732

$$$$
