
     RDKit          3D

 22 22  0  0  0  0  0  0  0  0999 V2000
   47.0940   33.4690   42.8850 C   0  0  0  0  0  0  0  0  0  0  0  0
   45.2620   34.1140   46.0780 C   0  0  0  0  0  0  0  0  0  0  0  0
   46.1050   33.5150   45.1420 C   0  0  0  0  0  0  0  0  0  0  0  0
   46.2140   34.0790   43.8910 C   0  0  0  0  0  0  0  0  0  0  0  0
   45.4850   35.2170   43.6090 N   0  0  0  0  0  0  0  0  0  0  0  0
   44.6800   35.7690   44.5380 C   0  0  0  0  0  0  0  0  0  0  0  0
   44.5660   35.2310   45.7560 N   0  0  0  0  0  0  0  0  0  0  0  0
   48.3370   33.1880   43.4290 O   0  0  0  0  0  0  0  0  0  0  0  0
   50.4860   32.8450   41.9840 O   0  0  0  0  0  0  0  0  0  0  0  0
   49.4880   33.8720   42.3990 P   0  0  2  0  0  0  0  0  0  0  0  0
   50.1890   35.1690   43.2290 O   0  0  0  0  0  0  0  0  0  0  0  0
   48.6860   34.4290   41.0230 O   0  0  0  0  0  0  0  0  0  0  0  0
   48.9200   35.7860   40.7960 C   0  0  0  0  0  0  0  0  0  0  0  0
   47.2173   34.1657   42.0428 H   0  0  0  0  0  0  0  0  0  0  0  0
   46.6383   32.5296   42.5388 H   0  0  0  0  0  0  0  0  0  0  0  0
   45.1617   33.6773   47.0826 H   0  0  0  0  0  0  0  0  0  0  0  0
   46.6724   32.6083   45.3988 H   0  0  0  0  0  0  0  0  0  0  0  0
   44.1084   36.6756   44.2902 H   0  0  0  0  0  0  0  0  0  0  0  0
   50.1080   35.0192   44.2042 H   0  0  0  0  0  0  0  0  0  0  0  0
   49.0101   36.3088   41.7596 H   0  0  0  0  0  0  0  0  0  0  0  0
   49.8522   35.9068   40.2247 H   0  0  0  0  0  0  0  0  0  0  0  0
   48.0821   36.2120   40.2247 H   0  0  0  0  0  0  0  0  0  0  0  0
  1  8  1  0
  1  4  1  0
  3  2  2  0
  4  3  1  0
  5  4  2  0
  5  6  1  0
  6  7  2  0
  7  2  1  0
 10  9  2  0
 10 11  1  0
 10  8  1  0
 12 10  1  0
 13 12  1  0
  1 14  1  0
  1 15  1  0
  2 16  1  0
  3 17  1  0
  6 18  1  0
 11 19  1  0
 13 20  1  0
 13 21  1  0
 13 22  1  0
M  ISO  8  14   8  15   8  16  14  17  14  18  14  19   3  20   8  21   8
M  ISO  1  22   8
M  END
>  <minimizedAffinity>  (1) 
-4.21902752

>  <minimizedRMSD>  (1) 
0.508719921

$$$$
