
     RDKit          3D

 31 32  0  0  1  0  0  0  0  0999 V2000
   44.5310   35.7780   44.5540 C   0  0  0  0  0  0  0  0  0  0  0  0
   45.0410   35.8530   43.2430 C   0  0  0  0  0  0  0  0  0  0  0  0
   46.0680   34.9720   42.9180 C   0  0  0  0  0  0  0  0  0  0  0  0
   46.5200   34.1070   43.8470 N   0  0  0  0  0  0  0  0  0  0  0  0
   46.0200   34.0530   45.0860 C   0  0  0  0  0  0  0  0  0  0  0  0
   45.0160   34.8970   45.4400 N   0  0  0  0  0  0  0  0  0  0  0  0
   45.4090   32.6820   47.0960 C   0  0  1  0  0  0  0  0  0  0  0  0
   46.4780   33.1370   46.1460 C   0  0  1  0  0  0  0  0  0  0  0  0
   46.8440   31.7730   45.5330 C   0  0  0  0  0  0  0  0  0  0  0  0
   46.5890   30.8240   46.4670 O   0  0  0  0  0  0  0  0  0  0  0  0
   46.1070   31.4290   47.6290 C   0  0  0  0  0  0  0  0  0  0  0  0
   45.0700   33.5900   48.0550 O   0  0  0  0  0  0  0  0  0  0  0  0
   46.5620   35.0530   41.6270 O   0  0  0  0  0  0  0  0  0  0  0  0
   48.2400   33.0210   41.2590 O   0  0  0  0  0  0  0  0  0  0  0  0
   48.1620   34.5390   41.2800 P   0  0  1  0  0  0  0  0  0  0  0  0
   48.6190   35.2140   39.8250 O   0  0  0  0  0  0  0  0  0  0  0  0
   49.1250   35.1080   42.5630 O   0  0  0  0  0  0  0  0  0  0  0  0
   50.3230   34.4100   42.5990 C   0  0  0  0  0  0  0  0  0  0  0  0
   43.7190   36.4556   44.8564 H   0  0  0  0  0  0  0  0  0  0  0  0
   44.6464   36.5734   42.5113 H   0  0  0  0  0  0  0  0  0  0  0  0
   44.4187   32.5203   46.6453 H   0  0  0  0  0  0  0  0  0  0  0  0
   47.2754   33.7134   46.6378 H   0  0  0  0  0  0  0  0  0  0  0  0
   46.2353   31.5894   44.6353 H   0  0  0  0  0  0  0  0  0  0  0  0
   47.9039   31.7524   45.2396 H   0  0  0  0  0  0  0  0  0  0  0  0
   46.9305   31.6933   48.3087 H   0  0  0  0  0  0  0  0  0  0  0  0
   45.4427   30.7772   48.2153 H   0  0  0  0  0  0  0  0  0  0  0  0
   45.2176   33.1947   48.9506 H   0  0  0  0  0  0  0  0  0  0  0  0
   49.1659   36.0219   39.9933 H   0  0  0  0  0  0  0  0  0  0  0  0
   50.6164   34.2390   43.6453 H   0  0  0  0  0  0  0  0  0  0  0  0
   50.1992   33.4427   42.0901 H   0  0  0  0  0  0  0  0  0  0  0  0
   51.1035   34.9947   42.0901 H   0  0  0  0  0  0  0  0  0  0  0  0
  1  6  2  0
  2  1  1  0
  3  2  2  0
  3  4  1  0
  4  5  2  0
  5  6  1  0
  5  8  1  0
  7 11  1  0
  7 12  1  0
  8  7  1  0
  9  8  1  0
  9 10  1  0
 10 11  1  0
 13  3  1  0
 15 14  2  0
 15 13  1  0
 15 17  1  0
 16 15  1  0
 17 18  1  0
  1 19  1  0
  2 20  1  0
  7 21  1  6
  8 22  1  1
  9 23  1  0
  9 24  1  0
 11 25  1  0
 11 26  1  0
 12 27  1  0
 16 28  1  0
 18 29  1  0
 18 30  1  0
 18 31  1  0
M  ISO  8  19  14  20  14  21  13  22  13  23  13  24  13  25  13  26  13
M  ISO  5  27   3  28   3  29   8  30   8  31   8
M  END
>  <minimizedAffinity>  (1) 
-5.54648781

>  <minimizedRMSD>  (1) 
0.563952386

$$$$
