
     RDKit          3D

 37 38  0  0  0  0  0  0  0  0999 V2000
   43.8669   35.2343   41.2002 C   0  0  0  0  0  0  0  0  0  0  0  0
   43.9572   35.5767   42.4821 C   0  0  0  0  0  0  0  0  0  0  0  0
   45.2348   35.5346   43.3025 C   0  0  0  0  0  0  0  0  0  0  0  0
   45.0124   34.6516   44.3411 O   0  0  0  0  0  0  0  0  0  0  0  0
   45.6954   32.4881   42.9541 O   0  0  0  0  0  0  0  0  0  0  0  0
   45.9982   33.2923   44.1957 P   0  0  1  0  0  0  0  0  0  0  0  0
   47.6334   33.7639   44.0847 O   0  0  0  0  0  0  0  0  0  0  0  0
   45.8568   32.3189   45.5675 O   0  0  0  0  0  0  0  0  0  0  0  0
   46.2044   32.9940   46.7201 C   0  0  0  0  0  0  0  0  0  0  0  0
   47.0532   32.3125   47.7441 C   0  0  0  0  0  0  0  0  0  0  0  0
   45.5755   32.4801   47.9924 C   0  0  0  0  0  0  0  0  0  0  0  0
   42.6104   35.3386   40.6293 O   0  0  0  0  0  0  0  0  0  0  0  0
   41.4365   35.6672   41.2352 C   0  0  0  0  0  0  0  0  0  0  0  0
   40.2840   33.5324   41.5755 C   0  0  0  0  0  0  0  0  0  0  0  0
   40.3100   34.7469   40.8567 C   0  0  0  0  0  0  0  0  0  0  0  0
   39.3377   34.9466   39.9324 C   0  0  0  0  0  0  0  0  0  0  0  0
   38.4381   33.9891   39.7738 N   0  0  0  0  0  0  0  0  0  0  0  0
   38.4091   32.8494   40.4447 C   0  0  0  0  0  0  0  0  0  0  0  0
   39.3741   32.5708   41.4108 N   0  0  0  0  0  0  0  0  0  0  0  0
   44.7065   34.9006   40.6504 H   0  0  0  0  0  0  0  0  0  0  0  0
   43.2020   35.9345   43.1662 H   0  0  0  0  0  0  0  0  0  0  0  0
   46.0414   35.1220   42.6519 H   0  0  0  0  0  0  0  0  0  0  0  0
   45.5367   36.5321   43.6438 H   0  0  0  0  0  0  0  0  0  0  0  0
   48.0824   33.6507   44.9383 H   0  0  0  0  0  0  0  0  0  0  0  0
   46.3228   34.0761   46.6110 H   0  0  0  0  0  0  0  0  0  0  0  0
   47.6647   32.9869   48.3750 H   0  0  0  0  0  0  0  0  0  0  0  0
   47.4443   31.3243   47.4734 H   0  0  0  0  0  0  0  0  0  0  0  0
   45.0060   31.5274   47.9743 H   0  0  0  0  0  0  0  0  0  0  0  0
   45.2106   33.2014   48.7457 H   0  0  0  0  0  0  0  0  0  0  0  0
   41.4045   35.6605   42.3470 H   0  0  0  0  0  0  0  0  0  0  0  0
   41.1105   36.6811   40.9218 H   0  0  0  0  0  0  0  0  0  0  0  0
   41.0304   33.3095   42.3272 H   0  0  0  0  0  0  0  0  0  0  0  0
   39.4010   35.8897   39.4096 H   0  0  0  0  0  0  0  0  0  0  0  0
   37.3433   31.8683   40.1635 C   0  0  0  0  0  0  0  0  0  0  0  0
   36.4919   32.0576   40.8571 H   0  0  0  0  0  0  0  0  0  0  0  0
   37.7242   30.8305   40.2703 H   0  0  0  0  0  0  0  0  0  0  0  0
   37.0213   31.9589   39.0933 H   0  0  0  0  0  0  0  0  0  0  0  0
  1  2  2  0
  2  3  1  0
  3  4  1  0
  6  5  2  0
  6  4  1  1
  6  8  1  0
  7  6  1  0
  8  9  1  0
  9 10  1  0
  9 11  1  0
 10 11  1  0
 12  1  1  0
 12 13  1  0
 15 13  1  0
 15 14  2  0
 16 15  1  0
 17 16  2  0
 17 18  1  0
 18 19  2  0
 19 14  1  0
  1 20  1  0
  2 21  1  0
  3 22  1  0
  3 23  1  0
  7 24  1  0
  9 25  1  0
 10 26  1  0
 10 27  1  0
 11 28  1  0
 11 29  1  0
 13 30  1  0
 13 31  1  0
 14 32  1  0
 16 33  1  0
 34 35  1  0
 34 36  1  0
 34 37  1  0
 18 34  1  0
M  ISO  8  22   8  23   8  24   3  25  13  26  13  27  13  28  13  29  13
M  ISO  5  30   8  31   8  32  14  33  14  35   8
M  END
>  <DihAtoms>  (1) 
16,17,33,34

>  <DihDeg>  (1) 
-91.9790188456698

$$$$
