
     RDKit          3D

 35 36  0  0  0  0  0  0  0  0999 V2000
   46.1859   32.0876   45.4341 C   0  0  0  0  0  0  0  0  0  0  0  0
   45.7737   32.0272   49.1331 C   0  0  0  0  0  0  0  0  0  0  0  0
   46.0653   32.4921   47.8414 C   0  0  0  0  0  0  0  0  0  0  0  0
   45.8825   31.6084   46.7920 C   0  0  0  0  0  0  0  0  0  0  0  0
   45.4352   30.3513   47.0646 N   0  0  0  0  0  0  0  0  0  0  0  0
   45.1627   29.9297   48.3116 C   0  0  0  0  0  0  0  0  0  0  0  0
   45.3341   30.7705   49.3343 N   0  0  0  0  0  0  0  0  0  0  0  0
   46.5493   33.4002   45.4071 O   0  0  0  0  0  0  0  0  0  0  0  0
   44.6326   35.1768   45.2584 O   0  0  0  0  0  0  0  0  0  0  0  0
   45.4474   34.2338   44.4194 P   0  0  2  0  0  0  0  0  0  0  0  0
   44.5213   33.0529   43.6703 O   0  0  0  0  0  0  0  0  0  0  0  0
   46.3446   35.1257   43.3055 O   0  0  0  0  0  0  0  0  0  0  0  0
   47.1027   34.2479   42.5301 C   0  0  1  0  0  0  0  0  0  0  0  0
   46.9565   34.4798   41.0505 C   0  0  0  0  0  0  0  0  0  0  0  0
   48.1189   33.6642   40.5106 C   0  0  0  0  0  0  0  0  0  0  0  0
   49.1664   33.6632   41.5931 C   0  0  0  0  0  0  0  0  0  0  0  0
   48.5938   34.5426   42.7068 C   0  0  1  0  0  0  0  0  0  0  0  0
   47.1041   31.5073   45.1206 H   0  0  0  0  0  0  0  0  0  0  0  0
   45.4007   31.7469   44.7792 H   0  0  0  0  0  0  0  0  0  0  0  0
   45.9317   32.7539   49.9239 H   0  0  0  0  0  0  0  0  0  0  0  0
   46.4184   33.5061   47.6944 H   0  0  0  0  0  0  0  0  0  0  0  0
   44.8095   28.9250   48.4889 H   0  0  0  0  0  0  0  0  0  0  0  0
   44.3251   33.2260   42.7253 H   0  0  0  0  0  0  0  0  0  0  0  0
   46.9706   33.1984   42.7869 H   0  0  0  0  0  0  0  0  0  0  0  0
   45.9903   34.0146   40.7458 H   0  0  0  0  0  0  0  0  0  0  0  0
   47.0175   35.5328   40.7859 H   0  0  0  0  0  0  0  0  0  0  0  0
   47.8074   32.6303   40.2327 H   0  0  0  0  0  0  0  0  0  0  0  0
   48.5179   34.2089   39.6314 H   0  0  0  0  0  0  0  0  0  0  0  0
   49.2219   32.6361   42.0130 H   0  0  0  0  0  0  0  0  0  0  0  0
   50.1492   34.0582   41.2669 H   0  0  0  0  0  0  0  0  0  0  0  0
   48.8501   34.1329   43.7011 H   0  0  0  0  0  0  0  0  0  0  0  0
   48.9337   35.9905   42.5276 C   0  0  0  0  0  0  0  0  0  0  0  0
   49.6479   36.3452   43.2991 H   0  0  0  0  0  0  0  0  0  0  0  0
   47.9897   36.5724   42.7194 H   0  0  0  0  0  0  0  0  0  0  0  0
   49.3083   36.2476   41.5217 H   0  0  0  0  0  0  0  0  0  0  0  0
  1  4  1  0
  2  7  2  0
  3  2  1  0
  4  5  1  0
  4  3  2  0
  5  6  2  0
  6  7  1  0
  8  1  1  0
 10  9  2  0
 10  8  1  1
 11 10  1  0
 12 10  1  0
 13 17  1  0
 13 12  1  0
 14 13  1  0
 15 14  1  0
 15 16  1  0
 16 17  1  0
  1 18  1  0
  1 19  1  0
  2 20  1  0
  3 21  1  0
  6 22  1  0
 11 23  1  0
 13 24  1  6
 14 25  1  0
 14 26  1  0
 15 27  1  0
 15 28  1  0
 16 29  1  0
 16 30  1  0
 17 31  1  1
 32 33  1  0
 32 34  1  0
 32 35  1  0
 17 32  1  0
M  ISO  8  18   8  19   8  20  14  21  14  22  14  23   3  24  13  25  13
M  ISO  7  26  13  27  13  28  13  29  13  30  13  31  13  33   8
M  END
>  <DihAtoms>  (1) 
12,16,31,32

>  <DihDeg>  (1) 
-118.13177801548665

$$$$
