
     RDKit          3D

 28 29  0  0  0  0  0  0  0  0999 V2000
   45.8110   32.6460   47.6200 O   0  0  0  0  0  0  0  0  0  0  0  0
   44.9360   34.9740   45.0670 C   0  0  0  0  0  0  0  0  0  0  0  0
   45.8140   34.6650   44.0210 C   0  0  0  0  0  0  0  0  0  0  0  0
   46.7200   33.6190   44.2360 C   0  0  0  0  0  0  0  0  0  0  0  0
   46.7060   32.9680   45.4200 N   0  0  0  0  0  0  0  0  0  0  0  0
   45.8390   33.3030   46.4010 C   0  0  0  0  0  0  0  0  0  0  0  0
   44.9650   34.2930   46.2270 N   0  0  0  0  0  0  0  0  0  0  0  0
   45.7260   35.4620   42.7620 C   0  0  0  0  0  0  0  0  0  0  0  0
   45.2790   36.7100   43.1630 F   0  0  0  0  0  0  0  0  0  0  0  0
   44.7550   34.8290   41.9710 F   0  0  0  0  0  0  0  0  0  0  0  0
   46.9430   35.4780   42.1630 F   0  0  0  0  0  0  0  0  0  0  0  0
   45.4560   31.2860   47.7090 C   0  0  0  0  0  0  0  0  0  0  0  0
   46.7030   30.5180   47.8940 C   0  0  0  0  0  0  0  0  0  0  0  0
   47.0900   29.3150   47.3650 C   0  0  0  0  0  0  0  0  0  0  0  0
   48.3170   28.7990   47.6910 C   0  0  0  0  0  0  0  0  0  0  0  0
   49.1400   29.4360   48.5100 N   0  0  0  0  0  0  0  0  0  0  0  0
   48.7670   30.6160   49.0320 C   0  0  0  0  0  0  0  0  0  0  0  0
   47.5590   31.1660   48.7360 N   0  0  0  0  0  0  0  0  0  0  0  0
   49.7210   31.3240   49.9620 C   0  0  0  0  0  0  0  0  0  0  0  0
   44.2087   35.7891   44.9379 H   0  0  0  0  0  0  0  0  0  0  0  0
   47.4343   33.3309   43.4506 H   0  0  0  0  0  0  0  0  0  0  0  0
   44.7855   31.1273   48.5664 H   0  0  0  0  0  0  0  0  0  0  0  0
   44.9295   30.9606   46.7996 H   0  0  0  0  0  0  0  0  0  0  0  0
   46.4214   28.7678   46.6842 H   0  0  0  0  0  0  0  0  0  0  0  0
   48.6253   27.8338   47.2627 H   0  0  0  0  0  0  0  0  0  0  0  0
   49.4395   31.1151   51.0046 H   0  0  0  0  0  0  0  0  0  0  0  0
   50.7448   30.9653   49.7797 H   0  0  0  0  0  0  0  0  0  0  0  0
   49.6743   32.4078   49.7797 H   0  0  0  0  0  0  0  0  0  0  0  0
  1 12  1  0
  2  7  2  0
  3  4  2  0
  3  2  1  0
  4  5  1  0
  5  6  2  0
  6  1  1  0
  7  6  1  0
  8  9  1  0
  8  3  1  0
 10  8  1  0
 11  8  1  0
 12 13  1  0
 13 18  2  0
 14 15  2  0
 14 13  1  0
 15 16  1  0
 16 17  2  0
 17 19  1  0
 18 17  1  0
  2 20  1  0
  4 21  1  0
 12 22  1  0
 12 23  1  0
 14 24  1  0
 15 25  1  0
 19 26  1  0
 19 27  1  0
 19 28  1  0
M  ISO  8  20  14  21  14  22   8  23   8  24  14  25  14  26   8  27   8
M  ISO  1  28   8
M  END
>  <minimizedAffinity>  (1) 
-5.02894878

>  <minimizedRMSD>  (1) 
0.35872224

$$$$
