
     RDKit          3D

 28 29  0  0  0  0  0  0  0  0999 V2000
   46.2856   35.1777   42.4968 C   0  0  0  0  0  0  0  0  0  0  0  0
   46.8290   34.1045   43.2337 C   0  0  0  0  0  0  0  0  0  0  0  0
   46.3707   33.7948   44.5573 C   0  0  0  0  0  0  0  0  0  0  0  0
   45.3930   34.5872   45.0761 N   0  0  0  0  0  0  0  0  0  0  0  0
   44.9097   35.5985   44.3513 C   0  0  0  0  0  0  0  0  0  0  0  0
   45.3405   35.8776   43.1132 N   0  0  0  0  0  0  0  0  0  0  0  0
   47.8383   33.4095   42.5521 O   0  0  0  0  0  0  0  0  0  0  0  0
   50.3870   33.1827   41.8617 O   0  0  0  0  0  0  0  0  0  0  0  0
   49.3195   34.1834   42.1701 P   0  0  0  0  0  0  0  0  0  0  0  0
   49.1218   35.1413   40.8057 O   0  0  0  0  0  0  0  0  0  0  0  0
   49.8488   35.2409   43.3720 O   0  0  0  0  0  0  0  0  0  0  0  0
   46.9255   32.9436   44.8995 H   0  0  0  0  0  0  0  0  0  0  0  0
   44.1467   36.1137   44.9333 H   0  0  0  0  0  0  0  0  0  0  0  0
   49.9304   35.7206   40.7200 H   0  0  0  0  0  0  0  0  0  0  0  0
   50.2784   34.7989   44.1309 H   0  0  0  0  0  0  0  0  0  0  0  0
   45.4014   33.8043   40.3531 O   0  0  0  0  0  0  0  0  0  0  0  0
   46.4877   34.6686   40.0656 C   0  0  2  0  0  0  0  0  0  0  0  0
   46.4555   35.7327   41.1352 C   0  0  1  0  0  0  0  0  0  0  0  0
   45.0683   36.3039   40.6027 C   0  0  2  0  0  0  0  0  0  0  0  0
   44.7622   37.1435   41.2240 H   0  0  0  0  0  0  0  0  0  0  0  0
   45.5294   36.6603   39.3371 O   0  0  0  0  0  0  0  0  0  0  0  0
   46.0310   35.4523   38.8547 C   0  0  1  0  0  0  0  0  0  0  0  0
   46.8752   35.6425   38.1485 H   0  0  0  0  0  0  0  0  0  0  0  0
   45.8021   32.8999   40.5275 H   0  0  0  0  0  0  0  0  0  0  0  0
   47.4096   34.1206   39.9540 H   0  0  0  0  0  0  0  0  0  0  0  0
   47.0025   36.6374   41.0154 H   0  0  0  0  0  0  0  0  0  0  0  0
   44.3646   35.4748   40.5003 H   0  0  0  0  0  0  0  0  0  0  0  0
   45.1764   34.9881   38.3183 H   0  0  0  0  0  0  0  0  0  0  0  0
  1  6  1  0
  1  2  2  0
  2  3  1  0
  3  4  2  0
  5  4  1  0
  6  5  2  0
  7  2  1  0
  8  9  2  0
  9  7  1  0
  9 11  1  0
 10  9  1  0
  3 12  1  0
  5 13  1  0
 10 14  1  0
 11 15  1  0
 16 17  1  0
 17 18  1  0
 18 19  1  0
 19 20  1  1
 19 21  1  0
 21 22  1  0
 22 23  1  6
 22 17  1  0
 16 24  1  0
 17 25  1  6
 18 26  1  1
 19 27  1  0
 22 28  1  0
  1 18  1  0
M  ISO  6  12  14  13  14  14   3  15   3  20  15  23  16
M  END
>  <DihAtoms>  (1) 
5,0,17,16

>  <DihDeg>  (1) 
-117.79682527433197

$$$$
