
     RDKit          3D

 48 52  0  0  1  0  0  0  0  0999 V2000
   47.6290   34.2310   43.0260 N   0  0  0  0  0  0  0  0  0  0  0  0
   49.0030   33.7540   42.8300 C   0  0  0  0  0  0  0  0  0  0  0  0
   49.5890   35.0430   42.2890 C   0  0  0  0  0  0  0  0  0  0  0  0
   48.6130   35.3460   41.1820 C   0  0  0  0  0  0  0  0  0  0  0  0
   47.2730   34.9990   41.8030 C   0  0  1  0  0  0  0  0  0  0  0  0
   46.4810   34.0880   41.0000 C   0  0  0  0  0  0  0  0  0  0  0  0
   47.0400   33.0180   40.3840 N   0  0  0  0  0  0  0  0  0  0  0  0
   46.3710   32.1320   39.6190 C   0  0  0  0  0  0  0  0  0  0  0  0
   45.0520   32.3120   39.4440 N   0  0  0  0  0  0  0  0  0  0  0  0
   44.4520   33.3450   40.0240 C   0  0  0  0  0  0  0  0  0  0  0  0
   43.0890   33.4770   39.8090 C   0  0  0  0  0  0  0  0  0  0  0  0
   42.4690   34.5590   40.4190 C   0  0  0  0  0  0  0  0  0  0  0  0
   43.1010   35.5090   41.2180 C   0  0  0  0  0  0  0  0  0  0  0  0
   44.4560   35.2940   41.3730 C   0  0  0  0  0  0  0  0  0  0  0  0
   45.1320   34.2670   40.8160 C   0  0  0  0  0  0  0  0  0  0  0  0
   44.9670   34.7340   45.5610 C   0  0  0  0  0  0  0  0  0  0  0  0
   45.8000   35.0070   44.4880 C   0  0  0  0  0  0  0  0  0  0  0  0
   46.7360   34.0640   44.0960 C   0  0  0  0  0  0  0  0  0  0  0  0
   46.7980   32.8990   44.7920 N   0  0  0  0  0  0  0  0  0  0  0  0
   45.9760   32.6350   45.8470 C   0  0  0  0  0  0  0  0  0  0  0  0
   45.0660   33.5570   46.2230 N   0  0  0  0  0  0  0  0  0  0  0  0
   45.6160   31.3980   47.9880 C   0  0  1  0  0  0  0  0  0  0  0  0
   46.1130   31.3200   46.5620 C   0  0  2  0  0  0  0  0  0  0  0  0
   47.5600   30.9460   46.7990 C   0  0  0  0  0  0  0  0  0  0  0  0
   47.8950   31.3030   48.0710 O   0  0  0  0  0  0  0  0  0  0  0  0
   46.8490   31.9430   48.6700 C   0  0  0  0  0  0  0  0  0  0  0  0
   44.5110   32.2200   48.1380 O   0  0  0  0  0  0  0  0  0  0  0  0
   49.4762   33.4431   43.7731 H   0  0  0  0  0  0  0  0  0  0  0  0
   49.1223   32.8624   42.1968 H   0  0  0  0  0  0  0  0  0  0  0  0
   49.5976   35.8363   43.0510 H   0  0  0  0  0  0  0  0  0  0  0  0
   50.6383   34.9695   41.9672 H   0  0  0  0  0  0  0  0  0  0  0  0
   48.8122   34.7226   40.2979 H   0  0  0  0  0  0  0  0  0  0  0  0
   48.6697   36.3856   40.8270 H   0  0  0  0  0  0  0  0  0  0  0  0
   46.6921   35.9222   41.9451 H   0  0  0  0  0  0  0  0  0  0  0  0
   46.8921   31.2840   39.1506 H   0  0  0  0  0  0  0  0  0  0  0  0
   42.5285   32.7625   39.1882 H   0  0  0  0  0  0  0  0  0  0  0  0
   41.3872   34.6760   40.2578 H   0  0  0  0  0  0  0  0  0  0  0  0
   42.5696   36.3526   41.6826 H   0  0  0  0  0  0  0  0  0  0  0  0
   45.0219   36.0065   41.9911 H   0  0  0  0  0  0  0  0  0  0  0  0
   44.2208   35.4779   45.8769 H   0  0  0  0  0  0  0  0  0  0  0  0
   45.7188   35.9642   43.9521 H   0  0  0  0  0  0  0  0  0  0  0  0
   45.2489   30.4436   48.3934 H   0  0  0  0  0  0  0  0  0  0  0  0
   45.5600   30.6197   45.9188 H   0  0  0  0  0  0  0  0  0  0  0  0
   47.6887   29.8610   46.6718 H   0  0  0  0  0  0  0  0  0  0  0  0
   48.2074   31.4666   46.0780 H   0  0  0  0  0  0  0  0  0  0  0  0
   46.9245   33.0303   48.5214 H   0  0  0  0  0  0  0  0  0  0  0  0
   46.8289   31.7747   49.7569 H   0  0  0  0  0  0  0  0  0  0  0  0
   44.3289   32.3555   49.1016 H   0  0  0  0  0  0  0  0  0  0  0  0
  1 18  1  0
  2  1  1  0
  3  2  1  0
  4  5  1  0
  4  3  1  0
  5  1  1  0
  6  5  1  0
  7  6  2  0
  8  7  1  0
  9  8  2  0
  9 10  1  0
 10 15  2  0
 11 10  1  0
 11 12  2  0
 12 13  1  0
 13 14  2  0
 15  6  1  0
 15 14  1  0
 16 21  2  0
 17 16  1  0
 18 17  2  0
 18 19  1  0
 19 20  2  0
 20 21  1  0
 22 27  1  0
 22 26  1  0
 23 20  1  0
 23 24  1  0
 23 22  1  0
 24 25  1  0
 25 26  1  0
  2 28  1  0
  2 29  1  0
  3 30  1  0
  3 31  1  0
  4 32  1  0
  4 33  1  0
  5 34  1  1
  8 35  1  0
 11 36  1  0
 12 37  1  0
 13 38  1  0
 14 39  1  0
 16 40  1  0
 17 41  1  0
 22 42  1  1
 23 43  1  6
 24 44  1  0
 24 45  1  0
 26 46  1  0
 26 47  1  0
 27 48  1  0
M  ISO  8  28  13  29  13  30  13  31  13  32  13  33  13  34  13  35  14
M  ISO  8  36  14  37  14  38  14  39  14  40  14  41  14  42  13  43  13
M  ISO  5  44  13  45  13  46  13  47  13  48   3
M  END
>  <minimizedAffinity>  (1) 
-6.80609369

>  <minimizedRMSD>  (1) 
1.36053884

$$$$
