
     RDKit          3D

 48 50  0  0  0  0  0  0  0  0999 V2000
   46.5736   34.9098   43.2489 O   0  0  0  0  0  0  0  0  0  0  0  0
   46.8046   33.9758   42.2308 C   0  0  1  0  0  0  0  0  0  0  0  0
   46.0760   34.4113   40.9555 C   0  0  0  0  0  0  0  0  0  0  0  0
   46.6975   33.4652   39.9531 C   0  0  0  0  0  0  0  0  0  0  0  0
   48.0708   33.1410   40.4724 C   0  0  0  0  0  0  0  0  0  0  0  0
   48.2191   33.9632   41.7439 C   0  0  1  0  0  0  0  0  0  0  0  0
   48.7591   35.3372   41.4604 C   0  0  0  0  0  0  0  0  0  0  0  0
   49.6547   35.7589   42.4184 O   0  0  0  0  0  0  0  0  0  0  0  0
   44.7243   35.3513   44.9929 O   0  0  0  0  0  0  0  0  0  0  0  0
   45.5770   34.2422   44.4124 P   0  0  1  0  0  0  0  0  0  0  0  0
   44.6055   33.0408   43.7174 O   0  0  0  0  0  0  0  0  0  0  0  0
   46.4718   33.4934   45.6028 O   0  0  0  0  0  0  0  0  0  0  0  0
   46.2299   32.1577   45.5711 C   0  0  0  0  0  0  0  0  0  0  0  0
   45.6588   31.8992   49.2371 C   0  0  0  0  0  0  0  0  0  0  0  0
   45.9936   32.4521   47.9900 C   0  0  0  0  0  0  0  0  0  0  0  0
   45.8816   31.6033   46.8906 C   0  0  0  0  0  0  0  0  0  0  0  0
   45.4655   30.3191   47.0761 N   0  0  0  0  0  0  0  0  0  0  0  0
   45.1516   29.8197   48.2896 C   0  0  0  0  0  0  0  0  0  0  0  0
   45.2489   30.6047   49.3534 N   0  0  0  0  0  0  0  0  0  0  0  0
   46.4512   32.9734   42.4601 H   0  0  0  0  0  0  0  0  0  0  0  0
   46.1795   35.4663   40.7265 H   0  0  0  0  0  0  0  0  0  0  0  0
   44.9839   34.1912   41.0761 H   0  0  0  0  0  0  0  0  0  0  0  0
   46.1039   32.5166   40.0363 H   0  0  0  0  0  0  0  0  0  0  0  0
   46.6707   33.8362   38.9262 H   0  0  0  0  0  0  0  0  0  0  0  0
   48.8879   33.4712   39.7979 H   0  0  0  0  0  0  0  0  0  0  0  0
   48.2180   32.0582   40.6721 H   0  0  0  0  0  0  0  0  0  0  0  0
   48.8766   33.3856   42.4407 H   0  0  0  0  0  0  0  0  0  0  0  0
   48.0010   36.1260   41.3654 H   0  0  0  0  0  0  0  0  0  0  0  0
   49.3242   35.2829   40.4840 H   0  0  0  0  0  0  0  0  0  0  0  0
   50.3446   35.0480   42.5295 H   0  0  0  0  0  0  0  0  0  0  0  0
   43.6652   33.3730   43.6859 H   0  0  0  0  0  0  0  0  0  0  0  0
   45.4945   31.7795   44.8661 H   0  0  0  0  0  0  0  0  0  0  0  0
   47.2005   31.6660   45.2906 H   0  0  0  0  0  0  0  0  0  0  0  0
   45.7385   32.5413   50.1061 H   0  0  0  0  0  0  0  0  0  0  0  0
   46.3103   33.4845   47.9737 H   0  0  0  0  0  0  0  0  0  0  0  0
   43.3260   28.0803   46.5829 O   0  0  0  0  0  0  0  0  0  0  0  0
   43.2664   28.2080   47.9662 C   0  0  2  0  0  0  0  0  0  0  0  0
   44.7084   28.4315   48.4414 C   0  0  2  0  0  0  0  0  0  0  0  0
   44.6170   27.9338   49.8419 C   0  0  1  0  0  0  0  0  0  0  0  0
   45.6063   27.4602   50.0898 H   0  0  0  0  0  0  0  0  0  0  0  0
   43.6539   26.9376   49.8780 O   0  0  0  0  0  0  0  0  0  0  0  0
   43.0224   26.8663   48.6561 C   0  0  2  0  0  0  0  0  0  0  0  0
   43.4783   26.1127   47.9546 H   0  0  0  0  0  0  0  0  0  0  0  0
   44.2154   27.7394   46.3187 H   0  0  0  0  0  0  0  0  0  0  0  0
   42.5876   28.9974   48.2959 H   0  0  0  0  0  0  0  0  0  0  0  0
   45.3244   27.7095   47.8669 H   0  0  0  0  0  0  0  0  0  0  0  0
   44.4656   28.7006   50.6085 H   0  0  0  0  0  0  0  0  0  0  0  0
   41.9605   26.6258   48.7286 H   0  0  0  0  0  0  0  0  0  0  0  0
 10  1  1  6
  2  1  1  0
  3  2  1  0
  4  5  1  0
  4  3  1  0
  5  6  1  0
  6  2  1  0
  7  6  1  0
  7  8  1  0
 10  9  2  0
 10 12  1  0
 11 10  1  0
 13 12  1  0
 13 16  1  0
 14 19  2  0
 15 14  1  0
 16 17  1  0
 16 15  2  0
 17 18  2  0
 18 19  1  0
  2 20  1  1
  3 21  1  0
  3 22  1  0
  4 23  1  0
  4 24  1  0
  5 25  1  0
  5 26  1  0
  6 27  1  1
  7 28  1  0
  7 29  1  0
  8 30  1  0
 11 31  1  0
 13 32  1  0
 13 33  1  0
 14 34  1  0
 15 35  1  0
 36 37  1  0
 37 38  1  0
 38 39  1  0
 39 40  1  1
 39 41  1  0
 41 42  1  0
 42 43  1  6
 42 37  1  0
 36 44  1  0
 37 45  1  6
 38 46  1  6
 39 47  1  0
 42 48  1  0
 18 38  1  0
M  ISO  8  20  13  21  13  22  13  23  13  24  13  25  13  26  13  27  13
M  ISO  8  28   8  29   8  30   3  31   3  32   8  33   8  34  14  35  14
M  ISO  2  40  15  43  16
M  END
>  <DihAtoms>  (1) 
16,17,37,36

>  <DihDeg>  (1) 
-119.82990965996578

$$$$
