
     RDKit          3D

 35 37  0  0  1  0  0  0  0  0999 V2000
   44.6150   35.7290   43.1420 C   0  0  0  0  0  0  0  0  0  0  0  0
   44.3400   34.7350   42.2020 C   0  0  0  0  0  0  0  0  0  0  0  0
   44.6620   33.4440   42.5510 C   0  0  0  0  0  0  0  0  0  0  0  0
   45.2160   33.2120   43.7590 N   0  0  0  0  0  0  0  0  0  0  0  0
   45.4680   34.2000   44.6440 C   0  0  0  0  0  0  0  0  0  0  0  0
   45.1710   35.4920   44.3520 N   0  0  0  0  0  0  0  0  0  0  0  0
   44.9980   33.1910   46.8600 C   0  0  1  0  0  0  0  0  0  0  0  0
   46.0860   33.7020   45.9180 C   0  0  1  0  0  0  0  0  0  0  0  0
   46.8950   32.4590   45.7130 C   0  0  0  0  0  0  0  0  0  0  0  0
   46.9440   31.9130   46.9920 O   0  0  0  0  0  0  0  0  0  0  0  0
   45.7500   32.1490   47.6210 C   0  0  0  0  0  0  0  0  0  0  0  0
   44.5490   34.2320   47.6690 O   0  0  0  0  0  0  0  0  0  0  0  0
   43.7370   35.1800   40.9470 C   0  0  0  0  0  0  0  0  0  0  0  0
   42.3650   34.6890   40.8810 N   0  0  0  0  0  0  0  0  0  0  0  0
   41.4190   35.2720   41.6340 C   0  0  0  0  0  0  0  0  0  0  0  0
   40.1260   34.7720   41.5400 C   0  0  0  0  0  0  0  0  0  0  0  0
   39.8360   33.7160   40.6990 C   0  0  0  0  0  0  0  0  0  0  0  0
   38.6530   33.2950   40.6430 O   0  0  0  0  0  0  0  0  0  0  0  0
   40.8260   33.1650   39.9600 N   0  0  0  0  0  0  0  0  0  0  0  0
   42.0840   33.6530   40.0540 C   0  0  0  0  0  0  0  0  0  0  0  0
   42.9630   33.0920   39.3360 O   0  0  0  0  0  0  0  0  0  0  0  0
   44.3644   36.7683   42.8832 H   0  0  0  0  0  0  0  0  0  0  0  0
   44.4707   32.6134   41.8557 H   0  0  0  0  0  0  0  0  0  0  0  0
   44.0895   32.8002   46.3785 H   0  0  0  0  0  0  0  0  0  0  0  0
   46.6795   34.5489   46.2930 H   0  0  0  0  0  0  0  0  0  0  0  0
   46.3998   31.7749   45.0081 H   0  0  0  0  0  0  0  0  0  0  0  0
   47.8884   32.6504   45.2812 H   0  0  0  0  0  0  0  0  0  0  0  0
   45.9364   32.5031   48.6456 H   0  0  0  0  0  0  0  0  0  0  0  0
   45.1612   31.2207   47.6617 H   0  0  0  0  0  0  0  0  0  0  0  0
   44.6573   33.9808   48.6205 H   0  0  0  0  0  0  0  0  0  0  0  0
   43.7380   36.2792   40.9064 H   0  0  0  0  0  0  0  0  0  0  0  0
   44.3142   34.7876   40.0968 H   0  0  0  0  0  0  0  0  0  0  0  0
   41.6584   36.1138   42.3004 H   0  0  0  0  0  0  0  0  0  0  0  0
   39.3239   35.2228   42.1428 H   0  0  0  0  0  0  0  0  0  0  0  0
   40.6227   32.3772   39.3284 H   0  0  0  0  0  0  0  0  0  0  0  0
  1  6  2  0
  2  3  2  0
  2  1  1  0
  3  4  1  0
  4  5  2  0
  6  5  1  0
  7 11  1  0
  7 12  1  0
  8  5  1  0
  8  7  1  0
  9  8  1  0
  9 10  1  0
 10 11  1  0
 13  2  1  0
 14 13  1  0
 14 15  1  0
 16 15  2  0
 17 16  1  0
 18 17  2  0
 19 20  1  0
 19 17  1  0
 20 14  1  0
 21 20  2  0
  1 22  1  0
  3 23  1  0
  7 24  1  6
  8 25  1  1
  9 26  1  0
  9 27  1  0
 11 28  1  0
 11 29  1  0
 12 30  1  0
 13 31  1  0
 13 32  1  0
 15 33  1  0
 16 34  1  0
 19 35  1  0
M  ISO  8  22  14  23  14  24  13  25  13  26  13  27  13  28  13  29  13
M  ISO  6  30   3  31   8  32   8  33  14  34  14  35   9
M  END
>  <minimizedAffinity>  (1) 
-5.68273401

>  <minimizedRMSD>  (1) 
0.661385

$$$$
