
     RDKit          3D

 32 34  0  0  0  0  0  0  0  0999 V2000
   45.6826   34.7938   44.0756 C   0  0  0  0  0  0  0  0  0  0  0  0
   46.6240   35.0481   43.0700 C   0  0  0  0  0  0  0  0  0  0  0  0
   47.6389   34.1093   42.9587 C   0  0  0  0  0  0  0  0  0  0  0  0
   47.6791   33.0314   43.7895 N   0  0  0  0  0  0  0  0  0  0  0  0
   46.7308   32.8398   44.7516 C   0  0  0  0  0  0  0  0  0  0  0  0
   45.7233   33.7376   44.8890 N   0  0  0  0  0  0  0  0  0  0  0  0
   48.7211   34.2672   41.9281 C   0  0  1  0  0  0  0  0  0  0  0  0
   48.9903   35.6932   41.5563 C   0  0  0  0  0  0  0  0  0  0  0  0
   50.0018   34.8663   42.3306 C   0  0  2  0  0  0  0  0  0  0  0  0
   44.5617   35.7768   44.2245 C   0  0  0  0  0  0  0  0  0  0  0  0
   44.0294   35.6083   45.4952 F   0  0  0  0  0  0  0  0  0  0  0  0
   43.5896   35.4502   43.3177 F   0  0  0  0  0  0  0  0  0  0  0  0
   45.0054   37.0700   44.1154 F   0  0  0  0  0  0  0  0  0  0  0  0
   46.5535   35.8992   42.4446 H   0  0  0  0  0  0  0  0  0  0  0  0
   46.8233   31.9648   45.3755 H   0  0  0  0  0  0  0  0  0  0  0  0
   48.7017   33.4348   41.2205 H   0  0  0  0  0  0  0  0  0  0  0  0
   48.4560   36.5079   42.1373 H   0  0  0  0  0  0  0  0  0  0  0  0
   49.1474   36.0040   40.5304 H   0  0  0  0  0  0  0  0  0  0  0  0
   50.0505   35.1287   43.4333 H   0  0  0  0  0  0  0  0  0  0  0  0
   51.4338   36.2512   40.1627 O   0  0  0  0  0  0  0  0  0  0  0  0
   52.0457   35.2526   40.8453 C   0  0  2  0  0  0  0  0  0  0  0  0
   51.3174   34.4650   41.8284 C   0  0  1  0  0  0  0  0  0  0  0  0
   52.3115   34.2413   42.9814 C   0  0  2  0  0  0  0  0  0  0  0  0
   52.3175   33.2103   43.3372 H   0  0  0  0  0  0  0  0  0  0  0  0
   53.5184   34.5683   42.4179 O   0  0  0  0  0  0  0  0  0  0  0  0
   53.2603   35.7281   41.6651 C   0  0  2  0  0  0  0  0  0  0  0  0
   53.0117   36.5265   42.3641 H   0  0  0  0  0  0  0  0  0  0  0  0
   51.9524   37.1085   40.2732 H   0  0  0  0  0  0  0  0  0  0  0  0
   52.5353   34.5950   40.0602 H   0  0  0  0  0  0  0  0  0  0  0  0
   51.1895   33.4202   41.4083 H   0  0  0  0  0  0  0  0  0  0  0  0
   52.0382   34.8801   43.8478 H   0  0  0  0  0  0  0  0  0  0  0  0
   54.1001   35.9648   41.0002 H   0  0  0  0  0  0  0  0  0  0  0  0
  1 10  1  0
  1  6  2  0
  2  1  1  0
  3  2  2  0
  3  4  1  0
  4  5  2  0
  5  6  1  0
  7  9  1  0
  7  3  1  0
  8  7  1  0
  8  9  1  0
 10 11  1  0
 12 10  1  0
 13 10  1  0
  2 14  1  0
  5 15  1  0
  7 16  1  6
  8 17  1  0
  8 18  1  0
  9 19  1  1
 20 21  1  0
 21 22  1  0
 22 23  1  0
 23 24  1  1
 23 25  1  0
 25 26  1  0
 26 27  1  1
 26 21  1  0
 20 28  1  0
 21 29  1  6
 22 30  1  6
 23 31  1  0
 26 32  1  0
  9 22  1  0
M  ISO  8  14  14  15  14  16  13  17  13  18  13  19  13  24  15  27  16
M  END
>  <DihAtoms>  (1) 
6,8,21,20

>  <DihDeg>  (1) 
58.732169702366086

$$$$
