
     RDKit          3D

 52 54  0  0  0  0  0  0  0  0999 V2000
   47.1434   34.1530   43.0681 N   0  0  0  0  0  0  0  0  0  0  0  0
   46.6542   35.3576   42.5155 C   0  0  0  0  0  0  0  0  0  0  0  0
   45.1621   35.5730   42.7177 C   0  0  0  0  0  0  0  0  0  0  0  0
   44.6456   35.0473   44.0363 C   0  0  0  0  0  0  0  0  0  0  0  0
   45.7658   34.4904   44.8949 C   0  0  0  0  0  0  0  0  0  0  0  0
   46.4233   33.3961   43.9584 C   0  0  2  0  0  0  0  0  0  0  0  0
   48.1531   33.5036   42.2699 C   0  0  0  0  0  0  0  0  0  0  0  0
   47.4702   32.6521   41.2641 C   0  0  0  0  0  0  0  0  0  0  0  0
   49.3387   32.2787   38.0306 C   0  0  0  0  0  0  0  0  0  0  0  0
   48.8192   32.0232   39.3160 C   0  0  0  0  0  0  0  0  0  0  0  0
   48.0022   32.9466   39.9125 C   0  0  0  0  0  0  0  0  0  0  0  0
   47.7404   34.0556   39.2296 N   0  0  0  0  0  0  0  0  0  0  0  0
   48.2227   34.3141   38.0133 C   0  0  0  0  0  0  0  0  0  0  0  0
   49.0329   33.4256   37.3924 N   0  0  0  0  0  0  0  0  0  0  0  0
   47.2089   32.7184   44.8730 O   0  0  0  0  0  0  0  0  0  0  0  0
   46.0366   30.5402   43.8782 O   0  0  0  0  0  0  0  0  0  0  0  0
   46.6787   31.1397   45.1267 P   0  0  2  0  0  0  0  0  0  0  0  0
   45.4054   31.2662   46.2708 O   0  0  0  0  0  0  0  0  0  0  0  0
   47.8558   30.1489   45.7785 O   0  0  0  0  0  0  0  0  0  0  0  0
   47.7425   28.8969   45.2097 C   0  0  0  0  0  0  0  0  0  0  0  0
   46.8391   35.5103   41.4492 H   0  0  0  0  0  0  0  0  0  0  0  0
   47.1625   36.1998   43.0333 H   0  0  0  0  0  0  0  0  0  0  0  0
   44.9649   36.6559   42.5786 H   0  0  0  0  0  0  0  0  0  0  0  0
   44.6495   35.0502   41.8751 H   0  0  0  0  0  0  0  0  0  0  0  0
   43.9068   34.2448   43.8782 H   0  0  0  0  0  0  0  0  0  0  0  0
   44.1451   35.8388   44.6254 H   0  0  0  0  0  0  0  0  0  0  0  0
   46.5269   35.2255   45.1509 H   0  0  0  0  0  0  0  0  0  0  0  0
   45.2957   33.9603   45.7378 H   0  0  0  0  0  0  0  0  0  0  0  0
   45.5936   32.7781   43.5606 H   0  0  0  0  0  0  0  0  0  0  0  0
   48.7028   32.8058   42.9666 H   0  0  0  0  0  0  0  0  0  0  0  0
   48.8567   34.2240   41.8386 H   0  0  0  0  0  0  0  0  0  0  0  0
   47.5133   31.5598   41.4649 H   0  0  0  0  0  0  0  0  0  0  0  0
   46.3701   32.8767   41.2004 H   0  0  0  0  0  0  0  0  0  0  0  0
   49.9776   31.4841   37.6422 H   0  0  0  0  0  0  0  0  0  0  0  0
   49.0535   31.1083   39.8439 H   0  0  0  0  0  0  0  0  0  0  0  0
   48.0035   35.2256   37.4596 H   0  0  0  0  0  0  0  0  0  0  0  0
   45.7473   31.0703   47.1787 H   0  0  0  0  0  0  0  0  0  0  0  0
   48.0425   28.9752   44.1276 H   0  0  0  0  0  0  0  0  0  0  0  0
   46.7650   28.4260   45.2698 H   0  0  0  0  0  0  0  0  0  0  0  0
   48.4216   27.5553   49.2626 O   0  0  0  0  0  0  0  0  0  0  0  0
   48.9999   27.2212   48.0397 C   0  0  2  0  0  0  0  0  0  0  0  0
   49.1607   28.4735   47.2272 C   0  0  1  0  0  0  0  0  0  0  0  0
   48.5570   29.3324   47.5805 H   0  0  0  0  0  0  0  0  0  0  0  0
   48.8371   28.0182   45.8320 C   0  0  1  0  0  0  0  0  0  0  0  0
   48.4562   26.7050   45.8847 O   0  0  0  0  0  0  0  0  0  0  0  0
   48.0466   26.4208   47.1774 C   0  0  1  0  0  0  0  0  0  0  0  0
   48.1337   25.3247   47.3728 H   0  0  0  0  0  0  0  0  0  0  0  0
   47.8047   28.3348   49.0996 H   0  0  0  0  0  0  0  0  0  0  0  0
   49.9454   26.6657   48.1601 H   0  0  0  0  0  0  0  0  0  0  0  0
   50.2351   28.7931   47.3357 H   0  0  0  0  0  0  0  0  0  0  0  0
   49.7862   28.0720   45.2452 H   0  0  0  0  0  0  0  0  0  0  0  0
   47.0009   26.7727   47.2824 H   0  0  0  0  0  0  0  0  0  0  0  0
  1  6  1  0
  2  3  1  0
  2  1  1  0
  3  4  1  0
  4  5  1  0
  6 15  1  0
  6  5  1  0
  7  1  1  0
  8  7  1  0
  9 10  2  0
 10 11  1  0
 11  8  1  0
 12 11  2  0
 13 12  1  0
 14 13  2  0
 14  9  1  0
 17 15  1  6
 17 16  2  0
 17 19  1  0
 17 18  1  0
 20 19  1  0
  2 21  1  0
  2 22  1  0
  3 23  1  0
  3 24  1  0
  4 25  1  0
  4 26  1  0
  5 27  1  0
  5 28  1  0
  6 29  1  6
  7 30  1  0
  7 31  1  0
  8 32  1  0
  8 33  1  0
  9 34  1  0
 10 35  1  0
 13 36  1  0
 18 37  1  0
 20 38  1  0
 20 39  1  0
 40 41  1  0
 41 42  1  0
 42 43  1  1
 42 44  1  0
 44 45  1  0
 45 46  1  0
 46 47  1  1
 46 41  1  0
 40 48  1  0
 41 49  1  1
 42 50  1  0
 44 51  1  6
 46 52  1  0
 20 44  1  0
M  ISO  8  21  13  22  13  23  13  24  13  25  13  26  13  27  13  28  13
M  ISO  8  29  13  30   8  31   8  32   8  33   8  34  14  35  14  36  14
M  ISO  5  37   3  38   8  39   8  43   8  47  16
M  END
>  <DihAtoms>  (1) 
18,19,43,41

>  <DihDeg>  (1) 
179.16230576797594

$$$$
