
     RDKit          3D

 29 31  0  0  0  0  0  0  0  0999 V2000
   44.6271   35.9327   44.3382 C   0  0  0  0  0  0  0  0  0  0  0  0
   45.3432   35.9271   43.1290 C   0  0  0  0  0  0  0  0  0  0  0  0
   46.2751   34.8924   43.0044 C   0  0  0  0  0  0  0  0  0  0  0  0
   46.4343   33.9796   44.0202 N   0  0  0  0  0  0  0  0  0  0  0  0
   45.7079   34.0429   45.1641 C   0  0  0  0  0  0  0  0  0  0  0  0
   44.8060   35.0264   45.3109 N   0  0  0  0  0  0  0  0  0  0  0  0
   47.0928   34.7591   41.7499 C   0  0  0  0  0  0  0  0  0  0  0  0
   48.4083   35.5038   41.8355 C   0  0  0  0  0  0  0  0  0  0  0  0
   48.3022   33.9499   41.8058 C   0  0  0  0  0  0  0  0  0  0  0  0
   43.8803   36.7131   44.5081 H   0  0  0  0  0  0  0  0  0  0  0  0
   45.1965   36.6490   42.3601 H   0  0  0  0  0  0  0  0  0  0  0  0
   46.5122   34.8790   40.8157 H   0  0  0  0  0  0  0  0  0  0  0  0
   48.7371   35.9623   40.8808 H   0  0  0  0  0  0  0  0  0  0  0  0
   48.7044   35.9834   42.7713 H   0  0  0  0  0  0  0  0  0  0  0  0
   48.5817   33.5004   42.8024 H   0  0  0  0  0  0  0  0  0  0  0  0
   48.7500   33.4586   40.9207 H   0  0  0  0  0  0  0  0  0  0  0  0
   45.3218   34.5578   47.7140 O   0  0  0  0  0  0  0  0  0  0  0  0
   46.1357   33.4718   47.5177 C   0  0  2  0  0  0  0  0  0  0  0  0
   46.0662   32.9462   46.0994 C   0  0  1  0  0  0  0  0  0  0  0  0
   44.9246   31.9444   46.2127 C   0  0  2  0  0  0  0  0  0  0  0  0
   45.2559   30.9557   45.8567 H   0  0  0  0  0  0  0  0  0  0  0  0
   44.5592   31.8810   47.5413 O   0  0  0  0  0  0  0  0  0  0  0  0
   45.6465   32.2471   48.2981 C   0  0  1  0  0  0  0  0  0  0  0  0
   46.3961   31.4468   48.2155 H   0  0  0  0  0  0  0  0  0  0  0  0
   44.9504   34.5993   48.6473 H   0  0  0  0  0  0  0  0  0  0  0  0
   47.1597   33.6653   47.8507 H   0  0  0  0  0  0  0  0  0  0  0  0
   47.0252   32.4549   45.8124 H   0  0  0  0  0  0  0  0  0  0  0  0
   44.0350   32.3220   45.6489 H   0  0  0  0  0  0  0  0  0  0  0  0
   45.3555   32.5127   49.3204 H   0  0  0  0  0  0  0  0  0  0  0  0
  1  6  2  0
  2  1  1  0
  3  2  2  0
  3  4  1  0
  4  5  2  0
  5  6  1  0
  7  8  1  0
  7  9  1  0
  7  3  1  0
  8  9  1  0
  1 10  1  0
  2 11  1  0
  7 12  1  0
  8 13  1  0
  8 14  1  0
  9 15  1  0
  9 16  1  0
 17 18  1  0
 18 19  1  0
 19 20  1  0
 20 21  1  6
 20 22  1  0
 22 23  1  0
 23 24  1  1
 23 18  1  0
 17 25  1  0
 18 26  1  1
 19 27  1  6
 20 28  1  0
 23 29  1  0
  5 19  1  0
M  ISO  8  10  14  11  14  12  13  13  13  14  13  15  13  16  13  21  15
M  ISO  1  24  16
M  END
>  <DihAtoms>  (1) 
3,4,18,17

>  <DihDeg>  (1) 
-56.40420176508991

$$$$
