
     RDKit          3D

 43 46  0  0  1  0  0  0  0  0999 V2000
   45.3910   34.1590   40.7250 C   0  0  0  0  0  0  0  0  0  0  0  0
   44.0310   34.3440   40.5760 C   0  0  0  0  0  0  0  0  0  0  0  0
   43.7100   33.6580   39.4610 N   0  0  0  0  0  0  0  0  0  0  0  0
   44.8240   33.0850   38.9610 C   0  0  0  0  0  0  0  0  0  0  0  0
   45.8600   33.3980   39.7460 N   0  0  0  0  0  0  0  0  0  0  0  0
   44.9960   32.2700   37.8110 N   0  0  0  0  0  0  0  0  0  0  0  0
   42.4110   33.5150   38.8370 C   0  0  0  0  0  0  0  0  0  0  0  0
   39.3410   33.7300   40.9220 C   0  0  1  0  0  0  0  0  0  0  0  0
   40.5150   32.9150   40.3610 C   0  0  0  0  0  0  0  0  0  0  0  0
   41.2980   34.0330   39.7040 C   0  0  2  0  0  0  0  0  0  0  0  0
   40.3070   34.6710   39.0050 O   0  0  0  0  0  0  0  0  0  0  0  0
   39.3780   34.9410   40.0290 C   0  0  0  0  0  0  0  0  0  0  0  0
   38.1580   33.0300   40.8770 O   0  0  0  0  0  0  0  0  0  0  0  0
   46.2420   34.7280   41.8280 C   0  0  0  0  0  0  0  0  0  0  0  0
   47.4470   35.0860   41.6840 O   0  0  0  0  0  0  0  0  0  0  0  0
   45.0760   36.1080   43.4860 C   0  0  0  0  0  0  0  0  0  0  0  0
   45.7080   34.8930   43.1270 C   0  0  0  0  0  0  0  0  0  0  0  0
   45.7360   33.9510   44.1370 C   0  0  0  0  0  0  0  0  0  0  0  0
   45.2180   34.1550   45.3470 N   0  0  0  0  0  0  0  0  0  0  0  0
   44.6190   35.3490   45.6390 C   0  0  0  0  0  0  0  0  0  0  0  0
   44.5560   36.3030   44.7110 N   0  0  0  0  0  0  0  0  0  0  0  0
   46.3590   32.6970   43.8550 C   0  0  0  0  0  0  0  0  0  0  0  0
   47.6380   32.2260   43.9230 C   0  0  0  0  0  0  0  0  0  0  0  0
   47.9270   30.9790   43.5900 C   0  0  0  0  0  0  0  0  0  0  0  0
   46.9180   30.1960   43.1830 C   0  0  0  0  0  0  0  0  0  0  0  0
   45.4470   31.2810   43.2720 S   0  0  0  0  0  0  0  0  0  0  0  0
   43.3576   34.9236   41.2245 H   0  0  0  0  0  0  0  0  0  0  0  0
   45.9305   31.9101   37.5699 H   0  0  0  0  0  0  0  0  0  0  0  0
   44.1863   32.0387   37.2179 H   0  0  0  0  0  0  0  0  0  0  0  0
   42.4106   34.0746   37.8900 H   0  0  0  0  0  0  0  0  0  0  0  0
   42.2351   32.4418   38.6715 H   0  0  0  0  0  0  0  0  0  0  0  0
   39.4174   33.9833   41.9897 H   0  0  0  0  0  0  0  0  0  0  0  0
   41.0915   32.4225   41.1579 H   0  0  0  0  0  0  0  0  0  0  0  0
   40.2353   32.0839   39.6969 H   0  0  0  0  0  0  0  0  0  0  0  0
   41.8324   34.6932   40.4029 H   0  0  0  0  0  0  0  0  0  0  0  0
   39.6951   35.8240   40.6033 H   0  0  0  0  0  0  0  0  0  0  0  0
   38.3825   35.1497   39.6101 H   0  0  0  0  0  0  0  0  0  0  0  0
   37.8479   32.8465   41.7991 H   0  0  0  0  0  0  0  0  0  0  0  0
   45.0083   36.9154   42.7420 H   0  0  0  0  0  0  0  0  0  0  0  0
   44.1903   35.5214   46.6373 H   0  0  0  0  0  0  0  0  0  0  0  0
   48.4429   32.8953   44.2608 H   0  0  0  0  0  0  0  0  0  0  0  0
   48.9576   30.5984   43.6450 H   0  0  0  0  0  0  0  0  0  0  0  0
   46.9637   29.1431   42.8679 H   0  0  0  0  0  0  0  0  0  0  0  0
  1 14  1  0
  2  1  2  0
  3  2  1  0
  4  3  1  0
  4  5  2  0
  5  1  1  0
  6  4  1  0
  7  3  1  0
  8 13  1  0
  9  8  1  0
 10  7  1  0
 10  9  1  0
 11 10  1  0
 11 12  1  0
 12  8  1  0
 14 17  1  0
 15 14  2  0
 16 21  2  0
 17 16  1  0
 17 18  2  0
 18 19  1  0
 19 20  2  0
 21 20  1  0
 22 23  2  0
 22 18  1  0
 24 23  1  0
 25 26  1  0
 25 24  2  0
 26 22  1  0
  2 27  1  0
  6 28  1  0
  6 29  1  0
  7 30  1  0
  7 31  1  0
  8 32  1  1
  9 33  1  0
  9 34  1  0
 10 35  1  1
 12 36  1  0
 12 37  1  0
 13 38  1  0
 16 39  1  0
 20 40  1  0
 23 41  1  0
 24 42  1  0
 25 43  1  0
M  ISO  8  27  14  30   8  31   8  32  13  33  13  34  13  35  13  36  13
M  ISO  7  37  13  38   3  39  14  40  14  41  14  42  14  43  14
M  END
>  <minimizedAffinity>  (1) 
-5.95636797

>  <minimizedRMSD>  (1) 
2.30687904

$$$$
