
     RDKit          3D

 32 34  0  0  0  0  0  0  0  0999 V2000
   45.6826   34.7938   44.0756 C   0  0  0  0  0  0  0  0  0  0  0  0
   46.6240   35.0481   43.0700 C   0  0  0  0  0  0  0  0  0  0  0  0
   47.6389   34.1093   42.9587 C   0  0  0  0  0  0  0  0  0  0  0  0
   47.6791   33.0314   43.7895 N   0  0  0  0  0  0  0  0  0  0  0  0
   46.7308   32.8398   44.7516 C   0  0  0  0  0  0  0  0  0  0  0  0
   45.7233   33.7376   44.8890 N   0  0  0  0  0  0  0  0  0  0  0  0
   48.7211   34.2672   41.9281 C   0  0  1  0  0  0  0  0  0  0  0  0
   48.9903   35.6932   41.5563 C   0  0  0  0  0  0  0  0  0  0  0  0
   50.0018   34.8663   42.3306 C   0  0  2  0  0  0  0  0  0  0  0  0
   44.5617   35.7768   44.2245 C   0  0  0  0  0  0  0  0  0  0  0  0
   44.0294   35.6083   45.4952 F   0  0  0  0  0  0  0  0  0  0  0  0
   43.5896   35.4502   43.3177 F   0  0  0  0  0  0  0  0  0  0  0  0
   45.0054   37.0700   44.1154 F   0  0  0  0  0  0  0  0  0  0  0  0
   46.5535   35.8992   42.4446 H   0  0  0  0  0  0  0  0  0  0  0  0
   46.8233   31.9648   45.3755 H   0  0  0  0  0  0  0  0  0  0  0  0
   48.7017   33.4348   41.2205 H   0  0  0  0  0  0  0  0  0  0  0  0
   48.4560   36.5079   42.1373 H   0  0  0  0  0  0  0  0  0  0  0  0
   49.1474   36.0040   40.5304 H   0  0  0  0  0  0  0  0  0  0  0  0
   50.0505   35.1287   43.4333 H   0  0  0  0  0  0  0  0  0  0  0  0
   52.5539   35.8706   43.4013 O   0  0  0  0  0  0  0  0  0  0  0  0
   52.5539   34.8859   42.4696 C   0  0  2  0  0  0  0  0  0  0  0  0
   51.3174   34.4650   41.8284 C   0  0  1  0  0  0  0  0  0  0  0  0
   51.4269   32.9349   41.7081 C   0  0  2  0  0  0  0  0  0  0  0  0
   51.1249   32.5676   40.7265 H   0  0  0  0  0  0  0  0  0  0  0  0
   52.7610   32.7017   41.9252 O   0  0  0  0  0  0  0  0  0  0  0  0
   53.1031   33.5464   42.9965 C   0  0  2  0  0  0  0  0  0  0  0  0
   52.5727   33.1906   43.8797 H   0  0  0  0  0  0  0  0  0  0  0  0
   52.9911   35.5405   44.2474 H   0  0  0  0  0  0  0  0  0  0  0  0
   53.3426   35.1796   41.7079 H   0  0  0  0  0  0  0  0  0  0  0  0
   51.3577   34.7999   40.7464 H   0  0  0  0  0  0  0  0  0  0  0  0
   50.7637   32.4469   42.4533 H   0  0  0  0  0  0  0  0  0  0  0  0
   54.1910   33.6044   43.1246 H   0  0  0  0  0  0  0  0  0  0  0  0
  1 10  1  0
  1  6  2  0
  2  1  1  0
  3  2  2  0
  3  4  1  0
  4  5  2  0
  5  6  1  0
  7  9  1  0
  7  3  1  0
  8  7  1  0
  8  9  1  0
 10 11  1  0
 12 10  1  0
 13 10  1  0
  2 14  1  0
  5 15  1  0
  7 16  1  6
  8 17  1  0
  8 18  1  0
  9 19  1  1
 20 21  1  0
 21 22  1  0
 22 23  1  0
 23 24  1  6
 23 25  1  0
 25 26  1  0
 26 27  1  1
 26 21  1  0
 20 28  1  0
 21 29  1  6
 22 30  1  6
 23 31  1  0
 26 32  1  0
  9 22  1  0
M  ISO  8  14  14  15  14  16  13  17  13  18  13  19  13  24  15  27  16
M  END
>  <DihAtoms>  (1) 
6,8,21,20

>  <DihDeg>  (1) 
58.732169702366086

$$$$
