
     RDKit          3D

 25 26  0  0  1  0  0  0  0  0999 V2000
   44.8050   35.3960   43.1100 C   0  0  0  0  0  0  0  0  0  0  0  0
   43.7170   35.5120   42.2460 C   0  0  0  0  0  0  0  0  0  0  0  0
   43.8620   34.9960   40.9490 C   0  0  0  0  0  0  0  0  0  0  0  0
   45.0330   34.4170   40.6020 N   0  0  0  0  0  0  0  0  0  0  0  0
   46.0770   34.3230   41.4780 C   0  0  0  0  0  0  0  0  0  0  0  0
   45.9440   34.8210   42.7360 N   0  0  0  0  0  0  0  0  0  0  0  0
   42.7840   33.9880   38.9430 C   0  0  1  0  0  0  0  0  0  0  0  0
   42.7630   35.0800   39.9850 C   0  0  1  0  0  0  0  0  0  0  0  0
   41.3910   34.8450   40.5880 C   0  0  0  0  0  0  0  0  0  0  0  0
   40.6220   34.7550   39.4140 O   0  0  0  0  0  0  0  0  0  0  0  0
   41.3200   33.9550   38.5490 C   0  0  0  0  0  0  0  0  0  0  0  0
   43.6050   34.2720   37.8760 O   0  0  0  0  0  0  0  0  0  0  0  0
   44.6380   35.9510   44.4930 C   0  0  0  0  0  0  0  0  0  0  0  0
   42.7803   35.9899   42.5687 H   0  0  0  0  0  0  0  0  0  0  0  0
   47.0191   33.8475   41.1676 H   0  0  0  0  0  0  0  0  0  0  0  0
   43.1872   33.0313   39.3065 H   0  0  0  0  0  0  0  0  0  0  0  0
   42.9148   36.0948   39.5885 H   0  0  0  0  0  0  0  0  0  0  0  0
   41.3556   33.9135   41.1719 H   0  0  0  0  0  0  0  0  0  0  0  0
   41.0600   35.6140   41.3015 H   0  0  0  0  0  0  0  0  0  0  0  0
   41.2033   34.3286   37.5210 H   0  0  0  0  0  0  0  0  0  0  0  0
   40.9388   32.9242   38.5960 H   0  0  0  0  0  0  0  0  0  0  0  0
   44.4859   34.5767   38.2094 H   0  0  0  0  0  0  0  0  0  0  0  0
   44.8728   35.1708   45.2320 H   0  0  0  0  0  0  0  0  0  0  0  0
   45.3194   36.8035   44.6308 H   0  0  0  0  0  0  0  0  0  0  0  0
   43.5993   36.2859   44.6308 H   0  0  0  0  0  0  0  0  0  0  0  0
  1 13  1  0
  2  1  2  0
  3  2  1  0
  4  3  2  0
  4  5  1  0
  5  6  2  0
  6  1  1  0
  7 12  1  0
  7  8  1  0
  8  9  1  0
  8  3  1  0
 10  9  1  0
 11  7  1  0
 11 10  1  0
  2 14  1  0
  5 15  1  0
  7 16  1  1
  8 17  1  6
  9 18  1  0
  9 19  1  0
 11 20  1  0
 11 21  1  0
 12 22  1  0
 13 23  1  0
 13 24  1  0
 13 25  1  0
M  ISO  8  14  14  15  14  16  13  17  13  18  13  19  13  20  13  21  13
M  ISO  4  22   3  23   8  24   8  25   8
M  END
>  <minimizedAffinity>  (1) 
-4.30898762

>  <minimizedRMSD>  (1) 
6.56001616

$$$$
