
     RDKit          3D

 29 31  0  0  0  0  0  0  0  0999 V2000
   44.5977   35.8020   44.7330 C   0  0  0  0  0  0  0  0  0  0  0  0
   45.2672   35.5714   43.5080 C   0  0  0  0  0  0  0  0  0  0  0  0
   46.1182   34.4528   43.4148 C   0  0  0  0  0  0  0  0  0  0  0  0
   46.2469   33.6503   44.5238 N   0  0  0  0  0  0  0  0  0  0  0  0
   45.5800   33.9226   45.6684 C   0  0  0  0  0  0  0  0  0  0  0  0
   44.7554   34.9932   45.7825 N   0  0  0  0  0  0  0  0  0  0  0  0
   45.8737   32.9308   46.7051 C   0  0  0  0  0  0  0  0  0  0  0  0
   45.1117   32.7644   47.8917 C   0  0  0  0  0  0  0  0  0  0  0  0
   45.4788   31.8152   48.7732 C   0  0  0  0  0  0  0  0  0  0  0  0
   46.6106   31.0151   48.4891 C   0  0  0  0  0  0  0  0  0  0  0  0
   47.1708   31.6613   46.8774 S   0  0  0  0  0  0  0  0  0  0  0  0
   43.9463   36.6607   44.8000 H   0  0  0  0  0  0  0  0  0  0  0  0
   45.1608   36.2077   42.6392 H   0  0  0  0  0  0  0  0  0  0  0  0
   46.6691   34.1988   42.5204 H   0  0  0  0  0  0  0  0  0  0  0  0
   44.2567   33.3880   48.0794 H   0  0  0  0  0  0  0  0  0  0  0  0
   45.0204   31.5686   49.6920 H   0  0  0  0  0  0  0  0  0  0  0  0
   49.1354   29.3838   47.6278 O   0  0  0  0  0  0  0  0  0  0  0  0
   47.8607   29.0149   48.0454 C   0  0  2  0  0  0  0  0  0  0  0  0
   47.3195   29.9515   49.1054 C   0  0  2  0  0  0  0  0  0  0  0  0
   46.3767   29.0463   49.8334 C   0  0  2  0  0  0  0  0  0  0  0  0
   45.3273   29.0755   49.4487 H   0  0  0  0  0  0  0  0  0  0  0  0
   46.8898   27.7580   49.7731 O   0  0  0  0  0  0  0  0  0  0  0  0
   47.9550   27.7424   48.8900 C   0  0  2  0  0  0  0  0  0  0  0  0
   48.9060   27.7827   49.4728 H   0  0  0  0  0  0  0  0  0  0  0  0
   49.4036   30.2393   48.0398 H   0  0  0  0  0  0  0  0  0  0  0  0
   47.1737   28.8626   47.2139 H   0  0  0  0  0  0  0  0  0  0  0  0
   48.1477   30.2437   49.7849 H   0  0  0  0  0  0  0  0  0  0  0  0
   46.3412   29.4111   50.8951 H   0  0  0  0  0  0  0  0  0  0  0  0
   47.8826   26.8623   48.2428 H   0  0  0  0  0  0  0  0  0  0  0  0
  1  6  2  0
  2  1  1  0
  3  2  2  0
  3  4  1  0
  4  5  2  0
  5  6  1  0
  5  7  1  0
  7 11  1  0
  7  8  2  0
  8  9  1  0
 10  9  2  0
 11 10  1  0
  1 12  1  0
  2 13  1  0
  3 14  1  0
  8 15  1  0
  9 16  1  0
 17 18  1  0
 18 19  1  0
 19 20  1  0
 20 21  1  6
 20 22  1  0
 22 23  1  0
 23 24  1  1
 23 18  1  0
 17 25  1  0
 18 26  1  6
 19 27  1  1
 20 28  1  0
 23 29  1  0
 10 19  1  0
M  ISO  7  12  14  13  14  14  14  15  14  16  14  21  15  24  16
M  END
>  <DihAtoms>  (1) 
8,9,18,17

>  <DihDeg>  (1) 
55.874557932671955

$$$$
