
     RDKit          3D

 29 31  0  0  0  0  0  0  0  0999 V2000
   44.5951   35.8965   44.3147 C   0  0  0  0  0  0  0  0  0  0  0  0
   45.3360   35.9239   43.1111 C   0  0  0  0  0  0  0  0  0  0  0  0
   46.2992   34.9338   43.0241 C   0  0  0  0  0  0  0  0  0  0  0  0
   46.4695   34.0275   44.0604 N   0  0  0  0  0  0  0  0  0  0  0  0
   45.7324   34.0543   45.1767 C   0  0  0  0  0  0  0  0  0  0  0  0
   44.7863   34.9983   45.3050 N   0  0  0  0  0  0  0  0  0  0  0  0
   47.0838   34.7875   41.7416 C   0  0  0  0  0  0  0  0  0  0  0  0
   48.4603   35.4636   41.8810 C   0  0  0  0  0  0  0  0  0  0  0  0
   48.2344   33.9286   41.7436 C   0  0  0  0  0  0  0  0  0  0  0  0
   43.8041   36.5891   44.5629 H   0  0  0  0  0  0  0  0  0  0  0  0
   46.0595   33.2496   45.8181 H   0  0  0  0  0  0  0  0  0  0  0  0
   46.5806   35.1504   40.8174 H   0  0  0  0  0  0  0  0  0  0  0  0
   48.7860   35.9860   40.9680 H   0  0  0  0  0  0  0  0  0  0  0  0
   48.7379   35.8550   42.8505 H   0  0  0  0  0  0  0  0  0  0  0  0
   48.6590   33.5135   40.7836 H   0  0  0  0  0  0  0  0  0  0  0  0
   48.5516   33.3852   42.6802 H   0  0  0  0  0  0  0  0  0  0  0  0
   46.0925   35.8422   40.1942 O   0  0  0  0  0  0  0  0  0  0  0  0
   44.9462   36.4277   40.6810 C   0  0  1  0  0  0  0  0  0  0  0  0
   45.0590   36.9195   42.1109 C   0  0  2  0  0  0  0  0  0  0  0  0
   46.1299   37.9628   41.8894 C   0  0  1  0  0  0  0  0  0  0  0  0
   46.2033   38.6704   42.7143 H   0  0  0  0  0  0  0  0  0  0  0  0
   45.6401   38.6716   40.7841 O   0  0  0  0  0  0  0  0  0  0  0  0
   44.8793   37.8096   40.0243 C   0  0  1  0  0  0  0  0  0  0  0  0
   45.2583   37.7759   38.9864 H   0  0  0  0  0  0  0  0  0  0  0  0
   46.7673   36.5243   39.9503 H   0  0  0  0  0  0  0  0  0  0  0  0
   44.0329   35.8526   40.5207 H   0  0  0  0  0  0  0  0  0  0  0  0
   44.1307   37.4923   42.2976 H   0  0  0  0  0  0  0  0  0  0  0  0
   47.1135   37.5270   41.6930 H   0  0  0  0  0  0  0  0  0  0  0  0
   43.7984   38.1285   40.0335 H   0  0  0  0  0  0  0  0  0  0  0  0
  1  6  2  0
  2  1  1  0
  3  2  2  0
  3  4  1  0
  4  5  2  0
  5  6  1  0
  7  8  1  0
  7  9  1  0
  7  3  1  0
  8  9  1  0
  1 10  1  0
  5 11  1  0
  7 12  1  0
  8 13  1  0
  8 14  1  0
  9 15  1  0
  9 16  1  0
 17 18  1  0
 18 19  1  0
 19 20  1  0
 20 21  1  1
 20 22  1  0
 22 23  1  0
 23 24  1  6
 23 18  1  0
 17 25  1  0
 18 26  1  1
 19 27  1  1
 20 28  1  0
 23 29  1  0
  2 19  1  0
M  ISO  8  10  14  11  14  12  13  13  13  14  13  15  13  16  13  21  15
M  ISO  1  24  16
M  END
>  <DihAtoms>  (1) 
0,1,18,17

>  <DihDeg>  (1) 
91.42331571235026

$$$$
