
     RDKit          3D

 29 31  0  0  0  0  0  0  0  0999 V2000
   44.5951   35.8965   44.3147 C   0  0  0  0  0  0  0  0  0  0  0  0
   45.3360   35.9239   43.1111 C   0  0  0  0  0  0  0  0  0  0  0  0
   46.2992   34.9338   43.0241 C   0  0  0  0  0  0  0  0  0  0  0  0
   46.4695   34.0275   44.0604 N   0  0  0  0  0  0  0  0  0  0  0  0
   45.7324   34.0543   45.1767 C   0  0  0  0  0  0  0  0  0  0  0  0
   44.7863   34.9983   45.3050 N   0  0  0  0  0  0  0  0  0  0  0  0
   47.0838   34.7875   41.7416 C   0  0  0  0  0  0  0  0  0  0  0  0
   48.4603   35.4636   41.8810 C   0  0  0  0  0  0  0  0  0  0  0  0
   48.2344   33.9286   41.7436 C   0  0  0  0  0  0  0  0  0  0  0  0
   43.8041   36.5891   44.5629 H   0  0  0  0  0  0  0  0  0  0  0  0
   46.0595   33.2496   45.8181 H   0  0  0  0  0  0  0  0  0  0  0  0
   46.5806   35.1504   40.8174 H   0  0  0  0  0  0  0  0  0  0  0  0
   48.7860   35.9860   40.9680 H   0  0  0  0  0  0  0  0  0  0  0  0
   48.7379   35.8550   42.8505 H   0  0  0  0  0  0  0  0  0  0  0  0
   48.6590   33.5135   40.7836 H   0  0  0  0  0  0  0  0  0  0  0  0
   48.5516   33.3852   42.6802 H   0  0  0  0  0  0  0  0  0  0  0  0
   45.5174   35.6065   40.1188 O   0  0  0  0  0  0  0  0  0  0  0  0
   44.6009   36.4094   40.7584 C   0  0  1  0  0  0  0  0  0  0  0  0
   45.0590   36.9195   42.1109 C   0  0  2  0  0  0  0  0  0  0  0  0
   46.2371   37.7393   41.6372 C   0  0  1  0  0  0  0  0  0  0  0  0
   46.5838   38.4483   42.3879 H   0  0  0  0  0  0  0  0  0  0  0  0
   45.6847   38.4889   40.5899 O   0  0  0  0  0  0  0  0  0  0  0  0
   44.6580   37.7572   40.0335 C   0  0  1  0  0  0  0  0  0  0  0  0
   44.8279   37.6195   38.9498 H   0  0  0  0  0  0  0  0  0  0  0  0
   46.2449   36.1438   39.7162 H   0  0  0  0  0  0  0  0  0  0  0  0
   43.5872   36.0077   40.7985 H   0  0  0  0  0  0  0  0  0  0  0  0
   44.2959   37.6597   42.4184 H   0  0  0  0  0  0  0  0  0  0  0  0
   47.0759   37.1231   41.3014 H   0  0  0  0  0  0  0  0  0  0  0  0
   43.6702   38.2702   40.2101 H   0  0  0  0  0  0  0  0  0  0  0  0
  1  6  2  0
  2  1  1  0
  3  2  2  0
  3  4  1  0
  4  5  2  0
  5  6  1  0
  7  8  1  0
  7  9  1  0
  7  3  1  0
  8  9  1  0
  1 10  1  0
  5 11  1  0
  7 12  1  0
  8 13  1  0
  8 14  1  0
  9 15  1  0
  9 16  1  0
 17 18  1  0
 18 19  1  0
 19 20  1  0
 20 21  1  1
 20 22  1  0
 22 23  1  0
 23 24  1  6
 23 18  1  0
 17 25  1  0
 18 26  1  1
 19 27  1  1
 20 28  1  0
 23 29  1  0
  2 19  1  0
M  ISO  8  10  14  11  14  12  13  13  13  14  13  15  13  16  13  21  15
M  ISO  1  24  16
M  END
>  <DihAtoms>  (1) 
0,1,18,17

>  <DihDeg>  (1) 
91.42331571235026

$$$$
