
     RDKit          3D

 25 26  0  0  0  0  0  0  0  0999 V2000
   44.5681   36.0012   44.4938 C   0  0  0  0  0  0  0  0  0  0  0  0
   45.3045   35.9240   43.2954 C   0  0  0  0  0  0  0  0  0  0  0  0
   46.1920   34.8614   43.1703 C   0  0  0  0  0  0  0  0  0  0  0  0
   46.3095   33.9591   44.1898 N   0  0  0  0  0  0  0  0  0  0  0  0
   45.5648   34.0899   45.3302 C   0  0  0  0  0  0  0  0  0  0  0  0
   44.7047   35.1038   45.4730 N   0  0  0  0  0  0  0  0  0  0  0  0
   46.9583   34.7756   41.9305 C   0  0  0  0  0  0  0  0  0  0  0  0
   43.8861   36.8353   44.5661 H   0  0  0  0  0  0  0  0  0  0  0  0
   45.1639   36.6709   42.5279 H   0  0  0  0  0  0  0  0  0  0  0  0
   45.6378   33.3907   46.1523 H   0  0  0  0  0  0  0  0  0  0  0  0
   47.9790   34.3845   42.1020 H   0  0  0  0  0  0  0  0  0  0  0  0
   47.0917   35.7804   41.4792 H   0  0  0  0  0  0  0  0  0  0  0  0
   45.8930   31.6108   38.6759 O   0  0  0  0  0  0  0  0  0  0  0  0
   46.8942   32.4316   39.1839 C   0  0  2  0  0  0  0  0  0  0  0  0
   46.8157   32.6003   40.6787 C   0  0  2  0  0  0  0  0  0  0  0  0
   47.8236   32.4502   41.1034 H   0  0  0  0  0  0  0  0  0  0  0  0
   46.2324   33.9541   40.8671 C   0  0  2  0  0  0  0  0  0  0  0  0
   46.1812   34.6107   39.6727 O   0  0  0  0  0  0  0  0  0  0  0  0
   46.7571   33.8478   38.6935 C   0  0  2  0  0  0  0  0  0  0  0  0
   46.0928   33.8268   37.7934 H   0  0  0  0  0  0  0  0  0  0  0  0
   46.1331   30.6669   38.7974 H   0  0  0  0  0  0  0  0  0  0  0  0
   47.8684   31.9852   38.8966 H   0  0  0  0  0  0  0  0  0  0  0  0
   46.1479   31.8348   41.1262 H   0  0  0  0  0  0  0  0  0  0  0  0
   45.1706   33.8995   41.2427 H   0  0  0  0  0  0  0  0  0  0  0  0
   47.7601   34.2500   38.4768 H   0  0  0  0  0  0  0  0  0  0  0  0
  1  6  2  0
  2  1  1  0
  3  2  2  0
  3  4  1  0
  4  5  2  0
  5  6  1  0
  7  3  1  0
  1  8  1  0
  2  9  1  0
  5 10  1  0
  7 11  1  0
  7 12  1  0
 13 14  1  0
 14 15  1  0
 15 16  1  1
 15 17  1  0
 17 18  1  0
 18 19  1  0
 19 20  1  6
 19 14  1  0
 13 21  1  0
 14 22  1  1
 15 23  1  0
 17 24  1  1
 19 25  1  0
  7 17  1  0
M  ISO  7   8  14   9  14  10  14  11   8  12   8  16   8  20  16
M  END
>  <DihAtoms>  (1) 
2,6,16,14

>  <DihDeg>  (1) 
-59.9999166860849

$$$$
