
     RDKit          3D

 39 41  0  0  0  0  0  0  0  0999 V2000
   45.2198   36.1148   43.0219 C   0  0  0  0  0  0  0  0  0  0  0  0
   44.2108   35.7855   42.0817 C   0  0  0  0  0  0  0  0  0  0  0  0
   44.4783   34.7036   41.2264 C   0  0  0  0  0  0  0  0  0  0  0  0
   45.6525   34.0447   41.3361 N   0  0  0  0  0  0  0  0  0  0  0  0
   46.5846   34.4032   42.2559 C   0  0  0  0  0  0  0  0  0  0  0  0
   46.3644   35.4373   43.0955 N   0  0  0  0  0  0  0  0  0  0  0  0
   49.0591   35.9293   41.3775 Cl  0  0  0  0  0  0  0  0  0  0  0  0
   49.0089   34.2779   41.9075 C   0  0  0  0  0  0  0  0  0  0  0  0
   47.8316   33.6282   42.3012 C   0  0  0  0  0  0  0  0  0  0  0  0
   47.7654   32.3314   42.7217 C   0  0  0  0  0  0  0  0  0  0  0  0
   48.9527   31.6347   42.7518 C   0  0  0  0  0  0  0  0  0  0  0  0
   50.1782   32.1751   42.3849 C   0  0  0  0  0  0  0  0  0  0  0  0
   50.1516   33.4919   41.9730 C   0  0  0  0  0  0  0  0  0  0  0  0
   44.9667   37.2529   43.9392 C   0  0  0  0  0  0  0  0  0  0  0  0
   45.4983   38.4211   43.6099 C   0  0  0  0  0  0  0  0  0  0  0  0
   45.2810   39.6034   44.4898 C   0  0  0  0  0  0  0  0  0  0  0  0
   43.2982   36.3499   42.0459 H   0  0  0  0  0  0  0  0  0  0  0  0
   43.7287   34.4237   40.4946 H   0  0  0  0  0  0  0  0  0  0  0  0
   46.8199   31.8925   43.0117 H   0  0  0  0  0  0  0  0  0  0  0  0
   48.9451   30.6032   43.0790 H   0  0  0  0  0  0  0  0  0  0  0  0
   51.1009   31.6100   42.4158 H   0  0  0  0  0  0  0  0  0  0  0  0
   51.1217   33.8990   41.6890 H   0  0  0  0  0  0  0  0  0  0  0  0
   44.3872   37.2155   44.8533 H   0  0  0  0  0  0  0  0  0  0  0  0
   46.1104   38.7073   42.7552 H   0  0  0  0  0  0  0  0  0  0  0  0
   44.7698   40.4027   43.9209 H   0  0  0  0  0  0  0  0  0  0  0  0
   44.6024   39.3658   45.3418 H   0  0  0  0  0  0  0  0  0  0  0  0
   47.8339   42.6141   47.1400 O   0  0  0  0  0  0  0  0  0  0  0  0
   47.8484   41.5615   46.2380 C   0  0  1  0  0  0  0  0  0  0  0  0
   46.5900   40.7146   46.3140 C   0  0  1  0  0  0  0  0  0  0  0  0
   46.6145   39.9748   47.1305 H   0  0  0  0  0  0  0  0  0  0  0  0
   46.6469   40.0691   44.9432 C   0  0  2  0  0  0  0  0  0  0  0  0
   47.0913   41.0450   44.0946 O   0  0  0  0  0  0  0  0  0  0  0  0
   47.6975   42.0612   44.7975 C   0  0  2  0  0  0  0  0  0  0  0  0
   48.6339   42.4366   44.3789 H   0  0  0  0  0  0  0  0  0  0  0  0
   47.3090   43.3386   46.7284 H   0  0  0  0  0  0  0  0  0  0  0  0
   48.7004   40.8885   46.3395 H   0  0  0  0  0  0  0  0  0  0  0  0
   45.7191   41.3989   46.3684 H   0  0  0  0  0  0  0  0  0  0  0  0
   47.3387   39.2168   45.0388 H   0  0  0  0  0  0  0  0  0  0  0  0
   46.9321   42.8884   44.8702 H   0  0  0  0  0  0  0  0  0  0  0  0
  1  6  1  0
  1 14  1  0
  2  1  2  0
  3  4  2  0
  3  2  1  0
  4  5  1  0
  5  9  1  0
  5  6  2  0
  7  8  1  0
  8 13  2  0
  8  9  1  0
  9 10  2  0
 10 11  1  0
 12 11  2  0
 13 12  1  0
 15 14  2  0
 15 16  1  0
  2 17  1  0
  3 18  1  0
 10 19  1  0
 11 20  1  0
 12 21  1  0
 13 22  1  0
 14 23  1  0
 15 24  1  0
 16 25  1  0
 16 26  1  0
 27 28  1  0
 28 29  1  0
 29 30  1  1
 29 31  1  0
 31 32  1  0
 32 33  1  0
 33 34  1  6
 33 28  1  0
 27 35  1  0
 28 36  1  6
 29 37  1  0
 31 38  1  1
 33 39  1  0
 16 31  1  0
M  ISO  8  17  14  18  14  19  14  20  14  21  14  22  14  25   8  26   8
M  ISO  2  30   8  34  16
M  END
>  <DihAtoms>  (1) 
14,15,30,28

>  <DihDeg>  (1) 
179.99935013793868

$$$$
