
     RDKit          3D

 47 49  0  0  0  0  0  0  0  0999 V2000
   46.6615   34.9172   42.0330 C   0  0  0  0  0  0  0  0  0  0  0  0
   45.1897   34.9100   41.8027 C   0  0  0  0  0  0  0  0  0  0  0  0
   44.3129   35.5263   42.7292 C   0  0  0  0  0  0  0  0  0  0  0  0
   42.6553   35.2525   42.0142 S   0  0  0  0  0  0  0  0  0  0  0  0
   43.4184   34.3274   40.5415 C   0  0  0  0  0  0  0  0  0  0  0  0
   44.5338   34.3905   40.8148 N   0  0  0  0  0  0  0  0  0  0  0  0
   42.6598   33.7884   39.5051 O   0  0  0  0  0  0  0  0  0  0  0  0
   40.6934   34.1163   37.7587 O   0  0  0  0  0  0  0  0  0  0  0  0
   41.7418   34.8841   38.5765 P   0  0  0  0  0  0  0  0  0  0  0  0
   40.9400   35.9429   39.6352 O   0  0  0  0  0  0  0  0  0  0  0  0
   42.7626   35.7962   37.5766 O   0  0  0  0  0  0  0  0  0  0  0  0
   47.4556   34.5736   40.8156 C   0  0  0  0  0  0  0  0  0  0  0  0
   48.7106   33.8396   41.1287 C   0  0  0  0  0  0  0  0  0  0  0  0
   49.0319   32.7836   40.2985 C   0  0  0  0  0  0  0  0  0  0  0  0
   50.1725   32.0319   40.4943 C   0  0  0  0  0  0  0  0  0  0  0  0
   50.9719   32.3911   41.5607 N   0  0  0  0  0  0  0  0  0  0  0  0
   50.6147   33.4424   42.3549 C   0  0  0  0  0  0  0  0  0  0  0  0
   49.5057   34.1387   42.1283 N   0  0  0  0  0  0  0  0  0  0  0  0
   47.9507   32.3518   38.9129 S   0  0  0  0  0  0  0  0  0  0  0  0
   48.6177   32.9897   37.3742 C   0  0  0  0  0  0  0  0  0  0  0  0
   48.3047   34.4469   37.2737 C   0  0  0  0  0  0  0  0  0  0  0  0
   46.9653   35.9080   42.4615 H   0  0  0  0  0  0  0  0  0  0  0  0
   46.8766   34.1760   42.8329 H   0  0  0  0  0  0  0  0  0  0  0  0
   44.6304   36.0503   43.6745 H   0  0  0  0  0  0  0  0  0  0  0  0
   41.3983   36.8252   39.6737 H   0  0  0  0  0  0  0  0  0  0  0  0
   42.3294   36.6042   37.2375 H   0  0  0  0  0  0  0  0  0  0  0  0
   46.8122   34.0279   40.1276 H   0  0  0  0  0  0  0  0  0  0  0  0
   47.7599   35.5275   40.3284 H   0  0  0  0  0  0  0  0  0  0  0  0
   50.4383   31.2031   39.8545 H   0  0  0  0  0  0  0  0  0  0  0  0
   51.3226   33.6243   43.1564 H   0  0  0  0  0  0  0  0  0  0  0  0
   48.0757   32.4739   36.5386 H   0  0  0  0  0  0  0  0  0  0  0  0
   49.6769   32.7908   37.2323 H   0  0  0  0  0  0  0  0  0  0  0  0
   48.8971   34.9704   38.0807 H   0  0  0  0  0  0  0  0  0  0  0  0
   47.2557   34.6809   37.4282 H   0  0  0  0  0  0  0  0  0  0  0  0
   51.8351   34.6123   34.0666 O   0  0  0  0  0  0  0  0  0  0  0  0
   50.5268   34.9786   34.3517 C   0  0  1  0  0  0  0  0  0  0  0  0
   49.8753   34.0291   35.3455 C   0  0  2  0  0  0  0  0  0  0  0  0
   50.6011   33.7594   36.1304 H   0  0  0  0  0  0  0  0  0  0  0  0
   48.8630   34.9893   35.9816 C   0  0  2  0  0  0  0  0  0  0  0  0
   49.6296   36.1152   36.1734 O   0  0  0  0  0  0  0  0  0  0  0  0
   50.4275   36.2880   35.0728 C   0  0  2  0  0  0  0  0  0  0  0  0
   49.9763   37.0415   34.3692 H   0  0  0  0  0  0  0  0  0  0  0  0
   52.2958   35.4351   33.7571 H   0  0  0  0  0  0  0  0  0  0  0  0
   49.8819   34.9832   33.4462 H   0  0  0  0  0  0  0  0  0  0  0  0
   49.3904   33.1672   34.8673 H   0  0  0  0  0  0  0  0  0  0  0  0
   48.0923   35.1867   35.2299 H   0  0  0  0  0  0  0  0  0  0  0  0
   51.4609   36.6353   35.3151 H   0  0  0  0  0  0  0  0  0  0  0  0
  2  1  1  0
  2  3  2  0
  4  3  1  0
  5  6  2  0
  5  4  1  0
  6  2  1  0
  7  5  1  0
  8  9  2  0
  9  7  1  0
  9 10  1  0
 11  9  1  0
 12 13  1  0
 12  1  1  0
 13 18  2  0
 14 15  2  0
 14 13  1  0
 15 16  1  0
 16 17  2  0
 18 17  1  0
 19 14  1  0
 20 19  1  0
 21 20  1  0
  1 22  1  0
  1 23  1  0
  3 24  1  0
 10 25  1  0
 11 26  1  0
 12 27  1  0
 12 28  1  0
 15 29  1  0
 17 30  1  0
 20 31  1  0
 20 32  1  0
 21 33  1  0
 21 34  1  0
 35 36  1  0
 36 37  1  0
 37 38  1  1
 37 39  1  0
 39 40  1  0
 40 41  1  0
 41 42  1  6
 41 36  1  0
 35 43  1  0
 36 44  1  6
 37 45  1  0
 39 46  1  6
 41 47  1  0
 21 39  1  0
M  ISO  8  22   8  23   8  24  14  25   3  26   3  27   8  28   8  29  14
M  ISO  7  30  14  31   8  32   8  33   8  34   8  38   8  42  16
M  END
>  <DihAtoms>  (1) 
19,20,38,36

>  <DihDeg>  (1) 
179.98932975925965

$$$$
