
     RDKit          3D

 44 47  0  0  0  0  0  0  0  0999 V2000
   46.2318   35.2152   42.7336 C   0  0  0  0  0  0  0  0  0  0  0  0
   46.8310   34.0348   43.1776 C   0  0  0  0  0  0  0  0  0  0  0  0
   46.4044   33.4791   44.3727 C   0  0  0  0  0  0  0  0  0  0  0  0
   45.4060   34.1034   45.0689 N   0  0  0  0  0  0  0  0  0  0  0  0
   44.8459   35.2338   44.6207 C   0  0  0  0  0  0  0  0  0  0  0  0
   45.2639   35.7793   43.4605 N   0  0  0  0  0  0  0  0  0  0  0  0
   46.9397   32.2774   44.9242 C   0  0  0  0  0  0  0  0  0  0  0  0
   47.6433   31.3086   44.2245 C   0  0  0  0  0  0  0  0  0  0  0  0
   48.0588   30.1185   44.7568 C   0  0  0  0  0  0  0  0  0  0  0  0
   47.7788   29.8219   46.0704 C   0  0  0  0  0  0  0  0  0  0  0  0
   47.0603   30.7962   46.8111 C   0  0  0  0  0  0  0  0  0  0  0  0
   46.7674   30.5131   48.1195 C   0  0  0  0  0  0  0  0  0  0  0  0
   46.0724   31.4185   48.8983 C   0  0  0  0  0  0  0  0  0  0  0  0
   45.6704   32.6344   48.3403 C   0  0  0  0  0  0  0  0  0  0  0  0
   45.9823   32.8999   46.9947 C   0  0  0  0  0  0  0  0  0  0  0  0
   46.6714   31.9686   46.2417 C   0  0  0  0  0  0  0  0  0  0  0  0
   47.8072   33.4908   42.3869 O   0  0  0  0  0  0  0  0  0  0  0  0
   50.3138   33.2928   41.6208 O   0  0  0  0  0  0  0  0  0  0  0  0
   49.2762   34.2761   42.0437 P   0  0  1  0  0  0  0  0  0  0  0  0
   49.0987   35.3895   40.7759 O   0  0  0  0  0  0  0  0  0  0  0  0
   49.7674   35.1152   43.4092 O   0  0  0  0  0  0  0  0  0  0  0  0
   46.5510   35.6636   41.8115 H   0  0  0  0  0  0  0  0  0  0  0  0
   44.0646   35.7847   45.0996 H   0  0  0  0  0  0  0  0  0  0  0  0
   47.8977   31.4467   43.1965 H   0  0  0  0  0  0  0  0  0  0  0  0
   48.6035   29.3822   44.2001 H   0  0  0  0  0  0  0  0  0  0  0  0
   48.0911   28.8886   46.5211 H   0  0  0  0  0  0  0  0  0  0  0  0
   47.1013   29.5520   48.5213 H   0  0  0  0  0  0  0  0  0  0  0  0
   45.8963   31.0811   49.9195 H   0  0  0  0  0  0  0  0  0  0  0  0
   45.1532   33.2062   49.0818 H   0  0  0  0  0  0  0  0  0  0  0  0
   45.6115   33.8638   46.8577 H   0  0  0  0  0  0  0  0  0  0  0  0
   48.3472   35.1832   40.1853 H   0  0  0  0  0  0  0  0  0  0  0  0
   51.7223   37.4276   43.4341 O   0  0  0  0  0  0  0  0  0  0  0  0
   51.7918   36.2302   42.7343 C   0  0  2  0  0  0  0  0  0  0  0  0
   51.1309   35.0951   43.5294 C   0  0  2  0  0  0  0  0  0  0  0  0
   51.8092   33.9152   42.8649 C   0  0  1  0  0  0  0  0  0  0  0  0
   51.8473   33.0108   43.5172 H   0  0  0  0  0  0  0  0  0  0  0  0
   53.0891   34.3145   42.5163 O   0  0  0  0  0  0  0  0  0  0  0  0
   53.2057   35.6799   42.7337 C   0  0  2  0  0  0  0  0  0  0  0  0
   53.5562   35.8018   43.8008 H   0  0  0  0  0  0  0  0  0  0  0  0
   50.8209   37.7920   43.3633 H   0  0  0  0  0  0  0  0  0  0  0  0
   51.3305   36.2546   41.7357 H   0  0  0  0  0  0  0  0  0  0  0  0
   51.4351   35.1393   44.5944 H   0  0  0  0  0  0  0  0  0  0  0  0
   51.2882   33.7082   41.8849 H   0  0  0  0  0  0  0  0  0  0  0  0
   53.8777   36.1958   42.0382 H   0  0  0  0  0  0  0  0  0  0  0  0
  1  2  2  0
  1  6  1  0
  2  3  1  0
  3  7  1  0
  3  4  2  0
  5  4  1  0
  6  5  2  0
  7 16  2  0
  8  9  2  0
  8  7  1  0
  9 10  1  0
 10 11  2  0
 11 12  1  0
 12 13  2  0
 14 13  1  0
 15 14  2  0
 16 11  1  0
 16 15  1  0
 17  2  1  0
 18 19  2  0
 19 17  1  1
 19 21  1  0
 20 19  1  0
  1 22  1  0
  5 23  1  0
  8 24  1  0
  9 25  1  0
 10 26  1  0
 12 27  1  0
 13 28  1  0
 14 29  1  0
 15 30  1  0
 20 31  1  0
 32 33  1  0
 33 34  1  0
 34 35  1  0
 35 36  1  1
 35 37  1  0
 37 38  1  0
 38 39  1  1
 38 33  1  0
 32 40  1  0
 33 41  1  6
 34 42  1  1
 35 43  1  0
 38 44  1  0
 21 34  1  0
M  ISO  8  22  14  23  14  24  14  25  14  26  14  27  14  28  14  29  14
M  ISO  4  30  14  31   3  36  15  39  16
M  END
>  <DihAtoms>  (1) 
18,20,33,32

>  <DihDeg>  (1) 
-123.84884984247556

$$$$
