
     RDKit          3D

 28 29  0  0  1  0  0  0  0  0999 V2000
   47.1830   32.4660   48.2410 O   0  0  0  0  0  0  0  0  0  0  0  0
   45.9710   32.5530   47.3020 P   0  0  1  0  0  0  0  0  0  0  0  0
   44.8240   33.6330   47.8570 O   0  0  0  0  0  0  0  0  0  0  0  0
   46.5590   32.9840   45.7850 O   0  0  0  0  0  0  0  0  0  0  0  0
   44.5030   35.7110   44.7660 C   0  0  0  0  0  0  0  0  0  0  0  0
   44.9240   36.0000   43.4630 C   0  0  0  0  0  0  0  0  0  0  0  0
   45.9650   35.2090   42.9300 C   0  0  0  0  0  0  0  0  0  0  0  0
   46.4820   34.2310   43.7090 N   0  0  0  0  0  0  0  0  0  0  0  0
   46.0540   33.9780   44.9570 C   0  0  0  0  0  0  0  0  0  0  0  0
   45.0690   34.7150   45.4860 N   0  0  0  0  0  0  0  0  0  0  0  0
   45.3040   30.9980   47.2870 O   0  0  0  0  0  0  0  0  0  0  0  0
   45.3190   29.5400   45.4670 C   0  0  1  0  0  0  0  0  0  0  0  0
   46.1110   30.0870   46.6370 C   0  0  2  0  0  0  0  0  0  0  0  0
   46.0990   28.8390   47.5290 C   0  0  0  0  0  0  0  0  0  0  0  0
   44.8240   28.3550   47.4330 O   0  0  0  0  0  0  0  0  0  0  0  0
   44.2410   28.8120   46.2780 C   0  0  0  0  0  0  0  0  0  0  0  0
   44.8110   30.5850   44.7270 O   0  0  0  0  0  0  0  0  0  0  0  0
   44.8232   33.6338   48.8470 H   0  0  0  0  0  0  0  0  0  0  0  0
   43.6943   36.3066   45.2146 H   0  0  0  0  0  0  0  0  0  0  0  0
   44.4630   36.8098   42.8784 H   0  0  0  0  0  0  0  0  0  0  0  0
   46.3443   35.3826   41.9121 H   0  0  0  0  0  0  0  0  0  0  0  0
   45.8486   28.9183   44.7301 H   0  0  0  0  0  0  0  0  0  0  0  0
   47.0849   30.5360   46.3923 H   0  0  0  0  0  0  0  0  0  0  0  0
   46.8242   28.0959   47.1659 H   0  0  0  0  0  0  0  0  0  0  0  0
   46.3799   29.0676   48.5677 H   0  0  0  0  0  0  0  0  0  0  0  0
   43.4226   29.5058   46.5207 H   0  0  0  0  0  0  0  0  0  0  0  0
   43.8244   27.9742   45.6996 H   0  0  0  0  0  0  0  0  0  0  0  0
   44.4701   31.2863   45.3370 H   0  0  0  0  0  0  0  0  0  0  0  0
  2  3  1  0
  2  1  2  0
  4  2  1  0
  5 10  2  0
  6  5  1  0
  7  6  2  0
  7  8  1  0
  8  9  2  0
  9 10  1  0
  9  4  1  0
 11  2  1  0
 12 17  1  0
 12 16  1  0
 12 13  1  0
 13 11  1  0
 13 14  1  0
 15 14  1  0
 16 15  1  0
  3 18  1  0
  5 19  1  0
  6 20  1  0
  7 21  1  0
 12 22  1  6
 13 23  1  6
 14 24  1  0
 14 25  1  0
 16 26  1  0
 16 27  1  0
 17 28  1  0
M  ISO  8  18   3  19  14  20  14  21  14  22  13  23  13  24  13  25  13
M  ISO  3  26  13  27  13  28   3
M  END
>  <minimizedAffinity>  (1) 
-4.91500092

>  <minimizedRMSD>  (1) 
1.33786678

$$$$
