
     RDKit          3D

 36 39  0  0  0  0  0  0  0  0999 V2000
   47.4568   31.6645   44.8154 C   0  0  0  0  0  0  0  0  0  0  0  0
   46.7779   32.8461   44.5338 C   0  0  0  0  0  0  0  0  0  0  0  0
   45.9062   33.4493   45.4232 C   0  0  0  0  0  0  0  0  0  0  0  0
   45.6842   32.8596   46.6682 C   0  0  0  0  0  0  0  0  0  0  0  0
   44.9416   33.1318   47.7614 N   0  0  0  0  0  0  0  0  0  0  0  0
   45.1208   32.1877   48.7029 C   0  0  0  0  0  0  0  0  0  0  0  0
   45.9909   31.3280   48.1646 N   0  0  0  0  0  0  0  0  0  0  0  0
   46.3664   31.6901   46.9266 C   0  0  0  0  0  0  0  0  0  0  0  0
   47.2379   31.0709   46.0589 C   0  0  0  0  0  0  0  0  0  0  0  0
   46.3927   33.8206   41.0211 C   0  0  0  0  0  0  0  0  0  0  0  0
   47.4233   34.7248   40.8270 C   0  0  0  0  0  0  0  0  0  0  0  0
   48.2697   35.0113   41.9139 C   0  0  0  0  0  0  0  0  0  0  0  0
   48.0195   34.3745   43.1011 N   0  0  0  0  0  0  0  0  0  0  0  0
   46.9907   33.4930   43.2370 C   0  0  0  0  0  0  0  0  0  0  0  0
   46.1756   33.2088   42.2132 N   0  0  0  0  0  0  0  0  0  0  0  0
   45.0378   34.9560   45.0488 S   0  0  0  0  0  0  0  0  0  0  0  0
   48.1307   31.2305   44.0832 H   0  0  0  0  0  0  0  0  0  0  0  0
   44.3225   33.9690   47.8358 H   0  0  0  0  0  0  0  0  0  0  0  0
   44.6796   32.1087   49.6820 H   0  0  0  0  0  0  0  0  0  0  0  0
   47.7472   30.1493   46.3178 H   0  0  0  0  0  0  0  0  0  0  0  0
   45.7469   33.6057   40.1815 H   0  0  0  0  0  0  0  0  0  0  0  0
   47.6385   35.2347   39.9094 H   0  0  0  0  0  0  0  0  0  0  0  0
   49.1097   35.6936   41.9042 H   0  0  0  0  0  0  0  0  0  0  0  0
   47.1722   38.2411   44.5180 O   0  0  0  0  0  0  0  0  0  0  0  0
   46.4921   37.0611   44.2312 C   0  0  1  0  0  0  0  0  0  0  0  0
   45.9346   36.4290   45.5140 C   0  0  1  0  0  0  0  0  0  0  0  0
   44.8927   37.5092   45.8131 C   0  0  1  0  0  0  0  0  0  0  0  0
   44.2223   37.1149   46.5834 H   0  0  0  0  0  0  0  0  0  0  0  0
   44.2958   37.7811   44.5920 O   0  0  0  0  0  0  0  0  0  0  0  0
   45.1782   37.4651   43.5808 C   0  0  1  0  0  0  0  0  0  0  0  0
   45.3159   38.2363   42.8120 H   0  0  0  0  0  0  0  0  0  0  0  0
   47.6958   38.4626   43.7112 H   0  0  0  0  0  0  0  0  0  0  0  0
   47.0710   36.3345   43.6560 H   0  0  0  0  0  0  0  0  0  0  0  0
   46.6682   36.3269   46.3037 H   0  0  0  0  0  0  0  0  0  0  0  0
   45.3432   38.4312   46.2236 H   0  0  0  0  0  0  0  0  0  0  0  0
   44.7923   36.5220   43.0943 H   0  0  0  0  0  0  0  0  0  0  0  0
  1  9  2  0
  2  1  1  0
  2  3  2  0
  3  4  1  0
  4  8  2  0
  4  5  1  0
  5  6  1  0
  7  6  2  0
  8  7  1  0
  9  8  1  0
 10 15  2  0
 11 10  1  0
 11 12  2  0
 12 13  1  0
 13 14  2  0
 14  2  1  0
 15 14  1  0
 16  3  1  0
  1 17  1  0
  5 18  1  0
  6 19  1  0
  9 20  1  0
 10 21  1  0
 11 22  1  0
 12 23  1  0
 24 25  1  0
 25 26  1  0
 26 27  1  0
 27 28  1  1
 27 29  1  0
 29 30  1  0
 30 31  1  6
 30 25  1  0
 24 32  1  0
 25 33  1  6
 26 34  1  1
 27 35  1  0
 30 36  1  0
 16 26  1  0
M  ISO  8  17  14  18   9  19  14  20  14  21  14  22  14  23  14  28  15
M  ISO  1  31  16
M  END
>  <DihAtoms>  (1) 
2,15,25,24

>  <DihDeg>  (1) 
179.9994892735265

$$$$
