
     RDKit          3D

 31 32  0  0  0  0  0  0  0  0999 V2000
   47.1675   33.9631   42.4774 C   0  0  0  0  0  0  0  0  0  0  0  0
   45.2990   34.2286   45.7008 C   0  0  0  0  0  0  0  0  0  0  0  0
   46.1693   33.7466   44.7098 C   0  0  0  0  0  0  0  0  0  0  0  0
   46.2604   34.4584   43.5204 C   0  0  0  0  0  0  0  0  0  0  0  0
   45.5031   35.5949   43.3614 N   0  0  0  0  0  0  0  0  0  0  0  0
   44.6714   36.0307   44.3438 C   0  0  0  0  0  0  0  0  0  0  0  0
   44.5749   35.3534   45.4945 N   0  0  0  0  0  0  0  0  0  0  0  0
   48.3204   33.4156   43.0147 O   0  0  0  0  0  0  0  0  0  0  0  0
   50.6486   33.1031   41.8949 O   0  0  0  0  0  0  0  0  0  0  0  0
   49.6252   34.1648   42.2306 P   0  0  2  0  0  0  0  0  0  0  0  0
   50.2114   35.3581   43.2574 O   0  0  0  0  0  0  0  0  0  0  0  0
   49.0697   34.8087   40.7813 O   0  0  0  0  0  0  0  0  0  0  0  0
   47.3611   34.7892   41.7712 H   0  0  0  0  0  0  0  0  0  0  0  0
   46.6121   33.1928   41.8705 H   0  0  0  0  0  0  0  0  0  0  0  0
   45.1741   33.7316   46.6495 H   0  0  0  0  0  0  0  0  0  0  0  0
   46.7426   32.8402   44.8959 H   0  0  0  0  0  0  0  0  0  0  0  0
   44.1114   36.9383   44.1305 H   0  0  0  0  0  0  0  0  0  0  0  0
   49.4610   35.6983   43.8039 H   0  0  0  0  0  0  0  0  0  0  0  0
   49.8787   37.8244   41.8591 O   0  0  0  0  0  0  0  0  0  0  0  0
   49.0277   37.1617   40.9679 C   0  0  2  0  0  0  0  0  0  0  0  0
   49.6769   35.9380   40.3677 C   0  0  2  0  0  0  0  0  0  0  0  0
   49.7658   36.2059   38.9042 C   0  0  1  0  0  0  0  0  0  0  0  0
   50.6646   35.8128   38.4322 H   0  0  0  0  0  0  0  0  0  0  0  0
   49.8366   37.6188   38.9011 O   0  0  0  0  0  0  0  0  0  0  0  0
   48.7647   38.0067   39.7337 C   0  0  2  0  0  0  0  0  0  0  0  0
   48.8188   39.0791   39.9057 H   0  0  0  0  0  0  0  0  0  0  0  0
   49.8088   37.4437   42.7568 H   0  0  0  0  0  0  0  0  0  0  0  0
   48.0832   36.9343   41.5067 H   0  0  0  0  0  0  0  0  0  0  0  0
   50.7387   35.9087   40.7502 H   0  0  0  0  0  0  0  0  0  0  0  0
   48.8889   35.9577   38.3047 H   0  0  0  0  0  0  0  0  0  0  0  0
   47.8275   37.6459   39.2486 H   0  0  0  0  0  0  0  0  0  0  0  0
  1  8  1  0
  1  4  1  0
  3  2  2  0
  4  3  1  0
  5  4  2  0
  5  6  1  0
  6  7  2  0
  7  2  1  0
  9 10  2  0
 10  8  1  1
 10 11  1  0
 12 10  1  0
  1 13  1  0
  1 14  1  0
  2 15  1  0
  3 16  1  0
  6 17  1  0
 11 18  1  0
 19 20  1  0
 20 21  1  0
 21 22  1  0
 22 23  1  6
 22 24  1  0
 24 25  1  0
 25 26  1  1
 25 20  1  0
 19 27  1  0
 20 28  1  1
 21 29  1  1
 22 30  1  0
 25 31  1  0
 12 21  1  0
M  ISO  8  13   8  14   8  15  14  16  14  17  14  18   3  23  15  26  16
M  END
>  <DihAtoms>  (1) 
9,11,20,19

>  <DihDeg>  (1) 
-116.64638770892249

$$$$
