
     RDKit          3D

 45 47  0  0  1  0  0  0  0  0999 V2000
   45.4310   35.5340   43.4070 C   0  0  0  0  0  0  0  0  0  0  0  0
   46.3160   34.4540   43.7070 C   0  0  0  0  0  0  0  0  0  0  0  0
   46.2180   33.8630   44.9560 C   0  0  0  0  0  0  0  0  0  0  0  0
   45.3040   34.3220   45.8360 N   0  0  0  0  0  0  0  0  0  0  0  0
   44.4730   35.3430   45.5410 C   0  0  0  0  0  0  0  0  0  0  0  0
   44.5400   35.9410   44.3380 N   0  0  0  0  0  0  0  0  0  0  0  0
   47.2180   34.0980   42.6660 N   0  0  0  0  0  0  0  0  0  0  0  0
   48.6500   34.2500   42.7780 C   0  0  0  0  0  0  0  0  0  0  0  0
   49.3180   33.6610   41.5610 C   0  0  0  0  0  0  0  0  0  0  0  0
   48.7770   34.1510   40.3310 N   0  0  0  0  0  0  0  0  0  0  0  0
   47.3580   34.0900   40.2330 C   0  0  0  0  0  0  0  0  0  0  0  0
   46.6420   33.5570   41.4370 C   0  0  0  0  0  0  0  0  0  0  0  0
   47.0910   32.8230   45.2040 O   0  0  0  0  0  0  0  0  0  0  0  0
   45.4750   30.7470   44.8810 O   0  0  0  0  0  0  0  0  0  0  0  0
   46.4790   31.3470   45.8690 P   0  0  1  0  0  0  0  0  0  0  0  0
   47.7740   30.3310   46.1290 O   0  0  0  0  0  0  0  0  0  0  0  0
   48.9370   28.4070   45.4810 C   0  0  1  0  0  0  0  0  0  0  0  0
   47.5530   29.0230   45.7360 C   0  0  1  0  0  0  0  0  0  0  0  0
   47.2330   28.2350   46.9910 C   0  0  0  0  0  0  0  0  0  0  0  0
   48.3890   28.4130   47.7420 O   0  0  0  0  0  0  0  0  0  0  0  0
   49.4640   28.5800   46.8920 C   0  0  0  0  0  0  0  0  0  0  0  0
   48.8280   27.0600   45.2240 O   0  0  0  0  0  0  0  0  0  0  0  0
   45.6660   31.7590   47.2780 O   0  0  0  0  0  0  0  0  0  0  0  0
   46.5140   31.9940   48.3370 C   0  0  0  0  0  0  0  0  0  0  0  0
   47.6310   32.7380   48.0010 F   0  0  0  0  0  0  0  0  0  0  0  0
   46.9080   30.8660   49.0080 F   0  0  0  0  0  0  0  0  0  0  0  0
   45.7640   32.7560   49.2460 F   0  0  0  0  0  0  0  0  0  0  0  0
   45.4742   36.0304   42.4263 H   0  0  0  0  0  0  0  0  0  0  0  0
   43.7397   35.6869   46.2853 H   0  0  0  0  0  0  0  0  0  0  0  0
   48.9001   35.3187   42.8517 H   0  0  0  0  0  0  0  0  0  0  0  0
   49.0036   33.7262   43.6783 H   0  0  0  0  0  0  0  0  0  0  0  0
   50.3892   33.9086   41.5955 H   0  0  0  0  0  0  0  0  0  0  0  0
   49.1450   32.5750   41.5855 H   0  0  0  0  0  0  0  0  0  0  0  0
   49.0629   35.1349   40.2253 H   0  0  0  0  0  0  0  0  0  0  0  0
   46.9889   35.1090   40.0448 H   0  0  0  0  0  0  0  0  0  0  0  0
   47.1455   33.3792   39.4208 H   0  0  0  0  0  0  0  0  0  0  0  0
   45.5809   33.8414   41.3806 H   0  0  0  0  0  0  0  0  0  0  0  0
   46.7451   32.4619   41.4520 H   0  0  0  0  0  0  0  0  0  0  0  0
   49.5162   28.8319   44.6479 H   0  0  0  0  0  0  0  0  0  0  0  0
   46.8181   29.0017   44.9178 H   0  0  0  0  0  0  0  0  0  0  0  0
   46.3528   28.6451   47.5077 H   0  0  0  0  0  0  0  0  0  0  0  0
   46.9824   27.1806   46.8028 H   0  0  0  0  0  0  0  0  0  0  0  0
   50.2351   27.8246   47.1036 H   0  0  0  0  0  0  0  0  0  0  0  0
   49.9215   29.5716   47.0239 H   0  0  0  0  0  0  0  0  0  0  0  0
   48.7878   26.5631   46.0793 H   0  0  0  0  0  0  0  0  0  0  0  0
  1  2  2  0
  1  6  1  0
  2  3  1  0
  3 13  1  0
  3  4  2  0
  5  4  1  0
  6  5  2  0
  7  8  1  0
  7  2  1  0
  9  8  1  0
 10  9  1  0
 11 10  1  0
 11 12  1  0
 12  7  1  0
 13 15  1  0
 15 14  2  0
 15 16  1  0
 15 23  1  0
 17 22  1  0
 17 18  1  0
 17 21  1  0
 18 16  1  0
 18 19  1  0
 19 20  1  0
 21 20  1  0
 23 24  1  0
 24 26  1  0
 24 27  1  0
 25 24  1  0
  1 28  1  0
  5 29  1  0
  8 30  1  0
  8 31  1  0
  9 32  1  0
  9 33  1  0
 10 34  1  0
 11 35  1  0
 11 36  1  0
 12 37  1  0
 12 38  1  0
 17 39  1  6
 18 40  1  6
 19 41  1  0
 19 42  1  0
 21 43  1  0
 21 44  1  0
 22 45  1  0
M  ISO  8  28  14  29  14  30  13  31  13  32  13  33  13  34   5  35  13
M  ISO  8  36  13  37  13  38  13  39  13  40  13  41  13  42  13  43  13
M  ISO  2  44  13  45   3
M  END
>  <minimizedAffinity>  (1) 
-5.23887539

>  <minimizedRMSD>  (1) 
1.86756647

$$$$
