
     RDKit          3D

 49 52  0  0  1  0  0  0  0  0999 V2000
   42.9710   33.9810   39.2540 C   0  0  1  0  0  0  0  0  0  0  0  0
   43.2050   35.0000   40.3590 C   0  0  1  0  0  0  0  0  0  0  0  0
   41.9690   35.5760   40.6980 O   0  0  0  0  0  0  0  0  0  0  0  0
   41.1350   35.7470   39.5890 C   0  0  0  0  0  0  0  0  0  0  0  0
   40.6400   34.4210   39.0480 C   0  0  2  0  0  0  0  0  0  0  0  0
   41.6560   33.3350   39.5450 C   0  0  1  0  0  0  0  0  0  0  0  0
   42.9450   34.6050   37.9980 O   0  0  0  0  0  0  0  0  0  0  0  0
   40.7500   34.4180   37.6650 O   0  0  0  0  0  0  0  0  0  0  0  0
   43.5400   34.2310   41.4970 O   0  0  0  0  0  0  0  0  0  0  0  0
   44.7230   34.2730   42.1200 C   0  0  0  0  0  0  0  0  0  0  0  0
   45.9100   34.4900   41.4030 C   0  0  0  0  0  0  0  0  0  0  0  0
   47.1080   34.5260   42.0960 C   0  0  0  0  0  0  0  0  0  0  0  0
   47.1010   34.3480   43.4670 N   0  0  0  0  0  0  0  0  0  0  0  0
   45.9380   34.1400   44.1260 C   0  0  0  0  0  0  0  0  0  0  0  0
   44.7550   34.1030   43.4550 N   0  0  0  0  0  0  0  0  0  0  0  0
   48.4140   34.7270   41.3980 C   0  0  0  0  0  0  0  0  0  0  0  0
   49.0870   36.0860   41.5760 C   0  0  0  0  0  0  0  0  0  0  0  0
   49.6410   34.7600   42.1290 C   0  0  0  0  0  0  0  0  0  0  0  0
   41.3790   32.1900   38.8980 O   0  0  0  0  0  0  0  0  0  0  0  0
   40.3250   31.3600   39.0430 C   0  0  0  0  0  0  0  0  0  0  0  0
   39.5250   31.1090   38.0380 O   0  0  0  0  0  0  0  0  0  0  0  0
   37.5620   29.9070   40.9800 C   0  0  1  0  0  0  0  0  0  0  0  0
   38.0380   30.7260   39.7940 C   0  0  0  0  0  0  0  0  0  0  0  0
   39.5220   30.4650   39.9190 C   0  0  2  0  0  0  0  0  0  0  0  0
   39.7350   30.7390   41.2660 O   0  0  0  0  0  0  0  0  0  0  0  0
   38.8090   29.8840   41.8320 C   0  0  0  0  0  0  0  0  0  0  0  0
   36.4890   30.4990   41.6380 O   0  0  0  0  0  0  0  0  0  0  0  0
   43.7820   33.2384   39.2259 H   0  0  0  0  0  0  0  0  0  0  0  0
   43.9500   35.7519   40.0598 H   0  0  0  0  0  0  0  0  0  0  0  0
   40.2686   36.3564   39.8855 H   0  0  0  0  0  0  0  0  0  0  0  0
   41.7155   36.2441   38.7978 H   0  0  0  0  0  0  0  0  0  0  0  0
   39.6020   34.2434   39.3660 H   0  0  0  0  0  0  0  0  0  0  0  0
   41.6279   33.0434   40.6053 H   0  0  0  0  0  0  0  0  0  0  0  0
   42.9041   35.5868   38.1181 H   0  0  0  0  0  0  0  0  0  0  0  0
   41.7063   34.3919   37.4101 H   0  0  0  0  0  0  0  0  0  0  0  0
   45.8888   34.6287   40.3120 H   0  0  0  0  0  0  0  0  0  0  0  0
   45.9489   33.9992   45.2169 H   0  0  0  0  0  0  0  0  0  0  0  0
   48.0818   34.1194   40.5433 H   0  0  0  0  0  0  0  0  0  0  0  0
   49.5737   36.5877   40.7266 H   0  0  0  0  0  0  0  0  0  0  0  0
   48.8119   37.0718   41.9791 H   0  0  0  0  0  0  0  0  0  0  0  0
   49.6343   34.5767   43.2136 H   0  0  0  0  0  0  0  0  0  0  0  0
   50.6023   34.2330   42.0386 H   0  0  0  0  0  0  0  0  0  0  0  0
   37.1768   28.9121   40.7121 H   0  0  0  0  0  0  0  0  0  0  0  0
   37.7947   31.7932   39.9034 H   0  0  0  0  0  0  0  0  0  0  0  0
   37.5884   30.4664   38.8242 H   0  0  0  0  0  0  0  0  0  0  0  0
   39.8227   29.4531   39.6097 H   0  0  0  0  0  0  0  0  0  0  0  0
   38.5690   30.2178   42.8523 H   0  0  0  0  0  0  0  0  0  0  0  0
   39.2157   28.8632   41.8823 H   0  0  0  0  0  0  0  0  0  0  0  0
   36.6210   30.4261   42.6164 H   0  0  0  0  0  0  0  0  0  0  0  0
  1  6  1  0
  1  2  1  0
  2  3  1  0
  2  9  1  0
  4  3  1  0
  5  6  1  0
  5  4  1  0
  7  1  1  0
  8  5  1  0
  9 10  1  0
 10 15  2  0
 11 12  2  0
 11 10  1  0
 12 13  1  0
 13 14  2  0
 15 14  1  0
 16 17  1  0
 16 12  1  0
 16 18  1  0
 17 18  1  0
 19 20  1  0
 19  6  1  0
 21 20  2  0
 22 27  1  0
 22 26  1  0
 23 24  1  0
 23 22  1  0
 24 20  1  0
 24 25  1  0
 25 26  1  0
  1 28  1  6
  2 29  1  6
  4 30  1  0
  4 31  1  0
  5 32  1  6
  6 33  1  1
  7 34  1  0
  8 35  1  0
 11 36  1  0
 14 37  1  0
 16 38  1  0
 17 39  1  0
 17 40  1  0
 18 41  1  0
 18 42  1  0
 22 43  1  6
 23 44  1  0
 23 45  1  0
 24 46  1  1
 26 47  1  0
 26 48  1  0
 27 49  1  0
M  ISO  8  28  13  29  13  30  13  31  13  32  13  33  13  34   3  35   3
M  ISO  8  36  14  37  14  38  13  39  13  40  13  41  13  42  13  43  13
M  ISO  6  44  13  45  13  46  13  47  13  48  13  49   3
M  END
>  <minimizedAffinity>  (1) 
-6.66454124

>  <minimizedRMSD>  (1) 
1.90944958

$$$$
