
     RDKit          3D

 37 39  0  0  1  0  0  0  0  0999 V2000
   48.3020   34.5720   41.2840 C   0  0  1  0  0  0  0  0  0  0  0  0
   48.9530   35.8980   41.8420 C   0  0  0  0  0  0  0  0  0  0  0  0
   49.1780   34.5830   42.4520 C   0  0  2  0  0  0  0  0  0  0  0  0
   46.8220   34.5730   41.4500 C   0  0  0  0  0  0  0  0  0  0  0  0
   46.1430   34.3410   40.4530 O   0  0  0  0  0  0  0  0  0  0  0  0
   45.4490   35.9560   42.9310 C   0  0  0  0  0  0  0  0  0  0  0  0
   46.1450   34.8220   42.6780 C   0  0  0  0  0  0  0  0  0  0  0  0
   46.1840   33.8410   43.7080 C   0  0  0  0  0  0  0  0  0  0  0  0
   45.5450   34.0580   44.8810 N   0  0  0  0  0  0  0  0  0  0  0  0
   44.8570   35.2190   45.0850 C   0  0  0  0  0  0  0  0  0  0  0  0
   44.8170   36.1350   44.1300 N   0  0  0  0  0  0  0  0  0  0  0  0
   50.4890   34.1310   42.3500 O   0  0  0  0  0  0  0  0  0  0  0  0
   49.0350   32.0080   42.5030 O   0  0  0  0  0  0  0  0  0  0  0  0
   50.4060   32.4620   42.0400 P   0  0  2  0  0  0  0  0  0  0  0  0
   51.6240   31.5870   42.7590 O   0  0  0  0  0  0  0  0  0  0  0  0
   50.3940   32.2540   40.3310 O   0  0  0  0  0  0  0  0  0  0  0  0
   51.2510   31.0590   38.4250 C   0  0  2  0  0  0  0  0  0  0  0  0
   51.2070   31.2070   39.9320 C   0  0  1  0  0  0  0  0  0  0  0  0
   52.6350   31.6150   40.2260 C   0  0  0  0  0  0  0  0  0  0  0  0
   53.4420   31.1620   39.2130 O   0  0  0  0  0  0  0  0  0  0  0  0
   52.6800   30.5950   38.2340 C   0  0  0  0  0  0  0  0  0  0  0  0
   51.1180   32.2960   37.8200 O   0  0  0  0  0  0  0  0  0  0  0  0
   48.2886   33.9595   40.3704 H   0  0  0  0  0  0  0  0  0  0  0  0
   49.7587   36.4004   41.2866 H   0  0  0  0  0  0  0  0  0  0  0  0
   48.5898   36.8793   42.1814 H   0  0  0  0  0  0  0  0  0  0  0  0
   49.0312   34.1462   43.4508 H   0  0  0  0  0  0  0  0  0  0  0  0
   45.3916   36.7417   42.1633 H   0  0  0  0  0  0  0  0  0  0  0  0
   46.7357   32.9026   43.5501 H   0  0  0  0  0  0  0  0  0  0  0  0
   44.3378   35.3929   46.0391 H   0  0  0  0  0  0  0  0  0  0  0  0
   51.5380   31.6488   43.7433 H   0  0  0  0  0  0  0  0  0  0  0  0
   50.4692   30.4041   38.0129 H   0  0  0  0  0  0  0  0  0  0  0  0
   50.8315   30.3018   40.4317 H   0  0  0  0  0  0  0  0  0  0  0  0
   52.7008   32.7112   40.2889 H   0  0  0  0  0  0  0  0  0  0  0  0
   52.9580   31.1808   41.1836 H   0  0  0  0  0  0  0  0  0  0  0  0
   52.7298   29.4988   38.3101 H   0  0  0  0  0  0  0  0  0  0  0  0
   53.0491   30.8934   37.2417 H   0  0  0  0  0  0  0  0  0  0  0  0
   51.0426   32.9969   38.5151 H   0  0  0  0  0  0  0  0  0  0  0  0
  1  4  1  0
  1  2  1  0
  1  3  1  0
  2  3  1  0
  4  7  1  0
  5  4  2  0
  6 11  2  0
  7  6  1  0
  7  8  2  0
  8  9  1  0
  9 10  2  0
 11 10  1  0
 12  3  1  0
 14 12  1  0
 14 13  2  0
 14 15  1  0
 16 14  1  0
 17 22  1  0
 17 18  1  0
 18 19  1  0
 18 16  1  0
 20 19  1  0
 21 17  1  0
 21 20  1  0
  1 23  1  6
  2 24  1  0
  2 25  1  0
  3 26  1  1
  6 27  1  0
  8 28  1  0
 10 29  1  0
 15 30  1  0
 17 31  1  6
 18 32  1  1
 19 33  1  0
 19 34  1  0
 21 35  1  0
 21 36  1  0
 22 37  1  0
M  ISO  8  23  13  24  13  25  13  26  13  27  14  28  14  29  14  30   3
M  ISO  7  31  13  32  13  33  13  34  13  35  13  36  13  37   3
M  END
>  <minimizedAffinity>  (1) 
-5.40439892

>  <minimizedRMSD>  (1) 
0.431765288

$$$$
