
     RDKit          3D

 46 48  0  0  0  0  0  0  0  0999 V2000
   43.8722   35.2241   41.1898 C   0  0  0  0  0  0  0  0  0  0  0  0
   43.9667   35.5760   42.4667 C   0  0  0  0  0  0  0  0  0  0  0  0
   45.2281   35.5361   43.3061 C   0  0  0  0  0  0  0  0  0  0  0  0
   45.0101   34.6570   44.3447 O   0  0  0  0  0  0  0  0  0  0  0  0
   45.7051   32.4911   42.9547 O   0  0  0  0  0  0  0  0  0  0  0  0
   45.9990   33.2997   44.1975 P   0  0  1  0  0  0  0  0  0  0  0  0
   47.6333   33.7802   44.0978 O   0  0  0  0  0  0  0  0  0  0  0  0
   45.8582   32.3261   45.5674 O   0  0  0  0  0  0  0  0  0  0  0  0
   46.1982   32.9972   46.7260 C   0  0  0  0  0  0  0  0  0  0  0  0
   47.0518   32.3012   47.7415 C   0  0  0  0  0  0  0  0  0  0  0  0
   45.5694   32.4615   47.9894 C   0  0  0  0  0  0  0  0  0  0  0  0
   42.6155   35.3379   40.6167 O   0  0  0  0  0  0  0  0  0  0  0  0
   41.4406   35.6583   41.2251 C   0  0  0  0  0  0  0  0  0  0  0  0
   40.2946   33.5313   41.5726 C   0  0  0  0  0  0  0  0  0  0  0  0
   40.3129   34.7457   40.8540 C   0  0  0  0  0  0  0  0  0  0  0  0
   39.3339   34.9536   39.9387 C   0  0  0  0  0  0  0  0  0  0  0  0
   38.4272   33.9901   39.7895 N   0  0  0  0  0  0  0  0  0  0  0  0
   38.3996   32.8528   40.4544 C   0  0  0  0  0  0  0  0  0  0  0  0
   39.3716   32.5680   41.4103 N   0  0  0  0  0  0  0  0  0  0  0  0
   44.7241   34.8690   40.6308 H   0  0  0  0  0  0  0  0  0  0  0  0
   43.2249   35.9489   43.1524 H   0  0  0  0  0  0  0  0  0  0  0  0
   46.0119   35.1451   42.6058 H   0  0  0  0  0  0  0  0  0  0  0  0
   45.5359   36.5428   43.5972 H   0  0  0  0  0  0  0  0  0  0  0  0
   47.7147   34.5408   44.7529 H   0  0  0  0  0  0  0  0  0  0  0  0
   46.3463   34.0913   46.6787 H   0  0  0  0  0  0  0  0  0  0  0  0
   47.6820   32.9267   48.4045 H   0  0  0  0  0  0  0  0  0  0  0  0
   47.4222   31.3032   47.4572 H   0  0  0  0  0  0  0  0  0  0  0  0
   44.9936   31.5150   47.9624 H   0  0  0  0  0  0  0  0  0  0  0  0
   45.2252   33.1505   48.7742 H   0  0  0  0  0  0  0  0  0  0  0  0
   41.4449   35.6268   42.3503 H   0  0  0  0  0  0  0  0  0  0  0  0
   41.1112   36.6856   40.9564 H   0  0  0  0  0  0  0  0  0  0  0  0
   41.0305   33.2716   42.3227 H   0  0  0  0  0  0  0  0  0  0  0  0
   39.3839   35.8796   39.4195 H   0  0  0  0  0  0  0  0  0  0  0  0
   36.9922   30.1932   38.5541 O   0  0  0  0  0  0  0  0  0  0  0  0
   37.2180   31.5573   38.7361 C   0  0  0  0  0  0  0  0  0  0  0  0
   37.3320   31.8489   40.2001 C   0  0  0  0  0  0  0  0  0  0  0  0
   36.0048   32.5709   40.4611 C   0  0  0  0  0  0  0  0  0  0  0  0
   35.6434   32.3434   41.4783 H   0  0  0  0  0  0  0  0  0  0  0  0
   35.1230   32.0870   39.4783 O   0  0  0  0  0  0  0  0  0  0  0  0
   35.9220   32.2604   38.3363 C   0  0  0  0  0  0  0  0  0  0  0  0
   35.4489   31.7534   37.4766 H   0  0  0  0  0  0  0  0  0  0  0  0
   36.1225   29.9580   38.9783 H   0  0  0  0  0  0  0  0  0  0  0  0
   38.0657   31.9071   38.1235 H   0  0  0  0  0  0  0  0  0  0  0  0
   37.4183   30.9443   40.8163 H   0  0  0  0  0  0  0  0  0  0  0  0
   36.1396   33.6588   40.2656 H   0  0  0  0  0  0  0  0  0  0  0  0
   36.0793   33.3212   38.0952 H   0  0  0  0  0  0  0  0  0  0  0  0
  1  2  2  0
  2  3  1  0
  3  4  1  0
  6  5  2  0
  6  4  1  1
  6  8  1  0
  7  6  1  0
  8  9  1  0
  9 10  1  0
  9 11  1  0
 10 11  1  0
 12  1  1  0
 12 13  1  0
 15 13  1  0
 15 14  2  0
 16 15  1  0
 17 16  2  0
 17 18  1  0
 18 19  2  0
 19 14  1  0
  1 20  1  0
  2 21  1  0
  3 22  1  0
  3 23  1  0
  7 24  1  0
  9 25  1  0
 10 26  1  0
 10 27  1  0
 11 28  1  0
 11 29  1  0
 13 30  1  0
 13 31  1  0
 14 32  1  0
 16 33  1  0
 34 35  1  0
 35 36  1  0
 36 37  1  0
 37 38  1  0
 37 39  1  0
 39 40  1  0
 40 41  1  0
 40 35  1  0
 34 42  1  0
 35 43  1  0
 36 44  1  0
 37 45  1  0
 40 46  1  0
 18 36  1  0
M  ISO  8  22   8  23   8  24   3  25  13  26  13  27  13  28  13  29  13
M  ISO  6  30   8  31   8  32  14  33  14  38  15  41  16
M  END
>  <DihAtoms>  (1) 
16,17,35,34

>  <DihDeg>  (1) 
51.144019262310465

$$$$
