
     RDKit          3D

 30 31  0  0  0  0  0  0  0  0999 V2000
   43.8880   34.8710   41.2370 C   0  0  0  0  0  0  0  0  0  0  0  0
   42.7110   34.5150   40.7710 C   0  0  0  0  0  0  0  0  0  0  0  0
   44.2280   35.8710   43.5220 C   0  0  0  0  0  0  0  0  0  0  0  0
   44.3250   34.8070   42.6190 C   0  0  0  0  0  0  0  0  0  0  0  0
   44.8720   33.6210   43.0740 C   0  0  0  0  0  0  0  0  0  0  0  0
   45.2970   33.5250   44.3780 N   0  0  0  0  0  0  0  0  0  0  0  0
   45.1820   34.5880   45.2190 C   0  0  0  0  0  0  0  0  0  0  0  0
   44.6510   35.7410   44.7850 N   0  0  0  0  0  0  0  0  0  0  0  0
   42.3260   34.6060   39.3320 C   0  0  0  0  0  0  0  0  0  0  0  0
   41.2700   35.6630   39.1120 C   0  0  0  0  0  0  0  0  0  0  0  0
   40.7420   35.5100   37.7180 C   0  0  0  0  0  0  0  0  0  0  0  0
   39.6100   34.5400   37.7990 C   0  0  0  0  0  0  0  0  0  0  0  0
   39.3750   34.2730   39.2760 C   0  0  0  0  0  0  0  0  0  0  0  0
   40.0550   35.4310   39.9740 C   0  0  0  0  0  0  0  0  0  0  0  0
   44.6140   35.2559   40.5057 H   0  0  0  0  0  0  0  0  0  0  0  0
   41.9673   34.1278   41.4830 H   0  0  0  0  0  0  0  0  0  0  0  0
   43.7982   36.8274   43.1895 H   0  0  0  0  0  0  0  0  0  0  0  0
   44.9665   32.7595   42.3965 H   0  0  0  0  0  0  0  0  0  0  0  0
   45.5262   34.5017   46.2602 H   0  0  0  0  0  0  0  0  0  0  0  0
   43.2164   34.8601   38.7383 H   0  0  0  0  0  0  0  0  0  0  0  0
   41.9148   33.6344   39.0206 H   0  0  0  0  0  0  0  0  0  0  0  0
   41.7368   36.6352   39.3285 H   0  0  0  0  0  0  0  0  0  0  0  0
   41.5285   35.1220   37.0540 H   0  0  0  0  0  0  0  0  0  0  0  0
   40.4104   36.4760   37.3094 H   0  0  0  0  0  0  0  0  0  0  0  0
   38.7068   34.9711   37.3424 H   0  0  0  0  0  0  0  0  0  0  0  0
   39.8435   33.6105   37.2591 H   0  0  0  0  0  0  0  0  0  0  0  0
   38.2989   34.2576   39.5035 H   0  0  0  0  0  0  0  0  0  0  0  0
   39.7690   33.2972   39.5962 H   0  0  0  0  0  0  0  0  0  0  0  0
   40.3418   35.1628   41.0015 H   0  0  0  0  0  0  0  0  0  0  0  0
   39.4139   36.3190   40.0766 H   0  0  0  0  0  0  0  0  0  0  0  0
  1  4  1  0
  2  1  2  0
  3  8  2  0
  4  5  2  0
  4  3  1  0
  5  6  1  0
  6  7  2  0
  8  7  1  0
  9  2  1  0
 10  9  1  0
 10 14  1  0
 11 12  1  0
 11 10  1  0
 12 13  1  0
 13 14  1  0
  1 15  1  0
  2 16  1  0
  3 17  1  0
  5 18  1  0
  7 19  1  0
  9 20  1  0
  9 21  1  0
 10 22  1  0
 11 23  1  0
 11 24  1  0
 12 25  1  0
 12 26  1  0
 13 27  1  0
 13 28  1  0
 14 29  1  0
 14 30  1  0
M  ISO  8  17  14  18  14  19  14  20   8  21   8  22  13  23  13  24  13
M  ISO  6  25  13  26  13  27  13  28  13  29  13  30  13
M  END
>  <minimizedAffinity>  (1) 
-4.84337282

>  <minimizedRMSD>  (1) 
1.4085958

$$$$
