
     RDKit          3D

 48 50  0  0  0  0  0  0  0  0999 V2000
   44.6785   35.2882   45.0783 O   0  0  0  0  0  0  0  0  0  0  0  0
   45.4937   34.2555   44.3373 P   0  0  2  0  0  0  0  0  0  0  0  0
   44.5310   33.0579   43.6457 O   0  0  0  0  0  0  0  0  0  0  0  0
   46.5209   33.4625   45.4049 O   0  0  0  0  0  0  0  0  0  0  0  0
   46.2044   32.1417   45.4252 C   0  0  0  0  0  0  0  0  0  0  0  0
   45.7532   32.0360   49.1140 C   0  0  0  0  0  0  0  0  0  0  0  0
   46.0537   32.5249   47.8332 C   0  0  0  0  0  0  0  0  0  0  0  0
   45.8932   31.6509   46.7786 C   0  0  0  0  0  0  0  0  0  0  0  0
   45.4572   30.3739   47.0263 N   0  0  0  0  0  0  0  0  0  0  0  0
   45.1780   29.9372   48.2652 C   0  0  0  0  0  0  0  0  0  0  0  0
   45.3271   30.7676   49.2982 N   0  0  0  0  0  0  0  0  0  0  0  0
   46.4104   35.0306   43.1621 O   0  0  0  0  0  0  0  0  0  0  0  0
   46.9334   34.0911   42.2859 C   0  0  1  0  0  0  0  0  0  0  0  0
   46.3957   34.2522   40.8756 C   0  0  0  0  0  0  0  0  0  0  0  0
   47.3418   33.3739   40.0955 C   0  0  0  0  0  0  0  0  0  0  0  0
   48.6299   33.3530   40.8732 C   0  0  0  0  0  0  0  0  0  0  0  0
   48.4173   34.2917   42.0498 C   0  0  1  0  0  0  0  0  0  0  0  0
   48.7547   35.7142   41.7061 C   0  0  0  0  0  0  0  0  0  0  0  0
   43.6521   33.4985   43.4287 H   0  0  0  0  0  0  0  0  0  0  0  0
   47.1530   31.5950   45.1390 H   0  0  0  0  0  0  0  0  0  0  0  0
   45.4534   31.7714   44.7377 H   0  0  0  0  0  0  0  0  0  0  0  0
   45.8809   32.7287   49.9454 H   0  0  0  0  0  0  0  0  0  0  0  0
   46.3906   33.5489   47.7472 H   0  0  0  0  0  0  0  0  0  0  0  0
   44.8372   28.9197   48.4042 H   0  0  0  0  0  0  0  0  0  0  0  0
   46.7374   33.0551   42.5928 H   0  0  0  0  0  0  0  0  0  0  0  0
   46.3574   35.2900   40.5574 H   0  0  0  0  0  0  0  0  0  0  0  0
   45.3825   33.7907   40.8955 H   0  0  0  0  0  0  0  0  0  0  0  0
   46.9269   32.3732   39.8856 H   0  0  0  0  0  0  0  0  0  0  0  0
   47.5704   33.8483   39.1168 H   0  0  0  0  0  0  0  0  0  0  0  0
   49.5052   33.6301   40.2840 H   0  0  0  0  0  0  0  0  0  0  0  0
   48.7450   32.3111   41.2871 H   0  0  0  0  0  0  0  0  0  0  0  0
   49.0085   33.9727   42.9352 H   0  0  0  0  0  0  0  0  0  0  0  0
   48.2637   35.9522   40.7376 H   0  0  0  0  0  0  0  0  0  0  0  0
   48.3747   36.4380   42.4469 H   0  0  0  0  0  0  0  0  0  0  0  0
   50.2308   35.9260   41.4715 C   0  0  0  0  0  0  0  0  0  0  0  0
   50.8796   35.9068   42.8566 C   0  0  0  0  0  0  0  0  0  0  0  0
   51.6630   34.5932   42.8867 C   0  0  0  0  0  0  0  0  0  0  0  0
   52.1564   34.5700   41.4394 C   0  0  0  0  0  0  0  0  0  0  0  0
   50.8607   34.8101   40.6924 C   0  0  0  0  0  0  0  0  0  0  0  0
   50.4184   36.8894   40.9962 H   0  0  0  0  0  0  0  0  0  0  0  0
   51.5329   36.7858   43.0235 H   0  0  0  0  0  0  0  0  0  0  0  0
   50.1619   35.8624   43.6751 H   0  0  0  0  0  0  0  0  0  0  0  0
   50.9318   33.7720   42.9887 H   0  0  0  0  0  0  0  0  0  0  0  0
   52.4684   34.6014   43.6203 H   0  0  0  0  0  0  0  0  0  0  0  0
   52.8643   35.4066   41.2897 H   0  0  0  0  0  0  0  0  0  0  0  0
   52.5922   33.5692   41.2612 H   0  0  0  0  0  0  0  0  0  0  0  0
   51.0541   35.0881   39.6305 H   0  0  0  0  0  0  0  0  0  0  0  0
   50.2874   33.8464   40.7603 H   0  0  0  0  0  0  0  0  0  0  0  0
  2  1  2  0
  2  4  1  1
  3  2  1  0
  4  5  1  0
  5  8  1  0
  6 11  2  0
  7  6  1  0
  8  9  1  0
  8  7  2  0
  9 10  2  0
 10 11  1  0
 12  2  1  0
 13 12  1  0
 14 13  1  0
 15 16  1  0
 15 14  1  0
 16 17  1  0
 17 13  1  0
 18 17  1  0
  3 19  1  0
  5 20  1  0
  5 21  1  0
  6 22  1  0
  7 23  1  0
 10 24  1  0
 13 25  1  1
 14 26  1  0
 14 27  1  0
 15 28  1  0
 15 29  1  0
 16 30  1  0
 16 31  1  0
 17 32  1  1
 18 33  1  0
 18 34  1  0
 35 36  1  0
 36 37  1  0
 37 38  1  0
 38 39  1  0
 39 35  1  0
 35 40  1  0
 36 41  1  0
 36 42  1  0
 37 43  1  0
 37 44  1  0
 38 45  1  0
 38 46  1  0
 39 47  1  0
 39 48  1  0
 18 35  1  0
M  ISO  8  19   3  20   8  21   8  22  14  23  14  24  14  25  13  26  13
M  ISO  8  27  13  28  13  29  13  30  13  31  13  32  13  33   8  34   8
M  END
>  <DihAtoms>  (1) 
16,17,34,35

>  <DihDeg>  (1) 
179.9993320523959

$$$$
