
     RDKit          3D

 40 42  0  0  1  0  0  0  0  0999 V2000
   44.8450   33.9810   41.7640 N   0  0  0  0  0  0  0  0  0  0  0  0
   46.0840   33.7050   41.0900 C   0  0  1  0  0  0  0  0  0  0  0  0
   45.9130   33.4350   39.6300 C   0  0  0  0  0  0  0  0  0  0  0  0
   44.7940   32.6930   39.2530 N   0  0  0  0  0  0  0  0  0  0  0  0
   43.6420   32.7770   40.0450 C   0  0  0  0  0  0  0  0  0  0  0  0
   43.6830   34.0120   40.9420 C   0  0  0  0  0  0  0  0  0  0  0  0
   44.4050   35.3880   43.6390 C   0  0  0  0  0  0  0  0  0  0  0  0
   44.9050   34.1890   43.1530 C   0  0  0  0  0  0  0  0  0  0  0  0
   45.4310   33.2820   44.0970 C   0  0  0  0  0  0  0  0  0  0  0  0
   45.4290   33.6060   45.4110 N   0  0  0  0  0  0  0  0  0  0  0  0
   44.9340   34.7780   45.8360 C   0  0  0  0  0  0  0  0  0  0  0  0
   44.4320   35.6530   44.9670 N   0  0  0  0  0  0  0  0  0  0  0  0
   46.9660   34.9240   41.2130 C   0  0  0  0  0  0  0  0  0  0  0  0
   48.3900   34.6610   40.7960 C   0  0  0  0  0  0  0  0  0  0  0  0
   49.1990   35.8540   41.3200 C   0  0  0  0  0  0  0  0  0  0  0  0
   49.7230   35.3540   42.6310 C   0  0  0  0  0  0  0  0  0  0  0  0
   50.1300   33.9430   42.3280 C   0  0  0  0  0  0  0  0  0  0  0  0
   48.9830   33.4650   41.4600 C   0  0  0  0  0  0  0  0  0  0  0  0
   46.5141   32.8070   41.5576 H   0  0  0  0  0  0  0  0  0  0  0  0
   45.8562   34.4063   39.1167 H   0  0  0  0  0  0  0  0  0  0  0  0
   46.7768   32.8142   39.3498 H   0  0  0  0  0  0  0  0  0  0  0  0
   44.5336   32.9956   38.3035 H   0  0  0  0  0  0  0  0  0  0  0  0
   42.7595   32.8366   39.3910 H   0  0  0  0  0  0  0  0  0  0  0  0
   43.5895   31.8824   40.6829 H   0  0  0  0  0  0  0  0  0  0  0  0
   43.7043   34.9161   40.3157 H   0  0  0  0  0  0  0  0  0  0  0  0
   42.7888   34.0216   41.5826 H   0  0  0  0  0  0  0  0  0  0  0  0
   43.9842   36.1278   42.9421 H   0  0  0  0  0  0  0  0  0  0  0  0
   45.8408   32.3161   43.7666 H   0  0  0  0  0  0  0  0  0  0  0  0
   44.9429   35.0178   46.9095 H   0  0  0  0  0  0  0  0  0  0  0  0
   46.5549   35.7206   40.5755 H   0  0  0  0  0  0  0  0  0  0  0  0
   46.9807   35.2156   42.2736 H   0  0  0  0  0  0  0  0  0  0  0  0
   48.4102   34.5072   39.7070 H   0  0  0  0  0  0  0  0  0  0  0  0
   50.0221   36.1054   40.6349 H   0  0  0  0  0  0  0  0  0  0  0  0
   48.6042   36.7746   41.4129 H   0  0  0  0  0  0  0  0  0  0  0  0
   50.5860   35.9498   42.9628 H   0  0  0  0  0  0  0  0  0  0  0  0
   48.9839   35.4225   43.4428 H   0  0  0  0  0  0  0  0  0  0  0  0
   51.0847   33.9106   41.7826 H   0  0  0  0  0  0  0  0  0  0  0  0
   50.2957   33.3266   43.2239 H   0  0  0  0  0  0  0  0  0  0  0  0
   48.2246   32.9668   42.0818 H   0  0  0  0  0  0  0  0  0  0  0  0
   49.3411   32.7448   40.7096 H   0  0  0  0  0  0  0  0  0  0  0  0
  1  8  1  0
  2 13  1  0
  2  1  1  0
  3  2  1  0
  4  3  1  0
  4  5  1  0
  5  6  1  0
  6  1  1  0
  7 12  2  0
  8  7  1  0
  8  9  2  0
  9 10  1  0
 10 11  2  0
 12 11  1  0
 14 13  1  0
 14 15  1  0
 14 18  1  0
 15 16  1  0
 17 16  1  0
 18 17  1  0
  2 19  1  1
  3 20  1  0
  3 21  1  0
  4 22  1  0
  5 23  1  0
  5 24  1  0
  6 25  1  0
  6 26  1  0
  7 27  1  0
  9 28  1  0
 11 29  1  0
 13 30  1  0
 13 31  1  0
 14 32  1  0
 15 33  1  0
 15 34  1  0
 16 35  1  0
 16 36  1  0
 17 37  1  0
 17 38  1  0
 18 39  1  0
 18 40  1  0
M  ISO  8  19  13  20  13  21  13  22   5  23  13  24  13  25  13  26  13
M  ISO  8  27  14  28  14  29  14  30   8  31   8  32  13  33  13  34  13
M  ISO  6  35  13  36  13  37  13  38  13  39  13  40  13
M  END
>  <minimizedAffinity>  (1) 
-5.04854631

>  <minimizedRMSD>  (1) 
1.51955938

$$$$
