
     RDKit          3D

 32 33  0  0  0  0  0  0  0  0999 V2000
   47.1700   33.9658   42.4866 C   0  0  0  0  0  0  0  0  0  0  0  0
   45.2942   34.2314   45.6906 C   0  0  0  0  0  0  0  0  0  0  0  0
   46.1668   33.7455   44.7101 C   0  0  0  0  0  0  0  0  0  0  0  0
   46.2593   34.4655   43.5202 C   0  0  0  0  0  0  0  0  0  0  0  0
   45.5016   35.5987   43.3705 N   0  0  0  0  0  0  0  0  0  0  0  0
   44.6706   36.0319   44.3455 C   0  0  0  0  0  0  0  0  0  0  0  0
   44.5758   35.3477   45.4894 N   0  0  0  0  0  0  0  0  0  0  0  0
   48.3218   33.4170   43.0244 O   0  0  0  0  0  0  0  0  0  0  0  0
   50.6656   33.1142   41.9009 O   0  0  0  0  0  0  0  0  0  0  0  0
   49.6271   34.1431   42.2165 P   0  0  2  0  0  0  0  0  0  0  0  0
   50.2106   35.3501   43.2486 O   0  0  0  0  0  0  0  0  0  0  0  0
   49.0575   34.8151   40.7836 O   0  0  0  0  0  0  0  0  0  0  0  0
   47.3674   34.8103   41.7736 H   0  0  0  0  0  0  0  0  0  0  0  0
   46.6174   33.1993   41.8715 H   0  0  0  0  0  0  0  0  0  0  0  0
   45.1590   33.7347   46.6477 H   0  0  0  0  0  0  0  0  0  0  0  0
   46.7247   32.8416   44.9184 H   0  0  0  0  0  0  0  0  0  0  0  0
   44.1657   36.9377   44.0335 H   0  0  0  0  0  0  0  0  0  0  0  0
   50.7012   34.9191   43.9943 H   0  0  0  0  0  0  0  0  0  0  0  0
   49.9102   35.8360   40.3861 C   0  0  0  0  0  0  0  0  0  0  0  0
   51.3672   35.4239   40.4413 C   0  0  0  0  0  0  0  0  0  0  0  0
   52.0201   36.5559   39.6765 C   0  0  0  0  0  0  0  0  0  0  0  0
   50.9776   37.0518   38.6967 C   0  0  0  0  0  0  0  0  0  0  0  0
   49.7709   36.1253   38.8942 C   0  0  0  0  0  0  0  0  0  0  0  0
   49.7830   36.7352   40.9893 H   0  0  0  0  0  0  0  0  0  0  0  0
   51.4475   34.4826   39.8771 H   0  0  0  0  0  0  0  0  0  0  0  0
   51.7288   35.3546   41.4854 H   0  0  0  0  0  0  0  0  0  0  0  0
   52.2901   37.3570   40.4139 H   0  0  0  0  0  0  0  0  0  0  0  0
   52.9349   36.1935   39.1499 H   0  0  0  0  0  0  0  0  0  0  0  0
   51.3553   36.9412   37.6739 H   0  0  0  0  0  0  0  0  0  0  0  0
   50.6609   38.1046   38.9419 H   0  0  0  0  0  0  0  0  0  0  0  0
   49.9414   35.1696   38.3706 H   0  0  0  0  0  0  0  0  0  0  0  0
   48.8409   36.6342   38.6314 H   0  0  0  0  0  0  0  0  0  0  0  0
  1  8  1  0
  1  4  1  0
  3  2  2  0
  4  3  1  0
  5  4  2  0
  5  6  1  0
  6  7  2  0
  7  2  1  0
  9 10  2  0
 10  8  1  1
 10 11  1  0
 12 10  1  0
  1 13  1  0
  1 14  1  0
  2 15  1  0
  3 16  1  0
  6 17  1  0
 11 18  1  0
 19 20  1  0
 20 21  1  0
 21 22  1  0
 22 23  1  0
 23 19  1  0
 19 24  1  0
 20 25  1  0
 20 26  1  0
 21 27  1  0
 21 28  1  0
 22 29  1  0
 22 30  1  0
 23 31  1  0
 23 32  1  0
 12 19  1  0
M  ISO  6  13   8  14   8  15  14  16  14  17  14  18   3
M  END
>  <DihAtoms>  (1) 
9,11,18,19

>  <DihDeg>  (1) 
122.43306873354011

$$$$
