
     RDKit          3D

 28 29  0  0  0  0  0  0  0  0999 V2000
   44.5420   35.9730   44.4980 C   0  0  0  0  0  0  0  0  0  0  0  0
   45.2760   35.8520   43.3000 C   0  0  0  0  0  0  0  0  0  0  0  0
   46.1990   34.7900   43.2260 C   0  0  0  0  0  0  0  0  0  0  0  0
   46.3170   33.9630   44.3050 N   0  0  0  0  0  0  0  0  0  0  0  0
   45.5920   34.1180   45.4330 C   0  0  0  0  0  0  0  0  0  0  0  0
   44.7020   35.1280   45.5250 N   0  0  0  0  0  0  0  0  0  0  0  0
   46.9440   34.6810   41.9900 C   0  0  0  0  0  0  0  0  0  0  0  0
   47.7530   33.5460   42.0330 F   0  0  0  0  0  0  0  0  0  0  0  0
   47.8280   35.7480   41.9530 F   0  0  0  0  0  0  0  0  0  0  0  0
   46.1620   34.6210   40.8720 F   0  0  0  0  0  0  0  0  0  0  0  0
   45.7330   33.2270   46.5690 C   0  0  0  0  0  0  0  0  0  0  0  0
   44.9290   33.2230   47.5210 O   0  0  0  0  0  0  0  0  0  0  0  0
   46.8630   32.2550   46.6570 C   0  0  0  0  0  0  0  0  0  0  0  0
   47.5340   32.4160   48.0050 C   0  0  0  0  0  0  0  0  0  0  0  0
   47.3400   31.1060   48.7340 C   0  0  0  0  0  0  0  0  0  0  0  0
   47.2960   30.1260   47.5780 C   0  0  0  0  0  0  0  0  0  0  0  0
   46.3200   30.8270   46.6430 C   0  0  0  0  0  0  0  0  0  0  0  0
   43.8120   36.7904   44.5925 H   0  0  0  0  0  0  0  0  0  0  0  0
   45.1348   36.5527   42.4639 H   0  0  0  0  0  0  0  0  0  0  0  0
   47.5479   32.4365   45.8156 H   0  0  0  0  0  0  0  0  0  0  0  0
   48.6062   32.6242   47.8744 H   0  0  0  0  0  0  0  0  0  0  0  0
   47.1019   33.2556   48.5692 H   0  0  0  0  0  0  0  0  0  0  0  0
   48.1810   30.8933   49.4104 H   0  0  0  0  0  0  0  0  0  0  0  0
   46.4514   31.0784   49.3818 H   0  0  0  0  0  0  0  0  0  0  0  0
   48.2854   30.0048   47.1128 H   0  0  0  0  0  0  0  0  0  0  0  0
   47.0013   29.1043   47.8595 H   0  0  0  0  0  0  0  0  0  0  0  0
   45.2910   30.7839   47.0294 H   0  0  0  0  0  0  0  0  0  0  0  0
   46.2572   30.3793   45.6402 H   0  0  0  0  0  0  0  0  0  0  0  0
  1  6  2  0
  2  1  1  0
  3  2  2  0
  3  4  1  0
  4  5  2  0
  5  6  1  0
  5 11  1  0
  7  8  1  0
  7  3  1  0
  9  7  1  0
 10  7  1  0
 11 13  1  0
 11 12  2  0
 13 14  1  0
 14 15  1  0
 16 15  1  0
 17 13  1  0
 17 16  1  0
  1 18  1  0
  2 19  1  0
 13 20  1  0
 14 21  1  0
 14 22  1  0
 15 23  1  0
 15 24  1  0
 16 25  1  0
 16 26  1  0
 17 27  1  0
 17 28  1  0
M  ISO  8  18  14  19  14  20  13  21  13  22  13  23  13  24  13  25  13
M  ISO  3  26  13  27  13  28  13
M  END
>  <minimizedAffinity>  (1) 
-5.49260807

>  <minimizedRMSD>  (1) 
1.41851127

$$$$
