
     RDKit          3D

 49 52  0  0  0  0  0  0  0  0999 V2000
   47.0542   34.8108   41.9454 C   0  0  2  0  0  0  0  0  0  0  0  0
   46.2947   34.1661   40.7863 C   0  0  0  0  0  0  0  0  0  0  0  0
   47.4980   34.0015   39.8303 C   0  0  0  0  0  0  0  0  0  0  0  0
   48.6430   33.6324   40.7211 C   0  0  1  0  0  0  0  0  0  0  0  0
   48.1413   33.7860   42.1251 C   0  0  0  0  0  0  0  0  0  0  0  0
   44.5357   35.9792   44.4925 C   0  0  0  0  0  0  0  0  0  0  0  0
   45.2668   35.9573   43.3099 C   0  0  0  0  0  0  0  0  0  0  0  0
   46.1928   34.9303   43.1569 C   0  0  0  0  0  0  0  0  0  0  0  0
   46.3621   33.9721   44.1669 N   0  0  0  0  0  0  0  0  0  0  0  0
   45.6182   34.0474   45.3001 C   0  0  0  0  0  0  0  0  0  0  0  0
   44.7101   35.0485   45.4575 N   0  0  0  0  0  0  0  0  0  0  0  0
   49.1252   32.2079   40.5677 C   0  0  2  0  0  0  0  0  0  0  0  0
   49.7738   31.6269   41.7393 C   0  0  0  0  0  0  0  0  0  0  0  0
   50.5487   31.8783   40.4909 C   0  0  1  0  0  0  0  0  0  0  0  0
   50.9139   30.7602   39.7014 O   0  0  0  0  0  0  0  0  0  0  0  0
   52.0193   30.2196   37.4015 O   0  0  0  0  0  0  0  0  0  0  0  0
   51.8752   31.3080   38.4349 P   0  0  1  0  0  0  0  0  0  0  0  0
   51.1344   32.6525   37.6716 O   0  0  0  0  0  0  0  0  0  0  0  0
   53.3935   31.7950   38.8998 O   0  0  0  0  0  0  0  0  0  0  0  0
   47.4242   35.7690   41.5868 H   0  0  0  0  0  0  0  0  0  0  0  0
   45.5439   34.8259   40.3632 H   0  0  0  0  0  0  0  0  0  0  0  0
   45.9794   33.1782   41.1148 H   0  0  0  0  0  0  0  0  0  0  0  0
   47.2511   33.2371   39.0764 H   0  0  0  0  0  0  0  0  0  0  0  0
   47.6286   35.0080   39.3932 H   0  0  0  0  0  0  0  0  0  0  0  0
   49.4730   34.3418   40.5179 H   0  0  0  0  0  0  0  0  0  0  0  0
   47.7812   32.8766   42.5997 H   0  0  0  0  0  0  0  0  0  0  0  0
   48.9610   34.2864   42.7163 H   0  0  0  0  0  0  0  0  0  0  0  0
   43.8074   36.7667   44.6390 H   0  0  0  0  0  0  0  0  0  0  0  0
   45.1601   36.6793   42.5148 H   0  0  0  0  0  0  0  0  0  0  0  0
   45.8260   33.2620   46.0144 H   0  0  0  0  0  0  0  0  0  0  0  0
   48.4307   31.5704   39.9937 H   0  0  0  0  0  0  0  0  0  0  0  0
   49.9720   32.2758   42.6229 H   0  0  0  0  0  0  0  0  0  0  0  0
   49.5266   30.5861   42.0392 H   0  0  0  0  0  0  0  0  0  0  0  0
   51.2861   32.7001   40.4026 H   0  0  0  0  0  0  0  0  0  0  0  0
   51.2997   33.4227   38.2935 H   0  0  0  0  0  0  0  0  0  0  0  0
   53.7658   30.9914   39.9931 C   0  0  0  0  0  0  0  0  0  0  0  0
   54.4690   31.8024   41.0504 C   0  0  0  0  0  0  0  0  0  0  0  0
   55.9154   31.3491   41.0174 C   0  0  0  0  0  0  0  0  0  0  0  0
   56.0772   30.6593   39.6815 C   0  0  0  0  0  0  0  0  0  0  0  0
   54.7579   29.9281   39.5678 C   0  0  0  0  0  0  0  0  0  0  0  0
   52.9093   30.4602   40.4225 H   0  0  0  0  0  0  0  0  0  0  0  0
   54.0788   31.5923   42.0671 H   0  0  0  0  0  0  0  0  0  0  0  0
   54.4242   32.8734   40.7977 H   0  0  0  0  0  0  0  0  0  0  0  0
   56.1650   30.6707   41.8419 H   0  0  0  0  0  0  0  0  0  0  0  0
   56.5846   32.2314   41.0231 H   0  0  0  0  0  0  0  0  0  0  0  0
   56.1909   31.3770   38.8504 H   0  0  0  0  0  0  0  0  0  0  0  0
   56.9203   29.9278   39.7171 H   0  0  0  0  0  0  0  0  0  0  0  0
   54.7361   29.1384   40.3612 H   0  0  0  0  0  0  0  0  0  0  0  0
   54.5470   29.5205   38.5775 H   0  0  0  0  0  0  0  0  0  0  0  0
  1  5  1  0
  1  8  1  0
  2  1  1  0
  3  4  1  0
  3  2  1  0
  4  5  1  0
  6 11  2  0
  7  6  1  0
  8  7  2  0
  8  9  1  0
  9 10  2  0
 10 11  1  0
 12  4  1  0
 12 13  1  0
 14 12  1  0
 14 13  1  0
 15 14  1  0
 16 17  2  0
 17 19  1  1
 17 15  1  0
 18 17  1  0
  1 20  1  6
  2 21  1  0
  2 22  1  0
  3 23  1  0
  3 24  1  0
  4 25  1  1
  5 26  1  0
  5 27  1  0
  6 28  1  0
  7 29  1  0
 10 30  1  0
 12 31  1  6
 13 32  1  0
 13 33  1  0
 14 34  1  1
 18 35  1  0
 36 37  1  0
 37 38  1  0
 38 39  1  0
 39 40  1  0
 40 36  1  0
 36 41  1  0
 37 42  1  0
 37 43  1  0
 38 44  1  0
 38 45  1  0
 39 46  1  0
 39 47  1  0
 40 48  1  0
 40 49  1  0
 19 36  1  0
M  ISO  8  20  13  21  13  22  13  23  13  24  13  25  13  26  13  27  13
M  ISO  8  28  14  29  14  30  14  31  13  32  13  33  13  34  13  35   3
M  END
>  <DihAtoms>  (1) 
16,18,35,36

>  <DihDeg>  (1) 
-124.23307065090272

$$$$
