
     RDKit          3D

 49 52  0  0  1  0  0  0  0  0999 V2000
   48.0260   34.6620   41.9650 C   0  0  2  0  0  0  0  0  0  0  0  0
   46.7140   33.8840   42.2470 C   0  0  1  0  0  0  0  0  0  0  0  0
   47.2460   32.6670   42.5610 O   0  0  0  0  0  0  0  0  0  0  0  0
   48.1210   32.3950   41.4900 C   0  0  0  0  0  0  0  0  0  0  0  0
   48.5070   33.7490   40.8580 C   0  0  1  0  0  0  0  0  0  0  0  0
   44.5170   36.0630   44.4570 C   0  0  0  0  0  0  0  0  0  0  0  0
   45.1820   35.6770   43.2900 C   0  0  0  0  0  0  0  0  0  0  0  0
   45.9420   34.5270   43.3180 C   0  0  0  0  0  0  0  0  0  0  0  0
   45.9950   33.8310   44.5050 N   0  0  0  0  0  0  0  0  0  0  0  0
   45.3420   34.2280   45.6120 C   0  0  0  0  0  0  0  0  0  0  0  0
   44.6030   35.3480   45.5830 N   0  0  0  0  0  0  0  0  0  0  0  0
   48.9060   34.5230   43.0010 O   0  0  0  0  0  0  0  0  0  0  0  0
   47.7520   33.9110   39.7350 O   0  0  0  0  0  0  0  0  0  0  0  0
   49.1600   32.9430   38.1120 C   0  0  1  0  0  0  0  0  0  0  0  0
   48.4500   34.3090   38.5960 C   0  0  1  0  0  0  0  0  0  0  0  0
   47.5930   34.4410   37.5670 O   0  0  0  0  0  0  0  0  0  0  0  0
   46.8810   33.2150   37.6840 C   0  0  0  0  0  0  0  0  0  0  0  0
   47.9970   32.2050   37.5300 C   0  0  1  0  0  0  0  0  0  0  0  0
   49.9850   33.3370   37.0550 O   0  0  0  0  0  0  0  0  0  0  0  0
   48.1600   31.9410   36.1850 O   0  0  0  0  0  0  0  0  0  0  0  0
   47.0130   31.5740   35.5260 C   0  0  0  0  0  0  0  0  0  0  0  0
   46.7210   30.0920   35.5500 C   0  0  0  0  0  0  0  0  0  0  0  0
   47.2250   29.5370   34.2450 C   0  0  0  0  0  0  0  0  0  0  0  0
   47.0920   30.6700   33.2760 C   0  0  0  0  0  0  0  0  0  0  0  0
   46.9740   31.9380   34.0630 C   0  0  0  0  0  0  0  0  0  0  0  0
   47.9222   35.7411   41.7785 H   0  0  0  0  0  0  0  0  0  0  0  0
   45.9731   33.8342   41.4355 H   0  0  0  0  0  0  0  0  0  0  0  0
   49.0210   31.8820   41.8601 H   0  0  0  0  0  0  0  0  0  0  0  0
   47.6376   31.7425   40.7481 H   0  0  0  0  0  0  0  0  0  0  0  0
   49.5563   33.8942   40.5615 H   0  0  0  0  0  0  0  0  0  0  0  0
   43.9073   36.9785   44.4487 H   0  0  0  0  0  0  0  0  0  0  0  0
   45.1010   36.2763   42.3712 H   0  0  0  0  0  0  0  0  0  0  0  0
   45.4134   33.6372   46.5371 H   0  0  0  0  0  0  0  0  0  0  0  0
   48.4195   34.5998   43.8598 H   0  0  0  0  0  0  0  0  0  0  0  0
   49.7213   32.3750   38.8685 H   0  0  0  0  0  0  0  0  0  0  0  0
   49.0535   35.2034   38.8101 H   0  0  0  0  0  0  0  0  0  0  0  0
   46.3909   33.1265   38.6648 H   0  0  0  0  0  0  0  0  0  0  0  0
   46.0651   33.0978   36.9556 H   0  0  0  0  0  0  0  0  0  0  0  0
   47.8380   31.2309   38.0156 H   0  0  0  0  0  0  0  0  0  0  0  0
   50.8168   33.7343   37.4160 H   0  0  0  0  0  0  0  0  0  0  0  0
   46.2678   32.1450   36.0993 H   0  0  0  0  0  0  0  0  0  0  0  0
   47.2429   29.6153   36.3928 H   0  0  0  0  0  0  0  0  0  0  0  0
   45.6451   29.9001   35.6753 H   0  0  0  0  0  0  0  0  0  0  0  0
   48.2759   29.2251   34.3358 H   0  0  0  0  0  0  0  0  0  0  0  0
   46.6631   28.6469   33.9256 H   0  0  0  0  0  0  0  0  0  0  0  0
   46.1933   30.5291   32.6575 H   0  0  0  0  0  0  0  0  0  0  0  0
   47.9684   30.7113   32.6126 H   0  0  0  0  0  0  0  0  0  0  0  0
   47.8118   32.6085   33.8212 H   0  0  0  0  0  0  0  0  0  0  0  0
   46.0351   32.4569   33.8197 H   0  0  0  0  0  0  0  0  0  0  0  0
  1  2  1  0
  1 12  1  0
  2  3  1  0
  2  8  1  0
  4  3  1  0
  5  4  1  0
  5  1  1  0
  6 11  2  0
  7  8  2  0
  7  6  1  0
  8  9  1  0
  9 10  2  0
 11 10  1  0
 13  5  1  0
 14 15  1  0
 15 13  1  0
 16 17  1  0
 16 15  1  0
 18 17  1  0
 18 14  1  0
 19 14  1  0
 20 18  1  0
 21 22  1  0
 21 20  1  0
 23 22  1  0
 24 25  1  0
 24 23  1  0
 25 21  1  0
  1 26  1  6
  2 27  1  6
  4 28  1  0
  4 29  1  0
  5 30  1  6
  6 31  1  0
  7 32  1  0
 10 33  1  0
 12 34  1  0
 14 35  1  1
 15 36  1  1
 17 37  1  0
 17 38  1  0
 18 39  1  1
 19 40  1  0
 21 41  1  0
 22 42  1  0
 22 43  1  0
 23 44  1  0
 23 45  1  0
 24 46  1  0
 24 47  1  0
 25 48  1  0
 25 49  1  0
M  ISO  8  26  13  27  13  28  13  29  13  30  13  31  14  32  14  33  14
M  ISO  8  34   3  35  13  36  13  37  13  38  13  39  13  40   3  41  13
M  ISO  8  42  13  43  13  44  13  45  13  46  13  47  13  48  13  49  13
M  END
>  <minimizedAffinity>  (1) 
-5.38784218

>  <minimizedRMSD>  (1) 
1.45515203

$$$$
