
     RDKit          3D

 39 42  0  0  0  0  0  0  0  0999 V2000
   46.0585   31.6913   45.1457 C   0  0  0  0  0  0  0  0  0  0  0  0
   45.8067   33.0069   45.5382 C   0  0  0  0  0  0  0  0  0  0  0  0
   45.5226   33.2821   46.8504 C   0  0  0  0  0  0  0  0  0  0  0  0
   45.4891   32.2533   47.7681 C   0  0  0  0  0  0  0  0  0  0  0  0
   45.2488   32.1964   49.0839 N   0  0  0  0  0  0  0  0  0  0  0  0
   45.3295   30.9476   49.5508 C   0  0  0  0  0  0  0  0  0  0  0  0
   45.6426   30.1184   48.4840 C   0  0  0  0  0  0  0  0  0  0  0  0
   45.7393   30.9402   47.3816 C   0  0  0  0  0  0  0  0  0  0  0  0
   46.0254   30.6687   46.0563 C   0  0  0  0  0  0  0  0  0  0  0  0
   46.8934   34.9249   42.6322 C   0  0  0  0  0  0  0  0  0  0  0  0
   45.9715   35.9664   42.5492 C   0  0  0  0  0  0  0  0  0  0  0  0
   44.9609   36.0057   43.5110 C   0  0  0  0  0  0  0  0  0  0  0  0
   44.9354   35.0392   44.4593 N   0  0  0  0  0  0  0  0  0  0  0  0
   45.8620   34.0370   44.5001 C   0  0  0  0  0  0  0  0  0  0  0  0
   46.8362   33.9862   43.5853 N   0  0  0  0  0  0  0  0  0  0  0  0
   47.9049   34.9470   41.6106 C   0  0  0  0  0  0  0  0  0  0  0  0
   48.8162   35.8106   41.4682 O   0  0  0  0  0  0  0  0  0  0  0  0
   46.2899   31.4210   44.1098 H   0  0  0  0  0  0  0  0  0  0  0  0
   45.3269   34.2956   47.1627 H   0  0  0  0  0  0  0  0  0  0  0  0
   45.0236   33.0172   49.6907 H   0  0  0  0  0  0  0  0  0  0  0  0
   45.1819   30.6016   50.5820 H   0  0  0  0  0  0  0  0  0  0  0  0
   45.7853   29.0567   48.4878 H   0  0  0  0  0  0  0  0  0  0  0  0
   46.2199   29.6438   45.7596 H   0  0  0  0  0  0  0  0  0  0  0  0
   45.9545   36.7499   41.8177 H   0  0  0  0  0  0  0  0  0  0  0  0
   44.2005   36.7810   43.5225 H   0  0  0  0  0  0  0  0  0  0  0  0
   47.9363   33.8644   40.5802 C   0  0  0  0  0  0  0  0  0  0  0  0
   48.8069   34.2381   39.4089 C   0  0  0  0  0  0  0  0  0  0  0  0
   49.5148   32.9645   39.0601 C   0  0  0  0  0  0  0  0  0  0  0  0
   49.1118   31.9041   40.0335 C   0  0  0  0  0  0  0  0  0  0  0  0
   48.5828   32.6507   41.2153 C   0  0  0  0  0  0  0  0  0  0  0  0
   46.9367   33.5845   40.2258 H   0  0  0  0  0  0  0  0  0  0  0  0
   48.2150   34.6254   38.5546 H   0  0  0  0  0  0  0  0  0  0  0  0
   49.5267   35.0396   39.6607 H   0  0  0  0  0  0  0  0  0  0  0  0
   50.6199   33.1406   39.1177 H   0  0  0  0  0  0  0  0  0  0  0  0
   49.2133   32.6126   38.0498 H   0  0  0  0  0  0  0  0  0  0  0  0
   48.3277   31.2202   39.6684 H   0  0  0  0  0  0  0  0  0  0  0  0
   50.0023   31.3115   40.3933 H   0  0  0  0  0  0  0  0  0  0  0  0
   49.4105   33.0460   41.8725 H   0  0  0  0  0  0  0  0  0  0  0  0
   47.8087   32.1164   41.7901 H   0  0  0  0  0  0  0  0  0  0  0  0
  1  2  2  0
  1  9  1  0
  2  3  1  0
  3  4  2  0
  4  5  1  0
  5  6  1  0
  7  6  2  0
  8  4  1  0
  8  7  1  0
  9  8  2  0
 10 15  1  0
 11 10  2  0
 11 12  1  0
 12 13  2  0
 13 14  1  0
 14  2  1  0
 15 14  2  0
 16 10  1  0
 17 16  2  0
  1 18  1  0
  3 19  1  0
  5 20  1  0
  6 21  1  0
  7 22  1  0
  9 23  1  0
 11 24  1  0
 12 25  1  0
 26 27  1  0
 27 28  1  0
 28 29  1  0
 29 30  1  0
 30 26  1  0
 26 31  1  0
 27 32  1  0
 27 33  1  0
 28 34  1  0
 28 35  1  0
 29 36  1  0
 29 37  1  0
 30 38  1  0
 30 39  1  0
 16 26  1  0
M  ISO  8  18  14  19  14  20   9  21  14  22  14  23  14  24  14  25  14
M  END
>  <DihAtoms>  (1) 
9,15,25,26

>  <DihDeg>  (1) 
179.98721002146806

$$$$
