
     RDKit          3D

 39 41  0  0  0  0  0  0  0  0999 V2000
   46.0591   34.3245   41.5346 N   0  0  0  0  0  0  0  0  0  0  0  0
   45.1086   34.0638   40.4905 C   0  0  0  0  0  0  0  0  0  0  0  0
   45.6944   33.2126   39.3900 C   0  0  0  0  0  0  0  0  0  0  0  0
   46.9408   33.6793   38.8834 N   0  0  0  0  0  0  0  0  0  0  0  0
   47.7737   34.3412   39.7885 C   0  0  0  0  0  0  0  0  0  0  0  0
   47.4499   34.2311   41.2397 C   0  0  1  0  0  0  0  0  0  0  0  0
   44.6151   36.0603   44.5030 C   0  0  0  0  0  0  0  0  0  0  0  0
   44.9909   35.8787   43.1543 C   0  0  0  0  0  0  0  0  0  0  0  0
   45.6160   34.6647   42.8307 C   0  0  0  0  0  0  0  0  0  0  0  0
   45.8131   33.7466   43.8506 N   0  0  0  0  0  0  0  0  0  0  0  0
   45.4261   33.9912   45.1180 C   0  0  0  0  0  0  0  0  0  0  0  0
   44.8274   35.1466   45.4463 N   0  0  0  0  0  0  0  0  0  0  0  0
   48.2063   35.2478   41.9793 C   0  0  0  0  0  0  0  0  0  0  0  0
   48.9366   36.0636   41.3722 O   0  0  0  0  0  0  0  0  0  0  0  0
   44.2883   33.4449   40.9394 H   0  0  0  0  0  0  0  0  0  0  0  0
   44.6215   34.9463   40.0748 H   0  0  0  0  0  0  0  0  0  0  0  0
   45.8450   32.1534   39.7179 H   0  0  0  0  0  0  0  0  0  0  0  0
   44.9328   33.1561   38.5862 H   0  0  0  0  0  0  0  0  0  0  0  0
   47.4041   32.9218   38.3567 H   0  0  0  0  0  0  0  0  0  0  0  0
   48.8378   34.0535   39.6524 H   0  0  0  0  0  0  0  0  0  0  0  0
   47.7405   35.4378   39.5485 H   0  0  0  0  0  0  0  0  0  0  0  0
   47.7378   33.1826   41.5198 H   0  0  0  0  0  0  0  0  0  0  0  0
   44.1355   37.0349   44.6617 H   0  0  0  0  0  0  0  0  0  0  0  0
   44.8354   36.5923   42.3689 H   0  0  0  0  0  0  0  0  0  0  0  0
   45.6377   33.1999   45.8070 H   0  0  0  0  0  0  0  0  0  0  0  0
   48.5388   35.8186   43.3046 C   0  0  0  0  0  0  0  0  0  0  0  0
   47.3131   35.9889   44.1966 C   0  0  0  0  0  0  0  0  0  0  0  0
   46.7849   37.3584   43.8545 C   0  0  0  0  0  0  0  0  0  0  0  0
   48.0769   38.1413   43.9478 C   0  0  0  0  0  0  0  0  0  0  0  0
   49.0427   37.2376   43.2203 C   0  0  0  0  0  0  0  0  0  0  0  0
   49.1808   35.1639   43.8898 H   0  0  0  0  0  0  0  0  0  0  0  0
   46.5356   35.2537   44.0261 H   0  0  0  0  0  0  0  0  0  0  0  0
   47.6004   35.9793   45.2682 H   0  0  0  0  0  0  0  0  0  0  0  0
   46.4294   37.3868   42.8084 H   0  0  0  0  0  0  0  0  0  0  0  0
   46.0581   37.7132   44.5847 H   0  0  0  0  0  0  0  0  0  0  0  0
   47.8882   39.0897   43.4168 H   0  0  0  0  0  0  0  0  0  0  0  0
   48.3795   38.3143   44.9969 H   0  0  0  0  0  0  0  0  0  0  0  0
   49.0846   37.6277   42.1845 H   0  0  0  0  0  0  0  0  0  0  0  0
   50.0197   37.3347   43.7455 H   0  0  0  0  0  0  0  0  0  0  0  0
  1  9  1  0
  2  1  1  0
  3  2  1  0
  4  3  1  0
  4  5  1  0
  5  6  1  0
  6  1  1  0
  6 13  1  0
  7 12  2  0
  8  7  1  0
  9  8  2  0
  9 10  1  0
 10 11  2  0
 11 12  1  0
 14 13  2  0
  2 15  1  0
  2 16  1  0
  3 17  1  0
  3 18  1  0
  4 19  1  0
  5 20  1  0
  5 21  1  0
  6 22  1  1
  7 23  1  0
  8 24  1  0
 11 25  1  0
 26 27  1  0
 27 28  1  0
 28 29  1  0
 29 30  1  0
 30 26  1  0
 26 31  1  0
 27 32  1  0
 27 33  1  0
 28 34  1  0
 28 35  1  0
 29 36  1  0
 29 37  1  0
 30 38  1  0
 30 39  1  0
 13 26  1  0
M  ISO  8  15  13  16  13  17  13  18  13  19   5  20  13  21  13  22  13
M  ISO  3  23  14  24  14  25  14
M  END
>  <DihAtoms>  (1) 
5,12,25,26

>  <DihDeg>  (1) 
-179.35070100683672

$$$$
