
     RDKit          3D

 32 33  0  0  0  0  0  0  0  0999 V2000
   47.1700   33.9658   42.4866 C   0  0  0  0  0  0  0  0  0  0  0  0
   45.2942   34.2314   45.6906 C   0  0  0  0  0  0  0  0  0  0  0  0
   46.1668   33.7455   44.7101 C   0  0  0  0  0  0  0  0  0  0  0  0
   46.2593   34.4655   43.5202 C   0  0  0  0  0  0  0  0  0  0  0  0
   45.5016   35.5987   43.3705 N   0  0  0  0  0  0  0  0  0  0  0  0
   44.6706   36.0319   44.3455 C   0  0  0  0  0  0  0  0  0  0  0  0
   44.5758   35.3477   45.4894 N   0  0  0  0  0  0  0  0  0  0  0  0
   48.3218   33.4170   43.0244 O   0  0  0  0  0  0  0  0  0  0  0  0
   50.6656   33.1142   41.9009 O   0  0  0  0  0  0  0  0  0  0  0  0
   49.6271   34.1431   42.2165 P   0  0  2  0  0  0  0  0  0  0  0  0
   50.2106   35.3501   43.2486 O   0  0  0  0  0  0  0  0  0  0  0  0
   49.0575   34.8151   40.7836 O   0  0  0  0  0  0  0  0  0  0  0  0
   47.3674   34.8103   41.7736 H   0  0  0  0  0  0  0  0  0  0  0  0
   46.6174   33.1993   41.8715 H   0  0  0  0  0  0  0  0  0  0  0  0
   45.1590   33.7347   46.6477 H   0  0  0  0  0  0  0  0  0  0  0  0
   46.7247   32.8416   44.9184 H   0  0  0  0  0  0  0  0  0  0  0  0
   44.1657   36.9377   44.0335 H   0  0  0  0  0  0  0  0  0  0  0  0
   50.7012   34.9191   43.9943 H   0  0  0  0  0  0  0  0  0  0  0  0
   49.9102   35.8360   40.3861 C   0  0  0  0  0  0  0  0  0  0  0  0
   51.3096   35.3356   40.0909 C   0  0  0  0  0  0  0  0  0  0  0  0
   51.9089   36.5387   39.3937 C   0  0  0  0  0  0  0  0  0  0  0  0
   50.7524   37.2508   38.7245 C   0  0  0  0  0  0  0  0  0  0  0  0
   49.5247   36.3768   39.0122 C   0  0  0  0  0  0  0  0  0  0  0  0
   49.9773   36.6284   41.1319 H   0  0  0  0  0  0  0  0  0  0  0  0
   51.1999   34.4981   39.3858 H   0  0  0  0  0  0  0  0  0  0  0  0
   51.8498   35.0727   41.0209 H   0  0  0  0  0  0  0  0  0  0  0  0
   52.3808   37.1889   40.1767 H   0  0  0  0  0  0  0  0  0  0  0  0
   52.6749   36.2157   38.6491 H   0  0  0  0  0  0  0  0  0  0  0  0
   50.9236   37.2896   37.6428 H   0  0  0  0  0  0  0  0  0  0  0  0
   50.5818   38.2650   39.1841 H   0  0  0  0  0  0  0  0  0  0  0  0
   49.5096   35.5131   38.3264 H   0  0  0  0  0  0  0  0  0  0  0  0
   48.6115   36.9761   39.0174 H   0  0  0  0  0  0  0  0  0  0  0  0
  1  8  1  0
  1  4  1  0
  3  2  2  0
  4  3  1  0
  5  4  2  0
  5  6  1  0
  6  7  2  0
  7  2  1  0
  9 10  2  0
 10  8  1  1
 10 11  1  0
 12 10  1  0
  1 13  1  0
  1 14  1  0
  2 15  1  0
  3 16  1  0
  6 17  1  0
 11 18  1  0
 19 20  1  0
 20 21  1  0
 21 22  1  0
 22 23  1  0
 23 19  1  0
 19 24  1  0
 20 25  1  0
 20 26  1  0
 21 27  1  0
 21 28  1  0
 22 29  1  0
 22 30  1  0
 23 31  1  0
 23 32  1  0
 12 19  1  0
M  ISO  6  13   8  14   8  15  14  16  14  17  14  18   3
M  END
>  <DihAtoms>  (1) 
9,11,18,19

>  <DihDeg>  (1) 
122.43306873354011

$$$$
