
     RDKit          3D

 24 25  0  0  0  0  0  0  0  0999 V2000
   44.5520   35.5520   45.0770 C   0  0  0  0  0  0  0  0  0  0  0  0
   45.0910   35.7450   43.7960 C   0  0  0  0  0  0  0  0  0  0  0  0
   46.0710   34.8380   43.3760 C   0  0  0  0  0  0  0  0  0  0  0  0
   46.4420   33.8350   44.2140 N   0  0  0  0  0  0  0  0  0  0  0  0
   45.8950   33.6820   45.4480 C   0  0  0  0  0  0  0  0  0  0  0  0
   44.9410   34.5580   45.8680 N   0  0  0  0  0  0  0  0  0  0  0  0
   46.6690   34.9990   42.0370 C   0  0  0  0  0  0  0  0  0  0  0  0
   48.1180   35.3660   42.0410 C   0  0  0  0  0  0  0  0  0  0  0  0
   48.5320   35.1090   40.6080 C   0  0  0  0  0  0  0  0  0  0  0  0
   47.4580   34.2060   40.0010 C   0  0  0  0  0  0  0  0  0  0  0  0
   46.6500   33.7310   41.2160 C   0  0  0  0  0  0  0  0  0  0  0  0
   44.7160   36.7690   42.9370 O   0  0  0  0  0  0  0  0  0  0  0  0
   43.7807   36.2478   45.4389 H   0  0  0  0  0  0  0  0  0  0  0  0
   46.2195   32.8587   46.1013 H   0  0  0  0  0  0  0  0  0  0  0  0
   46.0409   35.7996   41.6192 H   0  0  0  0  0  0  0  0  0  0  0  0
   48.2584   36.4232   42.3106 H   0  0  0  0  0  0  0  0  0  0  0  0
   48.7095   34.7979   42.7741 H   0  0  0  0  0  0  0  0  0  0  0  0
   48.5893   36.0571   40.0532 H   0  0  0  0  0  0  0  0  0  0  0  0
   49.5237   34.6356   40.5593 H   0  0  0  0  0  0  0  0  0  0  0  0
   46.8213   34.7691   39.3028 H   0  0  0  0  0  0  0  0  0  0  0  0
   47.8809   33.3736   39.4194 H   0  0  0  0  0  0  0  0  0  0  0  0
   45.6270   33.4364   40.9391 H   0  0  0  0  0  0  0  0  0  0  0  0
   47.0460   32.8385   41.7226 H   0  0  0  0  0  0  0  0  0  0  0  0
   45.1383   36.8464   42.0449 H   0  0  0  0  0  0  0  0  0  0  0  0
  1  6  2  0
  2  1  1  0
  3  2  2  0
  3  4  1  0
  4  5  2  0
  5  6  1  0
  7  8  1  0
  7  3  1  0
  9  8  1  0
 10  9  1  0
 10 11  1  0
 11  7  1  0
 12  2  1  0
  1 13  1  0
  5 14  1  0
  7 15  1  0
  8 16  1  0
  8 17  1  0
  9 18  1  0
  9 19  1  0
 10 20  1  0
 10 21  1  0
 11 22  1  0
 11 23  1  0
 12 24  1  0
M  ISO  8  13  14  14  14  15  13  16  13  17  13  18  13  19  13  20  13
M  ISO  4  21  13  22  13  23  13  24   3
M  END
>  <minimizedAffinity>  (1) 
-4.89376354

>  <minimizedRMSD>  (1) 
0.774451017

$$$$
