
     RDKit          3D

 32 34  0  0  0  0  0  0  0  0999 V2000
   46.0835   34.7499   43.3858 C   0  0  0  0  0  0  0  0  0  0  0  0
   45.1853   35.7661   43.7820 C   0  0  0  0  0  0  0  0  0  0  0  0
   44.5623   35.6521   45.0496 C   0  0  0  0  0  0  0  0  0  0  0  0
   44.8756   34.5627   45.8031 N   0  0  0  0  0  0  0  0  0  0  0  0
   45.7530   33.6193   45.3555 C   0  0  0  0  0  0  0  0  0  0  0  0
   46.3468   33.7049   44.1744 N   0  0  0  0  0  0  0  0  0  0  0  0
   46.6528   34.9727   42.1022 C   0  0  0  0  0  0  0  0  0  0  0  0
   47.8306   35.3965   41.8871 O   0  0  0  0  0  0  0  0  0  0  0  0
   46.0595   32.4553   46.2513 C   0  0  1  0  0  0  0  0  0  0  0  0
   47.0015   32.6324   47.3996 C   0  0  0  0  0  0  0  0  0  0  0  0
   45.5322   32.6161   47.6415 C   0  0  2  0  0  0  0  0  0  0  0  0
   44.9379   36.6318   43.1808 H   0  0  0  0  0  0  0  0  0  0  0  0
   43.8659   36.3977   45.4076 H   0  0  0  0  0  0  0  0  0  0  0  0
   46.2020   34.8269   41.1086 H   0  0  0  0  0  0  0  0  0  0  0  0
   46.0492   31.4673   45.7527 H   0  0  0  0  0  0  0  0  0  0  0  0
   47.6028   31.7393   47.6576 H   0  0  0  0  0  0  0  0  0  0  0  0
   47.5877   33.5569   47.3595 H   0  0  0  0  0  0  0  0  0  0  0  0
   45.1026   33.6075   47.9466 H   0  0  0  0  0  0  0  0  0  0  0  0
   45.0185   31.4658   48.4315 C   0  0  0  0  0  0  0  0  0  0  0  0
   43.6556   30.9904   47.9929 C   0  0  0  0  0  0  0  0  0  0  0  0
   43.3010   30.0235   49.1262 C   0  0  0  0  0  0  0  0  0  0  0  0
   44.2285   30.3310   50.2736 C   0  0  0  0  0  0  0  0  0  0  0  0
   44.8161   31.6973   49.8900 C   0  0  0  0  0  0  0  0  0  0  0  0
   45.6968   30.6039   48.2993 H   0  0  0  0  0  0  0  0  0  0  0  0
   43.6914   30.4144   47.0390 H   0  0  0  0  0  0  0  0  0  0  0  0
   42.9094   31.7912   47.9720 H   0  0  0  0  0  0  0  0  0  0  0  0
   42.2378   30.1675   49.4348 H   0  0  0  0  0  0  0  0  0  0  0  0
   43.4232   28.9735   48.7729 H   0  0  0  0  0  0  0  0  0  0  0  0
   45.1008   29.6180   50.2031 H   0  0  0  0  0  0  0  0  0  0  0  0
   43.7624   30.3267   51.2603 H   0  0  0  0  0  0  0  0  0  0  0  0
   45.7017   31.9118   50.4809 H   0  0  0  0  0  0  0  0  0  0  0  0
   44.0310   32.4519   50.1065 H   0  0  0  0  0  0  0  0  0  0  0  0
  1  2  2  0
  1  6  1  0
  2  3  1  0
  3  4  2  0
  5  4  1  0
  5  9  1  0
  6  5  2  0
  7  1  1  0
  8  7  2  0
  9 10  1  0
  9 11  1  0
 10 11  1  0
  2 12  1  0
  3 13  1  0
  7 14  1  0
  9 15  1  6
 10 16  1  0
 10 17  1  0
 11 18  1  6
 19 20  1  0
 20 21  1  0
 21 22  1  0
 22 23  1  0
 23 19  1  0
 19 24  1  0
 20 25  1  0
 20 26  1  0
 21 27  1  0
 21 28  1  0
 22 29  1  0
 22 30  1  0
 23 31  1  0
 23 32  1  0
 11 19  1  0
M  ISO  7  12  14  13  14  14   6  15  13  16  13  17  13  18  13
M  END
>  <DihAtoms>  (1) 
8,10,18,19

>  <DihDeg>  (1) 
59.90306765587917

$$$$
