
     RDKit          3D

 26 27  0  0  0  0  0  0  0  0999 V2000
   44.5624   36.0050   44.4987 C   0  0  0  0  0  0  0  0  0  0  0  0
   45.3021   35.9288   43.2932 C   0  0  0  0  0  0  0  0  0  0  0  0
   46.1928   34.8621   43.1679 C   0  0  0  0  0  0  0  0  0  0  0  0
   46.3083   33.9580   44.1936 N   0  0  0  0  0  0  0  0  0  0  0  0
   45.5673   34.0908   45.3244 C   0  0  0  0  0  0  0  0  0  0  0  0
   44.7056   35.1003   45.4762 N   0  0  0  0  0  0  0  0  0  0  0  0
   46.9634   34.7701   41.9290 C   0  0  0  0  0  0  0  0  0  0  0  0
   43.8668   36.8145   44.6286 H   0  0  0  0  0  0  0  0  0  0  0  0
   45.1647   36.6746   42.5216 H   0  0  0  0  0  0  0  0  0  0  0  0
   45.7433   33.3196   46.0621 H   0  0  0  0  0  0  0  0  0  0  0  0
   47.6025   35.6562   41.7938 H   0  0  0  0  0  0  0  0  0  0  0  0
   46.2841   34.5830   41.0594 H   0  0  0  0  0  0  0  0  0  0  0  0
   47.8412   33.5423   42.0455 C   0  0  0  0  0  0  0  0  0  0  0  0
   47.1930   32.4895   42.9068 C   0  0  0  0  0  0  0  0  0  0  0  0
   47.2892   31.1793   42.1453 C   0  0  0  0  0  0  0  0  0  0  0  0
   48.4757   31.4660   41.2144 C   0  0  0  0  0  0  0  0  0  0  0  0
   48.0431   32.8438   40.7383 C   0  0  0  0  0  0  0  0  0  0  0  0
   48.8269   33.8775   42.4404 H   0  0  0  0  0  0  0  0  0  0  0  0
   46.1619   32.7514   43.1937 H   0  0  0  0  0  0  0  0  0  0  0  0
   47.8681   32.3549   43.7989 H   0  0  0  0  0  0  0  0  0  0  0  0
   47.4574   30.3057   42.7763 H   0  0  0  0  0  0  0  0  0  0  0  0
   46.4084   31.0790   41.4522 H   0  0  0  0  0  0  0  0  0  0  0  0
   48.5623   30.7348   40.4154 H   0  0  0  0  0  0  0  0  0  0  0  0
   49.3998   31.6115   41.8085 H   0  0  0  0  0  0  0  0  0  0  0  0
   48.8079   33.3137   40.0928 H   0  0  0  0  0  0  0  0  0  0  0  0
   47.0510   32.7665   40.2185 H   0  0  0  0  0  0  0  0  0  0  0  0
  1  6  2  0
  2  1  1  0
  3  2  2  0
  3  4  1  0
  4  5  2  0
  5  6  1  0
  7  3  1  0
  1  8  1  0
  2  9  1  0
  5 10  1  0
  7 11  1  0
  7 12  1  0
 13 14  1  0
 14 15  1  0
 15 16  1  0
 16 17  1  0
 17 13  1  0
 13 18  1  0
 14 19  1  0
 14 20  1  0
 15 21  1  0
 15 22  1  0
 16 23  1  0
 16 24  1  0
 17 25  1  0
 17 26  1  0
  7 13  1  0
M  ISO  5   8  14   9  14  10  14  11   8  12   8
M  END
>  <DihAtoms>  (1) 
2,6,12,13

>  <DihDeg>  (1) 
59.99723585598789

$$$$
