
     RDKit          3D

 41 44  0  0  0  0  0  0  0  0999 V2000
   44.3924   34.7140   43.2182 C   0  0  1  0  0  0  0  0  0  0  0  0
   44.8980   36.1265   42.8031 C   0  0  0  0  0  0  0  0  0  0  0  0
   44.4663   35.0708   41.8154 C   0  0  2  0  0  0  0  0  0  0  0  0
   45.4326   33.8996   43.8851 C   0  0  0  0  0  0  0  0  0  0  0  0
   46.5450   33.4401   43.1128 C   0  0  0  0  0  0  0  0  0  0  0  0
   47.5293   32.6795   43.7298 C   0  0  0  0  0  0  0  0  0  0  0  0
   47.3742   32.4132   45.0535 N   0  0  0  0  0  0  0  0  0  0  0  0
   46.3152   32.8595   45.7577 C   0  0  0  0  0  0  0  0  0  0  0  0
   45.3506   33.6035   45.1562 N   0  0  0  0  0  0  0  0  0  0  0  0
   46.3254   32.4636   47.2114 C   0  0  0  0  0  0  0  0  0  0  0  0
   45.3063   33.0438   47.9162 F   0  0  0  0  0  0  0  0  0  0  0  0
   47.5361   32.8987   47.7865 F   0  0  0  0  0  0  0  0  0  0  0  0
   46.3608   31.0883   47.2963 F   0  0  0  0  0  0  0  0  0  0  0  0
   43.1251   35.2413   41.1509 C   0  0  0  0  0  0  0  0  0  0  0  0
   42.9740   35.0698   39.7885 C   0  0  0  0  0  0  0  0  0  0  0  0
   41.7654   35.2119   39.1413 C   0  0  0  0  0  0  0  0  0  0  0  0
   40.7033   35.5319   39.8946 N   0  0  0  0  0  0  0  0  0  0  0  0
   40.8265   35.7055   41.2337 C   0  0  0  0  0  0  0  0  0  0  0  0
   42.0218   35.5635   41.8628 N   0  0  0  0  0  0  0  0  0  0  0  0
   43.4120   34.7411   43.7772 H   0  0  0  0  0  0  0  0  0  0  0  0
   45.9591   36.3452   42.9383 H   0  0  0  0  0  0  0  0  0  0  0  0
   44.1808   36.9442   42.9822 H   0  0  0  0  0  0  0  0  0  0  0  0
   45.2346   34.7438   41.1138 H   0  0  0  0  0  0  0  0  0  0  0  0
   46.6609   33.6568   42.0602 H   0  0  0  0  0  0  0  0  0  0  0  0
   48.3892   32.3094   43.1861 H   0  0  0  0  0  0  0  0  0  0  0  0
   43.8290   34.8122   39.1830 H   0  0  0  0  0  0  0  0  0  0  0  0
   41.7150   35.0637   38.0700 H   0  0  0  0  0  0  0  0  0  0  0  0
   39.6010   36.0599   42.0022 C   0  0  0  0  0  0  0  0  0  0  0  0
   38.4292   36.1394   41.0347 C   0  0  0  0  0  0  0  0  0  0  0  0
   37.2072   35.9476   41.8978 C   0  0  0  0  0  0  0  0  0  0  0  0
   37.6672   35.1210   43.0715 C   0  0  0  0  0  0  0  0  0  0  0  0
   39.1797   35.0205   42.9862 C   0  0  0  0  0  0  0  0  0  0  0  0
   39.7332   37.0359   42.5109 H   0  0  0  0  0  0  0  0  0  0  0  0
   38.3989   37.1381   40.5353 H   0  0  0  0  0  0  0  0  0  0  0  0
   38.5079   35.3647   40.2427 H   0  0  0  0  0  0  0  0  0  0  0  0
   36.8235   36.9359   42.2233 H   0  0  0  0  0  0  0  0  0  0  0  0
   36.3967   35.4680   41.3076 H   0  0  0  0  0  0  0  0  0  0  0  0
   37.1974   34.1032   42.9866 H   0  0  0  0  0  0  0  0  0  0  0  0
   37.3502   35.5374   44.0471 H   0  0  0  0  0  0  0  0  0  0  0  0
   39.6682   35.2497   43.9648 H   0  0  0  0  0  0  0  0  0  0  0  0
   39.4780   33.9980   42.6454 H   0  0  0  0  0  0  0  0  0  0  0  0
  1  4  1  0
  2  1  1  0
  3  2  1  0
  3  1  1  0
  4  9  2  0
  5  6  2  0
  5  4  1  0
  6  7  1  0
  7  8  2  0
  8 10  1  0
  9  8  1  0
 10 13  1  0
 10 12  1  0
 10 11  1  0
 14  3  1  0
 14 19  1  0
 15 14  2  0
 16 15  1  0
 16 17  2  0
 17 18  1  0
 18 19  2  0
  1 20  1  1
  2 21  1  0
  2 22  1  0
  3 23  1  6
  5 24  1  0
  6 25  1  0
 15 26  1  0
 16 27  1  0
 28 29  1  0
 29 30  1  0
 30 31  1  0
 31 32  1  0
 32 28  1  0
 28 33  1  0
 29 34  1  0
 29 35  1  0
 30 36  1  0
 30 37  1  0
 31 38  1  0
 31 39  1  0
 32 40  1  0
 32 41  1  0
 18 28  1  0
M  ISO  8  20  13  21  13  22  13  23  13  24  14  25  14  26  14  27  14
M  END
>  <DihAtoms>  (1) 
16,17,27,28

>  <DihDeg>  (1) 
-59.695316338099786

$$$$
