
     RDKit          3D

 33 35  0  0  0  0  0  0  0  0999 V2000
   48.7480   35.4850   40.8740 C   0  0  0  0  0  0  0  0  0  0  0  0
   48.3280   34.7940   39.7290 C   0  0  0  0  0  0  0  0  0  0  0  0
   47.3180   33.8030   39.8710 C   0  0  0  0  0  0  0  0  0  0  0  0
   46.8290   33.5970   41.1200 N   0  0  0  0  0  0  0  0  0  0  0  0
   47.2500   34.2720   42.1980 C   0  0  0  0  0  0  0  0  0  0  0  0
   48.2140   35.2240   42.0820 N   0  0  0  0  0  0  0  0  0  0  0  0
   44.9630   36.0590   43.1090 Cl  0  0  0  0  0  0  0  0  0  0  0  0
   45.6590   34.7740   44.0260 C   0  0  0  0  0  0  0  0  0  0  0  0
   46.6950   34.0180   43.5270 C   0  0  0  0  0  0  0  0  0  0  0  0
   47.1830   33.0160   44.3330 C   0  0  0  0  0  0  0  0  0  0  0  0
   46.7030   32.7260   45.5960 C   0  0  0  0  0  0  0  0  0  0  0  0
   45.6620   33.4990   46.0770 C   0  0  0  0  0  0  0  0  0  0  0  0
   45.0970   33.0810   47.6860 Cl  0  0  0  0  0  0  0  0  0  0  0  0
   45.1440   34.5090   45.3070 C   0  0  0  0  0  0  0  0  0  0  0  0
   46.8080   33.0200   38.7210 C   0  0  0  0  0  0  0  0  0  0  0  0
   45.2910   33.0490   38.6530 C   0  0  0  0  0  0  0  0  0  0  0  0
   45.0380   32.4760   37.2680 C   0  0  0  0  0  0  0  0  0  0  0  0
   46.2440   32.8480   36.4410 C   0  0  0  0  0  0  0  0  0  0  0  0
   47.1790   33.5950   37.3820 C   0  0  0  0  0  0  0  0  0  0  0  0
   49.5285   36.2549   40.7838 H   0  0  0  0  0  0  0  0  0  0  0  0
   48.7687   35.0128   38.7452 H   0  0  0  0  0  0  0  0  0  0  0  0
   48.0113   32.4042   43.9461 H   0  0  0  0  0  0  0  0  0  0  0  0
   47.1329   31.9107   46.1964 H   0  0  0  0  0  0  0  0  0  0  0  0
   44.3156   35.1190   45.6965 H   0  0  0  0  0  0  0  0  0  0  0  0
   47.2446   32.0248   38.8913 H   0  0  0  0  0  0  0  0  0  0  0  0
   44.8417   32.4205   39.4360 H   0  0  0  0  0  0  0  0  0  0  0  0
   44.8542   34.0459   38.8123 H   0  0  0  0  0  0  0  0  0  0  0  0
   44.9319   31.3824   37.3197 H   0  0  0  0  0  0  0  0  0  0  0  0
   44.1098   32.8719   36.8301 H   0  0  0  0  0  0  0  0  0  0  0  0
   46.7348   31.9439   36.0515 H   0  0  0  0  0  0  0  0  0  0  0  0
   45.9652   33.4648   35.5739 H   0  0  0  0  0  0  0  0  0  0  0  0
   48.2330   33.3938   37.1397 H   0  0  0  0  0  0  0  0  0  0  0  0
   47.0782   34.6890   37.3280 H   0  0  0  0  0  0  0  0  0  0  0  0
  1  6  2  0
  2  3  2  0
  2  1  1  0
  3  4  1  0
  4  5  2  0
  5  9  1  0
  6  5  1  0
  7  8  1  0
  8 14  2  0
  9  8  1  0
  9 10  2  0
 10 11  1  0
 11 12  2  0
 12 13  1  0
 14 12  1  0
 15  3  1  0
 16 15  1  0
 17 16  1  0
 18 17  1  0
 18 19  1  0
 19 15  1  0
  1 20  1  0
  2 21  1  0
 10 22  1  0
 11 23  1  0
 14 24  1  0
 15 25  1  0
 16 26  1  0
 16 27  1  0
 17 28  1  0
 17 29  1  0
 18 30  1  0
 18 31  1  0
 19 32  1  0
 19 33  1  0
M  ISO  8  20  14  21  14  22  14  23  14  24  14  25  13  26  13  27  13
M  ISO  6  28  13  29  13  30  13  31  13  32  13  33  13
M  END
>  <minimizedAffinity>  (1) 
-5.43951559

>  <minimizedRMSD>  (1) 
0.417676479

$$$$
