
     RDKit          3D

 39 42  0  0  0  0  0  0  0  0999 V2000
   47.8620   31.3920   46.2630 C   0  0  0  0  0  0  0  0  0  0  0  0
   46.9670   32.2250   45.6420 C   0  0  0  0  0  0  0  0  0  0  0  0
   45.8040   32.5410   46.3010 C   0  0  0  0  0  0  0  0  0  0  0  0
   45.5040   32.0550   47.5590 C   0  0  0  0  0  0  0  0  0  0  0  0
   44.4980   32.1620   48.4510 N   0  0  0  0  0  0  0  0  0  0  0  0
   44.7740   31.4270   49.5560 C   0  0  0  0  0  0  0  0  0  0  0  0
   45.9730   30.8620   49.3350 N   0  0  0  0  0  0  0  0  0  0  0  0
   46.4490   31.2190   48.1310 C   0  0  0  0  0  0  0  0  0  0  0  0
   47.6250   30.8670   47.5260 C   0  0  0  0  0  0  0  0  0  0  0  0
   47.0270   34.4470   42.7290 C   0  0  0  0  0  0  0  0  0  0  0  0
   47.8010   33.7460   41.8160 C   0  0  0  0  0  0  0  0  0  0  0  0
   48.2970   32.5020   42.2240 C   0  0  0  0  0  0  0  0  0  0  0  0
   48.0130   32.0330   43.4660 N   0  0  0  0  0  0  0  0  0  0  0  0
   47.2560   32.7550   44.3110 C   0  0  0  0  0  0  0  0  0  0  0  0
   46.7640   33.9500   43.9570 N   0  0  0  0  0  0  0  0  0  0  0  0
   48.0410   34.3700   40.4830 C   0  0  0  0  0  0  0  0  0  0  0  0
   48.5470   35.6180   40.7480 F   0  0  0  0  0  0  0  0  0  0  0  0
   46.8310   34.4490   39.8260 F   0  0  0  0  0  0  0  0  0  0  0  0
   48.9280   33.5550   39.7880 F   0  0  0  0  0  0  0  0  0  0  0  0
   48.5800   29.9640   48.2150 C   0  0  0  0  0  0  0  0  0  0  0  0
   49.3490   29.1600   47.2150 C   0  0  0  0  0  0  0  0  0  0  0  0
   50.7570   29.0960   47.7570 C   0  0  0  0  0  0  0  0  0  0  0  0
   50.6560   29.5490   49.2100 C   0  0  0  0  0  0  0  0  0  0  0  0
   49.5830   30.6360   49.0730 C   0  0  0  0  0  0  0  0  0  0  0  0
   48.7965   31.1318   45.7443 H   0  0  0  0  0  0  0  0  0  0  0  0
   45.0822   33.2081   45.8071 H   0  0  0  0  0  0  0  0  0  0  0  0
   43.6440   32.7210   48.3126 H   0  0  0  0  0  0  0  0  0  0  0  0
   44.1446   31.3157   50.4513 H   0  0  0  0  0  0  0  0  0  0  0  0
   46.6187   35.4287   42.4469 H   0  0  0  0  0  0  0  0  0  0  0  0
   48.9165   31.9049   41.5386 H   0  0  0  0  0  0  0  0  0  0  0  0
   47.9384   29.3493   48.8634 H   0  0  0  0  0  0  0  0  0  0  0  0
   49.3362   29.6530   46.2317 H   0  0  0  0  0  0  0  0  0  0  0  0
   48.9171   28.1583   47.0732 H   0  0  0  0  0  0  0  0  0  0  0  0
   51.1440   28.0679   47.7010 H   0  0  0  0  0  0  0  0  0  0  0  0
   51.4457   29.7299   47.1791 H   0  0  0  0  0  0  0  0  0  0  0  0
   50.3288   28.7327   49.8708 H   0  0  0  0  0  0  0  0  0  0  0  0
   51.6026   29.8848   49.6586 H   0  0  0  0  0  0  0  0  0  0  0  0
   49.9856   31.5375   48.5880 H   0  0  0  0  0  0  0  0  0  0  0  0
   49.1819   30.9901   50.0341 H   0  0  0  0  0  0  0  0  0  0  0  0
  1  9  2  0
  2  1  1  0
  2  3  2  0
  3  4  1  0
  4  8  2  0
  4  5  1  0
  5  6  1  0
  7  6  2  0
  8  7  1  0
  9  8  1  0
  9 20  1  0
 10 15  2  0
 11 12  2  0
 11 10  1  0
 12 13  1  0
 13 14  2  0
 14  2  1  0
 15 14  1  0
 16 17  1  0
 16 11  1  0
 18 16  1  0
 19 16  1  0
 20 24  1  0
 21 22  1  0
 21 20  1  0
 22 23  1  0
 24 23  1  0
  1 25  1  0
  3 26  1  0
  5 27  1  0
  6 28  1  0
 10 29  1  0
 12 30  1  0
 20 31  1  0
 21 32  1  0
 21 33  1  0
 22 34  1  0
 22 35  1  0
 23 36  1  0
 23 37  1  0
 24 38  1  0
 24 39  1  0
M  ISO  8  25  14  26  14  27   9  28  14  29  14  30  14  31  13  32  13
M  ISO  7  33  13  34  13  35  13  36  13  37  13  38  13  39  13
M  END
>  <minimizedAffinity>  (1) 
-5.64818382

>  <minimizedRMSD>  (1) 
0.614885092

$$$$
