
     RDKit          3D

 32 34  0  0  0  0  0  0  0  0999 V2000
   46.6910   34.7320   42.1060 C   0  0  0  0  0  0  0  0  0  0  0  0
   47.8760   35.3720   41.8260 C   0  0  0  0  0  0  0  0  0  0  0  0
   48.6060   35.2340   40.6680 C   0  0  0  0  0  0  0  0  0  0  0  0
   48.1280   34.3860   39.6960 C   0  0  0  0  0  0  0  0  0  0  0  0
   46.9500   33.7550   39.9850 C   0  0  0  0  0  0  0  0  0  0  0  0
   46.2820   33.9250   41.1220 N   0  0  0  0  0  0  0  0  0  0  0  0
   44.4510   35.9650   44.8740 C   0  0  0  0  0  0  0  0  0  0  0  0
   45.0780   35.9460   43.6240 C   0  0  0  0  0  0  0  0  0  0  0  0
   45.9560   34.9110   43.3430 C   0  0  0  0  0  0  0  0  0  0  0  0
   46.1550   33.9690   44.3090 N   0  0  0  0  0  0  0  0  0  0  0  0
   45.5340   34.0140   45.5090 C   0  0  0  0  0  0  0  0  0  0  0  0
   44.6880   35.0120   45.7810 N   0  0  0  0  0  0  0  0  0  0  0  0
   46.3810   32.8160   38.9560 C   0  0  0  0  0  0  0  0  0  0  0  0
   46.7880   33.2780   37.5560 C   0  0  0  0  0  0  0  0  0  0  0  0
   45.4890   33.3470   36.7530 C   0  0  0  0  0  0  0  0  0  0  0  0
   44.5650   32.4380   37.5190 C   0  0  0  0  0  0  0  0  0  0  0  0
   44.8900   32.7700   38.9680 C   0  0  0  0  0  0  0  0  0  0  0  0
   48.2739   36.0522   42.5935 H   0  0  0  0  0  0  0  0  0  0  0  0
   49.5461   35.7866   40.5234 H   0  0  0  0  0  0  0  0  0  0  0  0
   48.6598   34.2257   38.7465 H   0  0  0  0  0  0  0  0  0  0  0  0
   43.7506   36.7783   45.1150 H   0  0  0  0  0  0  0  0  0  0  0  0
   44.8792   36.7333   42.8819 H   0  0  0  0  0  0  0  0  0  0  0  0
   45.7244   33.2319   46.2588 H   0  0  0  0  0  0  0  0  0  0  0  0
   46.7762   31.8200   39.2047 H   0  0  0  0  0  0  0  0  0  0  0  0
   47.2644   34.2684   37.6017 H   0  0  0  0  0  0  0  0  0  0  0  0
   47.5152   32.5926   37.0962 H   0  0  0  0  0  0  0  0  0  0  0  0
   45.6397   32.9824   35.7262 H   0  0  0  0  0  0  0  0  0  0  0  0
   45.0995   34.3704   36.6480 H   0  0  0  0  0  0  0  0  0  0  0  0
   43.5121   32.6580   37.2887 H   0  0  0  0  0  0  0  0  0  0  0  0
   44.7002   31.3739   37.2752 H   0  0  0  0  0  0  0  0  0  0  0  0
   44.5209   31.9884   39.6484 H   0  0  0  0  0  0  0  0  0  0  0  0
   44.4231   33.7008   39.3223 H   0  0  0  0  0  0  0  0  0  0  0  0
  1  9  1  0
  2  1  2  0
  3  2  1  0
  4  5  1  0
  4  3  2  0
  5  6  2  0
  6  1  1  0
  7 12  2  0
  8  7  1  0
  9  8  2  0
  9 10  1  0
 10 11  2  0
 11 12  1  0
 13 17  1  0
 13  5  1  0
 14 13  1  0
 15 16  1  0
 15 14  1  0
 16 17  1  0
  2 18  1  0
  3 19  1  0
  4 20  1  0
  7 21  1  0
  8 22  1  0
 11 23  1  0
 13 24  1  0
 14 25  1  0
 14 26  1  0
 15 27  1  0
 15 28  1  0
 16 29  1  0
 16 30  1  0
 17 31  1  0
 17 32  1  0
M  ISO  8  18  14  19  14  20  14  21  14  22  14  23  14  24  13  25  13
M  ISO  7  26  13  27  13  28  13  29  13  30  13  31  13  32  13
M  END
>  <minimizedAffinity>  (1) 
-5.38154745

>  <minimizedRMSD>  (1) 
0.194821671

$$$$
