
     RDKit          3D

 43 45  0  0  0  0  0  0  0  0999 V2000
   47.1690   29.8780   44.8920 F   0  0  0  0  0  0  0  0  0  0  0  0
   47.2400   30.6770   46.0160 C   0  0  0  0  0  0  0  0  0  0  0  0
   46.8690   32.0050   45.9390 C   0  0  0  0  0  0  0  0  0  0  0  0
   46.9680   32.7380   47.1040 C   0  0  0  0  0  0  0  0  0  0  0  0
   47.4100   32.1760   48.2690 C   0  0  0  0  0  0  0  0  0  0  0  0
   47.7720   30.8320   48.2920 C   0  0  0  0  0  0  0  0  0  0  0  0
   47.6900   30.0450   47.1420 C   0  0  0  0  0  0  0  0  0  0  0  0
   46.7410   34.1570   42.9800 C   0  0  0  0  0  0  0  0  0  0  0  0
   45.5760   33.7450   42.3350 C   0  0  0  0  0  0  0  0  0  0  0  0
   44.8310   32.7190   42.9260 C   0  0  0  0  0  0  0  0  0  0  0  0
   45.2570   32.1700   44.0800 N   0  0  0  0  0  0  0  0  0  0  0  0
   46.3980   32.5950   44.6850 C   0  0  0  0  0  0  0  0  0  0  0  0
   47.1310   33.5800   44.1360 N   0  0  0  0  0  0  0  0  0  0  0  0
   45.1810   34.3980   41.0740 C   0  0  0  0  0  0  0  0  0  0  0  0
   44.9040   35.7310   41.2910 F   0  0  0  0  0  0  0  0  0  0  0  0
   46.2810   34.3490   40.2060 F   0  0  0  0  0  0  0  0  0  0  0  0
   44.1270   33.8290   40.4400 F   0  0  0  0  0  0  0  0  0  0  0  0
   47.4630   35.1490   42.4120 O   0  0  0  0  0  0  0  0  0  0  0  0
   48.7740   35.0600   41.9110 C   0  0  0  0  0  0  0  0  0  0  0  0
   49.6390   35.3050   42.9800 F   0  0  0  0  0  0  0  0  0  0  0  0
   48.9670   33.8390   41.3380 F   0  0  0  0  0  0  0  0  0  0  0  0
   49.0000   36.0880   41.0210 F   0  0  0  0  0  0  0  0  0  0  0  0
   48.0740   28.5980   47.1410 C   0  0  0  0  0  0  0  0  0  0  0  0
   46.8200   27.7630   46.9690 C   0  0  0  0  0  0  0  0  0  0  0  0
   45.6640   28.3360   47.7670 C   0  0  0  0  0  0  0  0  0  0  0  0
   44.6870   27.1660   47.7810 C   0  0  0  0  0  0  0  0  0  0  0  0
   45.5200   25.9210   47.7500 C   0  0  0  0  0  0  0  0  0  0  0  0
   46.9710   26.4150   47.6590 C   0  0  0  0  0  0  0  0  0  0  0  0
   46.6842   33.8007   47.0949 H   0  0  0  0  0  0  0  0  0  0  0  0
   47.4793   32.7828   49.1839 H   0  0  0  0  0  0  0  0  0  0  0  0
   48.1282   30.3832   49.2310 H   0  0  0  0  0  0  0  0  0  0  0  0
   43.9043   32.3632   42.4520 H   0  0  0  0  0  0  0  0  0  0  0  0
   48.7677   28.3996   46.3107 H   0  0  0  0  0  0  0  0  0  0  0  0
   48.5689   28.3406   48.0891 H   0  0  0  0  0  0  0  0  0  0  0  0
   46.6567   27.7206   45.8820 H   0  0  0  0  0  0  0  0  0  0  0  0
   45.9766   28.6094   48.7856 H   0  0  0  0  0  0  0  0  0  0  0  0
   45.2457   29.2616   47.3447 H   0  0  0  0  0  0  0  0  0  0  0  0
   44.0750   27.1920   48.6947 H   0  0  0  0  0  0  0  0  0  0  0  0
   44.0004   27.2087   46.9227 H   0  0  0  0  0  0  0  0  0  0  0  0
   45.3690   25.3320   48.6667 H   0  0  0  0  0  0  0  0  0  0  0  0
   45.2530   25.2665   46.9072 H   0  0  0  0  0  0  0  0  0  0  0  0
   47.5872   25.7288   47.0595 H   0  0  0  0  0  0  0  0  0  0  0  0
   47.4741   26.4771   48.6352 H   0  0  0  0  0  0  0  0  0  0  0  0
  1  2  1  0
  2  7  2  0
  3  2  1  0
  3  4  2  0
  4  5  1  0
  5  6  2  0
  7  6  1  0
  8 13  2  0
  9 10  2  0
  9  8  1  0
 10 11  1  0
 11 12  2  0
 12  3  1  0
 13 12  1  0
 14 15  1  0
 14  9  1  0
 16 14  1  0
 17 14  1  0
 18  8  1  0
 19 18  1  0
 19 20  1  0
 21 19  1  0
 22 19  1  0
 23  7  1  0
 24 23  1  0
 24 28  1  0
 24 25  1  0
 25 26  1  0
 27 26  1  0
 28 27  1  0
  4 29  1  0
  5 30  1  0
  6 31  1  0
 10 32  1  0
 23 33  1  0
 23 34  1  0
 24 35  1  0
 25 36  1  0
 25 37  1  0
 26 38  1  0
 26 39  1  0
 27 40  1  0
 27 41  1  0
 28 42  1  0
 28 43  1  0
M  ISO  8  29  14  30  14  31  14  32  14  33   8  34   8  35  13  36  13
M  ISO  7  37  13  38  13  39  13  40  13  41  13  42  13  43  13
M  END
>  <minimizedAffinity>  (1) 
-5.68552256

>  <minimizedRMSD>  (1) 
0.654078484

$$$$
