
     RDKit          3D

 55 58  0  0  0  0  0  0  0  0999 V2000
   48.1250   33.6100   42.8300 C   0  0  0  0  0  0  0  0  0  0  0  0
   48.7920   34.8620   42.6700 C   0  0  0  0  0  0  0  0  0  0  0  0
   50.1660   34.8920   42.4090 C   0  0  0  0  0  0  0  0  0  0  0  0
   50.7990   33.6810   42.3220 N   0  0  0  0  0  0  0  0  0  0  0  0
   50.1190   32.5020   42.4830 C   0  0  0  0  0  0  0  0  0  0  0  0
   48.8210   32.4930   42.7280 N   0  0  0  0  0  0  0  0  0  0  0  0
   46.6930   33.7240   43.1020 C   0  0  0  0  0  0  0  0  0  0  0  0
   45.9860   34.6980   42.3090 C   0  0  0  0  0  0  0  0  0  0  0  0
   45.4770   35.8580   43.0620 C   0  0  0  0  0  0  0  0  0  0  0  0
   44.5850   35.4140   44.2210 C   0  0  0  0  0  0  0  0  0  0  0  0
   45.1160   34.2400   44.9690 C   0  0  0  0  0  0  0  0  0  0  0  0
   46.5850   33.9960   44.6400 C   0  0  0  0  0  0  0  0  0  0  0  0
   50.9640   31.3210   42.3600 C   0  0  0  0  0  0  0  0  0  0  0  0
   51.3060   30.8780   41.1400 N   0  0  0  0  0  0  0  0  0  0  0  0
   52.0870   29.7760   41.2740 C   0  0  0  0  0  0  0  0  0  0  0  0
   52.2190   29.5500   42.5970 N   0  0  0  0  0  0  0  0  0  0  0  0
   51.5400   30.4830   43.2840 N   0  0  0  0  0  0  0  0  0  0  0  0
   52.9610   28.5000   43.2500 C   0  0  0  0  0  0  0  0  0  0  0  0
   54.3510   28.9020   43.4450 C   0  0  0  0  0  0  0  0  0  0  0  0
   55.0060   29.5820   44.3610 C   0  0  0  0  0  0  0  0  0  0  0  0
   56.5030   29.8750   44.4560 C   0  0  0  0  0  0  0  0  0  0  0  0
   57.0330   30.6040   43.2580 C   0  0  0  0  0  0  0  0  0  0  0  0
   57.8180   29.6170   42.3820 C   0  0  0  0  0  0  0  0  0  0  0  0
   59.2480   29.7580   42.9130 C   0  0  0  0  0  0  0  0  0  0  0  0
   59.3620   31.2370   43.0490 C   0  0  0  0  0  0  0  0  0  0  0  0
   58.0290   31.6650   43.6000 C   0  0  0  0  0  0  0  0  0  0  0  0
   48.2263   35.8018   42.7518 H   0  0  0  0  0  0  0  0  0  0  0  0
   50.7098   35.8395   42.2803 H   0  0  0  0  0  0  0  0  0  0  0  0
   46.1866   32.7937   42.8052 H   0  0  0  0  0  0  0  0  0  0  0  0
   45.1300   34.1961   41.8343 H   0  0  0  0  0  0  0  0  0  0  0  0
   46.7136   35.0943   41.5854 H   0  0  0  0  0  0  0  0  0  0  0  0
   46.3284   36.4282   43.4621 H   0  0  0  0  0  0  0  0  0  0  0  0
   44.8796   36.4817   42.3807 H   0  0  0  0  0  0  0  0  0  0  0  0
   44.4823   36.2552   44.9223 H   0  0  0  0  0  0  0  0  0  0  0  0
   43.6212   35.1098   43.7869 H   0  0  0  0  0  0  0  0  0  0  0  0
   45.0162   34.4270   46.0484 H   0  0  0  0  0  0  0  0  0  0  0  0
   44.5404   33.3499   44.6751 H   0  0  0  0  0  0  0  0  0  0  0  0
   46.9542   33.1247   45.2008 H   0  0  0  0  0  0  0  0  0  0  0  0
   47.1912   34.8705   44.9187 H   0  0  0  0  0  0  0  0  0  0  0  0
   52.5276   29.1816   40.4600 H   0  0  0  0  0  0  0  0  0  0  0  0
   52.5046   28.2885   44.2282 H   0  0  0  0  0  0  0  0  0  0  0  0
   52.9360   27.6002   42.6177 H   0  0  0  0  0  0  0  0  0  0  0  0
   55.0062   28.5534   42.6331 H   0  0  0  0  0  0  0  0  0  0  0  0
   54.3901   29.9979   45.1720 H   0  0  0  0  0  0  0  0  0  0  0  0
   56.6840   30.4905   45.3496 H   0  0  0  0  0  0  0  0  0  0  0  0
   57.0252   28.9084   44.5114 H   0  0  0  0  0  0  0  0  0  0  0  0
   56.1543   31.0512   42.7702 H   0  0  0  0  0  0  0  0  0  0  0  0
   57.7601   29.8968   41.3198 H   0  0  0  0  0  0  0  0  0  0  0  0
   57.4334   28.5877   42.4325 H   0  0  0  0  0  0  0  0  0  0  0  0
   59.3694   29.2535   43.8829 H   0  0  0  0  0  0  0  0  0  0  0  0
   60.0154   29.3035   42.2692 H   0  0  0  0  0  0  0  0  0  0  0  0
   60.1735   31.5029   43.7424 H   0  0  0  0  0  0  0  0  0  0  0  0
   59.5991   31.7292   42.0943 H   0  0  0  0  0  0  0  0  0  0  0  0
   57.7270   32.6216   43.1487 H   0  0  0  0  0  0  0  0  0  0  0  0
   58.0885   31.8001   44.6901 H   0  0  0  0  0  0  0  0  0  0  0  0
  1  7  1  0
  2  1  2  0
  3  2  1  0
  4  3  2  0
  4  5  1  0
  5  6  2  0
  6  1  1  0
  7 12  1  0
  8  9  1  0
  8  7  1  0
  9 10  1  0
 10 11  1  0
 12 11  1  0
 13  5  1  0
 13 17  2  0
 14 15  2  0
 14 13  1  0
 15 16  1  0
 16 18  1  0
 16 17  1  0
 18 19  1  0
 19 20  2  0
 20 21  1  0
 22 26  1  0
 22 21  1  0
 23 24  1  0
 23 22  1  0
 24 25  1  0
 25 26  1  0
  2 27  1  0
  3 28  1  0
  7 29  1  0
  8 30  1  0
  8 31  1  0
  9 32  1  0
  9 33  1  0
 10 34  1  0
 10 35  1  0
 11 36  1  0
 11 37  1  0
 12 38  1  0
 12 39  1  0
 15 40  1  0
 18 41  1  0
 18 42  1  0
 19 43  1  0
 20 44  1  0
 21 45  1  0
 21 46  1  0
 22 47  1  0
 23 48  1  0
 23 49  1  0
 24 50  1  0
 24 51  1  0
 25 52  1  0
 25 53  1  0
 26 54  1  0
 26 55  1  0
M  ISO  8  27  14  28  14  29  13  30  13  31  13  32  13  33  13  34  13
M  ISO  8  35  13  36  13  37  13  38  13  39  13  40  14  41   8  42   8
M  ISO  8  45   8  46   8  47  13  48  13  49  13  50  13  51  13  52  13
M  ISO  3  53  13  54  13  55  13
M  END
>  <minimizedAffinity>  (1) 
-4.22627115

>  <minimizedRMSD>  (1) 
1.49657571

$$$$
