
     RDKit          3D

 24 25  0  0  0  0  0  0  0  0999 V2000
   44.8770   34.9550   44.6430 C   0  0  0  0  0  0  0  0  0  0  0  0
   45.6830   34.8400   43.4910 C   0  0  0  0  0  0  0  0  0  0  0  0
   46.7990   33.9740   43.5720 C   0  0  0  0  0  0  0  0  0  0  0  0
   47.0280   33.3110   44.7410 N   0  0  0  0  0  0  0  0  0  0  0  0
   46.2270   33.4560   45.8170 C   0  0  0  0  0  0  0  0  0  0  0  0
   45.1550   34.2740   45.7690 N   0  0  0  0  0  0  0  0  0  0  0  0
   46.4820   32.7310   47.0880 C   0  0  0  0  0  0  0  0  0  0  0  0
   46.8140   31.2670   46.8790 C   0  0  0  0  0  0  0  0  0  0  0  0
   46.6780   30.7260   48.2840 C   0  0  0  0  0  0  0  0  0  0  0  0
   45.6890   31.6340   48.9900 C   0  0  0  0  0  0  0  0  0  0  0  0
   45.2160   32.6230   47.9260 C   0  0  0  0  0  0  0  0  0  0  0  0
   43.7920   35.7920   44.5760 O   0  0  0  0  0  0  0  0  0  0  0  0
   45.4542   35.3984   42.5713 H   0  0  0  0  0  0  0  0  0  0  0  0
   47.4681   33.8385   42.7095 H   0  0  0  0  0  0  0  0  0  0  0  0
   47.3000   33.3032   47.5500 H   0  0  0  0  0  0  0  0  0  0  0  0
   46.1012   30.7870   46.1924 H   0  0  0  0  0  0  0  0  0  0  0  0
   47.7992   31.0903   46.4228 H   0  0  0  0  0  0  0  0  0  0  0  0
   46.2991   29.6936   48.2606 H   0  0  0  0  0  0  0  0  0  0  0  0
   47.6476   30.7069   48.8031 H   0  0  0  0  0  0  0  0  0  0  0  0
   44.8406   31.0512   49.3782 H   0  0  0  0  0  0  0  0  0  0  0  0
   46.1451   32.1456   49.8504 H   0  0  0  0  0  0  0  0  0  0  0  0
   44.9327   33.5910   48.3650 H   0  0  0  0  0  0  0  0  0  0  0  0
   44.3173   32.3143   47.3719 H   0  0  0  0  0  0  0  0  0  0  0  0
   43.5995   36.2870   43.7405 H   0  0  0  0  0  0  0  0  0  0  0  0
  1  6  2  0
  2  3  2  0
  2  1  1  0
  3  4  1  0
  4  5  2  0
  5  7  1  0
  6  5  1  0
  7 11  1  0
  8  7  1  0
  8  9  1  0
  9 10  1  0
 11 10  1  0
 12  1  1  0
  2 13  1  0
  3 14  1  0
  7 15  1  0
  8 16  1  0
  8 17  1  0
  9 18  1  0
  9 19  1  0
 10 20  1  0
 10 21  1  0
 11 22  1  0
 11 23  1  0
 12 24  1  0
M  ISO  8  13  14  14  14  15  13  16  13  17  13  18  13  19  13  20  13
M  ISO  4  21  13  22  13  23  13  24   3
M  END
>  <minimizedAffinity>  (1) 
-4.73014593

>  <minimizedRMSD>  (1) 
1.88294399

$$$$
