
     RDKit          3D

 26 27  0  0  0  0  0  0  0  0999 V2000
   44.5624   36.0050   44.4987 C   0  0  0  0  0  0  0  0  0  0  0  0
   45.3021   35.9288   43.2932 C   0  0  0  0  0  0  0  0  0  0  0  0
   46.1928   34.8621   43.1679 C   0  0  0  0  0  0  0  0  0  0  0  0
   46.3083   33.9580   44.1936 N   0  0  0  0  0  0  0  0  0  0  0  0
   45.5673   34.0908   45.3244 C   0  0  0  0  0  0  0  0  0  0  0  0
   44.7056   35.1003   45.4762 N   0  0  0  0  0  0  0  0  0  0  0  0
   46.9634   34.7701   41.9290 C   0  0  0  0  0  0  0  0  0  0  0  0
   43.8668   36.8145   44.6286 H   0  0  0  0  0  0  0  0  0  0  0  0
   45.1647   36.6746   42.5216 H   0  0  0  0  0  0  0  0  0  0  0  0
   45.7433   33.3196   46.0621 H   0  0  0  0  0  0  0  0  0  0  0  0
   47.6025   35.6562   41.7938 H   0  0  0  0  0  0  0  0  0  0  0  0
   46.2841   34.5830   41.0594 H   0  0  0  0  0  0  0  0  0  0  0  0
   47.8412   33.5423   42.0455 C   0  0  0  0  0  0  0  0  0  0  0  0
   47.6309   32.8460   43.3651 C   0  0  0  0  0  0  0  0  0  0  0  0
   47.4373   31.3718   43.0574 C   0  0  0  0  0  0  0  0  0  0  0  0
   48.1282   31.2628   41.6909 C   0  0  0  0  0  0  0  0  0  0  0  0
   47.5043   32.4873   41.0401 C   0  0  0  0  0  0  0  0  0  0  0  0
   48.8935   33.8733   41.8940 H   0  0  0  0  0  0  0  0  0  0  0  0
   46.8031   33.2814   43.9477 H   0  0  0  0  0  0  0  0  0  0  0  0
   48.6164   32.9003   43.9089 H   0  0  0  0  0  0  0  0  0  0  0  0
   47.8716   30.6988   43.7978 H   0  0  0  0  0  0  0  0  0  0  0  0
   46.3521   31.1702   42.8385 H   0  0  0  0  0  0  0  0  0  0  0  0
   47.8962   30.3314   41.1818 H   0  0  0  0  0  0  0  0  0  0  0  0
   49.2110   31.4751   41.7933 H   0  0  0  0  0  0  0  0  0  0  0  0
   47.9240   32.6763   40.0347 H   0  0  0  0  0  0  0  0  0  0  0  0
   46.3885   32.3678   41.0090 H   0  0  0  0  0  0  0  0  0  0  0  0
  1  6  2  0
  2  1  1  0
  3  2  2  0
  3  4  1  0
  4  5  2  0
  5  6  1  0
  7  3  1  0
  1  8  1  0
  2  9  1  0
  5 10  1  0
  7 11  1  0
  7 12  1  0
 13 14  1  0
 14 15  1  0
 15 16  1  0
 16 17  1  0
 17 13  1  0
 13 18  1  0
 14 19  1  0
 14 20  1  0
 15 21  1  0
 15 22  1  0
 16 23  1  0
 16 24  1  0
 17 25  1  0
 17 26  1  0
  7 13  1  0
M  ISO  5   8  14   9  14  10  14  11   8  12   8
M  END
>  <DihAtoms>  (1) 
2,6,12,13

>  <DihDeg>  (1) 
59.99723585598789

$$$$
