
     RDKit          3D

 37 40  0  0  0  0  0  0  0  0999 V2000
   48.1759   35.0606   41.9351 C   0  0  0  0  0  0  0  0  0  0  0  0
   47.0576   34.2618   42.0925 C   0  0  0  0  0  0  0  0  0  0  0  0
   46.5059   33.6684   40.9856 C   0  0  0  0  0  0  0  0  0  0  0  0
   47.0332   33.8439   39.7155 C   0  0  0  0  0  0  0  0  0  0  0  0
   46.6511   33.3587   38.5075 N   0  0  0  0  0  0  0  0  0  0  0  0
   47.5440   33.8610   37.5762 C   0  0  0  0  0  0  0  0  0  0  0  0
   48.4426   34.6365   38.2439 N   0  0  0  0  0  0  0  0  0  0  0  0
   48.1452   34.6371   39.5522 C   0  0  0  0  0  0  0  0  0  0  0  0
   48.7110   35.2402   40.6552 C   0  0  0  0  0  0  0  0  0  0  0  0
   45.1157   34.6204   45.3091 C   0  0  0  0  0  0  0  0  0  0  0  0
   45.5266   34.8695   43.9766 C   0  0  0  0  0  0  0  0  0  0  0  0
   46.5415   34.1086   43.4459 C   0  0  0  0  0  0  0  0  0  0  0  0
   47.1046   33.1536   44.2205 N   0  0  0  0  0  0  0  0  0  0  0  0
   46.7075   32.9181   45.4977 C   0  0  0  0  0  0  0  0  0  0  0  0
   45.7302   33.6433   46.0239 N   0  0  0  0  0  0  0  0  0  0  0  0
   44.0921   35.3903   45.8394 O   0  0  0  0  0  0  0  0  0  0  0  0
   48.7029   35.5799   42.7098 H   0  0  0  0  0  0  0  0  0  0  0  0
   45.6341   33.0578   41.1807 H   0  0  0  0  0  0  0  0  0  0  0  0
   45.8359   32.7366   38.3856 H   0  0  0  0  0  0  0  0  0  0  0  0
   47.4303   33.6011   36.5299 H   0  0  0  0  0  0  0  0  0  0  0  0
   49.5833   35.8537   40.4752 H   0  0  0  0  0  0  0  0  0  0  0  0
   45.0787   35.6290   43.3609 H   0  0  0  0  0  0  0  0  0  0  0  0
   47.1715   32.1495   46.0991 H   0  0  0  0  0  0  0  0  0  0  0  0
   43.6928   35.1301   47.1709 C   0  0  0  0  0  0  0  0  0  0  0  0
   44.7683   35.4875   48.1688 C   0  0  0  0  0  0  0  0  0  0  0  0
   45.5955   34.2146   48.3804 C   0  0  0  0  0  0  0  0  0  0  0  0
   45.0878   33.2678   47.3012 C   0  0  0  0  0  0  0  0  0  0  0  0
   43.6051   33.6044   47.3061 C   0  0  0  0  0  0  0  0  0  0  0  0
   42.7228   35.6049   47.3780 H   0  0  0  0  0  0  0  0  0  0  0  0
   44.2565   35.7068   49.1287 H   0  0  0  0  0  0  0  0  0  0  0  0
   45.4197   36.3084   47.8282 H   0  0  0  0  0  0  0  0  0  0  0  0
   46.6574   34.4396   48.1757 H   0  0  0  0  0  0  0  0  0  0  0  0
   45.4363   33.7758   49.3803 H   0  0  0  0  0  0  0  0  0  0  0  0
   45.5190   33.5941   46.3525 H   0  0  0  0  0  0  0  0  0  0  0  0
   45.2650   32.2093   47.5651 H   0  0  0  0  0  0  0  0  0  0  0  0
   43.1602   33.3774   48.3027 H   0  0  0  0  0  0  0  0  0  0  0  0
   43.0747   33.1481   46.4681 H   0  0  0  0  0  0  0  0  0  0  0  0
  1  2  2  0
  2 12  1  0
  3  2  1  0
  4  3  2  0
  5  4  1  0
  6  7  2  0
  6  5  1  0
  7  8  1  0
  8  4  1  0
  8  9  2  0
  9  1  1  0
 10 16  1  0
 10 15  1  0
 11 10  2  0
 12 11  1  0
 12 13  2  0
 13 14  1  0
 14 15  2  0
  1 17  1  0
  3 18  1  0
  5 19  1  0
  6 20  1  0
  9 21  1  0
 11 22  1  0
 14 23  1  0
 24 25  1  0
 25 26  1  0
 26 27  1  0
 27 28  1  0
 28 24  1  0
 24 29  1  0
 25 30  1  0
 25 31  1  0
 26 32  1  0
 26 33  1  0
 27 34  1  0
 27 35  1  0
 28 36  1  0
 28 37  1  0
 16 24  1  0
M  ISO  7  17  14  18  14  19   9  20  14  21  14  22  14  23  14
M  END
>  <DihAtoms>  (1) 
9,15,23,24

>  <DihDeg>  (1) 
-127.82535051350159

$$$$
