
     RDKit          3D

 43 46  0  0  1  0  0  0  0  0999 V2000
   43.1250   33.1470   40.6100 C   0  0  2  0  0  0  0  0  0  0  0  0
   42.9910   32.3610   41.8890 C   0  0  0  0  0  0  0  0  0  0  0  0
   44.4630   32.0120   42.1040 C   0  0  0  0  0  0  0  0  0  0  0  0
   45.2280   33.2150   41.5780 C   0  0  1  0  0  0  0  0  0  0  0  0
   44.2040   34.1440   41.0400 C   0  0  0  0  0  0  0  0  0  0  0  0
   40.0740   34.3170   38.7230 C   0  0  0  0  0  0  0  0  0  0  0  0
   41.2300   33.5730   39.0090 C   0  0  0  0  0  0  0  0  0  0  0  0
   41.8810   33.8590   40.2130 C   0  0  0  0  0  0  0  0  0  0  0  0
   41.3840   34.8400   41.0670 N   0  0  0  0  0  0  0  0  0  0  0  0
   40.2610   35.5180   40.7250 C   0  0  0  0  0  0  0  0  0  0  0  0
   39.6180   35.2630   39.5740 N   0  0  0  0  0  0  0  0  0  0  0  0
   45.9820   33.9460   42.6220 C   0  0  2  0  0  0  0  0  0  0  0  0
   45.7540   35.4040   42.7350 C   0  0  0  0  0  0  0  0  0  0  0  0
   47.1120   34.8000   42.4690 C   0  0  2  0  0  0  0  0  0  0  0  0
   47.9650   35.1080   41.3170 C   0  0  0  0  0  0  0  0  0  0  0  0
   48.6330   33.8850   40.7750 C   0  0  0  0  0  0  0  0  0  0  0  0
   49.5580   33.5340   41.9500 C   0  0  0  0  0  0  0  0  0  0  0  0
   50.0040   34.8900   42.4790 C   0  0  0  0  0  0  0  0  0  0  0  0
   49.1780   35.9230   41.7460 C   0  0  0  0  0  0  0  0  0  0  0  0
   43.3498   32.5263   39.7301 H   0  0  0  0  0  0  0  0  0  0  0  0
   42.5871   32.9723   42.7094 H   0  0  0  0  0  0  0  0  0  0  0  0
   42.3006   31.5055   41.8508 H   0  0  0  0  0  0  0  0  0  0  0  0
   44.6723   31.8567   43.1727 H   0  0  0  0  0  0  0  0  0  0  0  0
   44.7484   31.0817   41.5910 H   0  0  0  0  0  0  0  0  0  0  0  0
   45.9627   32.8628   40.8390 H   0  0  0  0  0  0  0  0  0  0  0  0
   44.5876   34.7214   40.1859 H   0  0  0  0  0  0  0  0  0  0  0  0
   43.8629   34.9124   41.7494 H   0  0  0  0  0  0  0  0  0  0  0  0
   39.5283   34.1261   37.7872 H   0  0  0  0  0  0  0  0  0  0  0  0
   41.6053   32.8026   38.3194 H   0  0  0  0  0  0  0  0  0  0  0  0
   39.8694   36.2910   41.4026 H   0  0  0  0  0  0  0  0  0  0  0  0
   45.8739   33.0386   43.2343 H   0  0  0  0  0  0  0  0  0  0  0  0
   45.2202   35.9488   41.9424 H   0  0  0  0  0  0  0  0  0  0  0  0
   45.3187   36.0857   43.4805 H   0  0  0  0  0  0  0  0  0  0  0  0
   48.1143   34.7904   42.9221 H   0  0  0  0  0  0  0  0  0  0  0  0
   47.2945   35.6077   40.6024 H   0  0  0  0  0  0  0  0  0  0  0  0
   47.9092   33.0817   40.5728 H   0  0  0  0  0  0  0  0  0  0  0  0
   49.1456   34.0287   39.8124 H   0  0  0  0  0  0  0  0  0  0  0  0
   49.0135   32.9717   42.7229 H   0  0  0  0  0  0  0  0  0  0  0  0
   50.4023   32.8956   41.6506 H   0  0  0  0  0  0  0  0  0  0  0  0
   49.8221   34.9552   43.5619 H   0  0  0  0  0  0  0  0  0  0  0  0
   51.0802   35.0490   42.3159 H   0  0  0  0  0  0  0  0  0  0  0  0
   49.7188   36.3239   40.8760 H   0  0  0  0  0  0  0  0  0  0  0  0
   48.9285   36.8054   42.3535 H   0  0  0  0  0  0  0  0  0  0  0  0
  1  5  1  0
  1  2  1  0
  2  3  1  0
  4  3  1  0
  4 12  1  0
  5  4  1  0
  6  7  2  0
  6 11  1  0
  7  8  1  0
  8  1  1  0
  8  9  2  0
 10  9  1  0
 11 10  2  0
 12 13  1  0
 14 12  1  0
 14 13  1  0
 15 19  1  0
 15 14  1  0
 16 15  1  0
 16 17  1  0
 17 18  1  0
 19 18  1  0
  1 20  1  6
  2 21  1  0
  2 22  1  0
  3 23  1  0
  3 24  1  0
  4 25  1  6
  5 26  1  0
  5 27  1  0
  6 28  1  0
  7 29  1  0
 10 30  1  0
 12 31  1  1
 13 32  1  0
 13 33  1  0
 14 34  1  1
 15 35  1  0
 16 36  1  0
 16 37  1  0
 17 38  1  0
 17 39  1  0
 18 40  1  0
 18 41  1  0
 19 42  1  0
 19 43  1  0
M  ISO  8  20  13  21  13  22  13  23  13  24  13  25  13  26  13  27  13
M  ISO  8  28  14  29  14  30  14  31  13  32  13  33  13  34  13  35  13
M  ISO  8  36  13  37  13  38  13  39  13  40  13  41  13  42  13  43  13
M  END
>  <minimizedAffinity>  (1) 
-5.40615416

>  <minimizedRMSD>  (1) 
4.97121572

$$$$
