
     RDKit          3D

 30 32  0  0  0  0  0  0  0  0999 V2000
   45.8830   34.2680   43.6710 C   0  0  0  0  0  0  0  0  0  0  0  0
   46.6950   34.4370   42.5310 C   0  0  0  0  0  0  0  0  0  0  0  0
   47.8430   33.6270   42.3840 C   0  0  0  0  0  0  0  0  0  0  0  0
   48.0920   32.7200   43.3720 N   0  0  0  0  0  0  0  0  0  0  0  0
   47.2780   32.5970   44.4500 C   0  0  0  0  0  0  0  0  0  0  0  0
   46.1950   33.3480   44.6070 N   0  0  0  0  0  0  0  0  0  0  0  0
   44.6960   35.1400   43.7940 C   0  0  0  0  0  0  0  0  0  0  0  0
   44.5360   35.7410   45.2070 C   0  0  0  0  0  0  0  0  0  0  0  0
   44.7940   36.5690   44.0050 C   0  0  0  0  0  0  0  0  0  0  0  0
   48.7590   33.7300   41.2200 C   0  0  0  0  0  0  0  0  0  0  0  0
   48.3040   34.7680   40.2310 C   0  0  0  0  0  0  0  0  0  0  0  0
   47.9270   34.0290   38.9700 C   0  0  0  0  0  0  0  0  0  0  0  0
   48.8750   32.8650   38.9970 C   0  0  0  0  0  0  0  0  0  0  0  0
   48.8640   32.4370   40.4490 C   0  0  0  0  0  0  0  0  0  0  0  0
   46.4389   35.1873   41.7685 H   0  0  0  0  0  0  0  0  0  0  0  0
   47.5235   31.8502   45.2194 H   0  0  0  0  0  0  0  0  0  0  0  0
   44.1222   34.5519   43.0627 H   0  0  0  0  0  0  0  0  0  0  0  0
   43.5512   35.7603   45.6967 H   0  0  0  0  0  0  0  0  0  0  0  0
   45.0096   35.5977   46.1894 H   0  0  0  0  0  0  0  0  0  0  0  0
   45.7687   37.0659   43.8909 H   0  0  0  0  0  0  0  0  0  0  0  0
   44.2834   37.4358   43.5601 H   0  0  0  0  0  0  0  0  0  0  0  0
   49.7306   33.9999   41.6595 H   0  0  0  0  0  0  0  0  0  0  0  0
   47.4336   35.3124   40.6261 H   0  0  0  0  0  0  0  0  0  0  0  0
   49.0979   35.5041   40.0362 H   0  0  0  0  0  0  0  0  0  0  0  0
   48.0853   34.6531   38.0782 H   0  0  0  0  0  0  0  0  0  0  0  0
   46.8672   33.7377   38.9259 H   0  0  0  0  0  0  0  0  0  0  0  0
   48.5204   32.0534   38.3447 H   0  0  0  0  0  0  0  0  0  0  0  0
   49.8806   33.1217   38.6326 H   0  0  0  0  0  0  0  0  0  0  0  0
   48.0004   31.7883   40.6572 H   0  0  0  0  0  0  0  0  0  0  0  0
   49.7579   31.8570   40.7222 H   0  0  0  0  0  0  0  0  0  0  0  0
  1  7  1  0
  1  6  1  0
  2  1  2  0
  3  2  1  0
  3  4  2  0
  4  5  1  0
  5  6  2  0
  7  9  1  0
  7  8  1  0
  9  8  1  0
 10  3  1  0
 11 10  1  0
 12 13  1  0
 12 11  1  0
 13 14  1  0
 14 10  1  0
  2 15  1  0
  5 16  1  0
  7 17  1  0
  8 18  1  0
  8 19  1  0
  9 20  1  0
  9 21  1  0
 10 22  1  0
 11 23  1  0
 11 24  1  0
 12 25  1  0
 12 26  1  0
 13 27  1  0
 13 28  1  0
 14 29  1  0
 14 30  1  0
M  ISO  8  15  14  16  14  17  13  18  13  19  13  20  13  21  13  22  13
M  ISO  8  23  13  24  13  25  13  26  13  27  13  28  13  29  13  30  13
M  END
>  <minimizedAffinity>  (1) 
-4.03977156

>  <minimizedRMSD>  (1) 
2.68798256

$$$$
