
     RDKit          3D

 37 40  0  0  0  0  0  0  0  0999 V2000
   48.1759   35.0606   41.9351 C   0  0  0  0  0  0  0  0  0  0  0  0
   47.0576   34.2618   42.0925 C   0  0  0  0  0  0  0  0  0  0  0  0
   46.5059   33.6684   40.9856 C   0  0  0  0  0  0  0  0  0  0  0  0
   47.0332   33.8439   39.7155 C   0  0  0  0  0  0  0  0  0  0  0  0
   46.6511   33.3587   38.5075 N   0  0  0  0  0  0  0  0  0  0  0  0
   47.5440   33.8610   37.5762 C   0  0  0  0  0  0  0  0  0  0  0  0
   48.4426   34.6365   38.2439 N   0  0  0  0  0  0  0  0  0  0  0  0
   48.1452   34.6371   39.5522 C   0  0  0  0  0  0  0  0  0  0  0  0
   48.7110   35.2402   40.6552 C   0  0  0  0  0  0  0  0  0  0  0  0
   45.1157   34.6204   45.3091 C   0  0  0  0  0  0  0  0  0  0  0  0
   45.5266   34.8695   43.9766 C   0  0  0  0  0  0  0  0  0  0  0  0
   46.5415   34.1086   43.4459 C   0  0  0  0  0  0  0  0  0  0  0  0
   47.1046   33.1536   44.2205 N   0  0  0  0  0  0  0  0  0  0  0  0
   46.7075   32.9181   45.4977 C   0  0  0  0  0  0  0  0  0  0  0  0
   45.7302   33.6433   46.0239 N   0  0  0  0  0  0  0  0  0  0  0  0
   44.0921   35.3903   45.8394 O   0  0  0  0  0  0  0  0  0  0  0  0
   48.7029   35.5799   42.7098 H   0  0  0  0  0  0  0  0  0  0  0  0
   45.6341   33.0578   41.1807 H   0  0  0  0  0  0  0  0  0  0  0  0
   45.8359   32.7366   38.3856 H   0  0  0  0  0  0  0  0  0  0  0  0
   47.4303   33.6011   36.5299 H   0  0  0  0  0  0  0  0  0  0  0  0
   49.5833   35.8537   40.4752 H   0  0  0  0  0  0  0  0  0  0  0  0
   45.0787   35.6290   43.3609 H   0  0  0  0  0  0  0  0  0  0  0  0
   47.1715   32.1495   46.0991 H   0  0  0  0  0  0  0  0  0  0  0  0
   43.6928   35.1301   47.1709 C   0  0  0  0  0  0  0  0  0  0  0  0
   43.0253   33.7831   47.3130 C   0  0  0  0  0  0  0  0  0  0  0  0
   41.5241   34.0274   47.1228 C   0  0  0  0  0  0  0  0  0  0  0  0
   41.4491   35.4697   46.6403 C   0  0  0  0  0  0  0  0  0  0  0  0
   42.5481   36.1044   47.4776 C   0  0  0  0  0  0  0  0  0  0  0  0
   44.5378   35.2790   47.8586 H   0  0  0  0  0  0  0  0  0  0  0  0
   43.1722   33.4605   48.3646 H   0  0  0  0  0  0  0  0  0  0  0  0
   43.3829   33.0429   46.5792 H   0  0  0  0  0  0  0  0  0  0  0  0
   41.1538   33.3700   46.3162 H   0  0  0  0  0  0  0  0  0  0  0  0
   40.9603   33.9089   48.0640 H   0  0  0  0  0  0  0  0  0  0  0  0
   41.7561   35.4791   45.5924 H   0  0  0  0  0  0  0  0  0  0  0  0
   40.4639   35.9241   46.8513 H   0  0  0  0  0  0  0  0  0  0  0  0
   42.3083   36.0149   48.5626 H   0  0  0  0  0  0  0  0  0  0  0  0
   42.7780   37.1218   47.1557 H   0  0  0  0  0  0  0  0  0  0  0  0
  1  2  2  0
  2 12  1  0
  3  2  1  0
  4  3  2  0
  5  4  1  0
  6  7  2  0
  6  5  1  0
  7  8  1  0
  8  4  1  0
  8  9  2  0
  9  1  1  0
 10 16  1  0
 10 15  1  0
 11 10  2  0
 12 11  1  0
 12 13  2  0
 13 14  1  0
 14 15  2  0
  1 17  1  0
  3 18  1  0
  5 19  1  0
  6 20  1  0
  9 21  1  0
 11 22  1  0
 14 23  1  0
 24 25  1  0
 25 26  1  0
 26 27  1  0
 27 28  1  0
 28 24  1  0
 24 29  1  0
 25 30  1  0
 25 31  1  0
 26 32  1  0
 26 33  1  0
 27 34  1  0
 27 35  1  0
 28 36  1  0
 28 37  1  0
 16 24  1  0
M  ISO  7  17  14  18  14  19   9  20  14  21  14  22  14  23  14
M  END
>  <DihAtoms>  (1) 
9,15,23,24

>  <DihDeg>  (1) 
-127.82535051350159

$$$$
