
     RDKit          3D

 22 23  0  0  0  0  0  0  0  0999 V2000
   44.5539   36.0370   44.4863 C   0  0  0  0  0  0  0  0  0  0  0  0
   45.2170   35.9499   43.2342 C   0  0  0  0  0  0  0  0  0  0  0  0
   46.0788   34.8831   43.0294 C   0  0  0  0  0  0  0  0  0  0  0  0
   46.2368   33.9890   44.0337 N   0  0  0  0  0  0  0  0  0  0  0  0
   45.5947   34.0900   45.2213 C   0  0  0  0  0  0  0  0  0  0  0  0
   44.7651   35.1074   45.4326 N   0  0  0  0  0  0  0  0  0  0  0  0
   46.7851   34.7690   41.7265 C   0  0  0  0  0  0  0  0  0  0  0  0
   48.1866   35.2996   41.8770 C   0  0  0  0  0  0  0  0  0  0  0  0
   43.9108   36.9069   44.5291 H   0  0  0  0  0  0  0  0  0  0  0  0
   45.0892   36.6653   42.4335 H   0  0  0  0  0  0  0  0  0  0  0  0
   45.7321   33.3667   46.0137 H   0  0  0  0  0  0  0  0  0  0  0  0
   46.8436   33.6920   41.4650 H   0  0  0  0  0  0  0  0  0  0  0  0
   46.2042   35.2814   40.9620 H   0  0  0  0  0  0  0  0  0  0  0  0
   48.1196   36.3547   42.2182 H   0  0  0  0  0  0  0  0  0  0  0  0
   48.7349   34.7624   42.6566 H   0  0  0  0  0  0  0  0  0  0  0  0
   48.8923   35.1797   40.5536 C   0  0  0  0  0  0  0  0  0  0  0  0
   48.4248   34.3716   39.4454 C   0  0  0  0  0  0  0  0  0  0  0  0
   47.5183   33.7945   39.5103 H   0  0  0  0  0  0  0  0  0  0  0  0
   49.6797   34.6543   38.2017 S   0  0  0  0  0  0  0  0  0  0  0  0
   50.6451   35.8178   39.3603 C   0  0  0  0  0  0  0  0  0  0  0  0
   51.6180   36.3588   39.1154 H   0  0  0  0  0  0  0  0  0  0  0  0
   50.0174   35.8231   40.3104 N   0  0  0  0  0  0  0  0  0  0  0  0
  1  6  2  0
  2  1  1  0
  3  2  2  0
  3  4  1  0
  4  5  2  0
  5  6  1  0
  7  8  1  0
  7  3  1  0
  1  9  1  0
  2 10  1  0
  5 11  1  0
  7 12  1  0
  7 13  1  0
  8 14  1  0
  8 15  1  0
 16 17  2  0
 17 18  1  0
 17 19  1  0
 19 20  1  0
 20 21  1  0
 20 22  2  0
 22 16  1  0
  8 16  1  0
M  ISO  8   9  14  10  14  11  14  12   8  13   8  14   8  15   8  18  15
M  ISO  1  21  16
M  END
>  <DihAtoms>  (1) 
6,7,15,16

>  <DihDeg>  (1) 
0.0016187450277399633

$$$$
