
     RDKit          3D

 18 19  0  0  0  0  0  0  0  0999 V2000
   45.1880   35.5440   43.5690 C   0  0  0  0  0  0  0  0  0  0  0  0
   46.3660   35.0830   42.9610 C   0  0  0  0  0  0  0  0  0  0  0  0
   47.1200   34.0650   43.5560 C   0  0  0  0  0  0  0  0  0  0  0  0
   46.6280   33.5890   44.7200 N   0  0  0  0  0  0  0  0  0  0  0  0
   45.5060   34.0320   45.2930 C   0  0  0  0  0  0  0  0  0  0  0  0
   44.7990   35.0010   44.7150 N   0  0  0  0  0  0  0  0  0  0  0  0
   44.4630   36.5850   42.9120 N   0  0  0  0  0  0  0  0  0  0  0  0
   48.3650   33.5550   42.9450 C   0  0  0  0  0  0  0  0  0  0  0  0
   48.4100   32.2740   42.4470 C   0  0  0  0  0  0  0  0  0  0  0  0
   50.1070   32.1370   41.8260 S   0  0  0  0  0  0  0  0  0  0  0  0
   50.5000   33.8860   42.3520 C   0  0  0  0  0  0  0  0  0  0  0  0
   49.4630   34.2420   42.8340 N   0  0  0  0  0  0  0  0  0  0  0  0
   46.6990   35.5248   42.0103 H   0  0  0  0  0  0  0  0  0  0  0  0
   45.1655   33.5958   46.2437 H   0  0  0  0  0  0  0  0  0  0  0  0
   44.8097   36.9719   42.0226 H   0  0  0  0  0  0  0  0  0  0  0  0
   43.5936   36.9486   43.3277 H   0  0  0  0  0  0  0  0  0  0  0  0
   47.6115   31.5177   42.4298 H   0  0  0  0  0  0  0  0  0  0  0  0
   51.4415   34.4450   42.2462 H   0  0  0  0  0  0  0  0  0  0  0  0
  1  6  2  0
  2  3  2  0
  2  1  1  0
  3  4  1  0
  4  5  2  0
  6  5  1  0
  7  1  1  0
  8  3  1  0
  9  8  2  0
 10 11  1  0
 10  9  1  0
 11 12  2  0
 12  8  1  0
  2 13  1  0
  5 14  1  0
  7 15  1  0
  7 16  1  0
  9 17  1  0
 11 18  1  0
M  ISO  4  13  14  14  14  17  14  18  14
M  END
>  <minimizedAffinity>  (1) 
-3.99282479

>  <minimizedRMSD>  (1) 
1.00098217

$$$$
