
     RDKit          3D

 32 35  0  0  0  0  0  0  0  0999 V2000
   47.6190   32.2760   48.1600 C   0  0  0  0  0  0  0  0  0  0  0  0
   47.2250   30.9350   48.2110 C   0  0  0  0  0  0  0  0  0  0  0  0
   46.3440   30.5020   47.2670 C   0  0  0  0  0  0  0  0  0  0  0  0
   45.9150   31.3910   46.3540 N   0  0  0  0  0  0  0  0  0  0  0  0
   46.2720   32.6500   46.2900 C   0  0  0  0  0  0  0  0  0  0  0  0
   47.1300   33.0680   47.2100 N   0  0  0  0  0  0  0  0  0  0  0  0
   45.8990   33.7300   45.3700 C   0  0  0  0  0  0  0  0  0  0  0  0
   44.9260   34.6480   45.6290 N   0  0  0  0  0  0  0  0  0  0  0  0
   44.5610   35.6370   44.8330 C   0  0  0  0  0  0  0  0  0  0  0  0
   45.1760   35.7990   43.6400 N   0  0  0  0  0  0  0  0  0  0  0  0
   46.1610   34.9530   43.2610 C   0  0  0  0  0  0  0  0  0  0  0  0
   46.7890   35.1250   42.0360 C   0  0  0  0  0  0  0  0  0  0  0  0
   47.7890   34.2760   41.6410 C   0  0  0  0  0  0  0  0  0  0  0  0
   48.1350   33.2620   42.5020 C   0  0  0  0  0  0  0  0  0  0  0  0
   47.4850   33.1300   43.7070 C   0  0  0  0  0  0  0  0  0  0  0  0
   46.4720   33.9540   44.1550 C   0  0  0  0  0  0  0  0  0  0  0  0
   45.8480   29.1400   47.1960 C   0  0  0  0  0  0  0  0  0  0  0  0
   44.5160   28.8430   46.7070 C   0  0  0  0  0  0  0  0  0  0  0  0
   44.3960   27.0370   46.8210 S   0  0  0  0  0  0  0  0  0  0  0  0
   46.1650   26.9360   47.5130 C   0  0  0  0  0  0  0  0  0  0  0  0
   46.4710   28.0320   47.5340 N   0  0  0  0  0  0  0  0  0  0  0  0
   47.7710   30.1400   49.2390 N   0  0  0  0  0  0  0  0  0  0  0  0
   48.3287   32.6730   48.9008 H   0  0  0  0  0  0  0  0  0  0  0  0
   43.7600   36.3258   45.1395 H   0  0  0  0  0  0  0  0  0  0  0  0
   46.4815   35.9499   41.3764 H   0  0  0  0  0  0  0  0  0  0  0  0
   48.2953   34.4009   40.6725 H   0  0  0  0  0  0  0  0  0  0  0  0
   48.9322   32.5556   42.2272 H   0  0  0  0  0  0  0  0  0  0  0  0
   47.7962   32.3046   44.3641 H   0  0  0  0  0  0  0  0  0  0  0  0
   43.7534   29.5504   46.3491 H   0  0  0  0  0  0  0  0  0  0  0  0
   46.7419   26.0493   47.8144 H   0  0  0  0  0  0  0  0  0  0  0  0
   47.5096   29.1467   49.3158 H   0  0  0  0  0  0  0  0  0  0  0  0
   48.4313   30.5524   49.9134 H   0  0  0  0  0  0  0  0  0  0  0  0
  1  2  2  0
  2 22  1  0
  3  2  1  0
  4  3  2  0
  5  4  1  0
  5  6  2  0
  6  1  1  0
  7  8  2  0
  7  5  1  0
  9  8  1  0
 10  9  2  0
 11 10  1  0
 11 16  2  0
 12 11  1  0
 13 12  2  0
 13 14  1  0
 14 15  2  0
 15 16  1  0
 16  7  1  0
 17  3  1  0
 17 21  1  0
 18 19  1  0
 18 17  2  0
 19 20  1  0
 20 21  2  0
  1 23  1  0
  9 24  1  0
 12 25  1  0
 13 26  1  0
 14 27  1  0
 15 28  1  0
 18 29  1  0
 20 30  1  0
 22 31  1  0
 22 32  1  0
M  ISO  8  23  14  24  14  25  14  26  14  27  14  28  14  29  14  30  14
M  END
>  <minimizedAffinity>  (1) 
-6.12277269

>  <minimizedRMSD>  (1) 
0.15527226

$$$$
