
     RDKit          3D

 33 35  0  0  0  0  0  0  0  0999 V2000
   47.2530   29.8870   44.9590 F   0  0  0  0  0  0  0  0  0  0  0  0
   47.3090   30.6910   46.0820 C   0  0  0  0  0  0  0  0  0  0  0  0
   46.9160   32.0000   45.9820 C   0  0  0  0  0  0  0  0  0  0  0  0
   46.9960   32.7520   47.1480 C   0  0  0  0  0  0  0  0  0  0  0  0
   47.4470   32.1990   48.3150 C   0  0  0  0  0  0  0  0  0  0  0  0
   47.8280   30.8700   48.3390 C   0  0  0  0  0  0  0  0  0  0  0  0
   47.7700   30.0620   47.2060 C   0  0  0  0  0  0  0  0  0  0  0  0
   46.7520   34.1250   43.0170 C   0  0  0  0  0  0  0  0  0  0  0  0
   45.5950   33.7090   42.3630 C   0  0  0  0  0  0  0  0  0  0  0  0
   44.8600   32.6740   42.9620 C   0  0  0  0  0  0  0  0  0  0  0  0
   45.3000   32.1380   44.1240 N   0  0  0  0  0  0  0  0  0  0  0  0
   46.4350   32.5810   44.7190 C   0  0  0  0  0  0  0  0  0  0  0  0
   47.1560   33.5730   44.1640 N   0  0  0  0  0  0  0  0  0  0  0  0
   45.1940   34.3530   41.0980 C   0  0  0  0  0  0  0  0  0  0  0  0
   44.9370   35.6940   41.3110 F   0  0  0  0  0  0  0  0  0  0  0  0
   46.2850   34.2980   40.2270 F   0  0  0  0  0  0  0  0  0  0  0  0
   44.1260   33.7950   40.4850 F   0  0  0  0  0  0  0  0  0  0  0  0
   47.4690   35.1320   42.4370 O   0  0  0  0  0  0  0  0  0  0  0  0
   48.7830   35.0320   41.9150 C   0  0  0  0  0  0  0  0  0  0  0  0
   49.6500   35.3120   42.9790 F   0  0  0  0  0  0  0  0  0  0  0  0
   48.9880   33.8030   41.3580 F   0  0  0  0  0  0  0  0  0  0  0  0
   48.9950   36.0630   41.0220 F   0  0  0  0  0  0  0  0  0  0  0  0
   48.1770   28.6440   47.2350 C   0  0  0  0  0  0  0  0  0  0  0  0
   49.5670   28.3370   47.0120 C   0  0  0  0  0  0  0  0  0  0  0  0
   49.4990   26.5050   47.1520 S   0  0  0  0  0  0  0  0  0  0  0  0
   47.6500   26.4830   47.4780 C   0  0  0  0  0  0  0  0  0  0  0  0
   47.3020   27.6820   47.4550 N   0  0  0  0  0  0  0  0  0  0  0  0
   46.6917   33.8090   47.1322 H   0  0  0  0  0  0  0  0  0  0  0  0
   47.5062   32.8080   49.2291 H   0  0  0  0  0  0  0  0  0  0  0  0
   48.1886   30.4368   49.2836 H   0  0  0  0  0  0  0  0  0  0  0  0
   43.9371   32.3029   42.4923 H   0  0  0  0  0  0  0  0  0  0  0  0
   50.4196   29.0037   46.8155 H   0  0  0  0  0  0  0  0  0  0  0  0
   47.0116   25.6042   47.6516 H   0  0  0  0  0  0  0  0  0  0  0  0
  1  2  1  0
  2  7  2  0
  3  2  1  0
  3  4  2  0
  4  5  1  0
  5  6  2  0
  7 23  1  0
  7  6  1  0
  8 13  2  0
  9 10  2  0
  9  8  1  0
 10 11  1  0
 11 12  2  0
 12  3  1  0
 13 12  1  0
 14 15  1  0
 14  9  1  0
 16 14  1  0
 17 14  1  0
 18  8  1  0
 19 18  1  0
 19 20  1  0
 21 19  1  0
 22 19  1  0
 23 27  1  0
 24 25  1  0
 24 23  2  0
 25 26  1  0
 27 26  2  0
  4 28  1  0
  5 29  1  0
  6 30  1  0
 10 31  1  0
 24 32  1  0
 26 33  1  0
M  ISO  6  28  14  29  14  30  14  31  14  32  14  33  14
M  END
>  <minimizedAffinity>  (1) 
-5.54115105

>  <minimizedRMSD>  (1) 
0.623418868

$$$$
