
     RDKit          3D

 28 30  0  0  0  0  0  0  0  0999 V2000
   45.1110   33.2940   41.1390 F   0  0  0  0  0  0  0  0  0  0  0  0
   46.2700   33.9010   40.9350 C   0  0  0  0  0  0  0  0  0  0  0  0
   46.7840   34.7270   41.9250 C   0  0  0  0  0  0  0  0  0  0  0  0
   47.9810   35.3980   41.7920 C   0  0  0  0  0  0  0  0  0  0  0  0
   48.7280   35.2640   40.6360 C   0  0  0  0  0  0  0  0  0  0  0  0
   48.1780   34.4320   39.6770 C   0  0  0  0  0  0  0  0  0  0  0  0
   46.9750   33.7390   39.7740 C   0  0  0  0  0  0  0  0  0  0  0  0
   45.4190   34.1100   45.2950 C   0  0  0  0  0  0  0  0  0  0  0  0
   44.6320   35.2680   45.4970 C   0  0  0  0  0  0  0  0  0  0  0  0
   44.5760   36.2400   44.4890 C   0  0  0  0  0  0  0  0  0  0  0  0
   45.3000   35.9960   43.3580 N   0  0  0  0  0  0  0  0  0  0  0  0
   46.0350   34.9070   43.1770 C   0  0  0  0  0  0  0  0  0  0  0  0
   46.0880   33.9760   44.1470 N   0  0  0  0  0  0  0  0  0  0  0  0
   45.4720   33.1360   46.3150 N   0  0  0  0  0  0  0  0  0  0  0  0
   46.5220   32.8870   38.6620 C   0  0  0  0  0  0  0  0  0  0  0  0
   46.4680   31.4700   38.8100 C   0  0  0  0  0  0  0  0  0  0  0  0
   45.8530   30.9340   37.1700 S   0  0  0  0  0  0  0  0  0  0  0  0
   45.7730   32.7370   36.5550 C   0  0  0  0  0  0  0  0  0  0  0  0
   46.1500   33.4090   37.4870 N   0  0  0  0  0  0  0  0  0  0  0  0
   48.3427   36.0416   42.6075 H   0  0  0  0  0  0  0  0  0  0  0  0
   49.6881   35.7805   40.4897 H   0  0  0  0  0  0  0  0  0  0  0  0
   48.7485   34.3057   38.7450 H   0  0  0  0  0  0  0  0  0  0  0  0
   44.0711   35.4038   46.4334 H   0  0  0  0  0  0  0  0  0  0  0  0
   43.9773   37.1556   44.6038 H   0  0  0  0  0  0  0  0  0  0  0  0
   46.0395   32.2861   46.1865 H   0  0  0  0  0  0  0  0  0  0  0  0
   44.9432   33.2751   47.1879 H   0  0  0  0  0  0  0  0  0  0  0  0
   46.7288   30.8561   39.6847 H   0  0  0  0  0  0  0  0  0  0  0  0
   45.4523   33.0905   35.5639 H   0  0  0  0  0  0  0  0  0  0  0  0
  2  1  1  0
  2  3  2  0
  3 12  1  0
  4  3  1  0
  5  4  2  0
  6  7  2  0
  6  5  1  0
  7  2  1  0
  8  9  2  0
  8 14  1  0
 10  9  1  0
 11 10  2  0
 12 11  1  0
 12 13  2  0
 13  8  1  0
 15 16  2  0
 15  7  1  0
 17 16  1  0
 18 17  1  0
 18 19  2  0
 19 15  1  0
  4 20  1  0
  5 21  1  0
  6 22  1  0
  9 23  1  0
 10 24  1  0
 14 25  1  0
 14 26  1  0
 16 27  1  0
 18 28  1  0
M  ISO  7  20  14  21  14  22  14  23  14  24  14  27  14  28  14
M  END
>  <minimizedAffinity>  (1) 
-5.84733057

>  <minimizedRMSD>  (1) 
0.165210545

$$$$
