
     RDKit          3D

 40 43  0  0  0  0  0  0  0  0999 V2000
   45.3470   33.7700   45.6450 C   0  0  0  0  0  0  0  0  0  0  0  0
   44.8080   34.9920   45.9360 C   0  0  0  0  0  0  0  0  0  0  0  0
   44.3830   35.8960   44.9960 C   0  0  0  0  0  0  0  0  0  0  0  0
   44.5280   35.5080   43.7050 N   0  0  0  0  0  0  0  0  0  0  0  0
   45.0550   34.3090   43.4100 C   0  0  0  0  0  0  0  0  0  0  0  0
   45.4720   33.4230   44.3440 N   0  0  0  0  0  0  0  0  0  0  0  0
   45.2040   33.9010   41.9980 C   0  0  0  0  0  0  0  0  0  0  0  0
   44.1640   33.2450   41.3690 C   0  0  0  0  0  0  0  0  0  0  0  0
   44.2010   32.8200   40.0510 C   0  0  0  0  0  0  0  0  0  0  0  0
   45.3610   33.0820   39.3440 C   0  0  0  0  0  0  0  0  0  0  0  0
   46.3830   33.7260   39.9610 C   0  0  0  0  0  0  0  0  0  0  0  0
   46.3380   34.1440   41.2700 C   0  0  0  0  0  0  0  0  0  0  0  0
   47.3610   34.8000   41.9250 O   0  0  0  0  0  0  0  0  0  0  0  0
   49.8080   35.4390   42.5840 O   0  0  0  0  0  0  0  0  0  0  0  0
   48.9810   34.8390   41.4460 P   0  0  0  0  0  0  0  0  0  0  0  0
   49.6040   33.3670   40.9860 O   0  0  0  0  0  0  0  0  0  0  0  0
   49.1300   35.9040   40.1340 O   0  0  0  0  0  0  0  0  0  0  0  0
   45.5870   32.0640   48.8750 C   0  0  0  0  0  0  0  0  0  0  0  0
   46.6010   31.1350   48.6270 C   0  0  0  0  0  0  0  0  0  0  0  0
   47.1980   31.0830   47.3820 C   0  0  0  0  0  0  0  0  0  0  0  0
   46.7500   31.9700   46.4360 N   0  0  0  0  0  0  0  0  0  0  0  0
   45.7760   32.8600   46.6850 C   0  0  0  0  0  0  0  0  0  0  0  0
   45.2090   32.8940   47.8970 N   0  0  0  0  0  0  0  0  0  0  0  0
   48.2770   30.1280   47.0410 C   0  0  0  0  0  0  0  0  0  0  0  0
   49.1150   29.5930   48.0300 C   0  0  0  0  0  0  0  0  0  0  0  0
   50.2270   28.5070   47.0660 S   0  0  0  0  0  0  0  0  0  0  0  0
   49.3410   28.9790   45.4520 C   0  0  0  0  0  0  0  0  0  0  0  0
   48.5330   29.7100   45.8040 N   0  0  0  0  0  0  0  0  0  0  0  0
   44.7083   35.2692   46.9958 H   0  0  0  0  0  0  0  0  0  0  0  0
   43.9533   36.8705   45.2712 H   0  0  0  0  0  0  0  0  0  0  0  0
   43.2509   33.0480   41.9499 H   0  0  0  0  0  0  0  0  0  0  0  0
   43.3493   32.2994   39.5889 H   0  0  0  0  0  0  0  0  0  0  0  0
   45.4535   32.7714   38.2928 H   0  0  0  0  0  0  0  0  0  0  0  0
   47.2974   33.9246   39.3827 H   0  0  0  0  0  0  0  0  0  0  0  0
   49.8282   32.8372   41.7917 H   0  0  0  0  0  0  0  0  0  0  0  0
   49.2590   36.8261   40.4705 H   0  0  0  0  0  0  0  0  0  0  0  0
   45.1055   32.1120   49.8629 H   0  0  0  0  0  0  0  0  0  0  0  0
   46.9234   30.4462   49.4217 H   0  0  0  0  0  0  0  0  0  0  0  0
   49.1058   29.7797   49.1140 H   0  0  0  0  0  0  0  0  0  0  0  0
   49.5528   28.6340   44.4292 H   0  0  0  0  0  0  0  0  0  0  0  0
  1  2  2  0
  1 22  1  0
  3  2  1  0
  4  3  2  0
  5  4  1  0
  5  6  2  0
  6  1  1  0
  7  5  1  0
  8  7  2  0
  9  8  1  0
 10 11  1  0
 10  9  2  0
 11 12  2  0
 12 13  1  0
 12  7  1  0
 15 13  1  0
 15 14  2  0
 16 15  1  0
 17 15  1  0
 19 18  2  0
 20 19  1  0
 21 22  1  0
 21 20  2  0
 22 23  2  0
 23 18  1  0
 24 20  1  0
 24 25  2  0
 26 25  1  0
 27 28  2  0
 27 26  1  0
 28 24  1  0
  2 29  1  0
  3 30  1  0
  8 31  1  0
  9 32  1  0
 10 33  1  0
 11 34  1  0
 16 35  1  0
 17 36  1  0
 18 37  1  0
 19 38  1  0
 25 39  1  0
 27 40  1  0
M  ISO  8  29  14  30  14  31  14  32  14  33  14  34  14  35   3  36   3
M  ISO  4  37  14  38  14  39  14  40  14
M  END
>  <minimizedAffinity>  (1) 
-6.3087492

>  <minimizedRMSD>  (1) 
0.536452651

$$$$
