
     RDKit          3D

 35 38  0  0  0  0  0  0  0  0999 V2000
   44.8260   30.5790   47.9860 Cl  0  0  0  0  0  0  0  0  0  0  0  0
   46.0800   29.9380   46.9180 C   0  0  0  0  0  0  0  0  0  0  0  0
   47.0380   30.7740   46.3970 C   0  0  0  0  0  0  0  0  0  0  0  0
   47.9880   30.2280   45.5910 C   0  0  0  0  0  0  0  0  0  0  0  0
   47.9880   28.8870   45.3060 C   0  0  0  0  0  0  0  0  0  0  0  0
   47.0230   28.0430   45.8280 C   0  0  0  0  0  0  0  0  0  0  0  0
   46.0600   28.5980   46.6460 C   0  0  0  0  0  0  0  0  0  0  0  0
   45.0800   27.6260   47.1430 C   0  0  0  0  0  0  0  0  0  0  0  0
   43.9850   27.0640   46.5070 C   0  0  0  0  0  0  0  0  0  0  0  0
   43.3090   26.1870   47.3210 C   0  0  0  0  0  0  0  0  0  0  0  0
   44.0520   26.2470   48.4840 C   0  0  0  0  0  0  0  0  0  0  0  0
   45.0390   27.0760   48.3250 O   0  0  0  0  0  0  0  0  0  0  0  0
   46.9750   32.1940   46.7320 C   0  0  0  0  0  0  0  0  0  0  0  0
   47.3860   32.5420   47.8620 O   0  0  0  0  0  0  0  0  0  0  0  0
   44.8830   34.7620   45.2670 C   0  0  0  0  0  0  0  0  0  0  0  0
   45.4170   35.0100   43.9970 C   0  0  0  0  0  0  0  0  0  0  0  0
   46.5310   34.2520   43.6600 C   0  0  0  0  0  0  0  0  0  0  0  0
   46.9890   33.3550   44.5880 N   0  0  0  0  0  0  0  0  0  0  0  0
   46.4540   33.1540   45.7780 C   0  0  0  0  0  0  0  0  0  0  0  0
   45.3880   33.8810   46.0950 N   0  0  0  0  0  0  0  0  0  0  0  0
   47.1920   34.4160   42.3440 C   0  0  0  0  0  0  0  0  0  0  0  0
   46.8170   33.6710   41.2530 C   0  0  0  0  0  0  0  0  0  0  0  0
   47.9390   34.2710   39.9290 S   0  0  0  0  0  0  0  0  0  0  0  0
   48.7570   35.4820   41.1440 C   0  0  0  0  0  0  0  0  0  0  0  0
   48.1680   35.2480   42.0680 N   0  0  0  0  0  0  0  0  0  0  0  0
   48.7687   30.8727   45.1610 H   0  0  0  0  0  0  0  0  0  0  0  0
   48.7691   28.4742   44.6506 H   0  0  0  0  0  0  0  0  0  0  0  0
   47.0237   26.9672   45.5987 H   0  0  0  0  0  0  0  0  0  0  0  0
   43.6911   27.2929   45.4720 H   0  0  0  0  0  0  0  0  0  0  0  0
   42.4099   25.5919   47.1031 H   0  0  0  0  0  0  0  0  0  0  0  0
   43.8404   25.6803   49.4027 H   0  0  0  0  0  0  0  0  0  0  0  0
   43.9983   35.3333   45.5846 H   0  0  0  0  0  0  0  0  0  0  0  0
   44.9839   35.7544   43.3126 H   0  0  0  0  0  0  0  0  0  0  0  0
   46.0340   32.9011   41.1880 H   0  0  0  0  0  0  0  0  0  0  0  0
   49.5722   36.2034   40.9860 H   0  0  0  0  0  0  0  0  0  0  0  0
  2  1  1  0
  3 13  1  0
  3  2  2  0
  4  3  1  0
  5  4  2  0
  5  6  1  0
  6  7  2  0
  7  2  1  0
  7  8  1  0
  8 12  1  0
  9  8  2  0
  9 10  1  0
 10 11  2  0
 12 11  1  0
 13 14  2  0
 15 20  2  0
 16 15  1  0
 17 16  2  0
 17 18  1  0
 18 19  2  0
 19 20  1  0
 19 13  1  0
 21 17  1  0
 22 21  2  0
 23 24  1  0
 23 22  1  0
 24 25  2  0
 25 21  1  0
  4 26  1  0
  5 27  1  0
  6 28  1  0
  9 29  1  0
 10 30  1  0
 11 31  1  0
 15 32  1  0
 16 33  1  0
 22 34  1  0
 24 35  1  0
M  ISO  8  26  14  27  14  28  14  29  14  30  14  31  14  32  14  33  14
M  ISO  2  34  14  35  14
M  END
>  <minimizedAffinity>  (1) 
-5.77074862

>  <minimizedRMSD>  (1) 
0.26841414

$$$$
