
     RDKit          3D

 29 32  0  0  0  0  0  0  0  0999 V2000
   47.2274   31.3719   45.0801 C   0  0  0  0  0  0  0  0  0  0  0  0
   46.8841   32.7147   45.0981 C   0  0  0  0  0  0  0  0  0  0  0  0
   46.2856   33.3071   46.1873 C   0  0  0  0  0  0  0  0  0  0  0  0
   45.9998   32.5607   47.3300 C   0  0  0  0  0  0  0  0  0  0  0  0
   45.4375   32.8094   48.5398 N   0  0  0  0  0  0  0  0  0  0  0  0
   45.4271   31.6613   49.2595 C   0  0  0  0  0  0  0  0  0  0  0  0
   45.9936   30.7050   48.4677 N   0  0  0  0  0  0  0  0  0  0  0  0
   46.3495   31.2347   47.2865 C   0  0  0  0  0  0  0  0  0  0  0  0
   46.9470   30.6081   46.2203 C   0  0  0  0  0  0  0  0  0  0  0  0
   46.5043   35.2069   42.4268 C   0  0  0  0  0  0  0  0  0  0  0  0
   47.7110   35.0523   41.7067 C   0  0  0  0  0  0  0  0  0  0  0  0
   48.6511   34.0883   42.1460 C   0  0  0  0  0  0  0  0  0  0  0  0
   48.3125   33.3641   43.2585 N   0  0  0  0  0  0  0  0  0  0  0  0
   47.1668   33.5248   43.9256 C   0  0  0  0  0  0  0  0  0  0  0  0
   46.2676   34.4427   43.5103 N   0  0  0  0  0  0  0  0  0  0  0  0
   47.6988   30.9624   44.1887 H   0  0  0  0  0  0  0  0  0  0  0  0
   45.0927   33.7606   48.7978 H   0  0  0  0  0  0  0  0  0  0  0  0
   45.0175   31.6471   50.2591 H   0  0  0  0  0  0  0  0  0  0  0  0
   47.2148   29.5588   46.2076 H   0  0  0  0  0  0  0  0  0  0  0  0
   45.7589   35.9302   42.1271 H   0  0  0  0  0  0  0  0  0  0  0  0
   47.9045   35.6606   40.8403 H   0  0  0  0  0  0  0  0  0  0  0  0
   49.5725   33.9463   41.6241 H   0  0  0  0  0  0  0  0  0  0  0  0
   45.9148   34.7287   46.2224 C   0  0  0  0  0  0  0  0  0  0  0  0
   46.6004   35.7068   46.9469 C   0  0  0  0  0  0  0  0  0  0  0  0
   47.4754   35.4650   47.5446 H   0  0  0  0  0  0  0  0  0  0  0  0
   45.6725   37.2156   46.5874 S   0  0  0  0  0  0  0  0  0  0  0  0
   44.4561   36.2401   45.4687 C   0  0  0  0  0  0  0  0  0  0  0  0
   43.5350   36.6027   44.8629 H   0  0  0  0  0  0  0  0  0  0  0  0
   44.8577   35.0299   45.5020 N   0  0  0  0  0  0  0  0  0  0  0  0
  1  2  2  0
  1  9  1  0
  2  3  1  0
  3  4  2  0
  4  5  1  0
  5  6  1  0
  7  6  2  0
  8  4  1  0
  8  7  1  0
  9  8  2  0
 10 15  2  0
 11 12  2  0
 11 10  1  0
 12 13  1  0
 13 14  2  0
 14  2  1  0
 15 14  1  0
  1 16  1  0
  5 17  1  0
  6 18  1  0
  9 19  1  0
 10 20  1  0
 11 21  1  0
 12 22  1  0
 23 24  2  0
 24 25  1  0
 24 26  1  0
 26 27  1  0
 27 28  1  0
 27 29  2  0
 29 23  1  0
  3 23  1  0
M  ISO  8  16  14  17   9  18  14  19  14  20  14  21  14  22  14  25  15
M  ISO  1  28  16
M  END
>  <DihAtoms>  (1) 
1,2,22,23

>  <DihDeg>  (1) 
119.05521032352814

$$$$
