
     RDKit          3D

 41 45  0  0  0  0  0  0  0  0999 V2000
   49.7780   30.2270   49.4600 C   0  0  0  0  0  0  0  0  0  0  0  0
   50.0200   31.4050   50.0880 N   0  0  0  0  0  0  0  0  0  0  0  0
   50.6870   31.4930   51.2460 C   0  0  0  0  0  0  0  0  0  0  0  0
   51.1310   30.3520   51.7970 N   0  0  0  0  0  0  0  0  0  0  0  0
   50.9420   29.1470   51.2530 C   0  0  0  0  0  0  0  0  0  0  0  0
   51.4130   27.9720   51.8080 C   0  0  0  0  0  0  0  0  0  0  0  0
   51.1930   26.7560   51.1780 C   0  0  0  0  0  0  0  0  0  0  0  0
   50.5030   26.6670   49.9850 C   0  0  0  0  0  0  0  0  0  0  0  0
   50.0460   27.8520   49.4570 C   0  0  0  0  0  0  0  0  0  0  0  0
   50.2470   29.0700   50.0530 C   0  0  0  0  0  0  0  0  0  0  0  0
   49.3270   27.5720   48.2160 C   0  0  0  0  0  0  0  0  0  0  0  0
   50.1050   27.5440   46.9210 C   0  0  0  0  0  0  0  0  0  0  0  0
   48.7990   27.2940   45.6690 S   0  0  0  0  0  0  0  0  0  0  0  0
   47.4580   27.2670   47.0160 C   0  0  0  0  0  0  0  0  0  0  0  0
   48.0340   27.4120   47.9710 N   0  0  0  0  0  0  0  0  0  0  0  0
   48.9350   30.0920   47.9090 S   0  0  0  0  0  0  0  0  0  0  0  0
   46.0300   32.7120   46.9250 C   0  0  0  0  0  0  0  0  0  0  0  0
   47.1640   31.9300   46.9400 C   0  0  0  0  0  0  0  0  0  0  0  0
   47.4300   31.0610   47.9700 C   0  0  0  0  0  0  0  0  0  0  0  0
   46.5300   30.9560   49.0470 C   0  0  0  0  0  0  0  0  0  0  0  0
   45.4160   31.7200   49.0390 C   0  0  0  0  0  0  0  0  0  0  0  0
   45.1810   32.5760   47.9950 C   0  0  0  0  0  0  0  0  0  0  0  0
   44.5690   35.4970   45.0530 C   0  0  0  0  0  0  0  0  0  0  0  0
   45.2230   35.4350   43.8190 C   0  0  0  0  0  0  0  0  0  0  0  0
   46.1640   34.4450   43.6140 C   0  0  0  0  0  0  0  0  0  0  0  0
   46.4440   33.5440   44.6100 N   0  0  0  0  0  0  0  0  0  0  0  0
   45.7890   33.6340   45.8010 C   0  0  0  0  0  0  0  0  0  0  0  0
   44.8570   34.6060   46.0160 N   0  0  0  0  0  0  0  0  0  0  0  0
   50.8647   32.4654   51.7285 H   0  0  0  0  0  0  0  0  0  0  0  0
   51.9672   28.0015   52.7577 H   0  0  0  0  0  0  0  0  0  0  0  0
   51.5791   25.8363   51.6418 H   0  0  0  0  0  0  0  0  0  0  0  0
   50.3287   25.7027   49.4852 H   0  0  0  0  0  0  0  0  0  0  0  0
   51.1895   27.6484   46.7697 H   0  0  0  0  0  0  0  0  0  0  0  0
   46.3726   27.1394   46.8907 H   0  0  0  0  0  0  0  0  0  0  0  0
   47.8758   32.0035   46.1045 H   0  0  0  0  0  0  0  0  0  0  0  0
   46.7299   30.2651   49.8793 H   0  0  0  0  0  0  0  0  0  0  0  0
   44.6981   31.6551   49.8699 H   0  0  0  0  0  0  0  0  0  0  0  0
   44.2653   33.1852   48.0155 H   0  0  0  0  0  0  0  0  0  0  0  0
   43.8162   36.2779   45.2359 H   0  0  0  0  0  0  0  0  0  0  0  0
   44.9924   36.1614   43.0258 H   0  0  0  0  0  0  0  0  0  0  0  0
   46.6900   34.3788   42.6502 H   0  0  0  0  0  0  0  0  0  0  0  0
  1 10  1  0
  1  2  2  0
  2  3  1  0
  3  4  2  0
  5  4  1  0
  5  6  2  0
  7  6  1  0
  8  7  2  0
  9  8  1  0
  9 10  2  0
 10  5  1  0
 11  9  1  0
 12 11  2  0
 13 12  1  0
 13 14  1  0
 14 15  2  0
 15 11  1  0
 16 19  1  0
 16  1  1  0
 17 18  2  0
 17 22  1  0
 18 19  1  0
 19 20  2  0
 21 20  1  0
 22 21  2  0
 23 28  2  0
 24 23  1  0
 25 24  2  0
 25 26  1  0
 26 27  2  0
 27 28  1  0
 27 17  1  0
  3 29  1  0
  6 30  1  0
  7 31  1  0
  8 32  1  0
 12 33  1  0
 14 34  1  0
 18 35  1  0
 20 36  1  0
 21 37  1  0
 22 38  1  0
 23 39  1  0
 24 40  1  0
 25 41  1  0
M  ISO  8  29  14  30  14  31  14  32  14  33  14  34  14  35  14  36  14
M  ISO  5  37  14  38  14  39  14  40  14  41  14
M  END
>  <minimizedAffinity>  (1) 
-6.53704786

>  <minimizedRMSD>  (1) 
0.702196956

$$$$
