
     RDKit          3D

 29 32  0  0  0  0  0  0  0  0999 V2000
   47.2940   31.4090   45.1960 C   0  0  0  0  0  0  0  0  0  0  0  0
   46.8880   32.7170   45.1350 C   0  0  0  0  0  0  0  0  0  0  0  0
   46.2260   33.3270   46.1920 C   0  0  0  0  0  0  0  0  0  0  0  0
   45.9610   32.6100   47.3480 C   0  0  0  0  0  0  0  0  0  0  0  0
   45.3570   32.8590   48.5460 N   0  0  0  0  0  0  0  0  0  0  0  0
   45.3980   31.7380   49.3070 C   0  0  0  0  0  0  0  0  0  0  0  0
   46.0270   30.8000   48.5710 N   0  0  0  0  0  0  0  0  0  0  0  0
   46.3810   31.3070   47.3710 C   0  0  0  0  0  0  0  0  0  0  0  0
   47.0410   30.6640   46.3440 C   0  0  0  0  0  0  0  0  0  0  0  0
   46.4790   35.1660   42.4240 C   0  0  0  0  0  0  0  0  0  0  0  0
   47.6450   35.0000   41.6770 C   0  0  0  0  0  0  0  0  0  0  0  0
   48.5630   34.0400   42.1180 C   0  0  0  0  0  0  0  0  0  0  0  0
   48.2700   33.3220   43.2520 N   0  0  0  0  0  0  0  0  0  0  0  0
   47.1450   33.5030   43.9470 C   0  0  0  0  0  0  0  0  0  0  0  0
   46.2590   34.4250   43.5250 N   0  0  0  0  0  0  0  0  0  0  0  0
   47.4730   29.2490   46.4260 C   0  0  0  0  0  0  0  0  0  0  0  0
   48.8140   28.9050   46.6200 C   0  0  0  0  0  0  0  0  0  0  0  0
   48.7550   27.0750   46.6390 S   0  0  0  0  0  0  0  0  0  0  0  0
   46.8710   27.0950   46.3740 C   0  0  0  0  0  0  0  0  0  0  0  0
   46.6090   28.2320   46.3190 N   0  0  0  0  0  0  0  0  0  0  0  0
   47.8164   30.9512   44.3430 H   0  0  0  0  0  0  0  0  0  0  0  0
   45.9122   34.3782   46.1120 H   0  0  0  0  0  0  0  0  0  0  0  0
   44.9367   33.7563   48.8273 H   0  0  0  0  0  0  0  0  0  0  0  0
   44.9972   31.6175   50.3243 H   0  0  0  0  0  0  0  0  0  0  0  0
   45.7321   35.9100   42.1099 H   0  0  0  0  0  0  0  0  0  0  0  0
   47.8359   35.6007   40.7755 H   0  0  0  0  0  0  0  0  0  0  0  0
   49.4994   33.8641   41.5682 H   0  0  0  0  0  0  0  0  0  0  0  0
   49.6852   29.5670   46.7328 H   0  0  0  0  0  0  0  0  0  0  0  0
   46.1881   26.2365   46.2918 H   0  0  0  0  0  0  0  0  0  0  0  0
  1  9  2  0
  2  1  1  0
  2  3  2  0
  3  4  1  0
  4  8  2  0
  4  5  1  0
  5  6  1  0
  7  6  2  0
  8  7  1  0
  9 16  1  0
  9  8  1  0
 10 15  2  0
 11 12  2  0
 11 10  1  0
 12 13  1  0
 13 14  2  0
 14  2  1  0
 15 14  1  0
 16 17  2  0
 17 18  1  0
 19 18  1  0
 20 19  2  0
 20 16  1  0
  1 21  1  0
  3 22  1  0
  5 23  1  0
  6 24  1  0
 10 25  1  0
 11 26  1  0
 12 27  1  0
 17 28  1  0
 19 29  1  0
M  ISO  8  21  14  22  14  23   9  24  14  25  14  26  14  27  14  28  14
M  ISO  1  29  14
M  END
>  <minimizedAffinity>  (1) 
-5.15380621

>  <minimizedRMSD>  (1) 
0.499302685

$$$$
