
     RDKit          3D

 41 44  0  0  1  0  0  0  0  0999 V2000
   44.5700   35.4130   45.5920 C   0  0  0  0  0  0  0  0  0  0  0  0
   44.3790   35.9280   44.2910 C   0  0  0  0  0  0  0  0  0  0  0  0
   44.8880   35.2100   43.1970 C   0  0  0  0  0  0  0  0  0  0  0  0
   45.5390   34.0520   43.4600 N   0  0  0  0  0  0  0  0  0  0  0  0
   45.7080   33.5800   44.7240 C   0  0  0  0  0  0  0  0  0  0  0  0
   45.2190   34.2660   45.7960 N   0  0  0  0  0  0  0  0  0  0  0  0
   46.4150   32.3390   44.8950 N   0  0  0  0  0  0  0  0  0  0  0  0
   46.3110   31.7400   46.2200 C   0  0  0  0  0  0  0  0  0  0  0  0
   47.3030   30.6920   46.5040 C   0  0  0  0  0  0  0  0  0  0  0  0
   47.6510   29.9260   45.2710 C   0  0  0  0  0  0  0  0  0  0  0  0
   48.2550   30.9130   44.3190 C   0  0  0  0  0  0  0  0  0  0  0  0
   47.1580   31.7720   43.7970 C   0  0  2  0  0  0  0  0  0  0  0  0
   46.5780   31.7070   41.0080 F   0  0  0  0  0  0  0  0  0  0  0  0
   47.3530   32.7300   41.4370 C   0  0  0  0  0  0  0  0  0  0  0  0
   47.6370   32.7680   42.8030 C   0  0  0  0  0  0  0  0  0  0  0  0
   48.4400   33.8410   43.2050 C   0  0  0  0  0  0  0  0  0  0  0  0
   48.9220   34.7920   42.3500 C   0  0  0  0  0  0  0  0  0  0  0  0
   48.6170   34.7130   41.0230 C   0  0  0  0  0  0  0  0  0  0  0  0
   47.8260   33.6710   40.5720 C   0  0  0  0  0  0  0  0  0  0  0  0
   47.5710   33.6910   39.1450 C   0  0  0  0  0  0  0  0  0  0  0  0
   46.3720   33.0570   38.6270 C   0  0  0  0  0  0  0  0  0  0  0  0
   46.4240   33.3010   36.8260 S   0  0  0  0  0  0  0  0  0  0  0  0
   48.0690   34.2310   37.0230 C   0  0  0  0  0  0  0  0  0  0  0  0
   48.2320   34.1940   38.1320 N   0  0  0  0  0  0  0  0  0  0  0  0
   44.1753   35.9694   46.4549 H   0  0  0  0  0  0  0  0  0  0  0  0
   43.8409   36.8750   44.1374 H   0  0  0  0  0  0  0  0  0  0  0  0
   44.7629   35.5739   42.1665 H   0  0  0  0  0  0  0  0  0  0  0  0
   46.4336   32.5383   46.9668 H   0  0  0  0  0  0  0  0  0  0  0  0
   45.3258   31.2527   46.2624 H   0  0  0  0  0  0  0  0  0  0  0  0
   48.2144   31.1603   46.9041 H   0  0  0  0  0  0  0  0  0  0  0  0
   46.8706   29.9939   47.2359 H   0  0  0  0  0  0  0  0  0  0  0  0
   48.3753   29.1325   45.5073 H   0  0  0  0  0  0  0  0  0  0  0  0
   46.7633   29.4432   44.8364 H   0  0  0  0  0  0  0  0  0  0  0  0
   48.9978   31.5322   44.8433 H   0  0  0  0  0  0  0  0  0  0  0  0
   48.7597   30.3905   43.4930 H   0  0  0  0  0  0  0  0  0  0  0  0
   46.4569   31.1460   43.2255 H   0  0  0  0  0  0  0  0  0  0  0  0
   48.6983   33.9239   44.2710 H   0  0  0  0  0  0  0  0  0  0  0  0
   49.5494   35.6126   42.7281 H   0  0  0  0  0  0  0  0  0  0  0  0
   48.9955   35.4690   40.3193 H   0  0  0  0  0  0  0  0  0  0  0  0
   45.5935   32.5369   39.2044 H   0  0  0  0  0  0  0  0  0  0  0  0
   48.7004   34.6889   36.2473 H   0  0  0  0  0  0  0  0  0  0  0  0
  1  6  2  0
  2  1  1  0
  3  4  1  0
  3  2  2  0
  4  5  2  0
  5  7  1  0
  5  6  1  0
  7  8  1  0
  8  9  1  0
 10  9  1  0
 11 10  1  0
 12 11  1  0
 12  7  1  0
 13 14  1  0
 14 15  2  0
 15 16  1  0
 15 12  1  0
 17 16  2  0
 18 17  1  0
 19 18  2  0
 19 14  1  0
 20 19  1  0
 21 20  2  0
 22 23  1  0
 22 21  1  0
 23 24  2  0
 24 20  1  0
  1 25  1  0
  2 26  1  0
  3 27  1  0
  8 28  1  0
  8 29  1  0
  9 30  1  0
  9 31  1  0
 10 32  1  0
 10 33  1  0
 11 34  1  0
 11 35  1  0
 12 36  1  6
 16 37  1  0
 17 38  1  0
 18 39  1  0
 21 40  1  0
 23 41  1  0
M  ISO  8  25  14  26  14  27  14  28  13  29  13  30  13  31  13  32  13
M  ISO  8  33  13  34  13  35  13  36  13  37  14  38  14  39  14  40  14
M  ISO  1  41  14
M  END
>  <minimizedAffinity>  (1) 
-5.99227142

>  <minimizedRMSD>  (1) 
1.17181885

$$$$
