
     RDKit          3D

 32 35  0  0  0  0  0  0  0  0999 V2000
   44.8080   33.2630   41.1560 Cl  0  0  0  0  0  0  0  0  0  0  0  0
   46.3430   34.0500   40.9790 C   0  0  0  0  0  0  0  0  0  0  0  0
   46.8700   34.7510   42.0440 C   0  0  0  0  0  0  0  0  0  0  0  0
   48.0960   35.4000   41.9530 C   0  0  0  0  0  0  0  0  0  0  0  0
   48.7460   35.2960   40.7400 C   0  0  0  0  0  0  0  0  0  0  0  0
   48.2250   34.6080   39.7000 C   0  0  0  0  0  0  0  0  0  0  0  0
   47.0110   33.9690   39.7960 C   0  0  0  0  0  0  0  0  0  0  0  0
   45.6130   33.9700   45.4240 C   0  0  0  0  0  0  0  0  0  0  0  0
   44.7130   35.0000   45.6520 C   0  0  0  0  0  0  0  0  0  0  0  0
   44.5280   35.9580   44.6680 C   0  0  0  0  0  0  0  0  0  0  0  0
   45.2420   35.8390   43.5230 N   0  0  0  0  0  0  0  0  0  0  0  0
   46.1270   34.8220   43.3070 C   0  0  0  0  0  0  0  0  0  0  0  0
   46.2940   33.9080   44.2630 N   0  0  0  0  0  0  0  0  0  0  0  0
   46.5810   33.2630   38.5810 C   0  0  0  0  0  0  0  0  0  0  0  0
   47.4620   33.1640   37.5140 C   0  0  0  0  0  0  0  0  0  0  0  0
   46.4820   32.2170   36.2620 S   0  0  0  0  0  0  0  0  0  0  0  0
   45.0190   32.1290   37.4560 C   0  0  0  0  0  0  0  0  0  0  0  0
   45.4480   32.6830   38.3210 N   0  0  0  0  0  0  0  0  0  0  0  0
   43.7030   31.4480   37.1380 C   0  0  0  0  0  0  0  0  0  0  0  0
   43.6580   30.4300   36.2020 C   0  0  0  0  0  0  0  0  0  0  0  0
   41.9380   30.0180   36.2320 S   0  0  0  0  0  0  0  0  0  0  0  0
   41.5130   31.3200   37.5450 C   0  0  0  0  0  0  0  0  0  0  0  0
   42.5830   31.7970   37.7320 N   0  0  0  0  0  0  0  0  0  0  0  0
   48.5223   35.9624   42.7968 H   0  0  0  0  0  0  0  0  0  0  0  0
   49.7210   35.7898   40.6155 H   0  0  0  0  0  0  0  0  0  0  0  0
   48.7851   34.5579   38.7546 H   0  0  0  0  0  0  0  0  0  0  0  0
   45.7716   33.2006   46.1939 H   0  0  0  0  0  0  0  0  0  0  0  0
   44.1551   35.0557   46.5984 H   0  0  0  0  0  0  0  0  0  0  0  0
   43.8228   36.7898   44.8123 H   0  0  0  0  0  0  0  0  0  0  0  0
   48.4881   33.5520   37.4324 H   0  0  0  0  0  0  0  0  0  0  0  0
   44.4710   29.9950   35.6021 H   0  0  0  0  0  0  0  0  0  0  0  0
   40.5441   31.5645   38.0049 H   0  0  0  0  0  0  0  0  0  0  0  0
  2  1  1  0
  2  3  2  0
  3 12  1  0
  4  3  1  0
  5  4  2  0
  6  7  2  0
  6  5  1  0
  7  2  1  0
  8  9  2  0
 10  9  1  0
 11 10  2  0
 12 11  1  0
 12 13  2  0
 13  8  1  0
 14  7  1  0
 15 14  2  0
 16 17  1  0
 16 15  1  0
 17 18  2  0
 18 14  1  0
 19 17  1  0
 19 23  1  0
 20 21  1  0
 20 19  2  0
 21 22  1  0
 22 23  2  0
  4 24  1  0
  5 25  1  0
  6 26  1  0
  8 27  1  0
  9 28  1  0
 10 29  1  0
 15 30  1  0
 20 31  1  0
 22 32  1  0
M  ISO  8  24  14  25  14  26  14  27  14  28  14  29  14  30  14  31  14
M  ISO  1  32  14
M  END
>  <minimizedAffinity>  (1) 
-5.86079788

>  <minimizedRMSD>  (1) 
1.56576908

$$$$
