
     RDKit          3D

 22 23  0  0  0  0  0  0  0  0999 V2000
   45.6000   35.2170   42.3980 C   0  0  0  0  0  0  0  0  0  0  0  0
   45.0610   34.5330   41.3340 C   0  0  0  0  0  0  0  0  0  0  0  0
   46.0220   33.9440   40.4620 C   0  0  0  0  0  0  0  0  0  0  0  0
   47.3460   34.0800   40.7090 N   0  0  0  0  0  0  0  0  0  0  0  0
   47.8020   34.7640   41.7640 C   0  0  0  0  0  0  0  0  0  0  0  0
   46.9330   35.3170   42.5890 N   0  0  0  0  0  0  0  0  0  0  0  0
   43.6680   34.3120   40.9930 C   0  0  0  0  0  0  0  0  0  0  0  0
   42.8860   33.1350   41.4830 C   0  0  0  0  0  0  0  0  0  0  0  0
   41.2490   33.4420   40.8400 S   0  0  0  0  0  0  0  0  0  0  0  0
   41.7780   35.0670   40.0110 C   0  0  0  0  0  0  0  0  0  0  0  0
   43.0450   35.2360   40.2650 N   0  0  0  0  0  0  0  0  0  0  0  0
   44.7360   35.8260   43.4210 C   0  0  0  0  0  0  0  0  0  0  0  0
   44.8960   35.0940   44.7260 C   0  0  0  0  0  0  0  0  0  0  0  0
   45.6858   33.3752   39.5826 H   0  0  0  0  0  0  0  0  0  0  0  0
   48.8831   34.8639   41.9410 H   0  0  0  0  0  0  0  0  0  0  0  0
   43.2344   32.2872   42.0911 H   0  0  0  0  0  0  0  0  0  0  0  0
   41.1346   35.7402   39.4254 H   0  0  0  0  0  0  0  0  0  0  0  0
   45.0185   36.8804   43.5569 H   0  0  0  0  0  0  0  0  0  0  0  0
   43.6873   35.7619   43.0952 H   0  0  0  0  0  0  0  0  0  0  0  0
   44.7429   35.7943   45.5604 H   0  0  0  0  0  0  0  0  0  0  0  0
   44.1536   34.2845   44.7858 H   0  0  0  0  0  0  0  0  0  0  0  0
   45.9084   34.6681   44.7858 H   0  0  0  0  0  0  0  0  0  0  0  0
  1  6  2  0
  1 12  1  0
  2  1  1  0
  3  4  1  0
  3  2  2  0
  4  5  2  0
  5  6  1  0
  7  2  1  0
  7  8  2  0
  9  8  1  0
 10 11  2  0
 10  9  1  0
 11  7  1  0
 12 13  1  0
  3 14  1  0
  5 15  1  0
  8 16  1  0
 10 17  1  0
 12 18  1  0
 12 19  1  0
 13 20  1  0
 13 21  1  0
 13 22  1  0
M  ISO  8  14  14  15  14  16  14  17  14  18   8  19   8  20   8  21   8
M  ISO  1  22   8
M  END
>  <minimizedAffinity>  (1) 
-3.69723916

>  <minimizedRMSD>  (1) 
4.53974295

$$$$
