
     RDKit          3D

 35 37  0  0  0  0  0  0  0  0999 V2000
   43.4990   34.9060   40.7390 S   0  0  0  0  0  0  0  0  0  0  0  0
   44.7850   34.6590   41.9630 C   0  0  0  0  0  0  0  0  0  0  0  0
   46.0980   34.5750   41.4800 C   0  0  0  0  0  0  0  0  0  0  0  0
   47.1340   34.3830   42.3980 C   0  0  0  0  0  0  0  0  0  0  0  0
   46.8120   34.2880   43.7070 N   0  0  0  0  0  0  0  0  0  0  0  0
   45.5600   34.3690   44.1610 C   0  0  0  0  0  0  0  0  0  0  0  0
   44.5570   34.5540   43.2840 N   0  0  0  0  0  0  0  0  0  0  0  0
   45.3070   34.2570   45.5820 C   0  0  0  0  0  0  0  0  0  0  0  0
   44.5710   35.1130   46.1200 O   0  0  0  0  0  0  0  0  0  0  0  0
   45.9420   33.1410   46.2690 C   0  0  0  0  0  0  0  0  0  0  0  0
   45.1860   33.0590   47.5850 C   0  0  0  0  0  0  0  0  0  0  0  0
   46.1080   31.5950   48.3480 S   0  0  0  0  0  0  0  0  0  0  0  0
   47.2490   31.3980   46.8420 C   0  0  0  0  0  0  0  0  0  0  0  0
   46.9090   32.3390   45.9550 N   0  0  0  0  0  0  0  0  0  0  0  0
   41.8810   35.0990   41.4750 C   0  0  0  0  0  0  0  0  0  0  0  0
   40.9700   35.9930   40.7060 C   0  0  0  0  0  0  0  0  0  0  0  0
   41.8000   36.2630   37.7990 Cl  0  0  0  0  0  0  0  0  0  0  0  0
   40.4690   35.2950   38.3550 C   0  0  0  0  0  0  0  0  0  0  0  0
   40.1710   35.2400   39.7230 C   0  0  0  0  0  0  0  0  0  0  0  0
   39.1050   34.4520   40.0700 C   0  0  0  0  0  0  0  0  0  0  0  0
   38.3000   33.7120   39.2230 C   0  0  0  0  0  0  0  0  0  0  0  0
   38.6140   33.7830   37.8730 C   0  0  0  0  0  0  0  0  0  0  0  0
   37.6550   32.8810   36.7100 Cl  0  0  0  0  0  0  0  0  0  0  0  0
   39.6810   34.5640   37.4630 C   0  0  0  0  0  0  0  0  0  0  0  0
   46.3081   34.6583   40.4035 H   0  0  0  0  0  0  0  0  0  0  0  0
   48.1800   34.3114   42.0651 H   0  0  0  0  0  0  0  0  0  0  0  0
   44.3557   33.6662   47.9747 H   0  0  0  0  0  0  0  0  0  0  0  0
   48.0439   30.6472   46.7217 H   0  0  0  0  0  0  0  0  0  0  0  0
   41.4126   34.1063   41.5467 H   0  0  0  0  0  0  0  0  0  0  0  0
   42.0318   35.5672   42.4589 H   0  0  0  0  0  0  0  0  0  0  0  0
   40.2893   36.4974   41.4076 H   0  0  0  0  0  0  0  0  0  0  0  0
   41.5856   36.7236   40.1608 H   0  0  0  0  0  0  0  0  0  0  0  0
   38.8624   34.4024   41.1418 H   0  0  0  0  0  0  0  0  0  0  0  0
   37.4624   33.1046   39.5964 H   0  0  0  0  0  0  0  0  0  0  0  0
   39.9181   34.6108   36.3899 H   0  0  0  0  0  0  0  0  0  0  0  0
  1 15  1  0
  1  2  1  0
  2  7  1  0
  3  2  2  0
  3  4  1  0
  4  5  2  0
  5  6  1  0
  6  8  1  0
  7  6  2  0
  8  9  2  0
  8 10  1  0
 10 11  2  0
 11 12  1  0
 13 12  1  0
 14 10  1  0
 14 13  2  0
 16 15  1  0
 17 18  1  0
 18 19  2  0
 19 20  1  0
 19 16  1  0
 21 20  2  0
 22 21  1  0
 23 22  1  0
 24 22  2  0
 24 18  1  0
  3 25  1  0
  4 26  1  0
 11 27  1  0
 13 28  1  0
 15 29  1  0
 15 30  1  0
 16 31  1  0
 16 32  1  0
 20 33  1  0
 21 34  1  0
 24 35  1  0
M  ISO  8  25  14  26  14  27  14  28  14  29   8  30   8  31   8  32   8
M  ISO  3  33  14  34  14  35  14
M  END
>  <minimizedAffinity>  (1) 
-6.61428452

>  <minimizedRMSD>  (1) 
0.114710227

$$$$
