
     RDKit          3D

 33 35  0  0  0  0  0  0  0  0999 V2000
   40.9570   35.7190   39.1940 C   0  0  0  0  0  0  0  0  0  0  0  0
   43.9070   34.5800   41.2700 C   0  0  0  0  0  0  0  0  0  0  0  0
   42.7350   35.2630   40.8810 C   0  0  0  0  0  0  0  0  0  0  0  0
   42.1970   35.0240   39.6280 C   0  0  0  0  0  0  0  0  0  0  0  0
   42.8580   34.1160   38.8320 N   0  0  0  0  0  0  0  0  0  0  0  0
   43.9810   33.4870   39.2520 C   0  0  0  0  0  0  0  0  0  0  0  0
   44.5000   33.7130   40.4530 N   0  0  0  0  0  0  0  0  0  0  0  0
   44.4800   34.8540   42.6130 C   0  0  0  0  0  0  0  0  0  0  0  0
   46.0010   35.2360   42.5330 C   0  0  0  0  0  0  0  0  0  0  0  0
   44.9480   36.1190   43.0480 C   0  0  0  0  0  0  0  0  0  0  0  0
   39.8680   35.5560   40.2340 C   0  0  0  0  0  0  0  0  0  0  0  0
   39.1980   33.2970   40.9350 C   0  0  0  0  0  0  0  0  0  0  0  0
   39.8300   33.3830   42.0290 O   0  0  0  0  0  0  0  0  0  0  0  0
   39.0660   34.3620   40.0120 N   0  0  0  0  0  0  0  0  0  0  0  0
   38.5670   31.9930   40.6240 C   0  0  0  0  0  0  0  0  0  0  0  0
   38.8240   31.5380   39.3850 C   0  0  0  0  0  0  0  0  0  0  0  0
   37.8800   29.8900   39.3340 S   0  0  0  0  0  0  0  0  0  0  0  0
   37.3090   30.2010   41.1190 C   0  0  0  0  0  0  0  0  0  0  0  0
   37.7990   31.1810   41.3190 N   0  0  0  0  0  0  0  0  0  0  0  0
   41.1704   36.7894   39.0576 H   0  0  0  0  0  0  0  0  0  0  0  0
   40.6140   35.2779   38.2465 H   0  0  0  0  0  0  0  0  0  0  0  0
   42.2543   35.9773   41.5657 H   0  0  0  0  0  0  0  0  0  0  0  0
   44.4763   32.7700   38.5807 H   0  0  0  0  0  0  0  0  0  0  0  0
   43.7964   34.1417   43.0981 H   0  0  0  0  0  0  0  0  0  0  0  0
   46.7324   34.7768   43.2143 H   0  0  0  0  0  0  0  0  0  0  0  0
   46.7782   35.2810   41.7558 H   0  0  0  0  0  0  0  0  0  0  0  0
   44.6750   37.0152   42.4715 H   0  0  0  0  0  0  0  0  0  0  0  0
   44.8364   36.6645   43.9967 H   0  0  0  0  0  0  0  0  0  0  0  0
   40.3351   35.4886   41.2276 H   0  0  0  0  0  0  0  0  0  0  0  0
   39.2008   36.4276   40.1618 H   0  0  0  0  0  0  0  0  0  0  0  0
   38.4236   34.2942   39.2098 H   0  0  0  0  0  0  0  0  0  0  0  0
   39.4312   32.0049   38.5955 H   0  0  0  0  0  0  0  0  0  0  0  0
   36.6727   29.5856   41.7721 H   0  0  0  0  0  0  0  0  0  0  0  0
  1  4  1  0
  1 11  1  0
  2  8  1  0
  3  2  2  0
  4  3  1  0
  5  6  1  0
  5  4  2  0
  6  7  2  0
  7  2  1  0
  8 10  1  0
  9  8  1  0
  9 10  1  0
 12 13  2  0
 14 11  1  0
 14 12  1  0
 15 12  1  0
 15 19  1  0
 16 15  2  0
 17 16  1  0
 17 18  1  0
 18 19  2  0
  1 20  1  0
  1 21  1  0
  3 22  1  0
  6 23  1  0
  8 24  1  0
  9 25  1  0
  9 26  1  0
 10 27  1  0
 10 28  1  0
 11 29  1  0
 11 30  1  0
 14 31  1  0
 16 32  1  0
 18 33  1  0
M  ISO  8  20   8  21   8  22  14  23  14  24  13  25  13  26  13  27  13
M  ISO  5  28  13  29   8  30   8  32  14  33  14
M  END
>  <minimizedAffinity>  (1) 
-4.87291384

>  <minimizedRMSD>  (1) 
0.410044193

$$$$
