
     RDKit          3D

 45 48  0  0  1  0  0  0  0  0999 V2000
   48.5490   33.4950   39.2540 N   0  0  0  0  0  0  0  0  0  0  0  0
   47.4630   34.5570   42.4710 N   0  0  0  0  0  0  0  0  0  0  0  0
   47.4170   34.7540   41.0330 C   0  0  0  0  0  0  0  0  0  0  0  0
   48.0890   33.4790   40.6060 C   0  0  2  0  0  0  0  0  0  0  0  0
   49.3080   33.4600   41.4990 C   0  0  0  0  0  0  0  0  0  0  0  0
   48.7790   34.0890   42.7680 C   0  0  0  0  0  0  0  0  0  0  0  0
   44.5620   35.8450   44.4310 C   0  0  0  0  0  0  0  0  0  0  0  0
   45.4900   35.7460   43.3980 C   0  0  0  0  0  0  0  0  0  0  0  0
   46.4730   34.7580   43.4500 C   0  0  0  0  0  0  0  0  0  0  0  0
   46.4450   33.9500   44.5320 N   0  0  0  0  0  0  0  0  0  0  0  0
   45.5590   34.0310   45.5340 C   0  0  0  0  0  0  0  0  0  0  0  0
   44.6090   35.0000   45.4670 N   0  0  0  0  0  0  0  0  0  0  0  0
   48.6760   32.2810   37.0870 C   0  0  0  0  0  0  0  0  0  0  0  0
   47.9890   33.0400   38.0490 C   0  0  0  0  0  0  0  0  0  0  0  0
   46.6910   33.3020   37.6950 C   0  0  0  0  0  0  0  0  0  0  0  0
   46.0670   32.9050   36.5560 C   0  0  0  0  0  0  0  0  0  0  0  0
   46.7820   32.1630   35.6430 C   0  0  0  0  0  0  0  0  0  0  0  0
   48.0970   31.8590   35.9310 C   0  0  0  0  0  0  0  0  0  0  0  0
   49.3270   31.7500   33.8250 C   0  0  0  0  0  0  0  0  0  0  0  0
   49.1420   32.9860   33.6410 O   0  0  0  0  0  0  0  0  0  0  0  0
   48.8190   31.0830   34.9610 N   0  0  0  0  0  0  0  0  0  0  0  0
   50.0760   30.9600   32.8650 C   0  0  0  0  0  0  0  0  0  0  0  0
   51.4550   30.7390   33.2510 C   0  0  0  0  0  0  0  0  0  0  0  0
   52.1380   29.7000   31.8210 S   0  0  0  0  0  0  0  0  0  0  0  0
   50.4280   29.7760   30.9980 C   0  0  0  0  0  0  0  0  0  0  0  0
   49.8080   30.3800   31.7050 N   0  0  0  0  0  0  0  0  0  0  0  0
   51.1680   31.7060   37.6140 N   0  0  0  0  0  0  0  0  0  0  0  0
   50.0630   31.9570   37.3840 C   0  0  0  0  0  0  0  0  0  0  0  0
   49.4772   33.9266   39.1398 H   0  0  0  0  0  0  0  0  0  0  0  0
   46.3853   34.8234   40.6579 H   0  0  0  0  0  0  0  0  0  0  0  0
   47.8796   35.6817   40.6651 H   0  0  0  0  0  0  0  0  0  0  0  0
   47.4007   32.6240   40.6784 H   0  0  0  0  0  0  0  0  0  0  0  0
   49.6563   32.4320   41.6777 H   0  0  0  0  0  0  0  0  0  0  0  0
   50.1770   33.9835   41.0738 H   0  0  0  0  0  0  0  0  0  0  0  0
   49.4212   34.9287   43.0722 H   0  0  0  0  0  0  0  0  0  0  0  0
   48.7660   33.3643   43.5955 H   0  0  0  0  0  0  0  0  0  0  0  0
   43.7852   36.6230   44.3951 H   0  0  0  0  0  0  0  0  0  0  0  0
   45.4483   36.4419   42.5471 H   0  0  0  0  0  0  0  0  0  0  0  0
   45.5996   33.3345   46.3845 H   0  0  0  0  0  0  0  0  0  0  0  0
   46.0945   33.8935   38.4052 H   0  0  0  0  0  0  0  0  0  0  0  0
   45.0161   33.1698   36.3675 H   0  0  0  0  0  0  0  0  0  0  0  0
   46.3166   31.8208   34.7069 H   0  0  0  0  0  0  0  0  0  0  0  0
   48.9616   30.0712   35.0904 H   0  0  0  0  0  0  0  0  0  0  0  0
   51.9776   31.0888   34.1535 H   0  0  0  0  0  0  0  0  0  0  0  0
   50.1182   29.3275   30.0426 H   0  0  0  0  0  0  0  0  0  0  0  0
  1  4  1  0
  2  6  1  0
  2  9  1  0
  3  2  1  0
  4  3  1  0
  4  5  1  0
  5  6  1  0
  7 12  2  0
  8  9  2  0
  8  7  1  0
  9 10  1  0
 10 11  2  0
 12 11  1  0
 13 28  1  0
 13 14  2  0
 14  1  1  0
 15 14  1  0
 16 15  2  0
 17 18  2  0
 17 16  1  0
 18 13  1  0
 19 21  1  0
 20 19  2  0
 21 18  1  0
 22 23  2  0
 22 19  1  0
 24 23  1  0
 25 26  2  0
 25 24  1  0
 26 22  1  0
 28 27  3  0
  1 29  1  0
  3 30  1  0
  3 31  1  0
  4 32  1  6
  5 33  1  0
  5 34  1  0
  6 35  1  0
  6 36  1  0
  7 37  1  0
  8 38  1  0
 11 39  1  0
 15 40  1  0
 16 41  1  0
 17 42  1  0
 21 43  1  0
 23 44  1  0
 25 45  1  0
M  ISO  8  30  13  31  13  32  13  33  13  34  13  35  13  36  13  37  14
M  ISO  7  38  14  39  14  40  14  41  14  42  14  44  14  45  14
M  END
>  <minimizedAffinity>  (1) 
-5.47659683

>  <minimizedRMSD>  (1) 
0.154752627

$$$$
