
     RDKit          3D

 20 21  0  0  0  0  0  0  0  0999 V2000
   44.5357   36.0465   44.5591 C   0  0  0  0  0  0  0  0  0  0  0  0
   45.2497   36.0134   43.3541 C   0  0  0  0  0  0  0  0  0  0  0  0
   46.1473   34.9467   43.1420 C   0  0  0  0  0  0  0  0  0  0  0  0
   46.2850   33.9953   44.1102 N   0  0  0  0  0  0  0  0  0  0  0  0
   45.5684   34.0776   45.2571 C   0  0  0  0  0  0  0  0  0  0  0  0
   44.7063   35.0775   45.4925 N   0  0  0  0  0  0  0  0  0  0  0  0
   46.3746   34.2078   40.8026 C   0  0  0  0  0  0  0  0  0  0  0  0
   45.2226   33.7212   40.9375 O   0  0  0  0  0  0  0  0  0  0  0  0
   46.8944   34.8550   41.9509 N   0  0  0  0  0  0  0  0  0  0  0  0
   43.8536   36.8679   44.7068 H   0  0  0  0  0  0  0  0  0  0  0  0
   45.1179   36.7774   42.6135 H   0  0  0  0  0  0  0  0  0  0  0  0
   45.6987   33.3086   46.0064 H   0  0  0  0  0  0  0  0  0  0  0  0
   47.8723   35.2400   41.7961 H   0  0  0  0  0  0  0  0  0  0  0  0
   46.9636   34.0159   39.4870 C   0  0  0  0  0  0  0  0  0  0  0  0
   46.2605   34.2282   38.3387 C   0  0  0  0  0  0  0  0  0  0  0  0
   45.2424   34.5445   38.1045 H   0  0  0  0  0  0  0  0  0  0  0  0
   47.4914   33.8364   37.0831 S   0  0  0  0  0  0  0  0  0  0  0  0
   48.7935   33.4381   38.4105 C   0  0  0  0  0  0  0  0  0  0  0  0
   49.7354   33.1395   37.6500 H   0  0  0  0  0  0  0  0  0  0  0  0
   48.2017   33.6286   39.3406 N   0  0  0  0  0  0  0  0  0  0  0  0
  1  6  2  0
  2  1  1  0
  3  2  2  0
  3  4  1  0
  4  5  2  0
  5  6  1  0
  7  8  2  0
  7  9  1  0
  9  3  1  0
  1 10  1  0
  2 11  1  0
  5 12  1  0
  9 13  1  0
 14 15  2  0
 15 16  1  0
 15 17  1  0
 17 18  1  0
 18 19  1  0
 18 20  2  0
 20 14  1  0
  7 14  1  0
M  ISO  5  10  14  11  14  12  14  16  15  19  16
M  END
>  <DihAtoms>  (1) 
7,6,13,14

>  <DihDeg>  (1) 
0.0007274583614335234

$$$$
