
     RDKit          3D

 40 44  0  0  0  0  0  0  0  0999 V2000
   46.0150   32.2910   43.7750 F   0  0  0  0  0  0  0  0  0  0  0  0
   45.5020   33.5180   44.0500 C   0  0  0  0  0  0  0  0  0  0  0  0
   45.3880   33.9760   45.3460 C   0  0  0  0  0  0  0  0  0  0  0  0
   44.8590   35.2260   45.5270 C   0  0  0  0  0  0  0  0  0  0  0  0
   44.4400   36.0380   44.5140 C   0  0  0  0  0  0  0  0  0  0  0  0
   44.5720   35.5400   43.2420 C   0  0  0  0  0  0  0  0  0  0  0  0
   45.0940   34.2950   42.9880 C   0  0  0  0  0  0  0  0  0  0  0  0
   45.5840   32.0300   48.6030 C   0  0  0  0  0  0  0  0  0  0  0  0
   45.1140   32.8840   47.5930 C   0  0  0  0  0  0  0  0  0  0  0  0
   45.8420   33.0950   46.4200 C   0  0  0  0  0  0  0  0  0  0  0  0
   47.0270   32.4180   46.3330 N   0  0  0  0  0  0  0  0  0  0  0  0
   47.4540   31.6020   47.3220 C   0  0  0  0  0  0  0  0  0  0  0  0
   46.7480   31.4090   48.4390 N   0  0  0  0  0  0  0  0  0  0  0  0
   45.2270   33.7810   41.6270 C   0  0  0  0  0  0  0  0  0  0  0  0
   44.3090   32.9950   40.9490 C   0  0  0  0  0  0  0  0  0  0  0  0
   44.8470   32.7400   39.6880 C   0  0  0  0  0  0  0  0  0  0  0  0
   46.0310   33.3560   39.6420 N   0  0  0  0  0  0  0  0  0  0  0  0
   46.2730   33.9820   40.7910 N   0  0  0  0  0  0  0  0  0  0  0  0
   48.1290   33.7170   38.4910 C   0  0  0  0  0  0  0  0  0  0  0  0
   46.8230   33.2730   38.4620 C   0  0  0  0  0  0  0  0  0  0  0  0
   46.2990   32.7500   37.2750 C   0  0  0  0  0  0  0  0  0  0  0  0
   47.0740   32.6670   36.1150 C   0  0  0  0  0  0  0  0  0  0  0  0
   46.7490   32.2010   34.8990 N   0  0  0  0  0  0  0  0  0  0  0  0
   47.8780   32.3630   34.1730 C   0  0  0  0  0  0  0  0  0  0  0  0
   48.8840   32.9160   34.9110 N   0  0  0  0  0  0  0  0  0  0  0  0
   48.3830   33.1080   36.1360 C   0  0  0  0  0  0  0  0  0  0  0  0
   48.8710   33.6220   37.3290 C   0  0  0  0  0  0  0  0  0  0  0  0
   44.7657   35.6001   46.5572 H   0  0  0  0  0  0  0  0  0  0  0  0
   44.0198   37.0363   44.7060 H   0  0  0  0  0  0  0  0  0  0  0  0
   44.2476   36.1611   42.3940 H   0  0  0  0  0  0  0  0  0  0  0  0
   44.9959   31.8763   49.5198 H   0  0  0  0  0  0  0  0  0  0  0  0
   44.1511   33.3983   47.7284 H   0  0  0  0  0  0  0  0  0  0  0  0
   48.4147   31.0796   47.2030 H   0  0  0  0  0  0  0  0  0  0  0  0
   43.3409   32.6401   41.3322 H   0  0  0  0  0  0  0  0  0  0  0  0
   44.3851   32.1459   38.8857 H   0  0  0  0  0  0  0  0  0  0  0  0
   48.5660   34.1337   39.4105 H   0  0  0  0  0  0  0  0  0  0  0  0
   45.2572   32.3974   37.2543 H   0  0  0  0  0  0  0  0  0  0  0  0
   45.8475   31.8101   34.5902 H   0  0  0  0  0  0  0  0  0  0  0  0
   47.9742   32.0825   33.1137 H   0  0  0  0  0  0  0  0  0  0  0  0
   49.9124   33.9755   37.3511 H   0  0  0  0  0  0  0  0  0  0  0  0
  1  2  1  0
  2  3  2  0
  3  4  1  0
  3 10  1  0
  5  4  2  0
  6  5  1  0
  7  6  2  0
  7  2  1  0
  9  8  2  0
 10  9  1  0
 11 10  2  0
 11 12  1  0
 12 13  2  0
 13  8  1  0
 14  7  1  0
 15 14  1  0
 16 15  2  0
 17 16  1  0
 17 18  1  0
 18 14  2  0
 20 19  2  0
 20 17  1  0
 21 20  1  0
 22 26  1  0
 22 21  2  0
 23 22  1  0
 24 23  1  0
 24 25  2  0
 25 26  1  0
 26 27  2  0
 27 19  1  0
  4 28  1  0
  5 29  1  0
  6 30  1  0
  8 31  1  0
  9 32  1  0
 12 33  1  0
 15 34  1  0
 16 35  1  0
 19 36  1  0
 21 37  1  0
 23 38  1  0
 24 39  1  0
 27 40  1  0
M  ISO  8  28  14  29  14  30  14  31  14  32  14  33  14  34  14  35  14
M  ISO  5  36  14  37  14  38   9  39  14  40  14
M  END
>  <minimizedAffinity>  (1) 
-6.49506378

>  <minimizedRMSD>  (1) 
4.71854353

$$$$
