
     RDKit          3D

 40 43  0  0  0  0  0  0  0  0999 V2000
   44.4550   34.9220   42.0240 C   0  0  0  0  0  0  0  0  0  0  0  0
   45.1450   34.7170   41.0010 O   0  0  0  0  0  0  0  0  0  0  0  0
   44.8860   35.0420   44.4270 C   0  0  0  0  0  0  0  0  0  0  0  0
   44.8830   34.3000   43.2710 C   0  0  0  0  0  0  0  0  0  0  0  0
   45.2840   32.9550   43.2800 C   0  0  0  0  0  0  0  0  0  0  0  0
   45.6760   32.4190   44.4820 N   0  0  0  0  0  0  0  0  0  0  0  0
   45.6720   33.1570   45.5900 C   0  0  0  0  0  0  0  0  0  0  0  0
   45.2830   34.4410   45.5580 N   0  0  0  0  0  0  0  0  0  0  0  0
   46.0900   32.5750   46.8560 C   0  0  0  0  0  0  0  0  0  0  0  0
   47.3160   32.0570   47.0620 C   0  0  0  0  0  0  0  0  0  0  0  0
   47.7200   31.5060   48.2530 C   0  0  0  0  0  0  0  0  0  0  0  0
   46.8140   31.4980   49.2580 N   0  0  0  0  0  0  0  0  0  0  0  0
   45.6140   32.0050   49.0580 C   0  0  0  0  0  0  0  0  0  0  0  0
   45.1880   32.5510   47.9060 N   0  0  0  0  0  0  0  0  0  0  0  0
   43.4030   35.7320   41.6930 O   0  0  0  0  0  0  0  0  0  0  0  0
   42.6040   35.5300   40.5900 C   0  0  0  0  0  0  0  0  0  0  0  0
   41.1270   35.8180   40.8380 C   0  0  0  0  0  0  0  0  0  0  0  0
   39.1790   34.6780   40.0320 C   0  0  0  0  0  0  0  0  0  0  0  0
   40.3050   34.6040   40.8240 C   0  0  0  0  0  0  0  0  0  0  0  0
   40.5840   33.4480   41.5260 C   0  0  0  0  0  0  0  0  0  0  0  0
   39.6840   32.4110   41.3800 C   0  0  0  0  0  0  0  0  0  0  0  0
   39.6720   31.1810   41.9200 N   0  0  0  0  0  0  0  0  0  0  0  0
   38.6110   30.4600   41.5260 C   0  0  0  0  0  0  0  0  0  0  0  0
   37.9280   31.2940   40.6940 N   0  0  0  0  0  0  0  0  0  0  0  0
   38.5550   32.4690   40.5930 C   0  0  0  0  0  0  0  0  0  0  0  0
   38.2870   33.6360   39.8940 C   0  0  0  0  0  0  0  0  0  0  0  0
   44.5725   36.0964   44.4250 H   0  0  0  0  0  0  0  0  0  0  0  0
   45.2843   32.3531   42.3593 H   0  0  0  0  0  0  0  0  0  0  0  0
   48.0342   32.0764   46.2291 H   0  0  0  0  0  0  0  0  0  0  0  0
   48.7305   31.0915   48.3837 H   0  0  0  0  0  0  0  0  0  0  0  0
   44.9059   31.9793   49.8994 H   0  0  0  0  0  0  0  0  0  0  0  0
   42.7047   34.4804   40.2765 H   0  0  0  0  0  0  0  0  0  0  0  0
   42.9421   36.2351   39.8164 H   0  0  0  0  0  0  0  0  0  0  0  0
   41.0227   36.3026   41.8200 H   0  0  0  0  0  0  0  0  0  0  0  0
   40.7736   36.4686   40.0245 H   0  0  0  0  0  0  0  0  0  0  0  0
   38.9832   35.6119   39.4847 H   0  0  0  0  0  0  0  0  0  0  0  0
   41.4740   33.3582   42.1661 H   0  0  0  0  0  0  0  0  0  0  0  0
   40.3956   30.8308   42.5639 H   0  0  0  0  0  0  0  0  0  0  0  0
   38.3519   29.4295   41.8105 H   0  0  0  0  0  0  0  0  0  0  0  0
   37.3970   33.7269   39.2540 H   0  0  0  0  0  0  0  0  0  0  0  0
  1  4  1  0
  2  1  2  0
  3  8  2  0
  4  5  2  0
  4  3  1  0
  5  6  1  0
  6  7  2  0
  7  9  1  0
  8  7  1  0
  9 10  2  0
  9 14  1  0
 10 11  1  0
 11 12  2  0
 13 12  1  0
 14 13  2  0
 15  1  1  0
 16 17  1  0
 16 15  1  0
 18 19  2  0
 19 17  1  0
 19 20  1  0
 21 20  2  0
 21 22  1  0
 23 22  1  0
 24 23  2  0
 25 24  1  0
 25 21  1  0
 26 18  1  0
 26 25  2  0
  3 27  1  0
  5 28  1  0
 10 29  1  0
 11 30  1  0
 13 31  1  0
 16 32  1  0
 16 33  1  0
 17 34  1  0
 17 35  1  0
 18 36  1  0
 20 37  1  0
 22 38  1  0
 23 39  1  0
 26 40  1  0
M  ISO  8  27  14  28  14  29  14  30  14  31  14  32   8  33   8  34   8
M  ISO  6  35   8  36  14  37  14  38   9  39  14  40  14
M  END
>  <minimizedAffinity>  (1) 
-6.47412968

>  <minimizedRMSD>  (1) 
1.54916751

$$$$
