
     RDKit          3D

 27 29  0  0  0  0  0  0  0  0999 V2000
   44.5330   36.0460   44.5702 C   0  0  0  0  0  0  0  0  0  0  0  0
   45.2521   36.0027   43.3557 C   0  0  0  0  0  0  0  0  0  0  0  0
   46.1394   34.9416   43.1506 C   0  0  0  0  0  0  0  0  0  0  0  0
   46.2816   34.0019   44.1058 N   0  0  0  0  0  0  0  0  0  0  0  0
   45.5686   34.0721   45.2749 C   0  0  0  0  0  0  0  0  0  0  0  0
   44.7136   35.0869   45.4824 N   0  0  0  0  0  0  0  0  0  0  0  0
   46.3946   34.1847   40.7947 C   0  0  0  0  0  0  0  0  0  0  0  0
   45.2231   33.7378   40.9303 O   0  0  0  0  0  0  0  0  0  0  0  0
   46.8780   34.8673   41.9415 N   0  0  0  0  0  0  0  0  0  0  0  0
   43.8394   36.8515   44.7611 H   0  0  0  0  0  0  0  0  0  0  0  0
   45.0962   36.7890   42.6217 H   0  0  0  0  0  0  0  0  0  0  0  0
   45.7617   33.2664   45.9682 H   0  0  0  0  0  0  0  0  0  0  0  0
   47.8042   35.3456   41.9403 H   0  0  0  0  0  0  0  0  0  0  0  0
   47.0260   34.7413   38.4200 C   0  0  0  0  0  0  0  0  0  0  0  0
   47.2047   34.0340   39.5908 C   0  0  0  0  0  0  0  0  0  0  0  0
   48.2370   33.1091   39.6188 C   0  0  0  0  0  0  0  0  0  0  0  0
   48.4993   32.4816   40.4625 H   0  0  0  0  0  0  0  0  0  0  0  0
   49.0607   32.9007   38.5125 C   0  0  0  0  0  0  0  0  0  0  0  0
   50.1071   32.1223   38.2014 N   0  0  0  0  0  0  0  0  0  0  0  0
   50.5050   32.3625   36.9406 C   0  0  0  0  0  0  0  0  0  0  0  0
   51.3186   31.9074   36.3790 H   0  0  0  0  0  0  0  0  0  0  0  0
   49.7210   33.3165   36.3832 N   0  0  0  0  0  0  0  0  0  0  0  0
   48.8481   33.6297   37.3589 C   0  0  0  0  0  0  0  0  0  0  0  0
   47.8263   34.5513   37.3184 C   0  0  0  0  0  0  0  0  0  0  0  0
   46.2222   35.4649   38.3909 H   0  0  0  0  0  0  0  0  0  0  0  0
   50.5385   31.4311   38.8625 H   0  0  0  0  0  0  0  0  0  0  0  0
   47.6061   35.1566   36.4428 H   0  0  0  0  0  0  0  0  0  0  0  0
  1  6  2  0
  2  1  1  0
  3  2  2  0
  3  4  1  0
  4  5  2  0
  5  6  1  0
  7  8  2  0
  7  9  1  0
  9  3  1  0
  1 10  1  0
  2 11  1  0
  5 12  1  0
  9 13  1  0
 14 15  2  0
 15 16  1  0
 16 17  1  0
 16 18  2  0
 18 19  1  0
 19 20  1  0
 20 21  1  0
 20 22  2  0
 22 23  1  0
 23 24  2  0
 24 14  1  0
 23 18  1  0
 14 25  1  0
 19 26  1  0
 24 27  1  0
  7 15  1  0
M  ISO  5  10  14  11  14  12  14  17  15  21  14
M  END
>  <DihAtoms>  (1) 
7,6,14,13

>  <DihDeg>  (1) 
179.99955153938652

$$$$
