
     RDKit          3D

 32 34  0  0  0  0  0  0  0  0999 V2000
   47.1659   33.9816   42.4738 C   0  0  0  0  0  0  0  0  0  0  0  0
   45.2960   34.2204   45.6955 C   0  0  0  0  0  0  0  0  0  0  0  0
   46.1623   33.7535   44.7001 C   0  0  0  0  0  0  0  0  0  0  0  0
   46.2607   34.4617   43.5246 C   0  0  0  0  0  0  0  0  0  0  0  0
   45.5114   35.5930   43.3704 N   0  0  0  0  0  0  0  0  0  0  0  0
   44.6713   36.0340   44.3519 C   0  0  0  0  0  0  0  0  0  0  0  0
   44.5719   35.3482   45.4981 N   0  0  0  0  0  0  0  0  0  0  0  0
   48.3162   33.4121   43.0130 O   0  0  0  0  0  0  0  0  0  0  0  0
   50.6615   33.1081   41.8992 O   0  0  0  0  0  0  0  0  0  0  0  0
   49.6242   34.1361   42.2428 P   0  0  2  0  0  0  0  0  0  0  0  0
   50.2056   35.3759   43.2373 O   0  0  0  0  0  0  0  0  0  0  0  0
   49.0740   34.8013   40.7805 O   0  0  0  0  0  0  0  0  0  0  0  0
   47.3659   34.8274   41.7844 H   0  0  0  0  0  0  0  0  0  0  0  0
   46.6240   33.2178   41.8466 H   0  0  0  0  0  0  0  0  0  0  0  0
   45.2697   33.6189   46.5848 H   0  0  0  0  0  0  0  0  0  0  0  0
   46.7466   32.8690   44.8238 H   0  0  0  0  0  0  0  0  0  0  0  0
   44.0768   36.9301   44.2317 H   0  0  0  0  0  0  0  0  0  0  0  0
   50.5587   36.1089   42.6422 H   0  0  0  0  0  0  0  0  0  0  0  0
   49.3863   36.1389   38.9332 C   0  0  0  0  0  0  0  0  0  0  0  0
   49.9512   35.1884   39.7582 C   0  0  0  0  0  0  0  0  0  0  0  0
   51.2333   34.7345   39.5247 C   0  0  0  0  0  0  0  0  0  0  0  0
   51.5754   33.9981   40.2231 H   0  0  0  0  0  0  0  0  0  0  0  0
   51.9161   35.2633   38.4479 C   0  0  0  0  0  0  0  0  0  0  0  0
   53.1725   34.9650   38.0379 N   0  0  0  0  0  0  0  0  0  0  0  0
   53.3864   35.7463   36.9394 C   0  0  0  0  0  0  0  0  0  0  0  0
   54.2725   35.7960   36.3286 H   0  0  0  0  0  0  0  0  0  0  0  0
   52.3042   36.5024   36.6754 N   0  0  0  0  0  0  0  0  0  0  0  0
   51.3716   36.2119   37.6126 C   0  0  0  0  0  0  0  0  0  0  0  0
   50.0842   36.6684   37.8461 C   0  0  0  0  0  0  0  0  0  0  0  0
   48.3925   36.5583   39.0307 H   0  0  0  0  0  0  0  0  0  0  0  0
   53.8373   34.2849   38.4666 H   0  0  0  0  0  0  0  0  0  0  0  0
   49.6822   37.4139   37.1736 H   0  0  0  0  0  0  0  0  0  0  0  0
  1  8  1  0
  1  4  1  0
  3  2  2  0
  4  3  1  0
  5  4  2  0
  5  6  1  0
  6  7  2  0
  7  2  1  0
  9 10  2  0
 10  8  1  1
 10 11  1  0
 12 10  1  0
  1 13  1  0
  1 14  1  0
  2 15  1  0
  3 16  1  0
  6 17  1  0
 11 18  1  0
 19 20  2  0
 20 21  1  0
 21 22  1  0
 21 23  2  0
 23 24  1  0
 24 25  1  0
 25 26  1  0
 25 27  2  0
 27 28  1  0
 28 29  2  0
 29 19  1  0
 28 23  1  0
 19 30  1  0
 24 31  1  0
 29 32  1  0
 12 20  1  0
M  ISO  8  13   8  14   8  15  14  16  14  17  14  18   3  22  15  26  14
M  END
>  <DihAtoms>  (1) 
9,11,19,18

>  <DihDeg>  (1) 
68.5890892138333

$$$$
