
     RDKit          3D

 29 31  0  0  0  0  0  0  0  0999 V2000
   47.3950   34.1620   39.6220 O   0  0  0  0  0  0  0  0  0  0  0  0
   46.4930   33.8570   40.7980 P   0  0  1  0  0  0  0  0  0  0  0  0
   46.4780   32.2190   41.1560 O   0  0  0  0  0  0  0  0  0  0  0  0
   47.0940   34.6850   42.1890 O   0  0  0  0  0  0  0  0  0  0  0  0
   45.4980   34.0320   45.4170 C   0  0  0  0  0  0  0  0  0  0  0  0
   46.3360   33.8820   44.2880 C   0  0  0  0  0  0  0  0  0  0  0  0
   46.2660   34.8420   43.2920 C   0  0  0  0  0  0  0  0  0  0  0  0
   45.4000   35.8750   43.4460 N   0  0  0  0  0  0  0  0  0  0  0  0
   44.6130   35.9970   44.5270 C   0  0  0  0  0  0  0  0  0  0  0  0
   44.6520   35.0890   45.5110 N   0  0  0  0  0  0  0  0  0  0  0  0
   44.9480   34.4620   40.4960 O   0  0  0  0  0  0  0  0  0  0  0  0
   42.7640   34.2780   39.8810 C   0  0  0  0  0  0  0  0  0  0  0  0
   43.7520   33.8230   40.7610 C   0  0  0  0  0  0  0  0  0  0  0  0
   43.4290   32.8710   41.7060 C   0  0  0  0  0  0  0  0  0  0  0  0
   42.1410   32.3830   41.7680 C   0  0  0  0  0  0  0  0  0  0  0  0
   41.6460   31.4690   42.6070 N   0  0  0  0  0  0  0  0  0  0  0  0
   40.3420   31.3150   42.2890 C   0  0  0  0  0  0  0  0  0  0  0  0
   40.0450   32.1420   41.2510 N   0  0  0  0  0  0  0  0  0  0  0  0
   41.1600   32.8220   40.9080 C   0  0  0  0  0  0  0  0  0  0  0  0
   41.4580   33.7800   39.9480 C   0  0  0  0  0  0  0  0  0  0  0  0
   46.4769   32.0959   42.1383 H   0  0  0  0  0  0  0  0  0  0  0  0
   45.5321   33.2864   46.2251 H   0  0  0  0  0  0  0  0  0  0  0  0
   47.0236   33.0276   44.2031 H   0  0  0  0  0  0  0  0  0  0  0  0
   43.9274   36.8536   44.6056 H   0  0  0  0  0  0  0  0  0  0  0  0
   43.0172   35.0373   39.1264 H   0  0  0  0  0  0  0  0  0  0  0  0
   44.1943   32.5037   42.4056 H   0  0  0  0  0  0  0  0  0  0  0  0
   42.1592   30.9769   43.3522 H   0  0  0  0  0  0  0  0  0  0  0  0
   39.6370   30.6333   42.7873 H   0  0  0  0  0  0  0  0  0  0  0  0
   40.6836   34.1399   39.2546 H   0  0  0  0  0  0  0  0  0  0  0  0
  2  1  2  0
  2  3  1  0
  2  4  1  0
  4  7  1  0
  5 10  2  0
  6  5  1  0
  7  8  1  0
  7  6  2  0
  8  9  2  0
  9 10  1  0
 11 13  1  0
 11  2  1  0
 12 20  2  0
 12 13  1  0
 13 14  2  0
 14 15  1  0
 15 16  1  0
 17 16  1  0
 18 17  2  0
 19 18  1  0
 19 15  2  0
 20 19  1  0
  3 21  1  0
  5 22  1  0
  6 23  1  0
  9 24  1  0
 12 25  1  0
 14 26  1  0
 16 27  1  0
 17 28  1  0
 20 29  1  0
M  ISO  8  21   3  22  14  23  14  24  14  25  14  26  14  27   9  28  14
M  ISO  1  29  14
M  END
>  <minimizedAffinity>  (1) 
-4.96536064

>  <minimizedRMSD>  (1) 
7.09009361

$$$$
