
     RDKit          3D

 40 43  0  0  0  0  0  0  0  0999 V2000
   44.2790   33.4630   40.2320 C   0  0  0  0  0  0  0  0  0  0  0  0
   44.6390   34.5720   41.0460 C   0  0  0  0  0  0  0  0  0  0  0  0
   43.6760   35.5400   41.3330 C   0  0  0  0  0  0  0  0  0  0  0  0
   42.4290   35.3710   40.8130 N   0  0  0  0  0  0  0  0  0  0  0  0
   42.1250   34.3110   40.0470 C   0  0  0  0  0  0  0  0  0  0  0  0
   43.0390   33.3670   39.7590 N   0  0  0  0  0  0  0  0  0  0  0  0
   39.9940   33.6520   41.6870 F   0  0  0  0  0  0  0  0  0  0  0  0
   39.7170   33.8570   40.3780 C   0  0  0  0  0  0  0  0  0  0  0  0
   40.7710   34.1910   39.5210 C   0  0  0  0  0  0  0  0  0  0  0  0
   40.5680   34.4150   38.1730 C   0  0  0  0  0  0  0  0  0  0  0  0
   39.2580   34.2930   37.6930 C   0  0  0  0  0  0  0  0  0  0  0  0
   38.1860   33.9610   38.5300 C   0  0  0  0  0  0  0  0  0  0  0  0
   38.4330   33.7430   39.8780 C   0  0  0  0  0  0  0  0  0  0  0  0
   46.0070   34.6720   41.5630 C   0  0  0  0  0  0  0  0  0  0  0  0
   46.4190   34.1860   42.7210 C   0  0  0  0  0  0  0  0  0  0  0  0
   47.8470   34.3420   43.1620 C   0  0  0  0  0  0  0  0  0  0  0  0
   48.1930   31.8940   42.7840 C   0  0  0  0  0  0  0  0  0  0  0  0
   48.6510   33.1920   42.6820 C   0  0  0  0  0  0  0  0  0  0  0  0
   49.8900   33.4970   42.1240 C   0  0  0  0  0  0  0  0  0  0  0  0
   50.7100   32.4750   41.6470 C   0  0  0  0  0  0  0  0  0  0  0  0
   51.9260   32.4440   41.0710 N   0  0  0  0  0  0  0  0  0  0  0  0
   52.2420   31.1600   40.8100 C   0  0  0  0  0  0  0  0  0  0  0  0
   51.2090   30.3740   41.2280 N   0  0  0  0  0  0  0  0  0  0  0  0
   50.2570   31.1540   41.7450 C   0  0  0  0  0  0  0  0  0  0  0  0
   49.0100   30.8850   42.3100 C   0  0  0  0  0  0  0  0  0  0  0  0
   45.0224   32.6878   39.9944 H   0  0  0  0  0  0  0  0  0  0  0  0
   43.9165   36.4117   41.9593 H   0  0  0  0  0  0  0  0  0  0  0  0
   41.4008   34.6783   37.5043 H   0  0  0  0  0  0  0  0  0  0  0  0
   39.0651   34.4636   36.6236 H   0  0  0  0  0  0  0  0  0  0  0  0
   37.1664   33.8745   38.1264 H   0  0  0  0  0  0  0  0  0  0  0  0
   37.6042   33.4785   40.5512 H   0  0  0  0  0  0  0  0  0  0  0  0
   46.7484   35.1920   40.9386 H   0  0  0  0  0  0  0  0  0  0  0  0
   45.7056   33.6593   43.3719 H   0  0  0  0  0  0  0  0  0  0  0  0
   48.2578   35.2736   42.7456 H   0  0  0  0  0  0  0  0  0  0  0  0
   47.8853   34.3777   44.2608 H   0  0  0  0  0  0  0  0  0  0  0  0
   47.2115   31.6702   43.2273 H   0  0  0  0  0  0  0  0  0  0  0  0
   50.2217   34.5438   42.0596 H   0  0  0  0  0  0  0  0  0  0  0  0
   52.5155   33.2630   40.8645 H   0  0  0  0  0  0  0  0  0  0  0  0
   53.1723   30.8071   40.3409 H   0  0  0  0  0  0  0  0  0  0  0  0
   48.6679   29.8419   42.3801 H   0  0  0  0  0  0  0  0  0  0  0  0
  1  2  2  0
  2  3  1  0
  2 14  1  0
  4  3  2  0
  5  4  1  0
  6  5  2  0
  6  1  1  0
  8  7  1  0
  9  5  1  0
  9  8  2  0
 10  9  1  0
 11 10  2  0
 11 12  1  0
 12 13  2  0
 13  8  1  0
 14 15  2  0
 15 16  1  0
 18 17  2  0
 18 16  1  0
 19 18  1  0
 20 24  1  0
 20 19  2  0
 21 20  1  0
 22 21  1  0
 22 23  2  0
 23 24  1  0
 24 25  2  0
 25 17  1  0
  1 26  1  0
  3 27  1  0
 10 28  1  0
 11 29  1  0
 12 30  1  0
 13 31  1  0
 14 32  1  0
 15 33  1  0
 16 34  1  0
 16 35  1  0
 17 36  1  0
 19 37  1  0
 21 38  1  0
 22 39  1  0
 25 40  1  0
M  ISO  8  26  14  27  14  28  14  29  14  30  14  31  14  34   8  35   8
M  ISO  5  36  14  37  14  38   9  39  14  40  14
M  END
>  <minimizedAffinity>  (1) 
-6.60200739

>  <minimizedRMSD>  (1) 
3.96422386

$$$$
