
     RDKit          3D

 26 28  0  0  0  0  0  0  0  0999 V2000
   48.0040   32.0290   43.2730 C   0  0  0  0  0  0  0  0  0  0  0  0
   46.4780   33.4610   44.7010 C   0  0  0  0  0  0  0  0  0  0  0  0
   47.2080   32.3080   44.4910 C   0  0  0  0  0  0  0  0  0  0  0  0
   47.2080   31.3390   45.4730 C   0  0  0  0  0  0  0  0  0  0  0  0
   46.4750   31.5510   46.6400 C   0  0  0  0  0  0  0  0  0  0  0  0
   46.2850   30.8030   47.7560 N   0  0  0  0  0  0  0  0  0  0  0  0
   45.4750   31.4990   48.5770 C   0  0  0  0  0  0  0  0  0  0  0  0
   45.1440   32.6780   48.0090 N   0  0  0  0  0  0  0  0  0  0  0  0
   45.7510   32.7340   46.8070 C   0  0  0  0  0  0  0  0  0  0  0  0
   45.7430   33.7050   45.8410 C   0  0  0  0  0  0  0  0  0  0  0  0
   47.8780   34.7650   40.7520 C   0  0  0  0  0  0  0  0  0  0  0  0
   48.9270   35.6050   41.1780 C   0  0  0  0  0  0  0  0  0  0  0  0
   49.6270   35.1960   42.3020 C   0  0  0  0  0  0  0  0  0  0  0  0
   49.3010   34.0390   42.9500 N   0  0  0  0  0  0  0  0  0  0  0  0
   48.2760   33.2670   42.4940 C   0  0  0  0  0  0  0  0  0  0  0  0
   47.5900   33.6460   41.4100 N   0  0  0  0  0  0  0  0  0  0  0  0
   48.9622   31.5775   43.5697 H   0  0  0  0  0  0  0  0  0  0  0  0
   47.4246   31.3449   42.6356 H   0  0  0  0  0  0  0  0  0  0  0  0
   46.4834   34.2288   43.9133 H   0  0  0  0  0  0  0  0  0  0  0  0
   47.7800   30.4093   45.3368 H   0  0  0  0  0  0  0  0  0  0  0  0
   46.6867   29.8729   47.9415 H   0  0  0  0  0  0  0  0  0  0  0  0
   45.1335   31.1569   49.5651 H   0  0  0  0  0  0  0  0  0  0  0  0
   45.1751   34.6383   45.9694 H   0  0  0  0  0  0  0  0  0  0  0  0
   47.2900   35.0389   39.8636 H   0  0  0  0  0  0  0  0  0  0  0  0
   49.1765   36.5353   40.6467 H   0  0  0  0  0  0  0  0  0  0  0  0
   50.4572   35.8122   42.6776 H   0  0  0  0  0  0  0  0  0  0  0  0
  1  3  1  0
  2 10  2  0
  3  2  1  0
  3  4  2  0
  4  5  1  0
  5  9  2  0
  5  6  1  0
  6  7  1  0
  8  7  2  0
  9  8  1  0
 10  9  1  0
 11 12  2  0
 11 16  1  0
 12 13  1  0
 13 14  2  0
 15 14  1  0
 15  1  1  0
 16 15  2  0
  1 17  1  0
  1 18  1  0
  2 19  1  0
  4 20  1  0
  6 21  1  0
  7 22  1  0
 10 23  1  0
 11 24  1  0
 12 25  1  0
 13 26  1  0
M  ISO  8  17   8  18   8  19  14  20  14  21   9  22  14  23  14  24  14
M  ISO  2  25  14  26  14
M  END
>  <minimizedAffinity>  (1) 
-4.75920534

>  <minimizedRMSD>  (1) 
3.87829781

$$$$
