
     RDKit          3D

 27 29  0  0  0  0  0  0  0  0999 V2000
   44.5330   36.0460   44.5702 C   0  0  0  0  0  0  0  0  0  0  0  0
   45.2521   36.0027   43.3557 C   0  0  0  0  0  0  0  0  0  0  0  0
   46.1394   34.9416   43.1506 C   0  0  0  0  0  0  0  0  0  0  0  0
   46.2816   34.0019   44.1058 N   0  0  0  0  0  0  0  0  0  0  0  0
   45.5686   34.0721   45.2749 C   0  0  0  0  0  0  0  0  0  0  0  0
   44.7136   35.0869   45.4824 N   0  0  0  0  0  0  0  0  0  0  0  0
   46.3946   34.1847   40.7947 C   0  0  0  0  0  0  0  0  0  0  0  0
   45.2231   33.7378   40.9303 O   0  0  0  0  0  0  0  0  0  0  0  0
   46.8780   34.8673   41.9415 N   0  0  0  0  0  0  0  0  0  0  0  0
   43.8394   36.8515   44.7611 H   0  0  0  0  0  0  0  0  0  0  0  0
   45.0962   36.7890   42.6217 H   0  0  0  0  0  0  0  0  0  0  0  0
   45.7617   33.2664   45.9682 H   0  0  0  0  0  0  0  0  0  0  0  0
   47.8042   35.3456   41.9403 H   0  0  0  0  0  0  0  0  0  0  0  0
   47.5854   32.8299   39.0356 C   0  0  0  0  0  0  0  0  0  0  0  0
   47.2047   34.0340   39.5908 C   0  0  0  0  0  0  0  0  0  0  0  0
   47.6286   35.1875   38.9492 C   0  0  0  0  0  0  0  0  0  0  0  0
   47.4104   36.2012   39.2642 H   0  0  0  0  0  0  0  0  0  0  0  0
   48.4063   35.1357   37.7924 C   0  0  0  0  0  0  0  0  0  0  0  0
   48.9682   36.0126   36.9480 N   0  0  0  0  0  0  0  0  0  0  0  0
   49.6268   35.3619   35.9742 C   0  0  0  0  0  0  0  0  0  0  0  0
   50.1882   35.7682   35.1351 H   0  0  0  0  0  0  0  0  0  0  0  0
   49.5137   34.0240   36.1552 N   0  0  0  0  0  0  0  0  0  0  0  0
   48.7661   33.9094   37.2686 C   0  0  0  0  0  0  0  0  0  0  0  0
   48.3515   32.7566   37.8965 C   0  0  0  0  0  0  0  0  0  0  0  0
   47.2582   31.9254   39.5311 H   0  0  0  0  0  0  0  0  0  0  0  0
   48.8924   37.0540   37.0510 H   0  0  0  0  0  0  0  0  0  0  0  0
   48.5997   31.7614   37.5364 H   0  0  0  0  0  0  0  0  0  0  0  0
  1  6  2  0
  2  1  1  0
  3  2  2  0
  3  4  1  0
  4  5  2  0
  5  6  1  0
  7  8  2  0
  7  9  1  0
  9  3  1  0
  1 10  1  0
  2 11  1  0
  5 12  1  0
  9 13  1  0
 14 15  2  0
 15 16  1  0
 16 17  1  0
 16 18  2  0
 18 19  1  0
 19 20  1  0
 20 21  1  0
 20 22  2  0
 22 23  1  0
 23 24  2  0
 24 14  1  0
 23 18  1  0
 14 25  1  0
 19 26  1  0
 24 27  1  0
  7 15  1  0
M  ISO  5  10  14  11  14  12  14  17  15  21  14
M  END
>  <DihAtoms>  (1) 
7,6,14,13

>  <DihDeg>  (1) 
179.99955153938652

$$$$
