
     RDKit          3D

 29 31  0  0  0  0  0  0  0  0999 V2000
   44.5489   36.0447   44.4869 C   0  0  0  0  0  0  0  0  0  0  0  0
   45.2113   35.9512   43.2368 C   0  0  0  0  0  0  0  0  0  0  0  0
   46.0776   34.8816   43.0249 C   0  0  0  0  0  0  0  0  0  0  0  0
   46.2429   33.9732   44.0425 N   0  0  0  0  0  0  0  0  0  0  0  0
   45.6021   34.0943   45.2060 C   0  0  0  0  0  0  0  0  0  0  0  0
   44.7660   35.1107   45.4345 N   0  0  0  0  0  0  0  0  0  0  0  0
   46.7794   34.7694   41.7235 C   0  0  0  0  0  0  0  0  0  0  0  0
   48.1898   35.2999   41.8859 C   0  0  0  0  0  0  0  0  0  0  0  0
   43.9066   36.9145   44.5285 H   0  0  0  0  0  0  0  0  0  0  0  0
   45.0757   36.6709   42.4404 H   0  0  0  0  0  0  0  0  0  0  0  0
   45.7681   33.3470   45.9803 H   0  0  0  0  0  0  0  0  0  0  0  0
   46.7865   33.6925   41.4632 H   0  0  0  0  0  0  0  0  0  0  0  0
   46.2166   35.3119   40.9581 H   0  0  0  0  0  0  0  0  0  0  0  0
   48.2010   36.3593   42.1663 H   0  0  0  0  0  0  0  0  0  0  0  0
   48.7516   35.2185   40.9257 H   0  0  0  0  0  0  0  0  0  0  0  0
   49.8850   35.1430   43.6521 C   0  0  0  0  0  0  0  0  0  0  0  0
   48.8872   34.4949   42.9170 C   0  0  0  0  0  0  0  0  0  0  0  0
   48.6178   33.1518   43.2030 C   0  0  0  0  0  0  0  0  0  0  0  0
   47.8258   32.6729   42.6072 H   0  0  0  0  0  0  0  0  0  0  0  0
   49.3436   32.5153   44.1971 C   0  0  0  0  0  0  0  0  0  0  0  0
   49.2736   31.2503   44.6512 N   0  0  0  0  0  0  0  0  0  0  0  0
   50.2074   31.1494   45.6324 C   0  0  0  0  0  0  0  0  0  0  0  0
   50.4517   30.2732   46.2414 H   0  0  0  0  0  0  0  0  0  0  0  0
   50.8551   32.3285   45.7951 N   0  0  0  0  0  0  0  0  0  0  0  0
   50.3173   33.1751   44.9030 C   0  0  0  0  0  0  0  0  0  0  0  0
   50.6077   34.4980   44.6466 C   0  0  0  0  0  0  0  0  0  0  0  0
   50.1204   36.1980   43.4515 H   0  0  0  0  0  0  0  0  0  0  0  0
   48.6306   30.4815   44.3231 H   0  0  0  0  0  0  0  0  0  0  0  0
   51.3713   35.0679   45.1785 H   0  0  0  0  0  0  0  0  0  0  0  0
  1  6  2  0
  2  1  1  0
  3  2  2  0
  3  4  1  0
  4  5  2  0
  5  6  1  0
  7  8  1  0
  7  3  1  0
  1  9  1  0
  2 10  1  0
  5 11  1  0
  7 12  1  0
  7 13  1  0
  8 14  1  0
  8 15  1  0
 16 17  2  0
 17 18  1  0
 18 19  1  0
 18 20  2  0
 20 21  1  0
 21 22  1  0
 22 23  1  0
 22 24  2  0
 24 25  1  0
 25 26  2  0
 26 16  1  0
 25 20  1  0
 16 27  1  0
 21 28  1  0
 26 29  1  0
  8 17  1  0
M  ISO  8   9  14  10  14  11  14  12   8  13   8  14   8  15   8  19  15
M  ISO  1  23  14
M  END
>  <DihAtoms>  (1) 
6,7,16,15

>  <DihDeg>  (1) 
89.27884199138126

$$$$
