
     RDKit          3D

 38 41  0  0  1  0  0  0  0  0999 V2000
   46.4930   34.4180   42.3340 N   0  0  0  0  0  0  0  0  0  0  0  0
   47.8990   34.0150   42.3490 C   0  0  0  0  0  0  0  0  0  0  0  0
   48.5290   34.7160   41.1470 C   0  0  0  0  0  0  0  0  0  0  0  0
   47.9420   34.1410   39.8840 C   0  0  0  0  0  0  0  0  0  0  0  0
   46.4830   33.9120   39.9240 C   0  0  0  0  0  0  0  0  0  0  0  0
   45.7630   34.4830   41.1050 C   0  0  1  0  0  0  0  0  0  0  0  0
   43.4280   34.3840   40.4520 C   0  0  0  0  0  0  0  0  0  0  0  0
   44.4290   33.8060   41.2060 C   0  0  0  0  0  0  0  0  0  0  0  0
   44.2120   32.6880   41.9930 C   0  0  0  0  0  0  0  0  0  0  0  0
   42.9390   32.1460   42.0090 C   0  0  0  0  0  0  0  0  0  0  0  0
   42.5270   31.0630   42.7080 N   0  0  0  0  0  0  0  0  0  0  0  0
   41.2070   30.9330   42.3960 C   0  0  0  0  0  0  0  0  0  0  0  0
   40.8720   31.9100   41.5450 N   0  0  0  0  0  0  0  0  0  0  0  0
   41.9170   32.6990   41.2680 C   0  0  0  0  0  0  0  0  0  0  0  0
   42.1670   33.8200   40.4900 C   0  0  0  0  0  0  0  0  0  0  0  0
   44.4470   36.1920   44.8990 C   0  0  0  0  0  0  0  0  0  0  0  0
   45.0720   35.9590   43.6520 C   0  0  0  0  0  0  0  0  0  0  0  0
   45.8200   34.7560   43.5410 C   0  0  0  0  0  0  0  0  0  0  0  0
   45.8910   33.9190   44.6150 N   0  0  0  0  0  0  0  0  0  0  0  0
   45.2700   34.1940   45.7910 C   0  0  0  0  0  0  0  0  0  0  0  0
   44.5570   35.3240   45.9200 N   0  0  0  0  0  0  0  0  0  0  0  0
   48.3833   34.3390   43.2820 H   0  0  0  0  0  0  0  0  0  0  0  0
   48.0143   32.9224   42.2948 H   0  0  0  0  0  0  0  0  0  0  0  0
   48.3167   35.7942   41.1953 H   0  0  0  0  0  0  0  0  0  0  0  0
   49.6183   34.5631   41.1551 H   0  0  0  0  0  0  0  0  0  0  0  0
   48.4338   33.1771   39.6866 H   0  0  0  0  0  0  0  0  0  0  0  0
   48.1154   34.8880   39.0954 H   0  0  0  0  0  0  0  0  0  0  0  0
   46.0473   34.3562   39.0169 H   0  0  0  0  0  0  0  0  0  0  0  0
   46.3551   32.8219   39.9965 H   0  0  0  0  0  0  0  0  0  0  0  0
   45.6381   35.5628   40.9366 H   0  0  0  0  0  0  0  0  0  0  0  0
   43.6291   35.2725   39.8354 H   0  0  0  0  0  0  0  0  0  0  0  0
   45.0253   32.2448   42.5864 H   0  0  0  0  0  0  0  0  0  0  0  0
   43.0868   30.4690   43.3362 H   0  0  0  0  0  0  0  0  0  0  0  0
   40.5301   30.1553   42.7794 H   0  0  0  0  0  0  0  0  0  0  0  0
   41.3536   34.2643   39.8976 H   0  0  0  0  0  0  0  0  0  0  0  0
   43.8546   37.1085   45.0375 H   0  0  0  0  0  0  0  0  0  0  0  0
   44.9841   36.6684   42.8159 H   0  0  0  0  0  0  0  0  0  0  0  0
   45.3510   33.4932   46.6350 H   0  0  0  0  0  0  0  0  0  0  0  0
  1  2  1  0
  1 18  1  0
  3  2  1  0
  4  5  1  0
  4  3  1  0
  5  6  1  0
  6  8  1  0
  6  1  1  0
  7 15  2  0
  7  8  1  0
  8  9  2  0
  9 10  1  0
 10 11  1  0
 12 11  1  0
 13 12  2  0
 14 13  1  0
 14 10  2  0
 15 14  1  0
 16 21  2  0
 17 16  1  0
 18 17  2  0
 18 19  1  0
 19 20  2  0
 20 21  1  0
  2 22  1  0
  2 23  1  0
  3 24  1  0
  3 25  1  0
  4 26  1  0
  4 27  1  0
  5 28  1  0
  5 29  1  0
  6 30  1  6
  7 31  1  0
  9 32  1  0
 11 33  1  0
 12 34  1  0
 15 35  1  0
 16 36  1  0
 17 37  1  0
 20 38  1  0
M  ISO  8  22  13  23  13  24  13  25  13  26  13  27  13  28  13  29  13
M  ISO  8  30  13  31  14  32  14  33   9  34  14  35  14  36  14  37  14
M  ISO  1  38  14
M  END
>  <minimizedAffinity>  (1) 
-5.95499611

>  <minimizedRMSD>  (1) 
1.21996629

$$$$
