
     RDKit          3D

 45 48  0  0  0  0  0  0  0  0999 V2000
   46.1854   32.0839   45.4358 C   0  0  0  0  0  0  0  0  0  0  0  0
   45.7587   32.0273   49.1283 C   0  0  0  0  0  0  0  0  0  0  0  0
   46.0523   32.5055   47.8463 C   0  0  0  0  0  0  0  0  0  0  0  0
   45.8830   31.6113   46.7913 C   0  0  0  0  0  0  0  0  0  0  0  0
   45.4461   30.3335   47.0556 N   0  0  0  0  0  0  0  0  0  0  0  0
   45.1772   29.9254   48.3166 C   0  0  0  0  0  0  0  0  0  0  0  0
   45.3343   30.7675   49.3316 N   0  0  0  0  0  0  0  0  0  0  0  0
   46.5350   33.4092   45.4093 O   0  0  0  0  0  0  0  0  0  0  0  0
   44.6351   35.1760   45.2498 O   0  0  0  0  0  0  0  0  0  0  0  0
   45.4558   34.2382   44.4208 P   0  0  2  0  0  0  0  0  0  0  0  0
   44.5165   33.0663   43.6758 O   0  0  0  0  0  0  0  0  0  0  0  0
   46.3519   35.1277   43.3053 O   0  0  0  0  0  0  0  0  0  0  0  0
   47.1259   34.2373   42.5523 C   0  0  1  0  0  0  0  0  0  0  0  0
   46.9534   34.4687   41.0552 C   0  0  0  0  0  0  0  0  0  0  0  0
   48.1082   33.6689   40.5033 C   0  0  0  0  0  0  0  0  0  0  0  0
   49.1559   33.6593   41.5936 C   0  0  0  0  0  0  0  0  0  0  0  0
   48.5982   34.5479   42.6921 C   0  0  2  0  0  0  0  0  0  0  0  0
   47.1048   31.5186   45.1102 H   0  0  0  0  0  0  0  0  0  0  0  0
   45.3935   31.7462   44.7839 H   0  0  0  0  0  0  0  0  0  0  0  0
   45.9010   32.7485   49.9269 H   0  0  0  0  0  0  0  0  0  0  0  0
   46.3882   33.4986   47.6731 H   0  0  0  0  0  0  0  0  0  0  0  0
   44.8341   28.9182   48.5146 H   0  0  0  0  0  0  0  0  0  0  0  0
   44.4110   33.3111   42.7081 H   0  0  0  0  0  0  0  0  0  0  0  0
   46.9490   33.1841   42.7768 H   0  0  0  0  0  0  0  0  0  0  0  0
   45.9708   34.1338   40.6875 H   0  0  0  0  0  0  0  0  0  0  0  0
   47.1378   35.5437   40.8218 H   0  0  0  0  0  0  0  0  0  0  0  0
   48.4946   34.0997   39.5653 H   0  0  0  0  0  0  0  0  0  0  0  0
   47.7279   32.6583   40.2553 H   0  0  0  0  0  0  0  0  0  0  0  0
   49.2620   32.6136   41.9251 H   0  0  0  0  0  0  0  0  0  0  0  0
   50.1068   34.0981   41.2324 H   0  0  0  0  0  0  0  0  0  0  0  0
   48.7396   35.6097   42.3859 H   0  0  0  0  0  0  0  0  0  0  0  0
   48.7736   33.3550   44.8851 C   0  0  0  0  0  0  0  0  0  0  0  0
   49.2111   34.3386   43.9853 C   0  0  0  0  0  0  0  0  0  0  0  0
   50.2762   35.0796   44.5147 C   0  0  0  0  0  0  0  0  0  0  0  0
   50.6845   35.8667   43.8902 H   0  0  0  0  0  0  0  0  0  0  0  0
   50.8334   34.8779   45.7611 C   0  0  0  0  0  0  0  0  0  0  0  0
   51.8526   35.5245   46.3706 N   0  0  0  0  0  0  0  0  0  0  0  0
   52.0031   34.9417   47.5761 C   0  0  0  0  0  0  0  0  0  0  0  0
   52.7371   35.2143   48.3326 H   0  0  0  0  0  0  0  0  0  0  0  0
   51.0850   33.9597   47.6844 N   0  0  0  0  0  0  0  0  0  0  0  0
   50.3411   33.8986   46.5640 C   0  0  0  0  0  0  0  0  0  0  0  0
   49.2927   33.1102   46.1396 C   0  0  0  0  0  0  0  0  0  0  0  0
   47.9420   32.7348   44.5400 H   0  0  0  0  0  0  0  0  0  0  0  0
   52.4057   36.3182   45.9730 H   0  0  0  0  0  0  0  0  0  0  0  0
   48.8941   32.3395   46.7531 H   0  0  0  0  0  0  0  0  0  0  0  0
  1  4  1  0
  2  7  2  0
  3  2  1  0
  4  5  1  0
  4  3  2  0
  5  6  2  0
  6  7  1  0
  8  1  1  0
 10  9  2  0
 10  8  1  1
 11 10  1  0
 12 10  1  0
 13 17  1  0
 13 12  1  0
 14 13  1  0
 15 14  1  0
 15 16  1  0
 16 17  1  0
  1 18  1  0
  1 19  1  0
  2 20  1  0
  3 21  1  0
  6 22  1  0
 11 23  1  0
 13 24  1  6
 14 25  1  0
 14 26  1  0
 15 27  1  0
 15 28  1  0
 16 29  1  0
 16 30  1  0
 17 31  1  6
 32 33  2  0
 33 34  1  0
 34 35  1  0
 34 36  2  0
 36 37  1  0
 37 38  1  0
 38 39  1  0
 38 40  2  0
 40 41  1  0
 41 42  2  0
 42 32  1  0
 41 36  1  0
 32 43  1  0
 37 44  1  0
 42 45  1  0
 17 33  1  0
M  ISO  8  18   8  19   8  20  14  21  14  22  14  23   3  24  13  25  13
M  ISO  8  26  13  27  13  28  13  29  13  30  13  31  13  35  15  39  14
M  END
>  <DihAtoms>  (1) 
12,16,32,31

>  <DihDeg>  (1) 
-104.65464258268597

$$$$
