
     RDKit          3D

 49 52  0  0  0  0  0  0  0  0999 V2000
   41.6270   35.6390   41.1760 C   0  0  0  0  0  0  0  0  0  0  0  0
   41.0810   33.2610   41.2910 C   0  0  0  0  0  0  0  0  0  0  0  0
   40.6690   34.5170   40.8670 C   0  0  0  0  0  0  0  0  0  0  0  0
   39.4640   34.6320   40.2420 C   0  0  0  0  0  0  0  0  0  0  0  0
   38.7670   33.5070   40.0860 N   0  0  0  0  0  0  0  0  0  0  0  0
   39.1420   32.3090   40.4820 C   0  0  0  0  0  0  0  0  0  0  0  0
   40.3690   32.1500   41.1250 N   0  0  0  0  0  0  0  0  0  0  0  0
   37.4440   30.6870   41.2480 C   0  0  0  0  0  0  0  0  0  0  0  0
   38.3150   31.1240   40.2710 C   0  0  0  0  0  0  0  0  0  0  0  0
   38.4620   30.4850   39.0570 C   0  0  0  0  0  0  0  0  0  0  0  0
   37.7030   29.3610   38.8090 C   0  0  0  0  0  0  0  0  0  0  0  0
   37.6310   28.5410   37.7330 N   0  0  0  0  0  0  0  0  0  0  0  0
   36.7170   27.5810   38.0150 C   0  0  0  0  0  0  0  0  0  0  0  0
   36.2230   27.7930   39.2480 N   0  0  0  0  0  0  0  0  0  0  0  0
   36.8160   28.9020   39.7800 C   0  0  0  0  0  0  0  0  0  0  0  0
   36.6890   29.5610   40.9910 C   0  0  0  0  0  0  0  0  0  0  0  0
   42.8680   35.4650   40.6570 O   0  0  0  0  0  0  0  0  0  0  0  0
   44.0770   35.2830   41.3080 C   0  0  0  0  0  0  0  0  0  0  0  0
   44.0710   35.6250   42.6090 C   0  0  0  0  0  0  0  0  0  0  0  0
   45.2630   35.5260   43.5300 C   0  0  0  0  0  0  0  0  0  0  0  0
   44.9850   34.5900   44.4950 O   0  0  0  0  0  0  0  0  0  0  0  0
   45.6080   32.4290   43.0700 O   0  0  0  0  0  0  0  0  0  0  0  0
   45.9690   33.2340   44.2970 P   0  0  1  0  0  0  0  0  0  0  0  0
   47.5930   33.7230   44.1150 O   0  0  0  0  0  0  0  0  0  0  0  0
   45.8990   32.2620   45.6710 O   0  0  0  0  0  0  0  0  0  0  0  0
   46.1970   32.9530   46.8260 C   0  0  0  0  0  0  0  0  0  0  0  0
   47.0690   32.3080   47.8590 C   0  0  0  0  0  0  0  0  0  0  0  0
   45.5720   32.4110   48.0870 C   0  0  0  0  0  0  0  0  0  0  0  0
   41.2097   36.5718   40.7688 H   0  0  0  0  0  0  0  0  0  0  0  0
   41.7411   35.6671   42.2697 H   0  0  0  0  0  0  0  0  0  0  0  0
   42.0554   33.1797   41.7948 H   0  0  0  0  0  0  0  0  0  0  0  0
   39.0866   35.6017   39.8852 H   0  0  0  0  0  0  0  0  0  0  0  0
   37.3541   31.2215   42.2052 H   0  0  0  0  0  0  0  0  0  0  0  0
   39.1688   30.8638   38.3040 H   0  0  0  0  0  0  0  0  0  0  0  0
   38.1716   28.6307   36.8609 H   0  0  0  0  0  0  0  0  0  0  0  0
   36.4258   26.7600   37.3433 H   0  0  0  0  0  0  0  0  0  0  0  0
   35.9854   29.1865   41.7491 H   0  0  0  0  0  0  0  0  0  0  0  0
   44.3494   34.2198   41.2343 H   0  0  0  0  0  0  0  0  0  0  0  0
   44.7995   35.9496   40.8144 H   0  0  0  0  0  0  0  0  0  0  0  0
   43.7661   36.6816   42.6344 H   0  0  0  0  0  0  0  0  0  0  0  0
   43.4310   34.8317   43.0225 H   0  0  0  0  0  0  0  0  0  0  0  0
   46.1506   35.2182   42.9579 H   0  0  0  0  0  0  0  0  0  0  0  0
   45.4647   36.5021   43.9954 H   0  0  0  0  0  0  0  0  0  0  0  0
   48.0025   33.8463   45.0078 H   0  0  0  0  0  0  0  0  0  0  0  0
   46.2334   33.9233   46.3091 H   0  0  0  0  0  0  0  0  0  0  0  0
   47.5285   31.3291   47.6573 H   0  0  0  0  0  0  0  0  0  0  0  0
   47.9641   32.6124   48.4212 H   0  0  0  0  0  0  0  0  0  0  0  0
   45.1757   33.1005   48.8469 H   0  0  0  0  0  0  0  0  0  0  0  0
   44.7654   31.6990   48.3161 H   0  0  0  0  0  0  0  0  0  0  0  0
  3  1  1  0
  3  2  2  0
  4  3  1  0
  5  4  2  0
  5  6  1  0
  6  7  2  0
  7  2  1  0
  9  6  1  0
  9  8  2  0
 10  9  1  0
 11 10  2  0
 11 15  1  0
 12 13  1  0
 12 11  1  0
 13 14  2  0
 14 15  1  0
 15 16  2  0
 16  8  1  0
 17  1  1  0
 17 18  1  0
 18 19  1  0
 19 20  1  0
 20 21  1  0
 23 22  2  0
 23 21  1  0
 23 25  1  0
 24 23  1  0
 25 26  1  0
 26 27  1  0
 26 28  1  0
 27 28  1  0
  1 29  1  0
  1 30  1  0
  2 31  1  0
  4 32  1  0
  8 33  1  0
 10 34  1  0
 12 35  1  0
 13 36  1  0
 16 37  1  0
 18 38  1  0
 18 39  1  0
 19 40  1  0
 19 41  1  0
 20 42  1  0
 20 43  1  0
 24 44  1  0
 26 45  1  0
 27 46  1  0
 27 47  1  0
 28 48  1  0
 28 49  1  0
M  ISO  8  29   8  30   8  31  14  32  14  33  14  34  14  35   9  36  14
M  ISO  8  37  14  38   8  39   8  40   8  41   8  42   8  43   8  44   3
M  ISO  5  45  13  46  13  47  13  48  13  49  13
M  END
>  <minimizedAffinity>  (1) 
-5.4331975

>  <minimizedRMSD>  (1) 
1.03687871

$$$$
