
     RDKit          3D

 29 31  0  0  0  0  0  0  0  0999 V2000
   44.5489   36.0447   44.4869 C   0  0  0  0  0  0  0  0  0  0  0  0
   45.2113   35.9512   43.2368 C   0  0  0  0  0  0  0  0  0  0  0  0
   46.0776   34.8816   43.0249 C   0  0  0  0  0  0  0  0  0  0  0  0
   46.2429   33.9732   44.0425 N   0  0  0  0  0  0  0  0  0  0  0  0
   45.6021   34.0943   45.2060 C   0  0  0  0  0  0  0  0  0  0  0  0
   44.7660   35.1107   45.4345 N   0  0  0  0  0  0  0  0  0  0  0  0
   46.7794   34.7694   41.7235 C   0  0  0  0  0  0  0  0  0  0  0  0
   48.1898   35.2999   41.8859 C   0  0  0  0  0  0  0  0  0  0  0  0
   43.9066   36.9145   44.5285 H   0  0  0  0  0  0  0  0  0  0  0  0
   45.0757   36.6709   42.4404 H   0  0  0  0  0  0  0  0  0  0  0  0
   45.7681   33.3470   45.9803 H   0  0  0  0  0  0  0  0  0  0  0  0
   46.7865   33.6925   41.4632 H   0  0  0  0  0  0  0  0  0  0  0  0
   46.2166   35.3119   40.9581 H   0  0  0  0  0  0  0  0  0  0  0  0
   48.2010   36.3593   42.1663 H   0  0  0  0  0  0  0  0  0  0  0  0
   48.7516   35.2185   40.9257 H   0  0  0  0  0  0  0  0  0  0  0  0
   48.4810   33.1639   43.0566 C   0  0  0  0  0  0  0  0  0  0  0  0
   48.8872   34.4949   42.9170 C   0  0  0  0  0  0  0  0  0  0  0  0
   49.9108   34.9675   43.7460 C   0  0  0  0  0  0  0  0  0  0  0  0
   50.2070   36.0187   43.6088 H   0  0  0  0  0  0  0  0  0  0  0  0
   50.4820   34.1068   44.6696 C   0  0  0  0  0  0  0  0  0  0  0  0
   51.4645   34.3184   45.5647 N   0  0  0  0  0  0  0  0  0  0  0  0
   51.6378   33.1415   46.2203 C   0  0  0  0  0  0  0  0  0  0  0  0
   52.3478   32.9161   47.0223 H   0  0  0  0  0  0  0  0  0  0  0  0
   50.7808   32.2040   45.7481 N   0  0  0  0  0  0  0  0  0  0  0  0
   50.0642   32.8054   44.7856 C   0  0  0  0  0  0  0  0  0  0  0  0
   49.0586   32.3081   43.9846 C   0  0  0  0  0  0  0  0  0  0  0  0
   47.6795   32.7624   42.4202 H   0  0  0  0  0  0  0  0  0  0  0  0
   52.0010   35.2103   45.7353 H   0  0  0  0  0  0  0  0  0  0  0  0
   48.6899   31.2823   44.0365 H   0  0  0  0  0  0  0  0  0  0  0  0
  1  6  2  0
  2  1  1  0
  3  2  2  0
  3  4  1  0
  4  5  2  0
  5  6  1  0
  7  8  1  0
  7  3  1  0
  1  9  1  0
  2 10  1  0
  5 11  1  0
  7 12  1  0
  7 13  1  0
  8 14  1  0
  8 15  1  0
 16 17  2  0
 17 18  1  0
 18 19  1  0
 18 20  2  0
 20 21  1  0
 21 22  1  0
 22 23  1  0
 22 24  2  0
 24 25  1  0
 25 26  2  0
 26 16  1  0
 25 20  1  0
 16 27  1  0
 21 28  1  0
 26 29  1  0
  8 17  1  0
M  ISO  8   9  14  10  14  11  14  12   8  13   8  14   8  15   8  19  15
M  ISO  1  23  14
M  END
>  <DihAtoms>  (1) 
6,7,16,15

>  <DihDeg>  (1) 
89.27884199138126

$$$$
