
     RDKit          3D

 37 40  0  0  0  0  0  0  0  0999 V2000
   44.5710   36.1888   44.1357 C   0  0  0  0  0  0  0  0  0  0  0  0
   45.3177   35.9483   42.9763 C   0  0  0  0  0  0  0  0  0  0  0  0
   46.1596   34.8618   42.9846 C   0  0  0  0  0  0  0  0  0  0  0  0
   46.2353   34.0856   44.0814 N   0  0  0  0  0  0  0  0  0  0  0  0
   45.5206   34.3203   45.1858 C   0  0  0  0  0  0  0  0  0  0  0  0
   44.7194   35.3619   45.1638 N   0  0  0  0  0  0  0  0  0  0  0  0
   45.6334   33.4761   46.3775 C   0  0  0  0  0  0  0  0  0  0  0  0
   46.6757   32.7200   46.4847 C   0  0  0  0  0  0  0  0  0  0  0  0
   46.7653   31.8685   47.7311 C   0  0  0  0  0  0  0  0  0  0  0  0
   45.3830   31.4312   48.1486 C   0  0  1  0  0  0  0  0  0  0  0  0
   45.2118   30.0748   48.7318 C   0  0  0  0  0  0  0  0  0  0  0  0
   45.1062   31.2566   49.5977 C   0  0  2  0  0  0  0  0  0  0  0  0
   43.8958   37.0440   44.1541 H   0  0  0  0  0  0  0  0  0  0  0  0
   45.2705   36.5517   42.1005 H   0  0  0  0  0  0  0  0  0  0  0  0
   46.7989   34.5502   42.1617 H   0  0  0  0  0  0  0  0  0  0  0  0
   44.7935   33.5828   47.0878 H   0  0  0  0  0  0  0  0  0  0  0  0
   47.4449   32.7043   45.7230 H   0  0  0  0  0  0  0  0  0  0  0  0
   47.1776   32.5509   48.5013 H   0  0  0  0  0  0  0  0  0  0  0  0
   47.4692   31.0375   47.5856 H   0  0  0  0  0  0  0  0  0  0  0  0
   44.5579   31.6615   47.4111 H   0  0  0  0  0  0  0  0  0  0  0  0
   44.3191   29.4566   48.5423 H   0  0  0  0  0  0  0  0  0  0  0  0
   46.1610   29.4802   48.8165 H   0  0  0  0  0  0  0  0  0  0  0  0
   45.9139   31.5425   50.2976 H   0  0  0  0  0  0  0  0  0  0  0  0
   43.5115   32.7625   50.7512 C   0  0  0  0  0  0  0  0  0  0  0  0
   43.7466   31.5381   50.1359 C   0  0  0  0  0  0  0  0  0  0  0  0
   42.7282   30.6417   50.0471 C   0  0  0  0  0  0  0  0  0  0  0  0
   42.8991   29.6782   49.5672 H   0  0  0  0  0  0  0  0  0  0  0  0
   41.4835   30.8945   50.5377 C   0  0  0  0  0  0  0  0  0  0  0  0
   40.3075   30.2174   50.5943 N   0  0  0  0  0  0  0  0  0  0  0  0
   39.3876   30.9724   51.2091 C   0  0  0  0  0  0  0  0  0  0  0  0
   38.3430   30.7019   51.4064 H   0  0  0  0  0  0  0  0  0  0  0  0
   39.9829   32.1448   51.5491 N   0  0  0  0  0  0  0  0  0  0  0  0
   41.2646   32.1086   51.1435 C   0  0  0  0  0  0  0  0  0  0  0  0
   42.2574   33.0486   51.2594 C   0  0  0  0  0  0  0  0  0  0  0  0
   44.3110   33.5067   50.8388 H   0  0  0  0  0  0  0  0  0  0  0  0
   40.1604   29.2693   50.2177 H   0  0  0  0  0  0  0  0  0  0  0  0
   42.1404   34.0280   51.7300 H   0  0  0  0  0  0  0  0  0  0  0  0
  1  6  2  0
  2  1  1  0
  3  2  2  0
  3  4  1  0
  4  5  2  0
  5  6  1  0
  5  7  1  0
  7  8  2  0
  8  9  1  0
  9 10  1  0
 10 11  1  0
 10 12  1  0
 11 12  1  0
  1 13  1  0
  2 14  1  0
  3 15  1  0
  7 16  1  0
  8 17  1  0
  9 18  1  0
  9 19  1  0
 10 20  1  6
 11 21  1  0
 11 22  1  0
 12 23  1  1
 24 25  2  0
 25 26  1  0
 26 27  1  0
 26 28  2  0
 28 29  1  0
 29 30  1  0
 30 31  1  0
 30 32  2  0
 32 33  1  0
 33 34  2  0
 34 24  1  0
 33 28  1  0
 24 35  1  0
 29 36  1  0
 34 37  1  0
 12 25  1  0
M  ISO  8  13  14  14  14  15  14  18   8  19   8  20  13  21  13  22  13
M  ISO  3  23  13  27  15  31  14
M  END
>  <DihAtoms>  (1) 
9,11,24,23

>  <DihDeg>  (1) 
-144.0243709523745

$$$$
