
     RDKit          3D

 30 32  0  0  0  0  0  0  0  0999 V2000
   46.9640   34.2110   43.1120 C   0  0  0  0  0  0  0  0  0  0  0  0
   45.8360   34.7140   43.7550 C   0  0  0  0  0  0  0  0  0  0  0  0
   45.3220   33.9780   44.8330 C   0  0  0  0  0  0  0  0  0  0  0  0
   45.9420   32.8320   45.1890 N   0  0  0  0  0  0  0  0  0  0  0  0
   47.0340   32.3790   44.5390 C   0  0  0  0  0  0  0  0  0  0  0  0
   47.5490   33.0560   43.5070 N   0  0  0  0  0  0  0  0  0  0  0  0
   48.3920   30.3260   44.1930 C   0  0  0  0  0  0  0  0  0  0  0  0
   47.6100   31.1270   45.0200 C   0  0  0  0  0  0  0  0  0  0  0  0
   47.3800   30.7310   46.3110 C   0  0  0  0  0  0  0  0  0  0  0  0
   47.9310   29.5440   46.7520 C   0  0  0  0  0  0  0  0  0  0  0  0
   47.8230   28.9810   47.9840 N   0  0  0  0  0  0  0  0  0  0  0  0
   48.5480   27.8320   47.8860 C   0  0  0  0  0  0  0  0  0  0  0  0
   49.0720   27.7050   46.6550 N   0  0  0  0  0  0  0  0  0  0  0  0
   48.7040   28.7660   45.9140 C   0  0  0  0  0  0  0  0  0  0  0  0
   48.9620   29.1250   44.6080 C   0  0  0  0  0  0  0  0  0  0  0  0
   45.2310   35.9790   43.2890 C   0  0  0  0  0  0  0  0  0  0  0  0
   46.2260   36.8820   42.9570 F   0  0  0  0  0  0  0  0  0  0  0  0
   44.5350   35.7260   42.1150 F   0  0  0  0  0  0  0  0  0  0  0  0
   44.4050   36.5750   44.1770 F   0  0  0  0  0  0  0  0  0  0  0  0
   47.4550   34.9300   42.0690 O   0  0  0  0  0  0  0  0  0  0  0  0
   48.8040   35.0620   41.6940 C   0  0  0  0  0  0  0  0  0  0  0  0
   49.5340   35.3560   42.8480 F   0  0  0  0  0  0  0  0  0  0  0  0
   49.2350   33.9300   41.0780 F   0  0  0  0  0  0  0  0  0  0  0  0
   48.9540   36.1810   40.8840 F   0  0  0  0  0  0  0  0  0  0  0  0
   44.4321   34.3271   45.3773 H   0  0  0  0  0  0  0  0  0  0  0  0
   48.5688   30.6583   43.1594 H   0  0  0  0  0  0  0  0  0  0  0  0
   46.7671   31.3478   46.9847 H   0  0  0  0  0  0  0  0  0  0  0  0
   47.3113   29.3400   48.8026 H   0  0  0  0  0  0  0  0  0  0  0  0
   48.6857   27.1076   48.7023 H   0  0  0  0  0  0  0  0  0  0  0  0
   49.5766   28.5047   43.9390 H   0  0  0  0  0  0  0  0  0  0  0  0
  1  6  2  0
  1  2  1  0
  2  3  2  0
  3  4  1  0
  5  8  1  0
  5  4  2  0
  6  5  1  0
  7 15  2  0
  7  8  1  0
  8  9  2  0
  9 10  1  0
 10 11  1  0
 12 11  1  0
 13 12  2  0
 14 13  1  0
 14 10  2  0
 15 14  1  0
 16  2  1  0
 16 19  1  0
 17 16  1  0
 18 16  1  0
 20  1  1  0
 21 20  1  0
 21 22  1  0
 23 21  1  0
 24 21  1  0
  3 25  1  0
  7 26  1  0
  9 27  1  0
 11 28  1  0
 12 29  1  0
 15 30  1  0
M  ISO  6  25  14  26  14  27  14  28   9  29  14  30  14
M  END
>  <minimizedAffinity>  (1) 
-5.47182608

>  <minimizedRMSD>  (1) 
0.85528177

$$$$
