
     RDKit          3D

 29 31  0  0  0  0  0  0  0  0999 V2000
   47.9980   34.5980   42.5160 C   0  0  0  0  0  0  0  0  0  0  0  0
   47.9530   33.5460   43.4560 C   0  0  0  0  0  0  0  0  0  0  0  0
   46.8020   33.4330   44.2530 C   0  0  0  0  0  0  0  0  0  0  0  0
   45.8110   34.3390   44.0680 N   0  0  0  0  0  0  0  0  0  0  0  0
   45.8830   35.3350   43.1600 C   0  0  0  0  0  0  0  0  0  0  0  0
   46.9700   35.4610   42.3920 N   0  0  0  0  0  0  0  0  0  0  0  0
   47.4250   31.2780   45.1450 C   0  0  0  0  0  0  0  0  0  0  0  0
   46.6270   32.3960   45.2570 C   0  0  0  0  0  0  0  0  0  0  0  0
   45.7170   32.4940   46.2860 C   0  0  0  0  0  0  0  0  0  0  0  0
   45.6330   31.4500   47.1840 C   0  0  0  0  0  0  0  0  0  0  0  0
   44.8180   31.3260   48.2660 N   0  0  0  0  0  0  0  0  0  0  0  0
   45.1330   30.1170   48.8110 C   0  0  0  0  0  0  0  0  0  0  0  0
   46.1000   29.5270   48.0890 N   0  0  0  0  0  0  0  0  0  0  0  0
   46.4270   30.3290   47.0810 C   0  0  0  0  0  0  0  0  0  0  0  0
   47.3420   30.2280   46.0490 C   0  0  0  0  0  0  0  0  0  0  0  0
   49.2210   34.6980   41.6830 C   0  0  0  0  0  0  0  0  0  0  0  0
   49.4510   33.5460   40.9710 F   0  0  0  0  0  0  0  0  0  0  0  0
   49.0980   35.7880   40.8300 F   0  0  0  0  0  0  0  0  0  0  0  0
   50.3190   34.9910   42.5090 F   0  0  0  0  0  0  0  0  0  0  0  0
   44.7630   36.2940   43.0100 C   0  0  0  0  0  0  0  0  0  0  0  0
   44.1380   36.1470   41.8030 F   0  0  0  0  0  0  0  0  0  0  0  0
   45.2290   37.6110   43.1550 F   0  0  0  0  0  0  0  0  0  0  0  0
   43.8160   36.1410   44.0000 F   0  0  0  0  0  0  0  0  0  0  0  0
   48.7897   32.8397   43.5607 H   0  0  0  0  0  0  0  0  0  0  0  0
   48.1468   31.2161   44.3173 H   0  0  0  0  0  0  0  0  0  0  0  0
   45.0744   33.3808   46.3892 H   0  0  0  0  0  0  0  0  0  0  0  0
   44.1149   32.0000   48.6010 H   0  0  0  0  0  0  0  0  0  0  0  0
   44.6647   29.6880   49.7091 H   0  0  0  0  0  0  0  0  0  0  0  0
   47.9852   29.3415   45.9475 H   0  0  0  0  0  0  0  0  0  0  0  0
  1  2  2  0
  2  3  1  0
  3  8  1  0
  4  3  2  0
  5  4  1  0
  6  1  1  0
  6  5  2  0
  7  8  2  0
  7 15  1  0
  8  9  1  0
  9 10  2  0
 10 11  1  0
 11 12  1  0
 13 12  2  0
 14 10  1  0
 14 13  1  0
 15 14  2  0
 16 19  1  0
 16  1  1  0
 17 16  1  0
 18 16  1  0
 20 22  1  0
 20  5  1  0
 20 23  1  0
 21 20  1  0
  2 24  1  0
  7 25  1  0
  9 26  1  0
 11 27  1  0
 12 28  1  0
 15 29  1  0
M  ISO  6  24  14  25  14  26  14  27   9  28  14  29  14
M  END
>  <minimizedAffinity>  (1) 
-6.42506838

>  <minimizedRMSD>  (1) 
1.55055046

$$$$
