
     RDKit          3D

 29 31  0  0  0  0  0  0  0  0999 V2000
   45.1741   35.2200   44.0616 C   0  0  0  0  0  0  0  0  0  0  0  0
   46.2239   34.5735   43.3793 C   0  0  0  0  0  0  0  0  0  0  0  0
   46.9104   33.5614   44.0539 C   0  0  0  0  0  0  0  0  0  0  0  0
   46.5235   33.2642   45.3235 N   0  0  0  0  0  0  0  0  0  0  0  0
   45.5190   33.9047   45.9346 C   0  0  0  0  0  0  0  0  0  0  0  0
   44.8320   34.8942   45.3040 N   0  0  0  0  0  0  0  0  0  0  0  0
   46.5458   34.9840   42.0128 C   0  0  0  0  0  0  0  0  0  0  0  0
   48.0673   35.1838   41.9363 C   0  0  0  0  0  0  0  0  0  0  0  0
   44.6354   36.0066   43.5466 H   0  0  0  0  0  0  0  0  0  0  0  0
   47.7126   33.0509   43.5640 H   0  0  0  0  0  0  0  0  0  0  0  0
   46.2107   34.2977   41.2318 H   0  0  0  0  0  0  0  0  0  0  0  0
   46.1095   35.9795   41.8143 H   0  0  0  0  0  0  0  0  0  0  0  0
   48.4833   34.2096   41.5811 H   0  0  0  0  0  0  0  0  0  0  0  0
   48.2857   35.9917   41.2230 H   0  0  0  0  0  0  0  0  0  0  0  0
   48.4022   35.4907   42.9260 H   0  0  0  0  0  0  0  0  0  0  0  0
   44.8767   34.6024   48.2038 C   0  0  0  0  0  0  0  0  0  0  0  0
   45.1143   33.5676   47.3127 C   0  0  0  0  0  0  0  0  0  0  0  0
   44.9726   32.2358   47.7144 C   0  0  0  0  0  0  0  0  0  0  0  0
   45.1761   31.4730   46.9594 H   0  0  0  0  0  0  0  0  0  0  0  0
   44.5906   31.9743   49.0190 C   0  0  0  0  0  0  0  0  0  0  0  0
   44.3947   30.7832   49.6173 N   0  0  0  0  0  0  0  0  0  0  0  0
   44.0383   31.0737   50.8702 C   0  0  0  0  0  0  0  0  0  0  0  0
   43.7925   30.3785   51.6746 H   0  0  0  0  0  0  0  0  0  0  0  0
   44.0177   32.3980   51.0295 N   0  0  0  0  0  0  0  0  0  0  0  0
   44.3606   33.0246   49.8850 C   0  0  0  0  0  0  0  0  0  0  0  0
   44.4918   34.3465   49.5187 C   0  0  0  0  0  0  0  0  0  0  0  0
   44.9771   35.6299   47.9246 H   0  0  0  0  0  0  0  0  0  0  0  0
   44.4943   29.8243   49.2090 H   0  0  0  0  0  0  0  0  0  0  0  0
   44.3001   35.1385   50.2349 H   0  0  0  0  0  0  0  0  0  0  0  0
  1  6  2  0
  2  1  1  0
  2  3  2  0
  3  4  1  0
  4  5  2  0
  6  5  1  0
  7  2  1  0
  8  7  1  0
  1  9  1  0
  3 10  1  0
  7 11  1  0
  7 12  1  0
  8 13  1  0
  8 14  1  0
  8 15  1  0
 16 17  2  0
 17 18  1  0
 18 19  1  0
 18 20  2  0
 20 21  1  0
 21 22  1  0
 22 23  1  0
 22 24  2  0
 24 25  1  0
 25 26  2  0
 26 16  1  0
 25 20  1  0
 16 27  1  0
 21 28  1  0
 26 29  1  0
  5 17  1  0
M  ISO  8   9  14  10  14  11   8  12   8  13   8  14   8  15   8  19  15
M  ISO  1  23  14
M  END
>  <DihAtoms>  (1) 
3,4,16,15

>  <DihDeg>  (1) 
-0.000507244255505188

$$$$
