
     RDKit          3D

 36 39  0  0  0  0  0  0  0  0999 V2000
   45.8840   32.2370   40.6730 Cl  0  0  0  0  0  0  0  0  0  0  0  0
   47.0550   33.4670   40.3490 C   0  0  0  0  0  0  0  0  0  0  0  0
   47.5040   34.2850   41.3580 C   0  0  0  0  0  0  0  0  0  0  0  0
   48.4520   35.2910   41.1250 C   0  0  0  0  0  0  0  0  0  0  0  0
   48.9090   35.4120   39.8280 C   0  0  0  0  0  0  0  0  0  0  0  0
   48.4590   34.5930   38.8210 C   0  0  0  0  0  0  0  0  0  0  0  0
   47.5430   33.6300   39.0720 C   0  0  0  0  0  0  0  0  0  0  0  0
   47.5800   31.5080   37.7870 C   0  0  0  0  0  0  0  0  0  0  0  0
   47.1240   32.8080   37.9420 C   0  0  0  0  0  0  0  0  0  0  0  0
   46.2540   33.2960   36.9830 C   0  0  0  0  0  0  0  0  0  0  0  0
   45.8310   32.5570   35.8990 C   0  0  0  0  0  0  0  0  0  0  0  0
   45.0060   32.8030   34.8540 N   0  0  0  0  0  0  0  0  0  0  0  0
   44.9440   31.7090   34.0720 C   0  0  0  0  0  0  0  0  0  0  0  0
   45.7400   30.7550   34.6310 N   0  0  0  0  0  0  0  0  0  0  0  0
   46.2970   31.2530   35.7560 C   0  0  0  0  0  0  0  0  0  0  0  0
   47.1650   30.7480   36.7020 C   0  0  0  0  0  0  0  0  0  0  0  0
   46.9400   32.9310   44.7360 C   0  0  0  0  0  0  0  0  0  0  0  0
   45.9660   33.8110   45.2530 C   0  0  0  0  0  0  0  0  0  0  0  0
   45.5270   34.8420   44.4420 C   0  0  0  0  0  0  0  0  0  0  0  0
   46.0390   34.9720   43.1900 N   0  0  0  0  0  0  0  0  0  0  0  0
   46.9810   34.1060   42.7110 C   0  0  0  0  0  0  0  0  0  0  0  0
   47.4220   33.0940   43.4920 N   0  0  0  0  0  0  0  0  0  0  0  0
   44.4950   35.8440   44.8780 C   0  0  0  0  0  0  0  0  0  0  0  0
   44.9450   37.1290   44.6710 F   0  0  0  0  0  0  0  0  0  0  0  0
   43.3360   35.6460   44.1400 F   0  0  0  0  0  0  0  0  0  0  0  0
   44.2670   35.6220   46.2110 F   0  0  0  0  0  0  0  0  0  0  0  0
   48.8118   35.9476   41.9309 H   0  0  0  0  0  0  0  0  0  0  0  0
   49.6546   36.1862   39.5942 H   0  0  0  0  0  0  0  0  0  0  0  0
   48.8476   34.7217   37.8000 H   0  0  0  0  0  0  0  0  0  0  0  0
   48.2723   31.0777   38.5256 H   0  0  0  0  0  0  0  0  0  0  0  0
   45.8813   34.3253   37.0911 H   0  0  0  0  0  0  0  0  0  0  0  0
   44.5053   33.6869   34.6843 H   0  0  0  0  0  0  0  0  0  0  0  0
   44.3564   31.6042   33.1480 H   0  0  0  0  0  0  0  0  0  0  0  0
   47.5371   29.7185   36.5939 H   0  0  0  0  0  0  0  0  0  0  0  0
   47.3091   32.1022   45.3580 H   0  0  0  0  0  0  0  0  0  0  0  0
   45.5678   33.6812   46.2701 H   0  0  0  0  0  0  0  0  0  0  0  0
  2  1  1  0
  2  3  2  0
  3 21  1  0
  4  3  1  0
  5  4  2  0
  6  7  2  0
  6  5  1  0
  7  2  1  0
  8  9  2  0
  9  7  1  0
 10  9  1  0
 11 10  2  0
 12 11  1  0
 13 14  2  0
 13 12  1  0
 14 15  1  0
 15 11  1  0
 15 16  2  0
 16  8  1  0
 17 18  2  0
 19 23  1  0
 19 18  1  0
 20 19  2  0
 21 20  1  0
 21 22  2  0
 22 17  1  0
 23 26  1  0
 24 23  1  0
 25 23  1  0
  4 27  1  0
  5 28  1  0
  6 29  1  0
  8 30  1  0
 10 31  1  0
 12 32  1  0
 13 33  1  0
 16 34  1  0
 17 35  1  0
 18 36  1  0
M  ISO  8  27  14  28  14  29  14  30  14  31  14  32   9  33  14  34  14
M  ISO  2  35  14  36  14
M  END
>  <minimizedAffinity>  (1) 
-6.55875015

>  <minimizedRMSD>  (1) 
2.01684952

$$$$
