
     RDKit          3D

 23 25  0  0  0  0  0  0  0  0999 V2000
   47.8830   35.2180   41.9220 C   0  0  0  0  0  0  0  0  0  0  0  0
   46.6070   34.7070   42.0310 C   0  0  0  0  0  0  0  0  0  0  0  0
   46.0480   34.0800   40.9370 C   0  0  0  0  0  0  0  0  0  0  0  0
   46.7180   33.9440   39.7330 C   0  0  0  0  0  0  0  0  0  0  0  0
   46.3760   33.3780   38.5490 N   0  0  0  0  0  0  0  0  0  0  0  0
   47.4340   33.5330   37.6980 C   0  0  0  0  0  0  0  0  0  0  0  0
   48.4190   34.1960   38.3720 N   0  0  0  0  0  0  0  0  0  0  0  0
   47.9980   34.4560   39.6220 C   0  0  0  0  0  0  0  0  0  0  0  0
   48.5670   35.0850   40.7080 C   0  0  0  0  0  0  0  0  0  0  0  0
   44.4660   35.9550   44.8830 C   0  0  0  0  0  0  0  0  0  0  0  0
   45.0660   35.9250   43.5940 C   0  0  0  0  0  0  0  0  0  0  0  0
   45.9230   34.8640   43.3120 C   0  0  0  0  0  0  0  0  0  0  0  0
   46.1510   33.9170   44.2560 N   0  0  0  0  0  0  0  0  0  0  0  0
   45.5570   33.9810   45.4810 C   0  0  0  0  0  0  0  0  0  0  0  0
   44.7280   34.9940   45.7740 N   0  0  0  0  0  0  0  0  0  0  0  0
   48.3567   35.7229   42.7768 H   0  0  0  0  0  0  0  0  0  0  0  0
   45.0302   33.6721   41.0245 H   0  0  0  0  0  0  0  0  0  0  0  0
   45.4818   32.9156   38.3309 H   0  0  0  0  0  0  0  0  0  0  0  0
   47.4832   33.1854   36.6555 H   0  0  0  0  0  0  0  0  0  0  0  0
   49.5846   35.4930   40.6186 H   0  0  0  0  0  0  0  0  0  0  0  0
   43.7819   36.7745   45.1484 H   0  0  0  0  0  0  0  0  0  0  0  0
   44.8614   36.7085   42.8495 H   0  0  0  0  0  0  0  0  0  0  0  0
   45.7576   33.2010   46.2303 H   0  0  0  0  0  0  0  0  0  0  0  0
  1  2  2  0
  2 12  1  0
  3  2  1  0
  4  3  2  0
  5  4  1  0
  6  7  2  0
  6  5  1  0
  7  8  1  0
  8  4  1  0
  8  9  2  0
  9  1  1  0
 10 15  2  0
 11 10  1  0
 12 11  2  0
 12 13  1  0
 13 14  2  0
 14 15  1  0
  1 16  1  0
  3 17  1  0
  5 18  1  0
  6 19  1  0
  9 20  1  0
 10 21  1  0
 11 22  1  0
 14 23  1  0
M  ISO  8  16  14  17  14  18   9  19  14  20  14  21  14  22  14  23  14
M  END
>  <minimizedAffinity>  (1) 
-5.45176411

>  <minimizedRMSD>  (1) 
1.18978608

$$$$
