
     RDKit          3D

 29 31  0  0  0  0  0  0  0  0999 V2000
   46.3222   35.1497   42.5650 C   0  0  0  0  0  0  0  0  0  0  0  0
   46.8667   34.0818   43.2502 C   0  0  0  0  0  0  0  0  0  0  0  0
   46.3394   33.8081   44.5405 C   0  0  0  0  0  0  0  0  0  0  0  0
   45.3584   34.5742   45.0488 N   0  0  0  0  0  0  0  0  0  0  0  0
   44.8548   35.6183   44.3478 C   0  0  0  0  0  0  0  0  0  0  0  0
   45.3414   35.9011   43.1059 N   0  0  0  0  0  0  0  0  0  0  0  0
   47.8645   33.4167   42.5934 O   0  0  0  0  0  0  0  0  0  0  0  0
   50.3886   33.1860   41.8392 O   0  0  0  0  0  0  0  0  0  0  0  0
   49.3273   34.1985   42.1597 P   0  0  0  0  0  0  0  0  0  0  0  0
   49.0873   35.1417   40.7764 O   0  0  0  0  0  0  0  0  0  0  0  0
   49.8934   35.2218   43.3632 O   0  0  0  0  0  0  0  0  0  0  0  0
   46.8407   32.9535   44.9680 H   0  0  0  0  0  0  0  0  0  0  0  0
   44.0806   36.0698   44.9844 H   0  0  0  0  0  0  0  0  0  0  0  0
   49.8510   35.7726   40.7423 H   0  0  0  0  0  0  0  0  0  0  0  0
   50.1100   36.1301   43.0347 H   0  0  0  0  0  0  0  0  0  0  0  0
   45.1079   35.9029   40.7156 C   0  0  0  0  0  0  0  0  0  0  0  0
   46.4054   35.7767   41.2522 C   0  0  0  0  0  0  0  0  0  0  0  0
   47.5265   36.2095   40.5769 C   0  0  0  0  0  0  0  0  0  0  0  0
   48.4521   36.0478   41.1109 H   0  0  0  0  0  0  0  0  0  0  0  0
   47.3148   36.7859   39.3199 C   0  0  0  0  0  0  0  0  0  0  0  0
   48.2817   37.2651   38.5140 N   0  0  0  0  0  0  0  0  0  0  0  0
   47.5958   37.7090   37.4367 C   0  0  0  0  0  0  0  0  0  0  0  0
   47.9567   38.1693   36.5440 H   0  0  0  0  0  0  0  0  0  0  0  0
   46.2598   37.5047   37.5871 N   0  0  0  0  0  0  0  0  0  0  0  0
   46.0691   36.9130   38.7921 C   0  0  0  0  0  0  0  0  0  0  0  0
   44.9379   36.4857   39.4543 C   0  0  0  0  0  0  0  0  0  0  0  0
   44.1763   35.5962   41.1661 H   0  0  0  0  0  0  0  0  0  0  0  0
   49.3169   37.3044   38.6477 H   0  0  0  0  0  0  0  0  0  0  0  0
   43.9743   36.6144   38.9826 H   0  0  0  0  0  0  0  0  0  0  0  0
  1  6  1  0
  1  2  2  0
  2  3  1  0
  3  4  2  0
  5  4  1  0
  6  5  2  0
  7  2  1  0
  8  9  2  0
  9  7  1  0
  9 11  1  0
 10  9  1  0
  3 12  1  0
  5 13  1  0
 10 14  1  0
 11 15  1  0
 16 17  2  0
 17 18  1  0
 18 19  1  0
 18 20  2  0
 20 21  1  0
 21 22  1  0
 22 23  1  0
 22 24  2  0
 24 25  1  0
 25 26  2  0
 26 16  1  0
 25 20  1  0
 16 27  1  0
 21 28  1  0
 26 29  1  0
  1 17  1  0
M  ISO  6  12  14  13  14  14   3  15   3  19  15  23  14
M  END
>  <DihAtoms>  (1) 
5,0,16,15

>  <DihDeg>  (1) 
-123.27196629006636

$$$$
