
     RDKit          3D

 48 52  0  0  1  0  0  0  0  0999 V2000
   44.5610   35.5890   44.5500 C   0  0  0  0  0  0  0  0  0  0  0  0
   45.2130   35.5880   43.2990 C   0  0  0  0  0  0  0  0  0  0  0  0
   46.2850   34.6850   43.1220 C   0  0  0  0  0  0  0  0  0  0  0  0
   46.6370   33.8700   44.1520 N   0  0  0  0  0  0  0  0  0  0  0  0
   45.9920   33.9000   45.3300 C   0  0  0  0  0  0  0  0  0  0  0  0
   44.9460   34.7620   45.5390 N   0  0  0  0  0  0  0  0  0  0  0  0
   46.4240   32.9900   46.4240 C   0  0  2  0  0  0  0  0  0  0  0  0
   46.9570   31.7630   45.7330 C   0  0  0  0  0  0  0  0  0  0  0  0
   46.0920   30.5730   45.7710 C   0  0  0  0  0  0  0  0  0  0  0  0
   45.7970   30.3160   47.2390 C   0  0  0  0  0  0  0  0  0  0  0  0
   45.0090   31.3940   47.8340 C   0  0  0  0  0  0  0  0  0  0  0  0
   45.3670   32.7600   47.3830 C   0  0  0  0  0  0  0  0  0  0  0  0
   44.6710   33.9020   47.8880 N   0  0  0  0  0  0  0  0  0  0  0  0
   46.9810   34.6520   41.8470 C   0  0  0  0  0  0  0  0  0  0  0  0
   48.1230   35.3740   41.7060 C   0  0  0  0  0  0  0  0  0  0  0  0
   48.7600   35.3130   40.4650 C   0  0  0  0  0  0  0  0  0  0  0  0
   48.1750   34.5280   39.4950 C   0  0  0  0  0  0  0  0  0  0  0  0
   47.0290   33.8060   39.6350 C   0  0  0  0  0  0  0  0  0  0  0  0
   46.4530   33.9060   40.8730 N   0  0  0  0  0  0  0  0  0  0  0  0
   45.9920   31.6960   38.8640 C   0  0  0  0  0  0  0  0  0  0  0  0
   46.4150   32.9780   38.6060 C   0  0  0  0  0  0  0  0  0  0  0  0
   46.2540   33.4970   37.3390 C   0  0  0  0  0  0  0  0  0  0  0  0
   45.6780   32.7690   36.3060 C   0  0  0  0  0  0  0  0  0  0  0  0
   45.3990   33.0020   35.0070 N   0  0  0  0  0  0  0  0  0  0  0  0
   44.8260   31.8590   34.5560 C   0  0  0  0  0  0  0  0  0  0  0  0
   44.7460   30.9380   35.5300 N   0  0  0  0  0  0  0  0  0  0  0  0
   45.2670   31.4710   36.6290 C   0  0  0  0  0  0  0  0  0  0  0  0
   45.4210   30.9400   37.8870 C   0  0  0  0  0  0  0  0  0  0  0  0
   43.7216   36.2793   44.7202 H   0  0  0  0  0  0  0  0  0  0  0  0
   44.8984   36.2652   42.4913 H   0  0  0  0  0  0  0  0  0  0  0  0
   47.2164   33.4197   47.0544 H   0  0  0  0  0  0  0  0  0  0  0  0
   47.9137   31.4987   46.2073 H   0  0  0  0  0  0  0  0  0  0  0  0
   47.0406   32.0345   44.6703 H   0  0  0  0  0  0  0  0  0  0  0  0
   45.1583   30.7616   45.2209 H   0  0  0  0  0  0  0  0  0  0  0  0
   46.5787   29.7061   45.3002 H   0  0  0  0  0  0  0  0  0  0  0  0
   45.2362   29.3740   47.3293 H   0  0  0  0  0  0  0  0  0  0  0  0
   46.7562   30.2596   47.7745 H   0  0  0  0  0  0  0  0  0  0  0  0
   44.2080   31.2051   48.5639 H   0  0  0  0  0  0  0  0  0  0  0  0
   43.9113   33.7808   48.5729 H   0  0  0  0  0  0  0  0  0  0  0  0
   44.9292   34.8460   47.5669 H   0  0  0  0  0  0  0  0  0  0  0  0
   48.5272   35.9787   42.5312 H   0  0  0  0  0  0  0  0  0  0  0  0
   49.6894   35.8680   40.2698 H   0  0  0  0  0  0  0  0  0  0  0  0
   48.6798   34.4804   38.5188 H   0  0  0  0  0  0  0  0  0  0  0  0
   46.1166   31.2757   39.8729 H   0  0  0  0  0  0  0  0  0  0  0  0
   46.5937   34.5240   37.1392 H   0  0  0  0  0  0  0  0  0  0  0  0
   45.5820   33.8633   34.4725 H   0  0  0  0  0  0  0  0  0  0  0  0
   44.4724   31.7059   33.5257 H   0  0  0  0  0  0  0  0  0  0  0  0
   45.0862   29.9145   38.1021 H   0  0  0  0  0  0  0  0  0  0  0  0
  1  6  2  0
  2  1  1  0
  3  2  2  0
  3  4  1  0
  4  5  2  0
  5  6  1  0
  5  7  1  0
  7 12  1  0
  8  9  1  0
  8  7  1  0
  9 10  1  0
 10 11  1  0
 12 11  2  0
 12 13  1  0
 14  3  1  0
 15 14  2  0
 16 15  1  0
 17 18  1  0
 17 16  2  0
 18 19  2  0
 19 14  1  0
 21 20  2  0
 21 18  1  0
 22 21  1  0
 23 27  1  0
 23 22  2  0
 24 23  1  0
 25 24  1  0
 25 26  2  0
 26 27  1  0
 27 28  2  0
 28 20  1  0
  1 29  1  0
  2 30  1  0
  7 31  1  1
  8 32  1  0
  8 33  1  0
  9 34  1  0
  9 35  1  0
 10 36  1  0
 10 37  1  0
 11 38  1  0
 13 39  1  0
 13 40  1  0
 15 41  1  0
 16 42  1  0
 17 43  1  0
 20 44  1  0
 22 45  1  0
 24 46  1  0
 25 47  1  0
 28 48  1  0
M  END
>  <minimizedAffinity>  (1) 
-8.15503407

>  <minimizedRMSD>  (1) 
0.16561316

$$$$
