
     RDKit          3D

 50 55  0  0  1  0  0  0  0  0999 V2000
   46.4990   32.0980   45.5920 C   0  0  0  0  0  0  0  0  0  0  0  0
   46.7280   32.7800   44.3770 C   0  0  0  0  0  0  0  0  0  0  0  0
   47.6610   32.1040   43.6110 C   0  0  0  0  0  0  0  0  0  0  0  0
   48.2940   30.9470   43.9450 C   0  0  0  0  0  0  0  0  0  0  0  0
   48.0120   30.3510   45.1590 C   0  0  0  0  0  0  0  0  0  0  0  0
   47.1040   30.9250   45.9990 C   0  0  0  0  0  0  0  0  0  0  0  0
   48.8100   29.2260   45.2020 O   0  0  0  0  0  0  0  0  0  0  0  0
   49.5810   29.1250   44.0250 C   0  0  2  0  0  0  0  0  0  0  0  0
   49.2270   30.2400   43.2020 O   0  0  0  0  0  0  0  0  0  0  0  0
   49.4550   27.7460   42.0340 C   0  0  0  0  0  0  0  0  0  0  0  0
   49.1950   27.8280   43.3970 C   0  0  0  0  0  0  0  0  0  0  0  0
   48.6210   26.7730   44.0980 C   0  0  0  0  0  0  0  0  0  0  0  0
   48.2930   25.5990   43.4320 C   0  0  0  0  0  0  0  0  0  0  0  0
   47.7400   24.4700   43.8920 N   0  0  0  0  0  0  0  0  0  0  0  0
   47.6370   23.6450   42.8360 C   0  0  0  0  0  0  0  0  0  0  0  0
   48.1300   24.2890   41.7420 N   0  0  0  0  0  0  0  0  0  0  0  0
   48.5500   25.5230   42.0940 C   0  0  0  0  0  0  0  0  0  0  0  0
   49.1200   26.5600   41.3780 C   0  0  0  0  0  0  0  0  0  0  0  0
   45.1130   36.0320   43.4950 C   0  0  0  0  0  0  0  0  0  0  0  0
   45.9040   34.9110   43.2680 C   0  0  0  0  0  0  0  0  0  0  0  0
   46.0180   33.9900   44.2760 C   0  0  0  0  0  0  0  0  0  0  0  0
   45.3560   34.2100   45.4540 N   0  0  0  0  0  0  0  0  0  0  0  0
   44.5960   35.3050   45.6460 C   0  0  0  0  0  0  0  0  0  0  0  0
   44.4780   36.1990   44.6780 N   0  0  0  0  0  0  0  0  0  0  0  0
   46.5510   34.8020   42.0390 N   0  0  0  0  0  0  0  0  0  0  0  0
   47.8690   35.2650   41.8270 C   0  0  0  0  0  0  0  0  0  0  0  0
   48.4560   34.9190   40.4830 C   0  0  0  0  0  0  0  0  0  0  0  0
   48.1600   33.6410   39.9950 N   0  0  0  0  0  0  0  0  0  0  0  0
   46.8590   33.1900   40.2060 C   0  0  0  0  0  0  0  0  0  0  0  0
   45.9810   34.2330   40.8670 C   0  0  0  0  0  0  0  0  0  0  0  0
   45.7675   32.5444   46.2816 H   0  0  0  0  0  0  0  0  0  0  0  0
   47.9160   32.5454   42.6362 H   0  0  0  0  0  0  0  0  0  0  0  0
   46.8611   30.4684   46.9698 H   0  0  0  0  0  0  0  0  0  0  0  0
   50.6680   29.1439   44.1923 H   0  0  0  0  0  0  0  0  0  0  0  0
   49.9095   28.5874   41.4904 H   0  0  0  0  0  0  0  0  0  0  0  0
   48.4273   26.8679   45.1766 H   0  0  0  0  0  0  0  0  0  0  0  0
   47.4513   24.2731   44.8609 H   0  0  0  0  0  0  0  0  0  0  0  0
   47.2253   22.6251   42.8525 H   0  0  0  0  0  0  0  0  0  0  0  0
   49.3080   26.4511   40.2997 H   0  0  0  0  0  0  0  0  0  0  0  0
   45.0026   36.7899   42.7055 H   0  0  0  0  0  0  0  0  0  0  0  0
   44.0757   35.4554   46.6034 H   0  0  0  0  0  0  0  0  0  0  0  0
   47.8662   36.3605   41.9266 H   0  0  0  0  0  0  0  0  0  0  0  0
   48.4968   34.7605   42.5762 H   0  0  0  0  0  0  0  0  0  0  0  0
   48.0824   35.6527   39.7536 H   0  0  0  0  0  0  0  0  0  0  0  0
   49.5470   34.9381   40.6220 H   0  0  0  0  0  0  0  0  0  0  0  0
   48.8013   32.9748   40.4485 H   0  0  0  0  0  0  0  0  0  0  0  0
   46.4173   32.9217   39.2350 H   0  0  0  0  0  0  0  0  0  0  0  0
   46.9122   32.3230   40.8809 H   0  0  0  0  0  0  0  0  0  0  0  0
   45.7968   35.0407   40.1433 H   0  0  0  0  0  0  0  0  0  0  0  0
   45.0551   33.7249   41.1745 H   0  0  0  0  0  0  0  0  0  0  0  0
  1  6  2  0
  2  1  1  0
  3  4  1  0
  3  2  2  0
  4  5  2  0
  5  7  1  0
  5  6  1  0
  8  7  1  0
  9  4  1  0
  9  8  1  0
 10 11  2  0
 11  8  1  0
 11 12  1  0
 13 14  1  0
 13 12  2  0
 15 14  1  0
 16 17  1  0
 16 15  2  0
 17 13  1  0
 18 10  1  0
 18 17  2  0
 19 24  2  0
 20 19  1  0
 20 21  2  0
 21  2  1  0
 21 22  1  0
 22 23  2  0
 24 23  1  0
 25 20  1  0
 26 25  1  0
 27 26  1  0
 28 29  1  0
 28 27  1  0
 29 30  1  0
 30 25  1  0
  1 31  1  0
  3 32  1  0
  6 33  1  0
  8 34  1  1
 10 35  1  0
 12 36  1  0
 14 37  1  0
 15 38  1  0
 18 39  1  0
 19 40  1  0
 23 41  1  0
 26 42  1  0
 26 43  1  0
 27 44  1  0
 27 45  1  0
 28 46  1  0
 29 47  1  0
 29 48  1  0
 30 49  1  0
 30 50  1  0
M  ISO  8  31  14  32  14  33  14  34  13  35  14  36  14  37   9  38  14
M  ISO  8  39  14  40  14  41  14  42  13  43  13  44  13  45  13  46   5
M  ISO  4  47  13  48  13  49  13  50  13
M  END
>  <minimizedAffinity>  (1) 
-4.89756107

>  <minimizedRMSD>  (1) 
0.743432701

$$$$
