
     RDKit          3D

 29 31  0  0  0  0  0  0  0  0999 V2000
   46.3222   35.1497   42.5650 C   0  0  0  0  0  0  0  0  0  0  0  0
   46.8667   34.0818   43.2502 C   0  0  0  0  0  0  0  0  0  0  0  0
   46.3394   33.8081   44.5405 C   0  0  0  0  0  0  0  0  0  0  0  0
   45.3584   34.5742   45.0488 N   0  0  0  0  0  0  0  0  0  0  0  0
   44.8548   35.6183   44.3478 C   0  0  0  0  0  0  0  0  0  0  0  0
   45.3414   35.9011   43.1059 N   0  0  0  0  0  0  0  0  0  0  0  0
   47.8645   33.4167   42.5934 O   0  0  0  0  0  0  0  0  0  0  0  0
   50.3886   33.1860   41.8392 O   0  0  0  0  0  0  0  0  0  0  0  0
   49.3273   34.1985   42.1597 P   0  0  0  0  0  0  0  0  0  0  0  0
   49.0873   35.1417   40.7764 O   0  0  0  0  0  0  0  0  0  0  0  0
   49.8934   35.2218   43.3632 O   0  0  0  0  0  0  0  0  0  0  0  0
   46.8407   32.9535   44.9680 H   0  0  0  0  0  0  0  0  0  0  0  0
   44.0806   36.0698   44.9844 H   0  0  0  0  0  0  0  0  0  0  0  0
   49.8510   35.7726   40.7423 H   0  0  0  0  0  0  0  0  0  0  0  0
   50.1100   36.1301   43.0347 H   0  0  0  0  0  0  0  0  0  0  0  0
   45.8714   34.9007   40.2853 C   0  0  0  0  0  0  0  0  0  0  0  0
   46.4054   35.7767   41.2522 C   0  0  0  0  0  0  0  0  0  0  0  0
   46.9045   37.0191   40.9242 C   0  0  0  0  0  0  0  0  0  0  0  0
   47.2801   37.5797   41.7683 H   0  0  0  0  0  0  0  0  0  0  0  0
   46.8563   37.3744   39.5719 C   0  0  0  0  0  0  0  0  0  0  0  0
   47.2945   38.5409   39.0607 N   0  0  0  0  0  0  0  0  0  0  0  0
   47.0386   38.4159   37.7390 C   0  0  0  0  0  0  0  0  0  0  0  0
   47.2218   39.1036   36.9437 H   0  0  0  0  0  0  0  0  0  0  0  0
   46.4654   37.2144   37.4615 N   0  0  0  0  0  0  0  0  0  0  0  0
   46.3441   36.5387   38.6307 C   0  0  0  0  0  0  0  0  0  0  0  0
   45.8409   35.2934   38.9421 C   0  0  0  0  0  0  0  0  0  0  0  0
   45.4601   33.9156   40.4449 H   0  0  0  0  0  0  0  0  0  0  0  0
   47.7302   39.3653   39.5315 H   0  0  0  0  0  0  0  0  0  0  0  0
   45.4467   34.6741   38.1492 H   0  0  0  0  0  0  0  0  0  0  0  0
  1  6  1  0
  1  2  2  0
  2  3  1  0
  3  4  2  0
  5  4  1  0
  6  5  2  0
  7  2  1  0
  8  9  2  0
  9  7  1  0
  9 11  1  0
 10  9  1  0
  3 12  1  0
  5 13  1  0
 10 14  1  0
 11 15  1  0
 16 17  2  0
 17 18  1  0
 18 19  1  0
 18 20  2  0
 20 21  1  0
 21 22  1  0
 22 23  1  0
 22 24  2  0
 24 25  1  0
 25 26  2  0
 26 16  1  0
 25 20  1  0
 16 27  1  0
 21 28  1  0
 26 29  1  0
  1 17  1  0
M  ISO  6  12  14  13  14  14   3  15   3  19  15  23  14
M  END
>  <DihAtoms>  (1) 
5,0,16,15

>  <DihDeg>  (1) 
-123.27196629006636

$$$$
