
     RDKit          3D

 29 31  0  0  0  0  0  0  0  0999 V2000
   46.3222   35.1497   42.5650 C   0  0  0  0  0  0  0  0  0  0  0  0
   46.8667   34.0818   43.2502 C   0  0  0  0  0  0  0  0  0  0  0  0
   46.3394   33.8081   44.5405 C   0  0  0  0  0  0  0  0  0  0  0  0
   45.3584   34.5742   45.0488 N   0  0  0  0  0  0  0  0  0  0  0  0
   44.8548   35.6183   44.3478 C   0  0  0  0  0  0  0  0  0  0  0  0
   45.3414   35.9011   43.1059 N   0  0  0  0  0  0  0  0  0  0  0  0
   47.8645   33.4167   42.5934 O   0  0  0  0  0  0  0  0  0  0  0  0
   50.3886   33.1860   41.8392 O   0  0  0  0  0  0  0  0  0  0  0  0
   49.3273   34.1985   42.1597 P   0  0  0  0  0  0  0  0  0  0  0  0
   49.0873   35.1417   40.7764 O   0  0  0  0  0  0  0  0  0  0  0  0
   49.8934   35.2218   43.3632 O   0  0  0  0  0  0  0  0  0  0  0  0
   46.8407   32.9535   44.9680 H   0  0  0  0  0  0  0  0  0  0  0  0
   44.0806   36.0698   44.9844 H   0  0  0  0  0  0  0  0  0  0  0  0
   49.8510   35.7726   40.7423 H   0  0  0  0  0  0  0  0  0  0  0  0
   50.1100   36.1301   43.0347 H   0  0  0  0  0  0  0  0  0  0  0  0
   45.4128   36.7726   41.1503 C   0  0  0  0  0  0  0  0  0  0  0  0
   46.4054   35.7767   41.2522 C   0  0  0  0  0  0  0  0  0  0  0  0
   47.2827   35.5040   40.2245 C   0  0  0  0  0  0  0  0  0  0  0  0
   47.9884   34.7158   40.4453 H   0  0  0  0  0  0  0  0  0  0  0  0
   47.1407   36.2697   39.0623 C   0  0  0  0  0  0  0  0  0  0  0  0
   47.9009   36.1495   37.9570 N   0  0  0  0  0  0  0  0  0  0  0  0
   47.3897   37.0853   37.1258 C   0  0  0  0  0  0  0  0  0  0  0  0
   47.6837   37.3458   36.1334 H   0  0  0  0  0  0  0  0  0  0  0  0
   46.3557   37.7480   37.7094 N   0  0  0  0  0  0  0  0  0  0  0  0
   46.1879   37.2322   38.9521 C   0  0  0  0  0  0  0  0  0  0  0  0
   45.3032   37.5175   39.9703 C   0  0  0  0  0  0  0  0  0  0  0  0
   44.6859   37.0565   41.8959 H   0  0  0  0  0  0  0  0  0  0  0  0
   48.6980   35.5069   37.7500 H   0  0  0  0  0  0  0  0  0  0  0  0
   44.5673   38.2950   39.8228 H   0  0  0  0  0  0  0  0  0  0  0  0
  1  6  1  0
  1  2  2  0
  2  3  1  0
  3  4  2  0
  5  4  1  0
  6  5  2  0
  7  2  1  0
  8  9  2  0
  9  7  1  0
  9 11  1  0
 10  9  1  0
  3 12  1  0
  5 13  1  0
 10 14  1  0
 11 15  1  0
 16 17  2  0
 17 18  1  0
 18 19  1  0
 18 20  2  0
 20 21  1  0
 21 22  1  0
 22 23  1  0
 22 24  2  0
 24 25  1  0
 25 26  2  0
 26 16  1  0
 25 20  1  0
 16 27  1  0
 21 28  1  0
 26 29  1  0
  1 17  1  0
M  ISO  6  12  14  13  14  14   3  15   3  19  15  23  14
M  END
>  <DihAtoms>  (1) 
5,0,16,15

>  <DihDeg>  (1) 
-123.27196629006636

$$$$
