
     RDKit          3D

 33 36  0  0  0  0  0  0  0  0999 V2000
   44.4651   35.9662   44.7897 C   0  0  0  0  0  0  0  0  0  0  0  0
   45.1599   35.8846   43.5768 C   0  0  0  0  0  0  0  0  0  0  0  0
   46.0704   34.8552   43.3074 C   0  0  0  0  0  0  0  0  0  0  0  0
   46.2277   33.9478   44.3047 N   0  0  0  0  0  0  0  0  0  0  0  0
   45.5523   34.0379   45.4681 C   0  0  0  0  0  0  0  0  0  0  0  0
   44.6853   35.0226   45.7182 N   0  0  0  0  0  0  0  0  0  0  0  0
   44.7293   33.1942   41.2352 Cl  0  0  0  0  0  0  0  0  0  0  0  0
   46.2698   34.0068   41.0517 C   0  0  0  0  0  0  0  0  0  0  0  0
   46.8015   34.7467   42.0637 C   0  0  0  0  0  0  0  0  0  0  0  0
   48.0111   35.3401   41.8150 C   0  0  0  0  0  0  0  0  0  0  0  0
   48.6763   35.2199   40.6333 C   0  0  0  0  0  0  0  0  0  0  0  0
   48.1319   34.4697   39.6141 C   0  0  0  0  0  0  0  0  0  0  0  0
   46.9145   33.8634   39.8430 C   0  0  0  0  0  0  0  0  0  0  0  0
   43.7891   36.8134   44.8711 H   0  0  0  0  0  0  0  0  0  0  0  0
   45.0323   36.6064   42.7885 H   0  0  0  0  0  0  0  0  0  0  0  0
   45.7199   33.2729   46.2418 H   0  0  0  0  0  0  0  0  0  0  0  0
   48.4574   35.9385   42.6116 H   0  0  0  0  0  0  0  0  0  0  0  0
   49.6275   35.7219   40.5203 H   0  0  0  0  0  0  0  0  0  0  0  0
   48.6819   34.4005   38.7076 H   0  0  0  0  0  0  0  0  0  0  0  0
   46.3678   33.4793   37.4054 C   0  0  0  0  0  0  0  0  0  0  0  0
   46.3911   33.0836   38.7265 C   0  0  0  0  0  0  0  0  0  0  0  0
   45.8612   31.8183   39.0027 C   0  0  0  0  0  0  0  0  0  0  0  0
   45.8228   31.3924   40.0094 H   0  0  0  0  0  0  0  0  0  0  0  0
   45.3437   31.0021   38.0312 C   0  0  0  0  0  0  0  0  0  0  0  0
   44.7820   29.7815   37.9666 N   0  0  0  0  0  0  0  0  0  0  0  0
   44.4396   29.4455   36.7225 C   0  0  0  0  0  0  0  0  0  0  0  0
   43.9813   28.5797   36.2850 H   0  0  0  0  0  0  0  0  0  0  0  0
   44.7933   30.4969   35.9279 N   0  0  0  0  0  0  0  0  0  0  0  0
   45.3386   31.4335   36.7236 C   0  0  0  0  0  0  0  0  0  0  0  0
   45.8514   32.6732   36.4124 C   0  0  0  0  0  0  0  0  0  0  0  0
   46.7710   34.4470   37.1810 H   0  0  0  0  0  0  0  0  0  0  0  0
   44.6237   29.1544   38.7854 H   0  0  0  0  0  0  0  0  0  0  0  0
   45.8672   33.0543   35.3891 H   0  0  0  0  0  0  0  0  0  0  0  0
  1  6  2  0
  2  1  1  0
  3  2  2  0
  3  4  1  0
  4  5  2  0
  5  6  1  0
  8  7  1  0
  8  9  2  0
  9  3  1  0
 10  9  1  0
 11 10  2  0
 12 13  2  0
 12 11  1  0
 13  8  1  0
  1 14  1  0
  2 15  1  0
  5 16  1  0
 10 17  1  0
 11 18  1  0
 12 19  1  0
 20 21  2  0
 21 22  1  0
 22 23  1  0
 22 24  2  0
 24 25  1  0
 25 26  1  0
 26 27  1  0
 26 28  2  0
 28 29  1  0
 29 30  2  0
 30 20  1  0
 29 24  1  0
 20 31  1  0
 25 32  1  0
 30 33  1  0
 13 21  1  0
M  ISO  8  14  14  15  14  16  14  17  14  18  14  19  14  23  15  27  14
M  END
>  <DihAtoms>  (1) 
11,12,20,19

>  <DihDeg>  (1) 
-134.99867413764795

$$$$
