
     RDKit          3D

 37 40  0  0  1  0  0  0  0  0999 V2000
   43.7400   34.2160   41.3070 N   0  0  0  0  0  0  0  0  0  0  0  0
   43.4680   32.9080   40.8070 C   0  0  2  0  0  0  0  0  0  0  0  0
   42.9790   32.9370   39.3780 C   0  0  0  0  0  0  0  0  0  0  0  0
   41.8880   33.8450   39.2070 N   0  0  0  0  0  0  0  0  0  0  0  0
   42.0860   35.1240   39.7700 C   0  0  0  0  0  0  0  0  0  0  0  0
   43.4520   35.3040   40.3940 C   0  0  0  0  0  0  0  0  0  0  0  0
   41.1420   32.3210   41.5640 C   0  0  0  0  0  0  0  0  0  0  0  0
   42.5070   32.1020   41.5640 C   0  0  0  0  0  0  0  0  0  0  0  0
   42.8440   31.0010   42.3650 C   0  0  0  0  0  0  0  0  0  0  0  0
   41.9650   30.2210   43.0670 C   0  0  0  0  0  0  0  0  0  0  0  0
   42.1600   29.1520   43.8600 N   0  0  0  0  0  0  0  0  0  0  0  0
   40.9490   28.7680   44.3000 C   0  0  0  0  0  0  0  0  0  0  0  0
   40.0290   29.5940   43.7820 N   0  0  0  0  0  0  0  0  0  0  0  0
   40.6240   30.5110   43.0090 C   0  0  0  0  0  0  0  0  0  0  0  0
   40.2010   31.5790   42.2460 C   0  0  0  0  0  0  0  0  0  0  0  0
   43.9560   35.5240   43.3250 C   0  0  0  0  0  0  0  0  0  0  0  0
   44.2620   34.3680   42.6220 C   0  0  0  0  0  0  0  0  0  0  0  0
   45.0500   33.4320   43.2550 C   0  0  0  0  0  0  0  0  0  0  0  0
   45.4860   33.6690   44.5110 N   0  0  0  0  0  0  0  0  0  0  0  0
   45.1750   34.7990   45.1730 C   0  0  0  0  0  0  0  0  0  0  0  0
   44.4160   35.7100   44.5760 N   0  0  0  0  0  0  0  0  0  0  0  0
   44.4522   32.4266   40.9052 H   0  0  0  0  0  0  0  0  0  0  0  0
   43.8073   33.2490   38.7248 H   0  0  0  0  0  0  0  0  0  0  0  0
   42.6273   31.9279   39.1171 H   0  0  0  0  0  0  0  0  0  0  0  0
   41.7242   33.9619   38.1968 H   0  0  0  0  0  0  0  0  0  0  0  0
   41.9638   35.8762   38.9768 H   0  0  0  0  0  0  0  0  0  0  0  0
   41.3450   35.2415   40.5744 H   0  0  0  0  0  0  0  0  0  0  0  0
   44.2132   35.3216   39.6001 H   0  0  0  0  0  0  0  0  0  0  0  0
   43.4657   36.2511   40.9534 H   0  0  0  0  0  0  0  0  0  0  0  0
   40.7722   33.1657   40.9642 H   0  0  0  0  0  0  0  0  0  0  0  0
   43.9105   30.7410   42.4354 H   0  0  0  0  0  0  0  0  0  0  0  0
   43.0634   28.7122   44.0865 H   0  0  0  0  0  0  0  0  0  0  0  0
   40.7474   27.9201   44.9711 H   0  0  0  0  0  0  0  0  0  0  0  0
   39.1329   31.8342   42.1827 H   0  0  0  0  0  0  0  0  0  0  0  0
   43.3305   36.2971   42.8548 H   0  0  0  0  0  0  0  0  0  0  0  0
   45.3221   32.4983   42.7411 H   0  0  0  0  0  0  0  0  0  0  0  0
   45.5450   34.9654   46.1955 H   0  0  0  0  0  0  0  0  0  0  0  0
  1 17  1  0
  2  1  1  0
  2  8  1  0
  3  2  1  0
  4  3  1  0
  4  5  1  0
  5  6  1  0
  6  1  1  0
  7  8  2  0
  7 15  1  0
  8  9  1  0
  9 10  2  0
 10 11  1  0
 11 12  1  0
 13 12  2  0
 14 10  1  0
 14 13  1  0
 15 14  2  0
 16 21  2  0
 17 18  2  0
 17 16  1  0
 18 19  1  0
 19 20  2  0
 21 20  1  0
  2 22  1  6
  3 23  1  0
  3 24  1  0
  4 25  1  0
  5 26  1  0
  5 27  1  0
  6 28  1  0
  6 29  1  0
  7 30  1  0
  9 31  1  0
 11 32  1  0
 12 33  1  0
 15 34  1  0
 16 35  1  0
 18 36  1  0
 20 37  1  0
M  ISO  8  22  13  23  13  24  13  25   5  26  13  27  13  28  13  29  13
M  ISO  8  30  14  31  14  32   9  33  14  34  14  35  14  36  14  37  14
M  END
>  <minimizedAffinity>  (1) 
-4.67212534

>  <minimizedRMSD>  (1) 
1.73156393

$$$$
