
     RDKit          3D

 50 54  0  0  0  0  0  0  0  0999 V2000
   43.7260   33.2140   41.0840 C   0  0  0  0  0  0  0  0  0  0  0  0
   42.9490   33.1820   42.1110 O   0  0  0  0  0  0  0  0  0  0  0  0
   44.9950   33.7960   41.3760 N   0  0  0  0  0  0  0  0  0  0  0  0
   45.0020   34.2290   42.7610 C   0  0  0  0  0  0  0  0  0  0  0  0
   44.4790   35.3830   43.2530 C   0  0  0  0  0  0  0  0  0  0  0  0
   44.5860   35.6170   44.5990 C   0  0  0  0  0  0  0  0  0  0  0  0
   45.2040   34.6830   45.3510 N   0  0  0  0  0  0  0  0  0  0  0  0
   45.7180   33.5420   44.8440 C   0  0  0  0  0  0  0  0  0  0  0  0
   45.6170   33.3030   43.5160 N   0  0  0  0  0  0  0  0  0  0  0  0
   46.6410   32.9270   47.0300 C   0  0  0  0  0  0  0  0  0  0  0  0
   46.3850   32.5580   45.7250 C   0  0  0  0  0  0  0  0  0  0  0  0
   46.7210   31.3170   45.2060 C   0  0  0  0  0  0  0  0  0  0  0  0
   47.3410   30.4500   46.0860 C   0  0  0  0  0  0  0  0  0  0  0  0
   47.7520   29.1880   45.7810 N   0  0  0  0  0  0  0  0  0  0  0  0
   48.2950   28.7320   46.9480 C   0  0  0  0  0  0  0  0  0  0  0  0
   48.2190   29.6780   47.9250 N   0  0  0  0  0  0  0  0  0  0  0  0
   47.6140   30.7790   47.3940 C   0  0  0  0  0  0  0  0  0  0  0  0
   47.2700   32.0220   47.8900 C   0  0  0  0  0  0  0  0  0  0  0  0
   43.8620   36.2570   42.3250 N   0  0  0  0  0  0  0  0  0  0  0  0
   43.4370   32.7520   39.7980 O   0  0  0  0  0  0  0  0  0  0  0  0
   41.5780   30.5530   40.5380 Cl  0  0  0  0  0  0  0  0  0  0  0  0
   41.1910   31.9820   39.5980 C   0  0  0  0  0  0  0  0  0  0  0  0
   42.1380   32.9620   39.3030 C   0  0  0  0  0  0  0  0  0  0  0  0
   41.7880   34.0620   38.5650 C   0  0  0  0  0  0  0  0  0  0  0  0
   40.5120   34.2670   38.0800 C   0  0  0  0  0  0  0  0  0  0  0  0
   39.5390   33.2890   38.3670 C   0  0  0  0  0  0  0  0  0  0  0  0
   37.8900   33.4640   37.7920 Cl  0  0  0  0  0  0  0  0  0  0  0  0
   39.9290   32.1960   39.1120 C   0  0  0  0  0  0  0  0  0  0  0  0
   38.5080   32.3420   41.4300 F   0  0  0  0  0  0  0  0  0  0  0  0
   38.2230   31.2800   40.6030 C   0  0  0  0  0  0  0  0  0  0  0  0
   38.9300   31.1780   39.4150 C   0  0  0  0  0  0  0  0  0  0  0  0
   38.6080   30.0840   38.6050 C   0  0  0  0  0  0  0  0  0  0  0  0
   37.6340   29.1910   39.0200 C   0  0  0  0  0  0  0  0  0  0  0  0
   36.9600   29.3540   40.2290 C   0  0  0  0  0  0  0  0  0  0  0  0
   37.2480   30.4280   41.0660 C   0  0  0  0  0  0  0  0  0  0  0  0
   45.7774   33.8930   40.7131 H   0  0  0  0  0  0  0  0  0  0  0  0
   44.1818   36.5349   45.0507 H   0  0  0  0  0  0  0  0  0  0  0  0
   46.3524   33.9253   47.3906 H   0  0  0  0  0  0  0  0  0  0  0  0
   46.5082   31.0406   44.1628 H   0  0  0  0  0  0  0  0  0  0  0  0
   47.6720   28.6934   44.8811 H   0  0  0  0  0  0  0  0  0  0  0  0
   48.7355   27.7329   47.0814 H   0  0  0  0  0  0  0  0  0  0  0  0
   47.4855   32.2923   48.9343 H   0  0  0  0  0  0  0  0  0  0  0  0
   43.4506   37.1442   42.6482 H   0  0  0  0  0  0  0  0  0  0  0  0
   43.8247   36.0054   41.3269 H   0  0  0  0  0  0  0  0  0  0  0  0
   42.5590   34.8162   38.3491 H   0  0  0  0  0  0  0  0  0  0  0  0
   40.2636   35.1619   37.4905 H   0  0  0  0  0  0  0  0  0  0  0  0
   39.1245   29.9340   37.6455 H   0  0  0  0  0  0  0  0  0  0  0  0
   37.3862   28.3317   38.3795 H   0  0  0  0  0  0  0  0  0  0  0  0
   36.1913   28.6251   40.5252 H   0  0  0  0  0  0  0  0  0  0  0  0
   36.7341   30.5837   42.0261 H   0  0  0  0  0  0  0  0  0  0  0  0
  1  3  1  0
  1  2  2  0
  3  4  1  0
  4  5  2  0
  4  9  1  0
  5  6  1  0
  6  7  2  0
  8  7  1  0
  8 11  1  0
  9  8  2  0
 10 18  2  0
 11 10  1  0
 12 11  2  0
 12 13  1  0
 13 17  2  0
 14 13  1  0
 14 15  1  0
 15 16  2  0
 17 18  1  0
 17 16  1  0
 19  5  1  0
 20  1  1  0
 22 21  1  0
 23 22  2  0
 23 20  1  0
 24 23  1  0
 25 26  1  0
 25 24  2  0
 26 28  2  0
 27 26  1  0
 28 31  1  0
 28 22  1  0
 30 35  2  0
 30 29  1  0
 31 30  1  0
 32 33  1  0
 32 31  2  0
 33 34  2  0
 34 35  1  0
  3 36  1  0
  6 37  1  0
 10 38  1  0
 12 39  1  0
 14 40  1  0
 15 41  1  0
 18 42  1  0
 19 43  1  0
 19 44  1  0
 24 45  1  0
 25 46  1  0
 32 47  1  0
 33 48  1  0
 34 49  1  0
 35 50  1  0
M  END
>  <minimizedAffinity>  (1) 
-7.56686163

>  <minimizedRMSD>  (1) 
2.76788688

$$$$
