
     RDKit          3D

 34 36  0  0  0  0  0  0  0  0999 V2000
   48.0924   32.9141   41.9151 O   0  0  0  0  0  0  0  0  0  0  0  0
   47.1976   34.0386   41.3285 P   0  0  2  0  0  0  0  0  0  0  0  0
   45.6007   33.8222   41.9164 O   0  0  0  0  0  0  0  0  0  0  0  0
   44.3677   35.9141   44.6343 C   0  0  0  0  0  0  0  0  0  0  0  0
   44.6675   35.4667   43.3276 C   0  0  0  0  0  0  0  0  0  0  0  0
   45.3191   34.2309   43.2036 C   0  0  0  0  0  0  0  0  0  0  0  0
   45.6190   33.5463   44.3223 N   0  0  0  0  0  0  0  0  0  0  0  0
   45.3169   34.0046   45.5580 C   0  0  0  0  0  0  0  0  0  0  0  0
   44.6959   35.1788   45.7247 N   0  0  0  0  0  0  0  0  0  0  0  0
   47.1657   33.9397   39.6718 O   0  0  0  0  0  0  0  0  0  0  0  0
   46.5620   33.0126   38.8744 C   0  0  0  0  0  0  0  0  0  0  0  0
   45.8925   33.4811   37.7844 O   0  0  0  0  0  0  0  0  0  0  0  0
   47.7935   35.4695   41.9156 O   0  0  0  0  0  0  0  0  0  0  0  0
   49.0479   35.7735   41.4055 C   0  0  0  0  0  0  0  0  0  0  0  0
   49.4592   37.0536   41.7357 F   0  0  0  0  0  0  0  0  0  0  0  0
   49.9496   34.8244   41.7677 F   0  0  0  0  0  0  0  0  0  0  0  0
   48.9187   35.7502   40.0224 F   0  0  0  0  0  0  0  0  0  0  0  0
   43.8683   36.8649   44.7024 H   0  0  0  0  0  0  0  0  0  0  0  0
   44.3919   36.0749   42.4967 H   0  0  0  0  0  0  0  0  0  0  0  0
   45.6061   33.3679   46.4008 H   0  0  0  0  0  0  0  0  0  0  0  0
   47.1030   30.8728   37.7948 C   0  0  0  0  0  0  0  0  0  0  0  0
   46.2862   31.5585   38.6255 C   0  0  0  0  0  0  0  0  0  0  0  0
   45.2585   30.8304   39.2183 C   0  0  0  0  0  0  0  0  0  0  0  0
   44.6290   31.4564   39.8862 H   0  0  0  0  0  0  0  0  0  0  0  0
   44.9376   29.5134   39.0939 C   0  0  0  0  0  0  0  0  0  0  0  0
   43.9910   28.7208   39.6053 N   0  0  0  0  0  0  0  0  0  0  0  0
   44.2793   27.5120   39.0377 C   0  0  0  0  0  0  0  0  0  0  0  0
   43.6813   26.6145   39.2482 H   0  0  0  0  0  0  0  0  0  0  0  0
   45.3603   27.5977   38.2208 N   0  0  0  0  0  0  0  0  0  0  0  0
   45.7955   28.8694   38.2433 C   0  0  0  0  0  0  0  0  0  0  0  0
   46.8286   29.5049   37.6199 C   0  0  0  0  0  0  0  0  0  0  0  0
   47.9500   31.1984   37.2215 H   0  0  0  0  0  0  0  0  0  0  0  0
   43.2390   28.9821   40.2648 H   0  0  0  0  0  0  0  0  0  0  0  0
   47.4714   28.9408   36.9605 H   0  0  0  0  0  0  0  0  0  0  0  0
  2  1  2  0
  2  3  1  1
  2 13  1  0
  3  6  1  0
  4  9  2  0
  5  4  1  0
  6  5  2  0
  6  7  1  0
  7  8  2  0
  8  9  1  0
 10  2  1  0
 11 10  1  0
 12 11  2  0
 14 16  1  0
 14 15  1  0
 14 13  1  0
 17 14  1  0
  4 18  1  0
  5 19  1  0
  8 20  1  0
 21 22  2  0
 22 23  1  0
 23 24  1  0
 23 25  2  0
 25 26  1  0
 26 27  1  0
 27 28  1  0
 27 29  2  0
 29 30  1  0
 30 31  2  0
 31 21  1  0
 30 25  1  0
 21 32  1  0
 26 33  1  0
 31 34  1  0
 11 22  1  0
M  ISO  5  18  14  19  14  20  14  24  15  28  14
M  END
>  <DihAtoms>  (1) 
9,10,21,20

>  <DihDeg>  (1) 
176.0560682872691

$$$$
