
     RDKit          3D

 34 36  0  0  0  0  0  0  0  0999 V2000
   48.0924   32.9141   41.9151 O   0  0  0  0  0  0  0  0  0  0  0  0
   47.1976   34.0386   41.3285 P   0  0  2  0  0  0  0  0  0  0  0  0
   45.6007   33.8222   41.9164 O   0  0  0  0  0  0  0  0  0  0  0  0
   44.3677   35.9141   44.6343 C   0  0  0  0  0  0  0  0  0  0  0  0
   44.6675   35.4667   43.3276 C   0  0  0  0  0  0  0  0  0  0  0  0
   45.3191   34.2309   43.2036 C   0  0  0  0  0  0  0  0  0  0  0  0
   45.6190   33.5463   44.3223 N   0  0  0  0  0  0  0  0  0  0  0  0
   45.3169   34.0046   45.5580 C   0  0  0  0  0  0  0  0  0  0  0  0
   44.6959   35.1788   45.7247 N   0  0  0  0  0  0  0  0  0  0  0  0
   47.1657   33.9397   39.6718 O   0  0  0  0  0  0  0  0  0  0  0  0
   46.5620   33.0126   38.8744 C   0  0  0  0  0  0  0  0  0  0  0  0
   45.8925   33.4811   37.7844 O   0  0  0  0  0  0  0  0  0  0  0  0
   47.7935   35.4695   41.9156 O   0  0  0  0  0  0  0  0  0  0  0  0
   49.0479   35.7735   41.4055 C   0  0  0  0  0  0  0  0  0  0  0  0
   49.4592   37.0536   41.7357 F   0  0  0  0  0  0  0  0  0  0  0  0
   49.9496   34.8244   41.7677 F   0  0  0  0  0  0  0  0  0  0  0  0
   48.9187   35.7502   40.0224 F   0  0  0  0  0  0  0  0  0  0  0  0
   43.8683   36.8649   44.7024 H   0  0  0  0  0  0  0  0  0  0  0  0
   44.3919   36.0749   42.4967 H   0  0  0  0  0  0  0  0  0  0  0  0
   45.6061   33.3679   46.4008 H   0  0  0  0  0  0  0  0  0  0  0  0
   46.8922   30.9492   37.5820 C   0  0  0  0  0  0  0  0  0  0  0  0
   46.2862   31.5585   38.6255 C   0  0  0  0  0  0  0  0  0  0  0  0
   45.4685   30.7566   39.4167 C   0  0  0  0  0  0  0  0  0  0  0  0
   45.0048   31.3224   40.2528 H   0  0  0  0  0  0  0  0  0  0  0  0
   45.1753   29.4319   39.3067 C   0  0  0  0  0  0  0  0  0  0  0  0
   44.4178   28.5730   39.9955 N   0  0  0  0  0  0  0  0  0  0  0  0
   44.5983   27.4048   39.3106 C   0  0  0  0  0  0  0  0  0  0  0  0
   44.1060   26.4710   39.6158 H   0  0  0  0  0  0  0  0  0  0  0  0
   45.4349   27.5776   38.2553 N   0  0  0  0  0  0  0  0  0  0  0  0
   45.8145   28.8670   38.2359 C   0  0  0  0  0  0  0  0  0  0  0  0
   46.6332   29.5781   37.4088 C   0  0  0  0  0  0  0  0  0  0  0  0
   47.5549   31.3397   36.8335 H   0  0  0  0  0  0  0  0  0  0  0  0
   43.8471   28.7692   40.8348 H   0  0  0  0  0  0  0  0  0  0  0  0
   47.1096   29.0744   36.5809 H   0  0  0  0  0  0  0  0  0  0  0  0
  2  1  2  0
  2  3  1  1
  2 13  1  0
  3  6  1  0
  4  9  2  0
  5  4  1  0
  6  5  2  0
  6  7  1  0
  7  8  2  0
  8  9  1  0
 10  2  1  0
 11 10  1  0
 12 11  2  0
 14 16  1  0
 14 15  1  0
 14 13  1  0
 17 14  1  0
  4 18  1  0
  5 19  1  0
  8 20  1  0
 21 22  2  0
 22 23  1  0
 23 24  1  0
 23 25  2  0
 25 26  1  0
 26 27  1  0
 27 28  1  0
 27 29  2  0
 29 30  1  0
 30 31  2  0
 31 21  1  0
 30 25  1  0
 21 32  1  0
 26 33  1  0
 31 34  1  0
 11 22  1  0
M  ISO  5  18  14  19  14  20  14  24  15  28  14
M  END
>  <DihAtoms>  (1) 
9,10,21,20

>  <DihDeg>  (1) 
176.0560682872691

$$$$
