
     RDKit          3D

 33 36  0  0  0  0  0  0  0  0999 V2000
   46.0660   34.1680   41.0340 C   0  0  0  0  0  0  0  0  0  0  0  0
   46.6040   34.8370   42.1290 C   0  0  0  0  0  0  0  0  0  0  0  0
   47.9320   35.2810   42.0010 C   0  0  0  0  0  0  0  0  0  0  0  0
   48.5890   35.0290   40.8290 N   0  0  0  0  0  0  0  0  0  0  0  0
   48.0250   34.3840   39.8140 C   0  0  0  0  0  0  0  0  0  0  0  0
   46.7590   33.9480   39.9050 N   0  0  0  0  0  0  0  0  0  0  0  0
   45.8080   35.0450   43.3180 C   0  0  0  0  0  0  0  0  0  0  0  0
   45.0720   36.2070   43.5350 C   0  0  0  0  0  0  0  0  0  0  0  0
   44.4830   35.9780   44.7620 C   0  0  0  0  0  0  0  0  0  0  0  0
   44.8350   34.7610   45.2580 N   0  0  0  0  0  0  0  0  0  0  0  0
   45.6350   34.2250   44.3620 N   0  0  0  0  0  0  0  0  0  0  0  0
   44.7590   33.7150   41.1210 O   0  0  0  0  0  0  0  0  0  0  0  0
   43.6370   34.3390   40.6590 C   0  0  0  0  0  0  0  0  0  0  0  0
   43.4590   35.5950   40.4780 O   0  0  0  0  0  0  0  0  0  0  0  0
   42.2010   33.0780   39.0280 C   0  0  0  0  0  0  0  0  0  0  0  0
   42.3860   33.6270   40.2750 C   0  0  0  0  0  0  0  0  0  0  0  0
   41.3170   33.4690   41.1370 C   0  0  0  0  0  0  0  0  0  0  0  0
   40.1320   32.8320   40.8590 C   0  0  0  0  0  0  0  0  0  0  0  0
   39.0210   32.5990   41.5780 N   0  0  0  0  0  0  0  0  0  0  0  0
   38.1770   31.9160   40.7660 C   0  0  0  0  0  0  0  0  0  0  0  0
   38.7670   31.7350   39.5690 N   0  0  0  0  0  0  0  0  0  0  0  0
   40.0000   32.3000   39.5960 C   0  0  0  0  0  0  0  0  0  0  0  0
   41.0190   32.4160   38.6800 C   0  0  0  0  0  0  0  0  0  0  0  0
   48.4293   35.8172   42.8226 H   0  0  0  0  0  0  0  0  0  0  0  0
   48.5993   34.2061   38.8929 H   0  0  0  0  0  0  0  0  0  0  0  0
   44.9820   37.0913   42.8869 H   0  0  0  0  0  0  0  0  0  0  0  0
   43.8154   36.6876   45.2727 H   0  0  0  0  0  0  0  0  0  0  0  0
   44.5364   34.3448   46.1516 H   0  0  0  0  0  0  0  0  0  0  0  0
   43.0057   33.1618   38.2827 H   0  0  0  0  0  0  0  0  0  0  0  0
   41.4259   33.8954   42.1451 H   0  0  0  0  0  0  0  0  0  0  0  0
   38.8455   32.8829   42.5524 H   0  0  0  0  0  0  0  0  0  0  0  0
   37.1712   31.5657   41.0409 H   0  0  0  0  0  0  0  0  0  0  0  0
   40.9045   31.9880   37.6732 H   0  0  0  0  0  0  0  0  0  0  0  0
  1 12  1  0
  1  2  1  0
  2  7  1  0
  3  2  2  0
  4  3  1  0
  5  6  1  0
  5  4  2  0
  6  1  2  0
  7  8  1  0
  7 11  2  0
  8  9  2  0
  9 10  1  0
 11 10  1  0
 13 12  1  0
 14 13  2  0
 15 16  2  0
 16 13  1  0
 16 17  1  0
 18 17  2  0
 18 19  1  0
 20 19  1  0
 21 22  1  0
 21 20  2  0
 22 18  1  0
 23 15  1  0
 23 22  2  0
  3 24  1  0
  5 25  1  0
  8 26  1  0
  9 27  1  0
 10 28  1  0
 15 29  1  0
 17 30  1  0
 19 31  1  0
 20 32  1  0
 23 33  1  0
M  ISO  8  24  14  25  14  26  14  27  14  28   9  29  14  30  14  31   9
M  ISO  2  32  14  33  14
M  END
>  <minimizedAffinity>  (1) 
-6.10180807

>  <minimizedRMSD>  (1) 
1.25878882

$$$$
