
     RDKit          3D

 33 36  0  0  0  0  0  0  0  0999 V2000
   46.0825   34.1591   41.0137 C   0  0  0  0  0  0  0  0  0  0  0  0
   46.6143   34.8320   42.1102 C   0  0  0  0  0  0  0  0  0  0  0  0
   47.9424   35.2784   41.9883 C   0  0  0  0  0  0  0  0  0  0  0  0
   48.6057   35.0240   40.8209 N   0  0  0  0  0  0  0  0  0  0  0  0
   48.0488   34.3761   39.8039 C   0  0  0  0  0  0  0  0  0  0  0  0
   46.7830   33.9370   39.8891 N   0  0  0  0  0  0  0  0  0  0  0  0
   45.8108   35.0410   43.2941 C   0  0  0  0  0  0  0  0  0  0  0  0
   45.0484   36.1888   43.4907 C   0  0  0  0  0  0  0  0  0  0  0  0
   44.4621   35.9672   44.7199 C   0  0  0  0  0  0  0  0  0  0  0  0
   44.8407   34.7672   45.2374 N   0  0  0  0  0  0  0  0  0  0  0  0
   45.6549   34.2346   44.3507 N   0  0  0  0  0  0  0  0  0  0  0  0
   44.7769   33.7038   41.0952 O   0  0  0  0  0  0  0  0  0  0  0  0
   43.6913   34.1891   40.4256 C   0  0  0  0  0  0  0  0  0  0  0  0
   43.2483   35.3907   40.4233 O   0  0  0  0  0  0  0  0  0  0  0  0
   48.3669   35.8039   42.8370 H   0  0  0  0  0  0  0  0  0  0  0  0
   48.6138   34.1970   38.8963 H   0  0  0  0  0  0  0  0  0  0  0  0
   44.9089   37.0740   42.8677 H   0  0  0  0  0  0  0  0  0  0  0  0
   43.7806   36.6195   45.2604 H   0  0  0  0  0  0  0  0  0  0  0  0
   44.5723   34.3201   46.1376 H   0  0  0  0  0  0  0  0  0  0  0  0
   41.5529   32.9622   39.9452 C   0  0  0  0  0  0  0  0  0  0  0  0
   42.8090   33.3614   39.5558 C   0  0  0  0  0  0  0  0  0  0  0  0
   43.1851   32.9301   38.2976 C   0  0  0  0  0  0  0  0  0  0  0  0
   44.1658   33.2150   37.9382 H   0  0  0  0  0  0  0  0  0  0  0  0
   42.4334   32.1648   37.4396 C   0  0  0  0  0  0  0  0  0  0  0  0
   42.6559   31.6744   36.2077 N   0  0  0  0  0  0  0  0  0  0  0  0
   41.5401   30.9865   35.8628 C   0  0  0  0  0  0  0  0  0  0  0  0
   41.5073   30.5017   34.8899 H   0  0  0  0  0  0  0  0  0  0  0  0
   40.6502   31.0576   36.8722 N   0  0  0  0  0  0  0  0  0  0  0  0
   41.1831   31.7928   37.8799 C   0  0  0  0  0  0  0  0  0  0  0  0
   40.7357   32.1818   39.1192 C   0  0  0  0  0  0  0  0  0  0  0  0
   41.1447   33.2355   40.9068 H   0  0  0  0  0  0  0  0  0  0  0  0
   43.5368   31.8197   35.6555 H   0  0  0  0  0  0  0  0  0  0  0  0
   39.7535   31.8827   39.4509 H   0  0  0  0  0  0  0  0  0  0  0  0
  1 12  1  0
  1  2  1  0
  2  7  1  0
  3  2  2  0
  4  3  1  0
  5  6  1  0
  5  4  2  0
  6  1  2  0
  7  8  1  0
  7 11  2  0
  8  9  2  0
  9 10  1  0
 11 10  1  0
 13 14  2  0
 13 12  1  0
  3 15  1  0
  5 16  1  0
  8 17  1  0
  9 18  1  0
 10 19  1  0
 20 21  2  0
 21 22  1  0
 22 23  1  0
 22 24  2  0
 24 25  1  0
 25 26  1  0
 26 27  1  0
 26 28  2  0
 28 29  1  0
 29 30  2  0
 30 20  1  0
 29 24  1  0
 20 31  1  0
 25 32  1  0
 30 33  1  0
 13 21  1  0
M  ISO  7  15  14  16  14  17  14  18  14  19   9  23  15  27  14
M  END
>  <DihAtoms>  (1) 
13,12,20,19

>  <DihDeg>  (1) 
0.3944958305021452

$$$$
