
     RDKit          3D

 30 31  0  0  0  0  0  0  0  0999 V2000
   46.1366   35.2803   42.7011 C   0  0  0  0  0  0  0  0  0  0  0  0
   46.6915   34.1848   43.3427 C   0  0  0  0  0  0  0  0  0  0  0  0
   46.2046   33.8398   44.6062 C   0  0  0  0  0  0  0  0  0  0  0  0
   45.2086   34.6007   45.1401 N   0  0  0  0  0  0  0  0  0  0  0  0
   44.6962   35.6505   44.4943 C   0  0  0  0  0  0  0  0  0  0  0  0
   45.1607   35.9791   43.2895 N   0  0  0  0  0  0  0  0  0  0  0  0
   47.7078   33.4799   42.6976 O   0  0  0  0  0  0  0  0  0  0  0  0
   49.5474   35.3643   42.7935 O   0  0  0  0  0  0  0  0  0  0  0  0
   48.9777   34.3040   41.8999 P   0  0  1  0  0  0  0  0  0  0  0  0
   50.2201   33.2440   41.5089 O   0  0  0  0  0  0  0  0  0  0  0  0
   48.4099   35.0215   40.5054 O   0  0  0  0  0  0  0  0  0  0  0  0
   48.0490   34.4105   39.3596 C   0  0  0  0  0  0  0  0  0  0  0  0
   46.9569   33.7295   39.5112 O   0  0  0  0  0  0  0  0  0  0  0  0
   46.4638   35.6102   41.7152 H   0  0  0  0  0  0  0  0  0  0  0  0
   46.6476   32.9745   45.1053 H   0  0  0  0  0  0  0  0  0  0  0  0
   43.9172   36.1385   45.0616 H   0  0  0  0  0  0  0  0  0  0  0  0
   51.0748   33.7462   41.4999 H   0  0  0  0  0  0  0  0  0  0  0  0
   48.9561   36.6059   37.6944 O   0  0  0  0  0  0  0  0  0  0  0  0
   48.9106   35.3142   37.2112 C   0  0  0  0  0  0  0  0  0  0  0  0
   48.4961   34.2601   37.9440 C   0  0  0  0  0  0  0  0  0  0  0  0
   48.4787   32.9774   37.3815 C   0  0  0  0  0  0  0  0  0  0  0  0
   48.1370   32.1322   37.9973 H   0  0  0  0  0  0  0  0  0  0  0  0
   48.8640   32.7021   36.0995 C   0  0  0  0  0  0  0  0  0  0  0  0
   49.2889   33.7588   35.3367 C   0  0  0  0  0  0  0  0  0  0  0  0
   49.3024   35.0169   35.8992 C   0  0  0  0  0  0  0  0  0  0  0  0
   49.7316   36.1250   35.1479 O   0  0  0  0  0  0  0  0  0  0  0  0
   49.6706   36.8775   38.3823 H   0  0  0  0  0  0  0  0  0  0  0  0
   48.8209   31.6840   35.7401 H   0  0  0  0  0  0  0  0  0  0  0  0
   49.6068   33.6107   34.3165 H   0  0  0  0  0  0  0  0  0  0  0  0
   50.3508   36.7881   35.5990 H   0  0  0  0  0  0  0  0  0  0  0  0
  1  6  2  0
  1  2  1  0
  2  3  2  0
  3  4  1  0
  5  4  2  0
  6  5  1  0
  7  2  1  0
  9  7  1  1
  9  8  2  0
 10  9  1  0
 11  9  1  0
 12 13  2  0
 12 11  1  0
  1 14  1  0
  3 15  1  0
  5 16  1  0
 10 17  1  0
 18 19  1  0
 19 20  2  0
 20 21  1  0
 21 22  1  0
 21 23  2  0
 23 24  1  0
 24 25  2  0
 25 26  1  0
 25 19  1  0
 18 27  1  0
 23 28  1  0
 24 29  1  0
 26 30  1  0
 12 20  1  0
M  ISO  5  14  14  15  14  16  14  17   3  22  16
M  END
>  <DihAtoms>  (1) 
12,11,19,18

>  <DihDeg>  (1) 
-0.16287059638520324

$$$$
