
     RDKit          3D

 33 35  0  0  0  0  0  0  0  0999 V2000
   45.1880   34.5930   44.7850 C   0  0  0  0  0  0  0  0  0  0  0  0
   46.1600   34.2720   43.8050 C   0  0  0  0  0  0  0  0  0  0  0  0
   47.1140   33.3090   44.1370 C   0  0  0  0  0  0  0  0  0  0  0  0
   47.0830   32.7290   45.3470 N   0  0  0  0  0  0  0  0  0  0  0  0
   46.1300   33.0570   46.2770 C   0  0  0  0  0  0  0  0  0  0  0  0
   45.2090   33.9780   45.9760 N   0  0  0  0  0  0  0  0  0  0  0  0
   48.1130   32.9730   43.1410 C   0  0  0  0  0  0  0  0  0  0  0  0
   47.9510   31.8480   42.3530 C   0  0  0  0  0  0  0  0  0  0  0  0
   48.9150   31.5570   41.4200 C   0  0  0  0  0  0  0  0  0  0  0  0
   50.0470   32.3280   41.2170 C   0  0  0  0  0  0  0  0  0  0  0  0
   50.1510   33.4440   42.0370 C   0  0  0  0  0  0  0  0  0  0  0  0
   49.2000   33.7230   42.9530 N   0  0  0  0  0  0  0  0  0  0  0  0
   46.1300   34.9280   42.5470 C   0  0  0  0  0  0  0  0  0  0  0  0
   46.9370   35.8700   42.3460 O   0  0  0  0  0  0  0  0  0  0  0  0
   43.9970   35.1950   41.2960 C   0  0  0  0  0  0  0  0  0  0  0  0
   45.1970   34.5450   41.4920 C   0  0  0  0  0  0  0  0  0  0  0  0
   45.4920   33.5020   40.6400 C   0  0  0  0  0  0  0  0  0  0  0  0
   44.6720   33.0890   39.6340 C   0  0  0  0  0  0  0  0  0  0  0  0
   43.4650   33.7600   39.4550 C   0  0  0  0  0  0  0  0  0  0  0  0
   43.1460   34.7990   40.2860 C   0  0  0  0  0  0  0  0  0  0  0  0
   43.6480   36.2670   42.1390 O   0  0  0  0  0  0  0  0  0  0  0  0
   41.9520   35.4910   40.1380 O   0  0  0  0  0  0  0  0  0  0  0  0
   44.4165   35.3466   44.5685 H   0  0  0  0  0  0  0  0  0  0  0  0
   46.1235   32.5667   47.2617 H   0  0  0  0  0  0  0  0  0  0  0  0
   47.0694   31.2009   42.4712 H   0  0  0  0  0  0  0  0  0  0  0  0
   48.7804   30.6598   40.7980 H   0  0  0  0  0  0  0  0  0  0  0  0
   50.8069   32.0755   40.4628 H   0  0  0  0  0  0  0  0  0  0  0  0
   51.0209   34.1100   41.9385 H   0  0  0  0  0  0  0  0  0  0  0  0
   46.4457   32.9723   40.7810 H   0  0  0  0  0  0  0  0  0  0  0  0
   44.9550   32.2497   38.9818 H   0  0  0  0  0  0  0  0  0  0  0  0
   42.7749   33.4577   38.6535 H   0  0  0  0  0  0  0  0  0  0  0  0
   42.7888   36.7409   42.0073 H   0  0  0  0  0  0  0  0  0  0  0  0
   41.7355   36.2406   40.7473 H   0  0  0  0  0  0  0  0  0  0  0  0
  1  6  2  0
  2  3  2  0
  2  1  1  0
  3  4  1  0
  4  5  2  0
  6  5  1  0
  7  3  1  0
  8  7  2  0
  9  8  1  0
 10  9  2  0
 10 11  1  0
 11 12  2  0
 12  7  1  0
 13  2  1  0
 14 13  2  0
 15 16  2  0
 15 21  1  0
 16 13  1  0
 17 16  1  0
 18 17  2  0
 19 18  1  0
 19 20  2  0
 20 15  1  0
 22 20  1  0
  1 23  1  0
  5 24  1  0
  8 25  1  0
  9 26  1  0
 10 27  1  0
 11 28  1  0
 17 29  1  0
 18 30  1  0
 19 31  1  0
 21 32  1  0
 22 33  1  0
M  ISO  8  23  14  24  14  25  14  26  14  27  14  28  14  29  14  30  14
M  ISO  3  31  14  32   3  33   3
M  END
>  <minimizedAffinity>  (1) 
-5.34053516

>  <minimizedRMSD>  (1) 
2.52359152

$$$$
