
     RDKit          3D

 33 35  0  0  0  0  0  0  0  0999 V2000
   45.2665   36.1632   43.1736 C   0  0  0  0  0  0  0  0  0  0  0  0
   45.8744   34.9116   42.9017 C   0  0  0  0  0  0  0  0  0  0  0  0
   45.8297   33.9443   43.9063 C   0  0  0  0  0  0  0  0  0  0  0  0
   45.2268   34.2203   45.0733 N   0  0  0  0  0  0  0  0  0  0  0  0
   44.6464   35.4393   45.3104 C   0  0  0  0  0  0  0  0  0  0  0  0
   44.6795   36.3776   44.3602 N   0  0  0  0  0  0  0  0  0  0  0  0
   46.4493   32.6600   43.6372 C   0  0  0  0  0  0  0  0  0  0  0  0
   45.6638   31.5737   43.2954 C   0  0  0  0  0  0  0  0  0  0  0  0
   46.2803   30.3719   43.0467 C   0  0  0  0  0  0  0  0  0  0  0  0
   47.6493   30.1800   43.1177 C   0  0  0  0  0  0  0  0  0  0  0  0
   48.3822   31.3080   43.4654 C   0  0  0  0  0  0  0  0  0  0  0  0
   47.7693   32.4858   43.7083 N   0  0  0  0  0  0  0  0  0  0  0  0
   46.4930   34.6934   41.6440 C   0  0  0  0  0  0  0  0  0  0  0  0
   47.6594   35.1291   41.4689 O   0  0  0  0  0  0  0  0  0  0  0  0
   45.2832   36.9348   42.4168 H   0  0  0  0  0  0  0  0  0  0  0  0
   44.2070   35.4916   46.2992 H   0  0  0  0  0  0  0  0  0  0  0  0
   44.6031   31.6108   43.2123 H   0  0  0  0  0  0  0  0  0  0  0  0
   45.7050   29.4878   42.7741 H   0  0  0  0  0  0  0  0  0  0  0  0
   48.1913   29.2838   42.9394 H   0  0  0  0  0  0  0  0  0  0  0  0
   49.4646   31.3056   43.5590 H   0  0  0  0  0  0  0  0  0  0  0  0
   46.5232   35.6321   38.9531 O   0  0  0  0  0  0  0  0  0  0  0  0
   45.8374   34.4408   39.2585 C   0  0  0  0  0  0  0  0  0  0  0  0
   45.8219   33.9854   40.5595 C   0  0  0  0  0  0  0  0  0  0  0  0
   45.1364   32.8142   40.8054 C   0  0  0  0  0  0  0  0  0  0  0  0
   45.1341   32.4718   41.8286 H   0  0  0  0  0  0  0  0  0  0  0  0
   44.4862   32.0985   39.8454 C   0  0  0  0  0  0  0  0  0  0  0  0
   44.5159   32.5786   38.5378 C   0  0  0  0  0  0  0  0  0  0  0  0
   45.1883   33.7378   38.2652 C   0  0  0  0  0  0  0  0  0  0  0  0
   45.2397   34.2469   36.9742 O   0  0  0  0  0  0  0  0  0  0  0  0
   46.1429   36.3481   38.3557 H   0  0  0  0  0  0  0  0  0  0  0  0
   43.9779   31.1866   40.1591 H   0  0  0  0  0  0  0  0  0  0  0  0
   43.9951   32.0033   37.7744 H   0  0  0  0  0  0  0  0  0  0  0  0
   45.5518   33.6921   36.1842 H   0  0  0  0  0  0  0  0  0  0  0  0
  1  6  2  0
  2  1  1  0
  2  3  2  0
  3  4  1  0
  4  5  2  0
  6  5  1  0
  7 12  1  0
  7  3  1  0
  8  7  2  0
  9 10  2  0
  9  8  1  0
 10 11  1  0
 11 12  2  0
 13  2  1  0
 14 13  2  0
  1 15  1  0
  5 16  1  0
  8 17  1  0
  9 18  1  0
 10 19  1  0
 11 20  1  0
 21 22  1  0
 22 23  2  0
 23 24  1  0
 24 25  1  0
 24 26  2  0
 26 27  1  0
 27 28  2  0
 28 29  1  0
 28 22  1  0
 21 30  1  0
 26 31  1  0
 27 32  1  0
 29 33  1  0
 13 23  1  0
M  ISO  7  15  14  16  14  17  14  18  14  19  14  20  14  25  16
M  END
>  <DihAtoms>  (1) 
1,12,22,21

>  <DihDeg>  (1) 
-179.99520809021627

$$$$
