
     RDKit          3D

 45 47  0  0  0  0  0  0  0  0999 V2000
   45.8550   35.2120   43.1760 C   0  0  0  0  0  0  0  0  0  0  0  0
   46.6450   34.1810   43.7620 C   0  0  0  0  0  0  0  0  0  0  0  0
   46.3310   33.7660   45.0460 C   0  0  0  0  0  0  0  0  0  0  0  0
   45.2870   34.3610   45.6900 N   0  0  0  0  0  0  0  0  0  0  0  0
   44.5560   35.3340   45.1160 C   0  0  0  0  0  0  0  0  0  0  0  0
   44.8390   35.7480   43.8800 N   0  0  0  0  0  0  0  0  0  0  0  0
   47.6920   33.6750   42.9490 N   0  0  0  0  0  0  0  0  0  0  0  0
   49.0200   34.2790   42.9070 C   0  0  0  0  0  0  0  0  0  0  0  0
   49.9350   33.4400   42.0620 C   0  0  0  0  0  0  0  0  0  0  0  0
   49.3920   33.1200   40.7750 N   0  0  0  0  0  0  0  0  0  0  0  0
   48.0510   32.6260   40.7810 C   0  0  0  0  0  0  0  0  0  0  0  0
   47.4150   32.5070   42.1310 C   0  0  0  0  0  0  0  0  0  0  0  0
   47.1150   32.7710   45.5750 O   0  0  0  0  0  0  0  0  0  0  0  0
   45.4540   30.8740   44.7510 O   0  0  0  0  0  0  0  0  0  0  0  0
   46.4070   31.2110   45.8980 P   0  0  1  0  0  0  0  0  0  0  0  0
   47.6380   30.1240   46.0700 O   0  0  0  0  0  0  0  0  0  0  0  0
   48.0470   28.1870   47.5910 C   0  0  0  0  0  0  0  0  0  0  0  0
   47.6250   28.8090   46.4330 C   0  0  0  0  0  0  0  0  0  0  0  0
   47.0840   27.9990   45.4250 C   0  0  0  0  0  0  0  0  0  0  0  0
   46.9730   26.6220   45.5830 C   0  0  0  0  0  0  0  0  0  0  0  0
   47.3990   26.0220   46.7440 C   0  0  0  0  0  0  0  0  0  0  0  0
   47.9350   26.8200   47.7400 C   0  0  0  0  0  0  0  0  0  0  0  0
   48.5660   29.0700   48.5240 O   0  0  0  0  0  0  0  0  0  0  0  0
   48.3920   26.2820   48.9550 O   0  0  0  0  0  0  0  0  0  0  0  0
   45.4920   31.3990   47.3110 O   0  0  0  0  0  0  0  0  0  0  0  0
   46.2640   31.7630   48.3960 C   0  0  0  0  0  0  0  0  0  0  0  0
   47.5790   32.0630   48.0630 F   0  0  0  0  0  0  0  0  0  0  0  0
   46.2630   30.8770   49.4380 F   0  0  0  0  0  0  0  0  0  0  0  0
   45.6890   32.9450   48.8800 F   0  0  0  0  0  0  0  0  0  0  0  0
   46.0727   35.5671   42.1579 H   0  0  0  0  0  0  0  0  0  0  0  0
   43.7213   35.7900   45.6685 H   0  0  0  0  0  0  0  0  0  0  0  0
   48.9484   35.2884   42.4759 H   0  0  0  0  0  0  0  0  0  0  0  0
   49.4235   34.3395   43.9285 H   0  0  0  0  0  0  0  0  0  0  0  0
   50.8760   33.9906   41.9157 H   0  0  0  0  0  0  0  0  0  0  0  0
   50.0860   32.4895   42.5947 H   0  0  0  0  0  0  0  0  0  0  0  0
   49.9932   32.4020   40.3460 H   0  0  0  0  0  0  0  0  0  0  0  0
   47.4358   33.3077   40.1753 H   0  0  0  0  0  0  0  0  0  0  0  0
   48.1038   31.6029   40.3804 H   0  0  0  0  0  0  0  0  0  0  0  0
   46.3267   32.4062   42.0069 H   0  0  0  0  0  0  0  0  0  0  0  0
   47.8324   31.6228   42.6350 H   0  0  0  0  0  0  0  0  0  0  0  0
   46.7398   28.4627   44.4888 H   0  0  0  0  0  0  0  0  0  0  0  0
   46.5428   26.0107   44.7761 H   0  0  0  0  0  0  0  0  0  0  0  0
   47.3159   24.9334   46.8784 H   0  0  0  0  0  0  0  0  0  0  0  0
   48.6034   30.0384   48.3218 H   0  0  0  0  0  0  0  0  0  0  0  0
   48.3361   25.3069   49.1167 H   0  0  0  0  0  0  0  0  0  0  0  0
  1  2  2  0
  1  6  1  0
  2  3  1  0
  3 13  1  0
  3  4  2  0
  5  4  1  0
  6  5  2  0
  7  2  1  0
  8  7  1  0
  9  8  1  0
 10 11  1  0
 10  9  1  0
 11 12  1  0
 12  7  1  0
 13 15  1  0
 15 14  2  0
 15 16  1  0
 15 25  1  0
 16 18  1  0
 17 22  2  0
 17 23  1  0
 18 17  1  0
 19 20  1  0
 19 18  2  0
 20 21  2  0
 21 22  1  0
 22 24  1  0
 25 26  1  0
 26 29  1  0
 26 28  1  0
 27 26  1  0
  1 30  1  0
  5 31  1  0
  8 32  1  0
  8 33  1  0
  9 34  1  0
  9 35  1  0
 10 36  1  0
 11 37  1  0
 11 38  1  0
 12 39  1  0
 12 40  1  0
 19 41  1  0
 20 42  1  0
 21 43  1  0
 23 44  1  0
 24 45  1  0
M  ISO  8  30  14  31  14  32  13  33  13  34  13  35  13  36   5  37  13
M  ISO  8  38  13  39  13  40  13  41  14  42  14  43  14  44   3  45   3
M  END
>  <minimizedAffinity>  (1) 
-5.60638189

>  <minimizedRMSD>  (1) 
1.11789787

$$$$
