
     RDKit          3D

 48 51  0  0  0  0  0  0  0  0999 V2000
   47.0589   34.8080   41.9499 C   0  0  2  0  0  0  0  0  0  0  0  0
   46.2923   34.1789   40.7846 C   0  0  0  0  0  0  0  0  0  0  0  0
   47.4913   33.9872   39.8313 C   0  0  0  0  0  0  0  0  0  0  0  0
   48.6398   33.6261   40.7230 C   0  0  1  0  0  0  0  0  0  0  0  0
   48.1288   33.7652   42.1271 C   0  0  0  0  0  0  0  0  0  0  0  0
   44.5457   35.9917   44.4945 C   0  0  0  0  0  0  0  0  0  0  0  0
   45.2785   35.9668   43.3127 C   0  0  0  0  0  0  0  0  0  0  0  0
   46.1955   34.9327   43.1593 C   0  0  0  0  0  0  0  0  0  0  0  0
   46.3562   33.9704   44.1655 N   0  0  0  0  0  0  0  0  0  0  0  0
   45.6108   34.0496   45.2977 C   0  0  0  0  0  0  0  0  0  0  0  0
   44.7154   35.0524   45.4561 N   0  0  0  0  0  0  0  0  0  0  0  0
   49.1248   32.2024   40.5646 C   0  0  2  0  0  0  0  0  0  0  0  0
   49.7547   31.6032   41.7300 C   0  0  0  0  0  0  0  0  0  0  0  0
   50.5499   31.8809   40.4929 C   0  0  1  0  0  0  0  0  0  0  0  0
   50.9238   30.7637   39.7049 O   0  0  0  0  0  0  0  0  0  0  0  0
   52.0344   30.2219   37.4085 O   0  0  0  0  0  0  0  0  0  0  0  0
   51.8809   31.3128   38.4373 P   0  0  1  0  0  0  0  0  0  0  0  0
   51.1240   32.6439   37.6645 O   0  0  0  0  0  0  0  0  0  0  0  0
   53.3953   31.8221   38.8945 O   0  0  0  0  0  0  0  0  0  0  0  0
   47.4339   35.7849   41.6486 H   0  0  0  0  0  0  0  0  0  0  0  0
   45.8800   33.2190   41.1151 H   0  0  0  0  0  0  0  0  0  0  0  0
   45.5696   34.8907   40.3789 H   0  0  0  0  0  0  0  0  0  0  0  0
   47.6745   34.9789   39.3894 H   0  0  0  0  0  0  0  0  0  0  0  0
   47.2236   33.2120   39.0872 H   0  0  0  0  0  0  0  0  0  0  0  0
   49.5166   34.2839   40.5518 H   0  0  0  0  0  0  0  0  0  0  0  0
   47.7185   32.8546   42.5631 H   0  0  0  0  0  0  0  0  0  0  0  0
   48.9459   34.2104   42.7420 H   0  0  0  0  0  0  0  0  0  0  0  0
   43.8288   36.7917   44.6244 H   0  0  0  0  0  0  0  0  0  0  0  0
   45.1680   36.6976   42.5300 H   0  0  0  0  0  0  0  0  0  0  0  0
   45.8093   33.2618   46.0116 H   0  0  0  0  0  0  0  0  0  0  0  0
   48.4452   31.5767   39.9569 H   0  0  0  0  0  0  0  0  0  0  0  0
   49.5329   30.5660   42.0077 H   0  0  0  0  0  0  0  0  0  0  0  0
   50.0569   32.2392   42.6051 H   0  0  0  0  0  0  0  0  0  0  0  0
   51.2052   32.7470   40.3525 H   0  0  0  0  0  0  0  0  0  0  0  0
   51.2204   33.4137   38.2729 H   0  0  0  0  0  0  0  0  0  0  0  0
   53.1280   30.8713   36.3730 O   0  0  0  0  0  0  0  0  0  0  0  0
   54.0967   31.8330   36.7170 C   0  0  0  0  0  0  0  0  0  0  0  0
   54.2806   32.3544   37.9822 C   0  0  0  0  0  0  0  0  0  0  0  0
   55.2747   33.2921   38.1610 C   0  0  0  0  0  0  0  0  0  0  0  0
   55.3461   33.6465   39.1904 H   0  0  0  0  0  0  0  0  0  0  0  0
   56.0622   33.6978   37.1092 C   0  0  0  0  0  0  0  0  0  0  0  0
   55.8612   33.1605   35.8417 C   0  0  0  0  0  0  0  0  0  0  0  0
   54.8857   32.2328   35.6391 C   0  0  0  0  0  0  0  0  0  0  0  0
   54.7366   31.7367   34.3538 O   0  0  0  0  0  0  0  0  0  0  0  0
   53.0331   30.0195   36.9146 H   0  0  0  0  0  0  0  0  0  0  0  0
   56.8177   34.4256   37.2988 H   0  0  0  0  0  0  0  0  0  0  0  0
   56.4932   33.4997   35.0460 H   0  0  0  0  0  0  0  0  0  0  0  0
   55.1118   30.8350   34.1297 H   0  0  0  0  0  0  0  0  0  0  0  0
  1  5  1  0
  1  8  1  0
  2  1  1  0
  3  4  1  0
  3  2  1  0
  4  5  1  0
  6 11  2  0
  7  6  1  0
  8  7  2  0
  8  9  1  0
  9 10  2  0
 10 11  1  0
 12  4  1  0
 12 13  1  0
 14 12  1  0
 14 13  1  0
 15 14  1  0
 16 17  2  0
 17 19  1  1
 17 15  1  0
 18 17  1  0
  1 20  1  6
  2 21  1  0
  2 22  1  0
  3 23  1  0
  3 24  1  0
  4 25  1  1
  5 26  1  0
  5 27  1  0
  6 28  1  0
  7 29  1  0
 10 30  1  0
 12 31  1  6
 13 32  1  0
 13 33  1  0
 14 34  1  1
 18 35  1  0
 36 37  1  0
 37 38  2  0
 38 39  1  0
 39 40  1  0
 39 41  2  0
 41 42  1  0
 42 43  2  0
 43 44  1  0
 43 37  1  0
 36 45  1  0
 41 46  1  0
 42 47  1  0
 44 48  1  0
 19 38  1  0
M  ISO  8  20  13  21  13  22  13  23  13  24  13  25  13  26  13  27  13
M  ISO  8  28  14  29  14  30  14  31  13  32  13  33  13  34  13  35   3
M  ISO  1  40  16
M  END
>  <DihAtoms>  (1) 
16,18,37,36

>  <DihDeg>  (1) 
179.99825693923935

$$$$
