
     RDKit          3D

 28 29  0  0  0  0  0  0  0  0999 V2000
   46.9080   32.3640   48.4190 O   0  0  0  0  0  0  0  0  0  0  0  0
   45.8640   32.5380   47.3130 P   0  0  1  0  0  0  0  0  0  0  0  0
   44.5590   33.4700   47.8240 O   0  0  0  0  0  0  0  0  0  0  0  0
   46.6700   33.2670   46.0190 O   0  0  0  0  0  0  0  0  0  0  0  0
   44.4640   35.6650   44.6000 C   0  0  0  0  0  0  0  0  0  0  0  0
   44.8610   35.7620   43.2420 C   0  0  0  0  0  0  0  0  0  0  0  0
   45.9280   34.9540   42.8520 C   0  0  0  0  0  0  0  0  0  0  0  0
   46.5010   34.1470   43.7830 N   0  0  0  0  0  0  0  0  0  0  0  0
   46.0920   34.0860   45.0640 C   0  0  0  0  0  0  0  0  0  0  0  0
   45.0620   34.8550   45.4750 N   0  0  0  0  0  0  0  0  0  0  0  0
   45.2910   30.9930   46.9430 O   0  0  0  0  0  0  0  0  0  0  0  0
   45.9230   28.8660   47.5650 C   0  0  0  0  0  0  0  0  0  0  0  0
   46.0460   29.8910   46.6430 C   0  0  0  0  0  0  0  0  0  0  0  0
   46.8880   29.6880   45.5700 C   0  0  0  0  0  0  0  0  0  0  0  0
   47.5890   28.5120   45.4030 C   0  0  0  0  0  0  0  0  0  0  0  0
   47.4750   27.4750   46.3190 C   0  0  0  0  0  0  0  0  0  0  0  0
   46.6240   27.6780   47.4090 C   0  0  0  0  0  0  0  0  0  0  0  0
   45.1220   28.8910   48.7110 O   0  0  0  0  0  0  0  0  0  0  0  0
   46.5410   26.6210   48.2950 O   0  0  0  0  0  0  0  0  0  0  0  0
   44.5337   33.4880   48.8135 H   0  0  0  0  0  0  0  0  0  0  0  0
   43.6250   36.2858   44.9475 H   0  0  0  0  0  0  0  0  0  0  0  0
   44.3553   36.4370   42.5359 H   0  0  0  0  0  0  0  0  0  0  0  0
   46.2970   34.9694   41.8159 H   0  0  0  0  0  0  0  0  0  0  0  0
   47.0041   30.4884   44.8245 H   0  0  0  0  0  0  0  0  0  0  0  0
   48.2486   28.3939   44.5306 H   0  0  0  0  0  0  0  0  0  0  0  0
   48.0305   26.5341   46.1924 H   0  0  0  0  0  0  0  0  0  0  0  0
   45.0975   28.1070   49.3150 H   0  0  0  0  0  0  0  0  0  0  0  0
   45.9586   26.6884   49.0927 H   0  0  0  0  0  0  0  0  0  0  0  0
  2  3  1  0
  2  1  2  0
  4  2  1  0
  5 10  2  0
  6  5  1  0
  7  6  2  0
  7  8  1  0
  8  9  2  0
  9 10  1  0
  9  4  1  0
 11  2  1  0
 12 18  1  0
 13 11  1  0
 13 12  2  0
 14 13  1  0
 15 14  2  0
 15 16  1  0
 16 17  2  0
 17 12  1  0
 17 19  1  0
  3 20  1  0
  5 21  1  0
  6 22  1  0
  7 23  1  0
 14 24  1  0
 15 25  1  0
 16 26  1  0
 18 27  1  0
 19 28  1  0
M  ISO  8  20   3  21  14  22  14  23  14  24  14  25  14  26  14  27   3
M  ISO  1  28   3
M  END
>  <minimizedAffinity>  (1) 
-5.02298546

>  <minimizedRMSD>  (1) 
2.35584021

$$$$
