
     RDKit          3D

 51 54  0  0  0  0  0  0  0  0999 V2000
   45.1193   35.5449   43.2536 C   0  0  0  0  0  0  0  0  0  0  0  0
   45.5160   34.2210   43.3055 C   0  0  0  0  0  0  0  0  0  0  0  0
   45.4623   33.5315   44.4854 C   0  0  0  0  0  0  0  0  0  0  0  0
   44.9937   34.2374   45.5872 N   0  0  0  0  0  0  0  0  0  0  0  0
   44.6146   35.5013   45.5384 C   0  0  0  0  0  0  0  0  0  0  0  0
   44.6833   36.1500   44.3540 N   0  0  0  0  0  0  0  0  0  0  0  0
   45.8184   32.1950   44.7305 C   0  0  0  0  0  0  0  0  0  0  0  0
   45.4794   31.1420   43.8599 C   0  0  0  0  0  0  0  0  0  0  0  0
   45.7634   29.8235   44.0948 C   0  0  0  0  0  0  0  0  0  0  0  0
   46.4267   29.4660   45.2562 C   0  0  0  0  0  0  0  0  0  0  0  0
   46.7807   30.5230   46.1533 C   0  0  0  0  0  0  0  0  0  0  0  0
   47.4299   30.1831   47.3068 C   0  0  0  0  0  0  0  0  0  0  0  0
   47.7929   31.1476   48.2103 C   0  0  0  0  0  0  0  0  0  0  0  0
   47.4933   32.4953   47.9411 C   0  0  0  0  0  0  0  0  0  0  0  0
   46.8230   32.7851   46.7360 C   0  0  0  0  0  0  0  0  0  0  0  0
   46.4714   31.8097   45.8599 C   0  0  0  0  0  0  0  0  0  0  0  0
   45.9489   33.6542   42.1504 O   0  0  0  0  0  0  0  0  0  0  0  0
   48.1499   32.3747   41.5422 O   0  0  0  0  0  0  0  0  0  0  0  0
   47.5118   33.7298   41.5518 P   0  0  1  0  0  0  0  0  0  0  0  0
   47.5519   34.2832   39.9644 O   0  0  0  0  0  0  0  0  0  0  0  0
   46.8282   33.3770   39.2057 C   0  0  0  0  0  0  0  0  0  0  0  0
   48.3997   34.7735   42.5349 O   0  0  0  0  0  0  0  0  0  0  0  0
   49.6147   35.3635   42.2407 C   0  0  0  0  0  0  0  0  0  0  0  0
   49.3285   36.4031   41.6316 O   0  0  0  0  0  0  0  0  0  0  0  0
   50.7080   34.5695   42.7386 N   0  0  0  0  0  0  0  0  0  0  0  0
   45.1441   36.1327   42.3446 H   0  0  0  0  0  0  0  0  0  0  0  0
   44.2571   36.0108   46.4202 H   0  0  0  0  0  0  0  0  0  0  0  0
   44.9588   31.3572   42.9391 H   0  0  0  0  0  0  0  0  0  0  0  0
   45.4780   29.0571   43.3882 H   0  0  0  0  0  0  0  0  0  0  0  0
   46.6734   28.4509   45.4920 H   0  0  0  0  0  0  0  0  0  0  0  0
   47.6476   29.1365   47.4848 H   0  0  0  0  0  0  0  0  0  0  0  0
   48.3001   30.7956   49.0949 H   0  0  0  0  0  0  0  0  0  0  0  0
   47.8220   33.1481   48.7080 H   0  0  0  0  0  0  0  0  0  0  0  0
   46.7194   33.8510   46.7211 H   0  0  0  0  0  0  0  0  0  0  0  0
   47.4073   32.4068   39.2366 H   0  0  0  0  0  0  0  0  0  0  0  0
   46.9713   33.7074   38.1354 H   0  0  0  0  0  0  0  0  0  0  0  0
   51.6624   34.2644   42.3988 H   0  0  0  0  0  0  0  0  0  0  0  0
   51.6620   34.2629   42.4022 H   0  0  0  0  0  0  0  0  0  0  0  0
   45.0122   34.5835   37.5208 O   0  0  0  0  0  0  0  0  0  0  0  0
   44.5881   33.8446   38.6425 C   0  0  0  0  0  0  0  0  0  0  0  0
   45.4262   33.2037   39.5579 C   0  0  0  0  0  0  0  0  0  0  0  0
   44.7988   32.5339   40.5863 C   0  0  0  0  0  0  0  0  0  0  0  0
   45.5400   32.0636   41.2520 H   0  0  0  0  0  0  0  0  0  0  0  0
   43.4275   32.4955   40.7092 C   0  0  0  0  0  0  0  0  0  0  0  0
   42.6198   33.1334   39.7966 C   0  0  0  0  0  0  0  0  0  0  0  0
   43.1992   33.8050   38.7679 C   0  0  0  0  0  0  0  0  0  0  0  0
   42.3356   34.4287   37.8794 O   0  0  0  0  0  0  0  0  0  0  0  0
   45.3070   34.0309   36.7260 H   0  0  0  0  0  0  0  0  0  0  0  0
   43.0472   31.9395   41.5560 H   0  0  0  0  0  0  0  0  0  0  0  0
   41.5434   33.0824   39.9241 H   0  0  0  0  0  0  0  0  0  0  0  0
   41.7376   35.1667   38.2825 H   0  0  0  0  0  0  0  0  0  0  0  0
  1  2  2  0
  1  6  1  0
  2  3  1  0
  3  7  1  0
  3  4  2  0
  5  4  1  0
  6  5  2  0
  7 16  2  0
  8  9  2  0
  8  7  1  0
  9 10  1  0
 10 11  2  0
 11 12  1  0
 12 13  2  0
 14 13  1  0
 15 14  2  0
 16 11  1  0
 16 15  1  0
 17  2  1  0
 19 18  2  0
 19 17  1  1
 19 22  1  0
 20 19  1  0
 21 20  1  0
 23 22  1  0
 23 25  1  0
 24 23  2  0
  1 26  1  0
  5 27  1  0
  8 28  1  0
  9 29  1  0
 10 30  1  0
 12 31  1  0
 13 32  1  0
 14 33  1  0
 15 34  1  0
 21 35  1  0
 21 36  1  0
 25 37  1  0
 25 38  1  0
 39 40  1  0
 40 41  2  0
 41 42  1  0
 42 43  1  0
 42 44  2  0
 44 45  1  0
 45 46  2  0
 46 47  1  0
 46 40  1  0
 39 48  1  0
 44 49  1  0
 45 50  1  0
 47 51  1  0
 21 41  1  0
M  ISO  8  26  14  27  14  28  14  29  14  30  14  31  14  32  14  33  14
M  ISO  4  34  14  35   8  36   8  43  16
M  END
>  <DihAtoms>  (1) 
19,20,40,39

>  <DihDeg>  (1) 
74.51656382986606

$$$$
