
     RDKit          3D

 30 31  0  0  0  0  0  0  0  0999 V2000
   46.1366   35.2803   42.7011 C   0  0  0  0  0  0  0  0  0  0  0  0
   46.6915   34.1848   43.3427 C   0  0  0  0  0  0  0  0  0  0  0  0
   46.2046   33.8398   44.6062 C   0  0  0  0  0  0  0  0  0  0  0  0
   45.2086   34.6007   45.1401 N   0  0  0  0  0  0  0  0  0  0  0  0
   44.6962   35.6505   44.4943 C   0  0  0  0  0  0  0  0  0  0  0  0
   45.1607   35.9791   43.2895 N   0  0  0  0  0  0  0  0  0  0  0  0
   47.7078   33.4799   42.6976 O   0  0  0  0  0  0  0  0  0  0  0  0
   49.5474   35.3643   42.7935 O   0  0  0  0  0  0  0  0  0  0  0  0
   48.9777   34.3040   41.8999 P   0  0  1  0  0  0  0  0  0  0  0  0
   50.2201   33.2440   41.5089 O   0  0  0  0  0  0  0  0  0  0  0  0
   48.4099   35.0215   40.5054 O   0  0  0  0  0  0  0  0  0  0  0  0
   48.0490   34.4105   39.3596 C   0  0  0  0  0  0  0  0  0  0  0  0
   46.9569   33.7295   39.5112 O   0  0  0  0  0  0  0  0  0  0  0  0
   46.4638   35.6102   41.7152 H   0  0  0  0  0  0  0  0  0  0  0  0
   46.6476   32.9745   45.1053 H   0  0  0  0  0  0  0  0  0  0  0  0
   43.9172   36.1385   45.0616 H   0  0  0  0  0  0  0  0  0  0  0  0
   51.0748   33.7462   41.4999 H   0  0  0  0  0  0  0  0  0  0  0  0
   49.5243   36.4319   37.8923 O   0  0  0  0  0  0  0  0  0  0  0  0
   49.1817   35.2309   37.3057 C   0  0  0  0  0  0  0  0  0  0  0  0
   48.4961   34.2601   37.9440 C   0  0  0  0  0  0  0  0  0  0  0  0
   48.1858   33.0668   37.2795 C   0  0  0  0  0  0  0  0  0  0  0  0
   47.6259   32.2885   37.8193 H   0  0  0  0  0  0  0  0  0  0  0  0
   48.5376   32.8010   35.9859 C   0  0  0  0  0  0  0  0  0  0  0  0
   49.2350   33.7739   35.3181 C   0  0  0  0  0  0  0  0  0  0  0  0
   49.5356   34.9445   35.9805 C   0  0  0  0  0  0  0  0  0  0  0  0
   50.2493   35.9651   35.3284 O   0  0  0  0  0  0  0  0  0  0  0  0
   50.2584   36.4671   38.6116 H   0  0  0  0  0  0  0  0  0  0  0  0
   48.2598   31.8545   35.5448 H   0  0  0  0  0  0  0  0  0  0  0  0
   49.5433   33.6283   34.2946 H   0  0  0  0  0  0  0  0  0  0  0  0
   50.9953   36.4197   35.8416 H   0  0  0  0  0  0  0  0  0  0  0  0
  1  6  2  0
  1  2  1  0
  2  3  2  0
  3  4  1  0
  5  4  2  0
  6  5  1  0
  7  2  1  0
  9  7  1  1
  9  8  2  0
 10  9  1  0
 11  9  1  0
 12 13  2  0
 12 11  1  0
  1 14  1  0
  3 15  1  0
  5 16  1  0
 10 17  1  0
 18 19  1  0
 19 20  2  0
 20 21  1  0
 21 22  1  0
 21 23  2  0
 23 24  1  0
 24 25  2  0
 25 26  1  0
 25 19  1  0
 18 27  1  0
 23 28  1  0
 24 29  1  0
 26 30  1  0
 12 20  1  0
M  ISO  5  14  14  15  14  16  14  17   3  22  16
M  END
>  <DihAtoms>  (1) 
12,11,19,18

>  <DihDeg>  (1) 
-0.16287059638520324

$$$$
