
     RDKit          3D

 32 34  0  0  0  0  0  0  0  0999 V2000
   46.9990   33.9760   39.9750 C   0  0  0  0  0  0  0  0  0  0  0  0
   48.2090   34.4720   39.5520 C   0  0  0  0  0  0  0  0  0  0  0  0
   48.4090   34.0480   38.2540 C   0  0  0  0  0  0  0  0  0  0  0  0
   47.2980   33.3040   37.9410 C   0  0  0  0  0  0  0  0  0  0  0  0
   46.4790   33.2720   38.9620 O   0  0  0  0  0  0  0  0  0  0  0  0
   45.9590   32.9040   35.8920 C   0  0  0  0  0  0  0  0  0  0  0  0
   47.0720   32.6520   36.6620 C   0  0  0  0  0  0  0  0  0  0  0  0
   47.9630   31.7410   36.1470 C   0  0  0  0  0  0  0  0  0  0  0  0
   47.8500   31.0660   34.9480 C   0  0  0  0  0  0  0  0  0  0  0  0
   46.7220   31.3420   34.2010 C   0  0  0  0  0  0  0  0  0  0  0  0
   45.7730   32.2590   34.6640 C   0  0  0  0  0  0  0  0  0  0  0  0
   44.9950   33.8120   36.3270 O   0  0  0  0  0  0  0  0  0  0  0  0
   44.6560   32.5090   33.8860 O   0  0  0  0  0  0  0  0  0  0  0  0
   46.3280   34.1110   41.2040 O   0  0  0  0  0  0  0  0  0  0  0  0
   46.8570   34.8840   42.2310 C   0  0  0  0  0  0  0  0  0  0  0  0
   47.8970   35.5070   41.9620 O   0  0  0  0  0  0  0  0  0  0  0  0
   46.1300   34.8570   43.4650 C   0  0  0  0  0  0  0  0  0  0  0  0
   45.2270   35.8930   43.5930 C   0  0  0  0  0  0  0  0  0  0  0  0
   44.4720   35.9430   44.7710 C   0  0  0  0  0  0  0  0  0  0  0  0
   44.6590   34.9920   45.7110 N   0  0  0  0  0  0  0  0  0  0  0  0
   45.5650   33.9960   45.5270 C   0  0  0  0  0  0  0  0  0  0  0  0
   46.3060   33.9260   44.3990 N   0  0  0  0  0  0  0  0  0  0  0  0
   48.8958   35.0959   40.1429 H   0  0  0  0  0  0  0  0  0  0  0  0
   49.2736   34.2606   37.6081 H   0  0  0  0  0  0  0  0  0  0  0  0
   48.8570   31.5281   36.7516 H   0  0  0  0  0  0  0  0  0  0  0  0
   48.6133   30.3507   34.6079 H   0  0  0  0  0  0  0  0  0  0  0  0
   46.5688   30.8374   33.2356 H   0  0  0  0  0  0  0  0  0  0  0  0
   44.1960   33.9904   35.7703 H   0  0  0  0  0  0  0  0  0  0  0  0
   43.9719   33.1545   34.1950 H   0  0  0  0  0  0  0  0  0  0  0  0
   45.1056   36.6480   42.8023 H   0  0  0  0  0  0  0  0  0  0  0  0
   43.7367   36.7459   44.9285 H   0  0  0  0  0  0  0  0  0  0  0  0
   45.6974   33.2341   46.3092 H   0  0  0  0  0  0  0  0  0  0  0  0
  1 14  1  0
  2  1  2  0
  3  2  1  0
  4  3  2  0
  4  5  1  0
  5  1  1  0
  6 12  1  0
  6  7  2  0
  7  4  1  0
  8  7  1  0
  9  8  2  0
 10 11  2  0
 10  9  1  0
 11  6  1  0
 13 11  1  0
 14 15  1  0
 15 17  1  0
 16 15  2  0
 17 18  2  0
 17 22  1  0
 18 19  1  0
 19 20  2  0
 21 20  1  0
 22 21  2  0
  2 23  1  0
  3 24  1  0
  8 25  1  0
  9 26  1  0
 10 27  1  0
 12 28  1  0
 13 29  1  0
 18 30  1  0
 19 31  1  0
 21 32  1  0
M  ISO  8  23  14  24  14  25  14  26  14  27  14  28   3  29   3  30  14
M  ISO  2  31  14  32  14
M  END
>  <minimizedAffinity>  (1) 
-6.36758566

>  <minimizedRMSD>  (1) 
1.15572321

$$$$
