
     RDKit          3D

 25 26  0  0  0  0  0  0  0  0999 V2000
   44.3807   35.7852   44.4412 C   0  0  0  0  0  0  0  0  0  0  0  0
   44.6703   35.0582   43.2629 C   0  0  0  0  0  0  0  0  0  0  0  0
   45.2941   33.8242   43.3962 C   0  0  0  0  0  0  0  0  0  0  0  0
   45.5884   33.3891   44.6341 N   0  0  0  0  0  0  0  0  0  0  0  0
   45.3060   34.0941   45.7501 C   0  0  0  0  0  0  0  0  0  0  0  0
   44.7032   35.2890   45.6469 N   0  0  0  0  0  0  0  0  0  0  0  0
   44.2563   35.7262   42.0056 C   0  0  0  0  0  0  0  0  0  0  0  0
   43.8965   36.7494   44.3953 H   0  0  0  0  0  0  0  0  0  0  0  0
   45.4922   33.3050   42.4706 H   0  0  0  0  0  0  0  0  0  0  0  0
   45.5456   33.7384   46.7241 H   0  0  0  0  0  0  0  0  0  0  0  0
   44.1015   34.8787   41.2699 H   0  0  0  0  0  0  0  0  0  0  0  0
   43.3037   36.2483   42.1865 H   0  0  0  0  0  0  0  0  0  0  0  0
   44.3467   36.9400   39.3814 O   0  0  0  0  0  0  0  0  0  0  0  0
   45.3753   37.2175   40.2815 C   0  0  0  0  0  0  0  0  0  0  0  0
   45.2892   36.6223   41.5155 C   0  0  0  0  0  0  0  0  0  0  0  0
   46.3318   36.9274   42.3745 C   0  0  0  0  0  0  0  0  0  0  0  0
   46.3520   36.5045   43.3714 H   0  0  0  0  0  0  0  0  0  0  0  0
   47.4076   37.7462   42.1065 C   0  0  0  0  0  0  0  0  0  0  0  0
   47.4572   38.3307   40.8418 C   0  0  0  0  0  0  0  0  0  0  0  0
   46.4364   38.0589   39.9390 C   0  0  0  0  0  0  0  0  0  0  0  0
   46.4855   38.6388   38.6834 O   0  0  0  0  0  0  0  0  0  0  0  0
   44.0781   37.6398   38.6794 H   0  0  0  0  0  0  0  0  0  0  0  0
   48.1851   37.9415   42.8225 H   0  0  0  0  0  0  0  0  0  0  0  0
   48.2687   38.9760   40.5776 H   0  0  0  0  0  0  0  0  0  0  0  0
   47.0287   39.4823   38.5455 H   0  0  0  0  0  0  0  0  0  0  0  0
  1  6  2  0
  2  3  2  0
  2  1  1  0
  3  4  1  0
  4  5  2  0
  6  5  1  0
  7  2  1  0
  1  8  1  0
  3  9  1  0
  5 10  1  0
  7 11  1  0
  7 12  1  0
 13 14  1  0
 14 15  2  0
 15 16  1  0
 16 17  1  0
 16 18  2  0
 18 19  1  0
 19 20  2  0
 20 21  1  0
 20 14  1  0
 13 22  1  0
 18 23  1  0
 19 24  1  0
 21 25  1  0
  7 15  1  0
M  ISO  6   8  14   9  14  10  14  11   8  12   8  17  16
M  END
>  <DihAtoms>  (1) 
1,6,14,13

>  <DihDeg>  (1) 
77.10012791120096

$$$$
