
     RDKit          3D

 25 26  0  0  0  0  0  0  0  0999 V2000
   45.4415   35.0651   43.9936 C   0  0  0  0  0  0  0  0  0  0  0  0
   46.5006   34.2929   43.5087 C   0  0  0  0  0  0  0  0  0  0  0  0
   47.0131   33.2915   44.3385 C   0  0  0  0  0  0  0  0  0  0  0  0
   46.4659   33.1185   45.5589 N   0  0  0  0  0  0  0  0  0  0  0  0
   45.4273   33.8958   46.0005 C   0  0  0  0  0  0  0  0  0  0  0  0
   44.9236   34.8689   45.2039 N   0  0  0  0  0  0  0  0  0  0  0  0
   44.8930   36.1403   43.0998 C   0  0  0  0  0  0  0  0  0  0  0  0
   46.9455   34.4228   42.5346 H   0  0  0  0  0  0  0  0  0  0  0  0
   47.8159   32.6499   44.0662 H   0  0  0  0  0  0  0  0  0  0  0  0
   44.9426   37.1105   43.6468 H   0  0  0  0  0  0  0  0  0  0  0  0
   45.4824   36.2330   42.1858 H   0  0  0  0  0  0  0  0  0  0  0  0
   43.8512   35.8979   42.7863 H   0  0  0  0  0  0  0  0  0  0  0  0
   47.0076   32.9437   48.0685 O   0  0  0  0  0  0  0  0  0  0  0  0
   45.6704   33.2200   48.3384 C   0  0  0  0  0  0  0  0  0  0  0  0
   44.8389   33.7002   47.3292 C   0  0  0  0  0  0  0  0  0  0  0  0
   43.5147   33.9737   47.5960 C   0  0  0  0  0  0  0  0  0  0  0  0
   42.9064   34.3465   46.7759 H   0  0  0  0  0  0  0  0  0  0  0  0
   43.0005   33.7706   48.8800 C   0  0  0  0  0  0  0  0  0  0  0  0
   43.8380   33.2900   49.8849 C   0  0  0  0  0  0  0  0  0  0  0  0
   45.1591   33.0213   49.6023 C   0  0  0  0  0  0  0  0  0  0  0  0
   46.0178   32.5378   50.5972 O   0  0  0  0  0  0  0  0  0  0  0  0
   47.5393   32.2075   48.5200 H   0  0  0  0  0  0  0  0  0  0  0  0
   41.9393   34.0024   49.0457 H   0  0  0  0  0  0  0  0  0  0  0  0
   43.4133   33.1442   50.8614 H   0  0  0  0  0  0  0  0  0  0  0  0
   46.6786   31.8173   50.3356 H   0  0  0  0  0  0  0  0  0  0  0  0
  1  6  2  0
  2  1  1  0
  2  3  2  0
  3  4  1  0
  4  5  2  0
  6  5  1  0
  7  1  1  0
  2  8  1  0
  3  9  1  0
  7 10  1  0
  7 11  1  0
  7 12  1  0
 13 14  1  0
 14 15  2  0
 15 16  1  0
 16 17  1  0
 16 18  2  0
 18 19  1  0
 19 20  2  0
 20 21  1  0
 20 14  1  0
 13 22  1  0
 18 23  1  0
 19 24  1  0
 21 25  1  0
  5 15  1  0
M  ISO  6   8  14   9  14  10   8  11   8  12   8  17  16
M  END
>  <DihAtoms>  (1) 
3,4,14,13

>  <DihDeg>  (1) 
0.0004631132465964196

$$$$
