
     RDKit          3D

 25 26  0  0  0  0  0  0  0  0999 V2000
   45.4415   35.0651   43.9936 C   0  0  0  0  0  0  0  0  0  0  0  0
   46.5006   34.2929   43.5087 C   0  0  0  0  0  0  0  0  0  0  0  0
   47.0131   33.2915   44.3385 C   0  0  0  0  0  0  0  0  0  0  0  0
   46.4659   33.1185   45.5589 N   0  0  0  0  0  0  0  0  0  0  0  0
   45.4273   33.8958   46.0005 C   0  0  0  0  0  0  0  0  0  0  0  0
   44.9236   34.8689   45.2039 N   0  0  0  0  0  0  0  0  0  0  0  0
   44.8930   36.1403   43.0998 C   0  0  0  0  0  0  0  0  0  0  0  0
   46.9455   34.4228   42.5346 H   0  0  0  0  0  0  0  0  0  0  0  0
   47.8159   32.6499   44.0662 H   0  0  0  0  0  0  0  0  0  0  0  0
   44.9426   37.1105   43.6468 H   0  0  0  0  0  0  0  0  0  0  0  0
   45.4824   36.2330   42.1858 H   0  0  0  0  0  0  0  0  0  0  0  0
   43.8512   35.8979   42.7863 H   0  0  0  0  0  0  0  0  0  0  0  0
   47.0159   34.1778   48.2538 O   0  0  0  0  0  0  0  0  0  0  0  0
   45.6746   33.8520   48.4333 C   0  0  0  0  0  0  0  0  0  0  0  0
   44.8389   33.7002   47.3292 C   0  0  0  0  0  0  0  0  0  0  0  0
   43.5108   33.3775   47.5065 C   0  0  0  0  0  0  0  0  0  0  0  0
   42.8993   33.2699   46.6143 H   0  0  0  0  0  0  0  0  0  0  0  0
   42.9968   33.2013   48.7945 C   0  0  0  0  0  0  0  0  0  0  0  0
   43.8384   33.3546   49.8946 C   0  0  0  0  0  0  0  0  0  0  0  0
   45.1635   33.6772   49.7008 C   0  0  0  0  0  0  0  0  0  0  0  0
   46.0264   33.8361   50.7922 O   0  0  0  0  0  0  0  0  0  0  0  0
   47.7640   33.8664   48.8637 H   0  0  0  0  0  0  0  0  0  0  0  0
   41.9324   32.9447   48.8869 H   0  0  0  0  0  0  0  0  0  0  0  0
   43.4138   33.2127   50.8718 H   0  0  0  0  0  0  0  0  0  0  0  0
   46.9645   33.4663   50.7049 H   0  0  0  0  0  0  0  0  0  0  0  0
  1  6  2  0
  2  1  1  0
  2  3  2  0
  3  4  1  0
  4  5  2  0
  6  5  1  0
  7  1  1  0
  2  8  1  0
  3  9  1  0
  7 10  1  0
  7 11  1  0
  7 12  1  0
 13 14  1  0
 14 15  2  0
 15 16  1  0
 16 17  1  0
 16 18  2  0
 18 19  1  0
 19 20  2  0
 20 21  1  0
 20 14  1  0
 13 22  1  0
 18 23  1  0
 19 24  1  0
 21 25  1  0
  5 15  1  0
M  ISO  6   8  14   9  14  10   8  11   8  12   8  17  16
M  END
>  <DihAtoms>  (1) 
3,4,14,13

>  <DihDeg>  (1) 
0.0004631132465964196

$$$$
