
     RDKit          3D

 46 48  0  0  0  0  0  0  0  0999 V2000
   50.2200   34.9044   42.7136 O   0  0  0  0  0  0  0  0  0  0  0  0
   49.0588   34.6190   41.8436 P   0  0  1  0  0  0  0  0  0  0  0  0
   48.9701   35.8759   40.6966 O   0  0  0  0  0  0  0  0  0  0  0  0
   49.3142   33.1593   40.9616 O   0  0  0  0  0  0  0  0  0  0  0  0
   49.5311   31.4395   42.5591 C   0  0  0  0  0  0  0  0  0  0  0  0
   50.0545   32.1191   41.4844 C   0  0  0  0  0  0  0  0  0  0  0  0
   51.3145   31.7265   40.9666 C   0  0  0  0  0  0  0  0  0  0  0  0
   51.9318   30.6854   41.5785 N   0  0  0  0  0  0  0  0  0  0  0  0
   51.3963   30.0507   42.6158 C   0  0  0  0  0  0  0  0  0  0  0  0
   50.1891   30.4421   43.0964 N   0  0  0  0  0  0  0  0  0  0  0  0
   47.0896   31.0382   42.8340 C   0  0  0  0  0  0  0  0  0  0  0  0
   46.9216   30.6983   41.6131 O   0  0  0  0  0  0  0  0  0  0  0  0
   48.3872   31.4370   43.3985 N   0  0  0  0  0  0  0  0  0  0  0  0
   47.6186   34.5537   42.6491 O   0  0  0  0  0  0  0  0  0  0  0  0
   46.5368   35.1261   42.0940 C   0  0  2  0  0  0  0  0  0  0  0  0
   45.4913   35.6067   43.0278 C   0  0  0  0  0  0  0  0  0  0  0  0
   44.1867   35.7459   42.2947 C   0  0  0  0  0  0  0  0  0  0  0  0
   43.6537   34.5175   41.9193 O   0  0  0  0  0  0  0  0  0  0  0  0
   44.6495   33.5872   41.7169 C   0  0  0  0  0  0  0  0  0  0  0  0
   45.8727   34.2127   41.0855 C   0  0  1  0  0  0  0  0  0  0  0  0
   49.3390   35.6103   39.8189 H   0  0  0  0  0  0  0  0  0  0  0  0
   51.7061   32.2820   40.1149 H   0  0  0  0  0  0  0  0  0  0  0  0
   51.8839   29.2161   43.1114 H   0  0  0  0  0  0  0  0  0  0  0  0
   46.1945   31.0191   43.4631 H   0  0  0  0  0  0  0  0  0  0  0  0
   48.3351   31.6941   44.4021 H   0  0  0  0  0  0  0  0  0  0  0  0
   46.9337   36.0345   41.5634 H   0  0  0  0  0  0  0  0  0  0  0  0
   45.3273   34.9427   43.9043 H   0  0  0  0  0  0  0  0  0  0  0  0
   45.7350   36.6124   43.4749 H   0  0  0  0  0  0  0  0  0  0  0  0
   44.1593   36.5230   41.5365 H   0  0  0  0  0  0  0  0  0  0  0  0
   43.4721   36.1520   43.1023 H   0  0  0  0  0  0  0  0  0  0  0  0
   44.2382   32.7611   41.1190 H   0  0  0  0  0  0  0  0  0  0  0  0
   44.9554   33.1649   42.7027 H   0  0  0  0  0  0  0  0  0  0  0  0
   46.5991   33.3341   41.0302 H   0  0  0  0  0  0  0  0  0  0  0  0
   45.7915   36.9285   40.6219 O   0  0  0  0  0  0  0  0  0  0  0  0
   45.6320   36.0330   39.5453 C   0  0  0  0  0  0  0  0  0  0  0  0
   45.6783   34.6366   39.7412 C   0  0  0  0  0  0  0  0  0  0  0  0
   45.4981   33.9618   38.5527 C   0  0  0  0  0  0  0  0  0  0  0  0
   45.5088   32.9054   38.6289 H   0  0  0  0  0  0  0  0  0  0  0  0
   45.2960   34.5037   37.3055 C   0  0  0  0  0  0  0  0  0  0  0  0
   45.2651   35.8765   37.2037 C   0  0  0  0  0  0  0  0  0  0  0  0
   45.4344   36.6159   38.3315 C   0  0  0  0  0  0  0  0  0  0  0  0
   45.3932   37.9941   38.1666 O   0  0  0  0  0  0  0  0  0  0  0  0
   45.2891   37.7818   40.6928 H   0  0  0  0  0  0  0  0  0  0  0  0
   45.1689   33.8573   36.4524 H   0  0  0  0  0  0  0  0  0  0  0  0
   45.1051   36.2654   36.2138 H   0  0  0  0  0  0  0  0  0  0  0  0
   46.1869   38.5865   38.0622 H   0  0  0  0  0  0  0  0  0  0  0  0
  2 14  1  1
  2  1  2  0
  3  2  1  0
  4  6  1  0
  4  2  1  0
  5 10  2  0
  5 13  1  0
  6  5  1  0
  7  6  2  0
  7  8  1  0
  8  9  2  0
  9 10  1  0
 11 13  1  0
 12 11  2  0
 15 14  1  0
 15 16  1  0
 17 16  1  0
 18 17  1  0
 19 18  1  0
 20 19  1  0
 20 15  1  0
  3 21  1  0
  7 22  1  0
  9 23  1  0
 11 24  1  0
 13 25  1  0
 15 26  1  6
 16 27  1  0
 16 28  1  0
 17 29  1  0
 17 30  1  0
 19 31  1  0
 19 32  1  0
 20 33  1  6
 34 35  1  0
 35 36  2  0
 36 37  1  0
 37 38  1  0
 37 39  2  0
 39 40  1  0
 40 41  2  0
 41 42  1  0
 41 35  1  0
 34 43  1  0
 39 44  1  0
 40 45  1  0
 42 46  1  0
 20 36  1  0
M  ISO  8  21   3  22  14  23  14  24   6  26  13  27  13  28  13  29  13
M  ISO  5  30  13  31  13  32  13  33  13  38  16
M  END
>  <DihAtoms>  (1) 
18,19,35,34

>  <DihDeg>  (1) 
-71.20761666929006

$$$$
