
     RDKit          3D

 47 51  0  0  1  0  0  0  0  0999 V2000
   46.2260   32.2530   43.9310 C   0  0  0  0  0  0  0  0  0  0  0  0
   46.3940   31.5520   45.1220 C   0  0  0  0  0  0  0  0  0  0  0  0
   46.0560   32.0700   46.3660 C   0  0  0  0  0  0  0  0  0  0  0  0
   45.5270   33.3360   46.4610 C   0  0  0  0  0  0  0  0  0  0  0  0
   45.3460   34.0540   45.3100 C   0  0  0  0  0  0  0  0  0  0  0  0
   44.8120   35.3200   45.4030 C   0  0  0  0  0  0  0  0  0  0  0  0
   44.5990   36.1000   44.2750 C   0  0  0  0  0  0  0  0  0  0  0  0
   44.9490   35.5440   43.0500 C   0  0  0  0  0  0  0  0  0  0  0  0
   45.4850   34.2630   42.9980 C   0  0  0  0  0  0  0  0  0  0  0  0
   45.6930   33.5030   44.1080 C   0  0  0  0  0  0  0  0  0  0  0  0
   47.0020   34.4010   41.2450 C   0  0  0  0  0  0  0  0  0  0  0  0
   45.7110   33.9630   41.5960 C   0  0  0  0  0  0  0  0  0  0  0  0
   44.9770   33.3360   40.6090 C   0  0  0  0  0  0  0  0  0  0  0  0
   45.4860   33.1500   39.3450 C   0  0  0  0  0  0  0  0  0  0  0  0
   46.7460   33.5720   38.9860 C   0  0  0  0  0  0  0  0  0  0  0  0
   47.5010   34.2020   39.9520 C   0  0  0  0  0  0  0  0  0  0  0  0
   47.9310   35.0590   42.0710 O   0  0  0  0  0  0  0  0  0  0  0  0
   48.7640   34.6100   39.5430 O   0  0  0  0  0  0  0  0  0  0  0  0
   46.6030   31.6540   42.7210 N   0  0  0  0  0  0  0  0  0  0  0  0
   49.1290   31.3190   42.6170 C   0  0  1  0  0  0  0  0  0  0  0  0
   48.5340   30.8520   41.3030 C   0  0  0  0  0  0  0  0  0  0  0  0
   47.7650   30.8160   42.6210 C   0  0  2  0  0  0  0  0  0  0  0  0
   52.4910   29.8620   43.2520 C   0  0  0  0  0  0  0  0  0  0  0  0
   52.2010   28.9420   44.3070 C   0  0  0  0  0  0  0  0  0  0  0  0
   50.8620   28.8600   44.7700 C   0  0  0  0  0  0  0  0  0  0  0  0
   49.9140   29.6290   44.2210 N   0  0  0  0  0  0  0  0  0  0  0  0
   50.2240   30.4950   43.2170 C   0  0  0  0  0  0  0  0  0  0  0  0
   51.5090   30.6070   42.7390 N   0  0  0  0  0  0  0  0  0  0  0  0
   46.8155   30.5370   45.0758 H   0  0  0  0  0  0  0  0  0  0  0  0
   46.2113   31.4684   47.2737 H   0  0  0  0  0  0  0  0  0  0  0  0
   45.2559   33.7612   47.4386 H   0  0  0  0  0  0  0  0  0  0  0  0
   44.5486   35.7216   46.3926 H   0  0  0  0  0  0  0  0  0  0  0  0
   44.1729   37.1115   44.3470 H   0  0  0  0  0  0  0  0  0  0  0  0
   44.8018   36.1174   42.1229 H   0  0  0  0  0  0  0  0  0  0  0  0
   43.9628   32.9773   40.8386 H   0  0  0  0  0  0  0  0  0  0  0  0
   44.8626   32.6449   38.5925 H   0  0  0  0  0  0  0  0  0  0  0  0
   47.1347   33.4129   37.9693 H   0  0  0  0  0  0  0  0  0  0  0  0
   48.8152   35.3209   41.7108 H   0  0  0  0  0  0  0  0  0  0  0  0
   49.3661   35.0699   40.1802 H   0  0  0  0  0  0  0  0  0  0  0  0
   46.0309   31.8194   41.8806 H   0  0  0  0  0  0  0  0  0  0  0  0
   49.5919   32.2505   42.9748 H   0  0  0  0  0  0  0  0  0  0  0  0
   48.2678   31.5789   40.5215 H   0  0  0  0  0  0  0  0  0  0  0  0
   48.8049   30.1272   40.5211 H   0  0  0  0  0  0  0  0  0  0  0  0
   47.2656   30.0640   43.2495 H   0  0  0  0  0  0  0  0  0  0  0  0
   53.5166   29.9555   42.8654 H   0  0  0  0  0  0  0  0  0  0  0  0
   52.9919   28.3165   44.7467 H   0  0  0  0  0  0  0  0  0  0  0  0
   50.6029   28.1636   45.5811 H   0  0  0  0  0  0  0  0  0  0  0  0
  1 10  1  0
  1  2  2  0
  2  3  1  0
  3  4  2  0
  5  6  2  0
  5  4  1  0
  7  6  1  0
  8  7  2  0
  9  8  1  0
  9 10  2  0
 10  5  1  0
 11 12  2  0
 11 17  1  0
 12  9  1  0
 13 12  1  0
 14 13  2  0
 15 14  1  0
 15 16  2  0
 16 11  1  0
 18 16  1  0
 19  1  1  0
 20 22  1  0
 20 27  1  0
 21 20  1  0
 21 22  1  0
 22 19  1  0
 23 24  2  0
 24 25  1  0
 26 25  2  0
 27 26  1  0
 28 27  2  0
 28 23  1  0
  2 29  1  0
  3 30  1  0
  4 31  1  0
  6 32  1  0
  7 33  1  0
  8 34  1  0
 13 35  1  0
 14 36  1  0
 15 37  1  0
 17 38  1  0
 18 39  1  0
 19 40  1  0
 20 41  1  6
 21 42  1  0
 21 43  1  0
 22 44  1  1
 23 45  1  0
 24 46  1  0
 25 47  1  0
M  ISO  8  29  14  30  14  31  14  32  14  33  14  34  14  35  14  36  14
M  ISO  8  37  14  38   3  39   3  41  13  42  13  43  13  44  13  45  14
M  ISO  2  46  14  47  14
M  END
>  <minimizedAffinity>  (1) 
-5.66649246

>  <minimizedRMSD>  (1) 
1.86948216

$$$$
