
     RDKit          3D

 25 26  0  0  0  0  0  0  0  0999 V2000
   44.3807   35.7852   44.4412 C   0  0  0  0  0  0  0  0  0  0  0  0
   44.6703   35.0582   43.2629 C   0  0  0  0  0  0  0  0  0  0  0  0
   45.2941   33.8242   43.3962 C   0  0  0  0  0  0  0  0  0  0  0  0
   45.5884   33.3891   44.6341 N   0  0  0  0  0  0  0  0  0  0  0  0
   45.3060   34.0941   45.7501 C   0  0  0  0  0  0  0  0  0  0  0  0
   44.7032   35.2890   45.6469 N   0  0  0  0  0  0  0  0  0  0  0  0
   44.2563   35.7262   42.0056 C   0  0  0  0  0  0  0  0  0  0  0  0
   43.8965   36.7494   44.3953 H   0  0  0  0  0  0  0  0  0  0  0  0
   45.4922   33.3050   42.4706 H   0  0  0  0  0  0  0  0  0  0  0  0
   45.5456   33.7384   46.7241 H   0  0  0  0  0  0  0  0  0  0  0  0
   44.1015   34.8787   41.2699 H   0  0  0  0  0  0  0  0  0  0  0  0
   43.3037   36.2483   42.1865 H   0  0  0  0  0  0  0  0  0  0  0  0
   44.9754   38.2805   43.1573 O   0  0  0  0  0  0  0  0  0  0  0  0
   45.6618   37.8411   42.0255 C   0  0  0  0  0  0  0  0  0  0  0  0
   45.2892   36.6223   41.5155 C   0  0  0  0  0  0  0  0  0  0  0  0
   45.9983   36.2281   40.3931 C   0  0  0  0  0  0  0  0  0  0  0  0
   45.7755   35.2804   39.9184 H   0  0  0  0  0  0  0  0  0  0  0  0
   47.0076   36.9283   39.7681 C   0  0  0  0  0  0  0  0  0  0  0  0
   47.3552   38.1615   40.3175 C   0  0  0  0  0  0  0  0  0  0  0  0
   46.6758   38.6067   41.4450 C   0  0  0  0  0  0  0  0  0  0  0  0
   47.0204   39.8309   41.9905 O   0  0  0  0  0  0  0  0  0  0  0  0
   45.4484   38.8833   43.8411 H   0  0  0  0  0  0  0  0  0  0  0  0
   47.5189   36.5621   38.8964 H   0  0  0  0  0  0  0  0  0  0  0  0
   48.1320   38.7492   39.8749 H   0  0  0  0  0  0  0  0  0  0  0  0
   47.9383   40.2173   41.8063 H   0  0  0  0  0  0  0  0  0  0  0  0
  1  6  2  0
  2  3  2  0
  2  1  1  0
  3  4  1  0
  4  5  2  0
  6  5  1  0
  7  2  1  0
  1  8  1  0
  3  9  1  0
  5 10  1  0
  7 11  1  0
  7 12  1  0
 13 14  1  0
 14 15  2  0
 15 16  1  0
 16 17  1  0
 16 18  2  0
 18 19  1  0
 19 20  2  0
 20 21  1  0
 20 14  1  0
 13 22  1  0
 18 23  1  0
 19 24  1  0
 21 25  1  0
  7 15  1  0
M  ISO  6   8  14   9  14  10  14  11   8  12   8  17  16
M  END
>  <DihAtoms>  (1) 
1,6,14,13

>  <DihDeg>  (1) 
77.10012791120096

$$$$
