
     RDKit          3D

 25 26  0  0  0  0  0  0  0  0999 V2000
   45.4415   35.0651   43.9936 C   0  0  0  0  0  0  0  0  0  0  0  0
   46.5006   34.2929   43.5087 C   0  0  0  0  0  0  0  0  0  0  0  0
   47.0131   33.2915   44.3385 C   0  0  0  0  0  0  0  0  0  0  0  0
   46.4659   33.1185   45.5589 N   0  0  0  0  0  0  0  0  0  0  0  0
   45.4273   33.8958   46.0005 C   0  0  0  0  0  0  0  0  0  0  0  0
   44.9236   34.8689   45.2039 N   0  0  0  0  0  0  0  0  0  0  0  0
   44.8930   36.1403   43.0998 C   0  0  0  0  0  0  0  0  0  0  0  0
   46.9455   34.4228   42.5346 H   0  0  0  0  0  0  0  0  0  0  0  0
   47.8159   32.6499   44.0662 H   0  0  0  0  0  0  0  0  0  0  0  0
   44.9426   37.1105   43.6468 H   0  0  0  0  0  0  0  0  0  0  0  0
   45.4824   36.2330   42.1858 H   0  0  0  0  0  0  0  0  0  0  0  0
   43.8512   35.8979   42.7863 H   0  0  0  0  0  0  0  0  0  0  0  0
   43.3062   32.1394   46.3109 O   0  0  0  0  0  0  0  0  0  0  0  0
   43.7747   32.8080   47.4382 C   0  0  0  0  0  0  0  0  0  0  0  0
   44.8389   33.7002   47.3292 C   0  0  0  0  0  0  0  0  0  0  0  0
   45.3030   34.3625   48.4451 C   0  0  0  0  0  0  0  0  0  0  0  0
   46.1353   35.0483   48.3091 H   0  0  0  0  0  0  0  0  0  0  0  0
   44.7082   34.1418   49.6908 C   0  0  0  0  0  0  0  0  0  0  0  0
   43.6439   33.2479   49.7928 C   0  0  0  0  0  0  0  0  0  0  0  0
   43.1915   32.5939   48.6681 C   0  0  0  0  0  0  0  0  0  0  0  0
   42.1236   31.6916   48.7482 O   0  0  0  0  0  0  0  0  0  0  0  0
   42.3377   31.8746   46.1675 H   0  0  0  0  0  0  0  0  0  0  0  0
   45.1117   34.6921   50.5521 H   0  0  0  0  0  0  0  0  0  0  0  0
   43.2077   33.0996   50.7638 H   0  0  0  0  0  0  0  0  0  0  0  0
   41.4420   31.7054   48.0001 H   0  0  0  0  0  0  0  0  0  0  0  0
  1  6  2  0
  2  1  1  0
  2  3  2  0
  3  4  1  0
  4  5  2  0
  6  5  1  0
  7  1  1  0
  2  8  1  0
  3  9  1  0
  7 10  1  0
  7 11  1  0
  7 12  1  0
 13 14  1  0
 14 15  2  0
 15 16  1  0
 16 17  1  0
 16 18  2  0
 18 19  1  0
 19 20  2  0
 20 21  1  0
 20 14  1  0
 13 22  1  0
 18 23  1  0
 19 24  1  0
 21 25  1  0
  5 15  1  0
M  ISO  6   8  14   9  14  10   8  11   8  12   8  17  16
M  END
>  <DihAtoms>  (1) 
3,4,14,13

>  <DihDeg>  (1) 
0.0004631132465964196

$$$$
