
     RDKit          3D

 53 57  0  0  0  0  0  0  0  0999 V2000
   45.7637   33.1355   46.2331 C   0  0  0  0  0  0  0  0  0  0  0  0
   45.9295   31.9475   45.8287 C   0  0  0  0  0  0  0  0  0  0  0  0
   44.5371   36.1440   44.4923 C   0  0  0  0  0  0  0  0  0  0  0  0
   45.2118   36.0966   43.2759 C   0  0  0  0  0  0  0  0  0  0  0  0
   46.0511   35.0507   43.0946 C   0  0  0  0  0  0  0  0  0  0  0  0
   46.2039   34.1117   44.0723 N   0  0  0  0  0  0  0  0  0  0  0  0
   45.5388   34.1840   45.2374 C   0  0  0  0  0  0  0  0  0  0  0  0
   44.7163   35.2067   45.4174 N   0  0  0  0  0  0  0  0  0  0  0  0
   46.8234   34.8654   41.8715 C   0  0  0  0  0  0  0  0  0  0  0  0
   48.0495   35.4105   41.6280 C   0  0  0  0  0  0  0  0  0  0  0  0
   48.7641   35.2218   40.4614 C   0  0  0  0  0  0  0  0  0  0  0  0
   48.2374   34.4381   39.4546 C   0  0  0  0  0  0  0  0  0  0  0  0
   47.0087   33.8609   39.6361 C   0  0  0  0  0  0  0  0  0  0  0  0
   46.3419   34.0868   40.8253 C   0  0  0  0  0  0  0  0  0  0  0  0
   46.0911   30.8997   46.9060 C   0  0  0  0  0  0  0  0  0  0  0  0
   45.8952   31.4912   48.2515 C   0  0  1  0  0  0  0  0  0  0  0  0
   45.7069   30.5050   49.3531 C   0  0  0  0  0  0  0  0  0  0  0  0
   46.9169   31.3203   49.3003 C   0  0  1  0  0  0  0  0  0  0  0  0
   48.2449   30.7584   48.9037 C   0  0  2  0  0  0  0  0  0  0  0  0
   49.1797   30.4625   50.1040 C   0  0  0  0  0  0  0  0  0  0  0  0
   49.4850   31.5908   49.2130 C   0  0  1  0  0  0  0  0  0  0  0  0
   45.7636   33.6080   47.2043 H   0  0  0  0  0  0  0  0  0  0  0  0
   45.9287   31.6081   44.8135 H   0  0  0  0  0  0  0  0  0  0  0  0
   43.8581   36.9816   44.6502 H   0  0  0  0  0  0  0  0  0  0  0  0
   45.0826   36.8445   42.5118 H   0  0  0  0  0  0  0  0  0  0  0  0
   48.4995   36.0376   42.4021 H   0  0  0  0  0  0  0  0  0  0  0  0
   49.7319   35.6754   40.3165 H   0  0  0  0  0  0  0  0  0  0  0  0
   48.7305   34.2396   38.5115 H   0  0  0  0  0  0  0  0  0  0  0  0
   46.5734   33.2474   38.8729 H   0  0  0  0  0  0  0  0  0  0  0  0
   45.3598   33.5995   40.9179 H   0  0  0  0  0  0  0  0  0  0  0  0
   45.2048   30.2197   46.7308 H   0  0  0  0  0  0  0  0  0  0  0  0
   46.9618   30.3089   46.7097 H   0  0  0  0  0  0  0  0  0  0  0  0
   45.0697   32.2614   48.3074 H   0  0  0  0  0  0  0  0  0  0  0  0
   44.9882   30.6680   50.1822 H   0  0  0  0  0  0  0  0  0  0  0  0
   45.7767   29.4148   49.1107 H   0  0  0  0  0  0  0  0  0  0  0  0
   46.9868   32.1424   50.0434 H   0  0  0  0  0  0  0  0  0  0  0  0
   48.3614   29.9852   48.1364 H   0  0  0  0  0  0  0  0  0  0  0  0
   48.7874   30.7166   51.1285 H   0  0  0  0  0  0  0  0  0  0  0  0
   49.7499   29.5364   50.1327 H   0  0  0  0  0  0  0  0  0  0  0  0
   49.2673   32.6108   49.5925 H   0  0  0  0  0  0  0  0  0  0  0  0
   49.7723   33.2694   46.9594 O   0  0  0  0  0  0  0  0  0  0  0  0
   50.7675   32.3040   47.1639 C   0  0  0  0  0  0  0  0  0  0  0  0
   50.6403   31.4757   48.2623 C   0  0  0  0  0  0  0  0  0  0  0  0
   51.6156   30.5218   48.4720 C   0  0  0  0  0  0  0  0  0  0  0  0
   51.5963   29.8373   49.2989 H   0  0  0  0  0  0  0  0  0  0  0  0
   52.7115   30.3657   47.6257 C   0  0  0  0  0  0  0  0  0  0  0  0
   52.8174   31.2097   46.5288 C   0  0  0  0  0  0  0  0  0  0  0  0
   51.8400   32.1820   46.2994 C   0  0  0  0  0  0  0  0  0  0  0  0
   51.9602   33.0287   45.1859 O   0  0  0  0  0  0  0  0  0  0  0  0
   49.7848   34.0649   47.6117 H   0  0  0  0  0  0  0  0  0  0  0  0
   53.4732   29.6225   47.7874 H   0  0  0  0  0  0  0  0  0  0  0  0
   53.6775   31.0829   45.8697 H   0  0  0  0  0  0  0  0  0  0  0  0
   52.6044   33.8179   45.3436 H   0  0  0  0  0  0  0  0  0  0  0  0
  2  1  2  0
  2 15  1  0
  3  8  2  0
  4  3  1  0
  5  4  2  0
  5  6  1  0
  6  7  2  0
  7  8  1  0
  7  1  1  0
  9  5  1  0
 10  9  2  0
 11 10  1  0
 12 13  1  0
 12 11  2  0
 13 14  2  0
 14  9  1  0
 15 16  1  0
 16 18  1  0
 16 17  1  0
 18 17  1  0
 19 21  1  0
 19 18  1  0
 19 20  1  0
 21 20  1  0
  1 22  1  0
  2 23  1  0
  3 24  1  0
  4 25  1  0
 10 26  1  0
 11 27  1  0
 12 28  1  0
 13 29  1  0
 14 30  1  0
 15 31  1  0
 15 32  1  0
 16 33  1  6
 17 34  1  0
 17 35  1  0
 18 36  1  1
 19 37  1  6
 20 38  1  0
 20 39  1  0
 21 40  1  1
 41 42  1  0
 42 43  2  0
 43 44  1  0
 44 45  1  0
 44 46  2  0
 46 47  1  0
 47 48  2  0
 48 49  1  0
 48 42  1  0
 41 50  1  0
 46 51  1  0
 47 52  1  0
 49 53  1  0
 21 43  1  0
M  ISO  8  24  14  25  14  26  14  27  14  28  14  29  14  30  14  31   8
M  ISO  8  32   8  33  13  34  13  35  13  36  13  37  13  38  13  39  13
M  ISO  2  40  13  45  16
M  END
>  <DihAtoms>  (1) 
18,20,42,41

>  <DihDeg>  (1) 
90.000783392374

$$$$
