
     RDKit          3D

 52 56  0  0  0  0  0  0  0  0999 V2000
   45.9490   32.3240   46.0780 C   0  0  0  0  0  0  0  0  0  0  0  0
   45.6250   33.0030   47.2490 C   0  0  0  0  0  0  0  0  0  0  0  0
   45.8330   32.4650   48.5260 C   0  0  0  0  0  0  0  0  0  0  0  0
   46.3780   31.2220   48.6750 C   0  0  0  0  0  0  0  0  0  0  0  0
   46.7070   30.5120   47.5090 C   0  0  0  0  0  0  0  0  0  0  0  0
   47.1940   29.2530   47.6940 C   0  0  0  0  0  0  0  0  0  0  0  0
   47.4570   28.4890   46.5550 C   0  0  0  0  0  0  0  0  0  0  0  0
   47.1970   29.0660   45.2640 C   0  0  0  0  0  0  0  0  0  0  0  0
   46.7050   30.3510   45.2420 C   0  0  0  0  0  0  0  0  0  0  0  0
   46.4540   31.1310   46.2810 C   0  0  0  0  0  0  0  0  0  0  0  0
   44.9240   29.7500   43.8600 C   0  0  0  0  0  0  0  0  0  0  0  0
   46.2890   30.2370   43.8580 C   0  0  0  0  0  0  0  0  0  0  0  0
   46.7640   30.2890   42.6170 C   0  0  0  0  0  0  0  0  0  0  0  0
   46.0830   29.9310   41.4740 C   0  0  0  0  0  0  0  0  0  0  0  0
   44.7940   29.4680   41.5010 C   0  0  0  0  0  0  0  0  0  0  0  0
   44.2170   29.3820   42.7350 C   0  0  0  0  0  0  0  0  0  0  0  0
   44.0940   29.5720   45.0010 O   0  0  0  0  0  0  0  0  0  0  0  0
   42.9210   28.9020   42.7010 O   0  0  0  0  0  0  0  0  0  0  0  0
   40.6300   28.9060   42.6540 C   0  0  0  0  0  0  0  0  0  0  0  0
   41.7880   29.6370   42.4690 C   0  0  0  0  0  0  0  0  0  0  0  0
   41.7010   30.9640   42.0910 C   0  0  0  0  0  0  0  0  0  0  0  0
   40.4700   31.5590   41.8990 C   0  0  0  0  0  0  0  0  0  0  0  0
   39.3440   30.8130   42.0890 C   0  0  0  0  0  0  0  0  0  0  0  0
   39.3620   29.4680   42.4700 C   0  0  0  0  0  0  0  0  0  0  0  0
   40.5680   27.5520   43.0370 O   0  0  0  0  0  0  0  0  0  0  0  0
   38.1790   28.7650   42.6460 O   0  0  0  0  0  0  0  0  0  0  0  0
   45.2730   34.0610   42.8440 C   0  0  0  0  0  0  0  0  0  0  0  0
   46.5830   34.4820   42.5180 C   0  0  0  0  0  0  0  0  0  0  0  0
   47.5770   34.1210   43.4010 C   0  0  0  0  0  0  0  0  0  0  0  0
   47.1710   33.4200   44.4570 N   0  0  0  0  0  0  0  0  0  0  0  0
   45.9550   33.0100   44.7970 C   0  0  0  0  0  0  0  0  0  0  0  0
   45.0280   33.3530   43.9520 N   0  0  0  0  0  0  0  0  0  0  0  0
   48.9440   34.4210   43.1710 N   0  0  0  0  0  0  0  0  0  0  0  0
   45.1855   34.0081   47.1683 H   0  0  0  0  0  0  0  0  0  0  0  0
   45.5549   33.0489   49.4158 H   0  0  0  0  0  0  0  0  0  0  0  0
   46.5530   30.7923   49.6724 H   0  0  0  0  0  0  0  0  0  0  0  0
   47.3733   28.8533   48.7030 H   0  0  0  0  0  0  0  0  0  0  0  0
   47.8547   27.4673   46.6437 H   0  0  0  0  0  0  0  0  0  0  0  0
   47.3829   28.5056   44.3359 H   0  0  0  0  0  0  0  0  0  0  0  0
   47.7951   30.6510   42.4915 H   0  0  0  0  0  0  0  0  0  0  0  0
   46.5934   30.0203   40.5037 H   0  0  0  0  0  0  0  0  0  0  0  0
   44.2569   29.1830   40.5844 H   0  0  0  0  0  0  0  0  0  0  0  0
   43.1707   29.2313   44.8932 H   0  0  0  0  0  0  0  0  0  0  0  0
   42.6197   31.5503   41.9421 H   0  0  0  0  0  0  0  0  0  0  0  0
   40.3987   32.6147   41.5985 H   0  0  0  0  0  0  0  0  0  0  0  0
   38.3681   31.2962   41.9339 H   0  0  0  0  0  0  0  0  0  0  0  0
   39.6898   27.1081   43.1460 H   0  0  0  0  0  0  0  0  0  0  0  0
   38.2045   27.8129   42.9160 H   0  0  0  0  0  0  0  0  0  0  0  0
   44.4401   34.3206   42.1740 H   0  0  0  0  0  0  0  0  0  0  0  0
   46.7965   35.0652   41.6101 H   0  0  0  0  0  0  0  0  0  0  0  0
   49.6568   34.1333   43.8566 H   0  0  0  0  0  0  0  0  0  0  0  0
   49.2239   34.9266   42.3184 H   0  0  0  0  0  0  0  0  0  0  0  0
  1 10  1  0
  1  2  2  0
  2  3  1  0
  3  4  2  0
  5  6  2  0
  5  4  1  0
  7  6  1  0
  8  7  2  0
  9  8  1  0
  9 10  2  0
 10  5  1  0
 11 17  1  0
 12 11  2  0
 12  9  1  0
 13 12  1  0
 14 15  1  0
 14 13  2  0
 15 16  2  0
 16 11  1  0
 18 16  1  0
 19 25  1  0
 20 19  2  0
 20 18  1  0
 21 20  1  0
 22 23  1  0
 22 21  2  0
 23 24  2  0
 24 26  1  0
 24 19  1  0
 27 32  2  0
 28 27  1  0
 28 29  2  0
 29 30  1  0
 30 31  2  0
 31  1  1  0
 32 31  1  0
 33 29  1  0
  2 34  1  0
  3 35  1  0
  4 36  1  0
  6 37  1  0
  7 38  1  0
  8 39  1  0
 13 40  1  0
 14 41  1  0
 15 42  1  0
 17 43  1  0
 21 44  1  0
 22 45  1  0
 23 46  1  0
 25 47  1  0
 26 48  1  0
 27 49  1  0
 28 50  1  0
 33 51  1  0
 33 52  1  0
M  ISO  8  34  14  35  14  36  14  37  14  38  14  39  14  40  14  41  14
M  ISO  8  42  14  43   3  44  14  45  14  46  14  47   3  48   3  49  14
M  ISO  1  50  14
M  END
>  <minimizedAffinity>  (1) 
-5.94065952

>  <minimizedRMSD>  (1) 
0.69625783

$$$$
