
     RDKit          3D

 39 41  0  0  0  0  0  0  0  0999 V2000
   45.6077   34.4132   41.8375 N   0  0  0  0  0  0  0  0  0  0  0  0
   46.9501   34.1074   41.4221 C   0  0  1  0  0  0  0  0  0  0  0  0
   47.0970   33.9996   39.9409 C   0  0  0  0  0  0  0  0  0  0  0  0
   46.0621   33.3531   39.2680 N   0  0  0  0  0  0  0  0  0  0  0  0
   44.7623   33.4897   39.7640 C   0  0  0  0  0  0  0  0  0  0  0  0
   44.6607   34.6117   40.7955 C   0  0  0  0  0  0  0  0  0  0  0  0
   44.7268   35.6135   43.7066 C   0  0  0  0  0  0  0  0  0  0  0  0
   45.3806   34.4810   43.2242 C   0  0  0  0  0  0  0  0  0  0  0  0
   45.7482   33.5155   44.1765 C   0  0  0  0  0  0  0  0  0  0  0  0
   45.4729   33.6954   45.4849 N   0  0  0  0  0  0  0  0  0  0  0  0
   44.8371   34.8112   45.9010 C   0  0  0  0  0  0  0  0  0  0  0  0
   44.4705   35.7510   45.0371 N   0  0  0  0  0  0  0  0  0  0  0  0
   47.8279   35.2857   41.8526 C   0  0  0  0  0  0  0  0  0  0  0  0
   47.3068   33.2084   41.9656 H   0  0  0  0  0  0  0  0  0  0  0  0
   48.0906   33.5106   39.7557 H   0  0  0  0  0  0  0  0  0  0  0  0
   47.1877   35.0257   39.5262 H   0  0  0  0  0  0  0  0  0  0  0  0
   46.0897   33.5556   38.2481 H   0  0  0  0  0  0  0  0  0  0  0  0
   44.4243   32.5623   40.2803 H   0  0  0  0  0  0  0  0  0  0  0  0
   44.0300   33.7127   38.9732 H   0  0  0  0  0  0  0  0  0  0  0  0
   44.8207   35.5813   40.2859 H   0  0  0  0  0  0  0  0  0  0  0  0
   43.6427   34.6253   41.2392 H   0  0  0  0  0  0  0  0  0  0  0  0
   44.3814   36.4454   43.0934 H   0  0  0  0  0  0  0  0  0  0  0  0
   46.2573   32.6423   43.7659 H   0  0  0  0  0  0  0  0  0  0  0  0
   44.6979   34.7911   46.9767 H   0  0  0  0  0  0  0  0  0  0  0  0
   47.4168   36.1535   41.2947 H   0  0  0  0  0  0  0  0  0  0  0  0
   47.7087   35.4054   42.9499 H   0  0  0  0  0  0  0  0  0  0  0  0
   49.6490   37.2689   42.4515 O   0  0  0  0  0  0  0  0  0  0  0  0
   50.0933   36.1115   41.8105 C   0  0  0  0  0  0  0  0  0  0  0  0
   49.2427   35.0546   41.4670 C   0  0  0  0  0  0  0  0  0  0  0  0
   49.7762   33.9537   40.8365 C   0  0  0  0  0  0  0  0  0  0  0  0
   49.0421   33.1690   40.6016 H   0  0  0  0  0  0  0  0  0  0  0  0
   51.1135   33.8430   40.5258 C   0  0  0  0  0  0  0  0  0  0  0  0
   51.9646   34.8980   40.8682 C   0  0  0  0  0  0  0  0  0  0  0  0
   51.4257   35.9971   41.4992 C   0  0  0  0  0  0  0  0  0  0  0  0
   52.2785   37.0627   41.8463 O   0  0  0  0  0  0  0  0  0  0  0  0
   49.9903   37.5890   43.3501 H   0  0  0  0  0  0  0  0  0  0  0  0
   51.4853   32.9585   40.0295 H   0  0  0  0  0  0  0  0  0  0  0  0
   53.0224   34.8611   40.6477 H   0  0  0  0  0  0  0  0  0  0  0  0
   52.4457   37.7186   41.0810 H   0  0  0  0  0  0  0  0  0  0  0  0
  1  8  1  0
  2  1  1  0
  2 13  1  0
  3  2  1  0
  4  5  1  0
  4  3  1  0
  5  6  1  0
  6  1  1  0
  7 12  2  0
  8  7  1  0
  8  9  2  0
  9 10  1  0
 10 11  2  0
 12 11  1  0
  2 14  1  1
  3 15  1  0
  3 16  1  0
  4 17  1  0
  5 18  1  0
  5 19  1  0
  6 20  1  0
  6 21  1  0
  7 22  1  0
  9 23  1  0
 11 24  1  0
 13 25  1  0
 13 26  1  0
 27 28  1  0
 28 29  2  0
 29 30  1  0
 30 31  1  0
 30 32  2  0
 32 33  1  0
 33 34  2  0
 34 35  1  0
 34 28  1  0
 27 36  1  0
 32 37  1  0
 33 38  1  0
 35 39  1  0
 13 29  1  0
M  ISO  8  14  13  15  13  16  13  17   5  18  13  19  13  20  13  21  13
M  ISO  6  22  14  23  14  24  14  25   8  26   8  31  16
M  END
>  <DihAtoms>  (1) 
1,12,28,27

>  <DihDeg>  (1) 
-76.20265757297454

$$$$
