
     RDKit          3D

 25 26  0  0  0  0  0  0  0  0999 V2000
   45.4415   35.0651   43.9936 C   0  0  0  0  0  0  0  0  0  0  0  0
   46.5006   34.2929   43.5087 C   0  0  0  0  0  0  0  0  0  0  0  0
   47.0131   33.2915   44.3385 C   0  0  0  0  0  0  0  0  0  0  0  0
   46.4659   33.1185   45.5589 N   0  0  0  0  0  0  0  0  0  0  0  0
   45.4273   33.8958   46.0005 C   0  0  0  0  0  0  0  0  0  0  0  0
   44.9236   34.8689   45.2039 N   0  0  0  0  0  0  0  0  0  0  0  0
   44.8930   36.1403   43.0998 C   0  0  0  0  0  0  0  0  0  0  0  0
   46.9455   34.4228   42.5346 H   0  0  0  0  0  0  0  0  0  0  0  0
   47.8159   32.6499   44.0662 H   0  0  0  0  0  0  0  0  0  0  0  0
   44.9426   37.1105   43.6468 H   0  0  0  0  0  0  0  0  0  0  0  0
   45.4824   36.2330   42.1858 H   0  0  0  0  0  0  0  0  0  0  0  0
   43.8512   35.8979   42.7863 H   0  0  0  0  0  0  0  0  0  0  0  0
   42.7500   34.4832   46.4097 O   0  0  0  0  0  0  0  0  0  0  0  0
   43.4898   34.0084   47.4888 C   0  0  0  0  0  0  0  0  0  0  0  0
   44.8389   33.7002   47.3292 C   0  0  0  0  0  0  0  0  0  0  0  0
   45.5719   33.2301   48.3975 C   0  0  0  0  0  0  0  0  0  0  0  0
   46.6206   33.0038   48.2231 H   0  0  0  0  0  0  0  0  0  0  0  0
   44.9649   33.0605   49.6453 C   0  0  0  0  0  0  0  0  0  0  0  0
   43.6148   33.3708   49.7980 C   0  0  0  0  0  0  0  0  0  0  0  0
   42.8960   33.8397   48.7206 C   0  0  0  0  0  0  0  0  0  0  0  0
   41.5384   34.1574   48.8520 O   0  0  0  0  0  0  0  0  0  0  0  0
   41.9823   35.1410   46.4910 H   0  0  0  0  0  0  0  0  0  0  0  0
   45.5886   32.6833   50.4675 H   0  0  0  0  0  0  0  0  0  0  0  0
   43.1769   33.2298   50.7694 H   0  0  0  0  0  0  0  0  0  0  0  0
   41.2036   34.9862   48.3775 H   0  0  0  0  0  0  0  0  0  0  0  0
  1  6  2  0
  2  1  1  0
  2  3  2  0
  3  4  1  0
  4  5  2  0
  6  5  1  0
  7  1  1  0
  2  8  1  0
  3  9  1  0
  7 10  1  0
  7 11  1  0
  7 12  1  0
 13 14  1  0
 14 15  2  0
 15 16  1  0
 16 17  1  0
 16 18  2  0
 18 19  1  0
 19 20  2  0
 20 21  1  0
 20 14  1  0
 13 22  1  0
 18 23  1  0
 19 24  1  0
 21 25  1  0
  5 15  1  0
M  ISO  6   8  14   9  14  10   8  11   8  12   8  17  16
M  END
>  <DihAtoms>  (1) 
3,4,14,13

>  <DihDeg>  (1) 
0.0004631132465964196

$$$$
