
     RDKit          3D

 32 34  0  0  0  0  0  0  0  0999 V2000
   45.6589   32.2129   48.4620 C   0  0  0  0  0  0  0  0  0  0  0  0
   45.3580   33.1748   47.5032 C   0  0  0  0  0  0  0  0  0  0  0  0
   46.0264   33.0322   46.2700 C   0  0  0  0  0  0  0  0  0  0  0  0
   46.8915   32.0042   46.0957 N   0  0  0  0  0  0  0  0  0  0  0  0
   47.1397   31.1048   47.0643 C   0  0  0  0  0  0  0  0  0  0  0  0
   46.5157   31.2118   48.2602 N   0  0  0  0  0  0  0  0  0  0  0  0
   45.7599   34.0087   45.2116 C   0  0  0  0  0  0  0  0  0  0  0  0
   46.4791   33.9564   44.0404 C   0  0  0  0  0  0  0  0  0  0  0  0
   46.1674   34.9152   43.0883 C   0  0  0  0  0  0  0  0  0  0  0  0
   45.1840   35.8466   43.3485 C   0  0  0  0  0  0  0  0  0  0  0  0
   44.4857   35.8582   44.5467 C   0  0  0  0  0  0  0  0  0  0  0  0
   44.8084   34.9084   45.4657 N   0  0  0  0  0  0  0  0  0  0  0  0
   44.4891   34.2208   47.6515 O   0  0  0  0  0  0  0  0  0  0  0  0
   45.1754   32.2877   49.4249 H   0  0  0  0  0  0  0  0  0  0  0  0
   47.8198   30.2746   46.9640 H   0  0  0  0  0  0  0  0  0  0  0  0
   47.2424   33.1970   43.8955 H   0  0  0  0  0  0  0  0  0  0  0  0
   46.7245   34.9005   42.1411 H   0  0  0  0  0  0  0  0  0  0  0  0
   44.9784   36.5778   42.5665 H   0  0  0  0  0  0  0  0  0  0  0  0
   43.7232   36.6057   44.7090 H   0  0  0  0  0  0  0  0  0  0  0  0
   44.8356   32.2831   49.7022 O   0  0  0  0  0  0  0  0  0  0  0  0
   44.0020   33.4121   49.7702 C   0  0  0  0  0  0  0  0  0  0  0  0
   43.7827   34.4021   48.8063 C   0  0  0  0  0  0  0  0  0  0  0  0
   42.9031   35.4149   49.1253 C   0  0  0  0  0  0  0  0  0  0  0  0
   42.7655   36.1612   48.3427 H   0  0  0  0  0  0  0  0  0  0  0  0
   42.2439   35.4887   50.3345 C   0  0  0  0  0  0  0  0  0  0  0  0
   42.4561   34.5155   51.2900 C   0  0  0  0  0  0  0  0  0  0  0  0
   43.3431   33.4849   50.9809 C   0  0  0  0  0  0  0  0  0  0  0  0
   43.4747   32.5626   52.0244 O   0  0  0  0  0  0  0  0  0  0  0  0
   44.6115   31.6677   48.9208 H   0  0  0  0  0  0  0  0  0  0  0  0
   41.5574   36.3227   50.5219 H   0  0  0  0  0  0  0  0  0  0  0  0
   41.9258   34.6000   52.2275 H   0  0  0  0  0  0  0  0  0  0  0  0
   43.7185   31.6082   51.7386 H   0  0  0  0  0  0  0  0  0  0  0  0
  2 13  1  0
  2  1  2  0
  3  2  1  0
  4  3  2  0
  4  5  1  0
  5  6  2  0
  6  1  1  0
  7 12  1  0
  7  3  1  0
  8  7  2  0
  9 10  2  0
  9  8  1  0
 10 11  1  0
 11 12  2  0
  1 14  1  0
  5 15  1  0
  8 16  1  0
  9 17  1  0
 10 18  1  0
 11 19  1  0
 20 21  1  0
 21 22  2  0
 22 23  1  0
 23 24  1  0
 23 25  2  0
 25 26  1  0
 26 27  2  0
 27 28  1  0
 27 21  1  0
 20 29  1  0
 25 30  1  0
 26 31  1  0
 28 32  1  0
 13 22  1  0
M  ISO  7  14  14  15  14  16  14  17  14  18  14  19  14  24  16
M  END
>  <DihAtoms>  (1) 
1,12,21,20

>  <DihDeg>  (1) 
-61.97662536336612

$$$$
