
     RDKit          3D

 25 26  0  0  0  0  0  0  0  0999 V2000
   45.4415   35.0651   43.9936 C   0  0  0  0  0  0  0  0  0  0  0  0
   46.5006   34.2929   43.5087 C   0  0  0  0  0  0  0  0  0  0  0  0
   47.0131   33.2915   44.3385 C   0  0  0  0  0  0  0  0  0  0  0  0
   46.4659   33.1185   45.5589 N   0  0  0  0  0  0  0  0  0  0  0  0
   45.4273   33.8958   46.0005 C   0  0  0  0  0  0  0  0  0  0  0  0
   44.9236   34.8689   45.2039 N   0  0  0  0  0  0  0  0  0  0  0  0
   44.8930   36.1403   43.0998 C   0  0  0  0  0  0  0  0  0  0  0  0
   46.9455   34.4228   42.5346 H   0  0  0  0  0  0  0  0  0  0  0  0
   47.8159   32.6499   44.0662 H   0  0  0  0  0  0  0  0  0  0  0  0
   44.9426   37.1105   43.6468 H   0  0  0  0  0  0  0  0  0  0  0  0
   45.4824   36.2330   42.1858 H   0  0  0  0  0  0  0  0  0  0  0  0
   43.8512   35.8979   42.7863 H   0  0  0  0  0  0  0  0  0  0  0  0
   45.9691   31.5698   47.4064 O   0  0  0  0  0  0  0  0  0  0  0  0
   45.1385   32.5163   47.9992 C   0  0  0  0  0  0  0  0  0  0  0  0
   44.8389   33.7002   47.3292 C   0  0  0  0  0  0  0  0  0  0  0  0
   44.0164   34.6376   47.9159 C   0  0  0  0  0  0  0  0  0  0  0  0
   43.8122   35.5451   47.3535 H   0  0  0  0  0  0  0  0  0  0  0  0
   43.4796   34.4046   49.1854 C   0  0  0  0  0  0  0  0  0  0  0  0
   43.7835   33.2180   49.8502 C   0  0  0  0  0  0  0  0  0  0  0  0
   44.6070   32.2910   49.2503 C   0  0  0  0  0  0  0  0  0  0  0  0
   44.9252   31.0922   49.9006 O   0  0  0  0  0  0  0  0  0  0  0  0
   45.8813   30.5688   47.5446 H   0  0  0  0  0  0  0  0  0  0  0  0
   42.8293   35.1801   49.6132 H   0  0  0  0  0  0  0  0  0  0  0  0
   43.3556   33.0679   50.8247 H   0  0  0  0  0  0  0  0  0  0  0  0
   44.9539   30.2495   49.3410 H   0  0  0  0  0  0  0  0  0  0  0  0
  1  6  2  0
  2  1  1  0
  2  3  2  0
  3  4  1  0
  4  5  2  0
  6  5  1  0
  7  1  1  0
  2  8  1  0
  3  9  1  0
  7 10  1  0
  7 11  1  0
  7 12  1  0
 13 14  1  0
 14 15  2  0
 15 16  1  0
 16 17  1  0
 16 18  2  0
 18 19  1  0
 19 20  2  0
 20 21  1  0
 20 14  1  0
 13 22  1  0
 18 23  1  0
 19 24  1  0
 21 25  1  0
  5 15  1  0
M  ISO  6   8  14   9  14  10   8  11   8  12   8  17  16
M  END
>  <DihAtoms>  (1) 
3,4,14,13

>  <DihDeg>  (1) 
0.0004631132465964196

$$$$
