
     RDKit          3D

 32 34  0  0  0  0  0  0  0  0999 V2000
   45.6589   32.2129   48.4620 C   0  0  0  0  0  0  0  0  0  0  0  0
   45.3580   33.1748   47.5032 C   0  0  0  0  0  0  0  0  0  0  0  0
   46.0264   33.0322   46.2700 C   0  0  0  0  0  0  0  0  0  0  0  0
   46.8915   32.0042   46.0957 N   0  0  0  0  0  0  0  0  0  0  0  0
   47.1397   31.1048   47.0643 C   0  0  0  0  0  0  0  0  0  0  0  0
   46.5157   31.2118   48.2602 N   0  0  0  0  0  0  0  0  0  0  0  0
   45.7599   34.0087   45.2116 C   0  0  0  0  0  0  0  0  0  0  0  0
   46.4791   33.9564   44.0404 C   0  0  0  0  0  0  0  0  0  0  0  0
   46.1674   34.9152   43.0883 C   0  0  0  0  0  0  0  0  0  0  0  0
   45.1840   35.8466   43.3485 C   0  0  0  0  0  0  0  0  0  0  0  0
   44.4857   35.8582   44.5467 C   0  0  0  0  0  0  0  0  0  0  0  0
   44.8084   34.9084   45.4657 N   0  0  0  0  0  0  0  0  0  0  0  0
   44.4891   34.2208   47.6515 O   0  0  0  0  0  0  0  0  0  0  0  0
   45.1754   32.2877   49.4249 H   0  0  0  0  0  0  0  0  0  0  0  0
   47.8198   30.2746   46.9640 H   0  0  0  0  0  0  0  0  0  0  0  0
   47.2424   33.1970   43.8955 H   0  0  0  0  0  0  0  0  0  0  0  0
   46.7245   34.9005   42.1411 H   0  0  0  0  0  0  0  0  0  0  0  0
   44.9784   36.5778   42.5665 H   0  0  0  0  0  0  0  0  0  0  0  0
   43.7232   36.6057   44.7090 H   0  0  0  0  0  0  0  0  0  0  0  0
   41.7093   33.6316   47.5781 O   0  0  0  0  0  0  0  0  0  0  0  0
   42.4226   34.0929   48.6972 C   0  0  0  0  0  0  0  0  0  0  0  0
   43.7827   34.4021   48.8063 C   0  0  0  0  0  0  0  0  0  0  0  0
   44.2373   34.8425   50.0313 C   0  0  0  0  0  0  0  0  0  0  0  0
   45.3027   35.0706   50.0659 H   0  0  0  0  0  0  0  0  0  0  0  0
   43.4191   34.9871   51.1322 C   0  0  0  0  0  0  0  0  0  0  0  0
   42.0764   34.6835   51.0314 C   0  0  0  0  0  0  0  0  0  0  0  0
   41.6027   34.2370   49.7983 C   0  0  0  0  0  0  0  0  0  0  0  0
   40.2313   33.9625   49.8206 O   0  0  0  0  0  0  0  0  0  0  0  0
   41.7727   34.2596   46.7773 H   0  0  0  0  0  0  0  0  0  0  0  0
   43.8475   35.3426   52.0766 H   0  0  0  0  0  0  0  0  0  0  0  0
   41.4606   34.8064   51.9105 H   0  0  0  0  0  0  0  0  0  0  0  0
   39.7472   34.0706   48.9227 H   0  0  0  0  0  0  0  0  0  0  0  0
  2 13  1  0
  2  1  2  0
  3  2  1  0
  4  3  2  0
  4  5  1  0
  5  6  2  0
  6  1  1  0
  7 12  1  0
  7  3  1  0
  8  7  2  0
  9 10  2  0
  9  8  1  0
 10 11  1  0
 11 12  2  0
  1 14  1  0
  5 15  1  0
  8 16  1  0
  9 17  1  0
 10 18  1  0
 11 19  1  0
 20 21  1  0
 21 22  2  0
 22 23  1  0
 23 24  1  0
 23 25  2  0
 25 26  1  0
 26 27  2  0
 27 28  1  0
 27 21  1  0
 20 29  1  0
 25 30  1  0
 26 31  1  0
 28 32  1  0
 13 22  1  0
M  ISO  7  14  14  15  14  16  14  17  14  18  14  19  14  24  16
M  END
>  <DihAtoms>  (1) 
1,12,21,20

>  <DihDeg>  (1) 
-61.97662536336612

$$$$
