
     RDKit          3D

 42 45  0  0  0  0  0  0  0  0999 V2000
   46.8927   34.9289   42.1566 C   0  0  2  0  0  0  0  0  0  0  0  0
   46.3789   33.9141   41.1680 C   0  0  0  0  0  0  0  0  0  0  0  0
   47.5873   33.9147   40.2111 C   0  0  0  0  0  0  0  0  0  0  0  0
   48.7892   34.0896   41.0974 C   0  0  1  0  0  0  0  0  0  0  0  0
   48.2490   34.2864   42.4774 C   0  0  0  0  0  0  0  0  0  0  0  0
   44.4189   36.0742   44.7644 C   0  0  0  0  0  0  0  0  0  0  0  0
   45.1524   36.0638   43.5723 C   0  0  0  0  0  0  0  0  0  0  0  0
   46.0596   35.0157   43.3795 C   0  0  0  0  0  0  0  0  0  0  0  0
   46.1975   34.0440   44.3560 N   0  0  0  0  0  0  0  0  0  0  0  0
   45.4609   34.1056   45.4909 C   0  0  0  0  0  0  0  0  0  0  0  0
   44.5814   35.1123   45.6890 N   0  0  0  0  0  0  0  0  0  0  0  0
   49.6891   32.8951   41.1642 C   0  0  2  0  0  0  0  0  0  0  0  0
   49.5922   32.0196   42.3136 C   0  0  0  0  0  0  0  0  0  0  0  0
   50.8738   32.7932   41.9587 C   0  0  2  0  0  0  0  0  0  0  0  0
   46.9655   35.8976   41.6651 H   0  0  0  0  0  0  0  0  0  0  0  0
   46.3254   32.9262   41.6306 H   0  0  0  0  0  0  0  0  0  0  0  0
   45.4669   34.2545   40.6632 H   0  0  0  0  0  0  0  0  0  0  0  0
   47.6296   32.9738   39.6391 H   0  0  0  0  0  0  0  0  0  0  0  0
   47.4917   34.8262   39.6122 H   0  0  0  0  0  0  0  0  0  0  0  0
   49.3957   34.9597   40.8305 H   0  0  0  0  0  0  0  0  0  0  0  0
   47.8567   33.3847   42.9776 H   0  0  0  0  0  0  0  0  0  0  0  0
   48.8573   34.9552   43.1064 H   0  0  0  0  0  0  0  0  0  0  0  0
   43.6944   36.8684   44.9707 H   0  0  0  0  0  0  0  0  0  0  0  0
   45.0288   36.8246   42.8337 H   0  0  0  0  0  0  0  0  0  0  0  0
   45.6356   33.2955   46.2077 H   0  0  0  0  0  0  0  0  0  0  0  0
   49.6965   32.3718   40.1609 H   0  0  0  0  0  0  0  0  0  0  0  0
   49.6171   30.8994   42.1226 H   0  0  0  0  0  0  0  0  0  0  0  0
   49.4111   32.1661   43.3648 H   0  0  0  0  0  0  0  0  0  0  0  0
   51.6974   32.1049   41.5895 H   0  0  0  0  0  0  0  0  0  0  0  0
   53.5424   32.5244   42.5845 O   0  0  0  0  0  0  0  0  0  0  0  0
   52.7763   33.5712   43.1224 C   0  0  0  0  0  0  0  0  0  0  0  0
   51.4196   33.8016   42.8665 C   0  0  0  0  0  0  0  0  0  0  0  0
   50.8331   34.9033   43.5020 C   0  0  0  0  0  0  0  0  0  0  0  0
   49.7861   34.9759   43.2261 H   0  0  0  0  0  0  0  0  0  0  0  0
   51.5825   35.7017   44.3327 C   0  0  0  0  0  0  0  0  0  0  0  0
   52.9011   35.4730   44.5778 C   0  0  0  0  0  0  0  0  0  0  0  0
   53.5144   34.3978   43.9706 C   0  0  0  0  0  0  0  0  0  0  0  0
   54.8518   34.2065   44.2496 O   0  0  0  0  0  0  0  0  0  0  0  0
   53.8697   32.5669   41.6320 H   0  0  0  0  0  0  0  0  0  0  0  0
   51.0268   36.5224   44.7685 H   0  0  0  0  0  0  0  0  0  0  0  0
   53.4580   36.1238   45.2380 H   0  0  0  0  0  0  0  0  0  0  0  0
   55.4752   34.1773   43.4498 H   0  0  0  0  0  0  0  0  0  0  0  0
  1  5  1  0
  1  8  1  0
  2  1  1  0
  3  4  1  0
  3  2  1  0
  4 12  1  0
  4  5  1  0
  6 11  2  0
  7  6  1  0
  8  7  2  0
  8  9  1  0
  9 10  2  0
 10 11  1  0
 12 14  1  0
 12 13  1  0
 14 13  1  0
  1 15  1  6
  2 16  1  0
  2 17  1  0
  3 18  1  0
  3 19  1  0
  4 20  1  6
  5 21  1  0
  5 22  1  0
  6 23  1  0
  7 24  1  0
 10 25  1  0
 12 26  1  6
 13 27  1  0
 13 28  1  0
 14 29  1  6
 30 31  1  0
 31 32  2  0
 32 33  1  0
 33 34  1  0
 33 35  2  0
 35 36  1  0
 36 37  2  0
 37 38  1  0
 37 31  1  0
 30 39  1  0
 35 40  1  0
 36 41  1  0
 38 42  1  0
 14 32  1  0
M  ISO  8  15  13  16  13  17  13  18  13  19  13  20  13  21  13  22  13
M  ISO  8  23  14  24  14  25  14  26  13  27  13  28  13  29  13  34  16
M  END
>  <DihAtoms>  (1) 
11,13,31,30

>  <DihDeg>  (1) 
-84.96262756232245

$$$$
