
     RDKit          3D

 40 43  0  0  1  0  0  0  0  0999 V2000
   47.2980   32.9230   42.3830 N   0  0  0  0  0  0  0  0  0  0  0  0
   48.5330   33.4980   42.1510 C   0  0  0  0  0  0  0  0  0  0  0  0
   49.4420   33.8430   42.9560 O   0  0  0  0  0  0  0  0  0  0  0  0
   46.0300   32.0240   44.3120 C   0  0  1  0  0  0  0  0  0  0  0  0
   45.7000   31.1920   43.2120 C   0  0  0  0  0  0  0  0  0  0  0  0
   47.0980   31.8350   43.2850 C   0  0  1  0  0  0  0  0  0  0  0  0
   44.8760   34.0760   43.2350 C   0  0  0  0  0  0  0  0  0  0  0  0
   45.3920   33.4110   44.3840 C   0  0  0  0  0  0  0  0  0  0  0  0
   45.3230   34.0650   45.5920 C   0  0  0  0  0  0  0  0  0  0  0  0
   44.7710   35.3030   45.6350 N   0  0  0  0  0  0  0  0  0  0  0  0
   44.2830   35.9290   44.5430 C   0  0  0  0  0  0  0  0  0  0  0  0
   44.3400   35.2890   43.3010 N   0  0  0  0  0  0  0  0  0  0  0  0
   48.9700   33.7990   40.7270 C   0  0  2  0  0  0  0  0  0  0  0  0
   48.5960   35.2020   40.1580 C   0  0  0  0  0  0  0  0  0  0  0  0
   47.9960   33.9290   39.6440 C   0  0  1  0  0  0  0  0  0  0  0  0
   48.1180   33.5780   37.0390 C   0  0  0  0  0  0  0  0  0  0  0  0
   48.3950   33.3130   38.3600 C   0  0  0  0  0  0  0  0  0  0  0  0
   49.2490   32.2320   38.6410 C   0  0  0  0  0  0  0  0  0  0  0  0
   49.7970   31.4540   37.6140 C   0  0  0  0  0  0  0  0  0  0  0  0
   49.4980   31.7480   36.3150 C   0  0  0  0  0  0  0  0  0  0  0  0
   48.6710   32.7960   36.0490 C   0  0  0  0  0  0  0  0  0  0  0  0
   47.2750   34.6540   36.9200 O   0  0  0  0  0  0  0  0  0  0  0  0
   48.3250   33.1530   34.7670 O   0  0  0  0  0  0  0  0  0  0  0  0
   46.4812   33.2982   41.8800 H   0  0  0  0  0  0  0  0  0  0  0  0
   45.9801   31.8747   45.4007 H   0  0  0  0  0  0  0  0  0  0  0  0
   44.9754   31.5381   42.4602 H   0  0  0  0  0  0  0  0  0  0  0  0
   45.3246   30.1638   43.1032 H   0  0  0  0  0  0  0  0  0  0  0  0
   48.1463   31.5017   43.2792 H   0  0  0  0  0  0  0  0  0  0  0  0
   44.9231   33.5678   42.2606 H   0  0  0  0  0  0  0  0  0  0  0  0
   45.7088   33.5922   46.5072 H   0  0  0  0  0  0  0  0  0  0  0  0
   43.8443   36.9340   44.6295 H   0  0  0  0  0  0  0  0  0  0  0  0
   49.8808   33.1957   40.8555 H   0  0  0  0  0  0  0  0  0  0  0  0
   47.9923   35.9027   40.7535 H   0  0  0  0  0  0  0  0  0  0  0  0
   49.1400   36.0550   39.7262 H   0  0  0  0  0  0  0  0  0  0  0  0
   46.9435   33.6579   39.4743 H   0  0  0  0  0  0  0  0  0  0  0  0
   49.4911   31.9931   39.6871 H   0  0  0  0  0  0  0  0  0  0  0  0
   50.4636   30.6120   37.8522 H   0  0  0  0  0  0  0  0  0  0  0  0
   49.9190   31.1471   35.4955 H   0  0  0  0  0  0  0  0  0  0  0  0
   46.9880   34.9612   36.0237 H   0  0  0  0  0  0  0  0  0  0  0  0
   47.7205   33.9218   34.6133 H   0  0  0  0  0  0  0  0  0  0  0  0
  1  6  1  0
  2  1  1  0
  2  3  2  0
  4  8  1  0
  5  6  1  0
  5  4  1  0
  6  4  1  0
  7 12  2  0
  7  8  1  0
  8  9  2  0
  9 10  1  0
 11 10  2  0
 12 11  1  0
 13  2  1  0
 14 13  1  0
 15 14  1  0
 15 13  1  0
 16 17  2  0
 17 18  1  0
 17 15  1  0
 19 18  2  0
 20 19  1  0
 21 20  2  0
 21 16  1  0
 22 16  1  0
 23 21  1  0
  1 24  1  0
  4 25  1  1
  5 26  1  0
  5 27  1  0
  6 28  1  1
  7 29  1  0
  9 30  1  0
 11 31  1  0
 13 32  1  6
 14 33  1  0
 14 34  1  0
 15 35  1  1
 18 36  1  0
 19 37  1  0
 20 38  1  0
 22 39  1  0
 23 40  1  0
M  ISO  8  25  13  26  13  27  13  28  13  29  14  30  14  31  14  32  13
M  ISO  8  33  13  34  13  35  13  36  14  37  14  38  14  39   3  40   3
M  END
>  <minimizedAffinity>  (1) 
-5.51338816

>  <minimizedRMSD>  (1) 
2.32735491

$$$$
