
     RDKit          3D

 48 51  0  0  1  0  0  0  0  0999 V2000
   45.8750   35.5900   42.7690 C   0  0  0  0  0  0  0  0  0  0  0  0
   44.7950   35.2160   41.8360 C   0  0  0  0  0  0  0  0  0  0  0  0
   43.4930   35.6430   41.9020 C   0  0  0  0  0  0  0  0  0  0  0  0
   42.5450   35.2570   40.9900 C   0  0  0  0  0  0  0  0  0  0  0  0
   42.9270   34.4000   39.9650 C   0  0  0  0  0  0  0  0  0  0  0  0
   44.2540   33.9570   39.8850 C   0  0  0  0  0  0  0  0  0  0  0  0
   45.1960   34.3700   40.8300 C   0  0  0  0  0  0  0  0  0  0  0  0
   46.3520   32.3570   40.8330 C   0  0  0  0  0  0  0  0  0  0  0  0
   46.3950   33.6820   40.3830 C   0  0  0  0  0  0  0  0  0  0  0  0
   47.5000   34.0990   39.6790 C   0  0  0  0  0  0  0  0  0  0  0  0
   48.5370   33.2290   39.4280 C   0  0  0  0  0  0  0  0  0  0  0  0
   48.4900   31.9240   39.8740 C   0  0  0  0  0  0  0  0  0  0  0  0
   47.4000   31.4690   40.5820 C   0  0  0  0  0  0  0  0  0  0  0  0
   45.3200   31.7390   41.5650 O   0  0  0  0  0  0  0  0  0  0  0  0
   47.4270   30.1460   40.9960 O   0  0  0  0  0  0  0  0  0  0  0  0
   44.9680   34.9070   44.9890 C   0  0  0  0  0  0  0  0  0  0  0  0
   45.8560   34.7330   43.9330 C   0  0  0  0  0  0  0  0  0  0  0  0
   46.7420   33.6630   44.0430 C   0  0  0  0  0  0  0  0  0  0  0  0
   46.7380   32.8350   45.1150 N   0  0  0  0  0  0  0  0  0  0  0  0
   45.8510   33.0460   46.1190 C   0  0  0  0  0  0  0  0  0  0  0  0
   44.9710   34.0760   46.0580 N   0  0  0  0  0  0  0  0  0  0  0  0
   47.3220   31.8080   47.6930 C   0  0  2  0  0  0  0  0  0  0  0  0
   45.8630   32.1380   47.2560 C   0  0  1  0  0  0  0  0  0  0  0  0
   45.4030   32.6350   48.4260 O   0  0  0  0  0  0  0  0  0  0  0  0
   45.7960   31.7940   49.4270 C   0  0  0  0  0  0  0  0  0  0  0  0
   46.9690   30.9740   48.9290 C   0  0  2  0  0  0  0  0  0  0  0  0
   47.9420   32.9240   48.1150 O   0  0  0  0  0  0  0  0  0  0  0  0
   47.9950   30.8760   49.8250 O   0  0  0  0  0  0  0  0  0  0  0  0
   45.7348   36.6341   43.0856 H   0  0  0  0  0  0  0  0  0  0  0  0
   46.8425   35.4760   42.2583 H   0  0  0  0  0  0  0  0  0  0  0  0
   43.1986   36.3204   42.7171 H   0  0  0  0  0  0  0  0  0  0  0  0
   41.5083   35.6165   41.0676 H   0  0  0  0  0  0  0  0  0  0  0  0
   42.1896   34.0702   39.2183 H   0  0  0  0  0  0  0  0  0  0  0  0
   44.5558   33.2795   39.0726 H   0  0  0  0  0  0  0  0  0  0  0  0
   47.5558   35.1351   39.3138 H   0  0  0  0  0  0  0  0  0  0  0  0
   49.4146   33.5787   38.8645 H   0  0  0  0  0  0  0  0  0  0  0  0
   49.3279   31.2433   39.6628 H   0  0  0  0  0  0  0  0  0  0  0  0
   45.4016   30.7886   41.8298 H   0  0  0  0  0  0  0  0  0  0  0  0
   46.6668   29.7720   41.5081 H   0  0  0  0  0  0  0  0  0  0  0  0
   44.2477   35.7376   44.9551 H   0  0  0  0  0  0  0  0  0  0  0  0
   47.4666   33.4854   43.2347 H   0  0  0  0  0  0  0  0  0  0  0  0
   47.9663   31.3537   46.9258 H   0  0  0  0  0  0  0  0  0  0  0  0
   45.2428   31.3150   46.8713 H   0  0  0  0  0  0  0  0  0  0  0  0
   46.0992   32.3800   50.3071 H   0  0  0  0  0  0  0  0  0  0  0  0
   44.9655   31.1316   49.7123 H   0  0  0  0  0  0  0  0  0  0  0  0
   46.7515   29.9120   48.7424 H   0  0  0  0  0  0  0  0  0  0  0  0
   47.9519   32.9418   49.1048 H   0  0  0  0  0  0  0  0  0  0  0  0
   47.6333   30.9105   50.7459 H   0  0  0  0  0  0  0  0  0  0  0  0
  1 17  1  0
  2  3  2  0
  2  1  1  0
  4  3  1  0
  5  4  2  0
  6  5  1  0
  6  7  2  0
  7  2  1  0
  8 14  1  0
  9  7  1  0
  9  8  2  0
 10  9  1  0
 11 10  2  0
 11 12  1  0
 12 13  2  0
 13  8  1  0
 13 15  1  0
 16 21  2  0
 17 18  2  0
 17 16  1  0
 18 19  1  0
 19 20  2  0
 20 23  1  0
 21 20  1  0
 22 27  1  0
 22 26  1  0
 23 22  1  0
 23 24  1  0
 24 25  1  0
 26 25  1  0
 26 28  1  0
  1 29  1  0
  1 30  1  0
  3 31  1  0
  4 32  1  0
  5 33  1  0
  6 34  1  0
 10 35  1  0
 11 36  1  0
 12 37  1  0
 14 38  1  0
 15 39  1  0
 16 40  1  0
 18 41  1  0
 22 42  1  6
 23 43  1  6
 25 44  1  0
 25 45  1  0
 26 46  1  6
 27 47  1  0
 28 48  1  0
M  ISO  8  29   8  30   8  31  14  32  14  33  14  34  14  35  14  36  14
M  ISO  8  37  14  38   3  39   3  40  14  41  14  42  13  43  13  44  13
M  ISO  4  45  13  46  13  47   3  48   3
M  END
>  <minimizedAffinity>  (1) 
-7.08832932

>  <minimizedRMSD>  (1) 
0.596144915

$$$$
