
     RDKit          3D

 47 50  0  0  1  0  0  0  0  0999 V2000
   47.6560   32.7820   43.6800 C   0  0  0  0  0  0  0  0  0  0  0  0
   48.3920   33.3980   42.7610 C   0  0  0  0  0  0  0  0  0  0  0  0
   49.2720   32.6030   42.0720 C   0  0  0  0  0  0  0  0  0  0  0  0
   49.3060   31.2320   42.4060 N   0  0  0  0  0  0  0  0  0  0  0  0
   48.5520   30.6860   43.3280 C   0  0  0  0  0  0  0  0  0  0  0  0
   47.6640   31.4610   44.0280 N   0  0  0  0  0  0  0  0  0  0  0  0
   48.4410   34.7960   42.4970 C   0  0  1  0  0  0  0  0  0  0  0  0
   49.3260   35.4890   41.7400 C   0  0  0  0  0  0  0  0  0  0  0  0
   47.9630   35.3400   41.1310 C   0  0  1  0  0  0  0  0  0  0  0  0
   48.2260   34.3480   38.6590 C   0  0  0  0  0  0  0  0  0  0  0  0
   47.7820   34.5230   39.9480 C   0  0  0  0  0  0  0  0  0  0  0  0
   46.7420   33.6340   40.3100 C   0  0  0  0  0  0  0  0  0  0  0  0
   46.2180   32.6670   39.4320 C   0  0  0  0  0  0  0  0  0  0  0  0
   46.7460   32.5790   38.1430 C   0  0  0  0  0  0  0  0  0  0  0  0
   47.7570   33.4270   37.7580 C   0  0  0  0  0  0  0  0  0  0  0  0
   49.2400   35.2500   38.3950 O   0  0  0  0  0  0  0  0  0  0  0  0
   48.4020   33.4900   36.5320 O   0  0  0  0  0  0  0  0  0  0  0  0
   46.5910   33.3810   44.5120 C   0  0  0  0  0  0  0  0  0  0  0  0
   46.0700   33.6820   45.5540 O   0  0  0  0  0  0  0  0  0  0  0  0
   44.7260   31.4450   42.9990 Cl  0  0  0  0  0  0  0  0  0  0  0  0
   44.6270   33.2010   42.8260 C   0  0  0  0  0  0  0  0  0  0  0  0
   45.5430   33.9410   43.6000 C   0  0  0  0  0  0  0  0  0  0  0  0
   45.3590   35.2890   43.3830 C   0  0  0  0  0  0  0  0  0  0  0  0
   44.5040   35.9320   42.6020 C   0  0  0  0  0  0  0  0  0  0  0  0
   43.6410   35.1400   41.8750 C   0  0  0  0  0  0  0  0  0  0  0  0
   43.6920   33.7850   41.9780 C   0  0  0  0  0  0  0  0  0  0  0  0
   42.7850   33.1040   41.2110 O   0  0  0  0  0  0  0  0  0  0  0  0
   40.4850   32.3910   40.1830 O   0  0  0  0  0  0  0  0  0  0  0  0
   41.1510   32.7830   41.4830 P   0  0  0  0  0  0  0  0  0  0  0  0
   41.0160   31.5550   42.6440 O   0  0  0  0  0  0  0  0  0  0  0  0
   40.3610   34.1340   42.1530 O   0  0  0  0  0  0  0  0  0  0  0  0
   49.9254   33.0174   41.2901 H   0  0  0  0  0  0  0  0  0  0  0  0
   48.6313   29.6095   43.5396 H   0  0  0  0  0  0  0  0  0  0  0  0
   48.1791   34.8966   43.5606 H   0  0  0  0  0  0  0  0  0  0  0  0
   49.6550   36.4829   42.0775 H   0  0  0  0  0  0  0  0  0  0  0  0
   50.3359   35.2547   41.3724 H   0  0  0  0  0  0  0  0  0  0  0  0
   47.1304   35.9620   40.7706 H   0  0  0  0  0  0  0  0  0  0  0  0
   46.3237   33.7020   41.3251 H   0  0  0  0  0  0  0  0  0  0  0  0
   45.4094   31.9947   39.7548 H   0  0  0  0  0  0  0  0  0  0  0  0
   46.3539   31.8325   37.4366 H   0  0  0  0  0  0  0  0  0  0  0  0
   49.6747   35.2597   37.5056 H   0  0  0  0  0  0  0  0  0  0  0  0
   49.1209   34.1545   36.3844 H   0  0  0  0  0  0  0  0  0  0  0  0
   46.0360   35.9410   43.9545 H   0  0  0  0  0  0  0  0  0  0  0  0
   44.4838   37.0299   42.5375 H   0  0  0  0  0  0  0  0  0  0  0  0
   42.9045   35.6084   41.2055 H   0  0  0  0  0  0  0  0  0  0  0  0
   41.0596   31.9513   43.5502 H   0  0  0  0  0  0  0  0  0  0  0  0
   40.3933   34.0788   43.1409 H   0  0  0  0  0  0  0  0  0  0  0  0
  1  6  1  0
  1 18  1  0
  2  1  2  0
  3  4  2  0
  3  2  1  0
  4  5  1  0
  5  6  2  0
  7  2  1  0
  8  7  1  0
  9  8  1  0
  9  7  1  0
 10 11  2  0
 11 12  1  0
 11  9  1  0
 13 12  2  0
 14 13  1  0
 15 14  2  0
 15 10  1  0
 16 10  1  0
 17 15  1  0
 18 19  2  0
 21 20  1  0
 21 22  2  0
 22 18  1  0
 23 22  1  0
 24 23  2  0
 25 26  2  0
 25 24  1  0
 26 21  1  0
 27 29  1  0
 27 26  1  0
 28 29  2  0
 29 31  1  0
 29 30  1  0
  3 32  1  0
  5 33  1  0
  7 34  1  1
  8 35  1  0
  8 36  1  0
  9 37  1  1
 12 38  1  0
 13 39  1  0
 14 40  1  0
 16 41  1  0
 17 42  1  0
 23 43  1  0
 24 44  1  0
 25 45  1  0
 30 46  1  0
 31 47  1  0
M  ISO  8  32  14  33  14  34  13  35  13  36  13  37  13  38  14  39  14
M  ISO  8  40  14  41   3  42   3  43  14  44  14  45  14  46   3  47   3
M  END
>  <minimizedAffinity>  (1) 
-6.71864414

>  <minimizedRMSD>  (1) 
0.560244381

$$$$
