
     RDKit          3D

 34 37  0  0  0  0  0  0  0  0999 V2000
   46.2716   34.4864   43.6208 C   0  0  0  0  0  0  0  0  0  0  0  0
   47.3837   33.8812   43.1440 C   0  0  0  0  0  0  0  0  0  0  0  0
   47.7759   32.7460   43.8174 C   0  0  0  0  0  0  0  0  0  0  0  0
   47.0129   32.3261   44.9063 N   0  0  0  0  0  0  0  0  0  0  0  0
   45.9199   32.9734   45.3258 C   0  0  0  0  0  0  0  0  0  0  0  0
   45.5145   34.1019   44.6731 N   0  0  0  0  0  0  0  0  0  0  0  0
   48.1854   34.3508   42.0759 C   0  0  0  0  0  0  0  0  0  0  0  0
   48.5390   35.6152   41.7105 C   0  0  0  0  0  0  0  0  0  0  0  0
   49.6667   34.8317   42.3883 C   0  0  0  0  0  0  0  0  0  0  0  0
   45.5458   35.6407   43.0837 C   0  0  0  0  0  0  0  0  0  0  0  0
   45.2366   36.8297   43.0650 O   0  0  0  0  0  0  0  0  0  0  0  0
   48.6654   32.2001   43.4937 H   0  0  0  0  0  0  0  0  0  0  0  0
   45.5701   32.3984   46.1696 H   0  0  0  0  0  0  0  0  0  0  0  0
   48.4666   33.4297   41.4038 H   0  0  0  0  0  0  0  0  0  0  0  0
   48.1704   36.5346   42.2763 H   0  0  0  0  0  0  0  0  0  0  0  0
   48.8314   35.9331   40.6740 H   0  0  0  0  0  0  0  0  0  0  0  0
   49.8392   35.1126   43.4519 H   0  0  0  0  0  0  0  0  0  0  0  0
   50.4931   34.4957   41.7954 H   0  0  0  0  0  0  0  0  0  0  0  0
   44.6549   35.3916   41.9197 C   0  0  0  0  0  0  0  0  0  0  0  0
   45.2603   35.0029   40.7250 C   0  0  0  0  0  0  0  0  0  0  0  0
   46.3491   34.8280   40.7016 H   0  0  0  0  0  0  0  0  0  0  0  0
   44.6534   34.7849   39.4941 C   0  0  0  0  0  0  0  0  0  0  0  0
   43.2875   34.9880   39.4842 C   0  0  0  0  0  0  0  0  0  0  0  0
   42.6293   34.8099   38.3250 N   0  0  0  0  0  0  0  0  0  0  0  0
   41.2808   35.0062   38.2287 C   0  0  0  0  0  0  0  0  0  0  0  0
   40.7370   34.8668   37.3020 H   0  0  0  0  0  0  0  0  0  0  0  0
   40.5987   35.3983   39.3703 C   0  0  0  0  0  0  0  0  0  0  0  0
   41.2578   35.5898   40.5915 C   0  0  0  0  0  0  0  0  0  0  0  0
   42.6291   35.3750   40.6293 C   0  0  0  0  0  0  0  0  0  0  0  0
   43.2702   35.5785   41.8307 C   0  0  0  0  0  0  0  0  0  0  0  0
   45.2089   34.4735   38.6217 H   0  0  0  0  0  0  0  0  0  0  0  0
   39.5126   35.5667   39.2837 H   0  0  0  0  0  0  0  0  0  0  0  0
   40.7234   35.9035   41.4666 H   0  0  0  0  0  0  0  0  0  0  0  0
   42.8248   35.8916   42.7643 H   0  0  0  0  0  0  0  0  0  0  0  0
  1  6  2  0
  2  1  1  0
  2  3  2  0
  3  4  1  0
  4  5  2  0
  6  5  1  0
  7  9  1  0
  7  2  1  0
  8  7  1  0
  8  9  1  0
 10  1  1  0
 11 10  2  0
  3 12  1  0
  5 13  1  0
  7 14  1  0
  8 15  1  0
  8 16  1  0
  9 17  1  0
  9 18  1  0
 19 20  2  0
 20 21  1  0
 20 22  1  0
 22 23  2  0
 23 24  1  0
 24 25  2  0
 25 26  1  0
 25 27  1  0
 27 28  2  0
 28 29  1  0
 29 30  2  0
 30 19  1  0
 29 23  1  0
 22 31  1  0
 27 32  1  0
 28 33  1  0
 30 34  1  0
 10 19  1  0
M  ISO  8  12  14  13  14  14  13  15  13  16  13  17  13  18  13  21  16
M  ISO  1  26  16
M  END
>  <DihAtoms>  (1) 
0,9,18,19

>  <DihDeg>  (1) 
84.34602765439419

$$$$
