
     RDKit          3D

 39 43  0  0  0  0  0  0  0  0999 V2000
   47.4682   31.6775   44.8213 C   0  0  0  0  0  0  0  0  0  0  0  0
   46.7891   32.8624   44.5389 C   0  0  0  0  0  0  0  0  0  0  0  0
   45.9153   33.4495   45.4312 C   0  0  0  0  0  0  0  0  0  0  0  0
   45.6805   32.8551   46.6785 C   0  0  0  0  0  0  0  0  0  0  0  0
   44.9220   33.1365   47.7591 N   0  0  0  0  0  0  0  0  0  0  0  0
   45.1096   32.1724   48.6905 C   0  0  0  0  0  0  0  0  0  0  0  0
   45.9888   31.3093   48.1572 N   0  0  0  0  0  0  0  0  0  0  0  0
   46.3600   31.6931   46.9295 C   0  0  0  0  0  0  0  0  0  0  0  0
   47.2454   31.0723   46.0602 C   0  0  0  0  0  0  0  0  0  0  0  0
   46.3753   33.8129   41.0167 C   0  0  0  0  0  0  0  0  0  0  0  0
   47.4160   34.7160   40.8157 C   0  0  0  0  0  0  0  0  0  0  0  0
   48.2568   34.9935   41.8969 C   0  0  0  0  0  0  0  0  0  0  0  0
   48.0309   34.3746   43.1038 N   0  0  0  0  0  0  0  0  0  0  0  0
   47.0107   33.5088   43.2472 C   0  0  0  0  0  0  0  0  0  0  0  0
   46.1708   33.2132   42.2176 N   0  0  0  0  0  0  0  0  0  0  0  0
   45.0525   34.9696   45.0527 S   0  0  0  0  0  0  0  0  0  0  0  0
   48.1435   31.2556   44.0889 H   0  0  0  0  0  0  0  0  0  0  0  0
   44.3122   34.0037   47.7688 H   0  0  0  0  0  0  0  0  0  0  0  0
   44.6125   32.1709   49.6479 H   0  0  0  0  0  0  0  0  0  0  0  0
   47.7585   30.1525   46.3066 H   0  0  0  0  0  0  0  0  0  0  0  0
   45.6781   33.5342   40.2542 H   0  0  0  0  0  0  0  0  0  0  0  0
   47.5322   35.1640   39.8379 H   0  0  0  0  0  0  0  0  0  0  0  0
   49.0698   35.6921   41.7591 H   0  0  0  0  0  0  0  0  0  0  0  0
   45.9480   36.4189   45.5349 C   0  0  0  0  0  0  0  0  0  0  0  0
   46.2455   37.2727   44.4791 C   0  0  0  0  0  0  0  0  0  0  0  0
   45.9655   37.0924   43.4370 H   0  0  0  0  0  0  0  0  0  0  0  0
   46.9442   38.4503   44.7035 C   0  0  0  0  0  0  0  0  0  0  0  0
   47.3690   38.8200   45.9695 C   0  0  0  0  0  0  0  0  0  0  0  0
   48.0460   39.9649   46.1744 N   0  0  0  0  0  0  0  0  0  0  0  0
   48.4451   40.2970   47.4142 C   0  0  0  0  0  0  0  0  0  0  0  0
   48.9772   41.2340   47.4533 H   0  0  0  0  0  0  0  0  0  0  0  0
   48.1502   39.4447   48.4800 C   0  0  0  0  0  0  0  0  0  0  0  0
   47.4555   38.2722   48.2627 C   0  0  0  0  0  0  0  0  0  0  0  0
   47.0544   37.9471   46.9879 C   0  0  0  0  0  0  0  0  0  0  0  0
   46.3604   36.7649   46.8062 C   0  0  0  0  0  0  0  0  0  0  0  0
   47.1844   39.1294   43.8848 H   0  0  0  0  0  0  0  0  0  0  0  0
   48.5029   39.7773   49.4478 H   0  0  0  0  0  0  0  0  0  0  0  0
   47.2380   37.6266   49.1038 H   0  0  0  0  0  0  0  0  0  0  0  0
   46.1004   36.0689   47.5648 H   0  0  0  0  0  0  0  0  0  0  0  0
  1  9  2  0
  2  1  1  0
  2  3  2  0
  3  4  1  0
  4  8  2  0
  4  5  1  0
  5  6  1  0
  7  6  2  0
  8  7  1  0
  9  8  1  0
 10 15  2  0
 11 10  1  0
 11 12  2  0
 12 13  1  0
 13 14  2  0
 14  2  1  0
 15 14  1  0
 16  3  1  0
  1 17  1  0
  5 18  1  0
  6 19  1  0
  9 20  1  0
 10 21  1  0
 11 22  1  0
 12 23  1  0
 24 25  2  0
 25 26  1  0
 25 27  1  0
 27 28  2  0
 28 29  1  0
 29 30  2  0
 30 31  1  0
 30 32  1  0
 32 33  2  0
 33 34  1  0
 34 35  2  0
 35 24  1  0
 34 28  1  0
 27 36  1  0
 32 37  1  0
 33 38  1  0
 35 39  1  0
 16 24  1  0
M  ISO  8  17  14  18   9  19  14  20  14  21  14  22  14  23  14  26  16
M  ISO  1  31  16
M  END
>  <DihAtoms>  (1) 
2,15,23,24

>  <DihDeg>  (1) 
179.99779565993137

$$$$
