
     RDKit          3D

 39 43  0  0  0  0  0  0  0  0999 V2000
   47.4682   31.6775   44.8213 C   0  0  0  0  0  0  0  0  0  0  0  0
   46.7891   32.8624   44.5389 C   0  0  0  0  0  0  0  0  0  0  0  0
   45.9153   33.4495   45.4312 C   0  0  0  0  0  0  0  0  0  0  0  0
   45.6805   32.8551   46.6785 C   0  0  0  0  0  0  0  0  0  0  0  0
   44.9220   33.1365   47.7591 N   0  0  0  0  0  0  0  0  0  0  0  0
   45.1096   32.1724   48.6905 C   0  0  0  0  0  0  0  0  0  0  0  0
   45.9888   31.3093   48.1572 N   0  0  0  0  0  0  0  0  0  0  0  0
   46.3600   31.6931   46.9295 C   0  0  0  0  0  0  0  0  0  0  0  0
   47.2454   31.0723   46.0602 C   0  0  0  0  0  0  0  0  0  0  0  0
   46.3753   33.8129   41.0167 C   0  0  0  0  0  0  0  0  0  0  0  0
   47.4160   34.7160   40.8157 C   0  0  0  0  0  0  0  0  0  0  0  0
   48.2568   34.9935   41.8969 C   0  0  0  0  0  0  0  0  0  0  0  0
   48.0309   34.3746   43.1038 N   0  0  0  0  0  0  0  0  0  0  0  0
   47.0107   33.5088   43.2472 C   0  0  0  0  0  0  0  0  0  0  0  0
   46.1708   33.2132   42.2176 N   0  0  0  0  0  0  0  0  0  0  0  0
   45.0525   34.9696   45.0527 S   0  0  0  0  0  0  0  0  0  0  0  0
   48.1435   31.2556   44.0889 H   0  0  0  0  0  0  0  0  0  0  0  0
   44.3122   34.0037   47.7688 H   0  0  0  0  0  0  0  0  0  0  0  0
   44.6125   32.1709   49.6479 H   0  0  0  0  0  0  0  0  0  0  0  0
   47.7585   30.1525   46.3066 H   0  0  0  0  0  0  0  0  0  0  0  0
   45.6781   33.5342   40.2542 H   0  0  0  0  0  0  0  0  0  0  0  0
   47.5322   35.1640   39.8379 H   0  0  0  0  0  0  0  0  0  0  0  0
   49.0698   35.6921   41.7591 H   0  0  0  0  0  0  0  0  0  0  0  0
   45.9480   36.4189   45.5349 C   0  0  0  0  0  0  0  0  0  0  0  0
   46.5031   36.3390   46.8068 C   0  0  0  0  0  0  0  0  0  0  0  0
   46.4119   35.4744   47.4709 H   0  0  0  0  0  0  0  0  0  0  0  0
   47.2342   37.3999   47.3219 C   0  0  0  0  0  0  0  0  0  0  0  0
   47.4391   38.5661   46.6023 C   0  0  0  0  0  0  0  0  0  0  0  0
   48.1502   39.5882   47.1129 N   0  0  0  0  0  0  0  0  0  0  0  0
   48.3322   40.7073   46.3908 C   0  0  0  0  0  0  0  0  0  0  0  0
   48.9168   41.4542   46.9036 H   0  0  0  0  0  0  0  0  0  0  0  0
   47.7778   40.7952   45.1125 C   0  0  0  0  0  0  0  0  0  0  0  0
   47.0498   39.7432   44.5950 C   0  0  0  0  0  0  0  0  0  0  0  0
   46.8728   38.6053   45.3470 C   0  0  0  0  0  0  0  0  0  0  0  0
   46.1380   37.5706   44.7976 C   0  0  0  0  0  0  0  0  0  0  0  0
   47.6754   37.3511   48.3180 H   0  0  0  0  0  0  0  0  0  0  0  0
   47.9657   41.7250   44.5912 H   0  0  0  0  0  0  0  0  0  0  0  0
   46.6291   39.8334   43.6018 H   0  0  0  0  0  0  0  0  0  0  0  0
   45.6876   37.5646   43.8361 H   0  0  0  0  0  0  0  0  0  0  0  0
  1  9  2  0
  2  1  1  0
  2  3  2  0
  3  4  1  0
  4  8  2  0
  4  5  1  0
  5  6  1  0
  7  6  2  0
  8  7  1  0
  9  8  1  0
 10 15  2  0
 11 10  1  0
 11 12  2  0
 12 13  1  0
 13 14  2  0
 14  2  1  0
 15 14  1  0
 16  3  1  0
  1 17  1  0
  5 18  1  0
  6 19  1  0
  9 20  1  0
 10 21  1  0
 11 22  1  0
 12 23  1  0
 24 25  2  0
 25 26  1  0
 25 27  1  0
 27 28  2  0
 28 29  1  0
 29 30  2  0
 30 31  1  0
 30 32  1  0
 32 33  2  0
 33 34  1  0
 34 35  2  0
 35 24  1  0
 34 28  1  0
 27 36  1  0
 32 37  1  0
 33 38  1  0
 35 39  1  0
 16 24  1  0
M  ISO  8  17  14  18   9  19  14  20  14  21  14  22  14  23  14  26  16
M  ISO  1  31  16
M  END
>  <DihAtoms>  (1) 
2,15,23,24

>  <DihDeg>  (1) 
179.99779565993137

$$$$
