
     RDKit          3D

 36 39  0  0  0  0  0  0  0  0999 V2000
   45.2648   36.1560   43.1848 C   0  0  0  0  0  0  0  0  0  0  0  0
   45.8699   34.9195   42.8916 C   0  0  0  0  0  0  0  0  0  0  0  0
   45.8245   33.9543   43.8967 C   0  0  0  0  0  0  0  0  0  0  0  0
   45.2275   34.2322   45.0614 N   0  0  0  0  0  0  0  0  0  0  0  0
   44.6477   35.4392   45.3214 C   0  0  0  0  0  0  0  0  0  0  0  0
   44.6844   36.3679   44.3710 N   0  0  0  0  0  0  0  0  0  0  0  0
   46.4452   32.6504   43.6286 C   0  0  0  0  0  0  0  0  0  0  0  0
   45.6506   31.5789   43.2945 C   0  0  0  0  0  0  0  0  0  0  0  0
   46.2876   30.3759   43.0527 C   0  0  0  0  0  0  0  0  0  0  0  0
   47.6558   30.1774   43.1230 C   0  0  0  0  0  0  0  0  0  0  0  0
   48.3838   31.3133   43.4672 C   0  0  0  0  0  0  0  0  0  0  0  0
   47.7674   32.4843   43.7029 N   0  0  0  0  0  0  0  0  0  0  0  0
   46.4914   34.6781   41.6353 C   0  0  0  0  0  0  0  0  0  0  0  0
   47.6695   35.1305   41.4779 O   0  0  0  0  0  0  0  0  0  0  0  0
   45.2609   36.9589   42.4478 H   0  0  0  0  0  0  0  0  0  0  0  0
   44.2186   35.4709   46.3149 H   0  0  0  0  0  0  0  0  0  0  0  0
   44.5724   31.6468   43.2171 H   0  0  0  0  0  0  0  0  0  0  0  0
   45.6956   29.4987   42.7845 H   0  0  0  0  0  0  0  0  0  0  0  0
   48.1234   29.2390   42.9319 H   0  0  0  0  0  0  0  0  0  0  0  0
   49.4610   31.2478   43.5450 H   0  0  0  0  0  0  0  0  0  0  0  0
   45.8376   33.9488   40.5535 C   0  0  0  0  0  0  0  0  0  0  0  0
   44.7646   34.4312   39.8185 C   0  0  0  0  0  0  0  0  0  0  0  0
   44.4149   35.4166   40.0917 H   0  0  0  0  0  0  0  0  0  0  0  0
   44.2361   33.6249   38.8100 C   0  0  0  0  0  0  0  0  0  0  0  0
   44.7685   32.3793   38.5516 C   0  0  0  0  0  0  0  0  0  0  0  0
   44.2212   31.6447   37.5696 N   0  0  0  0  0  0  0  0  0  0  0  0
   44.6967   30.4045   37.2599 C   0  0  0  0  0  0  0  0  0  0  0  0
   44.1939   29.8869   36.4549 H   0  0  0  0  0  0  0  0  0  0  0  0
   45.7773   29.8774   37.9746 C   0  0  0  0  0  0  0  0  0  0  0  0
   46.3414   30.6499   38.9963 C   0  0  0  0  0  0  0  0  0  0  0  0
   45.8318   31.8945   39.2758 C   0  0  0  0  0  0  0  0  0  0  0  0
   46.3629   32.6832   40.2759 C   0  0  0  0  0  0  0  0  0  0  0  0
   43.4018   34.0652   38.2789 H   0  0  0  0  0  0  0  0  0  0  0  0
   46.1329   28.8915   37.7069 H   0  0  0  0  0  0  0  0  0  0  0  0
   47.1876   30.2394   39.5574 H   0  0  0  0  0  0  0  0  0  0  0  0
   47.2125   32.2955   40.8543 H   0  0  0  0  0  0  0  0  0  0  0  0
  1  6  2  0
  2  1  1  0
  2  3  2  0
  3  4  1  0
  4  5  2  0
  6  5  1  0
  7 12  1  0
  7  3  1  0
  8  7  2  0
  9 10  2  0
  9  8  1  0
 10 11  1  0
 11 12  2  0
 13  2  1  0
 14 13  2  0
  1 15  1  0
  5 16  1  0
  8 17  1  0
  9 18  1  0
 10 19  1  0
 11 20  1  0
 21 22  2  0
 22 23  1  0
 22 24  1  0
 24 25  2  0
 25 26  1  0
 26 27  2  0
 27 28  1  0
 27 29  1  0
 29 30  2  0
 30 31  1  0
 31 32  2  0
 32 21  1  0
 31 25  1  0
 24 33  1  0
 29 34  1  0
 30 35  1  0
 32 36  1  0
 13 21  1  0
M  ISO  8  15  14  16  14  17  14  18  14  19  14  20  14  23  16  28  16
M  END
>  <DihAtoms>  (1) 
1,12,20,21

>  <DihDeg>  (1) 
-154.98736764989496

$$$$
