
     RDKit          3D

 36 39  0  0  0  0  0  0  0  0999 V2000
   44.8440   36.0760   43.4690 C   0  0  0  0  0  0  0  0  0  0  0  0
   45.3040   34.8370   42.9830 C   0  0  0  0  0  0  0  0  0  0  0  0
   45.4640   33.8230   43.9260 C   0  0  0  0  0  0  0  0  0  0  0  0
   45.1830   34.0590   45.2120 N   0  0  0  0  0  0  0  0  0  0  0  0
   44.7390   35.2690   45.6590 C   0  0  0  0  0  0  0  0  0  0  0  0
   44.5820   36.2440   44.7700 N   0  0  0  0  0  0  0  0  0  0  0  0
   45.9410   32.5150   43.4570 C   0  0  0  0  0  0  0  0  0  0  0  0
   45.0300   31.5520   43.0960 C   0  0  0  0  0  0  0  0  0  0  0  0
   45.5350   30.3400   42.6630 C   0  0  0  0  0  0  0  0  0  0  0  0
   46.8810   30.0330   42.5670 C   0  0  0  0  0  0  0  0  0  0  0  0
   47.7340   31.0640   42.9520 C   0  0  0  0  0  0  0  0  0  0  0  0
   47.2450   32.2440   43.3740 N   0  0  0  0  0  0  0  0  0  0  0  0
   45.5860   34.6420   41.6020 C   0  0  0  0  0  0  0  0  0  0  0  0
   46.7820   34.8510   41.2240 O   0  0  0  0  0  0  0  0  0  0  0  0
   44.5770   34.2220   40.6360 C   0  0  0  0  0  0  0  0  0  0  0  0
   44.7570   33.2150   39.7010 C   0  0  0  0  0  0  0  0  0  0  0  0
   43.7040   32.9170   38.8360 C   0  0  0  0  0  0  0  0  0  0  0  0
   42.5120   33.6090   38.9110 C   0  0  0  0  0  0  0  0  0  0  0  0
   41.5310   33.2820   38.0540 N   0  0  0  0  0  0  0  0  0  0  0  0
   40.3280   33.9240   38.0730 C   0  0  0  0  0  0  0  0  0  0  0  0
   40.1010   34.9470   38.9990 C   0  0  0  0  0  0  0  0  0  0  0  0
   41.1300   35.2810   39.8880 C   0  0  0  0  0  0  0  0  0  0  0  0
   42.3260   34.6080   39.8360 C   0  0  0  0  0  0  0  0  0  0  0  0
   43.3620   34.9120   40.6970 C   0  0  0  0  0  0  0  0  0  0  0  0
   44.6986   36.9143   42.7717 H   0  0  0  0  0  0  0  0  0  0  0  0
   44.5175   35.4327   46.7240 H   0  0  0  0  0  0  0  0  0  0  0  0
   43.9470   31.7371   43.1491 H   0  0  0  0  0  0  0  0  0  0  0  0
   44.8134   29.5620   42.3733 H   0  0  0  0  0  0  0  0  0  0  0  0
   47.2463   29.0566   42.2160 H   0  0  0  0  0  0  0  0  0  0  0  0
   48.8226   30.9115   42.9105 H   0  0  0  0  0  0  0  0  0  0  0  0
   45.7073   32.6640   39.6424 H   0  0  0  0  0  0  0  0  0  0  0  0
   43.8249   32.1217   38.0858 H   0  0  0  0  0  0  0  0  0  0  0  0
   39.5387   33.6381   37.3622 H   0  0  0  0  0  0  0  0  0  0  0  0
   39.1373   35.4766   39.0283 H   0  0  0  0  0  0  0  0  0  0  0  0
   40.9805   36.0817   40.6273 H   0  0  0  0  0  0  0  0  0  0  0  0
   43.2295   35.7097   41.4428 H   0  0  0  0  0  0  0  0  0  0  0  0
  1  6  2  0
  2  1  1  0
  2  3  2  0
  3  4  1  0
  4  5  2  0
  6  5  1  0
  7  3  1  0
  8  7  2  0
  9  8  1  0
 10  9  2  0
 10 11  1  0
 11 12  2  0
 12  7  1  0
 13  2  1  0
 14 13  2  0
 15 24  1  0
 15 13  1  0
 16 15  2  0
 17 18  2  0
 17 16  1  0
 18 23  1  0
 19 20  2  0
 19 18  1  0
 20 21  1  0
 21 22  2  0
 23 22  1  0
 23 24  2  0
  1 25  1  0
  5 26  1  0
  8 27  1  0
  9 28  1  0
 10 29  1  0
 11 30  1  0
 16 31  1  0
 17 32  1  0
 20 33  1  0
 21 34  1  0
 22 35  1  0
 24 36  1  0
M  ISO  8  25  14  26  14  27  14  28  14  29  14  30  14  31  14  32  14
M  ISO  4  33  14  34  14  35  14  36  14
M  END
>  <minimizedAffinity>  (1) 
-5.58773804

>  <minimizedRMSD>  (1) 
2.18295717

$$$$
