
     RDKit          3D

 38 41  0  0  0  0  0  0  0  0999 V2000
   45.1130   32.3080   39.5980 Cl  0  0  0  0  0  0  0  0  0  0  0  0
   46.4230   33.1880   38.9040 C   0  0  0  0  0  0  0  0  0  0  0  0
   47.2820   33.9250   39.6900 C   0  0  0  0  0  0  0  0  0  0  0  0
   48.3490   34.6470   39.1560 C   0  0  0  0  0  0  0  0  0  0  0  0
   48.5030   34.5840   37.7920 C   0  0  0  0  0  0  0  0  0  0  0  0
   47.6490   33.8490   37.0010 C   0  0  0  0  0  0  0  0  0  0  0  0
   46.6110   33.1520   37.5450 C   0  0  0  0  0  0  0  0  0  0  0  0
   45.7630   32.4040   36.6210 C   0  0  0  0  0  0  0  0  0  0  0  0
   45.9970   32.1560   35.2730 C   0  0  0  0  0  0  0  0  0  0  0  0
   45.0770   31.4250   34.5510 C   0  0  0  0  0  0  0  0  0  0  0  0
   43.9190   30.9190   35.1060 C   0  0  0  0  0  0  0  0  0  0  0  0
   43.0420   30.2140   34.3930 N   0  0  0  0  0  0  0  0  0  0  0  0
   41.9070   29.7180   34.9310 C   0  0  0  0  0  0  0  0  0  0  0  0
   41.6150   29.9330   36.2790 C   0  0  0  0  0  0  0  0  0  0  0  0
   42.5200   30.6610   37.0210 C   0  0  0  0  0  0  0  0  0  0  0  0
   43.6560   31.1450   36.4340 C   0  0  0  0  0  0  0  0  0  0  0  0
   44.5830   31.8790   37.1480 C   0  0  0  0  0  0  0  0  0  0  0  0
   47.5360   33.1340   43.2790 C   0  0  0  0  0  0  0  0  0  0  0  0
   46.6210   34.0310   43.8590 C   0  0  0  0  0  0  0  0  0  0  0  0
   45.9360   34.8890   43.0120 C   0  0  0  0  0  0  0  0  0  0  0  0
   46.1750   34.8270   41.6730 N   0  0  0  0  0  0  0  0  0  0  0  0
   47.0630   33.9510   41.1380 C   0  0  0  0  0  0  0  0  0  0  0  0
   47.7410   33.1050   41.9510 N   0  0  0  0  0  0  0  0  0  0  0  0
   44.9270   35.9010   43.5000 C   0  0  0  0  0  0  0  0  0  0  0  0
   45.2850   37.1670   43.1340 F   0  0  0  0  0  0  0  0  0  0  0  0
   43.6920   35.5890   42.9530 F   0  0  0  0  0  0  0  0  0  0  0  0
   44.8890   35.7710   44.8680 F   0  0  0  0  0  0  0  0  0  0  0  0
   49.0290   35.2339   39.7910 H   0  0  0  0  0  0  0  0  0  0  0  0
   49.3298   35.1350   37.3200 H   0  0  0  0  0  0  0  0  0  0  0  0
   47.8065   33.8236   35.9126 H   0  0  0  0  0  0  0  0  0  0  0  0
   46.9067   32.5390   34.7874 H   0  0  0  0  0  0  0  0  0  0  0  0
   45.2749   31.2369   33.4854 H   0  0  0  0  0  0  0  0  0  0  0  0
   41.2098   29.1423   34.3045 H   0  0  0  0  0  0  0  0  0  0  0  0
   40.6952   29.5355   36.7329 H   0  0  0  0  0  0  0  0  0  0  0  0
   42.3281   30.8529   38.0870 H   0  0  0  0  0  0  0  0  0  0  0  0
   44.3751   32.0634   38.2123 H   0  0  0  0  0  0  0  0  0  0  0  0
   48.0954   32.4419   43.9256 H   0  0  0  0  0  0  0  0  0  0  0  0
   46.4547   34.0512   44.9462 H   0  0  0  0  0  0  0  0  0  0  0  0
  2  1  1  0
  2  3  2  0
  3 22  1  0
  4  3  1  0
  5  4  2  0
  6  7  2  0
  6  5  1  0
  7  2  1  0
  8 17  1  0
  8  7  1  0
  9  8  2  0
 10 11  2  0
 10  9  1  0
 11 16  1  0
 12 13  2  0
 12 11  1  0
 13 14  1  0
 14 15  2  0
 16 15  1  0
 16 17  2  0
 18 19  2  0
 20 24  1  0
 20 19  1  0
 21 20  2  0
 22 21  1  0
 22 23  2  0
 23 18  1  0
 24 27  1  0
 25 24  1  0
 26 24  1  0
  4 28  1  0
  5 29  1  0
  6 30  1  0
  9 31  1  0
 10 32  1  0
 13 33  1  0
 14 34  1  0
 15 35  1  0
 17 36  1  0
 18 37  1  0
 19 38  1  0
M  ISO  8  28  14  29  14  30  14  31  14  32  14  33  14  34  14  35  14
M  ISO  3  36  14  37  14  38  14
M  END
>  <minimizedAffinity>  (1) 
-6.30842972

>  <minimizedRMSD>  (1) 
0.464785725

$$$$
