
     RDKit          3D

 56 61  0  0  0  0  0  0  0  0999 V2000
   45.7586   33.1354   46.2327 C   0  0  0  0  0  0  0  0  0  0  0  0
   45.9150   31.9441   45.8297 C   0  0  0  0  0  0  0  0  0  0  0  0
   44.5277   36.1386   44.4862 C   0  0  0  0  0  0  0  0  0  0  0  0
   45.2033   36.0923   43.2717 C   0  0  0  0  0  0  0  0  0  0  0  0
   46.0493   35.0444   43.0927 C   0  0  0  0  0  0  0  0  0  0  0  0
   46.2005   34.1104   44.0733 N   0  0  0  0  0  0  0  0  0  0  0  0
   45.5316   34.1846   45.2374 C   0  0  0  0  0  0  0  0  0  0  0  0
   44.7092   35.2028   45.4117 N   0  0  0  0  0  0  0  0  0  0  0  0
   46.8241   34.8620   41.8719 C   0  0  0  0  0  0  0  0  0  0  0  0
   48.0486   35.4121   41.6327 C   0  0  0  0  0  0  0  0  0  0  0  0
   48.7697   35.2291   40.4698 C   0  0  0  0  0  0  0  0  0  0  0  0
   48.2490   34.4442   39.4607 C   0  0  0  0  0  0  0  0  0  0  0  0
   47.0226   33.8639   39.6412 C   0  0  0  0  0  0  0  0  0  0  0  0
   46.3462   34.0832   40.8279 C   0  0  0  0  0  0  0  0  0  0  0  0
   46.0821   30.9046   46.9116 C   0  0  0  0  0  0  0  0  0  0  0  0
   45.8970   31.5027   48.2589 C   0  0  1  0  0  0  0  0  0  0  0  0
   45.7117   30.5269   49.3699 C   0  0  0  0  0  0  0  0  0  0  0  0
   46.9283   31.3323   49.3010 C   0  0  1  0  0  0  0  0  0  0  0  0
   48.2446   30.7456   48.8964 C   0  0  2  0  0  0  0  0  0  0  0  0
   49.1784   30.4634   50.1013 C   0  0  0  0  0  0  0  0  0  0  0  0
   49.4994   31.5657   49.1814 C   0  0  1  0  0  0  0  0  0  0  0  0
   45.7679   33.6151   47.2001 H   0  0  0  0  0  0  0  0  0  0  0  0
   45.8992   31.6296   44.7966 H   0  0  0  0  0  0  0  0  0  0  0  0
   43.8369   36.9559   44.6842 H   0  0  0  0  0  0  0  0  0  0  0  0
   45.0642   36.8478   42.5104 H   0  0  0  0  0  0  0  0  0  0  0  0
   48.4938   36.0412   42.4110 H   0  0  0  0  0  0  0  0  0  0  0  0
   49.7321   35.6684   40.2959 H   0  0  0  0  0  0  0  0  0  0  0  0
   48.7291   34.2335   38.5075 H   0  0  0  0  0  0  0  0  0  0  0  0
   46.5693   33.2410   38.8845 H   0  0  0  0  0  0  0  0  0  0  0  0
   45.3687   33.6011   40.9323 H   0  0  0  0  0  0  0  0  0  0  0  0
   45.2012   30.2162   46.7473 H   0  0  0  0  0  0  0  0  0  0  0  0
   46.9676   30.3302   46.7183 H   0  0  0  0  0  0  0  0  0  0  0  0
   45.0804   32.2821   48.3193 H   0  0  0  0  0  0  0  0  0  0  0  0
   45.0088   30.7033   50.2082 H   0  0  0  0  0  0  0  0  0  0  0  0
   45.8196   29.4390   49.1368 H   0  0  0  0  0  0  0  0  0  0  0  0
   47.0154   32.1603   50.0352 H   0  0  0  0  0  0  0  0  0  0  0  0
   48.3251   29.9312   48.1674 H   0  0  0  0  0  0  0  0  0  0  0  0
   48.8384   30.7703   51.1074 H   0  0  0  0  0  0  0  0  0  0  0  0
   49.8129   29.5842   50.1111 H   0  0  0  0  0  0  0  0  0  0  0  0
   49.3470   32.6120   49.5159 H   0  0  0  0  0  0  0  0  0  0  0  0
   50.6700   31.3824   48.3014 C   0  0  0  0  0  0  0  0  0  0  0  0
   51.5125   30.2940   48.5576 C   0  0  0  0  0  0  0  0  0  0  0  0
   51.3442   29.5848   49.3680 H   0  0  0  0  0  0  0  0  0  0  0  0
   52.6339   30.0671   47.7622 C   0  0  0  0  0  0  0  0  0  0  0  0
   52.9419   30.9079   46.7039 C   0  0  0  0  0  0  0  0  0  0  0  0
   54.0207   30.6770   45.9505 N   0  0  0  0  0  0  0  0  0  0  0  0
   54.3720   31.4540   44.9128 C   0  0  0  0  0  0  0  0  0  0  0  0
   55.2523   31.2328   44.3284 H   0  0  0  0  0  0  0  0  0  0  0  0
   53.5479   32.5366   44.6455 C   0  0  0  0  0  0  0  0  0  0  0  0
   52.4091   32.8144   45.4091 C   0  0  0  0  0  0  0  0  0  0  0  0
   52.0850   31.9791   46.4767 C   0  0  0  0  0  0  0  0  0  0  0  0
   50.9616   32.2299   47.2516 C   0  0  0  0  0  0  0  0  0  0  0  0
   53.2938   29.2295   47.9490 H   0  0  0  0  0  0  0  0  0  0  0  0
   53.8276   33.1674   43.8079 H   0  0  0  0  0  0  0  0  0  0  0  0
   51.7879   33.6611   45.1792 H   0  0  0  0  0  0  0  0  0  0  0  0
   50.3086   33.0757   47.0511 H   0  0  0  0  0  0  0  0  0  0  0  0
  2  1  2  0
  2 15  1  0
  3  8  2  0
  4  3  1  0
  5  4  2  0
  5  6  1  0
  6  7  2  0
  7  8  1  0
  7  1  1  0
  9  5  1  0
 10  9  2  0
 11 10  1  0
 12 13  1  0
 12 11  2  0
 13 14  2  0
 14  9  1  0
 15 16  1  0
 16 18  1  0
 16 17  1  0
 18 17  1  0
 19 21  1  0
 19 18  1  0
 19 20  1  0
 21 20  1  0
  1 22  1  0
  2 23  1  0
  3 24  1  0
  4 25  1  0
 10 26  1  0
 11 27  1  0
 12 28  1  0
 13 29  1  0
 14 30  1  0
 15 31  1  0
 15 32  1  0
 16 33  1  6
 17 34  1  0
 17 35  1  0
 18 36  1  1
 19 37  1  6
 20 38  1  0
 20 39  1  0
 21 40  1  1
 41 42  2  0
 42 43  1  0
 42 44  1  0
 44 45  2  0
 45 46  1  0
 46 47  2  0
 47 48  1  0
 47 49  1  0
 49 50  2  0
 50 51  1  0
 51 52  2  0
 52 41  1  0
 51 45  1  0
 44 53  1  0
 49 54  1  0
 50 55  1  0
 52 56  1  0
 21 41  1  0
M  ISO  8  24  14  25  14  26  14  27  14  28  14  29  14  30  14  31   8
M  ISO  8  32   8  33  13  34  13  35  13  36  13  37  13  38  13  39  13
M  ISO  3  40  13  43  16  48  16
M  END
>  <DihAtoms>  (1) 
18,20,40,41

>  <DihDeg>  (1) 
143.04627307156832

$$$$
