
     RDKit          3D

 30 32  0  0  0  0  0  0  0  0999 V2000
   45.7200   32.3860   46.8640 C   0  0  0  0  0  0  0  0  0  0  0  0
   46.8600   31.6440   47.4930 C   0  0  0  0  0  0  0  0  0  0  0  0
   47.6580   32.4220   48.3310 C   0  0  0  0  0  0  0  0  0  0  0  0
   48.7320   31.8020   48.9480 C   0  0  0  0  0  0  0  0  0  0  0  0
   48.9700   30.4670   48.7180 C   0  0  0  0  0  0  0  0  0  0  0  0
   50.0460   29.9320   49.3620 N   0  0  0  0  0  0  0  0  0  0  0  0
   50.3320   28.6360   49.1810 C   0  0  0  0  0  0  0  0  0  0  0  0
   49.5380   27.8690   48.3490 C   0  0  0  0  0  0  0  0  0  0  0  0
   48.4540   28.3570   47.6850 C   0  0  0  0  0  0  0  0  0  0  0  0
   48.1640   29.7010   47.8790 C   0  0  0  0  0  0  0  0  0  0  0  0
   47.0850   30.3060   47.2520 C   0  0  0  0  0  0  0  0  0  0  0  0
   45.6420   34.7440   44.0890 C   0  0  0  0  0  0  0  0  0  0  0  0
   46.7380   34.3770   43.2970 C   0  0  0  0  0  0  0  0  0  0  0  0
   47.5050   33.3160   43.7210 C   0  0  0  0  0  0  0  0  0  0  0  0
   47.1760   32.6760   44.8680 N   0  0  0  0  0  0  0  0  0  0  0  0
   46.1200   33.0520   45.6030 C   0  0  0  0  0  0  0  0  0  0  0  0
   45.3400   34.0900   45.2240 N   0  0  0  0  0  0  0  0  0  0  0  0
   46.9420   35.1490   42.1290 N   0  0  0  0  0  0  0  0  0  0  0  0
   44.9092   31.6747   46.6482 H   0  0  0  0  0  0  0  0  0  0  0  0
   45.3902   33.1633   47.5690 H   0  0  0  0  0  0  0  0  0  0  0  0
   47.4427   33.4880   48.4959 H   0  0  0  0  0  0  0  0  0  0  0  0
   49.3907   32.3740   49.6180 H   0  0  0  0  0  0  0  0  0  0  0  0
   51.1948   28.1840   49.6921 H   0  0  0  0  0  0  0  0  0  0  0  0
   49.7956   26.8079   48.2163 H   0  0  0  0  0  0  0  0  0  0  0  0
   47.8409   27.7206   47.0300 H   0  0  0  0  0  0  0  0  0  0  0  0
   46.4273   29.7339   46.5811 H   0  0  0  0  0  0  0  0  0  0  0  0
   45.0124   35.5891   43.7739 H   0  0  0  0  0  0  0  0  0  0  0  0
   48.3767   32.9911   43.1340 H   0  0  0  0  0  0  0  0  0  0  0  0
   46.3027   35.9254   41.9067 H   0  0  0  0  0  0  0  0  0  0  0  0
   47.7298   34.9346   41.5010 H   0  0  0  0  0  0  0  0  0  0  0  0
  1  2  1  0
  2  3  2  0
  3  4  1  0
  5  4  2  0
  5  6  1  0
  7  6  2  0
  8  7  1  0
  9 10  1  0
  9  8  2  0
 10  5  1  0
 11  2  1  0
 11 10  2  0
 12 17  2  0
 13 14  2  0
 13 12  1  0
 14 15  1  0
 15 16  2  0
 16  1  1  0
 17 16  1  0
 18 13  1  0
  1 19  1  0
  1 20  1  0
  3 21  1  0
  4 22  1  0
  7 23  1  0
  8 24  1  0
  9 25  1  0
 11 26  1  0
 12 27  1  0
 14 28  1  0
 18 29  1  0
 18 30  1  0
M  ISO  8  19   8  20   8  21  14  22  14  23  14  24  14  25  14  26  14
M  ISO  2  27  14  28  14
M  END
>  <minimizedAffinity>  (1) 
-4.49065304

>  <minimizedRMSD>  (1) 
3.29334021

$$$$
