
     RDKit          3D

 35 38  0  0  0  0  0  0  0  0999 V2000
   44.0190   32.9580   42.9750 F   0  0  0  0  0  0  0  0  0  0  0  0
   45.2530   33.4800   42.7920 C   0  0  0  0  0  0  0  0  0  0  0  0
   45.5280   34.1130   41.5980 C   0  0  0  0  0  0  0  0  0  0  0  0
   46.7770   34.6430   41.4080 C   0  0  0  0  0  0  0  0  0  0  0  0
   47.7400   34.5440   42.3910 C   0  0  0  0  0  0  0  0  0  0  0  0
   47.4840   33.9200   43.5800 C   0  0  0  0  0  0  0  0  0  0  0  0
   46.2000   33.3750   43.7750 C   0  0  0  0  0  0  0  0  0  0  0  0
   45.9700   32.7280   45.0360 C   0  0  0  0  0  0  0  0  0  0  0  0
   45.8320   33.3780   46.2440 C   0  0  0  0  0  0  0  0  0  0  0  0
   45.6100   32.7000   47.4400 C   0  0  0  0  0  0  0  0  0  0  0  0
   45.5250   31.3240   47.4150 C   0  0  0  0  0  0  0  0  0  0  0  0
   45.3100   30.6360   48.5630 N   0  0  0  0  0  0  0  0  0  0  0  0
   45.2290   29.2940   48.5170 C   0  0  0  0  0  0  0  0  0  0  0  0
   45.3550   28.5440   47.3510 C   0  0  0  0  0  0  0  0  0  0  0  0
   45.5750   29.2350   46.1760 C   0  0  0  0  0  0  0  0  0  0  0  0
   45.6540   30.6120   46.2360 C   0  0  0  0  0  0  0  0  0  0  0  0
   45.8760   31.3400   45.0710 C   0  0  0  0  0  0  0  0  0  0  0  0
   42.5610   35.2030   39.7630 C   0  0  0  0  0  0  0  0  0  0  0  0
   42.5740   34.3800   38.6070 C   0  0  0  0  0  0  0  0  0  0  0  0
   43.6180   33.4640   38.4930 C   0  0  0  0  0  0  0  0  0  0  0  0
   44.5570   33.4130   39.4930 N   0  0  0  0  0  0  0  0  0  0  0  0
   44.5050   34.2100   40.5690 C   0  0  0  0  0  0  0  0  0  0  0  0
   43.5100   35.1000   40.7020 N   0  0  0  0  0  0  0  0  0  0  0  0
   47.0144   35.1525   40.4624 H   0  0  0  0  0  0  0  0  0  0  0  0
   48.7357   34.9767   42.2141 H   0  0  0  0  0  0  0  0  0  0  0  0
   48.2563   33.8459   44.3598 H   0  0  0  0  0  0  0  0  0  0  0  0
   45.8999   34.4757   46.2639 H   0  0  0  0  0  0  0  0  0  0  0  0
   45.5045   33.2513   48.3860 H   0  0  0  0  0  0  0  0  0  0  0  0
   45.0521   28.7556   49.4598 H   0  0  0  0  0  0  0  0  0  0  0  0
   45.2823   27.4465   47.3651 H   0  0  0  0  0  0  0  0  0  0  0  0
   45.6842   28.7034   45.2192 H   0  0  0  0  0  0  0  0  0  0  0  0
   45.9831   30.7879   44.1256 H   0  0  0  0  0  0  0  0  0  0  0  0
   41.7549   35.9406   39.8903 H   0  0  0  0  0  0  0  0  0  0  0  0
   41.7945   34.4615   37.8351 H   0  0  0  0  0  0  0  0  0  0  0  0
   43.6881   32.7968   37.6213 H   0  0  0  0  0  0  0  0  0  0  0  0
  2  1  1  0
  2  7  2  0
  3  2  1  0
  4  3  2  0
  4  5  1  0
  5  6  2  0
  6  7  1  0
  7  8  1  0
  8 17  1  0
  8  9  2  0
  9 10  1  0
 11 10  2  0
 11 12  1  0
 13 12  2  0
 14 13  1  0
 15 16  1  0
 15 14  2  0
 16 11  1  0
 17 16  2  0
 18 23  2  0
 19 18  1  0
 20 19  2  0
 20 21  1  0
 21 22  2  0
 22 23  1  0
 22  3  1  0
  4 24  1  0
  5 25  1  0
  6 26  1  0
  9 27  1  0
 10 28  1  0
 13 29  1  0
 14 30  1  0
 15 31  1  0
 17 32  1  0
 18 33  1  0
 19 34  1  0
 20 35  1  0
M  ISO  8  24  14  25  14  26  14  27  14  28  14  29  14  30  14  31  14
M  ISO  4  32  14  33  14  34  14  35  14
M  END
>  <minimizedAffinity>  (1) 
-5.69314003

>  <minimizedRMSD>  (1) 
5.64666605

$$$$
