
     RDKit          3D

 34 37  0  0  0  0  0  0  0  0999 V2000
   44.6254   35.4612   45.1334 C   0  0  0  0  0  0  0  0  0  0  0  0
   45.0977   35.7136   43.8034 C   0  0  0  0  0  0  0  0  0  0  0  0
   46.0416   34.8232   43.3604 C   0  0  0  0  0  0  0  0  0  0  0  0
   46.4958   33.7701   44.1457 N   0  0  0  0  0  0  0  0  0  0  0  0
   46.0130   33.5934   45.3777 C   0  0  0  0  0  0  0  0  0  0  0  0
   45.0745   34.4399   45.8756 N   0  0  0  0  0  0  0  0  0  0  0  0
   46.5398   34.9764   41.9409 C   0  0  1  0  0  0  0  0  0  0  0  0
   48.0641   35.2742   41.9359 C   0  0  0  0  0  0  0  0  0  0  0  0
   47.3863   33.9758   41.3978 C   0  0  2  0  0  0  0  0  0  0  0  0
   44.6447   36.8131   43.0174 N   0  0  0  0  0  0  0  0  0  0  0  0
   43.8785   36.1374   45.5257 H   0  0  0  0  0  0  0  0  0  0  0  0
   46.4627   32.7365   45.8587 H   0  0  0  0  0  0  0  0  0  0  0  0
   45.9600   35.7187   41.3560 H   0  0  0  0  0  0  0  0  0  0  0  0
   48.4612   35.9110   41.1369 H   0  0  0  0  0  0  0  0  0  0  0  0
   48.6300   35.1979   42.8577 H   0  0  0  0  0  0  0  0  0  0  0  0
   47.6190   33.0839   42.0289 H   0  0  0  0  0  0  0  0  0  0  0  0
   44.2333   36.7267   42.0500 H   0  0  0  0  0  0  0  0  0  0  0  0
   44.8002   37.6913   43.5803 H   0  0  0  0  0  0  0  0  0  0  0  0
   47.4838   33.7390   39.9214 C   0  0  0  0  0  0  0  0  0  0  0  0
   47.5214   34.8894   39.1361 C   0  0  0  0  0  0  0  0  0  0  0  0
   47.4829   35.8815   39.5644 H   0  0  0  0  0  0  0  0  0  0  0  0
   47.6114   34.7639   37.7579 C   0  0  0  0  0  0  0  0  0  0  0  0
   47.6620   33.5084   37.1860 C   0  0  0  0  0  0  0  0  0  0  0  0
   47.7504   33.3380   35.8385 N   0  0  0  0  0  0  0  0  0  0  0  0
   47.7985   32.1050   35.3024 C   0  0  0  0  0  0  0  0  0  0  0  0
   47.8690   31.9979   34.2247 H   0  0  0  0  0  0  0  0  0  0  0  0
   47.7632   30.9482   36.0529 C   0  0  0  0  0  0  0  0  0  0  0  0
   47.6728   31.1596   37.4249 C   0  0  0  0  0  0  0  0  0  0  0  0
   47.6203   32.4097   38.0258 C   0  0  0  0  0  0  0  0  0  0  0  0
   47.5312   32.4677   39.4022 C   0  0  0  0  0  0  0  0  0  0  0  0
   47.6419   35.6467   37.1296 H   0  0  0  0  0  0  0  0  0  0  0  0
   47.7979   29.9464   35.6849 H   0  0  0  0  0  0  0  0  0  0  0  0
   47.6417   30.2639   38.0633 H   0  0  0  0  0  0  0  0  0  0  0  0
   47.4996   31.6221   40.0411 H   0  0  0  0  0  0  0  0  0  0  0  0
  1  6  2  0
  2  1  1  0
  3  2  2  0
  3  4  1  0
  4  5  2  0
  5  6  1  0
  7  3  1  0
  8  7  1  0
  9  8  1  0
  9  7  1  0
 10  2  1  0
  1 11  1  0
  5 12  1  0
  7 13  1  6
  8 14  1  0
  8 15  1  0
  9 16  1  1
 10 17  1  0
 10 18  1  0
 19 20  2  0
 20 21  1  0
 20 22  1  0
 22 23  2  0
 23 24  1  0
 24 25  2  0
 25 26  1  0
 25 27  1  0
 27 28  2  0
 28 29  1  0
 29 30  2  0
 30 19  1  0
 29 23  1  0
 22 31  1  0
 27 32  1  0
 28 33  1  0
 30 34  1  0
  9 19  1  0
M  ISO  8  11  14  12  14  13  13  14  13  15  13  16  13  21  16  26  16
M  END
>  <DihAtoms>  (1) 
7,8,18,19

>  <DihDeg>  (1) 
-46.230478009162624

$$$$
