
     RDKit          3D

 37 40  0  0  0  0  0  0  0  0999 V2000
   44.6759   35.3735   45.1514 C   0  0  0  0  0  0  0  0  0  0  0  0
   45.1304   35.7038   43.8246 C   0  0  0  0  0  0  0  0  0  0  0  0
   46.0717   34.8587   43.3415 C   0  0  0  0  0  0  0  0  0  0  0  0
   46.5530   33.7831   44.0535 N   0  0  0  0  0  0  0  0  0  0  0  0
   46.0935   33.5154   45.2977 C   0  0  0  0  0  0  0  0  0  0  0  0
   45.1499   34.3164   45.8462 N   0  0  0  0  0  0  0  0  0  0  0  0
   46.5757   35.0671   41.9321 C   0  0  1  0  0  0  0  0  0  0  0  0
   48.1168   35.2858   41.9351 C   0  0  0  0  0  0  0  0  0  0  0  0
   47.3486   34.0782   41.3064 C   0  0  2  0  0  0  0  0  0  0  0  0
   47.3897   33.9114   39.8079 C   0  0  0  0  0  0  0  0  0  0  0  0
   44.6529   36.8135   43.1128 N   0  0  0  0  0  0  0  0  0  0  0  0
   43.9273   36.0069   45.5903 H   0  0  0  0  0  0  0  0  0  0  0  0
   46.5772   32.6444   45.7007 H   0  0  0  0  0  0  0  0  0  0  0  0
   46.0199   35.8530   41.3815 H   0  0  0  0  0  0  0  0  0  0  0  0
   48.6798   35.0433   42.8403 H   0  0  0  0  0  0  0  0  0  0  0  0
   48.4535   36.0536   41.2427 H   0  0  0  0  0  0  0  0  0  0  0  0
   47.5195   33.0970   41.8322 H   0  0  0  0  0  0  0  0  0  0  0  0
   46.3839   33.6482   39.4005 H   0  0  0  0  0  0  0  0  0  0  0  0
   48.1158   33.1139   39.5364 H   0  0  0  0  0  0  0  0  0  0  0  0
   45.4274   37.4707   43.3886 H   0  0  0  0  0  0  0  0  0  0  0  0
   43.7839   36.8459   42.5280 H   0  0  0  0  0  0  0  0  0  0  0  0
   47.8974   35.1641   39.1450 C   0  0  0  0  0  0  0  0  0  0  0  0
   47.0263   36.0217   38.4802 C   0  0  0  0  0  0  0  0  0  0  0  0
   45.9641   35.8063   38.4253 H   0  0  0  0  0  0  0  0  0  0  0  0
   47.4366   37.1816   37.8560 C   0  0  0  0  0  0  0  0  0  0  0  0
   48.7889   37.5134   37.8914 C   0  0  0  0  0  0  0  0  0  0  0  0
   49.2234   38.6390   37.2920 N   0  0  0  0  0  0  0  0  0  0  0  0
   50.5158   39.0154   37.2903 C   0  0  0  0  0  0  0  0  0  0  0  0
   50.8778   39.9179   36.8121 H   0  0  0  0  0  0  0  0  0  0  0  0
   51.4176   38.1880   37.9424 C   0  0  0  0  0  0  0  0  0  0  0  0
   51.0203   37.0233   38.5716 C   0  0  0  0  0  0  0  0  0  0  0  0
   49.6803   36.6813   38.5445 C   0  0  0  0  0  0  0  0  0  0  0  0
   49.2405   35.5205   39.1641 C   0  0  0  0  0  0  0  0  0  0  0  0
   46.7531   37.8298   37.3492 H   0  0  0  0  0  0  0  0  0  0  0  0
   52.4455   38.4797   37.9456 H   0  0  0  0  0  0  0  0  0  0  0  0
   51.7637   36.4102   39.0678 H   0  0  0  0  0  0  0  0  0  0  0  0
   49.9424   34.8706   39.6751 H   0  0  0  0  0  0  0  0  0  0  0  0
  1  6  2  0
  2  1  1  0
  3  2  2  0
  3  4  1  0
  4  5  2  0
  5  6  1  0
  7  3  1  0
  8  7  1  0
  9  8  1  0
  9  7  1  0
 10  9  1  0
 11  2  1  0
  1 12  1  0
  5 13  1  0
  7 14  1  6
  8 15  1  0
  8 16  1  0
  9 17  1  1
 10 18  1  0
 10 19  1  0
 11 20  1  0
 11 21  1  0
 22 23  2  0
 23 24  1  0
 23 25  1  0
 25 26  2  0
 26 27  1  0
 27 28  2  0
 28 29  1  0
 28 30  1  0
 30 31  2  0
 31 32  1  0
 32 33  2  0
 33 22  1  0
 32 26  1  0
 25 34  1  0
 30 35  1  0
 31 36  1  0
 33 37  1  0
 10 22  1  0
M  ISO  8  12  14  13  14  14  13  15  13  16  13  17  13  18   8  19   8
M  ISO  2  24  16  29  16
M  END
>  <DihAtoms>  (1) 
8,9,21,22

>  <DihDeg>  (1) 
90.00149588842977

$$$$
