
     RDKit          3D

 35 38  0  0  1  0  0  0  0  0999 V2000
   47.7680   35.3370   42.0160 C   0  0  1  0  0  0  0  0  0  0  0  0
   49.2500   35.0910   42.1380 C   0  0  0  0  0  0  0  0  0  0  0  0
   48.6190   35.2240   40.8000 C   0  0  1  0  0  0  0  0  0  0  0  0
   48.4440   34.1200   39.8640 C   0  0  0  0  0  0  0  0  0  0  0  0
   49.0760   32.9220   40.1940 C   0  0  0  0  0  0  0  0  0  0  0  0
   48.9820   31.7770   39.3930 C   0  0  0  0  0  0  0  0  0  0  0  0
   48.2450   31.7980   38.2280 C   0  0  0  0  0  0  0  0  0  0  0  0
   48.1100   30.7450   37.4130 N   0  0  0  0  0  0  0  0  0  0  0  0
   47.3820   30.7980   36.2810 C   0  0  0  0  0  0  0  0  0  0  0  0
   46.7210   31.9570   35.8840 C   0  0  0  0  0  0  0  0  0  0  0  0
   46.8540   33.0490   36.7180 C   0  0  0  0  0  0  0  0  0  0  0  0
   47.6070   32.9610   37.8700 C   0  0  0  0  0  0  0  0  0  0  0  0
   47.7320   34.0570   38.6930 C   0  0  0  0  0  0  0  0  0  0  0  0
   46.9080   34.2040   42.4290 C   0  0  0  0  0  0  0  0  0  0  0  0
   46.0910   34.5240   43.6230 C   0  0  0  0  0  0  0  0  0  0  0  0
   45.2770   35.6320   43.5470 C   0  0  0  0  0  0  0  0  0  0  0  0
   44.4880   35.9660   44.6700 C   0  0  0  0  0  0  0  0  0  0  0  0
   44.5870   35.1640   45.7580 N   0  0  0  0  0  0  0  0  0  0  0  0
   45.4090   34.0820   45.7750 C   0  0  0  0  0  0  0  0  0  0  0  0
   46.1600   33.7600   44.7140 N   0  0  0  0  0  0  0  0  0  0  0  0
   47.0398   36.0874   42.3576 H   0  0  0  0  0  0  0  0  0  0  0  0
   49.9109   35.8846   42.5168 H   0  0  0  0  0  0  0  0  0  0  0  0
   49.8768   34.3346   42.6329 H   0  0  0  0  0  0  0  0  0  0  0  0
   48.8365   35.8521   39.9235 H   0  0  0  0  0  0  0  0  0  0  0  0
   49.6708   32.8743   41.1181 H   0  0  0  0  0  0  0  0  0  0  0  0
   49.4997   30.8547   39.6954 H   0  0  0  0  0  0  0  0  0  0  0  0
   47.3076   29.8989   35.6517 H   0  0  0  0  0  0  0  0  0  0  0  0
   46.1270   32.0002   34.9592 H   0  0  0  0  0  0  0  0  0  0  0  0
   46.3560   33.9958   36.4619 H   0  0  0  0  0  0  0  0  0  0  0  0
   47.2093   34.9732   38.3810 H   0  0  0  0  0  0  0  0  0  0  0  0
   46.2345   33.9497   41.5973 H   0  0  0  0  0  0  0  0  0  0  0  0
   47.5645   33.3599   42.6869 H   0  0  0  0  0  0  0  0  0  0  0  0
   45.2420   36.2429   42.6329 H   0  0  0  0  0  0  0  0  0  0  0  0
   43.8210   36.8406   44.6618 H   0  0  0  0  0  0  0  0  0  0  0  0
   45.4585   33.4576   46.6792 H   0  0  0  0  0  0  0  0  0  0  0  0
  1  2  1  0
  1 14  1  0
  3  1  1  0
  3  2  1  0
  4  5  2  0
  4  3  1  0
  6  5  1  0
  7  6  2  0
  8  7  1  0
  9  8  2  0
 10  9  1  0
 10 11  2  0
 11 12  1  0
 12  7  1  0
 12 13  2  0
 13  4  1  0
 14 15  1  0
 15 20  1  0
 16 15  2  0
 16 17  1  0
 17 18  2  0
 18 19  1  0
 20 19  2  0
  1 21  1  1
  2 22  1  0
  2 23  1  0
  3 24  1  6
  5 25  1  0
  6 26  1  0
  9 27  1  0
 10 28  1  0
 11 29  1  0
 13 30  1  0
 14 31  1  0
 14 32  1  0
 16 33  1  0
 17 34  1  0
 19 35  1  0
M  ISO  8  21  13  22  13  23  13  24  13  25  14  26  14  27  14  28  14
M  ISO  7  29  14  30  14  31   8  32   8  33  14  34  14  35  14
M  END
>  <minimizedAffinity>  (1) 
-5.48199415

>  <minimizedRMSD>  (1) 
2.41686511

$$$$
