
     RDKit          3D

 47 50  0  0  0  0  0  0  0  0999 V2000
   46.1874   32.0832   45.4368 C   0  0  0  0  0  0  0  0  0  0  0  0
   45.7633   32.0274   49.1314 C   0  0  0  0  0  0  0  0  0  0  0  0
   46.0573   32.5000   47.8478 C   0  0  0  0  0  0  0  0  0  0  0  0
   45.8837   31.6106   46.7928 C   0  0  0  0  0  0  0  0  0  0  0  0
   45.4391   30.3285   47.0500 N   0  0  0  0  0  0  0  0  0  0  0  0
   45.1712   29.9318   48.3206 C   0  0  0  0  0  0  0  0  0  0  0  0
   45.3331   30.7711   49.3334 N   0  0  0  0  0  0  0  0  0  0  0  0
   46.5319   33.4157   45.4145 O   0  0  0  0  0  0  0  0  0  0  0  0
   44.6339   35.1746   45.2478 O   0  0  0  0  0  0  0  0  0  0  0  0
   45.4551   34.2366   44.4194 P   0  0  2  0  0  0  0  0  0  0  0  0
   44.5186   33.0612   43.6768 O   0  0  0  0  0  0  0  0  0  0  0  0
   46.3522   35.1257   43.3046 O   0  0  0  0  0  0  0  0  0  0  0  0
   47.1232   34.2348   42.5491 C   0  0  1  0  0  0  0  0  0  0  0  0
   46.9538   34.4660   41.0526 C   0  0  0  0  0  0  0  0  0  0  0  0
   48.1029   33.6767   40.4962 C   0  0  0  0  0  0  0  0  0  0  0  0
   49.1616   33.6713   41.5857 C   0  0  0  0  0  0  0  0  0  0  0  0
   48.6046   34.5389   42.7033 C   0  0  2  0  0  0  0  0  0  0  0  0
   45.3923   31.7524   44.7856 H   0  0  0  0  0  0  0  0  0  0  0  0
   47.1004   31.5214   45.1107 H   0  0  0  0  0  0  0  0  0  0  0  0
   45.8614   32.6275   50.0175 H   0  0  0  0  0  0  0  0  0  0  0  0
   46.3946   33.5097   47.7627 H   0  0  0  0  0  0  0  0  0  0  0  0
   44.8400   28.9022   48.2901 H   0  0  0  0  0  0  0  0  0  0  0  0
   43.6861   33.5258   43.3509 H   0  0  0  0  0  0  0  0  0  0  0  0
   46.9429   33.1830   42.7689 H   0  0  0  0  0  0  0  0  0  0  0  0
   46.9868   35.5349   40.7914 H   0  0  0  0  0  0  0  0  0  0  0  0
   46.0187   33.9881   40.7283 H   0  0  0  0  0  0  0  0  0  0  0  0
   47.7979   32.6210   40.2761 H   0  0  0  0  0  0  0  0  0  0  0  0
   48.5198   34.1537   39.5832 H   0  0  0  0  0  0  0  0  0  0  0  0
   50.1046   34.1403   41.1862 H   0  0  0  0  0  0  0  0  0  0  0  0
   49.3806   32.6478   41.8808 H   0  0  0  0  0  0  0  0  0  0  0  0
   48.7272   35.6036   42.4040 H   0  0  0  0  0  0  0  0  0  0  0  0
   49.1911   34.2228   43.9975 C   0  0  0  0  0  0  0  0  0  0  0  0
   49.2984   35.0241   45.1452 C   0  0  0  0  0  0  0  0  0  0  0  0
   48.8735   36.0092   45.0083 H   0  0  0  0  0  0  0  0  0  0  0  0
   49.8959   34.5383   46.2900 C   0  0  0  0  0  0  0  0  0  0  0  0
   50.4112   33.2614   46.3681 C   0  0  0  0  0  0  0  0  0  0  0  0
   50.9783   32.8429   47.5001 N   0  0  0  0  0  0  0  0  0  0  0  0
   51.4835   31.5983   47.5841 C   0  0  0  0  0  0  0  0  0  0  0  0
   51.9663   31.1356   48.4353 H   0  0  0  0  0  0  0  0  0  0  0  0
   51.4207   30.7347   46.4947 C   0  0  0  0  0  0  0  0  0  0  0  0
   50.8328   31.1727   45.3252 C   0  0  0  0  0  0  0  0  0  0  0  0
   50.3198   32.4516   45.2556 C   0  0  0  0  0  0  0  0  0  0  0  0
   49.7280   32.9338   44.1230 C   0  0  0  0  0  0  0  0  0  0  0  0
   49.9410   35.2249   47.1432 H   0  0  0  0  0  0  0  0  0  0  0  0
   51.7944   29.7241   46.4614 H   0  0  0  0  0  0  0  0  0  0  0  0
   50.7607   30.5246   44.4382 H   0  0  0  0  0  0  0  0  0  0  0  0
   49.6970   32.2224   43.2825 H   0  0  0  0  0  0  0  0  0  0  0  0
  1  4  1  0
  2  7  2  0
  3  2  1  0
  4  5  1  0
  4  3  2  0
  5  6  2  0
  6  7  1  0
  8  1  1  0
 10  9  2  0
 10  8  1  1
 11 10  1  0
 12 10  1  0
 13 17  1  0
 13 12  1  0
 14 13  1  0
 15 14  1  0
 15 16  1  0
 16 17  1  0
  1 18  1  0
  1 19  1  0
  2 20  1  0
  3 21  1  0
  6 22  1  0
 11 23  1  0
 13 24  1  6
 14 25  1  0
 14 26  1  0
 15 27  1  0
 15 28  1  0
 16 29  1  0
 16 30  1  0
 17 31  1  6
 32 33  2  0
 33 34  1  0
 33 35  1  0
 35 36  2  0
 36 37  1  0
 37 38  2  0
 38 39  1  0
 38 40  1  0
 40 41  2  0
 41 42  1  0
 42 43  2  0
 43 32  1  0
 42 36  1  0
 35 44  1  0
 40 45  1  0
 41 46  1  0
 43 47  1  0
 17 32  1  0
M  ISO  8  18   8  19   8  20  14  21  14  22  14  23   3  24  13  25  13
M  ISO  8  26  13  27  13  28  13  29  13  30  13  31  13  34  16  39  16
M  END
>  <DihAtoms>  (1) 
12,16,31,32

>  <DihDeg>  (1) 
75.56241262257632

$$$$
