
     RDKit          3D

 37 40  0  0  0  0  0  0  0  0999 V2000
   44.6759   35.3735   45.1514 C   0  0  0  0  0  0  0  0  0  0  0  0
   45.1304   35.7038   43.8246 C   0  0  0  0  0  0  0  0  0  0  0  0
   46.0717   34.8587   43.3415 C   0  0  0  0  0  0  0  0  0  0  0  0
   46.5530   33.7831   44.0535 N   0  0  0  0  0  0  0  0  0  0  0  0
   46.0935   33.5154   45.2977 C   0  0  0  0  0  0  0  0  0  0  0  0
   45.1499   34.3164   45.8462 N   0  0  0  0  0  0  0  0  0  0  0  0
   46.5757   35.0671   41.9321 C   0  0  1  0  0  0  0  0  0  0  0  0
   48.1168   35.2858   41.9351 C   0  0  0  0  0  0  0  0  0  0  0  0
   47.3486   34.0782   41.3064 C   0  0  2  0  0  0  0  0  0  0  0  0
   47.3897   33.9114   39.8079 C   0  0  0  0  0  0  0  0  0  0  0  0
   44.6529   36.8135   43.1128 N   0  0  0  0  0  0  0  0  0  0  0  0
   43.9273   36.0069   45.5903 H   0  0  0  0  0  0  0  0  0  0  0  0
   46.5772   32.6444   45.7007 H   0  0  0  0  0  0  0  0  0  0  0  0
   46.0199   35.8530   41.3815 H   0  0  0  0  0  0  0  0  0  0  0  0
   48.6798   35.0433   42.8403 H   0  0  0  0  0  0  0  0  0  0  0  0
   48.4535   36.0536   41.2427 H   0  0  0  0  0  0  0  0  0  0  0  0
   47.5195   33.0970   41.8322 H   0  0  0  0  0  0  0  0  0  0  0  0
   46.3839   33.6482   39.4005 H   0  0  0  0  0  0  0  0  0  0  0  0
   48.1158   33.1139   39.5364 H   0  0  0  0  0  0  0  0  0  0  0  0
   45.4274   37.4707   43.3886 H   0  0  0  0  0  0  0  0  0  0  0  0
   43.7839   36.8459   42.5280 H   0  0  0  0  0  0  0  0  0  0  0  0
   47.8974   35.1641   39.1450 C   0  0  0  0  0  0  0  0  0  0  0  0
   48.8455   35.0983   38.1286 C   0  0  0  0  0  0  0  0  0  0  0  0
   49.2386   34.1444   37.7925 H   0  0  0  0  0  0  0  0  0  0  0  0
   49.3450   36.2130   37.4872 C   0  0  0  0  0  0  0  0  0  0  0  0
   48.8793   37.4674   37.8738 C   0  0  0  0  0  0  0  0  0  0  0  0
   49.3462   38.5767   37.2681 N   0  0  0  0  0  0  0  0  0  0  0  0
   48.9370   39.8166   37.5952 C   0  0  0  0  0  0  0  0  0  0  0  0
   49.3046   40.7162   37.1159 H   0  0  0  0  0  0  0  0  0  0  0  0
   47.9921   39.9265   38.6041 C   0  0  0  0  0  0  0  0  0  0  0  0
   47.4832   38.8185   39.2550 C   0  0  0  0  0  0  0  0  0  0  0  0
   47.9366   37.5662   38.8813 C   0  0  0  0  0  0  0  0  0  0  0  0
   47.4511   36.4286   39.5098 C   0  0  0  0  0  0  0  0  0  0  0  0
   50.0739   36.1442   36.7073 H   0  0  0  0  0  0  0  0  0  0  0  0
   47.6620   40.9074   38.8697 H   0  0  0  0  0  0  0  0  0  0  0  0
   46.7460   38.9568   40.0373 H   0  0  0  0  0  0  0  0  0  0  0  0
   46.7121   36.5101   40.2993 H   0  0  0  0  0  0  0  0  0  0  0  0
  1  6  2  0
  2  1  1  0
  3  2  2  0
  3  4  1  0
  4  5  2  0
  5  6  1  0
  7  3  1  0
  8  7  1  0
  9  8  1  0
  9  7  1  0
 10  9  1  0
 11  2  1  0
  1 12  1  0
  5 13  1  0
  7 14  1  6
  8 15  1  0
  8 16  1  0
  9 17  1  1
 10 18  1  0
 10 19  1  0
 11 20  1  0
 11 21  1  0
 22 23  2  0
 23 24  1  0
 23 25  1  0
 25 26  2  0
 26 27  1  0
 27 28  2  0
 28 29  1  0
 28 30  1  0
 30 31  2  0
 31 32  1  0
 32 33  2  0
 33 22  1  0
 32 26  1  0
 25 34  1  0
 30 35  1  0
 31 36  1  0
 33 37  1  0
 10 22  1  0
M  ISO  8  12  14  13  14  14  13  15  13  16  13  17  13  18   8  19   8
M  ISO  2  24  16  29  16
M  END
>  <DihAtoms>  (1) 
8,9,21,22

>  <DihDeg>  (1) 
90.00149588842977

$$$$
