
     RDKit          3D

 41 45  0  0  0  0  0  0  0  0999 V2000
   47.8140   31.3300   46.3510 C   0  0  0  0  0  0  0  0  0  0  0  0
   46.9640   32.2030   45.7110 C   0  0  0  0  0  0  0  0  0  0  0  0
   45.7880   32.5390   46.3440 C   0  0  0  0  0  0  0  0  0  0  0  0
   45.4340   32.0430   47.5770 C   0  0  0  0  0  0  0  0  0  0  0  0
   44.4010   32.1650   48.4350 N   0  0  0  0  0  0  0  0  0  0  0  0
   44.6160   31.4070   49.5350 C   0  0  0  0  0  0  0  0  0  0  0  0
   45.8130   30.8000   49.3530 N   0  0  0  0  0  0  0  0  0  0  0  0
   46.3200   31.1770   48.1680 C   0  0  0  0  0  0  0  0  0  0  0  0
   47.5000   30.8050   47.5930 C   0  0  0  0  0  0  0  0  0  0  0  0
   48.4510   29.8840   48.2140 C   0  0  0  0  0  0  0  0  0  0  0  0
   48.7830   28.6180   47.7590 C   0  0  0  0  0  0  0  0  0  0  0  0
   49.7080   27.8660   48.4670 C   0  0  0  0  0  0  0  0  0  0  0  0
   50.2940   28.3690   49.6110 C   0  0  0  0  0  0  0  0  0  0  0  0
   51.1880   27.6210   50.2820 N   0  0  0  0  0  0  0  0  0  0  0  0
   51.8040   28.0570   51.4170 C   0  0  0  0  0  0  0  0  0  0  0  0
   51.4630   29.3260   51.8610 C   0  0  0  0  0  0  0  0  0  0  0  0
   50.5600   30.1550   51.2360 C   0  0  0  0  0  0  0  0  0  0  0  0
   49.9870   29.6270   50.0930 C   0  0  0  0  0  0  0  0  0  0  0  0
   49.0620   30.3660   49.3770 C   0  0  0  0  0  0  0  0  0  0  0  0
   47.1810   34.4450   42.8220 C   0  0  0  0  0  0  0  0  0  0  0  0
   47.9750   33.7240   41.9230 C   0  0  0  0  0  0  0  0  0  0  0  0
   48.4210   32.4680   42.3420 C   0  0  0  0  0  0  0  0  0  0  0  0
   48.0760   32.0050   43.5730 N   0  0  0  0  0  0  0  0  0  0  0  0
   47.3020   32.7520   44.4020 C   0  0  0  0  0  0  0  0  0  0  0  0
   46.8550   33.9540   44.0430 N   0  0  0  0  0  0  0  0  0  0  0  0
   48.2760   34.3440   40.6140 C   0  0  0  0  0  0  0  0  0  0  0  0
   48.8890   35.5530   40.9100 F   0  0  0  0  0  0  0  0  0  0  0  0
   47.0850   34.5630   39.9620 F   0  0  0  0  0  0  0  0  0  0  0  0
   49.0750   33.4740   39.8980 F   0  0  0  0  0  0  0  0  0  0  0  0
   48.7596   31.0443   45.8671 H   0  0  0  0  0  0  0  0  0  0  0  0
   45.1010   33.2353   45.8409 H   0  0  0  0  0  0  0  0  0  0  0  0
   43.5686   32.7505   48.2760 H   0  0  0  0  0  0  0  0  0  0  0  0
   43.9505   31.3041   50.4048 H   0  0  0  0  0  0  0  0  0  0  0  0
   48.3184   28.2145   46.8472 H   0  0  0  0  0  0  0  0  0  0  0  0
   49.9772   26.8596   48.1139 H   0  0  0  0  0  0  0  0  0  0  0  0
   52.5346   27.4340   51.9537 H   0  0  0  0  0  0  0  0  0  0  0  0
   51.9482   29.6954   52.7765 H   0  0  0  0  0  0  0  0  0  0  0  0
   50.3134   31.1577   51.6151 H   0  0  0  0  0  0  0  0  0  0  0  0
   48.7966   31.3714   49.7359 H   0  0  0  0  0  0  0  0  0  0  0  0
   46.8107   35.4387   42.5296 H   0  0  0  0  0  0  0  0  0  0  0  0
   49.0491   31.8558   41.6782 H   0  0  0  0  0  0  0  0  0  0  0  0
  1  9  2  0
  2  3  2  0
  2  1  1  0
  3  4  1  0
  4  8  2  0
  4  5  1  0
  5  6  1  0
  7  6  2  0
  8  7  1  0
  9  8  1  0
  9 10  1  0
 10 19  1  0
 11 10  2  0
 11 12  1  0
 12 13  2  0
 13 18  1  0
 13 14  1  0
 14 15  2  0
 15 16  1  0
 17 16  2  0
 18 17  1  0
 19 18  2  0
 20 25  2  0
 21 22  2  0
 21 20  1  0
 22 23  1  0
 23 24  2  0
 24  2  1  0
 25 24  1  0
 26 27  1  0
 26 21  1  0
 28 26  1  0
 29 26  1  0
  1 30  1  0
  3 31  1  0
  5 32  1  0
  6 33  1  0
 11 34  1  0
 12 35  1  0
 15 36  1  0
 16 37  1  0
 17 38  1  0
 19 39  1  0
 20 40  1  0
 22 41  1  0
M  ISO  8  30  14  31  14  32   9  33  14  34  14  35  14  36  14  37  14
M  ISO  4  38  14  39  14  40  14  41  14
M  END
>  <minimizedAffinity>  (1) 
-6.63435793

>  <minimizedRMSD>  (1) 
1.4389534

$$$$
