
     RDKit          3D

 41 45  0  0  0  0  0  0  0  0999 V2000
   47.7140   32.2390   48.3380 C   0  0  0  0  0  0  0  0  0  0  0  0
   47.5410   30.8660   48.2940 C   0  0  0  0  0  0  0  0  0  0  0  0
   46.8100   30.3740   47.2460 C   0  0  0  0  0  0  0  0  0  0  0  0
   46.3020   31.2100   46.3260 N   0  0  0  0  0  0  0  0  0  0  0  0
   46.4630   32.5150   46.3640 C   0  0  0  0  0  0  0  0  0  0  0  0
   47.1730   32.9890   47.3820 N   0  0  0  0  0  0  0  0  0  0  0  0
   46.0070   33.5930   45.4860 C   0  0  0  0  0  0  0  0  0  0  0  0
   45.0180   34.4540   45.7870 N   0  0  0  0  0  0  0  0  0  0  0  0
   44.5690   35.4470   45.0240 C   0  0  0  0  0  0  0  0  0  0  0  0
   45.1300   35.6520   43.8130 N   0  0  0  0  0  0  0  0  0  0  0  0
   46.1380   34.8610   43.3810 C   0  0  0  0  0  0  0  0  0  0  0  0
   46.7100   35.0740   42.1420 C   0  0  0  0  0  0  0  0  0  0  0  0
   47.7300   34.2830   41.6880 C   0  0  0  0  0  0  0  0  0  0  0  0
   48.1590   33.2660   42.5200 C   0  0  0  0  0  0  0  0  0  0  0  0
   47.5630   33.0880   43.7410 C   0  0  0  0  0  0  0  0  0  0  0  0
   46.5330   33.8600   44.2420 C   0  0  0  0  0  0  0  0  0  0  0  0
   46.5830   28.9720   47.1210 C   0  0  0  0  0  0  0  0  0  0  0  0
   47.5320   28.0480   46.7320 C   0  0  0  0  0  0  0  0  0  0  0  0
   47.3460   26.6870   46.6030 C   0  0  0  0  0  0  0  0  0  0  0  0
   46.0850   26.2170   46.8930 C   0  0  0  0  0  0  0  0  0  0  0  0
   45.7970   24.8910   46.7950 N   0  0  0  0  0  0  0  0  0  0  0  0
   44.5570   24.4470   47.0830 C   0  0  0  0  0  0  0  0  0  0  0  0
   43.4980   25.2380   47.4850 C   0  0  0  0  0  0  0  0  0  0  0  0
   43.7730   26.6050   47.5910 C   0  0  0  0  0  0  0  0  0  0  0  0
   45.0450   27.0500   47.2950 C   0  0  0  0  0  0  0  0  0  0  0  0
   45.3370   28.4020   47.3940 C   0  0  0  0  0  0  0  0  0  0  0  0
   48.0990   30.0350   49.2870 N   0  0  0  0  0  0  0  0  0  0  0  0
   48.2906   32.7029   49.1519 H   0  0  0  0  0  0  0  0  0  0  0  0
   43.7509   36.0930   45.3753 H   0  0  0  0  0  0  0  0  0  0  0  0
   46.3391   35.8938   41.5092 H   0  0  0  0  0  0  0  0  0  0  0  0
   48.1893   34.4494   40.7024 H   0  0  0  0  0  0  0  0  0  0  0  0
   48.9763   32.6016   42.2029 H   0  0  0  0  0  0  0  0  0  0  0  0
   47.9337   32.2662   44.3713 H   0  0  0  0  0  0  0  0  0  0  0  0
   48.5357   28.4351   46.5022 H   0  0  0  0  0  0  0  0  0  0  0  0
   48.1584   26.0162   46.2867 H   0  0  0  0  0  0  0  0  0  0  0  0
   44.3734   23.3664   46.9903 H   0  0  0  0  0  0  0  0  0  0  0  0
   42.5048   24.8204   47.7069 H   0  0  0  0  0  0  0  0  0  0  0  0
   42.9904   27.3117   47.9043 H   0  0  0  0  0  0  0  0  0  0  0  0
   44.5274   29.0758   47.7111 H   0  0  0  0  0  0  0  0  0  0  0  0
   47.9622   29.0151   49.2416 H   0  0  0  0  0  0  0  0  0  0  0  0
   48.6434   30.4478   50.0578 H   0  0  0  0  0  0  0  0  0  0  0  0
  2  1  2  0
  2 27  1  0
  3  2  1  0
  4  5  1  0
  4  3  2  0
  5  6  2  0
  6  1  1  0
  7  8  2  0
  7  5  1  0
  9  8  1  0
 10  9  2  0
 11 10  1  0
 11 16  2  0
 12 11  1  0
 13 12  2  0
 13 14  1  0
 14 15  2  0
 15 16  1  0
 16  7  1  0
 17  3  1  0
 17 26  1  0
 18 17  2  0
 19 18  1  0
 19 20  2  0
 20 25  1  0
 21 20  1  0
 21 22  2  0
 22 23  1  0
 23 24  2  0
 25 26  2  0
 25 24  1  0
  1 28  1  0
  9 29  1  0
 12 30  1  0
 13 31  1  0
 14 32  1  0
 15 33  1  0
 18 34  1  0
 19 35  1  0
 22 36  1  0
 23 37  1  0
 24 38  1  0
 26 39  1  0
 27 40  1  0
 27 41  1  0
M  ISO  8  28  14  29  14  30  14  31  14  32  14  33  14  34  14  35  14
M  ISO  4  36  14  37  14  38  14  39  14
M  END
>  <minimizedAffinity>  (1) 
-6.868361

>  <minimizedRMSD>  (1) 
0.793778419

$$$$
