
     RDKit          3D

 27 29  0  0  0  0  0  0  0  0999 V2000
   46.7520   34.7100   42.2600 C   0  0  0  0  0  0  0  0  0  0  0  0
   47.9620   35.2900   41.9390 C   0  0  0  0  0  0  0  0  0  0  0  0
   48.4800   35.1480   40.6690 C   0  0  0  0  0  0  0  0  0  0  0  0
   47.8310   34.4370   39.6790 C   0  0  0  0  0  0  0  0  0  0  0  0
   48.4060   34.3480   38.4650 N   0  0  0  0  0  0  0  0  0  0  0  0
   47.7840   33.6530   37.4810 C   0  0  0  0  0  0  0  0  0  0  0  0
   46.5740   33.0700   37.7920 C   0  0  0  0  0  0  0  0  0  0  0  0
   45.9510   33.1380   39.0220 C   0  0  0  0  0  0  0  0  0  0  0  0
   46.6150   33.8540   40.0040 C   0  0  0  0  0  0  0  0  0  0  0  0
   46.0710   33.9840   41.2800 C   0  0  0  0  0  0  0  0  0  0  0  0
   45.0970   35.7280   43.8630 C   0  0  0  0  0  0  0  0  0  0  0  0
   46.0440   34.7440   43.5360 C   0  0  0  0  0  0  0  0  0  0  0  0
   46.3370   33.7270   44.4840 C   0  0  0  0  0  0  0  0  0  0  0  0
   45.6590   33.7870   45.6640 N   0  0  0  0  0  0  0  0  0  0  0  0
   44.7600   34.7380   45.9510 C   0  0  0  0  0  0  0  0  0  0  0  0
   44.4880   35.6990   45.0470 N   0  0  0  0  0  0  0  0  0  0  0  0
   44.8130   36.7360   42.9140 N   0  0  0  0  0  0  0  0  0  0  0  0
   48.5137   35.8660   42.6965 H   0  0  0  0  0  0  0  0  0  0  0  0
   49.4464   35.6187   40.4358 H   0  0  0  0  0  0  0  0  0  0  0  0
   48.2256   33.5584   36.4780 H   0  0  0  0  0  0  0  0  0  0  0  0
   46.0645   32.5059   36.9969 H   0  0  0  0  0  0  0  0  0  0  0  0
   44.9828   32.6514   39.2112 H   0  0  0  0  0  0  0  0  0  0  0  0
   45.1046   33.5146   41.5159 H   0  0  0  0  0  0  0  0  0  0  0  0
   47.0711   32.9346   44.2764 H   0  0  0  0  0  0  0  0  0  0  0  0
   44.2450   34.7341   46.9230 H   0  0  0  0  0  0  0  0  0  0  0  0
   45.2966   36.7381   42.0046 H   0  0  0  0  0  0  0  0  0  0  0  0
   44.1224   37.4685   43.1318 H   0  0  0  0  0  0  0  0  0  0  0  0
  1 12  1  0
  2  1  2  0
  3  2  1  0
  4  9  1  0
  4  3  2  0
  5  4  1  0
  6  7  1  0
  6  5  2  0
  7  8  2  0
  8  9  1  0
  9 10  2  0
 10  1  1  0
 11 16  2  0
 12 11  1  0
 12 13  2  0
 13 14  1  0
 14 15  2  0
 16 15  1  0
 17 11  1  0
  2 18  1  0
  3 19  1  0
  6 20  1  0
  7 21  1  0
  8 22  1  0
 10 23  1  0
 13 24  1  0
 15 25  1  0
 17 26  1  0
 17 27  1  0
M  ISO  8  18  14  19  14  20  14  21  14  22  14  23  14  24  14  25  14
M  END
>  <minimizedAffinity>  (1) 
-5.9607296

>  <minimizedRMSD>  (1) 
1.2823205

$$$$
