
     RDKit          3D

 34 37  0  0  0  0  0  0  0  0999 V2000
   44.6254   35.4612   45.1334 C   0  0  0  0  0  0  0  0  0  0  0  0
   45.0977   35.7136   43.8034 C   0  0  0  0  0  0  0  0  0  0  0  0
   46.0416   34.8232   43.3604 C   0  0  0  0  0  0  0  0  0  0  0  0
   46.4958   33.7701   44.1457 N   0  0  0  0  0  0  0  0  0  0  0  0
   46.0130   33.5934   45.3777 C   0  0  0  0  0  0  0  0  0  0  0  0
   45.0745   34.4399   45.8756 N   0  0  0  0  0  0  0  0  0  0  0  0
   46.5398   34.9764   41.9409 C   0  0  1  0  0  0  0  0  0  0  0  0
   48.0641   35.2742   41.9359 C   0  0  0  0  0  0  0  0  0  0  0  0
   47.3863   33.9758   41.3978 C   0  0  2  0  0  0  0  0  0  0  0  0
   44.6447   36.8131   43.0174 N   0  0  0  0  0  0  0  0  0  0  0  0
   43.8785   36.1374   45.5257 H   0  0  0  0  0  0  0  0  0  0  0  0
   46.4627   32.7365   45.8587 H   0  0  0  0  0  0  0  0  0  0  0  0
   45.9600   35.7187   41.3560 H   0  0  0  0  0  0  0  0  0  0  0  0
   48.4612   35.9110   41.1369 H   0  0  0  0  0  0  0  0  0  0  0  0
   48.6300   35.1979   42.8577 H   0  0  0  0  0  0  0  0  0  0  0  0
   47.6190   33.0839   42.0289 H   0  0  0  0  0  0  0  0  0  0  0  0
   44.2333   36.7267   42.0500 H   0  0  0  0  0  0  0  0  0  0  0  0
   44.8002   37.6913   43.5803 H   0  0  0  0  0  0  0  0  0  0  0  0
   47.4838   33.7390   39.9214 C   0  0  0  0  0  0  0  0  0  0  0  0
   46.3074   33.9536   39.2060 C   0  0  0  0  0  0  0  0  0  0  0  0
   45.3906   34.2687   39.6849 H   0  0  0  0  0  0  0  0  0  0  0  0
   46.3066   33.7580   37.8330 C   0  0  0  0  0  0  0  0  0  0  0  0
   47.4641   33.3557   37.1974 C   0  0  0  0  0  0  0  0  0  0  0  0
   47.5091   33.1517   35.8524 N   0  0  0  0  0  0  0  0  0  0  0  0
   48.6482   32.7596   35.2535 C   0  0  0  0  0  0  0  0  0  0  0  0
   48.6561   32.6043   34.1795 H   0  0  0  0  0  0  0  0  0  0  0  0
   49.8276   32.5392   35.9340 C   0  0  0  0  0  0  0  0  0  0  0  0
   49.7453   32.7571   37.3056 C   0  0  0  0  0  0  0  0  0  0  0  0
   48.5955   33.1613   37.9696 C   0  0  0  0  0  0  0  0  0  0  0  0
   48.6613   33.3386   39.3371 C   0  0  0  0  0  0  0  0  0  0  0  0
   45.4016   33.9197   37.2587 H   0  0  0  0  0  0  0  0  0  0  0  0
   50.7591   32.2286   35.5144 H   0  0  0  0  0  0  0  0  0  0  0  0
   50.6636   32.5931   37.8892 H   0  0  0  0  0  0  0  0  0  0  0  0
   49.5314   33.1882   39.9241 H   0  0  0  0  0  0  0  0  0  0  0  0
  1  6  2  0
  2  1  1  0
  3  2  2  0
  3  4  1  0
  4  5  2  0
  5  6  1  0
  7  3  1  0
  8  7  1  0
  9  8  1  0
  9  7  1  0
 10  2  1  0
  1 11  1  0
  5 12  1  0
  7 13  1  6
  8 14  1  0
  8 15  1  0
  9 16  1  1
 10 17  1  0
 10 18  1  0
 19 20  2  0
 20 21  1  0
 20 22  1  0
 22 23  2  0
 23 24  1  0
 24 25  2  0
 25 26  1  0
 25 27  1  0
 27 28  2  0
 28 29  1  0
 29 30  2  0
 30 19  1  0
 29 23  1  0
 22 31  1  0
 27 32  1  0
 28 33  1  0
 30 34  1  0
  9 19  1  0
M  ISO  8  11  14  12  14  13  13  14  13  15  13  16  13  21  16  26  16
M  END
>  <DihAtoms>  (1) 
7,8,18,19

>  <DihDeg>  (1) 
-46.230478009162624

$$$$
