
     RDKit          3D

 43 46  0  0  0  0  0  0  0  0999 V2000
   44.5818   35.6011   44.7566 C   0  0  0  0  0  0  0  0  0  0  0  0
   45.1578   35.7379   43.4811 C   0  0  0  0  0  0  0  0  0  0  0  0
   46.1947   34.8788   43.1599 C   0  0  0  0  0  0  0  0  0  0  0  0
   46.6046   33.9635   44.0623 N   0  0  0  0  0  0  0  0  0  0  0  0
   46.0454   33.8466   45.2715 C   0  0  0  0  0  0  0  0  0  0  0  0
   45.0244   34.6697   45.6279 N   0  0  0  0  0  0  0  0  0  0  0  0
   45.4031   32.5425   47.3175 C   0  0  1  0  0  0  0  0  0  0  0  0
   46.4557   32.8770   46.3033 C   0  0  1  0  0  0  0  0  0  0  0  0
   46.5945   31.4748   45.6560 C   0  0  0  0  0  0  0  0  0  0  0  0
   46.3697   30.5722   46.6484 O   0  0  0  0  0  0  0  0  0  0  0  0
   45.9746   31.2177   47.8122 C   0  0  0  0  0  0  0  0  0  0  0  0
   45.2127   33.4794   48.2866 O   0  0  0  0  0  0  0  0  0  0  0  0
   46.7548   35.0225   41.8974 O   0  0  0  0  0  0  0  0  0  0  0  0
   48.5863   33.2509   41.1334 O   0  0  0  0  0  0  0  0  0  0  0  0
   48.4177   34.6847   41.6594 P   0  0  1  0  0  0  0  0  0  0  0  0
   49.0341   35.7891   40.5840 O   0  0  0  0  0  0  0  0  0  0  0  0
   49.1531   34.7688   43.1754 O   0  0  0  0  0  0  0  0  0  0  0  0
   43.7575   36.2638   45.0486 H   0  0  0  0  0  0  0  0  0  0  0  0
   44.7374   36.5067   42.8603 H   0  0  0  0  0  0  0  0  0  0  0  0
   44.4729   32.3043   46.7599 H   0  0  0  0  0  0  0  0  0  0  0  0
   47.4245   33.1409   46.7573 H   0  0  0  0  0  0  0  0  0  0  0  0
   45.8433   31.3383   44.8510 H   0  0  0  0  0  0  0  0  0  0  0  0
   47.5934   31.4257   45.1736 H   0  0  0  0  0  0  0  0  0  0  0  0
   45.1132   30.6300   48.2195 H   0  0  0  0  0  0  0  0  0  0  0  0
   46.7587   31.3391   48.5632 H   0  0  0  0  0  0  0  0  0  0  0  0
   46.0073   33.4671   48.8781 H   0  0  0  0  0  0  0  0  0  0  0  0
   49.9857   35.7082   40.3823 H   0  0  0  0  0  0  0  0  0  0  0  0
   49.1948   35.9778   43.8563 C   0  0  0  0  0  0  0  0  0  0  0  0
   50.0078   37.0754   43.6588 C   0  0  0  0  0  0  0  0  0  0  0  0
   50.6947   36.9475   42.8595 H   0  0  0  0  0  0  0  0  0  0  0  0
   49.8717   38.1797   44.4639 C   0  0  0  0  0  0  0  0  0  0  0  0
   48.9398   38.2419   45.4815 C   0  0  0  0  0  0  0  0  0  0  0  0
   48.8744   39.3677   46.2251 N   0  0  0  0  0  0  0  0  0  0  0  0
   47.9916   39.4951   47.2303 C   0  0  0  0  0  0  0  0  0  0  0  0
   48.0056   40.4301   47.7759 H   0  0  0  0  0  0  0  0  0  0  0  0
   47.1459   38.4238   47.4779 C   0  0  0  0  0  0  0  0  0  0  0  0
   47.2202   37.2754   46.7114 C   0  0  0  0  0  0  0  0  0  0  0  0
   48.1271   37.1417   45.6771 C   0  0  0  0  0  0  0  0  0  0  0  0
   48.2443   36.0167   44.8794 C   0  0  0  0  0  0  0  0  0  0  0  0
   50.5555   39.0095   44.2419 H   0  0  0  0  0  0  0  0  0  0  0  0
   46.4403   38.5323   48.2852 H   0  0  0  0  0  0  0  0  0  0  0  0
   46.5510   36.4387   46.9139 H   0  0  0  0  0  0  0  0  0  0  0  0
   47.5350   35.2537   45.1685 H   0  0  0  0  0  0  0  0  0  0  0  0
  1  6  2  0
  2  1  1  0
  3  2  2  0
  3  4  1  0
  4  5  2  0
  5  6  1  0
  7 11  1  0
  7 12  1  0
  8  5  1  0
  8  7  1  0
  9  8  1  0
  9 10  1  0
 10 11  1  0
 13  3  1  0
 14 15  2  0
 15 13  1  1
 15 17  1  0
 16 15  1  0
  1 18  1  0
  2 19  1  0
  7 20  1  6
  8 21  1  1
  9 22  1  0
  9 23  1  0
 11 24  1  0
 11 25  1  0
 12 26  1  0
 16 27  1  0
 28 29  2  0
 29 30  1  0
 29 31  1  0
 31 32  2  0
 32 33  1  0
 33 34  2  0
 34 35  1  0
 34 36  1  0
 36 37  2  0
 37 38  1  0
 38 39  2  0
 39 28  1  0
 38 32  1  0
 31 40  1  0
 36 41  1  0
 37 42  1  0
 39 43  1  0
 17 28  1  0
M  ISO  8  18  14  19  14  20  13  21  13  22  13  23  13  24  13  25  13
M  ISO  4  26   3  27   3  30  16  35  16
M  END
>  <DihAtoms>  (1) 
14,16,27,28

>  <DihDeg>  (1) 
-16.948785927439918

$$$$
