
     RDKit          3D

 37 40  0  0  1  0  0  0  0  0999 V2000
   46.4280   33.2140   41.0020 C   0  0  1  0  0  0  0  0  0  0  0  0
   46.2780   31.9380   41.8800 C   0  0  0  0  0  0  0  0  0  0  0  0
   46.5290   31.9830   40.3370 C   0  0  2  0  0  0  0  0  0  0  0  0
   43.7280   35.7280   41.6760 C   0  0  0  0  0  0  0  0  0  0  0  0
   44.9730   35.0220   41.8350 C   0  0  0  0  0  0  0  0  0  0  0  0
   45.1300   33.9880   40.9740 C   0  0  0  0  0  0  0  0  0  0  0  0
   44.1860   33.6430   40.0330 N   0  0  0  0  0  0  0  0  0  0  0  0
   43.0300   34.3400   39.9250 C   0  0  0  0  0  0  0  0  0  0  0  0
   42.8040   35.3870   40.7510 N   0  0  0  0  0  0  0  0  0  0  0  0
   45.9220   35.3630   42.8080 N   0  0  0  0  0  0  0  0  0  0  0  0
   47.8400   31.4510   39.8140 C   0  0  0  0  0  0  0  0  0  0  0  0
   48.0280   31.8250   38.3680 C   0  0  0  0  0  0  0  0  0  0  0  0
   48.6940   32.9970   38.0160 C   0  0  0  0  0  0  0  0  0  0  0  0
   48.8960   33.3870   36.7090 C   0  0  0  0  0  0  0  0  0  0  0  0
   48.4110   32.5730   35.6890 C   0  0  0  0  0  0  0  0  0  0  0  0
   48.5900   32.9250   34.4010 N   0  0  0  0  0  0  0  0  0  0  0  0
   48.1460   32.1820   33.3700 C   0  0  0  0  0  0  0  0  0  0  0  0
   47.4780   31.0070   33.6780 C   0  0  0  0  0  0  0  0  0  0  0  0
   47.2690   30.6030   34.9820 C   0  0  0  0  0  0  0  0  0  0  0  0
   47.7450   31.4020   36.0060 C   0  0  0  0  0  0  0  0  0  0  0  0
   47.5560   31.0320   37.3300 C   0  0  0  0  0  0  0  0  0  0  0  0
   47.0844   34.0951   40.9488 H   0  0  0  0  0  0  0  0  0  0  0  0
   47.0732   31.6312   42.5754 H   0  0  0  0  0  0  0  0  0  0  0  0
   45.5393   31.5084   42.5726 H   0  0  0  0  0  0  0  0  0  0  0  0
   46.0199   31.5863   39.4462 H   0  0  0  0  0  0  0  0  0  0  0  0
   43.5201   36.5825   42.3367 H   0  0  0  0  0  0  0  0  0  0  0  0
   42.2805   34.0569   39.1713 H   0  0  0  0  0  0  0  0  0  0  0  0
   46.7986   34.8273   42.8825 H   0  0  0  0  0  0  0  0  0  0  0  0
   45.7430   36.1494   43.4487 H   0  0  0  0  0  0  0  0  0  0  0  0
   48.6639   31.8753   40.4066 H   0  0  0  0  0  0  0  0  0  0  0  0
   47.8347   30.3542   39.8975 H   0  0  0  0  0  0  0  0  0  0  0  0
   49.0773   33.6426   38.8199 H   0  0  0  0  0  0  0  0  0  0  0  0
   49.4288   34.3210   36.4772 H   0  0  0  0  0  0  0  0  0  0  0  0
   48.3064   32.4940   32.3274 H   0  0  0  0  0  0  0  0  0  0  0  0
   47.1027   30.3768   32.8582 H   0  0  0  0  0  0  0  0  0  0  0  0
   46.7357   29.6663   35.2016 H   0  0  0  0  0  0  0  0  0  0  0  0
   47.0246   30.0970   37.5608 H   0  0  0  0  0  0  0  0  0  0  0  0
  1  2  1  0
  3  1  1  0
  3  2  1  0
  4  5  2  0
  5 10  1  0
  6  1  1  0
  6  5  1  0
  7  6  2  0
  8  7  1  0
  8  9  2  0
  9  4  1  0
 11  3  1  0
 12 11  1  0
 13 12  2  0
 14 13  1  0
 15 20  1  0
 15 14  2  0
 16 15  1  0
 17 18  1  0
 17 16  2  0
 18 19  2  0
 19 20  1  0
 20 21  2  0
 21 12  1  0
  1 22  1  1
  2 23  1  0
  2 24  1  0
  3 25  1  6
  4 26  1  0
  8 27  1  0
 10 28  1  0
 10 29  1  0
 11 30  1  0
 11 31  1  0
 13 32  1  0
 14 33  1  0
 17 34  1  0
 18 35  1  0
 19 36  1  0
 21 37  1  0
M  ISO  8  22  13  23  13  24  13  25  13  26  14  27  14  30   8  31   8
M  ISO  6  32  14  33  14  34  14  35  14  36  14  37  14
M  END
>  <minimizedAffinity>  (1) 
-3.92816496

>  <minimizedRMSD>  (1) 
4.75132275

$$$$
