
     RDKit          3D

 50 53  0  0  0  0  0  0  0  0999 V2000
   44.6816   35.2842   45.0787 O   0  0  0  0  0  0  0  0  0  0  0  0
   45.4815   34.2485   44.3321 P   0  0  2  0  0  0  0  0  0  0  0  0
   44.5272   33.0512   43.6427 O   0  0  0  0  0  0  0  0  0  0  0  0
   46.5107   33.4587   45.4031 O   0  0  0  0  0  0  0  0  0  0  0  0
   46.2071   32.1411   45.4220 C   0  0  0  0  0  0  0  0  0  0  0  0
   45.7544   32.0435   49.1171 C   0  0  0  0  0  0  0  0  0  0  0  0
   46.0517   32.5167   47.8289 C   0  0  0  0  0  0  0  0  0  0  0  0
   45.8955   31.6474   46.7743 C   0  0  0  0  0  0  0  0  0  0  0  0
   45.4624   30.3772   47.0296 N   0  0  0  0  0  0  0  0  0  0  0  0
   45.1824   29.9405   48.2672 C   0  0  0  0  0  0  0  0  0  0  0  0
   45.3309   30.7780   49.3011 N   0  0  0  0  0  0  0  0  0  0  0  0
   46.4103   35.0290   43.1656 O   0  0  0  0  0  0  0  0  0  0  0  0
   46.9303   34.0847   42.2864 C   0  0  1  0  0  0  0  0  0  0  0  0
   46.4039   34.2776   40.8759 C   0  0  0  0  0  0  0  0  0  0  0  0
   47.3418   33.3796   40.0930 C   0  0  0  0  0  0  0  0  0  0  0  0
   48.6274   33.3375   40.8773 C   0  0  0  0  0  0  0  0  0  0  0  0
   48.4060   34.2994   42.0329 C   0  0  1  0  0  0  0  0  0  0  0  0
   48.7690   35.7081   41.7273 C   0  0  0  0  0  0  0  0  0  0  0  0
   44.7471   32.7890   42.7393 H   0  0  0  0  0  0  0  0  0  0  0  0
   45.4253   31.7688   44.7632 H   0  0  0  0  0  0  0  0  0  0  0  0
   47.1369   31.5855   45.1164 H   0  0  0  0  0  0  0  0  0  0  0  0
   45.8675   32.7036   49.9663 H   0  0  0  0  0  0  0  0  0  0  0  0
   46.3881   33.5382   47.7280 H   0  0  0  0  0  0  0  0  0  0  0  0
   44.8413   28.9136   48.3944 H   0  0  0  0  0  0  0  0  0  0  0  0
   46.7642   33.0513   42.5689 H   0  0  0  0  0  0  0  0  0  0  0  0
   46.4117   35.3222   40.5494 H   0  0  0  0  0  0  0  0  0  0  0  0
   45.3933   33.9005   40.7125 H   0  0  0  0  0  0  0  0  0  0  0  0
   46.9230   32.3523   40.0893 H   0  0  0  0  0  0  0  0  0  0  0  0
   47.5140   33.7558   39.0643 H   0  0  0  0  0  0  0  0  0  0  0  0
   49.5012   33.5892   40.2563 H   0  0  0  0  0  0  0  0  0  0  0  0
   48.7762   32.3398   41.3669 H   0  0  0  0  0  0  0  0  0  0  0  0
   48.9862   33.9960   42.9319 H   0  0  0  0  0  0  0  0  0  0  0  0
   48.2721   36.1219   40.8292 H   0  0  0  0  0  0  0  0  0  0  0  0
   48.4900   36.3124   42.6157 H   0  0  0  0  0  0  0  0  0  0  0  0
   50.2295   35.7838   41.5014 C   0  0  0  0  0  0  0  0  0  0  0  0
   51.2164   35.9360   42.4491 C   0  0  0  0  0  0  0  0  0  0  0  0
   50.9042   35.9866   43.4823 H   0  0  0  0  0  0  0  0  0  0  0  0
   52.5481   36.0086   42.1144 C   0  0  0  0  0  0  0  0  0  0  0  0
   52.9492   35.9301   40.7995 C   0  0  0  0  0  0  0  0  0  0  0  0
   54.2819   36.0110   40.5641 N   0  0  0  0  0  0  0  0  0  0  0  0
   54.7452   35.9415   39.3029 C   0  0  0  0  0  0  0  0  0  0  0  0
   55.8034   36.0078   39.1426 H   0  0  0  0  0  0  0  0  0  0  0  0
   53.8212   35.7879   38.2871 C   0  0  0  0  0  0  0  0  0  0  0  0
   52.4469   35.7050   38.5353 C   0  0  0  0  0  0  0  0  0  0  0  0
   51.9752   35.7768   39.8319 C   0  0  0  0  0  0  0  0  0  0  0  0
   50.6390   35.7045   40.1720 C   0  0  0  0  0  0  0  0  0  0  0  0
   53.2607   36.1305   42.9387 H   0  0  0  0  0  0  0  0  0  0  0  0
   54.2079   35.7330   37.2731 H   0  0  0  0  0  0  0  0  0  0  0  0
   51.7355   35.5845   37.7276 H   0  0  0  0  0  0  0  0  0  0  0  0
   49.9780   35.5833   39.3088 H   0  0  0  0  0  0  0  0  0  0  0  0
  2  1  2  0
  2  4  1  1
  3  2  1  0
  4  5  1  0
  5  8  1  0
  6 11  2  0
  7  6  1  0
  8  9  1  0
  8  7  2  0
  9 10  2  0
 10 11  1  0
 12  2  1  0
 13 12  1  0
 14 13  1  0
 15 16  1  0
 15 14  1  0
 16 17  1  0
 17 13  1  0
 18 17  1  0
  3 19  1  0
  5 20  1  0
  5 21  1  0
  6 22  1  0
  7 23  1  0
 10 24  1  0
 13 25  1  1
 14 26  1  0
 14 27  1  0
 15 28  1  0
 15 29  1  0
 16 30  1  0
 16 31  1  0
 17 32  1  1
 18 33  1  0
 18 34  1  0
 35 36  2  0
 36 37  1  0
 36 38  1  0
 38 39  2  0
 39 40  1  0
 40 41  2  0
 41 42  1  0
 41 43  1  0
 43 44  2  0
 44 45  1  0
 45 46  2  0
 46 35  1  0
 45 39  1  0
 38 47  1  0
 43 48  1  0
 44 49  1  0
 46 50  1  0
 18 35  1  0
M  ISO  8  19   3  20   8  21   8  22  14  23  14  24  14  25  13  26  13
M  ISO  8  27  13  28  13  29  13  30  13  31  13  32  13  33   8  34   8
M  ISO  2  37  16  42  16
M  END
>  <DihAtoms>  (1) 
16,17,34,35

>  <DihDeg>  (1) 
94.33537998946242

$$$$
