
     RDKit          3D

 35 38  0  0  1  0  0  0  0  0999 V2000
   45.5700   32.4470   45.9770 C   0  0  1  0  0  0  0  0  0  0  0  0
   46.2800   33.7770   45.6610 C   0  0  0  0  0  0  0  0  0  0  0  0
   45.7550   32.8790   44.5970 C   0  0  1  0  0  0  0  0  0  0  0  0
   46.7990   32.4090   43.6720 C   0  0  0  0  0  0  0  0  0  0  0  0
   46.4990   31.3080   42.8570 C   0  0  0  0  0  0  0  0  0  0  0  0
   47.3860   30.7630   41.9220 C   0  0  0  0  0  0  0  0  0  0  0  0
   48.6310   31.3420   41.7940 C   0  0  0  0  0  0  0  0  0  0  0  0
   49.5270   30.8630   40.9140 N   0  0  0  0  0  0  0  0  0  0  0  0
   50.7370   31.4310   40.7930 C   0  0  0  0  0  0  0  0  0  0  0  0
   51.1200   32.5250   41.5600 C   0  0  0  0  0  0  0  0  0  0  0  0
   50.2120   33.0480   42.4860 C   0  0  0  0  0  0  0  0  0  0  0  0
   48.9740   32.4260   42.5720 C   0  0  0  0  0  0  0  0  0  0  0  0
   48.0640   32.9260   43.4790 C   0  0  0  0  0  0  0  0  0  0  0  0
   46.4100   31.4390   46.6540 C   0  0  0  0  0  0  0  0  0  0  0  0
   46.1520   30.0830   46.3330 C   0  0  0  0  0  0  0  0  0  0  0  0
   46.9370   29.1150   46.9390 C   0  0  0  0  0  0  0  0  0  0  0  0
   47.9070   29.5190   47.8070 N   0  0  0  0  0  0  0  0  0  0  0  0
   48.1160   30.8230   48.0840 C   0  0  0  0  0  0  0  0  0  0  0  0
   47.3620   31.7770   47.5020 N   0  0  0  0  0  0  0  0  0  0  0  0
   49.2290   31.0610   49.0620 C   0  0  0  0  0  0  0  0  0  0  0  0
   49.4760   32.3970   49.2450 F   0  0  0  0  0  0  0  0  0  0  0  0
   50.3960   30.4460   48.6090 F   0  0  0  0  0  0  0  0  0  0  0  0
   48.9190   30.4210   50.2600 F   0  0  0  0  0  0  0  0  0  0  0  0
   44.6805   32.0802   46.5101 H   0  0  0  0  0  0  0  0  0  0  0  0
   45.7856   34.7363   45.8739 H   0  0  0  0  0  0  0  0  0  0  0  0
   47.2506   34.2340   45.9041 H   0  0  0  0  0  0  0  0  0  0  0  0
   45.0169   32.8886   43.7815 H   0  0  0  0  0  0  0  0  0  0  0  0
   45.5065   30.8448   42.9589 H   0  0  0  0  0  0  0  0  0  0  0  0
   47.0985   29.8976   41.3068 H   0  0  0  0  0  0  0  0  0  0  0  0
   51.4486   31.0173   40.0632 H   0  0  0  0  0  0  0  0  0  0  0  0
   52.1185   32.9710   41.4409 H   0  0  0  0  0  0  0  0  0  0  0  0
   50.4669   33.9122   43.1170 H   0  0  0  0  0  0  0  0  0  0  0  0
   48.3652   33.7916   44.0872 H   0  0  0  0  0  0  0  0  0  0  0  0
   45.3551   29.8080   45.6263 H   0  0  0  0  0  0  0  0  0  0  0  0
   46.7811   28.0474   46.7248 H   0  0  0  0  0  0  0  0  0  0  0  0
  1 14  1  0
  2  1  1  0
  3  2  1  0
  3  1  1  0
  4  3  1  0
  5  4  2  0
  6  5  1  0
  7  6  2  0
  7 12  1  0
  8  7  1  0
  9  8  2  0
  9 10  1  0
 10 11  2  0
 11 12  1  0
 12 13  2  0
 13  4  1  0
 14 19  1  0
 15 14  2  0
 15 16  1  0
 16 17  2  0
 17 18  1  0
 18 20  1  0
 19 18  2  0
 20 21  1  0
 20 23  1  0
 22 20  1  0
  1 24  1  1
  2 25  1  0
  2 26  1  0
  3 27  1  6
  5 28  1  0
  6 29  1  0
  9 30  1  0
 10 31  1  0
 11 32  1  0
 13 33  1  0
 15 34  1  0
 16 35  1  0
M  ISO  8  24  13  25  13  26  13  27  13  28  14  29  14  30  14  31  14
M  ISO  4  32  14  33  14  34  14  35  14
M  END
>  <minimizedAffinity>  (1) 
-4.45319605

>  <minimizedRMSD>  (1) 
4.55007601

$$$$
