
     RDKit          3D

 30 32  0  0  0  0  0  0  0  0999 V2000
   44.4217   35.8028   44.7009 C   0  0  0  0  0  0  0  0  0  0  0  0
   44.6727   35.4863   43.3604 C   0  0  0  0  0  0  0  0  0  0  0  0
   45.3657   34.3267   43.0966 C   0  0  0  0  0  0  0  0  0  0  0  0
   45.7719   33.5483   44.1282 N   0  0  0  0  0  0  0  0  0  0  0  0
   45.5150   33.8804   45.4007 C   0  0  0  0  0  0  0  0  0  0  0  0
   44.8372   35.0110   45.7044 N   0  0  0  0  0  0  0  0  0  0  0  0
   44.1799   36.4061   42.4050 N   0  0  0  0  0  0  0  0  0  0  0  0
   45.9369   33.0644   46.5627 C   0  0  0  0  0  0  0  0  0  0  0  0
   43.8807   36.7039   44.9578 H   0  0  0  0  0  0  0  0  0  0  0  0
   45.5513   34.0967   42.0561 H   0  0  0  0  0  0  0  0  0  0  0  0
   44.6705   37.2488   42.0252 H   0  0  0  0  0  0  0  0  0  0  0  0
   43.2429   36.0174   42.2065 H   0  0  0  0  0  0  0  0  0  0  0  0
   45.1725   33.1254   47.3602 H   0  0  0  0  0  0  0  0  0  0  0  0
   45.9271   31.9892   46.2456 H   0  0  0  0  0  0  0  0  0  0  0  0
   47.2954   33.4584   47.0613 C   0  0  0  0  0  0  0  0  0  0  0  0
   47.2804   34.4526   48.0378 C   0  0  0  0  0  0  0  0  0  0  0  0
   46.3658   34.8999   48.4029 H   0  0  0  0  0  0  0  0  0  0  0  0
   48.5005   34.8679   48.5459 C   0  0  0  0  0  0  0  0  0  0  0  0
   49.6618   34.2960   48.0786 C   0  0  0  0  0  0  0  0  0  0  0  0
   50.8194   34.7596   48.6291 N   0  0  0  0  0  0  0  0  0  0  0  0
   51.9855   34.2431   48.2167 C   0  0  0  0  0  0  0  0  0  0  0  0
   52.8774   34.6279   48.6682 H   0  0  0  0  0  0  0  0  0  0  0  0
   51.9938   33.2572   47.2478 C   0  0  0  0  0  0  0  0  0  0  0  0
   50.8647   32.7627   46.6693 C   0  0  0  0  0  0  0  0  0  0  0  0
   49.6614   33.3027   47.1018 C   0  0  0  0  0  0  0  0  0  0  0  0
   48.4493   32.8747   46.5818 C   0  0  0  0  0  0  0  0  0  0  0  0
   48.4778   35.6390   49.3024 H   0  0  0  0  0  0  0  0  0  0  0  0
   52.9615   32.8522   46.9287 H   0  0  0  0  0  0  0  0  0  0  0  0
   50.8572   31.9910   45.9097 H   0  0  0  0  0  0  0  0  0  0  0  0
   48.4044   32.1132   45.8293 H   0  0  0  0  0  0  0  0  0  0  0  0
  1  6  2  0
  2  1  1  0
  3  2  2  0
  3  4  1  0
  4  5  2  0
  5  6  1  0
  5  8  1  0
  7  2  1  0
  1  9  1  0
  3 10  1  0
  7 11  1  0
  7 12  1  0
  8 13  1  0
  8 14  1  0
 15 16  2  0
 16 17  1  0
 16 18  1  0
 18 19  2  0
 19 20  1  0
 20 21  2  0
 21 22  1  0
 21 23  1  0
 23 24  2  0
 24 25  1  0
 25 26  2  0
 26 15  1  0
 25 19  1  0
 18 27  1  0
 23 28  1  0
 24 29  1  0
 26 30  1  0
  8 15  1  0
M  ISO  6   9  14  10  14  13   8  14   8  17  16  22  16
M  END
>  <DihAtoms>  (1) 
4,7,14,15

>  <DihDeg>  (1) 
-90.00051213784356

$$$$
