
     RDKit          3D

 23 24  0  0  0  0  0  0  0  0999 V2000
   46.5090   34.7600   42.7640 C   0  0  0  0  0  0  0  0  0  0  0  0
   47.7020   34.3870   42.1510 C   0  0  0  0  0  0  0  0  0  0  0  0
   48.4570   33.4060   42.7720 C   0  0  0  0  0  0  0  0  0  0  0  0
   47.9970   32.8750   43.9220 N   0  0  0  0  0  0  0  0  0  0  0  0
   46.8400   33.2540   44.4930 C   0  0  0  0  0  0  0  0  0  0  0  0
   46.0720   34.2130   43.9140 N   0  0  0  0  0  0  0  0  0  0  0  0
   46.3710   32.6780   45.7120 N   0  0  0  0  0  0  0  0  0  0  0  0
   46.6750   31.4920   46.2650 C   0  0  0  0  0  0  0  0  0  0  0  0
   46.0940   31.1400   47.4660 C   0  0  0  0  0  0  0  0  0  0  0  0
   45.2080   31.9910   48.1020 C   0  0  0  0  0  0  0  0  0  0  0  0
   44.7000   31.6280   49.1960 O   0  0  0  0  0  0  0  0  0  0  0  0
   44.9320   33.1690   47.5120 N   0  0  0  0  0  0  0  0  0  0  0  0
   45.5050   33.5190   46.3250 C   0  0  0  0  0  0  0  0  0  0  0  0
   45.1210   34.6530   45.9390 O   0  0  0  0  0  0  0  0  0  0  0  0
   48.0270   35.0970   40.8850 C   0  0  0  0  0  0  0  0  0  0  0  0
   45.8949   35.5378   42.2866 H   0  0  0  0  0  0  0  0  0  0  0  0
   49.4093   33.0684   42.3370 H   0  0  0  0  0  0  0  0  0  0  0  0
   47.3789   30.8095   45.7662 H   0  0  0  0  0  0  0  0  0  0  0  0
   46.3385   30.1701   47.9237 H   0  0  0  0  0  0  0  0  0  0  0  0
   44.2748   33.8191   47.9662 H   0  0  0  0  0  0  0  0  0  0  0  0
   48.4745   36.0746   41.1174 H   0  0  0  0  0  0  0  0  0  0  0  0
   48.7401   34.4969   40.3007 H   0  0  0  0  0  0  0  0  0  0  0  0
   47.1068   35.2445   40.3007 H   0  0  0  0  0  0  0  0  0  0  0  0
  1  6  2  0
  2  1  1  0
  2  3  2  0
  3  4  1  0
  4  5  2  0
  5  7  1  0
  6  5  1  0
  7  8  1  0
  7 13  1  0
  8  9  2  0
  9 10  1  0
 10 11  2  0
 12 10  1  0
 13 12  1  0
 14 13  2  0
 15  2  1  0
  1 16  1  0
  3 17  1  0
  8 18  1  0
  9 19  1  0
 12 20  1  0
 15 21  1  0
 15 22  1  0
 15 23  1  0
M  ISO  8  16  14  17  14  18  14  19  14  20   9  21   8  22   8  23   8
M  END
>  <minimizedAffinity>  (1) 
-5.16849518

>  <minimizedRMSD>  (1) 
2.56404543

$$$$
