
     RDKit          3D

 24 25  0  0  0  0  0  0  0  0999 V2000
   43.9620   34.3010   40.4800 C   0  0  0  0  0  0  0  0  0  0  0  0
   42.7040   34.4460   39.7330 N   0  0  0  0  0  0  0  0  0  0  0  0
   41.7410   35.2140   40.2560 C   0  0  0  0  0  0  0  0  0  0  0  0
   40.5870   35.2910   39.4790 C   0  0  0  0  0  0  0  0  0  0  0  0
   40.4850   34.6080   38.2610 C   0  0  0  0  0  0  0  0  0  0  0  0
   39.4590   34.6610   37.5440 O   0  0  0  0  0  0  0  0  0  0  0  0
   41.5210   33.8590   37.8290 N   0  0  0  0  0  0  0  0  0  0  0  0
   42.6440   33.7700   38.5610 C   0  0  0  0  0  0  0  0  0  0  0  0
   43.6220   33.0710   38.1640 O   0  0  0  0  0  0  0  0  0  0  0  0
   43.9400   35.6260   41.7120 S   0  0  0  0  0  0  0  0  0  0  0  0
   44.3210   35.7460   44.4650 C   0  0  0  0  0  0  0  0  0  0  0  0
   44.5040   34.9920   43.2900 C   0  0  0  0  0  0  0  0  0  0  0  0
   45.1220   33.7550   43.3570 C   0  0  0  0  0  0  0  0  0  0  0  0
   45.5340   33.3190   44.5840 N   0  0  0  0  0  0  0  0  0  0  0  0
   45.3430   34.0640   45.6830 C   0  0  0  0  0  0  0  0  0  0  0  0
   44.7540   35.2530   45.6550 N   0  0  0  0  0  0  0  0  0  0  0  0
   44.8250   34.4144   39.8074 H   0  0  0  0  0  0  0  0  0  0  0  0
   44.0505   33.3086   40.9461 H   0  0  0  0  0  0  0  0  0  0  0  0
   41.8509   35.7391   41.2163 H   0  0  0  0  0  0  0  0  0  0  0  0
   39.7403   35.8997   39.8290 H   0  0  0  0  0  0  0  0  0  0  0  0
   41.4505   33.3535   36.9344 H   0  0  0  0  0  0  0  0  0  0  0  0
   43.8299   36.7293   44.4199 H   0  0  0  0  0  0  0  0  0  0  0  0
   45.2757   33.1452   42.4545 H   0  0  0  0  0  0  0  0  0  0  0  0
   45.6900   33.6720   46.6505 H   0  0  0  0  0  0  0  0  0  0  0  0
  1 10  1  0
  2  3  1  0
  2  1  1  0
  4  3  2  0
  5  4  1  0
  6  5  2  0
  7  5  1  0
  7  8  1  0
  8  2  1  0
  9  8  2  0
 10 12  1  0
 11 16  2  0
 12 13  2  0
 12 11  1  0
 13 14  1  0
 14 15  2  0
 16 15  1  0
  1 17  1  0
  1 18  1  0
  3 19  1  0
  4 20  1  0
  7 21  1  0
 11 22  1  0
 13 23  1  0
 15 24  1  0
M  ISO  8  17   8  18   8  19  14  20  14  21   9  22  14  23  14  24  14
M  END
>  <minimizedAffinity>  (1) 
-4.63936234

>  <minimizedRMSD>  (1) 
1.5181247

$$$$
