
     RDKit          3D

 23 24  0  0  0  0  0  0  0  0999 V2000
   44.6200   35.5860   45.0330 C   0  0  0  0  0  0  0  0  0  0  0  0
   45.2460   35.4950   43.7840 C   0  0  0  0  0  0  0  0  0  0  0  0
   46.1090   34.4370   43.5410 C   0  0  0  0  0  0  0  0  0  0  0  0
   46.2960   33.5460   44.5330 N   0  0  0  0  0  0  0  0  0  0  0  0
   45.6890   33.6440   45.7240 C   0  0  0  0  0  0  0  0  0  0  0  0
   44.8310   34.6690   46.0110 N   0  0  0  0  0  0  0  0  0  0  0  0
   46.6730   34.4540   42.2590 N   0  0  0  0  0  0  0  0  0  0  0  0
   47.8790   35.0840   42.1470 C   0  0  0  0  0  0  0  0  0  0  0  0
   48.5070   35.1450   40.9040 C   0  0  0  0  0  0  0  0  0  0  0  0
   47.8270   34.5440   39.8830 C   0  0  0  0  0  0  0  0  0  0  0  0
   48.3810   34.5860   38.7450 O   0  0  0  0  0  0  0  0  0  0  0  0
   46.6550   33.9170   39.9350 N   0  0  0  0  0  0  0  0  0  0  0  0
   46.0810   33.8860   41.1730 C   0  0  0  0  0  0  0  0  0  0  0  0
   44.9560   33.3140   41.3490 O   0  0  0  0  0  0  0  0  0  0  0  0
   44.8900   36.5870   42.8510 C   0  0  0  0  0  0  0  0  0  0  0  0
   43.9367   36.4258   45.2274 H   0  0  0  0  0  0  0  0  0  0  0  0
   45.8863   32.8799   46.4904 H   0  0  0  0  0  0  0  0  0  0  0  0
   48.3511   35.5395   43.0300 H   0  0  0  0  0  0  0  0  0  0  0  0
   49.4780   35.6403   40.7563 H   0  0  0  0  0  0  0  0  0  0  0  0
   46.2158   33.4892   39.1074 H   0  0  0  0  0  0  0  0  0  0  0  0
   44.5991   37.4793   43.4248 H   0  0  0  0  0  0  0  0  0  0  0  0
   45.7570   36.8251   42.2173 H   0  0  0  0  0  0  0  0  0  0  0  0
   44.0492   36.2684   42.2173 H   0  0  0  0  0  0  0  0  0  0  0  0
  1  6  2  0
  2  1  1  0
  3  2  2  0
  3  4  1  0
  4  5  2  0
  5  6  1  0
  7  3  1  0
  8  7  1  0
  9  8  2  0
 10 12  1  0
 10  9  1  0
 11 10  2  0
 12 13  1  0
 13 14  2  0
 13  7  1  0
 15  2  1  0
  1 16  1  0
  5 17  1  0
  8 18  1  0
  9 19  1  0
 12 20  1  0
 15 21  1  0
 15 22  1  0
 15 23  1  0
M  ISO  8  16  14  17  14  18  14  19  14  20   9  21   8  22   8  23   8
M  END
>  <minimizedAffinity>  (1) 
-4.99974489

>  <minimizedRMSD>  (1) 
1.99235892

$$$$
