
     RDKit          3D

 47 49  0  0  0  0  0  0  0  0999 V2000
   43.6539   34.9610   41.8842 C   0  0  0  0  0  0  0  0  0  0  0  0
   43.9097   33.6255   42.1881 C   0  0  0  0  0  0  0  0  0  0  0  0
   44.9780   33.3330   43.0095 C   0  0  0  0  0  0  0  0  0  0  0  0
   45.7545   34.3476   43.5026 C   0  0  0  0  0  0  0  0  0  0  0  0
   45.5259   35.6648   43.2205 C   0  0  0  0  0  0  0  0  0  0  0  0
   44.4469   35.9081   42.3953 C   0  0  0  0  0  0  0  0  0  0  0  0
   40.2375   35.7993   40.5168 C   0  0  0  0  0  0  0  0  0  0  0  0
   41.2601   35.5844   41.4481 C   0  0  0  0  0  0  0  0  0  0  0  0
   42.5131   35.2123   41.0122 C   0  0  0  0  0  0  0  0  0  0  0  0
   42.6734   35.0755   39.6636 N   0  0  0  0  0  0  0  0  0  0  0  0
   41.6820   35.2846   38.7706 C   0  0  0  0  0  0  0  0  0  0  0  0
   40.4661   35.6470   39.2133 N   0  0  0  0  0  0  0  0  0  0  0  0
   43.0504   32.5400   41.6393 C   0  0  0  0  0  0  0  0  0  0  0  0
   42.7097   31.5173   42.5721 N   0  0  0  0  0  0  0  0  0  0  0  0
   41.0353   31.1411   42.5558 S   0  0  0  0  0  0  0  0  0  0  0  0
   40.2013   32.3967   42.4546 O   0  0  0  0  0  0  0  0  0  0  0  0
   40.6529   30.3596   43.7640 O   0  0  0  0  0  0  0  0  0  0  0  0
   40.7386   30.2018   41.1931 O   0  0  0  0  0  0  0  0  0  0  0  0
   40.0762   29.0504   41.6057 C   0  0  0  0  0  0  0  0  0  0  0  0
   40.9296   27.8258   41.2217 C   0  0  0  0  0  0  0  0  0  0  0  0
   45.2131   32.3105   43.2714 H   0  0  0  0  0  0  0  0  0  0  0  0
   46.5993   34.1005   44.1535 H   0  0  0  0  0  0  0  0  0  0  0  0
   46.1080   36.4980   43.5840 H   0  0  0  0  0  0  0  0  0  0  0  0
   44.1844   36.9306   42.1129 H   0  0  0  0  0  0  0  0  0  0  0  0
   39.2527   36.0921   40.8638 H   0  0  0  0  0  0  0  0  0  0  0  0
   41.1159   35.6961   42.4955 H   0  0  0  0  0  0  0  0  0  0  0  0
   42.0082   35.1243   37.7383 H   0  0  0  0  0  0  0  0  0  0  0  0
   43.6043   32.1068   40.7560 H   0  0  0  0  0  0  0  0  0  0  0  0
   42.1139   32.9668   41.2394 H   0  0  0  0  0  0  0  0  0  0  0  0
   43.2640   30.6340   42.4985 H   0  0  0  0  0  0  0  0  0  0  0  0
   39.4598   32.6578   43.0544 H   0  0  0  0  0  0  0  0  0  0  0  0
   41.2195   29.6093   44.1304 H   0  0  0  0  0  0  0  0  0  0  0  0
   39.1497   28.9707   40.9755 H   0  0  0  0  0  0  0  0  0  0  0  0
   39.7946   29.0245   42.6540 H   0  0  0  0  0  0  0  0  0  0  0  0
   41.8918   27.8901   41.7671 H   0  0  0  0  0  0  0  0  0  0  0  0
   40.4245   26.9086   41.5475 H   0  0  0  0  0  0  0  0  0  0  0  0
   41.1034   27.8179   39.7851 N   0  0  0  0  0  0  0  0  0  0  0  0
   40.3132   28.5974   39.0111 C   0  0  0  0  0  0  0  0  0  0  0  0
   40.5246   28.5497   37.6386 C   0  0  0  0  0  0  0  0  0  0  0  0
   39.9112   29.1625   36.9617 H   0  0  0  0  0  0  0  0  0  0  0  0
   41.5110   27.7258   37.1376 C   0  0  0  0  0  0  0  0  0  0  0  0
   41.7413   27.6489   35.8868 O   0  0  0  0  0  0  0  0  0  0  0  0
   42.2742   26.9652   37.9602 N   0  0  0  0  0  0  0  0  0  0  0  0
   42.0644   27.0165   39.2847 C   0  0  0  0  0  0  0  0  0  0  0  0
   42.7822   26.3008   40.0621 O   0  0  0  0  0  0  0  0  0  0  0  0
   39.5521   29.2280   39.4495 H   0  0  0  0  0  0  0  0  0  0  0  0
   43.0288   26.3308   37.6181 H   0  0  0  0  0  0  0  0  0  0  0  0
  1  2  1  0
  1  6  2  0
  2  3  2  0
  3  4  1  0
  5  4  2  0
  6  5  1  0
  7  8  2  0
  9  8  1  0
  9  1  1  0
 10  9  2  0
 11 12  2  0
 11 10  1  0
 12  7  1  0
 13  2  1  0
 13 14  1  0
 15 14  1  0
 15 17  1  0
 16 15  1  0
 18 19  1  0
 18 15  1  0
 20 19  1  0
  3 21  1  0
  4 22  1  0
  5 23  1  0
  6 24  1  0
  7 25  1  0
  8 26  1  0
 11 27  1  0
 13 28  1  0
 13 29  1  0
 14 30  1  0
 16 31  1  0
 17 32  1  0
 19 33  1  0
 19 34  1  0
 20 35  1  0
 20 36  1  0
 37 38  1  0
 38 39  2  0
 39 40  1  0
 39 41  1  0
 41 42  2  0
 41 43  1  0
 43 44  1  0
 44 45  2  0
 44 37  1  0
 38 46  1  0
 43 47  1  0
 20 37  1  0
M  ISO  8  21  14  22  14  23  14  24  14  25  14  26  14  27  14  28   8
M  ISO  8  29   8  30   5  31   3  32   3  33   8  34   8  35   8  36   8
M  ISO  1  40  16
M  END
>  <DihAtoms>  (1) 
18,19,36,37

>  <DihDeg>  (1) 
89.9995611772417

$$$$
