
     RDKit          3D

 23 24  0  0  0  0  0  0  0  0999 V2000
   45.4416   35.0673   43.9897 C   0  0  0  0  0  0  0  0  0  0  0  0
   46.4993   34.2969   43.5042 C   0  0  0  0  0  0  0  0  0  0  0  0
   47.0149   33.2896   44.3387 C   0  0  0  0  0  0  0  0  0  0  0  0
   46.4621   33.1202   45.5623 N   0  0  0  0  0  0  0  0  0  0  0  0
   45.4329   33.8928   45.9962 C   0  0  0  0  0  0  0  0  0  0  0  0
   44.9167   34.8699   45.2138 N   0  0  0  0  0  0  0  0  0  0  0  0
   44.8974   36.1363   43.0992 C   0  0  0  0  0  0  0  0  0  0  0  0
   46.9374   34.4396   42.5199 H   0  0  0  0  0  0  0  0  0  0  0  0
   47.8233   32.6587   44.0387 H   0  0  0  0  0  0  0  0  0  0  0  0
   43.9960   35.6855   42.6059 H   0  0  0  0  0  0  0  0  0  0  0  0
   44.5484   37.0051   43.7195 H   0  0  0  0  0  0  0  0  0  0  0  0
   45.6429   36.4856   42.3622 H   0  0  0  0  0  0  0  0  0  0  0  0
   44.8237   33.7478   47.2741 N   0  0  0  0  0  0  0  0  0  0  0  0
   44.0463   34.7651   47.6863 C   0  0  0  0  0  0  0  0  0  0  0  0
   43.4360   34.6688   48.9169 C   0  0  0  0  0  0  0  0  0  0  0  0
   42.7941   35.4620   49.3045 H   0  0  0  0  0  0  0  0  0  0  0  0
   43.6471   33.5305   49.6787 C   0  0  0  0  0  0  0  0  0  0  0  0
   43.1032   33.3943   50.8263 O   0  0  0  0  0  0  0  0  0  0  0  0
   44.4356   32.4951   49.2643 N   0  0  0  0  0  0  0  0  0  0  0  0
   44.9946   32.6653   48.0540 C   0  0  0  0  0  0  0  0  0  0  0  0
   45.7304   31.7170   47.6490 O   0  0  0  0  0  0  0  0  0  0  0  0
   43.8943   35.6455   47.0763 H   0  0  0  0  0  0  0  0  0  0  0  0
   44.5836   31.6450   49.8511 H   0  0  0  0  0  0  0  0  0  0  0  0
  1  6  2  0
  2  1  1  0
  2  3  2  0
  3  4  1  0
  4  5  2  0
  6  5  1  0
  7  1  1  0
  2  8  1  0
  3  9  1  0
  7 10  1  0
  7 11  1  0
  7 12  1  0
 13 14  1  0
 14 15  2  0
 15 16  1  0
 15 17  1  0
 17 18  2  0
 17 19  1  0
 19 20  1  0
 20 21  2  0
 20 13  1  0
 14 22  1  0
 19 23  1  0
  5 13  1  0
M  ISO  6   8  14   9  14  10   8  11   8  12   8  16  16
M  END
>  <DihAtoms>  (1) 
3,4,12,13

>  <DihDeg>  (1) 
119.80461290820074

$$$$
