
     RDKit          3D

 46 48  0  0  0  0  0  0  0  0999 V2000
   46.5745   34.9081   43.2499 O   0  0  0  0  0  0  0  0  0  0  0  0
   46.8025   33.9757   42.2300 C   0  0  1  0  0  0  0  0  0  0  0  0
   46.0764   34.4186   40.9555 C   0  0  0  0  0  0  0  0  0  0  0  0
   46.6897   33.4814   39.9455 C   0  0  0  0  0  0  0  0  0  0  0  0
   48.0731   33.1397   40.4736 C   0  0  0  0  0  0  0  0  0  0  0  0
   48.2181   33.9587   41.7446 C   0  0  1  0  0  0  0  0  0  0  0  0
   48.7617   35.3341   41.4631 C   0  0  0  0  0  0  0  0  0  0  0  0
   49.6616   35.7434   42.4227 O   0  0  0  0  0  0  0  0  0  0  0  0
   44.7225   35.3507   44.9899 O   0  0  0  0  0  0  0  0  0  0  0  0
   45.5745   34.2406   44.4106 P   0  0  1  0  0  0  0  0  0  0  0  0
   44.6039   33.0382   43.7149 O   0  0  0  0  0  0  0  0  0  0  0  0
   46.4684   33.4930   45.6030 O   0  0  0  0  0  0  0  0  0  0  0  0
   46.2259   32.1565   45.5702 C   0  0  0  0  0  0  0  0  0  0  0  0
   45.6497   31.9035   49.2377 C   0  0  0  0  0  0  0  0  0  0  0  0
   45.9806   32.4542   47.9896 C   0  0  0  0  0  0  0  0  0  0  0  0
   45.8827   31.6129   46.8952 C   0  0  0  0  0  0  0  0  0  0  0  0
   45.4775   30.3154   47.0781 N   0  0  0  0  0  0  0  0  0  0  0  0
   45.1664   29.8152   48.2909 C   0  0  0  0  0  0  0  0  0  0  0  0
   45.2542   30.6064   49.3521 N   0  0  0  0  0  0  0  0  0  0  0  0
   46.4485   32.9699   42.4517 H   0  0  0  0  0  0  0  0  0  0  0  0
   44.9789   34.2149   41.0519 H   0  0  0  0  0  0  0  0  0  0  0  0
   46.1848   35.4751   40.7323 H   0  0  0  0  0  0  0  0  0  0  0  0
   46.0580   32.5533   39.9669 H   0  0  0  0  0  0  0  0  0  0  0  0
   46.6988   33.8957   38.9318 H   0  0  0  0  0  0  0  0  0  0  0  0
   48.8691   33.3431   39.7567 H   0  0  0  0  0  0  0  0  0  0  0  0
   48.1159   32.0651   40.7547 H   0  0  0  0  0  0  0  0  0  0  0  0
   48.8309   33.3806   42.4794 H   0  0  0  0  0  0  0  0  0  0  0  0
   49.3259   35.2384   40.4947 H   0  0  0  0  0  0  0  0  0  0  0  0
   48.0147   36.1211   41.3614 H   0  0  0  0  0  0  0  0  0  0  0  0
   50.2762   36.4389   42.1228 H   0  0  0  0  0  0  0  0  0  0  0  0
   43.7566   33.4726   43.4022 H   0  0  0  0  0  0  0  0  0  0  0  0
   47.2069   31.6663   45.3035 H   0  0  0  0  0  0  0  0  0  0  0  0
   45.5185   31.7748   44.8404 H   0  0  0  0  0  0  0  0  0  0  0  0
   45.7140   32.5274   50.1102 H   0  0  0  0  0  0  0  0  0  0  0  0
   46.2879   33.4757   47.9307 H   0  0  0  0  0  0  0  0  0  0  0  0
   44.7534   28.4550   48.3977 N   0  0  0  0  0  0  0  0  0  0  0  0
   43.7725   28.1059   49.2467 C   0  0  0  0  0  0  0  0  0  0  0  0
   43.3414   26.8089   49.3835 C   0  0  0  0  0  0  0  0  0  0  0  0
   42.5381   26.5430   50.0830 H   0  0  0  0  0  0  0  0  0  0  0  0
   43.9564   25.8322   48.6042 C   0  0  0  0  0  0  0  0  0  0  0  0
   43.5983   24.6251   48.6910 O   0  0  0  0  0  0  0  0  0  0  0  0
   44.9419   26.2303   47.7608 N   0  0  0  0  0  0  0  0  0  0  0  0
   45.3453   27.5072   47.6460 C   0  0  0  0  0  0  0  0  0  0  0  0
   46.2557   27.8813   46.8682 O   0  0  0  0  0  0  0  0  0  0  0  0
   43.3064   28.8659   49.8414 H   0  0  0  0  0  0  0  0  0  0  0  0
   45.4114   25.4868   47.1664 H   0  0  0  0  0  0  0  0  0  0  0  0
 10  1  1  6
  2  1  1  0
  3  2  1  0
  4  5  1  0
  4  3  1  0
  5  6  1  0
  6  2  1  0
  7  6  1  0
  7  8  1  0
 10  9  2  0
 10 12  1  0
 11 10  1  0
 13 12  1  0
 13 16  1  0
 14 19  2  0
 15 14  1  0
 16 17  1  0
 16 15  2  0
 17 18  2  0
 18 19  1  0
  2 20  1  1
  3 21  1  0
  3 22  1  0
  4 23  1  0
  4 24  1  0
  5 25  1  0
  5 26  1  0
  6 27  1  1
  7 28  1  0
  7 29  1  0
  8 30  1  0
 11 31  1  0
 13 32  1  0
 13 33  1  0
 14 34  1  0
 15 35  1  0
 36 37  1  0
 37 38  2  0
 38 39  1  0
 38 40  1  0
 40 41  2  0
 40 42  1  0
 42 43  1  0
 43 44  2  0
 43 36  1  0
 37 45  1  0
 42 46  1  0
 18 36  1  0
M  ISO  8  20  13  21  13  22  13  23  13  24  13  25  13  26  13  27  13
M  ISO  8  28   8  29   8  30   3  31   3  32   8  33   8  34  14  35  14
M  ISO  1  39  16
M  END
>  <DihAtoms>  (1) 
16,17,35,36

>  <DihDeg>  (1) 
-6.147183856908618

$$$$
