
     RDKit          3D

 42 44  0  0  0  0  0  0  0  0999 V2000
   46.1772   32.0923   45.4344 C   0  0  0  0  0  0  0  0  0  0  0  0
   45.7680   32.0323   49.1355 C   0  0  0  0  0  0  0  0  0  0  0  0
   46.0532   32.4926   47.8404 C   0  0  0  0  0  0  0  0  0  0  0  0
   45.8787   31.6105   46.7884 C   0  0  0  0  0  0  0  0  0  0  0  0
   45.4373   30.3300   47.0485 N   0  0  0  0  0  0  0  0  0  0  0  0
   45.1740   29.9267   48.3109 C   0  0  0  0  0  0  0  0  0  0  0  0
   45.3415   30.7783   49.3354 N   0  0  0  0  0  0  0  0  0  0  0  0
   46.5480   33.4025   45.4078 O   0  0  0  0  0  0  0  0  0  0  0  0
   44.6378   35.1756   45.2593 O   0  0  0  0  0  0  0  0  0  0  0  0
   45.4532   34.2402   44.4272 P   0  0  2  0  0  0  0  0  0  0  0  0
   44.5158   33.0665   43.6795 O   0  0  0  0  0  0  0  0  0  0  0  0
   46.3442   35.1228   43.2999 O   0  0  0  0  0  0  0  0  0  0  0  0
   47.1114   34.2309   42.5423 C   0  0  1  0  0  0  0  0  0  0  0  0
   46.9641   34.4677   41.0538 C   0  0  0  0  0  0  0  0  0  0  0  0
   48.1148   33.6699   40.5062 C   0  0  0  0  0  0  0  0  0  0  0  0
   49.1703   33.6588   41.6089 C   0  0  0  0  0  0  0  0  0  0  0  0
   48.5835   34.5566   42.6847 C   0  0  2  0  0  0  0  0  0  0  0  0
   47.0939   31.5132   45.1125 H   0  0  0  0  0  0  0  0  0  0  0  0
   45.3879   31.7509   44.7840 H   0  0  0  0  0  0  0  0  0  0  0  0
   45.8778   32.6572   50.0116 H   0  0  0  0  0  0  0  0  0  0  0  0
   46.3943   33.5134   47.7357 H   0  0  0  0  0  0  0  0  0  0  0  0
   44.8395   28.9078   48.3597 H   0  0  0  0  0  0  0  0  0  0  0  0
   44.8399   32.8453   42.7797 H   0  0  0  0  0  0  0  0  0  0  0  0
   46.9664   33.1727   42.8357 H   0  0  0  0  0  0  0  0  0  0  0  0
   45.9791   34.1217   40.7216 H   0  0  0  0  0  0  0  0  0  0  0  0
   47.1376   35.5451   40.8920 H   0  0  0  0  0  0  0  0  0  0  0  0
   47.7410   32.6398   40.3512 H   0  0  0  0  0  0  0  0  0  0  0  0
   48.5273   34.0520   39.5603 H   0  0  0  0  0  0  0  0  0  0  0  0
   50.1128   34.0951   41.2073 H   0  0  0  0  0  0  0  0  0  0  0  0
   49.3733   32.6303   41.9553 H   0  0  0  0  0  0  0  0  0  0  0  0
   48.6820   35.5968   42.2630 H   0  0  0  0  0  0  0  0  0  0  0  0
   49.1439   34.4160   43.9708 N   0  0  0  0  0  0  0  0  0  0  0  0
   49.2818   35.3309   44.9415 C   0  0  0  0  0  0  0  0  0  0  0  0
   49.8491   35.0868   46.1757 C   0  0  0  0  0  0  0  0  0  0  0  0
   49.9354   35.8618   46.9227 H   0  0  0  0  0  0  0  0  0  0  0  0
   50.2823   33.7887   46.3532 C   0  0  0  0  0  0  0  0  0  0  0  0
   50.8223   33.4648   47.4652 O   0  0  0  0  0  0  0  0  0  0  0  0
   50.1700   32.8303   45.4158 N   0  0  0  0  0  0  0  0  0  0  0  0
   49.6054   33.1609   44.2478 C   0  0  0  0  0  0  0  0  0  0  0  0
   49.5372   32.2025   43.4195 O   0  0  0  0  0  0  0  0  0  0  0  0
   48.9138   36.3174   44.7087 H   0  0  0  0  0  0  0  0  0  0  0  0
   50.5233   31.8719   45.6294 H   0  0  0  0  0  0  0  0  0  0  0  0
  1  4  1  0
  2  7  2  0
  3  2  1  0
  4  5  1  0
  4  3  2  0
  5  6  2  0
  6  7  1  0
  8  1  1  0
 10  9  2  0
 10  8  1  1
 11 10  1  0
 12 10  1  0
 13 17  1  0
 13 12  1  0
 14 13  1  0
 15 14  1  0
 15 16  1  0
 16 17  1  0
  1 18  1  0
  1 19  1  0
  2 20  1  0
  3 21  1  0
  6 22  1  0
 11 23  1  0
 13 24  1  6
 14 25  1  0
 14 26  1  0
 15 27  1  0
 15 28  1  0
 16 29  1  0
 16 30  1  0
 17 31  1  6
 32 33  1  0
 33 34  2  0
 34 35  1  0
 34 36  1  0
 36 37  2  0
 36 38  1  0
 38 39  1  0
 39 40  2  0
 39 32  1  0
 33 41  1  0
 38 42  1  0
 17 32  1  0
M  ISO  8  18   8  19   8  20  14  21  14  22  14  23   3  24  13  25  13
M  ISO  7  26  13  27  13  28  13  29  13  30  13  31  13  35  16
M  END
>  <DihAtoms>  (1) 
12,16,31,32

>  <DihDeg>  (1) 
87.558996602837

$$$$
