
     RDKit          3D

 23 24  0  0  0  0  0  0  0  0999 V2000
   45.4416   35.0673   43.9897 C   0  0  0  0  0  0  0  0  0  0  0  0
   46.4993   34.2969   43.5042 C   0  0  0  0  0  0  0  0  0  0  0  0
   47.0149   33.2896   44.3387 C   0  0  0  0  0  0  0  0  0  0  0  0
   46.4621   33.1202   45.5623 N   0  0  0  0  0  0  0  0  0  0  0  0
   45.4329   33.8928   45.9962 C   0  0  0  0  0  0  0  0  0  0  0  0
   44.9167   34.8699   45.2138 N   0  0  0  0  0  0  0  0  0  0  0  0
   44.8974   36.1363   43.0992 C   0  0  0  0  0  0  0  0  0  0  0  0
   46.9374   34.4396   42.5199 H   0  0  0  0  0  0  0  0  0  0  0  0
   47.8233   32.6587   44.0387 H   0  0  0  0  0  0  0  0  0  0  0  0
   43.9960   35.6855   42.6059 H   0  0  0  0  0  0  0  0  0  0  0  0
   44.5484   37.0051   43.7195 H   0  0  0  0  0  0  0  0  0  0  0  0
   45.6429   36.4856   42.3622 H   0  0  0  0  0  0  0  0  0  0  0  0
   44.8237   33.7478   47.2741 N   0  0  0  0  0  0  0  0  0  0  0  0
   44.8744   34.8182   48.0871 C   0  0  0  0  0  0  0  0  0  0  0  0
   44.2978   34.7240   49.3340 C   0  0  0  0  0  0  0  0  0  0  0  0
   44.3075   35.5590   50.0370 H   0  0  0  0  0  0  0  0  0  0  0  0
   43.6903   33.5333   49.6996 C   0  0  0  0  0  0  0  0  0  0  0  0
   43.1418   33.3968   50.8450 O   0  0  0  0  0  0  0  0  0  0  0  0
   43.6364   32.4439   48.8775 N   0  0  0  0  0  0  0  0  0  0  0  0
   44.2210   32.6157   47.6796 C   0  0  0  0  0  0  0  0  0  0  0  0
   44.1831   31.6179   46.9001 O   0  0  0  0  0  0  0  0  0  0  0  0
   45.3537   35.7389   47.7826 H   0  0  0  0  0  0  0  0  0  0  0  0
   43.1746   31.5547   49.1692 H   0  0  0  0  0  0  0  0  0  0  0  0
  1  6  2  0
  2  1  1  0
  2  3  2  0
  3  4  1  0
  4  5  2  0
  6  5  1  0
  7  1  1  0
  2  8  1  0
  3  9  1  0
  7 10  1  0
  7 11  1  0
  7 12  1  0
 13 14  1  0
 14 15  2  0
 15 16  1  0
 15 17  1  0
 17 18  2  0
 17 19  1  0
 19 20  1  0
 20 21  2  0
 20 13  1  0
 14 22  1  0
 19 23  1  0
  5 13  1  0
M  ISO  6   8  14   9  14  10   8  11   8  12   8  16  16
M  END
>  <DihAtoms>  (1) 
3,4,12,13

>  <DihDeg>  (1) 
119.80461290820074

$$$$
