
     RDKit          3D

 44 47  0  0  0  0  0  0  0  0999 V2000
   45.3510   33.7550   45.5960 C   0  0  0  0  0  0  0  0  0  0  0  0
   44.8270   34.9920   45.8440 C   0  0  0  0  0  0  0  0  0  0  0  0
   44.4080   35.8610   44.8640 C   0  0  0  0  0  0  0  0  0  0  0  0
   44.5410   35.4220   43.5920 N   0  0  0  0  0  0  0  0  0  0  0  0
   45.0580   34.2010   43.3430 C   0  0  0  0  0  0  0  0  0  0  0  0
   45.4670   33.3530   44.3170 N   0  0  0  0  0  0  0  0  0  0  0  0
   45.5210   32.1340   48.8700 C   0  0  0  0  0  0  0  0  0  0  0  0
   46.5780   31.2340   48.6880 C   0  0  0  0  0  0  0  0  0  0  0  0
   47.2260   31.1760   47.4680 C   0  0  0  0  0  0  0  0  0  0  0  0
   46.8020   32.0160   46.4700 N   0  0  0  0  0  0  0  0  0  0  0  0
   45.7760   32.8820   46.6690 C   0  0  0  0  0  0  0  0  0  0  0  0
   45.1510   32.9270   47.8640 N   0  0  0  0  0  0  0  0  0  0  0  0
   48.2790   30.2670   47.3150 N   0  0  0  0  0  0  0  0  0  0  0  0
   48.4160   29.8080   46.0370 C   0  0  0  0  0  0  0  0  0  0  0  0
   49.4320   28.8930   45.7490 C   0  0  0  0  0  0  0  0  0  0  0  0
   50.2380   28.5140   46.8010 C   0  0  0  0  0  0  0  0  0  0  0  0
   51.1670   27.6850   46.5680 O   0  0  0  0  0  0  0  0  0  0  0  0
   50.0610   28.9960   48.0480 N   0  0  0  0  0  0  0  0  0  0  0  0
   49.0770   29.8790   48.3090 C   0  0  0  0  0  0  0  0  0  0  0  0
   48.8860   30.3490   49.4640 O   0  0  0  0  0  0  0  0  0  0  0  0
   45.1990   33.7310   41.9440 C   0  0  0  0  0  0  0  0  0  0  0  0
   44.2220   32.9490   41.3920 C   0  0  0  0  0  0  0  0  0  0  0  0
   44.2520   32.4550   40.0940 C   0  0  0  0  0  0  0  0  0  0  0  0
   45.3620   32.7960   39.3330 C   0  0  0  0  0  0  0  0  0  0  0  0
   46.3380   33.5730   39.8740 C   0  0  0  0  0  0  0  0  0  0  0  0
   46.2880   34.0560   41.1710 C   0  0  0  0  0  0  0  0  0  0  0  0
   47.2640   34.8460   41.7460 O   0  0  0  0  0  0  0  0  0  0  0  0
   49.6730   35.5280   42.4970 O   0  0  0  0  0  0  0  0  0  0  0  0
   48.9000   34.8870   41.3470 P   0  0  0  0  0  0  0  0  0  0  0  0
   49.5530   33.3840   40.9790 O   0  0  0  0  0  0  0  0  0  0  0  0
   49.1060   35.8800   39.9920 O   0  0  0  0  0  0  0  0  0  0  0  0
   44.7345   35.3127   46.8921 H   0  0  0  0  0  0  0  0  0  0  0  0
   43.9908   36.8511   45.1001 H   0  0  0  0  0  0  0  0  0  0  0  0
   44.9991   32.1865   49.8369 H   0  0  0  0  0  0  0  0  0  0  0  0
   46.8915   30.5760   49.5119 H   0  0  0  0  0  0  0  0  0  0  0  0
   47.7359   30.1537   45.2445 H   0  0  0  0  0  0  0  0  0  0  0  0
   49.5811   28.4953   44.7343 H   0  0  0  0  0  0  0  0  0  0  0  0
   50.6836   28.6864   48.8079 H   0  0  0  0  0  0  0  0  0  0  0  0
   43.3541   32.6941   42.0180 H   0  0  0  0  0  0  0  0  0  0  0  0
   43.4419   31.8289   39.6918 H   0  0  0  0  0  0  0  0  0  0  0  0
   45.4516   32.4390   38.2964 H   0  0  0  0  0  0  0  0  0  0  0  0
   47.2082   33.8300   39.2522 H   0  0  0  0  0  0  0  0  0  0  0  0
   49.7628   32.9011   41.8174 H   0  0  0  0  0  0  0  0  0  0  0  0
   49.2980   36.8053   40.2871 H   0  0  0  0  0  0  0  0  0  0  0  0
  1  2  2  0
  1 11  1  0
  3  2  1  0
  4  3  2  0
  5  4  1  0
  5  6  2  0
  6  1  1  0
  8  7  2  0
  9  8  1  0
 10 11  1  0
 10  9  2  0
 11 12  2  0
 12  7  1  0
 13  9  1  0
 13 19  1  0
 14 13  1  0
 15 14  2  0
 15 16  1  0
 16 18  1  0
 17 16  2  0
 18 19  1  0
 19 20  2  0
 21  5  1  0
 22 21  2  0
 23 22  1  0
 24 25  1  0
 24 23  2  0
 25 26  2  0
 26 27  1  0
 26 21  1  0
 29 27  1  0
 29 28  2  0
 30 29  1  0
 31 29  1  0
  2 32  1  0
  3 33  1  0
  7 34  1  0
  8 35  1  0
 14 36  1  0
 15 37  1  0
 18 38  1  0
 22 39  1  0
 23 40  1  0
 24 41  1  0
 25 42  1  0
 30 43  1  0
 31 44  1  0
M  ISO  8  32  14  33  14  34  14  35  14  36  14  37  14  38   9  39  14
M  ISO  5  40  14  41  14  42  14  43   3  44   3
M  END
>  <minimizedAffinity>  (1) 
-7.02053928

>  <minimizedRMSD>  (1) 
0.491755366

$$$$
