
     RDKit          3D

 40 42  0  0  0  0  0  0  0  0999 V2000
   43.8520   34.8310   40.2110 O   0  0  0  0  0  0  0  0  0  0  0  0
   43.3910   34.7120   41.6670 P   0  0  1  0  0  0  0  0  0  0  0  0
   43.2520   33.0630   42.0270 O   0  0  0  0  0  0  0  0  0  0  0  0
   44.5800   35.3600   42.6740 O   0  0  0  0  0  0  0  0  0  0  0  0
   46.6560   34.3000   43.0350 C   0  0  0  0  0  0  0  0  0  0  0  0
   45.4210   34.6520   43.5210 C   0  0  0  0  0  0  0  0  0  0  0  0
   45.1140   34.2600   44.8470 C   0  0  0  0  0  0  0  0  0  0  0  0
   46.0470   33.5740   45.5320 N   0  0  0  0  0  0  0  0  0  0  0  0
   47.2420   33.2510   45.0210 C   0  0  0  0  0  0  0  0  0  0  0  0
   47.5390   33.6180   43.7690 N   0  0  0  0  0  0  0  0  0  0  0  0
   47.0450   34.6700   41.6730 C   0  0  0  0  0  0  0  0  0  0  0  0
   48.3880   35.3450   41.6960 C   0  0  0  0  0  0  0  0  0  0  0  0
   41.8770   35.4140   41.8690 O   0  0  0  0  0  0  0  0  0  0  0  0
   40.7700   34.7960   41.2960 C   0  0  0  0  0  0  0  0  0  0  0  0
   40.0240   35.5510   40.4040 C   0  0  0  0  0  0  0  0  0  0  0  0
   38.9000   35.0190   39.7830 C   0  0  0  0  0  0  0  0  0  0  0  0
   38.5530   33.7350   40.0750 N   0  0  0  0  0  0  0  0  0  0  0  0
   39.2750   33.0150   40.9350 C   0  0  0  0  0  0  0  0  0  0  0  0
   40.3560   33.5350   41.5280 N   0  0  0  0  0  0  0  0  0  0  0  0
   38.8900   31.6740   41.2230 N   0  0  0  0  0  0  0  0  0  0  0  0
   37.7310   31.1640   40.7710 C   0  0  0  0  0  0  0  0  0  0  0  0
   37.4160   29.8410   41.0920 C   0  0  0  0  0  0  0  0  0  0  0  0
   38.2760   29.0870   41.8510 C   0  0  0  0  0  0  0  0  0  0  0  0
   37.8270   27.9280   42.0350 O   0  0  0  0  0  0  0  0  0  0  0  0
   39.4330   29.6420   42.2850 N   0  0  0  0  0  0  0  0  0  0  0  0
   39.7160   30.9170   41.9640 C   0  0  0  0  0  0  0  0  0  0  0  0
   40.8220   31.3090   42.4310 O   0  0  0  0  0  0  0  0  0  0  0  0
   43.2416   32.9394   43.0092 H   0  0  0  0  0  0  0  0  0  0  0  0
   44.1439   34.5084   45.3022 H   0  0  0  0  0  0  0  0  0  0  0  0
   47.9714   32.6902   45.6239 H   0  0  0  0  0  0  0  0  0  0  0  0
   46.2968   35.3584   41.2532 H   0  0  0  0  0  0  0  0  0  0  0  0
   47.1029   33.7642   41.0516 H   0  0  0  0  0  0  0  0  0  0  0  0
   48.7014   35.5025   42.7386 H   0  0  0  0  0  0  0  0  0  0  0  0
   49.1260   34.7107   41.1831 H   0  0  0  0  0  0  0  0  0  0  0  0
   48.3193   36.3157   41.1831 H   0  0  0  0  0  0  0  0  0  0  0  0
   40.3259   36.5858   40.1846 H   0  0  0  0  0  0  0  0  0  0  0  0
   38.3076   35.6181   39.0758 H   0  0  0  0  0  0  0  0  0  0  0  0
   37.0468   31.7739   40.1628 H   0  0  0  0  0  0  0  0  0  0  0  0
   36.4733   29.4012   40.7344 H   0  0  0  0  0  0  0  0  0  0  0  0
   40.0905   29.0921   42.8561 H   0  0  0  0  0  0  0  0  0  0  0  0
  2  1  2  0
  2 13  1  0
  2  3  1  0
  2  4  1  0
  4  6  1  0
  5  6  2  0
  5 10  1  0
  6  7  1  0
  7  8  2  0
  9  8  1  0
 10  9  2  0
 11 12  1  0
 11  5  1  0
 14 19  1  0
 14 13  1  0
 15 14  2  0
 16 17  2  0
 16 15  1  0
 17 18  1  0
 18 20  1  0
 18 19  2  0
 20 26  1  0
 21 22  2  0
 21 20  1  0
 22 23  1  0
 23 24  2  0
 23 25  1  0
 26 25  1  0
 26 27  2  0
  3 28  1  0
  7 29  1  0
  9 30  1  0
 11 31  1  0
 11 32  1  0
 12 33  1  0
 12 34  1  0
 12 35  1  0
 15 36  1  0
 16 37  1  0
 21 38  1  0
 22 39  1  0
 25 40  1  0
M  ISO  8  28   3  29  14  30  14  31   8  32   8  33   8  34   8  35   8
M  ISO  5  36  14  37  14  38  14  39  14  40   9
M  END
>  <minimizedAffinity>  (1) 
-6.29724836

>  <minimizedRMSD>  (1) 
0.539573669

$$$$
