
     RDKit          3D

 27 28  0  0  0  0  0  0  0  0999 V2000
   44.8870   35.6760   44.0920 C   0  0  0  0  0  0  0  0  0  0  0  0
   44.4270   35.1730   42.8620 C   0  0  0  0  0  0  0  0  0  0  0  0
   44.5440   33.8130   42.6130 C   0  0  0  0  0  0  0  0  0  0  0  0
   45.0980   33.0370   43.5720 N   0  0  0  0  0  0  0  0  0  0  0  0
   45.5330   33.5430   44.7480 C   0  0  0  0  0  0  0  0  0  0  0  0
   45.4270   34.8450   45.0010 N   0  0  0  0  0  0  0  0  0  0  0  0
   46.0890   32.5900   45.6450 N   0  0  0  0  0  0  0  0  0  0  0  0
   46.9720   31.6330   45.2430 C   0  0  0  0  0  0  0  0  0  0  0  0
   47.4960   30.7190   46.1370 C   0  0  0  0  0  0  0  0  0  0  0  0
   47.1220   30.7730   47.4640 C   0  0  0  0  0  0  0  0  0  0  0  0
   47.6120   29.9340   48.2500 O   0  0  0  0  0  0  0  0  0  0  0  0
   46.2390   31.7440   47.8200 N   0  0  0  0  0  0  0  0  0  0  0  0
   45.7370   32.6270   46.9380 C   0  0  0  0  0  0  0  0  0  0  0  0
   44.9230   33.4740   47.4270 O   0  0  0  0  0  0  0  0  0  0  0  0
   44.7700   37.1180   44.3730 C   0  0  0  0  0  0  0  0  0  0  0  0
   45.4470   37.9390   43.5800 C   0  0  0  0  0  0  0  0  0  0  0  0
   45.3720   39.4110   43.8120 C   0  0  0  0  0  0  0  0  0  0  0  0
   43.9832   35.8444   42.1121 H   0  0  0  0  0  0  0  0  0  0  0  0
   44.1965   33.3790   41.6639 H   0  0  0  0  0  0  0  0  0  0  0  0
   47.2735   31.5873   44.1861 H   0  0  0  0  0  0  0  0  0  0  0  0
   48.2068   29.9532   45.7930 H   0  0  0  0  0  0  0  0  0  0  0  0
   45.9427   31.8059   48.8045 H   0  0  0  0  0  0  0  0  0  0  0  0
   44.1512   37.4957   45.2003 H   0  0  0  0  0  0  0  0  0  0  0  0
   46.0584   37.5376   42.7584 H   0  0  0  0  0  0  0  0  0  0  0  0
   45.3618   39.6117   44.8935 H   0  0  0  0  0  0  0  0  0  0  0  0
   46.2464   39.8990   43.3568 H   0  0  0  0  0  0  0  0  0  0  0  0
   44.4525   39.8076   43.3568 H   0  0  0  0  0  0  0  0  0  0  0  0
  1 15  1  0
  1  6  2  0
  2  1  1  0
  3  2  2  0
  3  4  1  0
  4  5  2  0
  5  6  1  0
  5  7  1  0
  7 13  1  0
  8  7  1  0
  8  9  2  0
  9 10  1  0
 10 12  1  0
 10 11  2  0
 13 14  2  0
 13 12  1  0
 16 17  1  0
 16 15  2  0
  2 18  1  0
  3 19  1  0
  8 20  1  0
  9 21  1  0
 12 22  1  0
 15 23  1  0
 16 24  1  0
 17 25  1  0
 17 26  1  0
 17 27  1  0
M  ISO  8  18  14  19  14  20  14  21  14  22   9  25   8  26   8  27   8
M  END
>  <minimizedAffinity>  (1) 
-4.1426754

>  <minimizedRMSD>  (1) 
1.65284264

$$$$
