
     RDKit          3D

 35 37  0  0  0  0  0  0  0  0999 V2000
   47.2300   30.5660   47.8080 C   0  0  0  0  0  0  0  0  0  0  0  0
   47.7550   29.4470   47.1980 C   0  0  0  0  0  0  0  0  0  0  0  0
   49.0280   29.0460   47.5080 C   0  0  0  0  0  0  0  0  0  0  0  0
   49.7890   29.7120   48.3920 N   0  0  0  0  0  0  0  0  0  0  0  0
   49.2650   30.8030   48.9800 C   0  0  0  0  0  0  0  0  0  0  0  0
   48.0060   31.2420   48.7070 N   0  0  0  0  0  0  0  0  0  0  0  0
   50.1080   31.4950   49.9240 N   0  0  0  0  0  0  0  0  0  0  0  0
   50.6230   32.7120   49.8690 C   0  0  0  0  0  0  0  0  0  0  0  0
   51.4080   33.1550   50.9090 C   0  0  0  0  0  0  0  0  0  0  0  0
   51.6510   32.3370   51.9860 C   0  0  0  0  0  0  0  0  0  0  0  0
   52.3720   32.7570   52.9320 O   0  0  0  0  0  0  0  0  0  0  0  0
   51.1160   31.1000   52.0200 N   0  0  0  0  0  0  0  0  0  0  0  0
   50.3490   30.6820   50.9940 C   0  0  0  0  0  0  0  0  0  0  0  0
   49.9220   29.5050   51.1710 O   0  0  0  0  0  0  0  0  0  0  0  0
   45.9240   31.1960   47.6580 C   0  0  0  0  0  0  0  0  0  0  0  0
   46.1220   32.5850   47.5530 O   0  0  0  0  0  0  0  0  0  0  0  0
   44.9860   34.8670   45.0720 C   0  0  0  0  0  0  0  0  0  0  0  0
   45.8050   34.6080   43.9780 C   0  0  0  0  0  0  0  0  0  0  0  0
   46.7860   33.6030   44.1160 C   0  0  0  0  0  0  0  0  0  0  0  0
   46.8650   32.9570   45.3020 N   0  0  0  0  0  0  0  0  0  0  0  0
   46.0460   33.2460   46.3320 C   0  0  0  0  0  0  0  0  0  0  0  0
   45.1180   34.1870   46.2230 N   0  0  0  0  0  0  0  0  0  0  0  0
   45.6000   35.4060   42.7270 C   0  0  0  0  0  0  0  0  0  0  0  0
   45.3140   36.6770   43.1570 F   0  0  0  0  0  0  0  0  0  0  0  0
   44.4930   34.8520   42.0950 F   0  0  0  0  0  0  0  0  0  0  0  0
   46.7350   35.3350   41.9620 F   0  0  0  0  0  0  0  0  0  0  0  0
   47.1572   28.8808   46.4686 H   0  0  0  0  0  0  0  0  0  0  0  0
   49.4394   28.1512   47.0179 H   0  0  0  0  0  0  0  0  0  0  0  0
   50.4265   33.3616   49.0033 H   0  0  0  0  0  0  0  0  0  0  0  0
   51.8416   34.1655   50.8780 H   0  0  0  0  0  0  0  0  0  0  0  0
   51.2920   30.4798   52.8233 H   0  0  0  0  0  0  0  0  0  0  0  0
   45.4297   30.8195   46.7503 H   0  0  0  0  0  0  0  0  0  0  0  0
   45.2860   30.9648   48.5237 H   0  0  0  0  0  0  0  0  0  0  0  0
   44.2132   35.6458   44.9930 H   0  0  0  0  0  0  0  0  0  0  0  0
   47.4640   33.3531   43.2866 H   0  0  0  0  0  0  0  0  0  0  0  0
  1  6  2  0
  2  3  2  0
  2  1  1  0
  3  4  1  0
  4  5  2  0
  5  7  1  0
  6  5  1  0
  7 13  1  0
  8  7  1  0
  8  9  2  0
  9 10  1  0
 10 12  1  0
 10 11  2  0
 13 14  2  0
 13 12  1  0
 15  1  1  0
 16 15  1  0
 17 22  2  0
 18 19  2  0
 18 17  1  0
 19 20  1  0
 20 21  2  0
 21 16  1  0
 22 21  1  0
 23 24  1  0
 23 18  1  0
 25 23  1  0
 26 23  1  0
  2 27  1  0
  3 28  1  0
  8 29  1  0
  9 30  1  0
 12 31  1  0
 15 32  1  0
 15 33  1  0
 17 34  1  0
 19 35  1  0
M  ISO  8  27  14  28  14  29  14  30  14  31   9  32   8  33   8  34  14
M  ISO  1  35  14
M  END
>  <minimizedAffinity>  (1) 
-6.51212931

>  <minimizedRMSD>  (1) 
0.775688052

$$$$
