
     RDKit          3D

 29 30  0  0  0  0  0  0  0  0999 V2000
   47.1586   33.9623   42.4698 C   0  0  0  0  0  0  0  0  0  0  0  0
   45.2925   34.2340   45.6919 C   0  0  0  0  0  0  0  0  0  0  0  0
   46.1665   33.7369   44.7020 C   0  0  0  0  0  0  0  0  0  0  0  0
   46.2564   34.4524   43.5241 C   0  0  0  0  0  0  0  0  0  0  0  0
   45.5048   35.5917   43.3760 N   0  0  0  0  0  0  0  0  0  0  0  0
   44.6786   36.0368   44.3464 C   0  0  0  0  0  0  0  0  0  0  0  0
   44.5767   35.3591   45.4946 N   0  0  0  0  0  0  0  0  0  0  0  0
   48.3202   33.4187   43.0150 O   0  0  0  0  0  0  0  0  0  0  0  0
   50.6661   33.1150   41.9049 O   0  0  0  0  0  0  0  0  0  0  0  0
   49.6320   34.1458   42.2316 P   0  0  2  0  0  0  0  0  0  0  0  0
   50.2113   35.3597   43.2447 O   0  0  0  0  0  0  0  0  0  0  0  0
   49.0572   34.8135   40.7859 O   0  0  0  0  0  0  0  0  0  0  0  0
   46.5876   33.1862   41.8816 H   0  0  0  0  0  0  0  0  0  0  0  0
   47.3492   34.8010   41.7685 H   0  0  0  0  0  0  0  0  0  0  0  0
   45.2004   33.7042   46.6135 H   0  0  0  0  0  0  0  0  0  0  0  0
   46.7524   32.8430   44.8256 H   0  0  0  0  0  0  0  0  0  0  0  0
   44.1369   36.9447   44.1180 H   0  0  0  0  0  0  0  0  0  0  0  0
   50.2353   35.0799   44.1954 H   0  0  0  0  0  0  0  0  0  0  0  0
   49.1954   33.5433   36.5666 H   0  0  0  0  0  0  0  0  0  0  0  0
   48.6938   33.4359   37.4864 N   0  0  0  0  0  0  0  0  0  0  0  0
   49.2016   34.1758   38.4808 C   0  0  0  0  0  0  0  0  0  0  0  0
   48.5836   34.0812   39.7291 C   0  0  0  0  0  0  0  0  0  0  0  0
   47.4904   33.2345   39.8639 C   0  0  0  0  0  0  0  0  0  0  0  0
   46.9101   33.1260   40.9756 O   0  0  0  0  0  0  0  0  0  0  0  0
   47.0662   32.5365   38.7890 N   0  0  0  0  0  0  0  0  0  0  0  0
   47.6565   32.6156   37.5624 C   0  0  0  0  0  0  0  0  0  0  0  0
   47.2100   31.9371   36.6023 O   0  0  0  0  0  0  0  0  0  0  0  0
   50.0622   34.8280   38.3312 H   0  0  0  0  0  0  0  0  0  0  0  0
   46.2267   31.9060   38.9523 H   0  0  0  0  0  0  0  0  0  0  0  0
  1  8  1  0
  1  4  1  0
  3  2  2  0
  4  3  1  0
  5  4  2  0
  5  6  1  0
  6  7  2  0
  7  2  1  0
  9 10  2  0
 10  8  1  1
 10 11  1  0
 12 10  1  0
  1 13  1  0
  1 14  1  0
  2 15  1  0
  3 16  1  0
  6 17  1  0
 11 18  1  0
 19 20  1  0
 20 21  1  0
 21 22  2  0
 22 23  1  0
 23 24  2  0
 23 25  1  0
 25 26  1  0
 26 27  2  0
 26 20  1  0
 21 28  1  0
 25 29  1  0
 12 22  1  0
M  ISO  7  13   8  14   8  15  14  16  14  17  14  18   3  19   9
M  END
>  <DihAtoms>  (1) 
9,11,21,20

>  <DihDeg>  (1) 
5.4462444439529424e-05

$$$$
