
     RDKit          3D

 29 30  0  0  0  0  0  0  0  0999 V2000
   47.4830   32.0790   40.6670 O   0  0  0  0  0  0  0  0  0  0  0  0
   48.3230   33.3150   40.5850 P   0  0  2  0  0  0  0  0  0  0  0  0
   49.9740   32.9870   40.5500 O   0  0  0  0  0  0  0  0  0  0  0  0
   48.0320   34.3000   41.9300 O   0  0  0  0  0  0  0  0  0  0  0  0
   46.7550   34.8350   41.7840 C   0  0  0  0  0  0  0  0  0  0  0  0
   45.6030   34.0250   45.2420 C   0  0  0  0  0  0  0  0  0  0  0  0
   46.2830   33.9190   44.0100 C   0  0  0  0  0  0  0  0  0  0  0  0
   46.0610   34.9150   43.0800 C   0  0  0  0  0  0  0  0  0  0  0  0
   45.2060   35.9430   43.3930 N   0  0  0  0  0  0  0  0  0  0  0  0
   44.5730   36.0110   44.5830 C   0  0  0  0  0  0  0  0  0  0  0  0
   44.7740   35.0560   45.4980 N   0  0  0  0  0  0  0  0  0  0  0  0
   47.8690   34.1880   39.2070 O   0  0  0  0  0  0  0  0  0  0  0  0
   49.0010   33.1210   35.9670 N   0  0  0  0  0  0  0  0  0  0  0  0
   49.0620   33.6250   37.2070 C   0  0  0  0  0  0  0  0  0  0  0  0
   47.8710   33.6820   37.9340 C   0  0  0  0  0  0  0  0  0  0  0  0
   46.7070   33.2190   37.3340 C   0  0  0  0  0  0  0  0  0  0  0  0
   45.6170   33.2560   37.9620 O   0  0  0  0  0  0  0  0  0  0  0  0
   46.7670   32.7310   36.0770 N   0  0  0  0  0  0  0  0  0  0  0  0
   47.9200   32.6660   35.3510 C   0  0  0  0  0  0  0  0  0  0  0  0
   47.9060   32.2010   34.1840 O   0  0  0  0  0  0  0  0  0  0  0  0
   50.3166   32.9189   41.4763 H   0  0  0  0  0  0  0  0  0  0  0  0
   46.8358   35.8455   41.3571 H   0  0  0  0  0  0  0  0  0  0  0  0
   46.1758   34.1784   41.1182 H   0  0  0  0  0  0  0  0  0  0  0  0
   45.7527   33.2505   46.0087 H   0  0  0  0  0  0  0  0  0  0  0  0
   46.9610   33.0787   43.7996 H   0  0  0  0  0  0  0  0  0  0  0  0
   43.8941   36.8489   44.7998 H   0  0  0  0  0  0  0  0  0  0  0  0
   49.8846   33.0835   35.4390 H   0  0  0  0  0  0  0  0  0  0  0  0
   50.0114   33.9794   37.6349 H   0  0  0  0  0  0  0  0  0  0  0  0
   45.8971   32.3900   35.6435 H   0  0  0  0  0  0  0  0  0  0  0  0
  2  1  2  0
  2  4  1  0
  3  2  1  0
  5  4  1  0
  5  8  1  0
  6 11  2  0
  7  6  1  0
  8  9  1  0
  8  7  2  0
  9 10  2  0
 10 11  1  0
 12  2  1  0
 13 14  1  0
 14 15  2  0
 15 12  1  0
 16 15  1  0
 16 17  2  0
 18 16  1  0
 19 13  1  0
 19 18  1  0
 20 19  2  0
  3 21  1  0
  5 22  1  0
  5 23  1  0
  6 24  1  0
  7 25  1  0
 10 26  1  0
 13 27  1  0
 14 28  1  0
 18 29  1  0
M  ISO  8  21   3  22   8  23   8  24  14  25  14  26  14  27   9  28  14
M  ISO  1  29   9
M  END
>  <minimizedAffinity>  (1) 
-4.93461561

>  <minimizedRMSD>  (1) 
2.27660036

$$$$
