
     RDKit          3D

 34 37  0  0  0  0  0  0  0  0999 V2000
   47.4594   31.6804   44.8223 C   0  0  0  0  0  0  0  0  0  0  0  0
   46.7901   32.8524   44.5400 C   0  0  0  0  0  0  0  0  0  0  0  0
   45.9235   33.4393   45.4253 C   0  0  0  0  0  0  0  0  0  0  0  0
   45.6833   32.8615   46.6663 C   0  0  0  0  0  0  0  0  0  0  0  0
   44.9316   33.1294   47.7582 N   0  0  0  0  0  0  0  0  0  0  0  0
   45.1096   32.1765   48.6944 C   0  0  0  0  0  0  0  0  0  0  0  0
   45.9836   31.3167   48.1618 N   0  0  0  0  0  0  0  0  0  0  0  0
   46.3577   31.6965   46.9292 C   0  0  0  0  0  0  0  0  0  0  0  0
   47.2403   31.0743   46.0603 C   0  0  0  0  0  0  0  0  0  0  0  0
   46.3803   33.8152   41.0172 C   0  0  0  0  0  0  0  0  0  0  0  0
   47.4113   34.7178   40.8195 C   0  0  0  0  0  0  0  0  0  0  0  0
   48.2546   35.0003   41.9001 C   0  0  0  0  0  0  0  0  0  0  0  0
   48.0256   34.3756   43.1005 N   0  0  0  0  0  0  0  0  0  0  0  0
   47.0074   33.5025   43.2461 C   0  0  0  0  0  0  0  0  0  0  0  0
   46.1810   33.2145   42.2174 N   0  0  0  0  0  0  0  0  0  0  0  0
   45.0527   34.9641   45.0582 S   0  0  0  0  0  0  0  0  0  0  0  0
   48.1347   31.2476   44.0995 H   0  0  0  0  0  0  0  0  0  0  0  0
   44.3151   33.9830   47.8025 H   0  0  0  0  0  0  0  0  0  0  0  0
   44.6415   32.1285   49.6631 H   0  0  0  0  0  0  0  0  0  0  0  0
   47.7425   30.1489   46.3341 H   0  0  0  0  0  0  0  0  0  0  0  0
   45.6673   33.5245   40.2441 H   0  0  0  0  0  0  0  0  0  0  0  0
   47.5055   35.1529   39.8398 H   0  0  0  0  0  0  0  0  0  0  0  0
   49.0499   35.6937   41.7554 H   0  0  0  0  0  0  0  0  0  0  0  0
   45.7438   39.4564   46.6499 H   0  0  0  0  0  0  0  0  0  0  0  0
   46.1735   38.5719   46.3458 N   0  0  0  0  0  0  0  0  0  0  0  0
   45.3850   37.5433   45.9707 C   0  0  0  0  0  0  0  0  0  0  0  0
   46.0155   36.3825   45.5730 C   0  0  0  0  0  0  0  0  0  0  0  0
   47.3877   36.2453   45.5477 C   0  0  0  0  0  0  0  0  0  0  0  0
   47.9708   35.1842   45.1842 O   0  0  0  0  0  0  0  0  0  0  0  0
   48.1470   37.3072   45.9340 N   0  0  0  0  0  0  0  0  0  0  0  0
   47.5235   38.4562   46.3277 C   0  0  0  0  0  0  0  0  0  0  0  0
   48.2919   39.4068   46.6748 O   0  0  0  0  0  0  0  0  0  0  0  0
   44.3160   37.5972   45.9717 H   0  0  0  0  0  0  0  0  0  0  0  0
   49.1799   37.2564   45.9336 H   0  0  0  0  0  0  0  0  0  0  0  0
  1  9  2  0
  2  1  1  0
  2  3  2  0
  3  4  1  0
  4  8  2  0
  4  5  1  0
  5  6  1  0
  7  6  2  0
  8  7  1  0
  9  8  1  0
 10 15  2  0
 11 10  1  0
 11 12  2  0
 12 13  1  0
 13 14  2  0
 14  2  1  0
 15 14  1  0
 16  3  1  0
  1 17  1  0
  5 18  1  0
  6 19  1  0
  9 20  1  0
 10 21  1  0
 11 22  1  0
 12 23  1  0
 24 25  1  0
 25 26  1  0
 26 27  2  0
 27 28  1  0
 28 29  2  0
 28 30  1  0
 30 31  1  0
 31 32  2  0
 31 25  1  0
 26 33  1  0
 30 34  1  0
 16 27  1  0
M  ISO  8  17  14  18   9  19  14  20  14  21  14  22  14  23  14  24   9
M  END
>  <DihAtoms>  (1) 
2,15,26,25

>  <DihDeg>  (1) 
-0.02483699240889818

$$$$
