
     RDKit          3D

 46 48  0  0  1  0  0  0  0  0999 V2000
   49.9570   30.5680   41.0190 O   0  0  0  0  0  0  0  0  0  0  0  0
   50.4500   29.1600   39.1940 C   0  0  1  0  0  0  0  0  0  0  0  0
   50.9850   29.9910   40.3470 C   0  0  2  0  0  0  0  0  0  0  0  0
   51.4860   28.8440   41.2550 C   0  0  0  0  0  0  0  0  0  0  0  0
   50.5460   27.8580   41.1600 O   0  0  0  0  0  0  0  0  0  0  0  0
   49.8900   27.9730   39.9690 C   0  0  0  0  0  0  0  0  0  0  0  0
   49.4880   29.8160   38.4700 O   0  0  0  0  0  0  0  0  0  0  0  0
   47.6910   32.8350   38.0650 N   0  0  0  0  0  0  0  0  0  0  0  0
   48.1060   31.5660   38.3460 C   0  0  0  0  0  0  0  0  0  0  0  0
   49.4050   31.1250   38.0670 C   0  0  0  0  0  0  0  0  0  0  0  0
   50.2450   32.0520   37.4910 C   0  0  0  0  0  0  0  0  0  0  0  0
   51.3820   31.5620   37.2830 O   0  0  0  0  0  0  0  0  0  0  0  0
   49.8130   33.2930   37.2250 N   0  0  0  0  0  0  0  0  0  0  0  0
   48.5680   33.6970   37.4980 C   0  0  0  0  0  0  0  0  0  0  0  0
   48.3000   34.8920   37.1930 O   0  0  0  0  0  0  0  0  0  0  0  0
   50.2460   32.1610   43.0940 O   0  0  0  0  0  0  0  0  0  0  0  0
   50.3610   32.1320   41.5810 P   0  0  1  0  0  0  0  0  0  0  0  0
   51.9070   32.4640   41.0410 O   0  0  0  0  0  0  0  0  0  0  0  0
   49.2920   33.2550   40.9290 O   0  0  0  0  0  0  0  0  0  0  0  0
   49.1420   34.3510   41.7660 C   0  0  0  0  0  0  0  0  0  0  0  0
   47.8050   34.9830   41.5830 C   0  0  0  0  0  0  0  0  0  0  0  0
   44.9450   35.1260   44.0370 C   0  0  0  0  0  0  0  0  0  0  0  0
   45.7560   35.3930   42.9150 C   0  0  0  0  0  0  0  0  0  0  0  0
   46.9530   34.6980   42.7670 C   0  0  0  0  0  0  0  0  0  0  0  0
   47.2870   33.7860   43.7140 N   0  0  0  0  0  0  0  0  0  0  0  0
   46.4900   33.5470   44.7840 C   0  0  0  0  0  0  0  0  0  0  0  0
   45.3370   34.2040   44.9460 N   0  0  0  0  0  0  0  0  0  0  0  0
   43.7370   35.8160   44.2010 N   0  0  0  0  0  0  0  0  0  0  0  0
   51.1944   28.9036   38.4258 H   0  0  0  0  0  0  0  0  0  0  0  0
   51.6985   30.7752   40.0536 H   0  0  0  0  0  0  0  0  0  0  0  0
   52.4626   28.4774   40.9058 H   0  0  0  0  0  0  0  0  0  0  0  0
   51.6189   29.1785   42.2944 H   0  0  0  0  0  0  0  0  0  0  0  0
   48.8171   28.1294   40.1548 H   0  0  0  0  0  0  0  0  0  0  0  0
   50.0299   27.0529   39.3826 H   0  0  0  0  0  0  0  0  0  0  0  0
   46.7285   33.1318   38.2802 H   0  0  0  0  0  0  0  0  0  0  0  0
   47.3951   30.8650   38.8079 H   0  0  0  0  0  0  0  0  0  0  0  0
   50.4663   33.9620   36.7931 H   0  0  0  0  0  0  0  0  0  0  0  0
   52.5073   32.5929   41.8176 H   0  0  0  0  0  0  0  0  0  0  0  0
   49.2448   34.0226   42.8108 H   0  0  0  0  0  0  0  0  0  0  0  0
   49.9168   35.0911   41.5170 H   0  0  0  0  0  0  0  0  0  0  0  0
   47.9262   36.0707   41.4724 H   0  0  0  0  0  0  0  0  0  0  0  0
   47.3270   34.5724   40.6814 H   0  0  0  0  0  0  0  0  0  0  0  0
   45.4475   36.1392   42.1679 H   0  0  0  0  0  0  0  0  0  0  0  0
   46.7969   32.8003   45.5312 H   0  0  0  0  0  0  0  0  0  0  0  0
   43.4454   36.5166   43.5045 H   0  0  0  0  0  0  0  0  0  0  0  0
   43.1404   35.6228   45.0181 H   0  0  0  0  0  0  0  0  0  0  0  0
  1 17  1  0
  2  6  1  0
  2  3  1  0
  3  1  1  0
  3  4  1  0
  5  4  1  0
  6  5  1  0
  7  2  1  0
  8  9  1  0
 10  9  2  0
 10  7  1  0
 11 10  1  0
 12 11  2  0
 13 11  1  0
 13 14  1  0
 14  8  1  0
 15 14  2  0
 17 16  2  0
 18 17  1  0
 19 17  1  0
 19 20  1  0
 21 20  1  0
 21 24  1  0
 22 28  1  0
 22 27  2  0
 23 22  1  0
 24 23  2  0
 24 25  1  0
 25 26  2  0
 26 27  1  0
  2 29  1  6
  3 30  1  6
  4 31  1  0
  4 32  1  0
  6 33  1  0
  6 34  1  0
  8 35  1  0
  9 36  1  0
 13 37  1  0
 18 38  1  0
 20 39  1  0
 20 40  1  0
 21 41  1  0
 21 42  1  0
 23 43  1  0
 26 44  1  0
 28 45  1  0
 28 46  1  0
M  ISO  8  29  13  30  13  31  13  32  13  33  13  34  13  35   9  36  14
M  ISO  8  37   9  38   3  39   8  40   8  41   8  42   8  43  14  44  14
M  END
>  <minimizedAffinity>  (1) 
-5.14770412

>  <minimizedRMSD>  (1) 
2.60423541

$$$$
