
     RDKit          3D

 29 30  0  0  0  0  0  0  0  0999 V2000
   47.1586   33.9623   42.4698 C   0  0  0  0  0  0  0  0  0  0  0  0
   45.2925   34.2340   45.6919 C   0  0  0  0  0  0  0  0  0  0  0  0
   46.1665   33.7369   44.7020 C   0  0  0  0  0  0  0  0  0  0  0  0
   46.2564   34.4524   43.5241 C   0  0  0  0  0  0  0  0  0  0  0  0
   45.5048   35.5917   43.3760 N   0  0  0  0  0  0  0  0  0  0  0  0
   44.6786   36.0368   44.3464 C   0  0  0  0  0  0  0  0  0  0  0  0
   44.5767   35.3591   45.4946 N   0  0  0  0  0  0  0  0  0  0  0  0
   48.3202   33.4187   43.0150 O   0  0  0  0  0  0  0  0  0  0  0  0
   50.6661   33.1150   41.9049 O   0  0  0  0  0  0  0  0  0  0  0  0
   49.6320   34.1458   42.2316 P   0  0  2  0  0  0  0  0  0  0  0  0
   50.2113   35.3597   43.2447 O   0  0  0  0  0  0  0  0  0  0  0  0
   49.0572   34.8135   40.7859 O   0  0  0  0  0  0  0  0  0  0  0  0
   46.5876   33.1862   41.8816 H   0  0  0  0  0  0  0  0  0  0  0  0
   47.3492   34.8010   41.7685 H   0  0  0  0  0  0  0  0  0  0  0  0
   45.2004   33.7042   46.6135 H   0  0  0  0  0  0  0  0  0  0  0  0
   46.7524   32.8430   44.8256 H   0  0  0  0  0  0  0  0  0  0  0  0
   44.1369   36.9447   44.1180 H   0  0  0  0  0  0  0  0  0  0  0  0
   50.2353   35.0799   44.1954 H   0  0  0  0  0  0  0  0  0  0  0  0
   49.5593   31.7848   37.6220 H   0  0  0  0  0  0  0  0  0  0  0  0
   48.8938   32.4694   38.0665 N   0  0  0  0  0  0  0  0  0  0  0  0
   49.4129   33.1553   39.0932 C   0  0  0  0  0  0  0  0  0  0  0  0
   48.5836   34.0812   39.7291 C   0  0  0  0  0  0  0  0  0  0  0  0
   47.2836   34.2343   39.2638 C   0  0  0  0  0  0  0  0  0  0  0  0
   46.5098   35.0604   39.8145 O   0  0  0  0  0  0  0  0  0  0  0  0
   46.8696   33.4865   38.2188 N   0  0  0  0  0  0  0  0  0  0  0  0
   47.6644   32.5776   37.5852 C   0  0  0  0  0  0  0  0  0  0  0  0
   47.2150   31.9131   36.6167 O   0  0  0  0  0  0  0  0  0  0  0  0
   50.4398   33.0036   39.4262 H   0  0  0  0  0  0  0  0  0  0  0  0
   45.8665   33.6469   37.9074 H   0  0  0  0  0  0  0  0  0  0  0  0
  1  8  1  0
  1  4  1  0
  3  2  2  0
  4  3  1  0
  5  4  2  0
  5  6  1  0
  6  7  2  0
  7  2  1  0
  9 10  2  0
 10  8  1  1
 10 11  1  0
 12 10  1  0
  1 13  1  0
  1 14  1  0
  2 15  1  0
  3 16  1  0
  6 17  1  0
 11 18  1  0
 19 20  1  0
 20 21  1  0
 21 22  2  0
 22 23  1  0
 23 24  2  0
 23 25  1  0
 25 26  1  0
 26 27  2  0
 26 20  1  0
 21 28  1  0
 25 29  1  0
 12 22  1  0
M  ISO  7  13   8  14   8  15  14  16  14  17  14  18   3  19   9
M  END
>  <DihAtoms>  (1) 
9,11,21,20

>  <DihDeg>  (1) 
5.4462444439529424e-05

$$$$
