
     RDKit          3D

 33 35  0  0  1  0  0  0  0  0999 V2000
   48.1920   35.5900   42.0470 C   0  0  1  0  0  0  0  0  0  0  0  0
   49.4550   34.8280   41.8800 C   0  0  0  0  0  0  0  0  0  0  0  0
   48.5850   35.2040   40.6870 C   0  0  1  0  0  0  0  0  0  0  0  0
   46.2470   32.9760   43.9650 C   0  0  0  0  0  0  0  0  0  0  0  0
   47.3390   33.6610   43.4160 C   0  0  0  0  0  0  0  0  0  0  0  0
   47.0760   34.8180   42.6690 C   0  0  0  0  0  0  0  0  0  0  0  0
   45.7850   35.2250   42.5120 N   0  0  0  0  0  0  0  0  0  0  0  0
   44.7510   34.5400   43.0560 C   0  0  0  0  0  0  0  0  0  0  0  0
   44.9880   33.4130   43.7840 N   0  0  0  0  0  0  0  0  0  0  0  0
   47.8220   34.3080   40.0380 O   0  0  0  0  0  0  0  0  0  0  0  0
   49.0480   32.5180   38.5090 O   0  0  0  0  0  0  0  0  0  0  0  0
   48.2710   33.8140   38.5400 P   0  0  2  0  0  0  0  0  0  0  0  0
   49.2090   34.9420   37.6900 O   0  0  0  0  0  0  0  0  0  0  0  0
   46.8890   33.5370   37.6020 O   0  0  0  0  0  0  0  0  0  0  0  0
   48.0840   32.0270   34.4630 N   0  0  0  0  0  0  0  0  0  0  0  0
   48.0950   32.7820   35.5930 C   0  0  0  0  0  0  0  0  0  0  0  0
   46.9950   32.8080   36.4240 C   0  0  0  0  0  0  0  0  0  0  0  0
   45.8740   32.0640   36.1110 C   0  0  0  0  0  0  0  0  0  0  0  0
   44.7890   31.9610   36.7380 O   0  0  0  0  0  0  0  0  0  0  0  0
   45.8660   31.3070   34.9750 N   0  0  0  0  0  0  0  0  0  0  0  0
   46.9650   31.3100   34.1870 C   0  0  0  0  0  0  0  0  0  0  0  0
   47.0340   30.6320   33.1150 O   0  0  0  0  0  0  0  0  0  0  0  0
   47.9168   36.5496   42.5089 H   0  0  0  0  0  0  0  0  0  0  0  0
   50.4254   35.3220   42.0362 H   0  0  0  0  0  0  0  0  0  0  0  0
   49.8714   33.8951   42.2878 H   0  0  0  0  0  0  0  0  0  0  0  0
   48.7909   35.7101   39.7323 H   0  0  0  0  0  0  0  0  0  0  0  0
   46.4226   32.0642   44.5548 H   0  0  0  0  0  0  0  0  0  0  0  0
   48.3682   33.3030   43.5660 H   0  0  0  0  0  0  0  0  0  0  0  0
   43.7197   34.8936   42.9100 H   0  0  0  0  0  0  0  0  0  0  0  0
   49.6907   35.5213   38.3322 H   0  0  0  0  0  0  0  0  0  0  0  0
   48.9000   31.9997   33.8351 H   0  0  0  0  0  0  0  0  0  0  0  0
   48.9860   33.3754   35.8460 H   0  0  0  0  0  0  0  0  0  0  0  0
   45.0401   30.7453   34.7233 H   0  0  0  0  0  0  0  0  0  0  0  0
  1  6  1  0
  2  1  1  0
  3  2  1  0
  3  1  1  0
  5  4  2  0
  6  5  1  0
  7  6  2  0
  7  8  1  0
  8  9  2  0
  9  4  1  0
 10  3  1  0
 12 11  2  0
 12 10  1  0
 13 12  1  0
 14 12  1  0
 15 16  1  0
 16 17  2  0
 17 14  1  0
 18 17  1  0
 18 19  2  0
 20 18  1  0
 21 15  1  0
 21 20  1  0
 22 21  2  0
  1 23  1  6
  2 24  1  0
  2 25  1  0
  3 26  1  6
  4 27  1  0
  5 28  1  0
  8 29  1  0
 13 30  1  0
 15 31  1  0
 16 32  1  0
 20 33  1  0
M  ISO  8  23  13  24  13  25  13  26  13  27  14  28  14  29  14  30   3
M  ISO  3  31   9  32  14  33   9
M  END
>  <minimizedAffinity>  (1) 
-4.89674854

>  <minimizedRMSD>  (1) 
1.2698257

$$$$
