
     RDKit          3D

 46 49  0  0  1  0  0  0  0  0999 V2000
   49.1140   32.6170   37.7470 C   0  0  1  0  0  0  0  0  0  0  0  0
   48.4940   33.7420   38.7220 C   0  0  1  0  0  0  0  0  0  0  0  0
   48.0430   34.5770   37.7710 O   0  0  0  0  0  0  0  0  0  0  0  0
   47.1510   33.7150   37.0850 C   0  0  0  0  0  0  0  0  0  0  0  0
   48.0910   32.6050   36.6480 C   0  0  1  0  0  0  0  0  0  0  0  0
   50.2760   33.1990   37.2400 O   0  0  0  0  0  0  0  0  0  0  0  0
   47.4170   33.0890   39.3190 O   0  0  0  0  0  0  0  0  0  0  0  0
   47.6220   33.2730   41.6710 C   0  0  2  0  0  0  0  0  0  0  0  0
   46.0760   33.4010   41.6640 C   0  0  1  0  0  0  0  0  0  0  0  0
   45.7440   32.0830   41.7620 O   0  0  0  0  0  0  0  0  0  0  0  0
   46.5010   31.4670   40.7460 C   0  0  0  0  0  0  0  0  0  0  0  0
   47.7040   32.3860   40.4500 C   0  0  1  0  0  0  0  0  0  0  0  0
   44.7460   36.1280   43.9550 C   0  0  0  0  0  0  0  0  0  0  0  0
   45.1470   35.5490   42.7490 C   0  0  0  0  0  0  0  0  0  0  0  0
   45.6170   34.2540   42.7660 C   0  0  0  0  0  0  0  0  0  0  0  0
   45.6580   33.6150   43.9860 N   0  0  0  0  0  0  0  0  0  0  0  0
   45.2650   34.1960   45.1310 C   0  0  0  0  0  0  0  0  0  0  0  0
   44.8080   35.4610   45.1100 N   0  0  0  0  0  0  0  0  0  0  0  0
   48.0390   32.5130   42.7310 O   0  0  0  0  0  0  0  0  0  0  0  0
   48.6250   32.9160   35.4290 O   0  0  0  0  0  0  0  0  0  0  0  0
   47.4530   30.0560   33.7520 N   0  0  0  0  0  0  0  0  0  0  0  0
   47.8570   30.9880   34.6580 C   0  0  0  0  0  0  0  0  0  0  0  0
   48.3110   32.2640   34.2700 C   0  0  0  0  0  0  0  0  0  0  0  0
   48.3050   32.4680   32.9100 C   0  0  0  0  0  0  0  0  0  0  0  0
   48.7160   33.6140   32.6270 O   0  0  0  0  0  0  0  0  0  0  0  0
   47.9050   31.5400   32.0310 N   0  0  0  0  0  0  0  0  0  0  0  0
   47.4800   30.3410   32.4230 C   0  0  0  0  0  0  0  0  0  0  0  0
   47.1330   29.5620   31.5020 O   0  0  0  0  0  0  0  0  0  0  0  0
   49.3217   31.6295   38.1849 H   0  0  0  0  0  0  0  0  0  0  0  0
   49.1231   34.2153   39.4903 H   0  0  0  0  0  0  0  0  0  0  0  0
   46.3629   33.3364   37.7525 H   0  0  0  0  0  0  0  0  0  0  0  0
   46.6045   34.1949   36.2597 H   0  0  0  0  0  0  0  0  0  0  0  0
   47.6273   31.6161   36.5173 H   0  0  0  0  0  0  0  0  0  0  0  0
   50.8542   33.4886   37.9896 H   0  0  0  0  0  0  0  0  0  0  0  0
   48.1891   34.2149   41.7050 H   0  0  0  0  0  0  0  0  0  0  0  0
   45.6140   33.8927   40.7952 H   0  0  0  0  0  0  0  0  0  0  0  0
   46.8541   30.4817   41.0844 H   0  0  0  0  0  0  0  0  0  0  0  0
   45.8922   31.3187   39.8419 H   0  0  0  0  0  0  0  0  0  0  0  0
   48.6832   31.9107   40.2911 H   0  0  0  0  0  0  0  0  0  0  0  0
   44.3689   37.1614   43.9533 H   0  0  0  0  0  0  0  0  0  0  0  0
   45.0889   36.1140   41.8070 H   0  0  0  0  0  0  0  0  0  0  0  0
   45.3164   33.6414   46.0796 H   0  0  0  0  0  0  0  0  0  0  0  0
   47.7919   32.9633   43.5773 H   0  0  0  0  0  0  0  0  0  0  0  0
   47.1264   29.1336   34.0737 H   0  0  0  0  0  0  0  0  0  0  0  0
   47.8281   30.7366   35.7285 H   0  0  0  0  0  0  0  0  0  0  0  0
   47.9268   31.7599   31.0250 H   0  0  0  0  0  0  0  0  0  0  0  0
  1  2  1  0
  2  7  1  0
  3  2  1  0
  4  3  1  0
  5  4  1  0
  5  1  1  0
  6  1  1  0
  7 12  1  0
  8 19  1  0
  9  8  1  0
  9 10  1  0
  9 15  1  0
 11 10  1  0
 12 11  1  0
 12  8  1  0
 13 18  2  0
 14 15  2  0
 14 13  1  0
 15 16  1  0
 16 17  2  0
 18 17  1  0
 20  5  1  0
 21 22  1  0
 23 22  2  0
 23 20  1  0
 24 23  1  0
 25 24  2  0
 26 27  1  0
 26 24  1  0
 27 21  1  0
 28 27  2  0
  1 29  1  1
  2 30  1  1
  4 31  1  0
  4 32  1  0
  5 33  1  6
  6 34  1  0
  8 35  1  6
  9 36  1  6
 11 37  1  0
 11 38  1  0
 12 39  1  6
 13 40  1  0
 14 41  1  0
 17 42  1  0
 19 43  1  0
 21 44  1  0
 22 45  1  0
 26 46  1  0
M  ISO  8  29  13  30  13  31  13  32  13  33  13  34   3  35  13  36  13
M  ISO  8  37  13  38  13  39  13  40  14  41  14  42  14  43   3  44   9
M  ISO  2  45  14  46   9
M  END
>  <minimizedAffinity>  (1) 
-6.11761951

>  <minimizedRMSD>  (1) 
2.16061854

$$$$
