
     RDKit          3D

 36 37  0  0  0  0  0  0  0  0999 V2000
   43.7562   35.7258   41.6895 C   0  0  0  0  0  0  0  0  0  0  0  0
   43.4397   35.6581   43.1189 N   0  0  0  0  0  0  0  0  0  0  0  0
   44.8210   35.8437   44.1137 S   0  0  0  0  0  0  0  0  0  0  0  0
   46.0655   35.3572   43.4382 O   0  0  0  0  0  0  0  0  0  0  0  0
   44.9631   37.3282   44.3798 O   0  0  0  0  0  0  0  0  0  0  0  0
   44.5904   35.0831   45.5725 O   0  0  0  0  0  0  0  0  0  0  0  0
   45.4213   33.9841   45.7370 C   0  0  0  0  0  0  0  0  0  0  0  0
   43.4027   34.0987   40.9987 S   0  0  0  0  0  0  0  0  0  0  0  0
   40.8829   33.0557   41.3625 C   0  0  0  0  0  0  0  0  0  0  0  0
   41.6437   33.9653   40.6753 C   0  0  0  0  0  0  0  0  0  0  0  0
   41.0509   34.7795   39.7334 C   0  0  0  0  0  0  0  0  0  0  0  0
   39.7231   34.6390   39.5293 N   0  0  0  0  0  0  0  0  0  0  0  0
   38.9875   33.7476   40.2054 C   0  0  0  0  0  0  0  0  0  0  0  0
   39.5467   32.9498   41.1225 N   0  0  0  0  0  0  0  0  0  0  0  0
   37.6323   33.5553   40.0443 O   0  0  0  0  0  0  0  0  0  0  0  0
   43.1696   36.4998   41.1767 H   0  0  0  0  0  0  0  0  0  0  0  0
   44.8199   35.9527   41.5907 H   0  0  0  0  0  0  0  0  0  0  0  0
   42.7933   36.4383   43.3328 H   0  0  0  0  0  0  0  0  0  0  0  0
   46.0814   34.4748   42.9682 H   0  0  0  0  0  0  0  0  0  0  0  0
   44.2371   37.9984   44.4356 H   0  0  0  0  0  0  0  0  0  0  0  0
   46.4489   34.2192   45.3608 H   0  0  0  0  0  0  0  0  0  0  0  0
   45.0367   33.1662   45.1086 H   0  0  0  0  0  0  0  0  0  0  0  0
   45.4078   33.6575   46.7804 H   0  0  0  0  0  0  0  0  0  0  0  0
   41.3660   32.4362   42.0871 H   0  0  0  0  0  0  0  0  0  0  0  0
   41.6209   35.5120   39.1691 H   0  0  0  0  0  0  0  0  0  0  0  0
   34.6673   34.2528   36.7295 H   0  0  0  0  0  0  0  0  0  0  0  0
   35.2347   34.7072   37.4856 N   0  0  0  0  0  0  0  0  0  0  0  0
   35.9724   33.8100   38.1603 C   0  0  0  0  0  0  0  0  0  0  0  0
   36.7899   34.2066   39.1964 C   0  0  0  0  0  0  0  0  0  0  0  0
   36.7959   35.5781   39.4877 C   0  0  0  0  0  0  0  0  0  0  0  0
   37.4659   36.1692   40.3918 O   0  0  0  0  0  0  0  0  0  0  0  0
   36.0316   36.4607   38.7788 N   0  0  0  0  0  0  0  0  0  0  0  0
   35.2532   36.0166   37.7785 C   0  0  0  0  0  0  0  0  0  0  0  0
   34.5207   36.7591   37.0778 O   0  0  0  0  0  0  0  0  0  0  0  0
   36.0308   32.7423   38.0074 H   0  0  0  0  0  0  0  0  0  0  0  0
   35.9964   37.4770   38.9482 H   0  0  0  0  0  0  0  0  0  0  0  0
  1  2  1  0
  2  3  1  0
  3  5  1  0
  3  6  1  0
  4  3  1  0
  6  7  1  0
  8  1  1  0
 10  8  1  0
 10  9  2  0
 11 10  1  0
 12 11  2  0
 12 13  1  0
 13 14  2  0
 14  9  1  0
 15 13  1  0
  1 16  1  0
  1 17  1  0
  2 18  1  0
  4 19  1  0
  5 20  1  0
  7 21  1  0
  7 22  1  0
  7 23  1  0
  9 24  1  0
 11 25  1  0
 26 27  1  0
 27 28  1  0
 28 29  2  0
 29 30  1  0
 30 31  2  0
 30 32  1  0
 32 33  1  0
 33 34  2  0
 33 27  1  0
 28 35  1  0
 32 36  1  0
 15 29  1  0
M  ISO  8  16   8  17   8  18   5  19   3  20   3  21   8  22   8  23   8
M  ISO  3  24  14  25  14  26   9
M  END
>  <DihAtoms>  (1) 
12,14,28,27

>  <DihDeg>  (1) 
-0.0005492093569796217

$$$$
