
     RDKit          3D

 41 43  0  0  0  0  0  0  0  0999 V2000
   42.2095   34.1700   40.1931 C   0  0  0  0  0  0  0  0  0  0  0  0
   42.2838   35.1424   41.1933 C   0  0  0  0  0  0  0  0  0  0  0  0
   41.2318   36.0183   41.3454 C   0  0  0  0  0  0  0  0  0  0  0  0
   40.1483   35.9324   40.5366 C   0  0  0  0  0  0  0  0  0  0  0  0
   40.0368   34.9917   39.5427 C   0  0  0  0  0  0  0  0  0  0  0  0
   41.1147   34.1262   39.4179 C   0  0  0  0  0  0  0  0  0  0  0  0
   44.6113   31.2899   40.5959 C   0  0  0  0  0  0  0  0  0  0  0  0
   43.4817   32.1012   40.7720 C   0  0  0  0  0  0  0  0  0  0  0  0
   43.3396   33.2741   40.0736 C   0  0  0  0  0  0  0  0  0  0  0  0
   44.3398   33.6018   39.2136 N   0  0  0  0  0  0  0  0  0  0  0  0
   45.4359   32.8139   39.0432 C   0  0  0  0  0  0  0  0  0  0  0  0
   45.5662   31.6729   39.7277 N   0  0  0  0  0  0  0  0  0  0  0  0
   43.4967   35.2084   42.0691 C   0  0  0  0  0  0  0  0  0  0  0  0
   43.2283   35.6694   43.3986 N   0  0  0  0  0  0  0  0  0  0  0  0
   44.6469   35.8512   44.3475 S   0  0  0  0  0  0  0  0  0  0  0  0
   45.8226   35.2049   43.6564 O   0  0  0  0  0  0  0  0  0  0  0  0
   44.4722   35.3122   45.7103 O   0  0  0  0  0  0  0  0  0  0  0  0
   44.9470   37.5051   44.4288 O   0  0  0  0  0  0  0  0  0  0  0  0
   41.3066   36.7627   42.1231 H   0  0  0  0  0  0  0  0  0  0  0  0
   39.3480   36.6491   40.7018 H   0  0  0  0  0  0  0  0  0  0  0  0
   39.1799   34.9301   38.9092 H   0  0  0  0  0  0  0  0  0  0  0  0
   41.0856   33.3599   38.6495 H   0  0  0  0  0  0  0  0  0  0  0  0
   44.6099   30.4029   41.1938 H   0  0  0  0  0  0  0  0  0  0  0  0
   42.6720   31.8622   41.4505 H   0  0  0  0  0  0  0  0  0  0  0  0
   46.1971   33.1279   38.3453 H   0  0  0  0  0  0  0  0  0  0  0  0
   44.3016   35.8058   41.6151 H   0  0  0  0  0  0  0  0  0  0  0  0
   43.8816   34.1651   42.1399 H   0  0  0  0  0  0  0  0  0  0  0  0
   42.5247   35.0650   43.8782 H   0  0  0  0  0  0  0  0  0  0  0  0
   45.6836   34.4474   43.0547 H   0  0  0  0  0  0  0  0  0  0  0  0
   45.1239   34.7938   46.2635 H   0  0  0  0  0  0  0  0  0  0  0  0
   42.2494   40.6646   46.2744 H   0  0  0  0  0  0  0  0  0  0  0  0
   42.9329   39.8628   46.4201 N   0  0  0  0  0  0  0  0  0  0  0  0
   43.4529   39.2552   45.3299 C   0  0  0  0  0  0  0  0  0  0  0  0
   44.3551   38.1969   45.4785 C   0  0  0  0  0  0  0  0  0  0  0  0
   44.6325   37.8688   46.7889 C   0  0  0  0  0  0  0  0  0  0  0  0
   45.4405   36.9210   46.9674 O   0  0  0  0  0  0  0  0  0  0  0  0
   44.1372   38.4474   47.8983 N   0  0  0  0  0  0  0  0  0  0  0  0
   43.2691   39.4657   47.6619 C   0  0  0  0  0  0  0  0  0  0  0  0
   42.7599   40.0609   48.6595 O   0  0  0  0  0  0  0  0  0  0  0  0
   43.2049   39.5481   44.3183 H   0  0  0  0  0  0  0  0  0  0  0  0
   44.4164   38.1180   48.8415 H   0  0  0  0  0  0  0  0  0  0  0  0
  1  2  1  0
  2  3  2  0
  2 13  1  0
  4  3  1  0
  5  4  2  0
  6  5  1  0
  6  1  2  0
  7  8  2  0
  9  1  1  0
  9  8  1  0
 10  9  2  0
 11 10  1  0
 11 12  2  0
 12  7  1  0
 13 14  1  0
 14 15  1  0
 15 18  1  0
 15 17  1  0
 16 15  1  0
  3 19  1  0
  4 20  1  0
  5 21  1  0
  6 22  1  0
  7 23  1  0
  8 24  1  0
 11 25  1  0
 13 26  1  0
 13 27  1  0
 14 28  1  0
 16 29  1  0
 17 30  1  0
 31 32  1  0
 32 33  1  0
 33 34  2  0
 34 35  1  0
 35 36  2  0
 35 37  1  0
 37 38  1  0
 38 39  2  0
 38 32  1  0
 33 40  1  0
 37 41  1  0
 18 34  1  0
M  ISO  8  19  14  20  14  21  14  22  14  23  14  24  14  25  14  26   8
M  ISO  5  27   8  28   5  29   3  30   3  31   9
M  END
>  <DihAtoms>  (1) 
14,17,33,32

>  <DihDeg>  (1) 
-90.00024052484723

$$$$
