
     RDKit          3D

 33 35  0  0  0  0  0  0  0  0999 V2000
   43.9496   34.6685   41.4527 C   0  0  0  0  0  0  0  0  0  0  0  0
   42.7377   35.3014   41.1292 C   0  0  0  0  0  0  0  0  0  0  0  0
   42.1675   35.0221   39.8669 C   0  0  0  0  0  0  0  0  0  0  0  0
   42.8354   34.1503   39.0387 N   0  0  0  0  0  0  0  0  0  0  0  0
   44.0033   33.5733   39.4138 C   0  0  0  0  0  0  0  0  0  0  0  0
   44.5587   33.8210   40.5966 N   0  0  0  0  0  0  0  0  0  0  0  0
   44.5327   34.9716   42.7875 C   0  0  0  0  0  0  0  0  0  0  0  0
   46.0379   35.2650   42.7216 C   0  0  0  0  0  0  0  0  0  0  0  0
   45.0424   36.2971   43.1113 C   0  0  0  0  0  0  0  0  0  0  0  0
   40.8942   35.6528   39.4714 C   0  0  0  0  0  0  0  0  0  0  0  0
   40.2284   36.3469   40.6344 C   0  0  0  0  0  0  0  0  0  0  0  0
   42.2901   35.9696   41.8494 H   0  0  0  0  0  0  0  0  0  0  0  0
   44.4410   32.9052   38.6852 H   0  0  0  0  0  0  0  0  0  0  0  0
   44.1545   34.3771   43.6430 H   0  0  0  0  0  0  0  0  0  0  0  0
   46.6764   34.8249   43.5337 H   0  0  0  0  0  0  0  0  0  0  0  0
   46.5281   35.3172   41.7372 H   0  0  0  0  0  0  0  0  0  0  0  0
   44.9921   36.6652   44.1657 H   0  0  0  0  0  0  0  0  0  0  0  0
   44.9069   37.1238   42.3826 H   0  0  0  0  0  0  0  0  0  0  0  0
   40.2395   34.9157   39.0076 H   0  0  0  0  0  0  0  0  0  0  0  0
   41.1290   36.4838   38.7436 H   0  0  0  0  0  0  0  0  0  0  0  0
   40.8791   37.1531   41.0445 H   0  0  0  0  0  0  0  0  0  0  0  0
   39.9547   35.5940   41.3846 H   0  0  0  0  0  0  0  0  0  0  0  0
   38.9754   36.9223   40.1270 N   0  0  0  0  0  0  0  0  0  0  0  0
   38.7748   37.0336   38.8065 C   0  0  0  0  0  0  0  0  0  0  0  0
   37.5888   37.5778   38.3542 C   0  0  0  0  0  0  0  0  0  0  0  0
   37.3507   37.7020   37.3031 H   0  0  0  0  0  0  0  0  0  0  0  0
   36.6008   38.0121   39.2157 C   0  0  0  0  0  0  0  0  0  0  0  0
   35.5051   38.5140   38.8608 O   0  0  0  0  0  0  0  0  0  0  0  0
   36.8441   37.8815   40.5419 N   0  0  0  0  0  0  0  0  0  0  0  0
   38.0085   37.3475   40.9578 C   0  0  0  0  0  0  0  0  0  0  0  0
   38.2618   37.2136   42.1950 O   0  0  0  0  0  0  0  0  0  0  0  0
   39.5096   36.7121   38.0707 H   0  0  0  0  0  0  0  0  0  0  0  0
   36.1666   38.1767   41.2929 H   0  0  0  0  0  0  0  0  0  0  0  0
  1  7  1  0
  2  1  2  0
  3  2  1  0
  4  5  1  0
  4  3  2  0
  5  6  2  0
  6  1  1  0
  7  9  1  0
  8  7  1  0
  8  9  1  0
 10  3  1  0
 10 11  1  0
  2 12  1  0
  5 13  1  0
  7 14  1  0
  8 15  1  0
  8 16  1  0
  9 17  1  0
  9 18  1  0
 10 19  1  0
 10 20  1  0
 11 21  1  0
 11 22  1  0
 23 24  1  0
 24 25  2  0
 25 26  1  0
 25 27  1  0
 27 28  2  0
 27 29  1  0
 29 30  1  0
 30 31  2  0
 30 23  1  0
 24 32  1  0
 29 33  1  0
 11 23  1  0
M  ISO  8  12  14  13  14  14  13  15  13  16  13  17  13  18  13  19   8
M  ISO  4  20   8  21   8  22   8  26  16
M  END
>  <DihAtoms>  (1) 
9,10,22,23

>  <DihDeg>  (1) 
-90.00324125437231

$$$$
