
     RDKit          3D

 40 42  0  0  0  0  0  0  0  0999 V2000
   44.5120   35.3330   45.3470 C   0  0  0  0  0  0  0  0  0  0  0  0
   44.8440   35.5420   43.9920 C   0  0  0  0  0  0  0  0  0  0  0  0
   45.8870   34.8000   43.4420 C   0  0  0  0  0  0  0  0  0  0  0  0
   46.5110   33.9250   44.2480 N   0  0  0  0  0  0  0  0  0  0  0  0
   46.1930   33.7360   45.5170 C   0  0  0  0  0  0  0  0  0  0  0  0
   45.1840   34.4500   46.0660 N   0  0  0  0  0  0  0  0  0  0  0  0
   46.3150   34.9500   42.0350 C   0  0  0  0  0  0  0  0  0  0  0  0
   45.9720   33.7530   41.2050 C   0  0  0  0  0  0  0  0  0  0  0  0
   46.5910   33.7220   39.9200 N   0  0  0  0  0  0  0  0  0  0  0  0
   47.7760   34.3260   39.7160 C   0  0  0  0  0  0  0  0  0  0  0  0
   48.4670   34.3630   38.5270 C   0  0  0  0  0  0  0  0  0  0  0  0
   47.8330   33.7020   37.4920 C   0  0  0  0  0  0  0  0  0  0  0  0
   48.3890   33.6770   36.3490 O   0  0  0  0  0  0  0  0  0  0  0  0
   46.6430   33.0760   37.6300 N   0  0  0  0  0  0  0  0  0  0  0  0
   46.0790   33.1200   38.8510 C   0  0  0  0  0  0  0  0  0  0  0  0
   44.9730   32.5290   38.9480 O   0  0  0  0  0  0  0  0  0  0  0  0
   46.8330   32.8410   46.3440 O   0  0  0  0  0  0  0  0  0  0  0  0
   45.8540   30.6020   46.8360 C   0  0  0  0  0  0  0  0  0  0  0  0
   46.2220   31.8910   47.1510 C   0  0  0  0  0  0  0  0  0  0  0  0
   45.9640   32.3340   48.4370 C   0  0  0  0  0  0  0  0  0  0  0  0
   45.3570   31.5190   49.3800 C   0  0  0  0  0  0  0  0  0  0  0  0
   44.9990   30.2400   49.0470 C   0  0  0  0  0  0  0  0  0  0  0  0
   45.2540   29.7860   47.7570 C   0  0  0  0  0  0  0  0  0  0  0  0
   46.2170   30.1320   45.2000 S   0  0  0  0  0  0  0  0  0  0  0  0
   45.1660   30.6330   44.2380 O   0  0  0  0  0  0  0  0  0  0  0  0
   46.1230   28.6130   45.1410 O   0  0  0  0  0  0  0  0  0  0  0  0
   43.6927   35.9056   45.8062 H   0  0  0  0  0  0  0  0  0  0  0  0
   44.2922   36.2738   43.3838 H   0  0  0  0  0  0  0  0  0  0  0  0
   45.8169   35.8320   41.6061 H   0  0  0  0  0  0  0  0  0  0  0  0
   47.4092   35.0621   42.0268 H   0  0  0  0  0  0  0  0  0  0  0  0
   46.2820   32.8532   41.7566 H   0  0  0  0  0  0  0  0  0  0  0  0
   44.8875   33.7987   41.0267 H   0  0  0  0  0  0  0  0  0  0  0  0
   48.2331   34.8358   40.5769 H   0  0  0  0  0  0  0  0  0  0  0  0
   49.4352   34.8719   38.4107 H   0  0  0  0  0  0  0  0  0  0  0  0
   46.1914   32.5906   36.8417 H   0  0  0  0  0  0  0  0  0  0  0  0
   46.2479   33.3590   48.7178 H   0  0  0  0  0  0  0  0  0  0  0  0
   45.1633   31.8991   50.3939 H   0  0  0  0  0  0  0  0  0  0  0  0
   44.5181   29.5830   49.7866 H   0  0  0  0  0  0  0  0  0  0  0  0
   44.9708   28.7614   47.4743 H   0  0  0  0  0  0  0  0  0  0  0  0
   47.4461   30.6352   44.8638 H   0  0  0  0  0  0  0  0  0  0  0  0
  1  6  2  0
  2  1  1  0
  3  2  2  0
  3  4  1  0
  4  5  2  0
  5  6  1  0
  5 17  1  0
  7  3  1  0
  8  7  1  0
  9  8  1  0
 10  9  1  0
 11 10  2  0
 12 14  1  0
 12 11  1  0
 13 12  2  0
 14 15  1  0
 15 16  2  0
 15  9  1  0
 17 19  1  0
 18 19  2  0
 18 23  1  0
 19 20  1  0
 20 21  2  0
 22 21  1  0
 23 22  2  0
 24 18  1  0
 25 24  2  0
 26 24  2  0
  1 27  1  0
  2 28  1  0
  7 29  1  0
  7 30  1  0
  8 31  1  0
  8 32  1  0
 10 33  1  0
 11 34  1  0
 14 35  1  0
 20 36  1  0
 21 37  1  0
 22 38  1  0
 23 39  1  0
 24 40  1  0
M  ISO  8  27  14  28  14  29   8  30   8  31   8  32   8  33  14  34  14
M  ISO  6  35   9  36  14  37  14  38  14  39  14  40  11
M  END
>  <minimizedAffinity>  (1) 
-5.86191702

>  <minimizedRMSD>  (1) 
2.5799818

$$$$
