
     RDKit          3D

 49 52  0  0  0  0  0  0  0  0999 V2000
   45.1189   35.5439   43.2487 C   0  0  0  0  0  0  0  0  0  0  0  0
   45.5085   34.2324   43.3110 C   0  0  0  0  0  0  0  0  0  0  0  0
   45.4606   33.5300   44.4868 C   0  0  0  0  0  0  0  0  0  0  0  0
   44.9948   34.2352   45.5895 N   0  0  0  0  0  0  0  0  0  0  0  0
   44.6192   35.5003   45.5307 C   0  0  0  0  0  0  0  0  0  0  0  0
   44.6863   36.1480   44.3484 N   0  0  0  0  0  0  0  0  0  0  0  0
   45.8203   32.1875   44.7284 C   0  0  0  0  0  0  0  0  0  0  0  0
   45.4859   31.1387   43.8633 C   0  0  0  0  0  0  0  0  0  0  0  0
   45.7636   29.8215   44.0944 C   0  0  0  0  0  0  0  0  0  0  0  0
   46.4254   29.4668   45.2663 C   0  0  0  0  0  0  0  0  0  0  0  0
   46.7718   30.5311   46.1521 C   0  0  0  0  0  0  0  0  0  0  0  0
   47.4187   30.1725   47.2995 C   0  0  0  0  0  0  0  0  0  0  0  0
   47.7939   31.1470   48.2157 C   0  0  0  0  0  0  0  0  0  0  0  0
   47.4970   32.4939   47.9384 C   0  0  0  0  0  0  0  0  0  0  0  0
   46.8287   32.7884   46.7374 C   0  0  0  0  0  0  0  0  0  0  0  0
   46.4707   31.8130   45.8627 C   0  0  0  0  0  0  0  0  0  0  0  0
   45.9505   33.6391   42.1461 O   0  0  0  0  0  0  0  0  0  0  0  0
   48.1506   32.3707   41.5420 O   0  0  0  0  0  0  0  0  0  0  0  0
   47.5172   33.7276   41.5570 P   0  0  1  0  0  0  0  0  0  0  0  0
   47.5820   34.2836   39.9653 O   0  0  0  0  0  0  0  0  0  0  0  0
   46.8024   33.3878   39.2096 C   0  0  0  0  0  0  0  0  0  0  0  0
   48.4013   34.7781   42.5356 O   0  0  0  0  0  0  0  0  0  0  0  0
   49.6143   35.3683   42.2388 C   0  0  0  0  0  0  0  0  0  0  0  0
   49.3067   36.4212   41.6269 O   0  0  0  0  0  0  0  0  0  0  0  0
   50.7207   34.5583   42.7385 N   0  0  0  0  0  0  0  0  0  0  0  0
   45.1531   36.1024   42.3045 H   0  0  0  0  0  0  0  0  0  0  0  0
   44.2731   35.9945   46.4184 H   0  0  0  0  0  0  0  0  0  0  0  0
   44.9709   31.3637   42.9378 H   0  0  0  0  0  0  0  0  0  0  0  0
   45.5175   29.0093   43.4392 H   0  0  0  0  0  0  0  0  0  0  0  0
   46.6525   28.4477   45.4770 H   0  0  0  0  0  0  0  0  0  0  0  0
   47.6490   29.1451   47.5176 H   0  0  0  0  0  0  0  0  0  0  0  0
   48.3004   30.8207   49.1115 H   0  0  0  0  0  0  0  0  0  0  0  0
   47.8327   33.1435   48.7029 H   0  0  0  0  0  0  0  0  0  0  0  0
   46.7343   33.8515   46.7127 H   0  0  0  0  0  0  0  0  0  0  0  0
   45.7711   33.4986   39.6643 H   0  0  0  0  0  0  0  0  0  0  0  0
   47.1223   32.3718   39.4326 H   0  0  0  0  0  0  0  0  0  0  0  0
   51.4609   35.3094   42.6051 H   0  0  0  0  0  0  0  0  0  0  0  0
   51.4013   35.3687   42.5725 H   0  0  0  0  0  0  0  0  0  0  0  0
   46.8064   33.7440   37.8098 N   0  0  0  0  0  0  0  0  0  0  0  0
   47.9538   34.3655   37.3996 C   0  0  0  0  0  0  0  0  0  0  0  0
   48.1339   34.7830   36.0557 C   0  0  0  0  0  0  0  0  0  0  0  0
   49.0119   35.2715   35.6811 H   0  0  0  0  0  0  0  0  0  0  0  0
   47.0405   34.4800   35.2663 C   0  0  0  0  0  0  0  0  0  0  0  0
   47.2010   34.8438   34.0666 O   0  0  0  0  0  0  0  0  0  0  0  0
   45.8912   33.8769   35.5940 N   0  0  0  0  0  0  0  0  0  0  0  0
   45.8717   33.5493   36.8824 C   0  0  0  0  0  0  0  0  0  0  0  0
   44.8599   32.9629   37.4001 O   0  0  0  0  0  0  0  0  0  0  0  0
   48.7887   34.5739   38.0790 H   0  0  0  0  0  0  0  0  0  0  0  0
   45.1193   33.6904   34.9299 H   0  0  0  0  0  0  0  0  0  0  0  0
  1  2  2  0
  1  6  1  0
  2  3  1  0
  3  7  1  0
  3  4  2  0
  5  4  1  0
  6  5  2  0
  7 16  2  0
  8  9  2  0
  8  7  1  0
  9 10  1  0
 10 11  2  0
 11 12  1  0
 12 13  2  0
 14 13  1  0
 15 14  2  0
 16 11  1  0
 16 15  1  0
 17  2  1  0
 19 18  2  0
 19 17  1  1
 19 22  1  0
 20 19  1  0
 21 20  1  0
 23 22  1  0
 23 25  1  0
 24 23  2  0
  1 26  1  0
  5 27  1  0
  8 28  1  0
  9 29  1  0
 10 30  1  0
 12 31  1  0
 13 32  1  0
 14 33  1  0
 15 34  1  0
 21 35  1  0
 21 36  1  0
 25 37  1  0
 25 38  1  0
 39 40  1  0
 40 41  2  0
 41 42  1  0
 41 43  1  0
 43 44  2  0
 43 45  1  0
 45 46  1  0
 46 47  2  0
 46 39  1  0
 40 48  1  0
 45 49  1  0
 21 39  1  0
M  ISO  8  26  14  27  14  28  14  29  14  30  14  31  14  32  14  33  14
M  ISO  4  34  14  35   8  36   8  42  16
M  END
>  <DihAtoms>  (1) 
19,20,38,39

>  <DihDeg>  (1) 
89.85133725361668

$$$$
