
     RDKit          3D

 40 42  0  0  1  0  0  0  0  0999 V2000
   49.6600   33.6600   41.4180 N   0  0  0  0  0  0  0  0  0  0  0  0
   50.6930   33.0640   42.2320 C   0  0  0  0  0  0  0  0  0  0  0  0
   51.2160   31.7580   41.7140 C   0  0  0  0  0  0  0  0  0  0  0  0
   50.1090   30.7270   41.7550 C   0  0  0  0  0  0  0  0  0  0  0  0
   48.7800   31.3570   41.4560 C   0  0  0  0  0  0  0  0  0  0  0  0
   48.9930   32.6490   40.6760 C   0  0  2  0  0  0  0  0  0  0  0  0
   47.4260   34.8100   41.9780 C   0  0  1  0  0  0  0  0  0  0  0  0
   48.5020   35.8140   41.8120 C   0  0  0  0  0  0  0  0  0  0  0  0
   48.8400   34.4460   42.2580 C   0  0  2  0  0  0  0  0  0  0  0  0
   45.5720   36.0340   43.1340 C   0  0  0  0  0  0  0  0  0  0  0  0
   46.4590   34.9460   43.0850 C   0  0  0  0  0  0  0  0  0  0  0  0
   46.3960   33.9890   44.1080 C   0  0  0  0  0  0  0  0  0  0  0  0
   45.4830   34.1620   45.0910 N   0  0  0  0  0  0  0  0  0  0  0  0
   44.6380   35.2160   45.1210 C   0  0  0  0  0  0  0  0  0  0  0  0
   44.6760   36.1570   44.1460 N   0  0  0  0  0  0  0  0  0  0  0  0
   49.5900   32.3310   39.4110 N   0  0  0  0  0  0  0  0  0  0  0  0
   48.5380   32.8980   38.1530 S   0  0  0  0  0  0  0  0  0  0  0  0
   47.0360   31.9970   38.0470 C   0  0  0  0  0  0  0  0  0  0  0  0
   48.2440   34.3510   38.4570 O   0  0  0  0  0  0  0  0  0  0  0  0
   49.2670   32.8470   36.8460 O   0  0  0  0  0  0  0  0  0  0  0  0
   51.5335   33.7710   42.2926 H   0  0  0  0  0  0  0  0  0  0  0  0
   50.2375   32.8528   43.2107 H   0  0  0  0  0  0  0  0  0  0  0  0
   52.0546   31.4225   42.3419 H   0  0  0  0  0  0  0  0  0  0  0  0
   51.5650   31.8844   40.6785 H   0  0  0  0  0  0  0  0  0  0  0  0
   50.3147   29.9475   41.0066 H   0  0  0  0  0  0  0  0  0  0  0  0
   50.0722   30.2903   42.7639 H   0  0  0  0  0  0  0  0  0  0  0  0
   48.1720   30.6632   40.8568 H   0  0  0  0  0  0  0  0  0  0  0  0
   48.2600   31.5802   42.3993 H   0  0  0  0  0  0  0  0  0  0  0  0
   48.0175   33.1166   40.4768 H   0  0  0  0  0  0  0  0  0  0  0  0
   46.6314   34.4019   41.3360 H   0  0  0  0  0  0  0  0  0  0  0  0
   48.7891   36.1498   40.8046 H   0  0  0  0  0  0  0  0  0  0  0  0
   48.6866   36.8254   42.2031 H   0  0  0  0  0  0  0  0  0  0  0  0
   49.3167   33.9576   43.1207 H   0  0  0  0  0  0  0  0  0  0  0  0
   45.6040   36.7964   42.3417 H   0  0  0  0  0  0  0  0  0  0  0  0
   47.0712   33.1206   44.1110 H   0  0  0  0  0  0  0  0  0  0  0  0
   43.9135   35.3112   45.9432 H   0  0  0  0  0  0  0  0  0  0  0  0
   50.5070   32.7934   39.3328 H   0  0  0  0  0  0  0  0  0  0  0  0
   46.6684   31.7765   39.0600 H   0  0  0  0  0  0  0  0  0  0  0  0
   46.2870   32.5950   37.5073 H   0  0  0  0  0  0  0  0  0  0  0  0
   47.2110   31.0546   37.5073 H   0  0  0  0  0  0  0  0  0  0  0  0
  1  2  1  0
  1  9  1  0
  3  4  1  0
  3  2  1  0
  5  4  1  0
  6  1  1  0
  6  5  1  0
  7  9  1  0
  7 11  1  0
  8  7  1  0
  8  9  1  0
 10 15  2  0
 11 10  1  0
 11 12  2  0
 12 13  1  0
 13 14  2  0
 15 14  1  0
 16  6  1  0
 17 19  2  0
 17 16  1  0
 18 17  1  0
 20 17  2  0
  2 21  1  0
  2 22  1  0
  3 23  1  0
  3 24  1  0
  4 25  1  0
  4 26  1  0
  5 27  1  0
  5 28  1  0
  6 29  1  6
  7 30  1  6
  8 31  1  0
  8 32  1  0
  9 33  1  1
 10 34  1  0
 12 35  1  0
 14 36  1  0
 16 37  1  0
 18 38  1  0
 18 39  1  0
 18 40  1  0
M  ISO  8  21  13  22  13  23  13  24  13  25  13  26  13  27  13  28  13
M  ISO  8  29  13  30  13  31  13  32  13  33  13  34  14  35  14  36  14
M  ISO  4  37   5  38   8  39   8  40   8
M  END
>  <minimizedAffinity>  (1) 
-4.96987391

>  <minimizedRMSD>  (1) 
1.4431808

$$$$
