
     RDKit          3D

 25 26  0  0  1  0  0  0  0  0999 V2000
   45.7430   32.5950   44.7790 C   0  0  1  0  0  0  0  0  0  0  0  0
   47.1290   32.1130   45.0840 C   0  0  0  0  0  0  0  0  0  0  0  0
   46.0880   32.3740   46.1880 C   0  0  2  0  0  0  0  0  0  0  0  0
   44.6380   36.1280   44.5500 C   0  0  0  0  0  0  0  0  0  0  0  0
   45.1580   36.4980   43.2610 C   0  0  0  0  0  0  0  0  0  0  0  0
   45.8820   35.5150   42.5140 C   0  0  0  0  0  0  0  0  0  0  0  0
   46.0490   34.2950   43.0350 N   0  0  0  0  0  0  0  0  0  0  0  0
   45.5390   33.9800   44.2690 C   0  0  0  0  0  0  0  0  0  0  0  0
   44.8440   34.8930   45.0080 N   0  0  0  0  0  0  0  0  0  0  0  0
   45.6410   31.2270   46.9070 N   0  0  0  0  0  0  0  0  0  0  0  0
   46.0270   31.1570   48.5570 S   0  0  0  0  0  0  0  0  0  0  0  0
   47.6800   30.6990   48.9020 C   0  0  0  0  0  0  0  0  0  0  0  0
   45.7280   32.4530   49.2890 O   0  0  0  0  0  0  0  0  0  0  0  0
   45.1240   30.1160   49.1760 O   0  0  0  0  0  0  0  0  0  0  0  0
   44.9331   32.2329   44.1287 H   0  0  0  0  0  0  0  0  0  0  0  0
   47.4279   31.0845   44.8333 H   0  0  0  0  0  0  0  0  0  0  0  0
   48.1513   32.4544   44.8643 H   0  0  0  0  0  0  0  0  0  0  0  0
   45.9906   33.0036   47.0847 H   0  0  0  0  0  0  0  0  0  0  0  0
   44.0758   36.8570   45.1521 H   0  0  0  0  0  0  0  0  0  0  0  0
   45.0032   37.5104   42.8597 H   0  0  0  0  0  0  0  0  0  0  0  0
   46.2955   35.7599   41.5245 H   0  0  0  0  0  0  0  0  0  0  0  0
   44.6149   31.1892   46.8256 H   0  0  0  0  0  0  0  0  0  0  0  0
   47.8293   30.6576   49.9910 H   0  0  0  0  0  0  0  0  0  0  0  0
   47.8851   29.7102   48.4659 H   0  0  0  0  0  0  0  0  0  0  0  0
   48.3648   31.4413   48.4659 H   0  0  0  0  0  0  0  0  0  0  0  0
  1  2  1  0
  1  3  1  0
  2  3  1  0
  3 10  1  0
  4  9  2  0
  5  4  1  0
  6  7  1  0
  6  5  2  0
  7  8  2  0
  8  1  1  0
  8  9  1  0
 10 11  1  0
 11 12  1  0
 11 14  2  0
 11 13  2  0
  1 15  1  6
  2 16  1  0
  2 17  1  0
  3 18  1  1
  4 19  1  0
  5 20  1  0
  6 21  1  0
 10 22  1  0
 12 23  1  0
 12 24  1  0
 12 25  1  0
M  ISO  8  15  13  16  13  17  13  18  13  19  14  20  14  21  14  22   5
M  ISO  3  23   8  24   8  25   8
M  END
>  <minimizedAffinity>  (1) 
-4.09370184

>  <minimizedRMSD>  (1) 
1.82063746

$$$$
