
     RDKit          3D

 36 38  0  0  0  0  0  0  0  0999 V2000
   45.3630   33.4770   44.2680 C   0  0  0  0  0  0  0  0  0  0  0  0
   46.4090   33.8820   43.3030 C   0  0  0  0  0  0  0  0  0  0  0  0
   46.6190   35.0830   42.6810 C   0  0  0  0  0  0  0  0  0  0  0  0
   47.7190   34.9460   41.8820 C   0  0  0  0  0  0  0  0  0  0  0  0
   48.1740   33.6930   42.0090 N   0  0  0  0  0  0  0  0  0  0  0  0
   47.3620   33.0650   42.8780 N   0  0  0  0  0  0  0  0  0  0  0  0
   47.2460   32.6400   39.3410 Br  0  0  0  0  0  0  0  0  0  0  0  0
   48.9520   32.4440   40.1950 C   0  0  0  0  0  0  0  0  0  0  0  0
   49.2640   32.9800   41.4380 C   0  0  0  0  0  0  0  0  0  0  0  0
   50.5200   32.7890   41.9790 C   0  0  0  0  0  0  0  0  0  0  0  0
   51.4650   32.0610   41.2740 C   0  0  0  0  0  0  0  0  0  0  0  0
   51.1420   31.5320   40.0370 C   0  0  0  0  0  0  0  0  0  0  0  0
   49.8880   31.7150   39.4830 C   0  0  0  0  0  0  0  0  0  0  0  0
   45.6380   34.0500   45.6290 C   0  0  0  0  0  0  0  0  0  0  0  0
   45.3570   31.7720   48.6070 C   0  0  0  0  0  0  0  0  0  0  0  0
   46.3040   30.7820   48.2450 C   0  0  0  0  0  0  0  0  0  0  0  0
   46.9650   30.9530   47.0290 C   0  0  0  0  0  0  0  0  0  0  0  0
   46.6540   32.0460   46.2900 N   0  0  0  0  0  0  0  0  0  0  0  0
   45.7500   32.9690   46.6640 C   0  0  0  0  0  0  0  0  0  0  0  0
   45.1000   32.8240   47.8310 N   0  0  0  0  0  0  0  0  0  0  0  0
   47.9340   29.9280   46.6720 C   0  0  0  0  0  0  0  0  0  0  0  0
   49.0650   30.0570   47.4790 F   0  0  0  0  0  0  0  0  0  0  0  0
   48.3750   30.2270   45.3900 F   0  0  0  0  0  0  0  0  0  0  0  0
   47.4420   28.6550   46.7860 F   0  0  0  0  0  0  0  0  0  0  0  0
   45.3422   32.3794   44.3369 H   0  0  0  0  0  0  0  0  0  0  0  0
   44.3933   33.8585   43.9156 H   0  0  0  0  0  0  0  0  0  0  0  0
   46.0127   35.9928   42.8022 H   0  0  0  0  0  0  0  0  0  0  0  0
   48.1552   35.7294   41.2448 H   0  0  0  0  0  0  0  0  0  0  0  0
   50.7688   33.2121   42.9634 H   0  0  0  0  0  0  0  0  0  0  0  0
   52.4685   31.9042   41.6963 H   0  0  0  0  0  0  0  0  0  0  0  0
   51.8972   30.9547   39.4834 H   0  0  0  0  0  0  0  0  0  0  0  0
   49.6404   31.2907   38.4988 H   0  0  0  0  0  0  0  0  0  0  0  0
   46.5820   34.6137   45.5963 H   0  0  0  0  0  0  0  0  0  0  0  0
   44.8006   34.7082   45.9040 H   0  0  0  0  0  0  0  0  0  0  0  0
   44.8166   31.6686   49.5595 H   0  0  0  0  0  0  0  0  0  0  0  0
   46.5085   29.9176   48.8939 H   0  0  0  0  0  0  0  0  0  0  0  0
  1 14  1  0
  2  1  1  0
  3  2  1  0
  4  5  1  0
  4  3  2  0
  5  6  1  0
  6  2  2  0
  7  8  1  0
  8  9  2  0
  9 10  1  0
  9  5  1  0
 11 10  2  0
 12 11  1  0
 13 12  2  0
 13  8  1  0
 14 19  1  0
 16 15  2  0
 17 16  1  0
 18 19  1  0
 18 17  2  0
 19 20  2  0
 20 15  1  0
 21 24  1  0
 21 17  1  0
 21 22  1  0
 23 21  1  0
  1 25  1  0
  1 26  1  0
  3 27  1  0
  4 28  1  0
 10 29  1  0
 11 30  1  0
 12 31  1  0
 13 32  1  0
 14 33  1  0
 14 34  1  0
 15 35  1  0
 16 36  1  0
M  ISO  8  25   8  26   8  27  14  28  14  29  14  30  14  31  14  32  14
M  ISO  4  33   8  34   8  35  14  36  14
M  END
>  <minimizedAffinity>  (1) 
-4.99956608

>  <minimizedRMSD>  (1) 
8.56467915

$$$$
