
     RDKit          3D

 42 44  0  0  0  0  0  0  0  0999 V2000
   46.1847   32.0869   45.4363 C   0  0  0  0  0  0  0  0  0  0  0  0
   45.7657   32.0227   49.1283 C   0  0  0  0  0  0  0  0  0  0  0  0
   46.0584   32.4934   47.8426 C   0  0  0  0  0  0  0  0  0  0  0  0
   45.8833   31.6128   46.7902 C   0  0  0  0  0  0  0  0  0  0  0  0
   45.4380   30.3413   47.0581 N   0  0  0  0  0  0  0  0  0  0  0  0
   45.1676   29.9299   48.3167 C   0  0  0  0  0  0  0  0  0  0  0  0
   45.3350   30.7757   49.3345 N   0  0  0  0  0  0  0  0  0  0  0  0
   46.5466   33.3973   45.4068 O   0  0  0  0  0  0  0  0  0  0  0  0
   44.6419   35.1771   45.2567 O   0  0  0  0  0  0  0  0  0  0  0  0
   45.4496   34.2363   44.4188 P   0  0  2  0  0  0  0  0  0  0  0  0
   44.5173   33.0601   43.6735 O   0  0  0  0  0  0  0  0  0  0  0  0
   46.3472   35.1218   43.3046 O   0  0  0  0  0  0  0  0  0  0  0  0
   47.1140   34.2397   42.5363 C   0  0  1  0  0  0  0  0  0  0  0  0
   46.9565   34.4725   41.0544 C   0  0  0  0  0  0  0  0  0  0  0  0
   48.1055   33.6621   40.5083 C   0  0  0  0  0  0  0  0  0  0  0  0
   49.1686   33.6703   41.6029 C   0  0  0  0  0  0  0  0  0  0  0  0
   48.5930   34.5541   42.6940 C   0  0  2  0  0  0  0  0  0  0  0  0
   45.3960   31.7422   44.7806 H   0  0  0  0  0  0  0  0  0  0  0  0
   47.1009   31.5069   45.1200 H   0  0  0  0  0  0  0  0  0  0  0  0
   45.9050   32.7194   49.9536 H   0  0  0  0  0  0  0  0  0  0  0  0
   46.4001   33.4946   47.7154 H   0  0  0  0  0  0  0  0  0  0  0  0
   44.8171   28.9202   48.5005 H   0  0  0  0  0  0  0  0  0  0  0  0
   44.8690   32.7951   42.7911 H   0  0  0  0  0  0  0  0  0  0  0  0
   46.9437   33.1907   42.8103 H   0  0  0  0  0  0  0  0  0  0  0  0
   45.9807   34.1481   40.6668 H   0  0  0  0  0  0  0  0  0  0  0  0
   47.1671   35.5418   40.8518 H   0  0  0  0  0  0  0  0  0  0  0  0
   47.6937   32.6483   40.3228 H   0  0  0  0  0  0  0  0  0  0  0  0
   48.4937   34.0688   39.5568 H   0  0  0  0  0  0  0  0  0  0  0  0
   49.3059   32.6356   41.8972 H   0  0  0  0  0  0  0  0  0  0  0  0
   50.0716   34.1631   41.2029 H   0  0  0  0  0  0  0  0  0  0  0  0
   48.7235   35.6166   42.4031 H   0  0  0  0  0  0  0  0  0  0  0  0
   46.4976   35.0147   44.8527 Br  0  0  0  0  0  0  0  0  0  0  0  0
   48.3139   34.5301   45.1236 C   0  0  0  0  0  0  0  0  0  0  0  0
   49.1538   34.3553   44.0139 C   0  0  0  0  0  0  0  0  0  0  0  0
   50.4491   34.0043   44.3446 C   0  0  0  0  0  0  0  0  0  0  0  0
   51.1244   33.8612   43.5108 H   0  0  0  0  0  0  0  0  0  0  0  0
   50.9071   33.8332   45.6362 C   0  0  0  0  0  0  0  0  0  0  0  0
   51.9575   33.5521   45.8135 H   0  0  0  0  0  0  0  0  0  0  0  0
   50.0439   34.0166   46.6813 C   0  0  0  0  0  0  0  0  0  0  0  0
   48.7371   34.3677   46.4266 C   0  0  0  0  0  0  0  0  0  0  0  0
   50.4121   33.8806   47.6859 H   0  0  0  0  0  0  0  0  0  0  0  0
   48.0555   34.5128   47.2472 H   0  0  0  0  0  0  0  0  0  0  0  0
  1  4  1  0
  2  7  2  0
  3  2  1  0
  4  5  1  0
  4  3  2  0
  5  6  2  0
  6  7  1  0
  8  1  1  0
 10  9  2  0
 10  8  1  1
 11 10  1  0
 12 10  1  0
 13 17  1  0
 13 12  1  0
 14 13  1  0
 15 14  1  0
 15 16  1  0
 16 17  1  0
  1 18  1  0
  1 19  1  0
  2 20  1  0
  3 21  1  0
  6 22  1  0
 11 23  1  0
 13 24  1  6
 14 25  1  0
 14 26  1  0
 15 27  1  0
 15 28  1  0
 16 29  1  0
 16 30  1  0
 17 31  1  6
 32 33  1  0
 33 34  2  0
 34 35  1  0
 35 36  1  0
 35 37  2  0
 37 38  1  0
 37 39  1  0
 39 40  2  0
 40 33  1  0
 39 41  1  0
 40 42  1  0
 17 34  1  0
M  ISO  8  18   8  19   8  20  14  21  14  22  14  23   3  24  13  25  13
M  ISO  8  26  13  27  13  28  13  29  13  30  13  31  13  36  15  38  16
M  END
>  <DihAtoms>  (1) 
12,16,33,32

>  <DihDeg>  (1) 
-90.07283660325535

$$$$
