
     RDKit          3D

 23 24  0  0  0  0  0  0  0  0999 V2000
   44.4936   36.0184   44.5032 C   0  0  0  0  0  0  0  0  0  0  0  0
   45.1400   35.9964   43.2637 C   0  0  0  0  0  0  0  0  0  0  0  0
   46.0639   34.9836   43.0360 C   0  0  0  0  0  0  0  0  0  0  0  0
   46.3048   34.0644   44.0074 N   0  0  0  0  0  0  0  0  0  0  0  0
   45.6519   34.1156   45.2137 C   0  0  0  0  0  0  0  0  0  0  0  0
   44.7601   35.0985   45.4257 N   0  0  0  0  0  0  0  0  0  0  0  0
   45.9988   33.0520   46.2033 C   0  0  0  0  0  0  0  0  0  0  0  0
   43.7521   36.7783   44.7683 H   0  0  0  0  0  0  0  0  0  0  0  0
   44.8917   36.7645   42.5431 H   0  0  0  0  0  0  0  0  0  0  0  0
   46.5740   34.9465   42.0896 H   0  0  0  0  0  0  0  0  0  0  0  0
   45.9004   33.5383   47.2186 H   0  0  0  0  0  0  0  0  0  0  0  0
   47.0623   32.7835   46.1222 H   0  0  0  0  0  0  0  0  0  0  0  0
   47.0346   30.8301   44.2099 Br  0  0  0  0  0  0  0  0  0  0  0  0
   45.4212   30.7602   45.2615 C   0  0  0  0  0  0  0  0  0  0  0  0
   45.1711   31.8517   46.0644 C   0  0  0  0  0  0  0  0  0  0  0  0
   43.9900   31.7552   46.8081 C   0  0  0  0  0  0  0  0  0  0  0  0
   43.7435   32.6012   47.4672 H   0  0  0  0  0  0  0  0  0  0  0  0
   43.1378   30.6724   46.7564 C   0  0  0  0  0  0  0  0  0  0  0  0
   42.2535   30.7102   47.3782 H   0  0  0  0  0  0  0  0  0  0  0  0
   43.4586   29.6234   45.9303 C   0  0  0  0  0  0  0  0  0  0  0  0
   44.6128   29.6485   45.1633 C   0  0  0  0  0  0  0  0  0  0  0  0
   42.7653   28.7865   45.9147 H   0  0  0  0  0  0  0  0  0  0  0  0
   44.8418   28.8188   44.5279 H   0  0  0  0  0  0  0  0  0  0  0  0
  1  6  2  0
  2  1  1  0
  3  2  2  0
  3  4  1  0
  4  5  2  0
  5  6  1  0
  5  7  1  0
  1  8  1  0
  2  9  1  0
  3 10  1  0
  7 11  1  0
  7 12  1  0
 13 14  1  0
 14 15  2  0
 15 16  1  0
 16 17  1  0
 16 18  2  0
 18 19  1  0
 18 20  1  0
 20 21  2  0
 21 14  1  0
 20 22  1  0
 21 23  1  0
  7 15  1  0
M  ISO  7   8  14   9  14  10  14  11   8  12   8  17  15  19  16
M  END
>  <DihAtoms>  (1) 
4,6,14,13

>  <DihDeg>  (1) 
-76.11110296307274

$$$$
