
     RDKit          3D

 23 24  0  0  0  0  0  0  0  0999 V2000
   44.5672   36.0023   44.4934 C   0  0  0  0  0  0  0  0  0  0  0  0
   45.2994   35.9346   43.2917 C   0  0  0  0  0  0  0  0  0  0  0  0
   46.1892   34.8651   43.1733 C   0  0  0  0  0  0  0  0  0  0  0  0
   46.3028   33.9643   44.1964 N   0  0  0  0  0  0  0  0  0  0  0  0
   45.5712   34.0837   45.3264 C   0  0  0  0  0  0  0  0  0  0  0  0
   44.7104   35.0979   45.4694 N   0  0  0  0  0  0  0  0  0  0  0  0
   46.9617   34.7672   41.9324 C   0  0  0  0  0  0  0  0  0  0  0  0
   43.8674   36.8257   44.6119 H   0  0  0  0  0  0  0  0  0  0  0  0
   45.1764   36.6735   42.5054 H   0  0  0  0  0  0  0  0  0  0  0  0
   45.8094   33.2698   46.0080 H   0  0  0  0  0  0  0  0  0  0  0  0
   47.9315   34.2589   42.1875 H   0  0  0  0  0  0  0  0  0  0  0  0
   47.1372   35.7884   41.5409 H   0  0  0  0  0  0  0  0  0  0  0  0
   44.6888   33.0024   43.2223 Br  0  0  0  0  0  0  0  0  0  0  0  0
   45.2363   33.1423   41.3875 C   0  0  0  0  0  0  0  0  0  0  0  0
   46.2628   33.9485   40.9042 C   0  0  0  0  0  0  0  0  0  0  0  0
   46.5454   33.9408   39.5633 C   0  0  0  0  0  0  0  0  0  0  0  0
   47.3507   34.5809   39.2214 H   0  0  0  0  0  0  0  0  0  0  0  0
   45.7910   33.1235   38.7340 C   0  0  0  0  0  0  0  0  0  0  0  0
   46.0357   33.1384   37.6725 H   0  0  0  0  0  0  0  0  0  0  0  0
   44.7739   32.3194   39.1812 C   0  0  0  0  0  0  0  0  0  0  0  0
   44.4866   32.3264   40.5428 C   0  0  0  0  0  0  0  0  0  0  0  0
   44.2329   31.7090   38.4566 H   0  0  0  0  0  0  0  0  0  0  0  0
   43.6825   31.6811   40.8495 H   0  0  0  0  0  0  0  0  0  0  0  0
  1  6  2  0
  2  1  1  0
  3  2  2  0
  3  4  1  0
  4  5  2  0
  5  6  1  0
  7  3  1  0
  1  8  1  0
  2  9  1  0
  5 10  1  0
  7 11  1  0
  7 12  1  0
 13 14  1  0
 14 15  2  0
 15 16  1  0
 16 17  1  0
 16 18  2  0
 18 19  1  0
 18 20  1  0
 20 21  2  0
 21 14  1  0
 20 22  1  0
 21 23  1  0
  7 15  1  0
M  ISO  7   8  14   9  14  10  14  11   8  12   8  17  15  19  16
M  END
>  <DihAtoms>  (1) 
2,6,14,13

>  <DihDeg>  (1) 
-76.85418002228874

$$$$
