
     RDKit          3D

 23 24  0  0  0  0  0  0  0  0999 V2000
   46.6090   34.9680   42.0100 C   0  0  0  0  0  0  0  0  0  0  0  0
   44.4970   35.9890   44.8940 C   0  0  0  0  0  0  0  0  0  0  0  0
   45.1140   36.0290   43.6290 C   0  0  0  0  0  0  0  0  0  0  0  0
   45.9550   34.9560   43.3210 C   0  0  0  0  0  0  0  0  0  0  0  0
   46.1310   33.9530   44.2330 N   0  0  0  0  0  0  0  0  0  0  0  0
   45.5090   33.9730   45.4330 C   0  0  0  0  0  0  0  0  0  0  0  0
   44.6980   34.9860   45.7560 N   0  0  0  0  0  0  0  0  0  0  0  0
   48.3400   33.3640   39.9190 Br  0  0  0  0  0  0  0  0  0  0  0  0
   46.4390   33.6210   39.9930 C   0  0  0  0  0  0  0  0  0  0  0  0
   45.7550   34.3560   40.9560 C   0  0  0  0  0  0  0  0  0  0  0  0
   44.3900   34.4570   40.8770 C   0  0  0  0  0  0  0  0  0  0  0  0
   43.7400   33.8160   39.8320 C   0  0  0  0  0  0  0  0  0  0  0  0
   44.3870   33.0840   38.8700 C   0  0  0  0  0  0  0  0  0  0  0  0
   45.7730   32.9820   38.9490 C   0  0  0  0  0  0  0  0  0  0  0  0
   46.8262   36.0096   41.7309 H   0  0  0  0  0  0  0  0  0  0  0  0
   47.5329   34.3757   42.0854 H   0  0  0  0  0  0  0  0  0  0  0  0
   43.8262   36.8113   45.1836 H   0  0  0  0  0  0  0  0  0  0  0  0
   44.9441   36.8564   42.9243 H   0  0  0  0  0  0  0  0  0  0  0  0
   45.6707   33.1521   46.1472 H   0  0  0  0  0  0  0  0  0  0  0  0
   43.8237   35.0324   41.6241 H   0  0  0  0  0  0  0  0  0  0  0  0
   42.6448   33.8998   39.7721 H   0  0  0  0  0  0  0  0  0  0  0  0
   43.8278   32.5923   38.0604 H   0  0  0  0  0  0  0  0  0  0  0  0
   46.3341   32.4057   38.1986 H   0  0  0  0  0  0  0  0  0  0  0  0
  1  4  1  0
  2  7  2  0
  3  2  1  0
  4  3  2  0
  4  5  1  0
  5  6  2  0
  6  7  1  0
  8  9  1  0
  9 10  2  0
 10  1  1  0
 11 10  1  0
 12 11  2  0
 13 14  2  0
 13 12  1  0
 14  9  1  0
  1 15  1  0
  1 16  1  0
  2 17  1  0
  3 18  1  0
  6 19  1  0
 11 20  1  0
 12 21  1  0
 13 22  1  0
 14 23  1  0
M  ISO  8  15   8  16   8  17  14  18  14  19  14  20  14  21  14  22  14
M  ISO  1  23  14
M  END
>  <minimizedAffinity>  (1) 
-4.28267479

>  <minimizedRMSD>  (1) 
0.969086349

$$$$
