
     RDKit          3D

 36 38  0  0  0  0  0  0  0  0999 V2000
   44.6794   35.3870   45.1939 C   0  0  0  0  0  0  0  0  0  0  0  0
   45.4122   35.2101   44.0069 C   0  0  0  0  0  0  0  0  0  0  0  0
   46.2230   34.1005   43.9144 C   0  0  0  0  0  0  0  0  0  0  0  0
   46.2732   33.2504   44.9535 N   0  0  0  0  0  0  0  0  0  0  0  0
   45.5739   33.4269   46.0766 C   0  0  0  0  0  0  0  0  0  0  0  0
   44.7490   34.5070   46.2355 N   0  0  0  0  0  0  0  0  0  0  0  0
   47.1979   32.1537   47.4899 C   0  0  2  0  0  0  0  0  0  0  0  0
   45.7200   32.4085   47.1161 C   0  0  1  0  0  0  0  0  0  0  0  0
   45.2240   32.7559   48.3438 O   0  0  0  0  0  0  0  0  0  0  0  0
   45.7133   31.8745   49.2604 C   0  0  0  0  0  0  0  0  0  0  0  0
   46.9338   31.1967   48.6655 C   0  0  2  0  0  0  0  0  0  0  0  0
   47.7249   33.2842   48.0230 O   0  0  0  0  0  0  0  0  0  0  0  0
   48.0063   31.0930   49.5105 O   0  0  0  0  0  0  0  0  0  0  0  0
   45.1671   36.2796   43.0161 C   0  0  0  0  0  0  0  0  0  0  0  0
   44.0115   36.2204   45.3761 H   0  0  0  0  0  0  0  0  0  0  0  0
   46.7610   33.9941   42.9891 H   0  0  0  0  0  0  0  0  0  0  0  0
   47.7403   31.6745   46.6795 H   0  0  0  0  0  0  0  0  0  0  0  0
   45.2633   31.4457   46.7982 H   0  0  0  0  0  0  0  0  0  0  0  0
   44.9251   31.1185   49.4633 H   0  0  0  0  0  0  0  0  0  0  0  0
   45.9957   32.3206   50.2276 H   0  0  0  0  0  0  0  0  0  0  0  0
   46.6947   30.2189   48.2231 H   0  0  0  0  0  0  0  0  0  0  0  0
   48.7038   33.3216   47.8824 H   0  0  0  0  0  0  0  0  0  0  0  0
   48.3333   30.1657   49.5617 H   0  0  0  0  0  0  0  0  0  0  0  0
   44.0791   36.4797   42.9867 H   0  0  0  0  0  0  0  0  0  0  0  0
   45.5033   35.9538   41.9833 H   0  0  0  0  0  0  0  0  0  0  0  0
   43.8979   38.4675   45.0209 Br  0  0  0  0  0  0  0  0  0  0  0  0
   45.5655   38.5741   44.1117 C   0  0  0  0  0  0  0  0  0  0  0  0
   45.8920   37.5006   43.3162 C   0  0  0  0  0  0  0  0  0  0  0  0
   47.1433   37.6832   42.7094 C   0  0  0  0  0  0  0  0  0  0  0  0
   47.5182   36.8871   42.0457 H   0  0  0  0  0  0  0  0  0  0  0  0
   47.9882   38.7497   42.8352 C   0  0  0  0  0  0  0  0  0  0  0  0
   48.9360   38.7911   42.3199 H   0  0  0  0  0  0  0  0  0  0  0  0
   47.5736   39.7783   43.6546 C   0  0  0  0  0  0  0  0  0  0  0  0
   46.3611   39.6822   44.2889 C   0  0  0  0  0  0  0  0  0  0  0  0
   48.1664   40.6498   43.8121 H   0  0  0  0  0  0  0  0  0  0  0  0
   45.9995   40.4791   44.9469 H   0  0  0  0  0  0  0  0  0  0  0  0
  1  6  2  0
  2  1  1  0
  3  2  2  0
  3  4  1  0
  4  5  2  0
  5  6  1  0
  7 12  1  0
  7 11  1  0
  8  5  1  0
  8  7  1  0
  8  9  1  0
  9 10  1  0
 11 10  1  0
 11 13  1  0
 14  2  1  0
  1 15  1  0
  3 16  1  0
  7 17  1  6
  8 18  1  6
 10 19  1  0
 10 20  1  0
 11 21  1  6
 12 22  1  0
 13 23  1  0
 14 24  1  0
 14 25  1  0
 26 27  1  0
 27 28  2  0
 28 29  1  0
 29 30  1  0
 29 31  2  0
 31 32  1  0
 31 33  1  0
 33 34  2  0
 34 27  1  0
 33 35  1  0
 34 36  1  0
 14 28  1  0
M  ISO  8  15  14  16  14  17  13  18  13  19  13  20  13  21  13  22   3
M  ISO  5  23   3  24   8  25   8  30  15  32  16
M  END
>  <DihAtoms>  (1) 
1,13,27,26

>  <DihDeg>  (1) 
78.16057870491996

$$$$
