
     RDKit          3D

 36 38  0  0  1  0  0  0  0  0999 V2000
   45.0560   34.9460   44.8520 C   0  0  0  0  0  0  0  0  0  0  0  0
   45.4210   34.4320   43.5950 C   0  0  0  0  0  0  0  0  0  0  0  0
   45.9020   33.1420   43.5450 C   0  0  0  0  0  0  0  0  0  0  0  0
   45.9990   32.4460   44.6900 N   0  0  0  0  0  0  0  0  0  0  0  0
   45.6520   32.9430   45.8800 C   0  0  0  0  0  0  0  0  0  0  0  0
   45.1660   34.2160   46.0010 N   0  0  0  0  0  0  0  0  0  0  0  0
   47.2610   31.9790   47.5340 C   0  0  2  0  0  0  0  0  0  0  0  0
   45.8000   32.0600   47.0360 C   0  0  1  0  0  0  0  0  0  0  0  0
   45.1860   32.4940   48.1800 O   0  0  0  0  0  0  0  0  0  0  0  0
   45.6730   31.7640   49.2220 C   0  0  0  0  0  0  0  0  0  0  0  0
   46.9860   31.1350   48.7910 C   0  0  2  0  0  0  0  0  0  0  0  0
   47.6540   33.2020   47.9670 O   0  0  0  0  0  0  0  0  0  0  0  0
   47.9960   31.2180   49.7120 O   0  0  0  0  0  0  0  0  0  0  0  0
   45.2030   35.3970   42.4960 C   0  0  0  0  0  0  0  0  0  0  0  0
   45.9890   33.5870   39.9420 Br  0  0  0  0  0  0  0  0  0  0  0  0
   44.2580   34.2160   40.4140 C   0  0  0  0  0  0  0  0  0  0  0  0
   44.1770   34.9660   41.5640 C   0  0  0  0  0  0  0  0  0  0  0  0
   42.8560   35.3620   41.8180 C   0  0  0  0  0  0  0  0  0  0  0  0
   41.7410   35.0860   41.0770 C   0  0  0  0  0  0  0  0  0  0  0  0
   41.9220   34.3280   39.9410 C   0  0  0  0  0  0  0  0  0  0  0  0
   43.1830   33.8970   39.6160 C   0  0  0  0  0  0  0  0  0  0  0  0
   44.6677   35.9735   44.9120 H   0  0  0  0  0  0  0  0  0  0  0  0
   46.2005   32.6911   42.5871 H   0  0  0  0  0  0  0  0  0  0  0  0
   48.0043   31.6170   46.8084 H   0  0  0  0  0  0  0  0  0  0  0  0
   45.3746   31.1257   46.6409 H   0  0  0  0  0  0  0  0  0  0  0  0
   45.8416   32.4198   50.0889 H   0  0  0  0  0  0  0  0  0  0  0  0
   44.9534   30.9820   49.5060 H   0  0  0  0  0  0  0  0  0  0  0  0
   46.9312   30.0464   48.6425 H   0  0  0  0  0  0  0  0  0  0  0  0
   47.6585   33.2159   48.9569 H   0  0  0  0  0  0  0  0  0  0  0  0
   47.6137   31.1866   50.6247 H   0  0  0  0  0  0  0  0  0  0  0  0
   44.9008   36.3615   42.9300 H   0  0  0  0  0  0  0  0  0  0  0  0
   46.1460   35.4792   41.9356 H   0  0  0  0  0  0  0  0  0  0  0  0
   42.6980   35.9677   42.7225 H   0  0  0  0  0  0  0  0  0  0  0  0
   40.7468   35.4516   41.3736 H   0  0  0  0  0  0  0  0  0  0  0  0
   41.0646   34.0712   39.3015 H   0  0  0  0  0  0  0  0  0  0  0  0
   43.3363   33.2916   38.7104 H   0  0  0  0  0  0  0  0  0  0  0  0
  1  6  2  0
  2  1  1  0
  3  2  2  0
  3  4  1  0
  4  5  2  0
  5  6  1  0
  5  8  1  0
  7 12  1  0
  7 11  1  0
  8  7  1  0
  8  9  1  0
  9 10  1  0
 11 10  1  0
 11 13  1  0
 14  2  1  0
 15 16  1  0
 16 17  2  0
 17 18  1  0
 17 14  1  0
 19 18  2  0
 20 19  1  0
 21 20  2  0
 21 16  1  0
  1 22  1  0
  3 23  1  0
  7 24  1  6
  8 25  1  6
 10 26  1  0
 10 27  1  0
 11 28  1  6
 12 29  1  0
 13 30  1  0
 14 31  1  0
 14 32  1  0
 18 33  1  0
 19 34  1  0
 20 35  1  0
 21 36  1  0
M  ISO  8  22  14  23  14  24  13  25  13  26  13  27  13  28  13  29   3
M  ISO  7  30   3  31   8  32   8  33  14  34  14  35  14  36  14
M  END
>  <minimizedAffinity>  (1) 
-6.27896643

>  <minimizedRMSD>  (1) 
3.59294295

$$$$
