
     RDKit          3D

 44 47  0  0  0  0  0  0  0  0999 V2000
   44.5901   34.4220   42.9432 C   0  0  0  0  0  0  0  0  0  0  0  0
   44.3077   35.6922   43.5557 C   0  0  0  0  0  0  0  0  0  0  0  0
   44.6308   35.8184   44.8946 C   0  0  0  0  0  0  0  0  0  0  0  0
   45.1834   34.7545   45.5331 N   0  0  0  0  0  0  0  0  0  0  0  0
   45.4321   33.5629   44.9007 C   0  0  0  0  0  0  0  0  0  0  0  0
   45.1346   33.4372   43.6535 N   0  0  0  0  0  0  0  0  0  0  0  0
   46.0265   32.4594   45.6792 C   0  0  1  0  0  0  0  0  0  0  0  0
   46.9656   32.7854   46.8193 C   0  0  0  0  0  0  0  0  0  0  0  0
   45.5522   32.3594   47.0785 C   0  0  1  0  0  0  0  0  0  0  0  0
   44.7505   33.4256   47.6568 N   0  0  0  0  0  0  0  0  0  0  0  0
   44.2412   34.3149   41.5464 C   0  0  0  0  0  0  0  0  0  0  0  0
   45.1135   34.1635   40.6393 O   0  0  0  0  0  0  0  0  0  0  0  0
   41.9893   33.3111   41.3051 C   0  0  0  0  0  0  0  0  0  0  0  0
   42.8135   34.4012   41.3071 C   0  0  0  0  0  0  0  0  0  0  0  0
   42.2333   35.6620   41.0638 C   0  0  0  0  0  0  0  0  0  0  0  0
   40.8919   35.8470   40.8280 C   0  0  0  0  0  0  0  0  0  0  0  0
   40.0733   34.7482   40.8293 C   0  0  0  0  0  0  0  0  0  0  0  0
   40.6283   33.5249   41.0638 C   0  0  0  0  0  0  0  0  0  0  0  0
   42.5339   31.7614   41.6714 S   0  0  0  0  0  0  0  0  0  0  0  0
   42.3883   31.0748   40.2752 O   0  0  0  0  0  0  0  0  0  0  0  0
   41.6406   31.0370   42.6088 O   0  0  0  0  0  0  0  0  0  0  0  0
   43.8843   36.5595   43.1286 H   0  0  0  0  0  0  0  0  0  0  0  0
   44.4728   36.7139   45.4749 H   0  0  0  0  0  0  0  0  0  0  0  0
   46.1668   31.5082   45.1400 H   0  0  0  0  0  0  0  0  0  0  0  0
   47.2607   33.8453   46.8842 H   0  0  0  0  0  0  0  0  0  0  0  0
   47.7259   31.9962   47.0176 H   0  0  0  0  0  0  0  0  0  0  0  0
   45.3578   31.3665   47.5112 H   0  0  0  0  0  0  0  0  0  0  0  0
   45.1891   33.8457   48.4841 H   0  0  0  0  0  0  0  0  0  0  0  0
   43.7591   33.1298   47.7816 H   0  0  0  0  0  0  0  0  0  0  0  0
   42.8062   36.5823   41.0370 H   0  0  0  0  0  0  0  0  0  0  0  0
   40.4633   36.8131   40.6437 H   0  0  0  0  0  0  0  0  0  0  0  0
   39.0088   34.7942   40.6545 H   0  0  0  0  0  0  0  0  0  0  0  0
   39.9652   32.6435   41.0641 H   0  0  0  0  0  0  0  0  0  0  0  0
   43.3731   30.4886   38.9416 Br  0  0  0  0  0  0  0  0  0  0  0  0
   44.5325   30.5702   40.4870 C   0  0  0  0  0  0  0  0  0  0  0  0
   44.0943   31.1308   41.7209 C   0  0  0  0  0  0  0  0  0  0  0  0
   45.1139   31.0685   42.6624 C   0  0  0  0  0  0  0  0  0  0  0  0
   44.7677   31.5561   43.5938 H   0  0  0  0  0  0  0  0  0  0  0  0
   46.3991   30.5846   42.6155 C   0  0  0  0  0  0  0  0  0  0  0  0
   47.0159   30.6395   43.4733 H   0  0  0  0  0  0  0  0  0  0  0  0
   46.6301   30.0922   41.3629 C   0  0  0  0  0  0  0  0  0  0  0  0
   45.7868   30.0494   40.2877 C   0  0  0  0  0  0  0  0  0  0  0  0
   47.6244   29.6764   41.2099 H   0  0  0  0  0  0  0  0  0  0  0  0
   46.1069   29.6273   39.3468 H   0  0  0  0  0  0  0  0  0  0  0  0
  1  2  2  0
  1  6  1  0
  2  3  1  0
  3  4  2  0
  5  4  1  0
  5  7  1  0
  6  5  2  0
  7  8  1  0
  7  9  1  0
  8  9  1  0
  9 10  1  0
 11  1  1  0
 12 11  2  0
 13 19  1  0
 14 13  1  0
 14 11  1  0
 15 14  2  0
 16 17  2  0
 16 15  1  0
 17 18  1  0
 18 13  2  0
 19 21  2  0
 20 19  2  0
  2 22  1  0
  3 23  1  0
  7 24  1  6
  8 25  1  0
  8 26  1  0
  9 27  1  1
 10 28  1  0
 10 29  1  0
 15 30  1  0
 16 31  1  0
 17 32  1  0
 18 33  1  0
 34 35  1  0
 35 36  2  0
 36 37  1  0
 37 38  1  0
 37 39  2  0
 39 40  1  0
 39 41  1  0
 41 42  2  0
 42 35  1  0
 41 43  1  0
 42 44  1  0
 19 36  1  0
M  ISO  8  22  14  23  14  24  13  25  13  26  13  27  13  28   5  29   5
M  ISO  6  30  14  31  14  32  14  33  14  38  15  40  16
M  END
>  <DihAtoms>  (1) 
12,18,35,34

>  <DihDeg>  (1) 
134.30905141254115

$$$$
