
     RDKit          3D

 21 22  0  0  0  0  0  0  0  0999 V2000
   44.2674   35.7338   44.2646 C   0  0  0  0  0  0  0  0  0  0  0  0
   44.4205   34.9211   43.1339 C   0  0  0  0  0  0  0  0  0  0  0  0
   45.0620   33.6838   43.2706 C   0  0  0  0  0  0  0  0  0  0  0  0
   45.5086   33.3352   44.5194 N   0  0  0  0  0  0  0  0  0  0  0  0
   45.3397   34.1503   45.5809 C   0  0  0  0  0  0  0  0  0  0  0  0
   44.7305   35.3330   45.4699 N   0  0  0  0  0  0  0  0  0  0  0  0
   43.8093   35.4419   41.5316 S   0  0  0  0  0  0  0  0  0  0  0  0
   45.1850   33.0490   42.4005 H   0  0  0  0  0  0  0  0  0  0  0  0
   45.7495   33.7296   46.5045 H   0  0  0  0  0  0  0  0  0  0  0  0
   44.9698   35.7822   40.7708 H   0  0  0  0  0  0  0  0  0  0  0  0
   43.0756   36.1376   41.4488 Br  0  0  0  0  0  0  0  0  0  0  0  0
   43.0127   37.3447   42.9278 C   0  0  0  0  0  0  0  0  0  0  0  0
   43.5994   37.0344   44.1593 C   0  0  0  0  0  0  0  0  0  0  0  0
   43.5690   37.8872   45.2435 C   0  0  0  0  0  0  0  0  0  0  0  0
   44.0510   37.5753   46.1777 H   0  0  0  0  0  0  0  0  0  0  0  0
   42.9224   39.1000   45.0823 C   0  0  0  0  0  0  0  0  0  0  0  0
   42.9042   39.7729   45.9530 H   0  0  0  0  0  0  0  0  0  0  0  0
   42.3247   39.4638   43.8909 C   0  0  0  0  0  0  0  0  0  0  0  0
   42.3912   38.5623   42.8405 C   0  0  0  0  0  0  0  0  0  0  0  0
   41.8489   40.4283   43.8598 H   0  0  0  0  0  0  0  0  0  0  0  0
   41.9057   38.8783   41.9059 H   0  0  0  0  0  0  0  0  0  0  0  0
  1  6  2  0
  2  3  2  0
  2  1  1  0
  3  4  1  0
  4  5  2  0
  6  5  1  0
  7  2  1  0
  3  8  1  0
  5  9  1  0
  7 10  1  0
 11 12  1  0
 12 13  2  0
 13 14  1  0
 14 15  1  0
 14 16  2  0
 16 17  1  0
 16 18  1  0
 18 19  2  0
 19 12  1  0
 18 20  1  0
 19 21  1  0
  1 13  1  0
M  ISO  5   8  14   9  14  10  11  15  15  17  16
M  END
>  <DihAtoms>  (1) 
5,0,12,11

>  <DihDeg>  (1) 
-53.421228044121044

$$$$
