
     RDKit          3D

 23 24  0  0  0  0  0  0  0  0999 V2000
   45.4339   35.0712   43.9964 C   0  0  0  0  0  0  0  0  0  0  0  0
   46.5049   34.2900   43.5064 C   0  0  0  0  0  0  0  0  0  0  0  0
   47.0212   33.2848   44.3360 C   0  0  0  0  0  0  0  0  0  0  0  0
   46.4575   33.1249   45.5622 N   0  0  0  0  0  0  0  0  0  0  0  0
   45.4321   33.8976   45.9893 C   0  0  0  0  0  0  0  0  0  0  0  0
   44.9206   34.8675   45.2115 N   0  0  0  0  0  0  0  0  0  0  0  0
   44.8949   36.1370   43.1023 C   0  0  0  0  0  0  0  0  0  0  0  0
   46.9511   34.4176   42.5339 H   0  0  0  0  0  0  0  0  0  0  0  0
   47.8373   32.6656   44.0033 H   0  0  0  0  0  0  0  0  0  0  0  0
   45.3981   36.1370   42.1387 H   0  0  0  0  0  0  0  0  0  0  0  0
   43.8014   35.9609   43.0093 H   0  0  0  0  0  0  0  0  0  0  0  0
   45.0057   37.1075   43.6570 H   0  0  0  0  0  0  0  0  0  0  0  0
   45.0068   30.9514   46.5601 Br  0  0  0  0  0  0  0  0  0  0  0  0
   44.6255   32.3753   47.7463 C   0  0  0  0  0  0  0  0  0  0  0  0
   44.8814   33.6617   47.3223 C   0  0  0  0  0  0  0  0  0  0  0  0
   44.6201   34.7344   48.1512 C   0  0  0  0  0  0  0  0  0  0  0  0
   44.8389   35.7389   47.7730 H   0  0  0  0  0  0  0  0  0  0  0  0
   44.1028   34.6144   49.4201 C   0  0  0  0  0  0  0  0  0  0  0  0
   43.8984   35.4375   50.0661 H   0  0  0  0  0  0  0  0  0  0  0  0
   43.8661   33.3047   49.7925 C   0  0  0  0  0  0  0  0  0  0  0  0
   44.1076   32.2180   49.0105 C   0  0  0  0  0  0  0  0  0  0  0  0
   43.4521   33.1152   50.7927 H   0  0  0  0  0  0  0  0  0  0  0  0
   43.9012   31.2141   49.3582 H   0  0  0  0  0  0  0  0  0  0  0  0
  1  6  2  0
  2  1  1  0
  2  3  2  0
  3  4  1  0
  4  5  2  0
  6  5  1  0
  7  1  1  0
  2  8  1  0
  3  9  1  0
  7 10  1  0
  7 11  1  0
  7 12  1  0
 13 14  1  0
 14 15  2  0
 15 16  1  0
 16 17  1  0
 16 18  2  0
 18 19  1  0
 18 20  1  0
 20 21  2  0
 21 14  1  0
 20 22  1  0
 21 23  1  0
  5 15  1  0
M  ISO  7   8  14   9  14  10   8  11   8  12   8  17  15  19  16
M  END
>  <DihAtoms>  (1) 
3,4,14,13

>  <DihDeg>  (1) 
179.9982911924989

$$$$
