
     RDKit          3D

 21 22  0  0  0  0  0  0  0  0999 V2000
   44.2674   35.7338   44.2646 C   0  0  0  0  0  0  0  0  0  0  0  0
   44.4205   34.9211   43.1339 C   0  0  0  0  0  0  0  0  0  0  0  0
   45.0620   33.6838   43.2706 C   0  0  0  0  0  0  0  0  0  0  0  0
   45.5086   33.3352   44.5194 N   0  0  0  0  0  0  0  0  0  0  0  0
   45.3397   34.1503   45.5809 C   0  0  0  0  0  0  0  0  0  0  0  0
   44.7305   35.3330   45.4699 N   0  0  0  0  0  0  0  0  0  0  0  0
   43.8093   35.4419   41.5316 S   0  0  0  0  0  0  0  0  0  0  0  0
   45.1850   33.0490   42.4005 H   0  0  0  0  0  0  0  0  0  0  0  0
   45.7495   33.7296   46.5045 H   0  0  0  0  0  0  0  0  0  0  0  0
   44.9698   35.7822   40.7708 H   0  0  0  0  0  0  0  0  0  0  0  0
   44.4026   36.8135   41.3787 Br  0  0  0  0  0  0  0  0  0  0  0  0
   43.5880   37.6376   42.8972 C   0  0  0  0  0  0  0  0  0  0  0  0
   43.5994   37.0344   44.1593 C   0  0  0  0  0  0  0  0  0  0  0  0
   43.0192   37.6071   45.2725 C   0  0  0  0  0  0  0  0  0  0  0  0
   43.0678   37.0746   46.2296 H   0  0  0  0  0  0  0  0  0  0  0  0
   42.4027   38.8353   45.1090 C   0  0  0  0  0  0  0  0  0  0  0  0
   41.9435   39.2835   46.0030 H   0  0  0  0  0  0  0  0  0  0  0  0
   42.3590   39.4813   43.8884 C   0  0  0  0  0  0  0  0  0  0  0  0
   42.9611   38.8525   42.8101 C   0  0  0  0  0  0  0  0  0  0  0  0
   41.8606   40.4343   43.8598 H   0  0  0  0  0  0  0  0  0  0  0  0
   42.9091   39.3893   41.8519 H   0  0  0  0  0  0  0  0  0  0  0  0
  1  6  2  0
  2  3  2  0
  2  1  1  0
  3  4  1  0
  4  5  2  0
  6  5  1  0
  7  2  1  0
  3  8  1  0
  5  9  1  0
  7 10  1  0
 11 12  1  0
 12 13  2  0
 13 14  1  0
 14 15  1  0
 14 16  2  0
 16 17  1  0
 16 18  1  0
 18 19  2  0
 19 12  1  0
 18 20  1  0
 19 21  1  0
  1 13  1  0
M  ISO  5   8  14   9  14  10  11  15  15  17  16
M  END
>  <DihAtoms>  (1) 
5,0,12,11

>  <DihDeg>  (1) 
-53.421228044121044

$$$$
