
     RDKit          3D

 45 49  0  0  0  0  0  0  0  0999 V2000
   49.7730   30.1910   49.4140 C   0  0  0  0  0  0  0  0  0  0  0  0
   50.0150   31.3570   50.0700 N   0  0  0  0  0  0  0  0  0  0  0  0
   50.6720   31.4220   51.2320 C   0  0  0  0  0  0  0  0  0  0  0  0
   51.1080   30.2660   51.7650 N   0  0  0  0  0  0  0  0  0  0  0  0
   50.9140   29.0620   51.1850 C   0  0  0  0  0  0  0  0  0  0  0  0
   51.3660   27.8790   51.7340 C   0  0  0  0  0  0  0  0  0  0  0  0
   51.1430   26.6800   51.0970 C   0  0  0  0  0  0  0  0  0  0  0  0
   50.4570   26.6130   49.8790 C   0  0  0  0  0  0  0  0  0  0  0  0
   50.0250   27.8230   49.3720 C   0  0  0  0  0  0  0  0  0  0  0  0
   50.2370   29.0260   49.9920 C   0  0  0  0  0  0  0  0  0  0  0  0
   52.1350   27.8160   47.2120 Br  0  0  0  0  0  0  0  0  0  0  0  0
   50.2440   27.5630   47.0520 C   0  0  0  0  0  0  0  0  0  0  0  0
   49.3320   27.5870   48.1150 C   0  0  0  0  0  0  0  0  0  0  0  0
   47.9790   27.4060   47.8130 C   0  0  0  0  0  0  0  0  0  0  0  0
   47.5860   27.2140   46.5200 C   0  0  0  0  0  0  0  0  0  0  0  0
   48.4820   27.1920   45.4850 C   0  0  0  0  0  0  0  0  0  0  0  0
   49.8250   27.3660   45.7390 C   0  0  0  0  0  0  0  0  0  0  0  0
   48.8960   30.0780   47.8780 S   0  0  0  0  0  0  0  0  0  0  0  0
   46.0310   32.7280   46.9060 C   0  0  0  0  0  0  0  0  0  0  0  0
   47.1620   31.9370   46.9040 C   0  0  0  0  0  0  0  0  0  0  0  0
   47.4280   31.0620   47.9330 C   0  0  0  0  0  0  0  0  0  0  0  0
   46.5440   30.9650   48.9990 C   0  0  0  0  0  0  0  0  0  0  0  0
   45.4220   31.7260   49.0340 C   0  0  0  0  0  0  0  0  0  0  0  0
   45.1890   32.5970   47.9810 C   0  0  0  0  0  0  0  0  0  0  0  0
   44.5530   35.5140   45.0600 C   0  0  0  0  0  0  0  0  0  0  0  0
   45.1970   35.4520   43.8010 C   0  0  0  0  0  0  0  0  0  0  0  0
   46.1410   34.4490   43.5870 C   0  0  0  0  0  0  0  0  0  0  0  0
   46.4100   33.5690   44.5920 N   0  0  0  0  0  0  0  0  0  0  0  0
   45.7710   33.6560   45.7950 C   0  0  0  0  0  0  0  0  0  0  0  0
   44.8510   34.6260   46.0170 N   0  0  0  0  0  0  0  0  0  0  0  0
   50.8497   32.3846   51.7339 H   0  0  0  0  0  0  0  0  0  0  0  0
   51.9098   27.8950   52.6901 H   0  0  0  0  0  0  0  0  0  0  0  0
   51.5129   25.7514   51.5563 H   0  0  0  0  0  0  0  0  0  0  0  0
   50.2741   25.6605   49.3602 H   0  0  0  0  0  0  0  0  0  0  0  0
   47.2301   27.4183   48.6186 H   0  0  0  0  0  0  0  0  0  0  0  0
   46.5169   27.0727   46.3030 H   0  0  0  0  0  0  0  0  0  0  0  0
   48.1309   27.0360   44.4543 H   0  0  0  0  0  0  0  0  0  0  0  0
   50.5553   27.3495   44.9166 H   0  0  0  0  0  0  0  0  0  0  0  0
   47.8662   32.0072   46.0619 H   0  0  0  0  0  0  0  0  0  0  0  0
   46.7552   30.2657   49.8214 H   0  0  0  0  0  0  0  0  0  0  0  0
   44.7163   31.6541   49.8747 H   0  0  0  0  0  0  0  0  0  0  0  0
   44.2803   33.2162   48.0090 H   0  0  0  0  0  0  0  0  0  0  0  0
   43.8037   36.2958   45.2533 H   0  0  0  0  0  0  0  0  0  0  0  0
   44.9581   36.1782   43.0101 H   0  0  0  0  0  0  0  0  0  0  0  0
   46.6612   34.3690   42.6211 H   0  0  0  0  0  0  0  0  0  0  0  0
  1 10  1  0
  1  2  2  0
  2  3  1  0
  3  4  2  0
  5  6  2  0
  5  4  1  0
  7  6  1  0
  8  7  2  0
  9  8  1  0
  9 10  2  0
 10  5  1  0
 12 11  1  0
 12 13  2  0
 13  9  1  0
 14 13  1  0
 15 14  2  0
 16 17  2  0
 16 15  1  0
 17 12  1  0
 18 21  1  0
 18  1  1  0
 19 24  1  0
 20 19  2  0
 20 21  1  0
 21 22  2  0
 22 23  1  0
 24 23  2  0
 25 30  2  0
 26 25  1  0
 27 26  2  0
 27 28  1  0
 28 29  2  0
 29 30  1  0
 29 19  1  0
  3 31  1  0
  6 32  1  0
  7 33  1  0
  8 34  1  0
 14 35  1  0
 15 36  1  0
 16 37  1  0
 17 38  1  0
 20 39  1  0
 22 40  1  0
 23 41  1  0
 24 42  1  0
 25 43  1  0
 26 44  1  0
 27 45  1  0
M  ISO  8  31  14  32  14  33  14  34  14  35  14  36  14  37  14  38  14
M  ISO  7  39  14  40  14  41  14  42  14  43  14  44  14  45  14
M  END
>  <minimizedAffinity>  (1) 
-6.59234619

>  <minimizedRMSD>  (1) 
0.95904088

$$$$
