
     RDKit          3D

 21 22  0  0  0  0  0  0  0  0999 V2000
   44.2674   35.7338   44.2646 C   0  0  0  0  0  0  0  0  0  0  0  0
   44.4205   34.9211   43.1339 C   0  0  0  0  0  0  0  0  0  0  0  0
   45.0620   33.6838   43.2706 C   0  0  0  0  0  0  0  0  0  0  0  0
   45.5086   33.3352   44.5194 N   0  0  0  0  0  0  0  0  0  0  0  0
   45.3397   34.1503   45.5809 C   0  0  0  0  0  0  0  0  0  0  0  0
   44.7305   35.3330   45.4699 N   0  0  0  0  0  0  0  0  0  0  0  0
   43.8093   35.4419   41.5316 S   0  0  0  0  0  0  0  0  0  0  0  0
   45.1850   33.0490   42.4005 H   0  0  0  0  0  0  0  0  0  0  0  0
   45.7495   33.7296   46.5045 H   0  0  0  0  0  0  0  0  0  0  0  0
   44.9698   35.7822   40.7708 H   0  0  0  0  0  0  0  0  0  0  0  0
   41.9703   35.9635   46.3098 Br  0  0  0  0  0  0  0  0  0  0  0  0
   42.5344   37.2696   45.0353 C   0  0  0  0  0  0  0  0  0  0  0  0
   43.5994   37.0344   44.1593 C   0  0  0  0  0  0  0  0  0  0  0  0
   44.0274   37.9595   43.2294 C   0  0  0  0  0  0  0  0  0  0  0  0
   44.8699   37.7043   42.5758 H   0  0  0  0  0  0  0  0  0  0  0  0
   43.3574   39.1694   43.1793 C   0  0  0  0  0  0  0  0  0  0  0  0
   43.7064   39.9000   42.4340 H   0  0  0  0  0  0  0  0  0  0  0  0
   42.2981   39.4604   44.0173 C   0  0  0  0  0  0  0  0  0  0  0  0
   41.9175   38.4880   44.9284 C   0  0  0  0  0  0  0  0  0  0  0  0
   41.8374   40.4258   43.9020 H   0  0  0  0  0  0  0  0  0  0  0  0
   41.0730   38.7483   45.5827 H   0  0  0  0  0  0  0  0  0  0  0  0
  1  6  2  0
  2  3  2  0
  2  1  1  0
  3  4  1  0
  4  5  2  0
  6  5  1  0
  7  2  1  0
  3  8  1  0
  5  9  1  0
  7 10  1  0
 11 12  1  0
 12 13  2  0
 13 14  1  0
 14 15  1  0
 14 16  2  0
 16 17  1  0
 16 18  1  0
 18 19  2  0
 19 12  1  0
 18 20  1  0
 19 21  1  0
  1 13  1  0
M  ISO  5   8  14   9  14  10  11  15  15  17  16
M  END
>  <DihAtoms>  (1) 
5,0,12,11

>  <DihDeg>  (1) 
-53.421228044121044

$$$$
