
     RDKit          3D

 37 40  0  0  0  0  0  0  0  0999 V2000
   43.3020   32.0560   42.3210 F   0  0  0  0  0  0  0  0  0  0  0  0
   43.4980   33.3650   42.0890 C   0  0  0  0  0  0  0  0  0  0  0  0
   44.6100   33.9930   42.6250 C   0  0  0  0  0  0  0  0  0  0  0  0
   44.8220   35.3460   42.3890 C   0  0  0  0  0  0  0  0  0  0  0  0
   43.9590   36.0950   41.6340 C   0  0  0  0  0  0  0  0  0  0  0  0
   42.8690   35.4660   41.1120 C   0  0  0  0  0  0  0  0  0  0  0  0
   42.6320   34.1260   41.3280 C   0  0  0  0  0  0  0  0  0  0  0  0
   43.1580   32.9070   38.5190 Br  0  0  0  0  0  0  0  0  0  0  0  0
   41.5430   32.7740   39.5380 C   0  0  0  0  0  0  0  0  0  0  0  0
   41.4710   33.3840   40.7910 C   0  0  0  0  0  0  0  0  0  0  0  0
   40.3280   33.3170   41.5670 C   0  0  0  0  0  0  0  0  0  0  0  0
   39.2160   32.6360   41.1100 C   0  0  0  0  0  0  0  0  0  0  0  0
   39.2700   32.0270   39.8730 C   0  0  0  0  0  0  0  0  0  0  0  0
   40.4230   32.0910   39.0870 C   0  0  0  0  0  0  0  0  0  0  0  0
   46.3710   32.4660   45.2540 C   0  0  0  0  0  0  0  0  0  0  0  0
   47.3010   32.3490   44.2210 C   0  0  0  0  0  0  0  0  0  0  0  0
   46.7790   32.9010   43.0920 C   0  0  0  0  0  0  0  0  0  0  0  0
   45.5660   33.3460   43.4120 N   0  0  0  0  0  0  0  0  0  0  0  0
   45.3360   33.0790   44.7080 N   0  0  0  0  0  0  0  0  0  0  0  0
   47.6810   30.5960   48.1190 C   0  0  0  0  0  0  0  0  0  0  0  0
   46.9290   31.1200   49.1840 C   0  0  0  0  0  0  0  0  0  0  0  0
   45.9810   32.1080   48.9130 C   0  0  0  0  0  0  0  0  0  0  0  0
   45.8730   32.4760   47.6200 N   0  0  0  0  0  0  0  0  0  0  0  0
   46.5760   31.9900   46.6060 C   0  0  0  0  0  0  0  0  0  0  0  0
   47.5060   31.0280   46.8400 N   0  0  0  0  0  0  0  0  0  0  0  0
   45.7099   35.8301   42.8217 H   0  0  0  0  0  0  0  0  0  0  0  0
   44.1393   37.1653   41.4556 H   0  0  0  0  0  0  0  0  0  0  0  0
   42.1591   36.0435   40.5017 H   0  0  0  0  0  0  0  0  0  0  0  0
   40.3042   33.8075   42.5513 H   0  0  0  0  0  0  0  0  0  0  0  0
   38.3035   32.5803   41.7217 H   0  0  0  0  0  0  0  0  0  0  0  0
   38.3905   31.4820   39.4996 H   0  0  0  0  0  0  0  0  0  0  0  0
   40.4429   31.5968   38.1045 H   0  0  0  0  0  0  0  0  0  0  0  0
   48.2951   31.8857   44.3053 H   0  0  0  0  0  0  0  0  0  0  0  0
   47.2647   32.9666   42.1072 H   0  0  0  0  0  0  0  0  0  0  0  0
   48.4301   29.8170   48.3239 H   0  0  0  0  0  0  0  0  0  0  0  0
   47.0843   30.7587   50.2113 H   0  0  0  0  0  0  0  0  0  0  0  0
   45.3618   32.5576   49.7032 H   0  0  0  0  0  0  0  0  0  0  0  0
  2  1  1  0
  2  3  2  0
  3 18  1  0
  4  3  1  0
  5  4  2  0
  6  7  2  0
  6  5  1  0
  7  2  1  0
  8  9  1  0
  9 10  2  0
 10  7  1  0
 10 11  1  0
 12 11  2  0
 13 12  1  0
 14  9  1  0
 14 13  2  0
 15 24  1  0
 16 15  1  0
 17 18  1  0
 17 16  2  0
 18 19  1  0
 19 15  2  0
 20 21  2  0
 22 21  1  0
 23 22  2  0
 24 25  2  0
 24 23  1  0
 25 20  1  0
  4 26  1  0
  5 27  1  0
  6 28  1  0
 11 29  1  0
 12 30  1  0
 13 31  1  0
 14 32  1  0
 16 33  1  0
 17 34  1  0
 20 35  1  0
 21 36  1  0
 22 37  1  0
M  ISO  8  26  14  27  14  28  14  29  14  30  14  31  14  32  14  33  14
M  ISO  4  34  14  35  14  36  14  37  14
M  END
>  <minimizedAffinity>  (1) 
-5.59105539

>  <minimizedRMSD>  (1) 
2.68469

$$$$
