
     RDKit          3D

 21 22  0  0  0  0  0  0  0  0999 V2000
   44.2674   35.7338   44.2646 C   0  0  0  0  0  0  0  0  0  0  0  0
   44.4205   34.9211   43.1339 C   0  0  0  0  0  0  0  0  0  0  0  0
   45.0620   33.6838   43.2706 C   0  0  0  0  0  0  0  0  0  0  0  0
   45.5086   33.3352   44.5194 N   0  0  0  0  0  0  0  0  0  0  0  0
   45.3397   34.1503   45.5809 C   0  0  0  0  0  0  0  0  0  0  0  0
   44.7305   35.3330   45.4699 N   0  0  0  0  0  0  0  0  0  0  0  0
   43.8093   35.4419   41.5316 S   0  0  0  0  0  0  0  0  0  0  0  0
   45.1850   33.0490   42.4005 H   0  0  0  0  0  0  0  0  0  0  0  0
   45.7495   33.7296   46.5045 H   0  0  0  0  0  0  0  0  0  0  0  0
   44.9698   35.7822   40.7708 H   0  0  0  0  0  0  0  0  0  0  0  0
   41.5313   35.4594   42.8678 Br  0  0  0  0  0  0  0  0  0  0  0  0
   42.3435   37.0508   43.5433 C   0  0  0  0  0  0  0  0  0  0  0  0
   43.5994   37.0344   44.1593 C   0  0  0  0  0  0  0  0  0  0  0  0
   44.2090   38.1683   44.6557 C   0  0  0  0  0  0  0  0  0  0  0  0
   45.1953   38.0779   45.1261 H   0  0  0  0  0  0  0  0  0  0  0  0
   43.5277   39.3660   44.5275 C   0  0  0  0  0  0  0  0  0  0  0  0
   44.0228   40.2643   44.9263 H   0  0  0  0  0  0  0  0  0  0  0  0
   42.2853   39.4466   43.9285 C   0  0  0  0  0  0  0  0  0  0  0  0
   41.7283   38.2711   43.4503 C   0  0  0  0  0  0  0  0  0  0  0  0
   41.8348   40.4220   43.8715 H   0  0  0  0  0  0  0  0  0  0  0  0
   40.7388   38.3659   42.9803 H   0  0  0  0  0  0  0  0  0  0  0  0
  1  6  2  0
  2  3  2  0
  2  1  1  0
  3  4  1  0
  4  5  2  0
  6  5  1  0
  7  2  1  0
  3  8  1  0
  5  9  1  0
  7 10  1  0
 11 12  1  0
 12 13  2  0
 13 14  1  0
 14 15  1  0
 14 16  2  0
 16 17  1  0
 16 18  1  0
 18 19  2  0
 19 12  1  0
 18 20  1  0
 19 21  1  0
  1 13  1  0
M  ISO  5   8  14   9  14  10  11  15  15  17  16
M  END
>  <DihAtoms>  (1) 
5,0,12,11

>  <DihDeg>  (1) 
-53.421228044121044

$$$$
