
     RDKit          3D

 23 24  0  0  0  0  0  0  0  0999 V2000
   45.4339   35.0712   43.9964 C   0  0  0  0  0  0  0  0  0  0  0  0
   46.5049   34.2900   43.5064 C   0  0  0  0  0  0  0  0  0  0  0  0
   47.0212   33.2848   44.3360 C   0  0  0  0  0  0  0  0  0  0  0  0
   46.4575   33.1249   45.5622 N   0  0  0  0  0  0  0  0  0  0  0  0
   45.4321   33.8976   45.9893 C   0  0  0  0  0  0  0  0  0  0  0  0
   44.9206   34.8675   45.2115 N   0  0  0  0  0  0  0  0  0  0  0  0
   44.8949   36.1370   43.1023 C   0  0  0  0  0  0  0  0  0  0  0  0
   46.9511   34.4176   42.5339 H   0  0  0  0  0  0  0  0  0  0  0  0
   47.8373   32.6656   44.0033 H   0  0  0  0  0  0  0  0  0  0  0  0
   45.3981   36.1370   42.1387 H   0  0  0  0  0  0  0  0  0  0  0  0
   43.8014   35.9609   43.0093 H   0  0  0  0  0  0  0  0  0  0  0  0
   45.0057   37.1075   43.6570 H   0  0  0  0  0  0  0  0  0  0  0  0
   42.7436   35.2403   46.3841 Br  0  0  0  0  0  0  0  0  0  0  0  0
   43.6620   34.2014   47.6714 C   0  0  0  0  0  0  0  0  0  0  0  0
   44.8814   33.6617   47.3223 C   0  0  0  0  0  0  0  0  0  0  0  0
   45.5901   32.8963   48.2266 C   0  0  0  0  0  0  0  0  0  0  0  0
   46.5545   32.4874   47.9064 H   0  0  0  0  0  0  0  0  0  0  0  0
   45.1560   32.6187   49.5021 C   0  0  0  0  0  0  0  0  0  0  0  0
   45.6973   32.0286   50.2060 H   0  0  0  0  0  0  0  0  0  0  0  0
   43.9300   33.1840   49.7976 C   0  0  0  0  0  0  0  0  0  0  0  0
   43.1970   33.9440   48.9397 C   0  0  0  0  0  0  0  0  0  0  0  0
   43.5060   33.0133   50.7969 H   0  0  0  0  0  0  0  0  0  0  0  0
   42.2410   34.3607   49.2291 H   0  0  0  0  0  0  0  0  0  0  0  0
  1  6  2  0
  2  1  1  0
  2  3  2  0
  3  4  1  0
  4  5  2  0
  6  5  1  0
  7  1  1  0
  2  8  1  0
  3  9  1  0
  7 10  1  0
  7 11  1  0
  7 12  1  0
 13 14  1  0
 14 15  2  0
 15 16  1  0
 16 17  1  0
 16 18  2  0
 18 19  1  0
 18 20  1  0
 20 21  2  0
 21 14  1  0
 20 22  1  0
 21 23  1  0
  5 15  1  0
M  ISO  7   8  14   9  14  10   8  11   8  12   8  17  15  19  16
M  END
>  <DihAtoms>  (1) 
3,4,14,13

>  <DihDeg>  (1) 
179.9982911924989

$$$$
