
     RDKit          3D

 46 48  0  0  0  0  0  0  0  0999 V2000
   45.7560   33.7430   40.6730 C   0  0  0  0  0  0  0  0  0  0  0  0
   46.2670   33.4200   39.4330 C   0  0  0  0  0  0  0  0  0  0  0  0
   47.5060   33.7870   38.9800 C   0  0  0  0  0  0  0  0  0  0  0  0
   48.2800   34.5450   39.8720 C   0  0  0  0  0  0  0  0  0  0  0  0
   47.8240   34.8950   41.1160 C   0  0  0  0  0  0  0  0  0  0  0  0
   46.5820   34.5060   41.5240 C   0  0  0  0  0  0  0  0  0  0  0  0
   46.2050   34.9070   42.8170 N   0  0  0  0  0  0  0  0  0  0  0  0
   45.3390   36.0170   43.0970 C   0  0  0  0  0  0  0  0  0  0  0  0
   44.7530   35.9190   44.4830 C   0  0  0  0  0  0  0  0  0  0  0  0
   44.4060   34.5990   44.8910 N   0  0  0  0  0  0  0  0  0  0  0  0
   45.4520   33.6490   44.7730 C   0  0  0  0  0  0  0  0  0  0  0  0
   46.6360   34.2610   44.0670 C   0  0  0  0  0  0  0  0  0  0  0  0
   44.4280   33.3520   41.1490 C   0  0  0  0  0  0  0  0  0  0  0  0
   43.4460   33.2190   40.0030 C   0  0  0  0  0  0  0  0  0  0  0  0
   41.1910   35.9910   41.2180 C   0  0  0  0  0  0  0  0  0  0  0  0
   42.3630   35.2460   40.9560 C   0  0  0  0  0  0  0  0  0  0  0  0
   42.2350   34.0200   40.2980 C   0  0  0  0  0  0  0  0  0  0  0  0
   40.9780   33.6040   39.9430 N   0  0  0  0  0  0  0  0  0  0  0  0
   39.8920   34.3390   40.2090 C   0  0  0  0  0  0  0  0  0  0  0  0
   39.9950   35.5250   40.8420 N   0  0  0  0  0  0  0  0  0  0  0  0
   38.5180   33.9090   39.8330 C   0  0  0  0  0  0  0  0  0  0  0  0
   38.3610   32.4500   40.2440 C   0  0  0  0  0  0  0  0  0  0  0  0
   45.6333   32.8245   38.7594 H   0  0  0  0  0  0  0  0  0  0  0  0
   47.8711   33.5058   37.9812 H   0  0  0  0  0  0  0  0  0  0  0  0
   49.2848   34.8686   39.5628 H   0  0  0  0  0  0  0  0  0  0  0  0
   48.4607   35.4907   41.7866 H   0  0  0  0  0  0  0  0  0  0  0  0
   45.9156   36.9504   43.0170 H   0  0  0  0  0  0  0  0  0  0  0  0
   44.5139   36.0056   42.3697 H   0  0  0  0  0  0  0  0  0  0  0  0
   45.4913   36.3149   45.1959 H   0  0  0  0  0  0  0  0  0  0  0  0
   43.8160   36.4950   44.4654 H   0  0  0  0  0  0  0  0  0  0  0  0
   44.1144   34.6344   45.8782 H   0  0  0  0  0  0  0  0  0  0  0  0
   45.7583   33.3196   45.7768 H   0  0  0  0  0  0  0  0  0  0  0  0
   45.0913   32.7896   44.1888 H   0  0  0  0  0  0  0  0  0  0  0  0
   47.3677   33.4731   43.8351 H   0  0  0  0  0  0  0  0  0  0  0  0
   47.0928   35.0171   44.7224 H   0  0  0  0  0  0  0  0  0  0  0  0
   44.5045   32.3854   41.6685 H   0  0  0  0  0  0  0  0  0  0  0  0
   44.0608   34.1338   41.8301 H   0  0  0  0  0  0  0  0  0  0  0  0
   43.1662   32.1623   39.8800 H   0  0  0  0  0  0  0  0  0  0  0  0
   43.9115   33.5841   39.0756 H   0  0  0  0  0  0  0  0  0  0  0  0
   41.2628   36.9597   41.7341 H   0  0  0  0  0  0  0  0  0  0  0  0
   43.3505   35.6216   41.2622 H   0  0  0  0  0  0  0  0  0  0  0  0
   37.7750   34.5280   40.3572 H   0  0  0  0  0  0  0  0  0  0  0  0
   38.3609   34.0236   38.7503 H   0  0  0  0  0  0  0  0  0  0  0  0
   38.3532   32.3771   41.3416 H   0  0  0  0  0  0  0  0  0  0  0  0
   37.4153   32.0560   39.8436 H   0  0  0  0  0  0  0  0  0  0  0  0
   39.2013   31.8638   39.8436 H   0  0  0  0  0  0  0  0  0  0  0  0
  1 13  1  0
  1  6  1  0
  2  1  2  0
  3  2  1  0
  3  4  2  0
  4  5  1  0
  5  6  2  0
  6  7  1  0
  7  8  1  0
  7 12  1  0
  8  9  1  0
  9 10  1  0
 11 10  1  0
 12 11  1  0
 14 17  1  0
 14 13  1  0
 16 15  2  0
 17 16  1  0
 18 19  1  0
 18 17  2  0
 19 20  2  0
 20 15  1  0
 21 19  1  0
 21 22  1  0
  2 23  1  0
  3 24  1  0
  4 25  1  0
  5 26  1  0
  8 27  1  0
  8 28  1  0
  9 29  1  0
  9 30  1  0
 10 31  1  0
 11 32  1  0
 11 33  1  0
 12 34  1  0
 12 35  1  0
 13 36  1  0
 13 37  1  0
 14 38  1  0
 14 39  1  0
 15 40  1  0
 16 41  1  0
 21 42  1  0
 21 43  1  0
 22 44  1  0
 22 45  1  0
 22 46  1  0
M  ISO  8  23  14  24  14  25  14  26  14  27  13  28  13  29  13  30  13
M  ISO  8  31   5  32  13  33  13  34  13  35  13  36   8  37   8  38   8
M  ISO  8  39   8  40  14  41  14  42   8  43   8  44   8  45   8  46   8
M  END
>  <minimizedAffinity>  (1) 
-5.78617764

>  <minimizedRMSD>  (1) 
1.32248175

$$$$
