
     RDKit          3D

 29 30  0  0  0  0  0  0  0  0999 V2000
   46.2860   34.6170   41.4240 C   0  0  0  0  0  0  0  0  0  0  0  0
   45.4510   34.0370   40.4980 C   0  0  0  0  0  0  0  0  0  0  0  0
   46.0140   33.5660   39.3550 C   0  0  0  0  0  0  0  0  0  0  0  0
   47.3670   33.6410   39.0800 C   0  0  0  0  0  0  0  0  0  0  0  0
   48.1800   34.2320   40.0360 C   0  0  0  0  0  0  0  0  0  0  0  0
   47.6540   34.7190   41.1990 C   0  0  0  0  0  0  0  0  0  0  0  0
   41.8790   35.0480   41.2030 C   0  0  0  0  0  0  0  0  0  0  0  0
   43.2430   35.1310   40.8820 C   0  0  0  0  0  0  0  0  0  0  0  0
   44.0290   33.9800   40.8280 C   0  0  0  0  0  0  0  0  0  0  0  0
   43.3960   32.8200   41.0980 N   0  0  0  0  0  0  0  0  0  0  0  0
   42.0980   32.7480   41.4020 C   0  0  0  0  0  0  0  0  0  0  0  0
   41.3450   33.8700   41.4540 N   0  0  0  0  0  0  0  0  0  0  0  0
   41.1270   36.2400   41.2480 N   0  0  0  0  0  0  0  0  0  0  0  0
   45.3600   35.5660   43.6810 N   0  0  0  0  0  0  0  0  0  0  0  0
   45.7700   35.1460   42.6690 C   0  0  0  0  0  0  0  0  0  0  0  0
   48.5130   35.3580   42.2410 C   0  0  0  0  0  0  0  0  0  0  0  0
   49.8390   34.6830   42.3960 C   0  0  0  0  0  0  0  0  0  0  0  0
   45.3570   33.0989   38.6066 H   0  0  0  0  0  0  0  0  0  0  0  0
   47.7822   33.2476   38.1404 H   0  0  0  0  0  0  0  0  0  0  0  0
   49.2623   34.3095   39.8553 H   0  0  0  0  0  0  0  0  0  0  0  0
   43.6955   36.1113   40.6714 H   0  0  0  0  0  0  0  0  0  0  0  0
   41.6386   31.7707   41.6113 H   0  0  0  0  0  0  0  0  0  0  0  0
   41.5800   37.1426   41.0455 H   0  0  0  0  0  0  0  0  0  0  0  0
   40.1248   36.2081   41.4833 H   0  0  0  0  0  0  0  0  0  0  0  0
   48.6841   36.4075   41.9596 H   0  0  0  0  0  0  0  0  0  0  0  0
   47.9848   35.2729   43.2021 H   0  0  0  0  0  0  0  0  0  0  0  0
   50.0682   34.5663   43.4655 H   0  0  0  0  0  0  0  0  0  0  0  0
   49.8044   33.6928   41.9182 H   0  0  0  0  0  0  0  0  0  0  0  0
   50.6193   35.2936   41.9182 H   0  0  0  0  0  0  0  0  0  0  0  0
  1 15  1  0
  2  9  1  0
  2  1  2  0
  3  2  1  0
  4  3  2  0
  4  5  1  0
  5  6  2  0
  6  1  1  0
  6 16  1  0
  7 13  1  0
  7 12  2  0
  8  7  1  0
  9  8  2  0
  9 10  1  0
 10 11  2  0
 11 12  1  0
 15 14  3  0
 16 17  1  0
  3 18  1  0
  4 19  1  0
  5 20  1  0
  8 21  1  0
 11 22  1  0
 13 23  1  0
 13 24  1  0
 16 25  1  0
 16 26  1  0
 17 27  1  0
 17 28  1  0
 17 29  1  0
M  ISO  8  18  14  19  14  20  14  21  14  22  14  25   8  26   8  27   8
M  ISO  2  28   8  29   8
M  END
>  <minimizedAffinity>  (1) 
-4.9010601

>  <minimizedRMSD>  (1) 
3.49249601

$$$$
