
     RDKit          3D

 34 35  0  0  1  0  0  0  0  0999 V2000
   45.6100   32.8460   46.5920 N   0  0  0  0  0  0  0  0  0  0  0  0
   45.1460   33.1270   47.9370 C   0  0  0  0  0  0  0  0  0  0  0  0
   45.8160   32.1420   48.8580 C   0  0  0  0  0  0  0  0  0  0  0  0
   45.3820   30.7530   48.5640 C   0  0  0  0  0  0  0  0  0  0  0  0
   45.3250   30.4940   47.0800 C   0  0  0  0  0  0  0  0  0  0  0  0
   46.1080   31.5560   46.3280 C   0  0  2  0  0  0  0  0  0  0  0  0
   46.1180   34.7250   43.4360 C   0  0  0  0  0  0  0  0  0  0  0  0
   46.2420   33.7230   44.4070 C   0  0  0  0  0  0  0  0  0  0  0  0
   45.5270   33.8230   45.5860 C   0  0  0  0  0  0  0  0  0  0  0  0
   44.7310   34.8980   45.7390 N   0  0  0  0  0  0  0  0  0  0  0  0
   44.6090   35.8700   44.8000 C   0  0  0  0  0  0  0  0  0  0  0  0
   45.3080   35.7730   43.6490 N   0  0  0  0  0  0  0  0  0  0  0  0
   46.9220   34.5760   42.1910 C   0  0  0  0  0  0  0  0  0  0  0  0
   46.1440   34.4090   41.0780 F   0  0  0  0  0  0  0  0  0  0  0  0
   47.7620   35.6990   42.1020 F   0  0  0  0  0  0  0  0  0  0  0  0
   47.8170   33.4980   42.3450 F   0  0  0  0  0  0  0  0  0  0  0  0
   47.5490   31.2540   46.3790 C   0  0  0  0  0  0  0  0  0  0  0  0
   47.8520   29.9180   45.6480 C   0  0  0  0  0  0  0  0  0  0  0  0
   45.4183   34.1539   48.2221 H   0  0  0  0  0  0  0  0  0  0  0  0
   44.0516   33.0344   47.9982 H   0  0  0  0  0  0  0  0  0  0  0  0
   46.9060   32.2128   48.7277 H   0  0  0  0  0  0  0  0  0  0  0  0
   45.5332   32.3841   49.8931 H   0  0  0  0  0  0  0  0  0  0  0  0
   46.0947   30.0514   49.0221 H   0  0  0  0  0  0  0  0  0  0  0  0
   44.3726   30.6121   48.9778 H   0  0  0  0  0  0  0  0  0  0  0  0
   45.7582   29.5055   46.8675 H   0  0  0  0  0  0  0  0  0  0  0  0
   44.2755   30.5245   46.7520 H   0  0  0  0  0  0  0  0  0  0  0  0
   45.9430   31.5377   45.2406 H   0  0  0  0  0  0  0  0  0  0  0  0
   46.9041   32.8621   44.2325 H   0  0  0  0  0  0  0  0  0  0  0  0
   43.9459   36.7300   44.9752 H   0  0  0  0  0  0  0  0  0  0  0  0
   48.1066   32.0675   45.8919 H   0  0  0  0  0  0  0  0  0  0  0  0
   47.8554   31.1606   47.4313 H   0  0  0  0  0  0  0  0  0  0  0  0
   48.0315   29.1264   46.3904 H   0  0  0  0  0  0  0  0  0  0  0  0
   46.9937   29.6419   45.0179 H   0  0  0  0  0  0  0  0  0  0  0  0
   48.7455   30.0392   45.0179 H   0  0  0  0  0  0  0  0  0  0  0  0
  1  2  1  0
  2  3  1  0
  4  3  1  0
  5  4  1  0
  6 17  1  0
  6  1  1  0
  6  5  1  0
  7 12  2  0
  7  8  1  0
  8  9  2  0
  9 10  1  0
  9  1  1  0
 11 10  2  0
 12 11  1  0
 13 16  1  0
 13  7  1  0
 14 13  1  0
 15 13  1  0
 18 17  1  0
  2 19  1  0
  2 20  1  0
  3 21  1  0
  3 22  1  0
  4 23  1  0
  4 24  1  0
  5 25  1  0
  5 26  1  0
  6 27  1  6
  8 28  1  0
 11 29  1  0
 17 30  1  0
 17 31  1  0
 18 32  1  0
 18 33  1  0
 18 34  1  0
M  ISO  8  19  13  20  13  21  13  22  13  23  13  24  13  25  13  26  13
M  ISO  8  27  13  28  14  29  14  30   8  31   8  32   8  33   8  34   8
M  END
>  <minimizedAffinity>  (1) 
-5.17120934

>  <minimizedRMSD>  (1) 
0.588196933

$$$$
