
     RDKit          3D

 30 31  0  0  1  0  0  0  0  0999 V2000
   46.2560   30.9700   46.7310 C   0  0  0  0  0  0  0  0  0  0  0  0
   45.8760   31.5610   48.0720 C   0  0  1  0  0  0  0  0  0  0  0  0
   45.5140   30.6590   49.1860 C   0  0  0  0  0  0  0  0  0  0  0  0
   46.7950   31.3390   49.2290 C   0  0  1  0  0  0  0  0  0  0  0  0
   48.1240   30.7130   49.0370 C   0  0  0  0  0  0  0  0  0  0  0  0
   49.3240   31.4950   49.3870 C   0  0  0  0  0  0  0  0  0  0  0  0
   45.8170   33.2060   46.0070 C   0  0  0  0  0  0  0  0  0  0  0  0
   46.0360   31.9890   45.6350 C   0  0  0  0  0  0  0  0  0  0  0  0
   44.5510   36.1790   44.2710 C   0  0  0  0  0  0  0  0  0  0  0  0
   45.2400   36.1550   43.0520 C   0  0  0  0  0  0  0  0  0  0  0  0
   46.1170   35.1160   42.8510 C   0  0  0  0  0  0  0  0  0  0  0  0
   46.2540   34.2040   43.8260 N   0  0  0  0  0  0  0  0  0  0  0  0
   45.5970   34.2290   44.9880 C   0  0  0  0  0  0  0  0  0  0  0  0
   44.7570   35.2230   45.1820 N   0  0  0  0  0  0  0  0  0  0  0  0
   47.3163   30.6778   46.7491 H   0  0  0  0  0  0  0  0  0  0  0  0
   45.6290   30.0878   46.5347 H   0  0  0  0  0  0  0  0  0  0  0  0
   45.4065   32.4294   47.5867 H   0  0  0  0  0  0  0  0  0  0  0  0
   44.7177   30.9492   49.8872 H   0  0  0  0  0  0  0  0  0  0  0  0
   45.1978   29.6076   49.2537 H   0  0  0  0  0  0  0  0  0  0  0  0
   47.2899   31.9506   49.9978 H   0  0  0  0  0  0  0  0  0  0  0  0
   48.1433   29.7973   49.6462 H   0  0  0  0  0  0  0  0  0  0  0  0
   48.2015   30.5707   47.9490 H   0  0  0  0  0  0  0  0  0  0  0  0
   49.4162   31.5551   50.4815 H   0  0  0  0  0  0  0  0  0  0  0  0
   50.2159   31.0042   48.9703 H   0  0  0  0  0  0  0  0  0  0  0  0
   49.2352   32.5091   48.9703 H   0  0  0  0  0  0  0  0  0  0  0  0
   45.7964   33.4683   47.0751 H   0  0  0  0  0  0  0  0  0  0  0  0
   46.0614   31.7069   44.5721 H   0  0  0  0  0  0  0  0  0  0  0  0
   43.8365   36.9889   44.4798 H   0  0  0  0  0  0  0  0  0  0  0  0
   45.0862   36.9328   42.2896 H   0  0  0  0  0  0  0  0  0  0  0  0
   46.6911   35.0342   41.9163 H   0  0  0  0  0  0  0  0  0  0  0  0
  1  2  1  0
  2  3  1  0
  2  4  1  0
  3  4  1  0
  5  4  1  0
  5  6  1  0
  8  7  2  0
  8  1  1  0
  9 14  2  0
 10  9  1  0
 11 10  2  0
 11 12  1  0
 12 13  2  0
 13 14  1  0
 13  7  1  0
  1 15  1  0
  1 16  1  0
  2 17  1  6
  3 18  1  0
  3 19  1  0
  4 20  1  1
  5 21  1  0
  5 22  1  0
  6 23  1  0
  6 24  1  0
  6 25  1  0
  7 26  1  0
  8 27  1  0
  9 28  1  0
 10 29  1  0
 11 30  1  0
M  ISO  8  15   8  16   8  17  13  18  13  19  13  20  13  21   8  22   8
M  ISO  6  23   8  24   8  25   8  28  14  29  14  30  14
M  END
>  <minimizedAffinity>  (1) 
-4.40022945

>  <minimizedRMSD>  (1) 
1.2166909

$$$$
