
     RDKit          3D

 41 43  0  0  1  0  0  0  0  0999 V2000
   47.1710   32.2060   46.4840 C   0  0  2  0  0  0  0  0  0  0  0  0
   47.0950   30.7770   46.0090 C   0  0  0  0  0  0  0  0  0  0  0  0
   47.9680   29.9450   46.9270 C   0  0  0  0  0  0  0  0  0  0  0  0
   47.8200   30.1950   48.3790 C   0  0  0  0  0  0  0  0  0  0  0  0
   47.6470   31.6160   48.7590 C   0  0  0  0  0  0  0  0  0  0  0  0
   46.5960   32.2630   47.8460 C   0  0  2  0  0  0  0  0  0  0  0  0
   46.6010   33.1760   45.5590 C   0  0  0  0  0  0  0  0  0  0  0  0
   45.5010   33.9230   45.9760 C   0  0  0  0  0  0  0  0  0  0  0  0
   44.9350   34.8370   45.0770 C   0  0  0  0  0  0  0  0  0  0  0  0
   45.5010   34.9420   43.8290 N   0  0  0  0  0  0  0  0  0  0  0  0
   46.5710   34.1870   43.4860 C   0  0  0  0  0  0  0  0  0  0  0  0
   47.1260   33.3130   44.3210 N   0  0  0  0  0  0  0  0  0  0  0  0
   47.1200   34.3570   42.1370 C   0  0  0  0  0  0  0  0  0  0  0  0
   48.1670   35.2280   41.9190 C   0  0  0  0  0  0  0  0  0  0  0  0
   48.7530   35.4660   40.6940 C   0  0  0  0  0  0  0  0  0  0  0  0
   48.1820   34.7290   39.6480 C   0  0  0  0  0  0  0  0  0  0  0  0
   47.1240   33.8410   39.8380 C   0  0  0  0  0  0  0  0  0  0  0  0
   46.6140   33.6770   41.0910 N   0  0  0  0  0  0  0  0  0  0  0  0
   45.3680   31.4890   48.1160 C   0  0  0  0  0  0  0  0  0  0  0  0
   44.8760   31.3320   49.4940 C   0  0  0  0  0  0  0  0  0  0  0  0
   48.2260   32.5150   46.5215 H   0  0  0  0  0  0  0  0  0  0  0  0
   46.0553   30.4208   46.0548 H   0  0  0  0  0  0  0  0  0  0  0  0
   47.4400   30.6959   44.9676 H   0  0  0  0  0  0  0  0  0  0  0  0
   47.7330   28.8861   46.7438 H   0  0  0  0  0  0  0  0  0  0  0  0
   49.0025   30.2297   46.6848 H   0  0  0  0  0  0  0  0  0  0  0  0
   46.9394   29.6385   48.7323 H   0  0  0  0  0  0  0  0  0  0  0  0
   48.7618   29.8670   48.8431 H   0  0  0  0  0  0  0  0  0  0  0  0
   47.3127   31.6782   49.8051 H   0  0  0  0  0  0  0  0  0  0  0  0
   48.6051   32.1452   48.6494 H   0  0  0  0  0  0  0  0  0  0  0  0
   46.3364   33.3208   47.9997 H   0  0  0  0  0  0  0  0  0  0  0  0
   45.0866   33.7981   46.9873 H   0  0  0  0  0  0  0  0  0  0  0  0
   44.0667   35.4499   45.3607 H   0  0  0  0  0  0  0  0  0  0  0  0
   48.5642   35.7736   42.7876 H   0  0  0  0  0  0  0  0  0  0  0  0
   49.5885   36.1671   40.5514 H   0  0  0  0  0  0  0  0  0  0  0  0
   48.5860   34.8565   38.6328 H   0  0  0  0  0  0  0  0  0  0  0  0
   46.7068   33.2806   38.9883 H   0  0  0  0  0  0  0  0  0  0  0  0
   44.5599   31.9693   47.5449 H   0  0  0  0  0  0  0  0  0  0  0  0
   45.6526   30.4643   47.8349 H   0  0  0  0  0  0  0  0  0  0  0  0
   45.6786   31.5881   50.2013 H   0  0  0  0  0  0  0  0  0  0  0  0
   44.0178   32.0009   49.6554 H   0  0  0  0  0  0  0  0  0  0  0  0
   44.5639   30.2896   49.6554 H   0  0  0  0  0  0  0  0  0  0  0  0
  1  6  1  0
  2  1  1  0
  2  3  1  0
  3  4  1  0
  4  5  1  0
  6 19  1  0
  6  5  1  0
  7  8  2  0
  7  1  1  0
  9  8  1  0
 10  9  2  0
 11 10  1  0
 11 12  2  0
 12  7  1  0
 13 11  1  0
 14 13  2  0
 15 14  1  0
 16 17  1  0
 16 15  2  0
 17 18  2  0
 18 13  1  0
 19 20  1  0
  1 21  1  1
  2 22  1  0
  2 23  1  0
  3 24  1  0
  3 25  1  0
  4 26  1  0
  4 27  1  0
  5 28  1  0
  5 29  1  0
  6 30  1  1
  8 31  1  0
  9 32  1  0
 14 33  1  0
 15 34  1  0
 16 35  1  0
 17 36  1  0
 19 37  1  0
 19 38  1  0
 20 39  1  0
 20 40  1  0
 20 41  1  0
M  ISO  8  21  13  22  13  23  13  24  13  25  13  26  13  27  13  28  13
M  ISO  8  29  13  30  13  31  14  32  14  33  14  34  14  35  14  36  14
M  ISO  5  37   8  38   8  39   8  40   8  41   8
M  END
>  <minimizedAffinity>  (1) 
-6.10159254

>  <minimizedRMSD>  (1) 
1.18542826

$$$$
