
     RDKit          3D

 37 39  0  0  1  0  0  0  0  0999 V2000
   46.2640   30.8930   46.7190 C   0  0  0  0  0  0  0  0  0  0  0  0
   46.0140   31.5560   48.0520 C   0  0  1  0  0  0  0  0  0  0  0  0
   45.7640   30.6600   49.2110 C   0  0  0  0  0  0  0  0  0  0  0  0
   47.0060   31.4060   49.1420 C   0  0  1  0  0  0  0  0  0  0  0  0
   48.3230   30.8250   48.7990 C   0  0  0  0  0  0  0  0  0  0  0  0
   49.1880   30.4220   50.0230 C   0  0  0  0  0  0  0  0  0  0  0  0
   49.5600   31.6320   49.2540 C   0  0  0  0  0  0  0  0  0  0  0  0
   45.8990   33.1110   45.9630 C   0  0  0  0  0  0  0  0  0  0  0  0
   46.0940   31.9050   45.5980 C   0  0  0  0  0  0  0  0  0  0  0  0
   44.6800   36.0630   44.1360 C   0  0  0  0  0  0  0  0  0  0  0  0
   45.3680   35.9930   42.9310 C   0  0  0  0  0  0  0  0  0  0  0  0
   46.2380   34.9570   42.7670 C   0  0  0  0  0  0  0  0  0  0  0  0
   46.3830   34.0610   43.7730 N   0  0  0  0  0  0  0  0  0  0  0  0
   45.7150   34.1290   44.9370 C   0  0  0  0  0  0  0  0  0  0  0  0
   44.8700   35.1450   45.0880 N   0  0  0  0  0  0  0  0  0  0  0  0
   47.0480   34.7580   41.5180 C   0  0  0  0  0  0  0  0  0  0  0  0
   48.3820   35.4480   41.8050 C   0  0  0  0  0  0  0  0  0  0  0  0
   47.2885   30.4930   46.6970 H   0  0  0  0  0  0  0  0  0  0  0  0
   45.5422   30.0745   46.5806 H   0  0  0  0  0  0  0  0  0  0  0  0
   45.5139   32.4133   47.5777 H   0  0  0  0  0  0  0  0  0  0  0  0
   45.0032   30.9295   49.9584 H   0  0  0  0  0  0  0  0  0  0  0  0
   45.5043   29.5973   49.3264 H   0  0  0  0  0  0  0  0  0  0  0  0
   47.5135   32.0490   49.8762 H   0  0  0  0  0  0  0  0  0  0  0  0
   47.9893   30.3576   47.8609 H   0  0  0  0  0  0  0  0  0  0  0  0
   48.7789   30.5243   51.0389 H   0  0  0  0  0  0  0  0  0  0  0  0
   49.7187   29.5066   50.3237 H   0  0  0  0  0  0  0  0  0  0  0  0
   50.4710   31.6277   48.6374 H   0  0  0  0  0  0  0  0  0  0  0  0
   49.7353   32.6855   49.5174 H   0  0  0  0  0  0  0  0  0  0  0  0
   45.8703   33.3772   47.0299 H   0  0  0  0  0  0  0  0  0  0  0  0
   46.1365   31.6151   44.5377 H   0  0  0  0  0  0  0  0  0  0  0  0
   43.9696   36.8849   44.3085 H   0  0  0  0  0  0  0  0  0  0  0  0
   45.2166   36.7435   42.1412 H   0  0  0  0  0  0  0  0  0  0  0  0
   46.5493   35.2222   40.6544 H   0  0  0  0  0  0  0  0  0  0  0  0
   47.1752   33.6939   41.2702 H   0  0  0  0  0  0  0  0  0  0  0  0
   48.5290   35.5240   42.8925 H   0  0  0  0  0  0  0  0  0  0  0  0
   49.2010   34.8604   41.3645 H   0  0  0  0  0  0  0  0  0  0  0  0
   48.3757   36.4559   41.3645 H   0  0  0  0  0  0  0  0  0  0  0  0
  1  2  1  0
  2  4  1  0
  2  3  1  0
  4  3  1  0
  5  4  1  0
  5  7  1  0
  5  6  1  0
  7  6  1  0
  9  8  2  0
  9  1  1  0
 10 15  2  0
 11 10  1  0
 12 11  2  0
 12 13  1  0
 13 14  2  0
 14 15  1  0
 14  8  1  0
 16 17  1  0
 16 12  1  0
  1 18  1  0
  1 19  1  0
  2 20  1  6
  3 21  1  0
  3 22  1  0
  4 23  1  1
  5 24  1  0
  6 25  1  0
  6 26  1  0
  7 27  1  0
  7 28  1  0
  8 29  1  0
  9 30  1  0
 10 31  1  0
 11 32  1  0
 16 33  1  0
 16 34  1  0
 17 35  1  0
 17 36  1  0
 17 37  1  0
M  ISO  8  18   8  19   8  20  13  21  13  22  13  23  13  24  13  25  13
M  ISO  8  26  13  27  13  28  13  31  14  32  14  33   8  34   8  35   8
M  ISO  2  36   8  37   8
M  END
>  <minimizedAffinity>  (1) 
-5.12635612

>  <minimizedRMSD>  (1) 
0.716812074

$$$$
