
     RDKit          3D

 33 35  0  0  0  0  0  0  0  0999 V2000
   45.2860   34.0330   43.3520 C   0  0  0  0  0  0  0  0  0  0  0  0
   46.0060   34.9300   42.5710 C   0  0  0  0  0  0  0  0  0  0  0  0
   45.1640   35.4850   41.6560 C   0  0  0  0  0  0  0  0  0  0  0  0
   43.9610   34.9440   41.8680 N   0  0  0  0  0  0  0  0  0  0  0  0
   44.0450   34.0770   42.8850 N   0  0  0  0  0  0  0  0  0  0  0  0
   43.6290   34.6580   39.0740 F   0  0  0  0  0  0  0  0  0  0  0  0
   42.5810   35.0420   39.8370 C   0  0  0  0  0  0  0  0  0  0  0  0
   42.7550   35.1780   41.1960 C   0  0  0  0  0  0  0  0  0  0  0  0
   41.6860   35.5700   41.9840 C   0  0  0  0  0  0  0  0  0  0  0  0
   40.4380   35.8360   41.4670 C   0  0  0  0  0  0  0  0  0  0  0  0
   40.2990   35.6910   40.1060 C   0  0  0  0  0  0  0  0  0  0  0  0
   41.3360   35.3030   39.2900 C   0  0  0  0  0  0  0  0  0  0  0  0
   41.2130   35.1350   37.8150 C   0  0  0  0  0  0  0  0  0  0  0  0
   41.3100   36.4780   37.1220 C   0  0  0  0  0  0  0  0  0  0  0  0
   47.1160   31.4470   45.1820 C   0  0  0  0  0  0  0  0  0  0  0  0
   46.8680   31.7760   46.5180 C   0  0  0  0  0  0  0  0  0  0  0  0
   46.0630   32.9010   46.7830 C   0  0  0  0  0  0  0  0  0  0  0  0
   45.5890   33.5790   45.7090 N   0  0  0  0  0  0  0  0  0  0  0  0
   45.8400   33.2420   44.4380 C   0  0  0  0  0  0  0  0  0  0  0  0
   46.6100   32.1680   44.1620 N   0  0  0  0  0  0  0  0  0  0  0  0
   47.0779   35.1541   42.6750 H   0  0  0  0  0  0  0  0  0  0  0  0
   45.4235   36.2325   40.8919 H   0  0  0  0  0  0  0  0  0  0  0  0
   41.8403   35.6732   43.0682 H   0  0  0  0  0  0  0  0  0  0  0  0
   39.5988   36.1471   42.1065 H   0  0  0  0  0  0  0  0  0  0  0  0
   39.3180   35.8937   39.6516 H   0  0  0  0  0  0  0  0  0  0  0  0
   42.0221   34.4822   37.4556 H   0  0  0  0  0  0  0  0  0  0  0  0
   40.2355   34.6850   37.5869 H   0  0  0  0  0  0  0  0  0  0  0  0
   41.3677   37.2765   37.8763 H   0  0  0  0  0  0  0  0  0  0  0  0
   42.2122   36.5018   36.4931 H   0  0  0  0  0  0  0  0  0  0  0  0
   40.4206   36.6312   36.4931 H   0  0  0  0  0  0  0  0  0  0  0  0
   47.7437   30.5723   44.9563 H   0  0  0  0  0  0  0  0  0  0  0  0
   47.2888   31.1746   47.3373 H   0  0  0  0  0  0  0  0  0  0  0  0
   45.8302   33.2142   47.8114 H   0  0  0  0  0  0  0  0  0  0  0  0
  1 19  1  0
  2  1  1  0
  3  4  1  0
  3  2  2  0
  4  5  1  0
  5  1  2  0
  6  7  1  0
  7  8  2  0
  8  4  1  0
  8  9  1  0
 10  9  2  0
 11 10  1  0
 12  7  1  0
 12 11  2  0
 13 12  1  0
 14 13  1  0
 15 16  2  0
 16 17  1  0
 18 17  2  0
 19 18  1  0
 20 19  2  0
 20 15  1  0
  2 21  1  0
  3 22  1  0
  9 23  1  0
 10 24  1  0
 11 25  1  0
 13 26  1  0
 13 27  1  0
 14 28  1  0
 14 29  1  0
 14 30  1  0
 15 31  1  0
 16 32  1  0
 17 33  1  0
M  ISO  8  21  14  22  14  23  14  24  14  25  14  26   8  27   8  28   8
M  ISO  5  29   8  30   8  31  14  32  14  33  14
M  END
>  <minimizedAffinity>  (1) 
-4.83907986

>  <minimizedRMSD>  (1) 
2.12251616

$$$$
