
     RDKit          3D

 29 30  0  0  0  0  0  0  0  0999 V2000
   45.8310   30.0120   44.4850 Br  0  0  0  0  0  0  0  0  0  0  0  0
   45.7380   30.6290   46.3060 C   0  0  0  0  0  0  0  0  0  0  0  0
   46.3460   31.8330   46.5650 C   0  0  0  0  0  0  0  0  0  0  0  0
   46.2550   32.2560   47.8940 C   0  0  0  0  0  0  0  0  0  0  0  0
   45.6090   31.5310   48.8770 C   0  0  0  0  0  0  0  0  0  0  0  0
   45.0320   30.3450   48.5360 C   0  0  0  0  0  0  0  0  0  0  0  0
   45.0810   29.8570   47.2280 C   0  0  0  0  0  0  0  0  0  0  0  0
   47.0570   32.6870   45.6020 C   0  0  0  0  0  0  0  0  0  0  0  0
   44.5270   35.3980   45.1990 C   0  0  0  0  0  0  0  0  0  0  0  0
   44.7490   35.8140   43.8850 C   0  0  0  0  0  0  0  0  0  0  0  0
   45.7570   35.1580   43.1720 C   0  0  0  0  0  0  0  0  0  0  0  0
   46.4590   34.1700   43.7660 N   0  0  0  0  0  0  0  0  0  0  0  0
   46.2110   33.7920   45.0540 C   0  0  0  0  0  0  0  0  0  0  0  0
   45.2460   34.4150   45.7510 N   0  0  0  0  0  0  0  0  0  0  0  0
   44.4380   28.5550   46.9270 C   0  0  0  0  0  0  0  0  0  0  0  0
   44.9280   27.4950   47.9260 C   0  0  0  0  0  0  0  0  0  0  0  0
   46.7206   33.2133   48.1711 H   0  0  0  0  0  0  0  0  0  0  0  0
   45.5617   31.9029   49.9111 H   0  0  0  0  0  0  0  0  0  0  0  0
   44.5151   29.7575   49.3091 H   0  0  0  0  0  0  0  0  0  0  0  0
   47.9281   33.1312   46.1059 H   0  0  0  0  0  0  0  0  0  0  0  0
   47.3490   32.0493   44.7546 H   0  0  0  0  0  0  0  0  0  0  0  0
   43.7431   35.8899   45.7936 H   0  0  0  0  0  0  0  0  0  0  0  0
   44.1570   36.6222   43.4307 H   0  0  0  0  0  0  0  0  0  0  0  0
   45.9766   35.4454   42.1332 H   0  0  0  0  0  0  0  0  0  0  0  0
   43.3459   28.6583   47.0091 H   0  0  0  0  0  0  0  0  0  0  0  0
   44.7026   28.2443   45.9055 H   0  0  0  0  0  0  0  0  0  0  0  0
   44.7620   27.8540   48.9524 H   0  0  0  0  0  0  0  0  0  0  0  0
   44.3711   26.5593   47.7703 H   0  0  0  0  0  0  0  0  0  0  0  0
   46.0016   27.3130   47.7703 H   0  0  0  0  0  0  0  0  0  0  0  0
  1  2  1  0
  2  3  2  0
  2  7  1  0
  3  4  1  0
  4  5  2  0
  6  5  1  0
  7  6  2  0
  8  3  1  0
  9 14  2  0
 10  9  1  0
 11 12  1  0
 11 10  2  0
 12 13  2  0
 13  8  1  0
 13 14  1  0
 15  7  1  0
 15 16  1  0
  4 17  1  0
  5 18  1  0
  6 19  1  0
  8 20  1  0
  8 21  1  0
  9 22  1  0
 10 23  1  0
 11 24  1  0
 15 25  1  0
 15 26  1  0
 16 27  1  0
 16 28  1  0
 16 29  1  0
M  ISO  8  17  14  18  14  19  14  20   8  21   8  22  14  23  14  24  14
M  ISO  5  25   8  26   8  27   8  28   8  29   8
M  END
>  <minimizedAffinity>  (1) 
-4.69032621

>  <minimizedRMSD>  (1) 
0.673818767

$$$$
