
     RDKit          3D

 23 24  0  0  0  0  0  0  0  0999 V2000
   45.2120   35.1390   43.6560 C   0  0  0  0  0  0  0  0  0  0  0  0
   46.2530   35.2260   42.7170 C   0  0  0  0  0  0  0  0  0  0  0  0
   47.3590   34.4240   42.9480 C   0  0  0  0  0  0  0  0  0  0  0  0
   47.3960   33.6030   44.0500 N   0  0  0  0  0  0  0  0  0  0  0  0
   46.3690   33.5470   44.9360 C   0  0  0  0  0  0  0  0  0  0  0  0
   45.2890   34.3180   44.7240 N   0  0  0  0  0  0  0  0  0  0  0  0
   48.5170   34.4220   41.9920 C   0  0  0  0  0  0  0  0  0  0  0  0
   48.9260   35.8060   41.5360 C   0  0  0  0  0  0  0  0  0  0  0  0
   49.8050   34.9170   42.4580 C   0  0  0  0  0  0  0  0  0  0  0  0
   46.5770   32.6040   46.0660 C   0  0  0  0  0  0  0  0  0  0  0  0
   45.5520   32.8240   47.1610 C   0  0  0  0  0  0  0  0  0  0  0  0
   44.3116   35.7555   43.5172 H   0  0  0  0  0  0  0  0  0  0  0  0
   46.1934   35.8946   41.8455 H   0  0  0  0  0  0  0  0  0  0  0  0
   48.2296   33.4807   41.5007 H   0  0  0  0  0  0  0  0  0  0  0  0
   49.2174   35.9868   40.4908 H   0  0  0  0  0  0  0  0  0  0  0  0
   48.4971   36.8180   41.5784 H   0  0  0  0  0  0  0  0  0  0  0  0
   49.9395   35.1873   43.5158 H   0  0  0  0  0  0  0  0  0  0  0  0
   50.8394   34.5446   42.4205 H   0  0  0  0  0  0  0  0  0  0  0  0
   46.4881   31.5728   45.6935 H   0  0  0  0  0  0  0  0  0  0  0  0
   47.5782   32.7802   46.4863 H   0  0  0  0  0  0  0  0  0  0  0  0
   46.0365   32.7200   48.1431 H   0  0  0  0  0  0  0  0  0  0  0  0
   45.1263   33.8340   47.0673 H   0  0  0  0  0  0  0  0  0  0  0  0
   44.7494   32.0777   47.0673 H   0  0  0  0  0  0  0  0  0  0  0  0
  1  6  2  0
  2  3  2  0
  2  1  1  0
  3  4  1  0
  4  5  2  0
  5 10  1  0
  6  5  1  0
  7  9  1  0
  7  3  1  0
  8  7  1  0
  8  9  1  0
 10 11  1  0
  1 12  1  0
  2 13  1  0
  7 14  1  0
  8 15  1  0
  8 16  1  0
  9 17  1  0
  9 18  1  0
 10 19  1  0
 10 20  1  0
 11 21  1  0
 11 22  1  0
 11 23  1  0
M  ISO  8  12  14  13  14  14  13  15  13  16  13  17  13  18  13  19   8
M  ISO  4  20   8  21   8  22   8  23   8
M  END
>  <minimizedAffinity>  (1) 
-4.15949345

>  <minimizedRMSD>  (1) 
1.1877172

$$$$
