
     RDKit          3D

 34 35  0  0  0  0  0  0  0  0999 V2000
   42.3720   34.1670   40.8220 C   0  0  0  0  0  0  0  0  0  0  0  0
   42.2790   34.1660   39.3360 C   0  0  0  0  0  0  0  0  0  0  0  0
   41.6600   35.4010   38.7910 C   0  0  0  0  0  0  0  0  0  0  0  0
   40.2920   35.6680   39.4010 C   0  0  0  0  0  0  0  0  0  0  0  0
   40.2670   35.5360   40.8880 C   0  0  0  0  0  0  0  0  0  0  0  0
   41.6420   35.3200   41.4660 C   0  0  0  0  0  0  0  0  0  0  0  0
   43.7720   34.2420   41.2940 C   0  0  0  0  0  0  0  0  0  0  0  0
   43.9650   34.3120   42.6760 C   0  0  0  0  0  0  0  0  0  0  0  0
   45.2570   34.3860   43.1900 C   0  0  0  0  0  0  0  0  0  0  0  0
   46.2890   34.3850   42.2690 N   0  0  0  0  0  0  0  0  0  0  0  0
   46.0740   34.3170   40.9300 C   0  0  0  0  0  0  0  0  0  0  0  0
   44.8280   34.2450   40.4490 N   0  0  0  0  0  0  0  0  0  0  0  0
   47.2370   34.3280   40.1070 N   0  0  0  0  0  0  0  0  0  0  0  0
   45.5000   34.4610   44.6360 C   0  0  0  0  0  0  0  0  0  0  0  0
   44.5820   35.4900   45.2460 C   0  0  0  0  0  0  0  0  0  0  0  0
   41.9045   33.2159   41.1167 H   0  0  0  0  0  0  0  0  0  0  0  0
   43.2935   34.0705   38.9217 H   0  0  0  0  0  0  0  0  0  0  0  0
   41.6357   33.3216   39.0478 H   0  0  0  0  0  0  0  0  0  0  0  0
   42.3189   36.2546   39.0085 H   0  0  0  0  0  0  0  0  0  0  0  0
   41.5291   35.2665   37.7071 H   0  0  0  0  0  0  0  0  0  0  0  0
   39.9868   36.6913   39.1371 H   0  0  0  0  0  0  0  0  0  0  0  0
   39.6042   34.9104   38.9973 H   0  0  0  0  0  0  0  0  0  0  0  0
   39.8430   36.4556   41.3177 H   0  0  0  0  0  0  0  0  0  0  0  0
   39.6550   34.6567   41.1376 H   0  0  0  0  0  0  0  0  0  0  0  0
   41.5428   35.1161   42.5424 H   0  0  0  0  0  0  0  0  0  0  0  0
   42.2283   36.2311   41.2759 H   0  0  0  0  0  0  0  0  0  0  0  0
   43.0998   34.3087   43.3553 H   0  0  0  0  0  0  0  0  0  0  0  0
   47.1434   34.2789   39.0824 H   0  0  0  0  0  0  0  0  0  0  0  0
   48.1714   34.3851   40.5366 H   0  0  0  0  0  0  0  0  0  0  0  0
   45.3052   33.4792   45.0922 H   0  0  0  0  0  0  0  0  0  0  0  0
   46.5461   34.7482   44.8181 H   0  0  0  0  0  0  0  0  0  0  0  0
   44.6381   35.4271   46.3428 H   0  0  0  0  0  0  0  0  0  0  0  0
   44.8893   36.4947   44.9201 H   0  0  0  0  0  0  0  0  0  0  0  0
   43.5489   35.2989   44.9201 H   0  0  0  0  0  0  0  0  0  0  0  0
  1  7  1  0
  1  6  1  0
  2  1  1  0
  3  2  1  0
  3  4  1  0
  4  5  1  0
  5  6  1  0
  7  8  2  0
  8  9  1  0
  9 14  1  0
 10  9  2  0
 11 10  1  0
 12 11  2  0
 12  7  1  0
 13 11  1  0
 14 15  1  0
  1 16  1  0
  2 17  1  0
  2 18  1  0
  3 19  1  0
  3 20  1  0
  4 21  1  0
  4 22  1  0
  5 23  1  0
  5 24  1  0
  6 25  1  0
  6 26  1  0
  8 27  1  0
 13 28  1  0
 13 29  1  0
 14 30  1  0
 14 31  1  0
 15 32  1  0
 15 33  1  0
 15 34  1  0
M  ISO  8  16  13  17  13  18  13  19  13  20  13  21  13  22  13  23  13
M  ISO  8  24  13  25  13  26  13  27  14  30   8  31   8  32   8  33   8
M  ISO  1  34   8
M  END
>  <minimizedAffinity>  (1) 
-4.50484324

>  <minimizedRMSD>  (1) 
5.24248648

$$$$
