
     RDKit          3D

 36 38  0  0  0  0  0  0  0  0999 V2000
   44.8150   33.5430   41.2860 F   0  0  0  0  0  0  0  0  0  0  0  0
   46.0590   34.1120   41.1180 C   0  0  0  0  0  0  0  0  0  0  0  0
   46.6610   34.7620   42.1460 C   0  0  0  0  0  0  0  0  0  0  0  0
   47.9550   35.1940   41.9100 C   0  0  0  0  0  0  0  0  0  0  0  0
   48.6110   34.9820   40.7150 C   0  0  0  0  0  0  0  0  0  0  0  0
   47.9000   34.3120   39.7510 C   0  0  0  0  0  0  0  0  0  0  0  0
   46.6310   33.8680   39.9060 C   0  0  0  0  0  0  0  0  0  0  0  0
   46.0220   33.2320   38.7760 C   0  0  0  0  0  0  0  0  0  0  0  0
   44.8510   32.4990   39.0010 C   0  0  0  0  0  0  0  0  0  0  0  0
   44.3330   31.8010   37.9330 C   0  0  0  0  0  0  0  0  0  0  0  0
   44.9600   31.8250   36.6730 C   0  0  0  0  0  0  0  0  0  0  0  0
   46.1340   32.5890   36.5250 C   0  0  0  0  0  0  0  0  0  0  0  0
   46.6810   33.3050   37.5670 C   0  0  0  0  0  0  0  0  0  0  0  0
   47.8440   34.0680   37.1140 C   0  0  0  0  0  0  0  0  0  0  0  0
   48.8270   33.2540   36.2540 C   0  0  0  0  0  0  0  0  0  0  0  0
   44.4280   36.0340   44.9040 C   0  0  0  0  0  0  0  0  0  0  0  0
   45.0870   35.9520   43.6690 C   0  0  0  0  0  0  0  0  0  0  0  0
   45.9430   34.9120   43.3950 C   0  0  0  0  0  0  0  0  0  0  0  0
   46.0770   34.0160   44.3950 N   0  0  0  0  0  0  0  0  0  0  0  0
   45.4550   34.0890   45.5700 C   0  0  0  0  0  0  0  0  0  0  0  0
   44.6290   35.1010   45.8220 N   0  0  0  0  0  0  0  0  0  0  0  0
   48.4840   35.7305   42.7115 H   0  0  0  0  0  0  0  0  0  0  0  0
   49.6410   35.3288   40.5452 H   0  0  0  0  0  0  0  0  0  0  0  0
   48.3952   34.1231   38.7871 H   0  0  0  0  0  0  0  0  0  0  0  0
   44.3657   32.4813   39.9880 H   0  0  0  0  0  0  0  0  0  0  0  0
   43.4124   31.2140   38.0670 H   0  0  0  0  0  0  0  0  0  0  0  0
   44.5436   31.2612   35.8252 H   0  0  0  0  0  0  0  0  0  0  0  0
   46.6310   32.6148   35.5440 H   0  0  0  0  0  0  0  0  0  0  0  0
   47.4878   34.9217   36.5187 H   0  0  0  0  0  0  0  0  0  0  0  0
   48.3915   34.3810   38.0153 H   0  0  0  0  0  0  0  0  0  0  0  0
   49.5076   32.6904   36.9092 H   0  0  0  0  0  0  0  0  0  0  0  0
   48.2652   32.5531   35.6191 H   0  0  0  0  0  0  0  0  0  0  0  0
   49.4109   33.9366   35.6191 H   0  0  0  0  0  0  0  0  0  0  0  0
   43.7454   36.8717   45.1099 H   0  0  0  0  0  0  0  0  0  0  0  0
   44.9168   36.7297   42.9099 H   0  0  0  0  0  0  0  0  0  0  0  0
   45.6239   33.3134   46.3315 H   0  0  0  0  0  0  0  0  0  0  0  0
  2  1  1  0
  2  3  2  0
  3 18  1  0
  4  3  1  0
  5  4  2  0
  6  7  2  0
  6  5  1  0
  7  2  1  0
  8  9  2  0
  8  7  1  0
 10  9  1  0
 11 10  2  0
 12 11  1  0
 12 13  2  0
 13  8  1  0
 14 13  1  0
 15 14  1  0
 16 21  2  0
 17 16  1  0
 18 17  2  0
 18 19  1  0
 19 20  2  0
 20 21  1  0
  4 22  1  0
  5 23  1  0
  6 24  1  0
  9 25  1  0
 10 26  1  0
 11 27  1  0
 12 28  1  0
 14 29  1  0
 14 30  1  0
 15 31  1  0
 15 32  1  0
 15 33  1  0
 16 34  1  0
 17 35  1  0
 20 36  1  0
M  ISO  8  22  14  23  14  24  14  25  14  26  14  27  14  28  14  29   8
M  ISO  7  30   8  31   8  32   8  33   8  34  14  35  14  36  14
M  END
>  <minimizedAffinity>  (1) 
-5.88532686

>  <minimizedRMSD>  (1) 
0.558065891

$$$$
