
     RDKit          3D

 30 32  0  0  0  0  0  0  0  0999 V2000
   47.5190   33.4660   39.9870 C   0  0  0  0  0  0  0  0  0  0  0  0
   48.8800   33.1920   40.2080 C   0  0  0  0  0  0  0  0  0  0  0  0
   49.3770   33.2870   41.5200 C   0  0  0  0  0  0  0  0  0  0  0  0
   48.4970   33.6420   42.5010 N   0  0  0  0  0  0  0  0  0  0  0  0
   47.2070   33.8940   42.2450 C   0  0  0  0  0  0  0  0  0  0  0  0
   46.7190   33.8070   41.0010 N   0  0  0  0  0  0  0  0  0  0  0  0
   46.3480   34.2590   43.3370 N   0  0  0  0  0  0  0  0  0  0  0  0
   45.4280   35.2560   43.3380 C   0  0  0  0  0  0  0  0  0  0  0  0
   44.8240   35.2710   44.5570 N   0  0  0  0  0  0  0  0  0  0  0  0
   45.3860   34.2840   45.2790 C   0  0  0  0  0  0  0  0  0  0  0  0
   45.1960   33.8180   46.5580 C   0  0  0  0  0  0  0  0  0  0  0  0
   45.8990   32.7960   47.0530 N   0  0  0  0  0  0  0  0  0  0  0  0
   46.8320   32.1640   46.3290 C   0  0  0  0  0  0  0  0  0  0  0  0
   47.0150   32.6250   45.0770 N   0  0  0  0  0  0  0  0  0  0  0  0
   46.3390   33.6450   44.5290 C   0  0  0  0  0  0  0  0  0  0  0  0
   44.2340   34.3990   47.4160 N   0  0  0  0  0  0  0  0  0  0  0  0
   46.9720   33.3180   38.2730 S   0  0  0  0  0  0  0  0  0  0  0  0
   48.2280   34.0450   37.1900 C   0  0  0  0  0  0  0  0  0  0  0  0
   48.5950   33.1100   36.0660 C   0  0  0  0  0  0  0  0  0  0  0  0
   49.5403   32.9101   39.3746 H   0  0  0  0  0  0  0  0  0  0  0  0
   50.4339   33.0831   41.7468 H   0  0  0  0  0  0  0  0  0  0  0  0
   45.2087   35.9338   42.4998 H   0  0  0  0  0  0  0  0  0  0  0  0
   47.4125   31.3210   46.7320 H   0  0  0  0  0  0  0  0  0  0  0  0
   44.1082   34.0339   48.3709 H   0  0  0  0  0  0  0  0  0  0  0  0
   43.6590   35.1873   47.0862 H   0  0  0  0  0  0  0  0  0  0  0  0
   47.8350   34.9798   36.7637 H   0  0  0  0  0  0  0  0  0  0  0  0
   49.1308   34.2373   37.7883 H   0  0  0  0  0  0  0  0  0  0  0  0
   48.9668   32.1627   36.4837 H   0  0  0  0  0  0  0  0  0  0  0  0
   47.7069   32.9143   35.4471 H   0  0  0  0  0  0  0  0  0  0  0  0
   49.3790   33.5706   35.4471 H   0  0  0  0  0  0  0  0  0  0  0  0
  1  2  2  0
  1  6  1  0
  2  3  1  0
  3  4  2  0
  5  4  1  0
  5  7  1  0
  6  5  2  0
  7  8  1  0
  7 15  1  0
  8  9  2  0
  9 10  1  0
 10 11  2  0
 11 12  1  0
 11 16  1  0
 13 12  2  0
 14 13  1  0
 15 14  2  0
 15 10  1  0
 17  1  1  0
 18 17  1  0
 19 18  1  0
  2 20  1  0
  3 21  1  0
  8 22  1  0
 13 23  1  0
 16 24  1  0
 16 25  1  0
 18 26  1  0
 18 27  1  0
 19 28  1  0
 19 29  1  0
 19 30  1  0
M  ISO  8  20  14  21  14  22  14  23  14  26   8  27   8  28   8  29   8
M  ISO  1  30   8
M  END
>  <minimizedAffinity>  (1) 
-5.34194374

>  <minimizedRMSD>  (1) 
0.529321432

$$$$
