
     RDKit          3D

 31 32  0  0  1  0  0  0  0  0999 V2000
   44.5010   35.5760   45.0800 C   0  0  0  0  0  0  0  0  0  0  0  0
   45.1660   35.5580   43.8330 C   0  0  0  0  0  0  0  0  0  0  0  0
   46.0960   34.5870   43.5920 C   0  0  0  0  0  0  0  0  0  0  0  0
   46.3210   33.6940   44.5850 N   0  0  0  0  0  0  0  0  0  0  0  0
   45.6830   33.7270   45.7560 C   0  0  0  0  0  0  0  0  0  0  0  0
   44.7620   34.6580   46.0420 N   0  0  0  0  0  0  0  0  0  0  0  0
   46.0210   32.7240   46.7090 N   0  0  0  0  0  0  0  0  0  0  0  0
   45.2320   32.4440   47.9170 C   0  0  0  0  0  0  0  0  0  0  0  0
   46.3320   32.1540   48.9330 C   0  0  0  0  0  0  0  0  0  0  0  0
   47.6190   32.0040   48.1620 C   0  0  0  0  0  0  0  0  0  0  0  0
   47.1180   31.8010   46.7540 C   0  0  1  0  0  0  0  0  0  0  0  0
   44.7740   36.6010   42.9310 N   0  0  0  0  0  0  0  0  0  0  0  0
   46.6190   30.0970   46.5460 S   0  0  0  0  0  0  0  0  0  0  0  0
   45.3190   29.8310   45.3460 C   0  0  0  0  0  0  0  0  0  0  0  0
   44.2450   28.8930   45.8700 C   0  0  0  0  0  0  0  0  0  0  0  0
   43.7510   36.3566   45.2750 H   0  0  0  0  0  0  0  0  0  0  0  0
   46.6370   34.5329   42.6358 H   0  0  0  0  0  0  0  0  0  0  0  0
   44.6286   33.3143   48.2144 H   0  0  0  0  0  0  0  0  0  0  0  0
   44.5020   31.6296   47.7991 H   0  0  0  0  0  0  0  0  0  0  0  0
   46.4149   32.9864   49.6474 H   0  0  0  0  0  0  0  0  0  0  0  0
   46.1079   31.2400   49.5026 H   0  0  0  0  0  0  0  0  0  0  0  0
   48.2391   32.9093   48.2391 H   0  0  0  0  0  0  0  0  0  0  0  0
   48.2622   31.1893   48.5261 H   0  0  0  0  0  0  0  0  0  0  0  0
   47.8466   31.9802   45.9496 H   0  0  0  0  0  0  0  0  0  0  0  0
   45.2070   36.6653   41.9986 H   0  0  0  0  0  0  0  0  0  0  0  0
   44.0594   37.2861   43.2153 H   0  0  0  0  0  0  0  0  0  0  0  0
   45.7586   29.3951   44.4367 H   0  0  0  0  0  0  0  0  0  0  0  0
   44.8482   30.8022   45.1337 H   0  0  0  0  0  0  0  0  0  0  0  0
   44.2552   28.9019   46.9699 H   0  0  0  0  0  0  0  0  0  0  0  0
   43.2603   29.2254   45.5097 H   0  0  0  0  0  0  0  0  0  0  0  0
   44.4419   27.8725   45.5097 H   0  0  0  0  0  0  0  0  0  0  0  0
  1  6  2  0
  2  1  1  0
  3  2  2  0
  3  4  1  0
  4  5  2  0
  5  6  1  0
  5  7  1  0
  7 11  1  0
  7  8  1  0
  8  9  1  0
 10  9  1  0
 11 10  1  0
 12  2  1  0
 13 11  1  0
 14 15  1  0
 14 13  1  0
  1 16  1  0
  3 17  1  0
  8 18  1  0
  8 19  1  0
  9 20  1  0
  9 21  1  0
 10 22  1  0
 10 23  1  0
 11 24  1  6
 12 25  1  0
 12 26  1  0
 14 27  1  0
 14 28  1  0
 15 29  1  0
 15 30  1  0
 15 31  1  0
M  ISO  8  16  14  17  14  18  13  19  13  20  13  21  13  22  13  23  13
M  ISO  6  24  13  27   8  28   8  29   8  30   8  31   8
M  END
>  <minimizedAffinity>  (1) 
-4.78234386

>  <minimizedRMSD>  (1) 
0.485629737

$$$$
