
     RDKit          3D

 30 32  0  0  0  0  0  0  0  0999 V2000
   47.4740   31.6749   44.8245 C   0  0  0  0  0  0  0  0  0  0  0  0
   46.7907   32.8618   44.5376 C   0  0  0  0  0  0  0  0  0  0  0  0
   45.9103   33.4557   45.4272 C   0  0  0  0  0  0  0  0  0  0  0  0
   45.6824   32.8556   46.6707 C   0  0  0  0  0  0  0  0  0  0  0  0
   44.9256   33.1264   47.7566 N   0  0  0  0  0  0  0  0  0  0  0  0
   45.1043   32.1786   48.6899 C   0  0  0  0  0  0  0  0  0  0  0  0
   45.9921   31.3071   48.1606 N   0  0  0  0  0  0  0  0  0  0  0  0
   46.3648   31.6976   46.9207 C   0  0  0  0  0  0  0  0  0  0  0  0
   47.2450   31.0761   46.0698 C   0  0  0  0  0  0  0  0  0  0  0  0
   46.3747   33.8199   41.0199 C   0  0  0  0  0  0  0  0  0  0  0  0
   47.4187   34.7194   40.8162 C   0  0  0  0  0  0  0  0  0  0  0  0
   48.2522   34.9834   41.8956 C   0  0  0  0  0  0  0  0  0  0  0  0
   48.0287   34.3645   43.1056 N   0  0  0  0  0  0  0  0  0  0  0  0
   47.0053   33.5032   43.2500 C   0  0  0  0  0  0  0  0  0  0  0  0
   46.1735   33.2239   42.2157 N   0  0  0  0  0  0  0  0  0  0  0  0
   45.0497   34.9688   45.0562 S   0  0  0  0  0  0  0  0  0  0  0  0
   48.1486   31.2727   44.0682 H   0  0  0  0  0  0  0  0  0  0  0  0
   44.3247   33.9845   47.7574 H   0  0  0  0  0  0  0  0  0  0  0  0
   44.6231   32.1467   49.6576 H   0  0  0  0  0  0  0  0  0  0  0  0
   47.7786   30.1610   46.2797 H   0  0  0  0  0  0  0  0  0  0  0  0
   45.6763   33.5607   40.2209 H   0  0  0  0  0  0  0  0  0  0  0  0
   47.5516   35.1812   39.8444 H   0  0  0  0  0  0  0  0  0  0  0  0
   49.0569   35.6814   41.7256 H   0  0  0  0  0  0  0  0  0  0  0  0
   46.0966   36.3391   45.5901 C   0  0  0  0  0  0  0  0  0  0  0  0
   46.7979   35.9262   46.8731 C   0  0  0  0  0  0  0  0  0  0  0  0
   46.0487   35.7861   47.6821 H   0  0  0  0  0  0  0  0  0  0  0  0
   45.5298   37.3055   45.7072 H   0  0  0  0  0  0  0  0  0  0  0  0
   46.9347   36.5450   44.8643 H   0  0  0  0  0  0  0  0  0  0  0  0
   47.3553   35.0117   46.6687 H   0  0  0  0  0  0  0  0  0  0  0  0
   47.5307   36.7403   47.0987 H   0  0  0  0  0  0  0  0  0  0  0  0
  1  9  2  0
  2  1  1  0
  2  3  2  0
  3  4  1  0
  4  8  2  0
  4  5  1  0
  5  6  1  0
  7  6  2  0
  8  7  1  0
  9  8  1  0
 10 15  2  0
 11 10  1  0
 11 12  2  0
 12 13  1  0
 13 14  2  0
 14  2  1  0
 15 14  1  0
 16  3  1  0
  1 17  1  0
  5 18  1  0
  6 19  1  0
  9 20  1  0
 10 21  1  0
 11 22  1  0
 12 23  1  0
 24 25  1  0
 25 26  1  0
 24 27  1  0
 24 28  1  0
 25 29  1  0
 25 30  1  0
 16 24  1  0
M  ISO  8  17  14  18   9  19  14  20  14  21  14  22  14  23  14  26   8
M  END
>  <DihAtoms>  (1) 
2,15,23,24

>  <DihDeg>  (1) 
-66.85559771336489

$$$$
