
     RDKit          3D

 36 37  0  0  0  0  0  0  0  0999 V2000
   45.0800   35.5810   43.5210 C   0  0  0  0  0  0  0  0  0  0  0  0
   46.0200   34.5150   43.5240 C   0  0  0  0  0  0  0  0  0  0  0  0
   46.1930   33.8100   44.6990 C   0  0  0  0  0  0  0  0  0  0  0  0
   45.4630   34.1630   45.7910 N   0  0  0  0  0  0  0  0  0  0  0  0
   44.5800   35.1740   45.7640 C   0  0  0  0  0  0  0  0  0  0  0  0
   44.3940   35.8710   44.6470 N   0  0  0  0  0  0  0  0  0  0  0  0
   46.6960   34.2820   42.3000 N   0  0  0  0  0  0  0  0  0  0  0  0
   47.8320   35.0680   41.8540 C   0  0  0  0  0  0  0  0  0  0  0  0
   48.3920   34.4920   40.5930 C   0  0  0  0  0  0  0  0  0  0  0  0
   47.4050   34.2750   39.5690 N   0  0  0  0  0  0  0  0  0  0  0  0
   46.2120   33.6160   40.0050 C   0  0  0  0  0  0  0  0  0  0  0  0
   46.2190   33.1970   41.4500 C   0  0  0  0  0  0  0  0  0  0  0  0
   47.1220   32.7710   44.6730 O   0  0  0  0  0  0  0  0  0  0  0  0
   45.5670   30.9630   45.8200 O   0  0  0  0  0  0  0  0  0  0  0  0
   46.9860   31.5140   45.8370 P   0  0  1  0  0  0  0  0  0  0  0  0
   48.0990   30.3330   45.4520 O   0  0  0  0  0  0  0  0  0  0  0  0
   47.2860   32.2090   47.3510 O   0  0  0  0  0  0  0  0  0  0  0  0
   46.9150   31.3670   48.3860 C   0  0  0  0  0  0  0  0  0  0  0  0
   45.7410   31.9160   49.1940 C   0  0  0  0  0  0  0  0  0  0  0  0
   44.9122   36.1671   42.6054 H   0  0  0  0  0  0  0  0  0  0  0  0
   44.0083   35.4266   46.6692 H   0  0  0  0  0  0  0  0  0  0  0  0
   47.5082   36.1028   41.6689 H   0  0  0  0  0  0  0  0  0  0  0  0
   48.6086   35.0525   42.6329 H   0  0  0  0  0  0  0  0  0  0  0  0
   49.1518   35.1847   40.2020 H   0  0  0  0  0  0  0  0  0  0  0  0
   48.8131   33.5082   40.8478 H   0  0  0  0  0  0  0  0  0  0  0  0
   47.8340   33.7013   38.8289 H   0  0  0  0  0  0  0  0  0  0  0  0
   45.3657   34.3016   39.8509 H   0  0  0  0  0  0  0  0  0  0  0  0
   46.1328   32.6920   39.4134 H   0  0  0  0  0  0  0  0  0  0  0  0
   45.1968   32.9248   41.7518 H   0  0  0  0  0  0  0  0  0  0  0  0
   46.8935   32.3357   41.5648 H   0  0  0  0  0  0  0  0  0  0  0  0
   48.4670   29.9425   46.2840 H   0  0  0  0  0  0  0  0  0  0  0  0
   46.6274   30.3933   47.9628 H   0  0  0  0  0  0  0  0  0  0  0  0
   47.7746   31.2742   49.0660 H   0  0  0  0  0  0  0  0  0  0  0  0
   45.9562   31.8154   50.2680 H   0  0  0  0  0  0  0  0  0  0  0  0
   45.5911   32.9776   48.9480 H   0  0  0  0  0  0  0  0  0  0  0  0
   44.8302   31.3504   48.9480 H   0  0  0  0  0  0  0  0  0  0  0  0
  1  2  2  0
  1  6  1  0
  2  3  1  0
  3  4  2  0
  5  4  1  0
  6  5  2  0
  7  2  1  0
  8  7  1  0
  9  8  1  0
 10 11  1  0
 10  9  1  0
 11 12  1  0
 12  7  1  0
 13  3  1  0
 13 15  1  0
 15 14  2  0
 15 17  1  0
 16 15  1  0
 17 18  1  0
 18 19  1  0
  1 20  1  0
  5 21  1  0
  8 22  1  0
  8 23  1  0
  9 24  1  0
  9 25  1  0
 10 26  1  0
 11 27  1  0
 11 28  1  0
 12 29  1  0
 12 30  1  0
 16 31  1  0
 18 32  1  0
 18 33  1  0
 19 34  1  0
 19 35  1  0
 19 36  1  0
M  ISO  8  20  14  21  14  22  13  23  13  24  13  25  13  26   5  27  13
M  ISO  8  28  13  29  13  30  13  31   3  32   8  33   8  34   8  35   8
M  ISO  1  36   8
M  END
>  <minimizedAffinity>  (1) 
-4.6920166

>  <minimizedRMSD>  (1) 
0.645561218

$$$$
