
     RDKit          3D

 25 25  0  0  0  0  0  0  0  0999 V2000
   47.1110   33.3300   42.8400 C   0  0  0  0  0  0  0  0  0  0  0  0
   45.1250   34.3670   45.8240 C   0  0  0  0  0  0  0  0  0  0  0  0
   45.9850   33.6260   44.9930 C   0  0  0  0  0  0  0  0  0  0  0  0
   46.2180   34.0890   43.7190 C   0  0  0  0  0  0  0  0  0  0  0  0
   45.6090   35.2430   43.3150 N   0  0  0  0  0  0  0  0  0  0  0  0
   44.7770   35.9470   44.1370 C   0  0  0  0  0  0  0  0  0  0  0  0
   44.5540   35.4960   45.3700 N   0  0  0  0  0  0  0  0  0  0  0  0
   48.3090   33.0070   43.4770 O   0  0  0  0  0  0  0  0  0  0  0  0
   50.6410   32.5790   42.3890 O   0  0  0  0  0  0  0  0  0  0  0  0
   49.5600   33.6280   42.5230 P   0  0  2  0  0  0  0  0  0  0  0  0
   50.0990   35.0290   43.2680 O   0  0  0  0  0  0  0  0  0  0  0  0
   48.9460   33.9310   40.9910 O   0  0  0  0  0  0  0  0  0  0  0  0
   48.3240   35.1870   40.9580 C   0  0  0  0  0  0  0  0  0  0  0  0
   49.2670   36.2880   41.3430 C   0  0  0  0  0  0  0  0  0  0  0  0
   47.3330   33.9352   41.9487 H   0  0  0  0  0  0  0  0  0  0  0  0
   46.6056   32.3928   42.5640 H   0  0  0  0  0  0  0  0  0  0  0  0
   44.9193   34.0216   46.8479 H   0  0  0  0  0  0  0  0  0  0  0  0
   46.4586   32.7006   45.3527 H   0  0  0  0  0  0  0  0  0  0  0  0
   44.2979   36.8730   43.7861 H   0  0  0  0  0  0  0  0  0  0  0  0
   50.0561   34.9176   44.2508 H   0  0  0  0  0  0  0  0  0  0  0  0
   47.9553   35.3747   39.9388 H   0  0  0  0  0  0  0  0  0  0  0  0
   47.4969   35.1772   41.6832 H   0  0  0  0  0  0  0  0  0  0  0  0
   49.3244   36.3550   42.4395 H   0  0  0  0  0  0  0  0  0  0  0  0
   50.2663   36.0740   40.9359 H   0  0  0  0  0  0  0  0  0  0  0  0
   48.9020   37.2425   40.9359 H   0  0  0  0  0  0  0  0  0  0  0  0
  1  8  1  0
  1  4  1  0
  3  2  2  0
  4  3  1  0
  5  4  2  0
  5  6  1  0
  6  7  2  0
  7  2  1  0
 10  9  2  0
 10 11  1  0
 10  8  1  0
 12 10  1  0
 13 12  1  0
 13 14  1  0
  1 15  1  0
  1 16  1  0
  2 17  1  0
  3 18  1  0
  6 19  1  0
 11 20  1  0
 13 21  1  0
 13 22  1  0
 14 23  1  0
 14 24  1  0
 14 25  1  0
M  ISO  8  15   8  16   8  17  14  18  14  19  14  20   3  21   8  22   8
M  ISO  3  23   8  24   8  25   8
M  END
>  <minimizedAffinity>  (1) 
-4.40032053

>  <minimizedRMSD>  (1) 
0.683959842

$$$$
