
     RDKit          3D

 42 44  0  0  1  0  0  0  0  0999 V2000
   47.1100   34.8230   42.0830 C   0  0  2  0  0  0  0  0  0  0  0  0
   46.3400   34.2980   40.8690 C   0  0  0  0  0  0  0  0  0  0  0  0
   47.5400   34.1580   39.9080 C   0  0  0  0  0  0  0  0  0  0  0  0
   48.6770   33.7090   40.7730 C   0  0  1  0  0  0  0  0  0  0  0  0
   48.1650   33.7560   42.1840 C   0  0  0  0  0  0  0  0  0  0  0  0
   44.5380   35.8050   44.6500 C   0  0  0  0  0  0  0  0  0  0  0  0
   45.2670   35.8450   43.4670 C   0  0  0  0  0  0  0  0  0  0  0  0
   46.2450   34.8740   43.2930 C   0  0  0  0  0  0  0  0  0  0  0  0
   46.4680   33.9060   44.2820 N   0  0  0  0  0  0  0  0  0  0  0  0
   45.7220   33.9190   45.4180 C   0  0  0  0  0  0  0  0  0  0  0  0
   44.7620   34.8650   45.5980 N   0  0  0  0  0  0  0  0  0  0  0  0
   49.1390   32.2910   40.5160 C   0  0  2  0  0  0  0  0  0  0  0  0
   49.9710   31.6940   41.5510 C   0  0  0  0  0  0  0  0  0  0  0  0
   50.5350   31.9900   40.1980 C   0  0  1  0  0  0  0  0  0  0  0  0
   50.7840   30.8810   39.3500 O   0  0  0  0  0  0  0  0  0  0  0  0
   51.2230   30.3810   36.8300 O   0  0  0  0  0  0  0  0  0  0  0  0
   51.3410   31.4640   37.8760 P   0  0  1  0  0  0  0  0  0  0  0  0
   50.3660   32.7760   37.3610 O   0  0  0  0  0  0  0  0  0  0  0  0
   52.9090   32.0090   37.8950 O   0  0  0  0  0  0  0  0  0  0  0  0
   53.7730   31.0620   38.4330 C   0  0  0  0  0  0  0  0  0  0  0  0
   54.9140   30.7280   37.5150 C   0  0  0  0  0  0  0  0  0  0  0  0
   47.4959   35.8494   41.9953 H   0  0  0  0  0  0  0  0  0  0  0  0
   45.8505   33.3336   41.0696 H   0  0  0  0  0  0  0  0  0  0  0  0
   45.5054   34.9218   40.5163 H   0  0  0  0  0  0  0  0  0  0  0  0
   47.7716   35.1238   39.4351 H   0  0  0  0  0  0  0  0  0  0  0  0
   47.3360   33.4493   39.0919 H   0  0  0  0  0  0  0  0  0  0  0  0
   49.5361   34.3638   40.5654 H   0  0  0  0  0  0  0  0  0  0  0  0
   48.9586   34.0408   42.8904 H   0  0  0  0  0  0  0  0  0  0  0  0
   47.7934   32.7911   42.5593 H   0  0  0  0  0  0  0  0  0  0  0  0
   43.7560   36.5595   44.8208 H   0  0  0  0  0  0  0  0  0  0  0  0
   45.0776   36.6123   42.7019 H   0  0  0  0  0  0  0  0  0  0  0  0
   45.8957   33.1606   46.1956 H   0  0  0  0  0  0  0  0  0  0  0  0
   48.1974   32.0431   40.0042 H   0  0  0  0  0  0  0  0  0  0  0  0
   50.2823   32.2908   42.4210 H   0  0  0  0  0  0  0  0  0  0  0  0
   49.9022   30.8017   42.1906 H   0  0  0  0  0  0  0  0  0  0  0  0
   51.3902   32.5629   39.8102 H   0  0  0  0  0  0  0  0  0  0  0  0
   50.0110   33.2537   38.1521 H   0  0  0  0  0  0  0  0  0  0  0  0
   54.1831   31.4551   39.3749 H   0  0  0  0  0  0  0  0  0  0  0  0
   53.1956   30.1396   38.5933 H   0  0  0  0  0  0  0  0  0  0  0  0
   55.8008   30.4684   38.1118 H   0  0  0  0  0  0  0  0  0  0  0  0
   54.6361   29.8735   36.8805 H   0  0  0  0  0  0  0  0  0  0  0  0
   55.1407   31.5975   36.8805 H   0  0  0  0  0  0  0  0  0  0  0  0
  1  5  1  0
  1  8  1  0
  2  1  1  0
  3  4  1  0
  3  2  1  0
  4  5  1  0
  6 11  2  0
  7  6  1  0
  8  7  2  0
  8  9  1  0
  9 10  2  0
 10 11  1  0
 12  4  1  0
 12 13  1  0
 14 12  1  0
 14 13  1  0
 15 14  1  0
 17 16  2  0
 17 19  1  0
 17 15  1  0
 18 17  1  0
 19 20  1  0
 21 20  1  0
  1 22  1  6
  2 23  1  0
  2 24  1  0
  3 25  1  0
  3 26  1  0
  4 27  1  1
  5 28  1  0
  5 29  1  0
  6 30  1  0
  7 31  1  0
 10 32  1  0
 12 33  1  6
 13 34  1  0
 13 35  1  0
 14 36  1  1
 18 37  1  0
 20 38  1  0
 20 39  1  0
 21 40  1  0
 21 41  1  0
 21 42  1  0
M  ISO  8  22  13  23  13  24  13  25  13  26  13  27  13  28  13  29  13
M  ISO  8  30  14  31  14  32  14  33  13  34  13  35  13  36  13  37   3
M  ISO  5  38   8  39   8  40   8  41   8  42   8
M  END
>  <minimizedAffinity>  (1) 
-5.06264257

>  <minimizedRMSD>  (1) 
0.635339737

$$$$
