
     RDKit          3D

 32 33  0  0  1  0  0  0  0  0999 V2000
   47.6000   35.2350   41.8200 C   0  0  1  0  0  0  0  0  0  0  0  0
   49.0870   35.4870   41.6430 C   0  0  0  0  0  0  0  0  0  0  0  0
   48.2520   34.9540   40.4980 C   0  0  1  0  0  0  0  0  0  0  0  0
   47.2170   34.0460   42.6020 C   0  0  0  0  0  0  0  0  0  0  0  0
   46.3370   34.3190   43.7510 C   0  0  0  0  0  0  0  0  0  0  0  0
   45.5000   35.3860   43.5630 C   0  0  0  0  0  0  0  0  0  0  0  0
   44.6100   35.7660   44.5770 C   0  0  0  0  0  0  0  0  0  0  0  0
   44.6480   35.0070   45.7270 N   0  0  0  0  0  0  0  0  0  0  0  0
   45.4830   33.9600   45.8860 C   0  0  0  0  0  0  0  0  0  0  0  0
   46.3080   33.6370   44.9000 N   0  0  0  0  0  0  0  0  0  0  0  0
   48.4220   33.6380   40.1560 O   0  0  0  0  0  0  0  0  0  0  0  0
   48.4150   34.7030   37.7060 O   0  0  0  0  0  0  0  0  0  0  0  0
   48.4520   33.4030   38.4840 P   0  0  1  0  0  0  0  0  0  0  0  0
   49.9200   32.6130   38.0930 O   0  0  0  0  0  0  0  0  0  0  0  0
   47.1710   32.3910   38.0570 O   0  0  0  0  0  0  0  0  0  0  0  0
   46.7380   32.6240   36.7570 C   0  0  0  0  0  0  0  0  0  0  0  0
   45.3180   33.1850   36.8280 C   0  0  0  0  0  0  0  0  0  0  0  0
   46.7510   35.8443   42.1636 H   0  0  0  0  0  0  0  0  0  0  0  0
   49.4724   36.5168   41.6123 H   0  0  0  0  0  0  0  0  0  0  0  0
   50.0019   35.1628   42.1605 H   0  0  0  0  0  0  0  0  0  0  0  0
   48.0716   35.2691   39.4596 H   0  0  0  0  0  0  0  0  0  0  0  0
   46.6959   33.3480   41.9302 H   0  0  0  0  0  0  0  0  0  0  0  0
   48.1492   33.6351   43.0170 H   0  0  0  0  0  0  0  0  0  0  0  0
   45.5260   35.9451   42.6161 H   0  0  0  0  0  0  0  0  0  0  0  0
   43.9234   36.6177   44.4621 H   0  0  0  0  0  0  0  0  0  0  0  0
   45.4795   33.3816   46.8217 H   0  0  0  0  0  0  0  0  0  0  0  0
   50.3906   32.3597   38.9264 H   0  0  0  0  0  0  0  0  0  0  0  0
   46.7399   31.6825   36.1881 H   0  0  0  0  0  0  0  0  0  0  0  0
   47.4067   33.3369   36.2525 H   0  0  0  0  0  0  0  0  0  0  0  0
   45.0222   33.3019   37.8810 H   0  0  0  0  0  0  0  0  0  0  0  0
   45.2850   34.1638   36.3270 H   0  0  0  0  0  0  0  0  0  0  0  0
   44.6249   32.4931   36.3270 H   0  0  0  0  0  0  0  0  0  0  0  0
  1  4  1  0
  2  1  1  0
  3  2  1  0
  3  1  1  0
  4  5  1  0
  5 10  1  0
  6  5  2  0
  6  7  1  0
  7  8  2  0
  8  9  1  0
 10  9  2  0
 11  3  1  0
 13 12  2  0
 13 11  1  0
 14 13  1  0
 15 13  1  0
 16 17  1  0
 16 15  1  0
  1 18  1  6
  2 19  1  0
  2 20  1  0
  3 21  1  6
  4 22  1  0
  4 23  1  0
  6 24  1  0
  7 25  1  0
  9 26  1  0
 14 27  1  0
 16 28  1  0
 16 29  1  0
 17 30  1  0
 17 31  1  0
 17 32  1  0
M  ISO  8  18  13  19  13  20  13  21  13  22   8  23   8  24  14  25  14
M  ISO  7  26  14  27   3  28   8  29   8  30   8  31   8  32   8
M  END
>  <minimizedAffinity>  (1) 
-4.56240082

>  <minimizedRMSD>  (1) 
0.921420395

$$$$
