
     RDKit          3D

 34 35  0  0  1  0  0  0  0  0999 V2000
   46.1050   34.8700   42.2150 C   0  0  1  0  0  0  0  0  0  0  0  0
   47.5560   35.3750   42.2140 C   0  0  0  0  0  0  0  0  0  0  0  0
   48.4320   35.0650   41.0960 C   0  0  0  0  0  0  0  0  0  0  0  0
   47.7870   34.2240   40.0040 C   0  0  0  0  0  0  0  0  0  0  0  0
   47.0750   33.1120   40.7310 C   0  0  0  0  0  0  0  0  0  0  0  0
   45.8210   33.7740   41.3120 C   0  0  2  0  0  0  0  0  0  0  0  0
   46.2570   33.4910   44.3160 C   0  0  0  0  0  0  0  0  0  0  0  0
   45.7870   34.6490   43.6520 C   0  0  0  0  0  0  0  0  0  0  0  0
   44.9560   35.5020   44.3900 C   0  0  0  0  0  0  0  0  0  0  0  0
   44.6360   35.2100   45.6680 N   0  0  0  0  0  0  0  0  0  0  0  0
   45.1200   34.0800   46.2520 C   0  0  0  0  0  0  0  0  0  0  0  0
   45.9260   33.2240   45.5780 N   0  0  0  0  0  0  0  0  0  0  0  0
   44.8190   33.7560   47.5880 N   0  0  0  0  0  0  0  0  0  0  0  0
   44.5080   36.6770   43.7450 N   0  0  0  0  0  0  0  0  0  0  0  0
   44.8520   34.1380   40.1920 C   0  0  0  0  0  0  0  0  0  0  0  0
   43.6410   34.8790   40.7170 C   0  0  0  0  0  0  0  0  0  0  0  0
   45.4189   35.6099   41.7770 H   0  0  0  0  0  0  0  0  0  0  0  0
   47.9319   35.9708   43.0588 H   0  0  0  0  0  0  0  0  0  0  0  0
   49.4752   35.4100   41.0437 H   0  0  0  0  0  0  0  0  0  0  0  0
   48.5531   33.8151   39.3288 H   0  0  0  0  0  0  0  0  0  0  0  0
   47.0991   34.8152   39.3817 H   0  0  0  0  0  0  0  0  0  0  0  0
   46.8017   32.3051   40.0351 H   0  0  0  0  0  0  0  0  0  0  0  0
   47.7027   32.6514   41.5080 H   0  0  0  0  0  0  0  0  0  0  0  0
   45.3231   33.0338   41.9556 H   0  0  0  0  0  0  0  0  0  0  0  0
   46.9131   32.7930   43.7754 H   0  0  0  0  0  0  0  0  0  0  0  0
   45.1978   32.8947   48.0069 H   0  0  0  0  0  0  0  0  0  0  0  0
   44.2199   34.3802   48.1469 H   0  0  0  0  0  0  0  0  0  0  0  0
   43.8950   37.3370   44.2446 H   0  0  0  0  0  0  0  0  0  0  0  0
   44.7945   36.8734   42.7753 H   0  0  0  0  0  0  0  0  0  0  0  0
   44.5175   33.2148   39.6962 H   0  0  0  0  0  0  0  0  0  0  0  0
   45.3773   34.7974   39.4854 H   0  0  0  0  0  0  0  0  0  0  0  0
   43.6545   34.8708   41.8169 H   0  0  0  0  0  0  0  0  0  0  0  0
   43.6630   35.9185   40.3578 H   0  0  0  0  0  0  0  0  0  0  0  0
   42.7255   34.3863   40.3578 H   0  0  0  0  0  0  0  0  0  0  0  0
  1  8  1  0
  2  1  1  0
  3  2  2  0
  4  5  1  0
  4  3  1  0
  5  6  1  0
  6  1  1  0
  7 12  2  0
  8  7  1  0
  8  9  2  0
  9 10  1  0
 10 11  2  0
 11 13  1  0
 12 11  1  0
 14  9  1  0
 15 16  1  0
 15  6  1  0
  1 17  1  6
  2 18  1  0
  3 19  1  0
  4 20  1  0
  4 21  1  0
  5 22  1  0
  5 23  1  0
  6 24  1  1
  7 25  1  0
 13 26  1  0
 13 27  1  0
 14 28  1  0
 14 29  1  0
 15 30  1  0
 15 31  1  0
 16 32  1  0
 16 33  1  0
 16 34  1  0
M  ISO  8  17  13  18  13  19  13  20  13  21  13  22  13  23  13  24  13
M  ISO  6  25  14  30   8  31   8  32   8  33   8  34   8
M  END
>  <minimizedAffinity>  (1) 
-5.92170238

>  <minimizedRMSD>  (1) 
3.30169916

$$$$
