
     RDKit          3D

 34 36  0  0  0  0  0  0  0  0999 V2000
   42.3500   35.5350   41.4460 S   0  0  0  0  0  0  0  0  0  0  0  0
   40.0030   34.9220   40.2900 C   0  0  0  0  0  0  0  0  0  0  0  0
   40.9930   34.4140   41.1110 C   0  0  0  0  0  0  0  0  0  0  0  0
   40.9020   33.1460   41.6080 C   0  0  0  0  0  0  0  0  0  0  0  0
   39.8370   32.3170   41.3250 C   0  0  0  0  0  0  0  0  0  0  0  0
   38.8310   32.8250   40.4920 C   0  0  0  0  0  0  0  0  0  0  0  0
   38.8960   34.1140   39.9710 C   0  0  0  0  0  0  0  0  0  0  0  0
   37.8590   31.8120   40.3450 O   0  0  0  0  0  0  0  0  0  0  0  0
   38.1270   30.8730   41.3510 C   0  0  0  0  0  0  0  0  0  0  0  0
   39.4890   31.0210   41.6780 O   0  0  0  0  0  0  0  0  0  0  0  0
   43.9230   34.7730   40.9710 C   0  0  0  0  0  0  0  0  0  0  0  0
   43.8620   33.8800   39.9090 C   0  0  0  0  0  0  0  0  0  0  0  0
   45.0720   33.2900   39.5410 C   0  0  0  0  0  0  0  0  0  0  0  0
   46.2070   33.6040   40.2120 N   0  0  0  0  0  0  0  0  0  0  0  0
   46.2190   34.4690   41.2270 C   0  0  0  0  0  0  0  0  0  0  0  0
   45.0720   35.0470   41.5990 N   0  0  0  0  0  0  0  0  0  0  0  0
   47.3330   34.8240   41.9400 O   0  0  0  0  0  0  0  0  0  0  0  0
   48.5260   35.0940   41.2570 C   0  0  0  0  0  0  0  0  0  0  0  0
   49.4810   34.1290   41.4770 F   0  0  0  0  0  0  0  0  0  0  0  0
   48.1700   35.2210   39.9170 F   0  0  0  0  0  0  0  0  0  0  0  0
   49.0170   36.2990   41.7550 F   0  0  0  0  0  0  0  0  0  0  0  0
   45.0240   32.3340   38.4090 C   0  0  0  0  0  0  0  0  0  0  0  0
   45.4390   32.9880   37.1200 C   0  0  0  0  0  0  0  0  0  0  0  0
   40.0798   35.9444   39.8915 H   0  0  0  0  0  0  0  0  0  0  0  0
   41.7071   32.7720   42.2576 H   0  0  0  0  0  0  0  0  0  0  0  0
   38.0950   34.4949   39.3204 H   0  0  0  0  0  0  0  0  0  0  0  0
   37.5000   31.0705   42.2330 H   0  0  0  0  0  0  0  0  0  0  0  0
   37.9064   29.8501   41.0119 H   0  0  0  0  0  0  0  0  0  0  0  0
   42.9190   33.6521   39.3905 H   0  0  0  0  0  0  0  0  0  0  0  0
   45.7039   31.4954   38.6198 H   0  0  0  0  0  0  0  0  0  0  0  0
   43.9886   31.9793   38.2993 H   0  0  0  0  0  0  0  0  0  0  0  0
   46.0165   33.8980   37.3399 H   0  0  0  0  0  0  0  0  0  0  0  0
   46.0604   32.2910   36.5386 H   0  0  0  0  0  0  0  0  0  0  0  0
   44.5437   33.2534   36.5386 H   0  0  0  0  0  0  0  0  0  0  0  0
  2  3  2  0
  3  1  1  0
  3  4  1  0
  5  4  2  0
  5 10  1  0
  6  5  1  0
  7  2  1  0
  7  6  2  0
  8  6  1  0
  8  9  1  0
  9 10  1  0
 11  1  1  0
 11 16  1  0
 12 11  2  0
 13 12  1  0
 13 14  2  0
 14 15  1  0
 15 16  2  0
 15 17  1  0
 18 19  1  0
 18 21  1  0
 18 17  1  0
 20 18  1  0
 22 13  1  0
 23 22  1  0
  2 24  1  0
  4 25  1  0
  7 26  1  0
  9 27  1  0
  9 28  1  0
 12 29  1  0
 22 30  1  0
 22 31  1  0
 23 32  1  0
 23 33  1  0
 23 34  1  0
M  ISO  8  24  14  25  14  26  14  27  13  28  13  29  14  30   8  31   8
M  ISO  3  32   8  33   8  34   8
M  END
>  <minimizedAffinity>  (1) 
-5.64777708

>  <minimizedRMSD>  (1) 
0.125826001

$$$$
