
     RDKit          3D

 38 41  0  0  1  0  0  0  0  0999 V2000
   46.5770   33.2360   43.5210 C   0  0  1  0  0  0  0  0  0  0  0  0
   46.7590   34.6060   43.0840 C   0  0  0  0  0  0  0  0  0  0  0  0
   47.9650   33.7030   43.1050 C   0  0  2  0  0  0  0  0  0  0  0  0
   48.4230   33.2070   41.7810 C   0  0  0  0  0  0  0  0  0  0  0  0
   49.1570   32.0450   41.5910 C   0  0  0  0  0  0  0  0  0  0  0  0
   49.5360   31.6310   40.3220 C   0  0  0  0  0  0  0  0  0  0  0  0
   49.1820   32.3760   39.2200 C   0  0  0  0  0  0  0  0  0  0  0  0
   49.5350   32.0000   37.9620 N   0  0  0  0  0  0  0  0  0  0  0  0
   49.1810   32.7420   36.8890 C   0  0  0  0  0  0  0  0  0  0  0  0
   48.4380   33.9310   36.9850 C   0  0  0  0  0  0  0  0  0  0  0  0
   48.0680   34.3330   38.2580 C   0  0  0  0  0  0  0  0  0  0  0  0
   48.4470   33.5450   39.3530 C   0  0  0  0  0  0  0  0  0  0  0  0
   48.0940   33.9220   40.6390 C   0  0  0  0  0  0  0  0  0  0  0  0
   45.5330   33.7240   45.7560 C   0  0  0  0  0  0  0  0  0  0  0  0
   46.3720   32.9100   44.9560 C   0  0  0  0  0  0  0  0  0  0  0  0
   46.9940   31.8300   45.5520 C   0  0  0  0  0  0  0  0  0  0  0  0
   46.7580   31.6190   46.8770 N   0  0  0  0  0  0  0  0  0  0  0  0
   45.9590   32.4010   47.6230 C   0  0  0  0  0  0  0  0  0  0  0  0
   45.3420   33.4630   47.0570 N   0  0  0  0  0  0  0  0  0  0  0  0
   45.7130   32.1590   49.0620 C   0  0  0  0  0  0  0  0  0  0  0  0
   45.1970   30.7580   49.3320 C   0  0  0  0  0  0  0  0  0  0  0  0
   45.8823   32.4384   43.2189 H   0  0  0  0  0  0  0  0  0  0  0  0
   46.6795   35.4254   43.8136 H   0  0  0  0  0  0  0  0  0  0  0  0
   46.2856   35.2342   42.3151 H   0  0  0  0  0  0  0  0  0  0  0  0
   48.9678   33.7324   43.5561 H   0  0  0  0  0  0  0  0  0  0  0  0
   49.4442   31.4400   42.4636 H   0  0  0  0  0  0  0  0  0  0  0  0
   50.1196   30.7070   40.1966 H   0  0  0  0  0  0  0  0  0  0  0  0
   49.4899   32.3980   35.8909 H   0  0  0  0  0  0  0  0  0  0  0  0
   48.1638   34.5137   36.0933 H   0  0  0  0  0  0  0  0  0  0  0  0
   47.4867   35.2549   38.4067 H   0  0  0  0  0  0  0  0  0  0  0  0
   47.5149   34.8491   40.7621 H   0  0  0  0  0  0  0  0  0  0  0  0
   45.0277   34.5883   45.3002 H   0  0  0  0  0  0  0  0  0  0  0  0
   47.6556   31.1648   44.9777 H   0  0  0  0  0  0  0  0  0  0  0  0
   46.6561   32.3001   49.6104 H   0  0  0  0  0  0  0  0  0  0  0  0
   44.9431   32.8704   49.3953 H   0  0  0  0  0  0  0  0  0  0  0  0
   45.1361   30.5926   50.4178 H   0  0  0  0  0  0  0  0  0  0  0  0
   44.1976   30.6432   48.8870 H   0  0  0  0  0  0  0  0  0  0  0  0
   45.8832   30.0224   48.8870 H   0  0  0  0  0  0  0  0  0  0  0  0
  1 15  1  0
  2  3  1  0
  2  1  1  0
  3  1  1  0
  4  3  1  0
  5  4  2  0
  6  5  1  0
  7 12  1  0
  7  6  2  0
  8  7  1  0
  9 10  1  0
  9  8  2  0
 10 11  2  0
 11 12  1  0
 12 13  2  0
 13  4  1  0
 14 19  2  0
 15 16  2  0
 15 14  1  0
 16 17  1  0
 17 18  2  0
 18 20  1  0
 19 18  1  0
 20 21  1  0
  1 22  1  6
  2 23  1  0
  2 24  1  0
  3 25  1  1
  5 26  1  0
  6 27  1  0
  9 28  1  0
 10 29  1  0
 11 30  1  0
 13 31  1  0
 14 32  1  0
 16 33  1  0
 20 34  1  0
 20 35  1  0
 21 36  1  0
 21 37  1  0
 21 38  1  0
M  ISO  8  22  13  23  13  24  13  25  13  26  14  27  14  28  14  29  14
M  ISO  8  30  14  31  14  32  14  33  14  34   8  35   8  36   8  37   8
M  ISO  1  38   8
M  END
>  <minimizedAffinity>  (1) 
-5.3566618

>  <minimizedRMSD>  (1) 
3.06415749

$$$$
