
     RDKit          3D

 29 30  0  0  0  0  0  0  0  0999 V2000
   44.9355   34.9019   45.0369 C   0  0  0  0  0  0  0  0  0  0  0  0
   45.4238   35.1817   43.7638 C   0  0  0  0  0  0  0  0  0  0  0  0
   46.5077   34.3992   43.3565 C   0  0  0  0  0  0  0  0  0  0  0  0
   47.0187   33.4367   44.1913 N   0  0  0  0  0  0  0  0  0  0  0  0
   46.5017   33.2214   45.4018 C   0  0  0  0  0  0  0  0  0  0  0  0
   45.4420   33.9688   45.8279 N   0  0  0  0  0  0  0  0  0  0  0  0
   47.0316   34.6717   42.0105 C   0  0  0  0  0  0  0  0  0  0  0  0
   47.9662   33.7126   41.6699 F   0  0  0  0  0  0  0  0  0  0  0  0
   47.6911   35.8692   42.0681 F   0  0  0  0  0  0  0  0  0  0  0  0
   46.0595   34.6268   41.0654 F   0  0  0  0  0  0  0  0  0  0  0  0
   44.8521   36.2249   42.9481 C   0  0  0  0  0  0  0  0  0  0  0  0
   45.0123   37.5240   43.5707 N   0  0  0  0  0  0  0  0  0  0  0  0
   44.1246   35.3706   45.5301 H   0  0  0  0  0  0  0  0  0  0  0  0
   47.0561   32.4229   45.8836 H   0  0  0  0  0  0  0  0  0  0  0  0
   45.1008   36.3707   41.9362 H   0  0  0  0  0  0  0  0  0  0  0  0
   43.7170   36.0464   42.9542 H   0  0  0  0  0  0  0  0  0  0  0  0
   45.9181   37.9965   43.2525 H   0  0  0  0  0  0  0  0  0  0  0  0
   45.5231   35.7726   46.6367 N   0  0  0  0  0  0  0  0  0  0  0  0
   44.9411   36.7281   46.2897 C   0  0  0  0  0  0  0  0  0  0  0  0
   44.2164   37.9073   45.8361 C   0  0  0  0  0  0  0  0  0  0  0  0
   44.2575   38.2667   44.4812 C   0  0  0  0  0  0  0  0  0  0  0  0
   43.5260   39.4023   44.2021 C   0  0  0  0  0  0  0  0  0  0  0  0
   43.5144   39.7544   43.1787 H   0  0  0  0  0  0  0  0  0  0  0  0
   42.7968   40.1786   45.0732 C   0  0  0  0  0  0  0  0  0  0  0  0
   42.2569   41.0519   44.7520 H   0  0  0  0  0  0  0  0  0  0  0  0
   42.8062   39.7595   46.3856 C   0  0  0  0  0  0  0  0  0  0  0  0
   43.5073   38.6406   46.7542 C   0  0  0  0  0  0  0  0  0  0  0  0
   42.2562   40.3199   47.1242 H   0  0  0  0  0  0  0  0  0  0  0  0
   43.5259   38.2954   47.7857 H   0  0  0  0  0  0  0  0  0  0  0  0
  1  6  2  0
  2  1  1  0
  3  2  2  0
  3  4  1  0
  4  5  2  0
  5  6  1  0
  7  9  1  0
  7  3  1  0
  8  7  1  0
 10  7  1  0
 11 12  1  0
 11  2  1  0
  1 13  1  0
  5 14  1  0
 11 15  1  0
 11 16  1  0
 12 17  1  0
 18 19  3  0
 19 20  1  0
 20 21  2  0
 21 22  1  0
 22 23  1  0
 22 24  2  0
 24 25  1  0
 24 26  1  0
 26 27  2  0
 27 20  1  0
 26 28  1  0
 27 29  1  0
 12 21  1  0
M  ISO  7  13  14  14  14  15   8  16   8  17   5  23  15  25  16
M  END
>  <DihAtoms>  (1) 
10,11,20,19

>  <DihDeg>  (1) 
178.71830999078557

$$$$
