
     RDKit          3D

 38 41  0  0  1  0  0  0  0  0999 V2000
   47.3820   33.8300   39.7130 C   0  0  0  0  0  0  0  0  0  0  0  0
   48.3590   34.6110   39.1010 C   0  0  0  0  0  0  0  0  0  0  0  0
   48.3230   34.3820   37.7380 C   0  0  0  0  0  0  0  0  0  0  0  0
   47.3190   33.4630   37.5880 C   0  0  0  0  0  0  0  0  0  0  0  0
   46.7770   33.1490   38.7480 O   0  0  0  0  0  0  0  0  0  0  0  0
   46.8920   32.9000   36.2900 C   0  0  2  0  0  0  0  0  0  0  0  0
   46.3230   31.5400   36.2430 C   0  0  0  0  0  0  0  0  0  0  0  0
   47.7510   31.6970   35.8330 C   0  0  1  0  0  0  0  0  0  0  0  0
   47.8000   30.7450   33.4300 C   0  0  0  0  0  0  0  0  0  0  0  0
   48.0550   31.6940   34.3870 C   0  0  0  0  0  0  0  0  0  0  0  0
   48.6730   32.8930   34.0160 C   0  0  0  0  0  0  0  0  0  0  0  0
   49.0310   33.1340   32.6850 C   0  0  0  0  0  0  0  0  0  0  0  0
   48.7630   32.1580   31.7260 C   0  0  0  0  0  0  0  0  0  0  0  0
   48.1450   30.9620   32.1120 C   0  0  0  0  0  0  0  0  0  0  0  0
   46.7120   28.5380   34.2720 N   0  0  0  0  0  0  0  0  0  0  0  0
   47.1930   29.5380   33.8970 C   0  0  0  0  0  0  0  0  0  0  0  0
   47.0060   33.6960   41.0680 O   0  0  0  0  0  0  0  0  0  0  0  0
   47.2620   34.7560   41.9670 C   0  0  0  0  0  0  0  0  0  0  0  0
   48.2070   35.5250   41.6710 O   0  0  0  0  0  0  0  0  0  0  0  0
   46.4050   34.8230   43.1080 C   0  0  0  0  0  0  0  0  0  0  0  0
   45.5240   35.8690   43.1090 C   0  0  0  0  0  0  0  0  0  0  0  0
   44.6550   35.9960   44.1940 C   0  0  0  0  0  0  0  0  0  0  0  0
   44.7310   35.0770   45.1910 N   0  0  0  0  0  0  0  0  0  0  0  0
   45.6080   34.0730   45.1460 C   0  0  0  0  0  0  0  0  0  0  0  0
   46.4330   33.9600   44.1060 N   0  0  0  0  0  0  0  0  0  0  0  0
   49.0464   35.2973   39.6171 H   0  0  0  0  0  0  0  0  0  0  0  0
   48.9532   34.8325   36.9570 H   0  0  0  0  0  0  0  0  0  0  0  0
   46.5561   33.8664   35.8861 H   0  0  0  0  0  0  0  0  0  0  0  0
   46.0827   31.0202   37.1822 H   0  0  0  0  0  0  0  0  0  0  0  0
   45.4366   31.1023   35.7606 H   0  0  0  0  0  0  0  0  0  0  0  0
   48.6936   31.2129   36.1282 H   0  0  0  0  0  0  0  0  0  0  0  0
   48.8802   33.6562   34.7806 H   0  0  0  0  0  0  0  0  0  0  0  0
   49.5164   34.0789   32.3996 H   0  0  0  0  0  0  0  0  0  0  0  0
   49.0351   32.3262   30.6735 H   0  0  0  0  0  0  0  0  0  0  0  0
   47.9330   30.1894   31.3582 H   0  0  0  0  0  0  0  0  0  0  0  0
   45.5008   36.5898   42.2784 H   0  0  0  0  0  0  0  0  0  0  0  0
   43.9272   36.8195   44.2403 H   0  0  0  0  0  0  0  0  0  0  0  0
   45.6500   33.3403   45.9654 H   0  0  0  0  0  0  0  0  0  0  0  0
  1 17  1  0
  2  1  2  0
  3  2  1  0
  4  3  2  0
  4  5  1  0
  5  1  1  0
  6  4  1  0
  7  6  1  0
  8  7  1  0
  8  6  1  0
  9 16  1  0
  9 10  2  0
 10  8  1  0
 11 10  1  0
 12 11  2  0
 13 14  2  0
 13 12  1  0
 14  9  1  0
 16 15  3  0
 17 18  1  0
 18 20  1  0
 19 18  2  0
 20 21  2  0
 20 25  1  0
 21 22  1  0
 22 23  2  0
 24 23  1  0
 25 24  2  0
  2 26  1  0
  3 27  1  0
  6 28  1  6
  7 29  1  0
  7 30  1  0
  8 31  1  1
 11 32  1  0
 12 33  1  0
 13 34  1  0
 14 35  1  0
 21 36  1  0
 22 37  1  0
 24 38  1  0
M  ISO  8  26  14  27  14  28  13  29  13  30  13  31  13  32  14  33  14
M  ISO  5  34  14  35  14  36  14  37  14  38  14
M  END
>  <minimizedAffinity>  (1) 
-5.53851843

>  <minimizedRMSD>  (1) 
1.91826212

$$$$
