
     RDKit          3D

 44 47  0  0  0  0  0  0  0  0999 V2000
   45.2800   35.2768   43.1360 Cl  0  0  0  0  0  0  0  0  0  0  0  0
   45.1546   34.5227   41.5651 C   0  0  0  0  0  0  0  0  0  0  0  0
   46.2617   34.1379   40.8821 C   0  0  0  0  0  0  0  0  0  0  0  0
   46.0722   33.5599   39.6375 C   0  0  0  0  0  0  0  0  0  0  0  0
   44.8291   33.3873   39.1187 C   0  0  0  0  0  0  0  0  0  0  0  0
   43.7197   33.7692   39.7970 C   0  0  0  0  0  0  0  0  0  0  0  0
   43.8957   34.3438   41.0375 C   0  0  0  0  0  0  0  0  0  0  0  0
   49.5410   35.7508   41.8806 C   0  0  0  0  0  0  0  0  0  0  0  0
   48.2812   35.5486   41.3105 C   0  0  0  0  0  0  0  0  0  0  0  0
   47.5815   34.3621   41.4725 C   0  0  0  0  0  0  0  0  0  0  0  0
   48.2113   33.4447   42.2111 N   0  0  0  0  0  0  0  0  0  0  0  0
   49.4173   33.6249   42.7633 C   0  0  0  0  0  0  0  0  0  0  0  0
   50.0784   34.7702   42.5996 N   0  0  0  0  0  0  0  0  0  0  0  0
   47.7777   31.8637   38.9785 C   0  0  0  0  0  0  0  0  0  0  0  0
   47.2328   33.1090   38.8748 C   0  0  0  0  0  0  0  0  0  0  0  0
   47.7829   34.0252   37.9951 C   0  0  0  0  0  0  0  0  0  0  0  0
   48.8670   33.7016   37.2265 C   0  0  0  0  0  0  0  0  0  0  0  0
   49.4548   32.4465   37.2987 C   0  0  0  0  0  0  0  0  0  0  0  0
   48.8875   31.5342   38.1903 C   0  0  0  0  0  0  0  0  0  0  0  0
   47.2025   30.7214   40.0839 S   0  0  0  0  0  0  0  0  0  0  0  0
   46.8110   29.4385   39.2734 O   0  0  0  0  0  0  0  0  0  0  0  0
   48.3633   30.2652   40.9192 O   0  0  0  0  0  0  0  0  0  0  0  0
   44.7296   32.9300   38.1330 H   0  0  0  0  0  0  0  0  0  0  0  0
   42.7385   33.6186   39.3602 H   0  0  0  0  0  0  0  0  0  0  0  0
   42.9967   34.6451   41.5719 H   0  0  0  0  0  0  0  0  0  0  0  0
   50.0527   36.6914   41.7294 H   0  0  0  0  0  0  0  0  0  0  0  0
   47.8490   36.3468   40.7283 H   0  0  0  0  0  0  0  0  0  0  0  0
   49.7179   32.7335   43.3183 H   0  0  0  0  0  0  0  0  0  0  0  0
   47.3655   35.0181   37.8973 H   0  0  0  0  0  0  0  0  0  0  0  0
   49.3320   34.3629   36.5344 H   0  0  0  0  0  0  0  0  0  0  0  0
   50.2941   32.1124   36.7417 H   0  0  0  0  0  0  0  0  0  0  0  0
   49.3186   30.5467   38.2729 H   0  0  0  0  0  0  0  0  0  0  0  0
   47.5104   33.3531   42.6706 N   0  0  0  0  0  0  0  0  0  0  0  0
   46.6193   32.6330   42.4008 C   0  0  0  0  0  0  0  0  0  0  0  0
   45.5192   31.7329   42.0598 C   0  0  0  0  0  0  0  0  0  0  0  0
   45.7406   30.8495   40.9752 C   0  0  0  0  0  0  0  0  0  0  0  0
   44.5903   30.1067   40.7426 C   0  0  0  0  0  0  0  0  0  0  0  0
   44.5928   29.3965   39.9302 H   0  0  0  0  0  0  0  0  0  0  0  0
   43.3922   30.1642   41.4188 C   0  0  0  0  0  0  0  0  0  0  0  0
   42.5493   29.5396   41.1606 H   0  0  0  0  0  0  0  0  0  0  0  0
   43.3337   31.0735   42.4520 C   0  0  0  0  0  0  0  0  0  0  0  0
   44.3802   31.8893   42.8155 C   0  0  0  0  0  0  0  0  0  0  0  0
   42.4203   31.1663   43.0238 H   0  0  0  0  0  0  0  0  0  0  0  0
   44.3417   32.5971   43.6157 H   0  0  0  0  0  0  0  0  0  0  0  0
  2  1  1  0
  3 10  1  0
  3  2  2  0
  4  3  1  0
  5  4  2  0
  5  6  1  0
  6  7  2  0
  7  2  1  0
  8 13  2  0
  9 10  2  0
  9  8  1  0
 10 11  1  0
 11 12  2  0
 13 12  1  0
 14 20  1  0
 15 14  1  0
 15  4  1  0
 16 15  2  0
 17 18  2  0
 17 16  1  0
 18 19  1  0
 19 14  2  0
 20 22  2  0
 21 20  2  0
  5 23  1  0
  6 24  1  0
  7 25  1  0
  8 26  1  0
  9 27  1  0
 12 28  1  0
 16 29  1  0
 17 30  1  0
 18 31  1  0
 19 32  1  0
 33 34  3  0
 34 35  1  0
 35 36  2  0
 36 37  1  0
 37 38  1  0
 37 39  2  0
 39 40  1  0
 39 41  1  0
 41 42  2  0
 42 35  1  0
 41 43  1  0
 42 44  1  0
 20 36  1  0
M  ISO  8  23  14  24  14  25  14  26  14  27  14  28  14  29  14  30  14
M  ISO  4  31  14  32  14  38  15  40  16
M  END
>  <DihAtoms>  (1) 
13,19,35,34

>  <DihDeg>  (1) 
77.61972947442507

$$$$
