
     RDKit          3D

 44 47  0  0  0  0  0  0  0  0999 V2000
   47.5180   31.7890   39.0020 C   0  0  0  0  0  0  0  0  0  0  0  0
   47.1190   33.0920   38.9820 C   0  0  0  0  0  0  0  0  0  0  0  0
   47.7970   34.0020   38.1900 C   0  0  0  0  0  0  0  0  0  0  0  0
   48.8630   33.6150   37.4260 C   0  0  0  0  0  0  0  0  0  0  0  0
   49.3040   32.2990   37.4160 C   0  0  0  0  0  0  0  0  0  0  0  0
   48.6090   31.3940   38.2190 C   0  0  0  0  0  0  0  0  0  0  0  0
   45.3300   35.4580   43.2100 Cl  0  0  0  0  0  0  0  0  0  0  0  0
   45.1470   34.6690   41.6620 C   0  0  0  0  0  0  0  0  0  0  0  0
   46.2260   34.2170   40.9740 C   0  0  0  0  0  0  0  0  0  0  0  0
   45.9910   33.6150   39.7490 C   0  0  0  0  0  0  0  0  0  0  0  0
   44.7340   33.4850   39.2520 C   0  0  0  0  0  0  0  0  0  0  0  0
   43.6540   33.9340   39.9350 C   0  0  0  0  0  0  0  0  0  0  0  0
   43.8740   34.5340   41.1570 C   0  0  0  0  0  0  0  0  0  0  0  0
   49.5670   35.7270   41.9270 C   0  0  0  0  0  0  0  0  0  0  0  0
   48.2900   35.5670   41.3800 C   0  0  0  0  0  0  0  0  0  0  0  0
   47.5620   34.3970   41.5390 C   0  0  0  0  0  0  0  0  0  0  0  0
   48.1820   33.4520   42.2510 N   0  0  0  0  0  0  0  0  0  0  0  0
   49.4040   33.5920   42.7800 C   0  0  0  0  0  0  0  0  0  0  0  0
   50.0920   34.7210   42.6200 N   0  0  0  0  0  0  0  0  0  0  0  0
   46.7820   30.6410   40.0020 S   0  0  0  0  0  0  0  0  0  0  0  0
   47.1810   29.2250   39.4630 O   0  0  0  0  0  0  0  0  0  0  0  0
   47.4490   30.7040   41.3440 O   0  0  0  0  0  0  0  0  0  0  0  0
   44.2970   30.5450   41.2580 C   0  0  0  0  0  0  0  0  0  0  0  0
   45.0930   30.3480   40.1030 C   0  0  0  0  0  0  0  0  0  0  0  0
   44.2940   29.8860   39.0660 C   0  0  0  0  0  0  0  0  0  0  0  0
   42.9400   29.6330   39.0850 C   0  0  0  0  0  0  0  0  0  0  0  0
   42.3050   29.8730   40.2840 C   0  0  0  0  0  0  0  0  0  0  0  0
   42.9460   30.3340   41.4110 C   0  0  0  0  0  0  0  0  0  0  0  0
   45.5320   31.5230   43.3750 N   0  0  0  0  0  0  0  0  0  0  0  0
   44.9770   31.0880   42.4330 C   0  0  0  0  0  0  0  0  0  0  0  0
   47.4733   35.0532   38.1748 H   0  0  0  0  0  0  0  0  0  0  0  0
   49.3815   34.3618   36.8068 H   0  0  0  0  0  0  0  0  0  0  0  0
   50.1617   31.9841   36.8034 H   0  0  0  0  0  0  0  0  0  0  0  0
   48.9272   30.3412   38.2372 H   0  0  0  0  0  0  0  0  0  0  0  0
   44.5897   33.0044   38.2731 H   0  0  0  0  0  0  0  0  0  0  0  0
   42.6375   33.8240   39.5293 H   0  0  0  0  0  0  0  0  0  0  0  0
   43.0186   34.9106   41.7371 H   0  0  0  0  0  0  0  0  0  0  0  0
   50.1250   36.6646   41.7870 H   0  0  0  0  0  0  0  0  0  0  0  0
   47.8489   36.3950   40.8056 H   0  0  0  0  0  0  0  0  0  0  0  0
   49.8453   32.7639   43.3541 H   0  0  0  0  0  0  0  0  0  0  0  0
   44.8056   29.6987   38.1104 H   0  0  0  0  0  0  0  0  0  0  0  0
   42.4008   29.2634   38.2004 H   0  0  0  0  0  0  0  0  0  0  0  0
   41.2228   29.6852   40.3438 H   0  0  0  0  0  0  0  0  0  0  0  0
   42.4200   30.5192   42.3592 H   0  0  0  0  0  0  0  0  0  0  0  0
  1 20  1  0
  2  1  1  0
  2 10  1  0
  3  2  2  0
  4  3  1  0
  5  4  2  0
  5  6  1  0
  6  1  2  0
  8  7  1  0
  9 16  1  0
  9  8  2  0
 10  9  1  0
 11 10  2  0
 11 12  1  0
 12 13  2  0
 13  8  1  0
 14 19  2  0
 15 16  2  0
 15 14  1  0
 16 17  1  0
 17 18  2  0
 19 18  1  0
 20 24  1  0
 20 22  2  0
 21 20  2  0
 23 28  2  0
 23 30  1  0
 24 23  1  0
 25 26  1  0
 25 24  2  0
 26 27  2  0
 27 28  1  0
 30 29  3  0
  3 31  1  0
  4 32  1  0
  5 33  1  0
  6 34  1  0
 11 35  1  0
 12 36  1  0
 13 37  1  0
 14 38  1  0
 15 39  1  0
 18 40  1  0
 25 41  1  0
 26 42  1  0
 27 43  1  0
 28 44  1  0
M  ISO  8  31  14  32  14  33  14  34  14  35  14  36  14  37  14  38  14
M  ISO  6  39  14  40  14  41  14  42  14  43  14  44  14
M  END
>  <minimizedAffinity>  (1) 
-4.54121017

>  <minimizedRMSD>  (1) 
1.13529658

$$$$
