
     RDKit          3D

 31 32  0  0  0  0  0  0  0  0999 V2000
   46.5234   34.2682   43.0652 C   0  0  0  0  0  0  0  0  0  0  0  0
   47.3788   33.3641   43.6905 C   0  0  0  0  0  0  0  0  0  0  0  0
   47.1378   33.0331   45.0373 C   0  0  0  0  0  0  0  0  0  0  0  0
   46.0940   33.6054   45.6549 N   0  0  0  0  0  0  0  0  0  0  0  0
   45.2801   34.4726   45.0421 C   0  0  0  0  0  0  0  0  0  0  0  0
   45.5049   34.8019   43.7321 N   0  0  0  0  0  0  0  0  0  0  0  0
   45.4897   34.2388   40.8207 C   0  0  0  0  0  0  0  0  0  0  0  0
   44.9480   33.1010   40.9751 O   0  0  0  0  0  0  0  0  0  0  0  0
   46.3141   34.9097   41.8194 N   0  0  0  0  0  0  0  0  0  0  0  0
   48.4139   32.8529   42.9314 O   0  0  0  0  0  0  0  0  0  0  0  0
   50.9164   33.0892   42.1021 O   0  0  0  0  0  0  0  0  0  0  0  0
   49.6532   33.8793   42.3277 P   0  0  1  0  0  0  0  0  0  0  0  0
   49.1838   34.5152   40.8297 O   0  0  0  0  0  0  0  0  0  0  0  0
   49.9738   35.1446   43.3768 O   0  0  0  0  0  0  0  0  0  0  0  0
   47.8298   32.3282   45.4742 H   0  0  0  0  0  0  0  0  0  0  0  0
   44.4430   34.9287   45.5446 H   0  0  0  0  0  0  0  0  0  0  0  0
   45.2245   34.5945   39.8347 H   0  0  0  0  0  0  0  0  0  0  0  0
   46.6803   35.8242   41.5092 H   0  0  0  0  0  0  0  0  0  0  0  0
   49.7538   34.2155   40.0959 H   0  0  0  0  0  0  0  0  0  0  0  0
   47.7990   32.5400   44.2057 N   0  0  0  0  0  0  0  0  0  0  0  0
   48.6801   33.1232   44.6802 C   0  0  0  0  0  0  0  0  0  0  0  0
   49.7724   33.8333   45.2885 C   0  0  0  0  0  0  0  0  0  0  0  0
   50.4486   34.8636   44.6522 C   0  0  0  0  0  0  0  0  0  0  0  0
   51.4962   35.5249   45.2694 C   0  0  0  0  0  0  0  0  0  0  0  0
   51.9814   36.3146   44.7263 H   0  0  0  0  0  0  0  0  0  0  0  0
   51.8646   35.1314   46.5598 C   0  0  0  0  0  0  0  0  0  0  0  0
   52.6827   35.6420   47.0517 H   0  0  0  0  0  0  0  0  0  0  0  0
   51.1672   34.1026   47.1580 C   0  0  0  0  0  0  0  0  0  0  0  0
   50.1186   33.4184   46.5784 C   0  0  0  0  0  0  0  0  0  0  0  0
   51.4714   33.8180   48.1541 H   0  0  0  0  0  0  0  0  0  0  0  0
   49.5947   32.6240   47.0647 H   0  0  0  0  0  0  0  0  0  0  0  0
  1  2  2  0
  1  6  1  0
  2  3  1  0
  3  4  2  0
  5  4  1  0
  6  5  2  0
  7  8  2  0
  7  9  1  0
  9  1  1  0
 10  2  1  0
 11 12  2  0
 12 10  1  1
 12 14  1  0
 13 12  1  0
  3 15  1  0
  5 16  1  0
  7 17  1  0
  9 18  1  0
 13 19  1  0
 20 21  3  0
 21 22  1  0
 22 23  2  0
 23 24  1  0
 24 25  1  0
 24 26  2  0
 26 27  1  0
 26 28  1  0
 28 29  2  0
 29 22  1  0
 28 30  1  0
 29 31  1  0
 14 23  1  0
M  ISO  6  15  14  16  14  17   6  19   3  25  15  27  16
M  END
>  <DihAtoms>  (1) 
11,13,22,21

>  <DihDeg>  (1) 
179.99990037162502

$$$$
