
     RDKit          3D

 43 46  0  0  0  0  0  0  0  0999 V2000
   47.9080   33.7910   42.8900 C   0  0  0  0  0  0  0  0  0  0  0  0
   48.5800   35.0050   42.6560 C   0  0  0  0  0  0  0  0  0  0  0  0
   49.9490   35.0010   42.3390 C   0  0  0  0  0  0  0  0  0  0  0  0
   50.5470   33.7690   42.2790 N   0  0  0  0  0  0  0  0  0  0  0  0
   49.8620   32.6070   42.5120 C   0  0  0  0  0  0  0  0  0  0  0  0
   48.5710   32.6350   42.8110 N   0  0  0  0  0  0  0  0  0  0  0  0
   46.4770   33.9200   43.2210 C   0  0  0  0  0  0  0  0  0  0  0  0
   45.7730   34.9290   42.4300 C   0  0  0  0  0  0  0  0  0  0  0  0
   45.3280   36.1150   43.2070 C   0  0  0  0  0  0  0  0  0  0  0  0
   44.5200   35.7570   44.4410 C   0  0  0  0  0  0  0  0  0  0  0  0
   44.9790   34.4970   45.1330 C   0  0  0  0  0  0  0  0  0  0  0  0
   46.4070   34.1630   44.7390 C   0  0  0  0  0  0  0  0  0  0  0  0
   50.6630   31.3880   42.4120 C   0  0  0  0  0  0  0  0  0  0  0  0
   51.5480   31.3110   41.3940 N   0  0  0  0  0  0  0  0  0  0  0  0
   52.1950   30.1370   41.4550 C   0  0  0  0  0  0  0  0  0  0  0  0
   51.6950   29.4790   42.5370 N   0  0  0  0  0  0  0  0  0  0  0  0
   50.7550   30.2420   43.1270 N   0  0  0  0  0  0  0  0  0  0  0  0
   52.9590   27.9290   44.0480 C   0  0  0  0  0  0  0  0  0  0  0  0
   52.0080   28.1990   43.0810 C   0  0  0  0  0  0  0  0  0  0  0  0
   51.2420   27.1590   42.5440 C   0  0  0  0  0  0  0  0  0  0  0  0
   51.4100   25.8490   42.9550 C   0  0  0  0  0  0  0  0  0  0  0  0
   52.3750   25.6200   43.9270 C   0  0  0  0  0  0  0  0  0  0  0  0
   53.1450   26.6260   44.4760 C   0  0  0  0  0  0  0  0  0  0  0  0
   54.2930   29.9430   44.9650 N   0  0  0  0  0  0  0  0  0  0  0  0
   53.6890   29.0360   44.5390 C   0  0  0  0  0  0  0  0  0  0  0  0
   48.0335   35.9574   42.7212 H   0  0  0  0  0  0  0  0  0  0  0  0
   50.5069   35.9301   42.1505 H   0  0  0  0  0  0  0  0  0  0  0  0
   45.9392   32.9986   42.9530 H   0  0  0  0  0  0  0  0  0  0  0  0
   44.8856   34.4579   41.9821 H   0  0  0  0  0  0  0  0  0  0  0  0
   46.4881   35.2952   41.6787 H   0  0  0  0  0  0  0  0  0  0  0  0
   46.2180   36.6785   43.5240 H   0  0  0  0  0  0  0  0  0  0  0  0
   44.6738   36.7074   42.5504 H   0  0  0  0  0  0  0  0  0  0  0  0
   44.5932   36.5900   45.1556 H   0  0  0  0  0  0  0  0  0  0  0  0
   43.4887   35.5764   44.1038 H   0  0  0  0  0  0  0  0  0  0  0  0
   44.9289   34.6435   46.2221 H   0  0  0  0  0  0  0  0  0  0  0  0
   44.3236   33.6668   44.8312 H   0  0  0  0  0  0  0  0  0  0  0  0
   46.7316   33.2564   45.2708 H   0  0  0  0  0  0  0  0  0  0  0  0
   47.0668   35.0014   45.0069 H   0  0  0  0  0  0  0  0  0  0  0  0
   52.9746   29.7776   40.7673 H   0  0  0  0  0  0  0  0  0  0  0  0
   50.4881   27.3884   41.7766 H   0  0  0  0  0  0  0  0  0  0  0  0
   50.8094   25.0297   42.5331 H   0  0  0  0  0  0  0  0  0  0  0  0
   52.5333   24.5889   44.2759 H   0  0  0  0  0  0  0  0  0  0  0  0
   53.8973   26.3946   45.2444 H   0  0  0  0  0  0  0  0  0  0  0  0
  1  7  1  0
  2  1  2  0
  3  2  1  0
  4  3  2  0
  4  5  1  0
  5  6  2  0
  6  1  1  0
  7 12  1  0
  8  9  1  0
  8  7  1  0
  9 10  1  0
 10 11  1  0
 12 11  1  0
 13  5  1  0
 13 17  2  0
 14 15  2  0
 14 13  1  0
 15 16  1  0
 16 19  1  0
 16 17  1  0
 18 23  2  0
 18 25  1  0
 19 18  1  0
 20 21  1  0
 20 19  2  0
 21 22  2  0
 22 23  1  0
 25 24  3  0
  2 26  1  0
  3 27  1  0
  7 28  1  0
  8 29  1  0
  8 30  1  0
  9 31  1  0
  9 32  1  0
 10 33  1  0
 10 34  1  0
 11 35  1  0
 11 36  1  0
 12 37  1  0
 12 38  1  0
 15 39  1  0
 20 40  1  0
 21 41  1  0
 22 42  1  0
 23 43  1  0
M  ISO  8  26  14  27  14  28  13  29  13  30  13  31  13  32  13  33  13
M  ISO  8  34  13  35  13  36  13  37  13  38  13  39  14  40  14  41  14
M  ISO  2  42  14  43  14
M  END
>  <minimizedAffinity>  (1) 
-4.19144249

>  <minimizedRMSD>  (1) 
0.721962154

$$$$
