
     RDKit          3D

 31 32  0  0  0  0  0  0  0  0999 V2000
   46.5234   34.2682   43.0652 C   0  0  0  0  0  0  0  0  0  0  0  0
   47.3788   33.3641   43.6905 C   0  0  0  0  0  0  0  0  0  0  0  0
   47.1378   33.0331   45.0373 C   0  0  0  0  0  0  0  0  0  0  0  0
   46.0940   33.6054   45.6549 N   0  0  0  0  0  0  0  0  0  0  0  0
   45.2801   34.4726   45.0421 C   0  0  0  0  0  0  0  0  0  0  0  0
   45.5049   34.8019   43.7321 N   0  0  0  0  0  0  0  0  0  0  0  0
   45.4897   34.2388   40.8207 C   0  0  0  0  0  0  0  0  0  0  0  0
   44.9480   33.1010   40.9751 O   0  0  0  0  0  0  0  0  0  0  0  0
   46.3141   34.9097   41.8194 N   0  0  0  0  0  0  0  0  0  0  0  0
   48.4139   32.8529   42.9314 O   0  0  0  0  0  0  0  0  0  0  0  0
   50.9164   33.0892   42.1021 O   0  0  0  0  0  0  0  0  0  0  0  0
   49.6532   33.8793   42.3277 P   0  0  1  0  0  0  0  0  0  0  0  0
   49.1838   34.5152   40.8297 O   0  0  0  0  0  0  0  0  0  0  0  0
   49.9738   35.1446   43.3768 O   0  0  0  0  0  0  0  0  0  0  0  0
   47.8298   32.3282   45.4742 H   0  0  0  0  0  0  0  0  0  0  0  0
   44.4430   34.9287   45.5446 H   0  0  0  0  0  0  0  0  0  0  0  0
   45.2245   34.5945   39.8347 H   0  0  0  0  0  0  0  0  0  0  0  0
   46.6803   35.8242   41.5092 H   0  0  0  0  0  0  0  0  0  0  0  0
   49.7538   34.2155   40.0959 H   0  0  0  0  0  0  0  0  0  0  0  0
   51.8648   38.0339   43.9025 N   0  0  0  0  0  0  0  0  0  0  0  0
   51.5927   37.0574   44.4627 C   0  0  0  0  0  0  0  0  0  0  0  0
   51.2673   35.8525   45.1769 C   0  0  0  0  0  0  0  0  0  0  0  0
   50.4486   34.8636   44.6522 C   0  0  0  0  0  0  0  0  0  0  0  0
   50.1572   33.7163   45.3694 C   0  0  0  0  0  0  0  0  0  0  0  0
   49.5170   32.9858   44.9104 H   0  0  0  0  0  0  0  0  0  0  0  0
   50.7090   33.5705   46.6461 C   0  0  0  0  0  0  0  0  0  0  0  0
   50.4874   32.6769   47.2157 H   0  0  0  0  0  0  0  0  0  0  0  0
   51.5180   34.5765   47.1318 C   0  0  0  0  0  0  0  0  0  0  0  0
   51.8329   35.7341   46.4504 C   0  0  0  0  0  0  0  0  0  0  0  0
   51.9312   34.4396   48.1198 H   0  0  0  0  0  0  0  0  0  0  0  0
   52.4632   36.4988   46.8505 H   0  0  0  0  0  0  0  0  0  0  0  0
  1  2  2  0
  1  6  1  0
  2  3  1  0
  3  4  2  0
  5  4  1  0
  6  5  2  0
  7  8  2  0
  7  9  1  0
  9  1  1  0
 10  2  1  0
 11 12  2  0
 12 10  1  1
 12 14  1  0
 13 12  1  0
  3 15  1  0
  5 16  1  0
  7 17  1  0
  9 18  1  0
 13 19  1  0
 20 21  3  0
 21 22  1  0
 22 23  2  0
 23 24  1  0
 24 25  1  0
 24 26  2  0
 26 27  1  0
 26 28  1  0
 28 29  2  0
 29 22  1  0
 28 30  1  0
 29 31  1  0
 14 23  1  0
M  ISO  6  15  14  16  14  17   6  19   3  25  15  27  16
M  END
>  <DihAtoms>  (1) 
11,13,22,21

>  <DihDeg>  (1) 
179.99990037162502

$$$$
