
     RDKit          3D

 40 42  0  0  0  0  0  0  0  0999 V2000
   46.3281   35.0036   41.9187 C   0  0  0  0  0  0  0  0  0  0  0  0
   44.8556   34.9470   41.6953 C   0  0  0  0  0  0  0  0  0  0  0  0
   43.9730   35.4367   42.7055 C   0  0  0  0  0  0  0  0  0  0  0  0
   42.3143   35.1520   41.9755 S   0  0  0  0  0  0  0  0  0  0  0  0
   43.1058   34.4094   40.4079 C   0  0  0  0  0  0  0  0  0  0  0  0
   44.2158   34.4891   40.6546 N   0  0  0  0  0  0  0  0  0  0  0  0
   42.3592   33.9366   39.3280 O   0  0  0  0  0  0  0  0  0  0  0  0
   40.4078   34.3884   37.5984 O   0  0  0  0  0  0  0  0  0  0  0  0
   41.4876   35.0705   38.4220 P   0  0  0  0  0  0  0  0  0  0  0  0
   40.7547   36.1462   39.4970 O   0  0  0  0  0  0  0  0  0  0  0  0
   42.5551   35.9456   37.4297 O   0  0  0  0  0  0  0  0  0  0  0  0
   47.1406   34.3498   40.8310 C   0  0  0  0  0  0  0  0  0  0  0  0
   48.4725   33.9266   41.2794 C   0  0  0  0  0  0  0  0  0  0  0  0
   48.9232   32.7145   40.7789 C   0  0  0  0  0  0  0  0  0  0  0  0
   50.1747   32.2191   41.1583 C   0  0  0  0  0  0  0  0  0  0  0  0
   50.9148   32.9728   42.0270 N   0  0  0  0  0  0  0  0  0  0  0  0
   50.4318   34.1525   42.4892 C   0  0  0  0  0  0  0  0  0  0  0  0
   49.2381   34.6003   42.1125 N   0  0  0  0  0  0  0  0  0  0  0  0
   47.9275   31.7283   39.6488 S   0  0  0  0  0  0  0  0  0  0  0  0
   46.6418   36.0654   42.0395 H   0  0  0  0  0  0  0  0  0  0  0  0
   46.5210   34.5139   42.9026 H   0  0  0  0  0  0  0  0  0  0  0  0
   44.2526   35.8677   43.6639 H   0  0  0  0  0  0  0  0  0  0  0  0
   39.9476   35.6836   39.8519 H   0  0  0  0  0  0  0  0  0  0  0  0
   42.8880   35.3800   36.6902 H   0  0  0  0  0  0  0  0  0  0  0  0
   47.3001   35.1370   40.0576 H   0  0  0  0  0  0  0  0  0  0  0  0
   46.5221   33.5039   40.4666 H   0  0  0  0  0  0  0  0  0  0  0  0
   50.4923   31.2758   40.7512 H   0  0  0  0  0  0  0  0  0  0  0  0
   50.9973   34.7654   43.1756 H   0  0  0  0  0  0  0  0  0  0  0  0
   47.1673   35.2000   38.4051 N   0  0  0  0  0  0  0  0  0  0  0  0
   47.6494   34.2921   37.8638 C   0  0  0  0  0  0  0  0  0  0  0  0
   48.2231   33.1895   37.1840 C   0  0  0  0  0  0  0  0  0  0  0  0
   48.3479   32.0550   37.9506 C   0  0  0  0  0  0  0  0  0  0  0  0
   48.8885   30.9146   37.3439 C   0  0  0  0  0  0  0  0  0  0  0  0
   49.0586   29.9347   37.7970 H   0  0  0  0  0  0  0  0  0  0  0  0
   49.2923   30.9106   36.0111 C   0  0  0  0  0  0  0  0  0  0  0  0
   49.7094   30.0778   35.4940 H   0  0  0  0  0  0  0  0  0  0  0  0
   49.1552   32.0765   35.2555 C   0  0  0  0  0  0  0  0  0  0  0  0
   48.6234   33.1781   35.8718 C   0  0  0  0  0  0  0  0  0  0  0  0
   49.4589   32.1066   34.2195 H   0  0  0  0  0  0  0  0  0  0  0  0
   48.4941   34.1030   35.3403 H   0  0  0  0  0  0  0  0  0  0  0  0
  2  1  1  0
  2  3  2  0
  4  3  1  0
  5  6  2  0
  5  4  1  0
  6  2  1  0
  7  5  1  0
  8  9  2  0
  9  7  1  0
  9 10  1  0
 11  9  1  0
 12 13  1  0
 12  1  1  0
 13 18  2  0
 14 15  2  0
 14 13  1  0
 15 16  1  0
 16 17  2  0
 18 17  1  0
 19 14  1  0
  1 20  1  0
  1 21  1  0
  3 22  1  0
 10 23  1  0
 11 24  1  0
 12 25  1  0
 12 26  1  0
 15 27  1  0
 17 28  1  0
 29 30  3  0
 30 31  1  0
 31 32  2  0
 32 33  1  0
 33 34  1  0
 33 35  2  0
 35 36  1  0
 35 37  1  0
 37 38  2  0
 38 31  1  0
 37 39  1  0
 38 40  1  0
 19 32  1  0
M  ISO  8  20   8  21   8  22  14  23   3  24   3  25   8  26   8  27  14
M  ISO  3  28  14  34  15  36  16
M  END
>  <DihAtoms>  (1) 
13,18,31,30

>  <DihDeg>  (1) 
-94.92900341816859

$$$$
