
     RDKit          3D

 48 51  0  0  0  0  0  0  0  0999 V2000
   46.4824   32.5266   46.6986 C   0  0  2  0  0  0  0  0  0  0  0  0
   46.3224   31.1171   46.1941 C   0  0  0  0  0  0  0  0  0  0  0  0
   46.9178   30.1711   47.1990 C   0  0  0  0  0  0  0  0  0  0  0  0
   46.4715   30.3924   48.5989 C   0  0  0  0  0  0  0  0  0  0  0  0
   46.5191   31.8269   48.9848 C   0  0  0  0  0  0  0  0  0  0  0  0
   45.7386   32.6782   48.0004 C   0  0  2  0  0  0  0  0  0  0  0  0
   46.0710   33.5325   45.7209 C   0  0  0  0  0  0  0  0  0  0  0  0
   45.0272   34.4304   46.0698 C   0  0  0  0  0  0  0  0  0  0  0  0
   44.6354   35.3679   45.1065 C   0  0  0  0  0  0  0  0  0  0  0  0
   45.2856   35.3604   43.8841 N   0  0  0  0  0  0  0  0  0  0  0  0
   46.2681   34.4779   43.6251 C   0  0  0  0  0  0  0  0  0  0  0  0
   46.6560   33.5789   44.5256 N   0  0  0  0  0  0  0  0  0  0  0  0
   46.9068   34.5331   42.3065 C   0  0  0  0  0  0  0  0  0  0  0  0
   48.0112   35.2896   42.0806 C   0  0  0  0  0  0  0  0  0  0  0  0
   48.6368   35.3642   40.8514 C   0  0  0  0  0  0  0  0  0  0  0  0
   48.0773   34.6168   39.8319 C   0  0  0  0  0  0  0  0  0  0  0  0
   46.9523   33.8387   40.0389 C   0  0  0  0  0  0  0  0  0  0  0  0
   46.3687   33.7974   41.2737 N   0  0  0  0  0  0  0  0  0  0  0  0
   44.3988   32.2931   47.9004 N   0  0  0  0  0  0  0  0  0  0  0  0
   47.5734   32.6461   46.8753 H   0  0  0  0  0  0  0  0  0  0  0  0
   45.3510   30.8240   45.8258 H   0  0  0  0  0  0  0  0  0  0  0  0
   47.0358   31.0714   45.2947 H   0  0  0  0  0  0  0  0  0  0  0  0
   46.5732   29.1505   46.9013 H   0  0  0  0  0  0  0  0  0  0  0  0
   48.0343   30.1413   47.1103 H   0  0  0  0  0  0  0  0  0  0  0  0
   47.2206   29.8595   49.2563 H   0  0  0  0  0  0  0  0  0  0  0  0
   45.5031   29.9015   48.8295 H   0  0  0  0  0  0  0  0  0  0  0  0
   46.2094   31.9580   50.0080 H   0  0  0  0  0  0  0  0  0  0  0  0
   47.5862   32.1549   48.9005 H   0  0  0  0  0  0  0  0  0  0  0  0
   45.8980   33.7036   48.4331 H   0  0  0  0  0  0  0  0  0  0  0  0
   44.5086   34.4573   47.0172 H   0  0  0  0  0  0  0  0  0  0  0  0
   43.8509   36.0945   45.2740 H   0  0  0  0  0  0  0  0  0  0  0  0
   48.3816   35.8409   42.9308 H   0  0  0  0  0  0  0  0  0  0  0  0
   49.5181   35.9857   40.7270 H   0  0  0  0  0  0  0  0  0  0  0  0
   48.5331   34.6441   38.8517 H   0  0  0  0  0  0  0  0  0  0  0  0
   46.4842   33.2434   39.2795 H   0  0  0  0  0  0  0  0  0  0  0  0
   44.2326   31.8287   46.9837 H   0  0  0  0  0  0  0  0  0  0  0  0
   42.1395   29.7149   46.6049 N   0  0  0  0  0  0  0  0  0  0  0  0
   42.1138   30.5325   47.4283 C   0  0  0  0  0  0  0  0  0  0  0  0
   42.0950   31.5584   48.4307 C   0  0  0  0  0  0  0  0  0  0  0  0
   43.1989   32.3409   48.6317 C   0  0  0  0  0  0  0  0  0  0  0  0
   43.0002   33.2599   49.6667 C   0  0  0  0  0  0  0  0  0  0  0  0
   43.8044   33.9638   49.9491 H   0  0  0  0  0  0  0  0  0  0  0  0
   41.8684   33.3869   50.3986 C   0  0  0  0  0  0  0  0  0  0  0  0
   41.7770   34.1183   51.1862 H   0  0  0  0  0  0  0  0  0  0  0  0
   40.8280   32.5658   50.1232 C   0  0  0  0  0  0  0  0  0  0  0  0
   40.9105   31.6240   49.1280 C   0  0  0  0  0  0  0  0  0  0  0  0
   39.9176   32.6539   50.6971 H   0  0  0  0  0  0  0  0  0  0  0  0
   40.0566   30.9941   48.9465 H   0  0  0  0  0  0  0  0  0  0  0  0
  1  6  1  0
  2  1  1  0
  2  3  1  0
  3  4  1  0
  4  5  1  0
  6  5  1  0
  7  8  2  0
  7  1  1  0
  9  8  1  0
 10  9  2  0
 11 10  1  0
 11 12  2  0
 12  7  1  0
 13 11  1  0
 14 13  2  0
 15 14  1  0
 16 17  1  0
 16 15  2  0
 17 18  2  0
 18 13  1  0
 19  6  1  0
  1 20  1  1
  2 21  1  0
  2 22  1  0
  3 23  1  0
  3 24  1  0
  4 25  1  0
  4 26  1  0
  5 27  1  0
  5 28  1  0
  6 29  1  1
  8 30  1  0
  9 31  1  0
 14 32  1  0
 15 33  1  0
 16 34  1  0
 17 35  1  0
 19 36  1  0
 37 38  3  0
 38 39  1  0
 39 40  2  0
 40 41  1  0
 41 42  1  0
 41 43  2  0
 43 44  1  0
 43 45  1  0
 45 46  2  0
 46 39  1  0
 45 47  1  0
 46 48  1  0
 19 40  1  0
M  ISO  8  20  13  21  13  22  13  23  13  24  13  25  13  26  13  27  13
M  ISO  8  28  13  29  13  30  14  31  14  32  14  33  14  34  14  35  14
M  ISO  3  36   5  42  15  44  16
M  END
>  <DihAtoms>  (1) 
5,18,39,38

>  <DihDeg>  (1) 
4.0353949047669415

$$$$
