
     RDKit          3D

 46 50  0  0  0  0  0  0  0  0999 V2000
   44.6960   35.8760   43.3780 Cl  0  0  0  0  0  0  0  0  0  0  0  0
   45.4700   34.6440   44.3130 C   0  0  0  0  0  0  0  0  0  0  0  0
   46.5280   33.9280   43.7790 C   0  0  0  0  0  0  0  0  0  0  0  0
   47.0660   32.9710   44.6160 C   0  0  0  0  0  0  0  0  0  0  0  0
   46.6380   32.6940   45.8930 C   0  0  0  0  0  0  0  0  0  0  0  0
   45.5920   33.4240   46.3800 C   0  0  0  0  0  0  0  0  0  0  0  0
   45.0700   33.0450   48.0120 Cl  0  0  0  0  0  0  0  0  0  0  0  0
   45.0090   34.3910   45.6020 C   0  0  0  0  0  0  0  0  0  0  0  0
   47.3530   31.6320   46.6130 C   0  0  0  0  0  0  0  0  0  0  0  0
   47.4760   30.3470   46.1350 C   0  0  0  0  0  0  0  0  0  0  0  0
   48.1400   29.3390   46.7930 C   0  0  0  0  0  0  0  0  0  0  0  0
   48.7280   29.6200   48.0170 C   0  0  0  0  0  0  0  0  0  0  0  0
   49.3720   28.6160   48.6410 N   0  0  0  0  0  0  0  0  0  0  0  0
   49.9730   28.7890   49.8290 C   0  0  0  0  0  0  0  0  0  0  0  0
   49.8990   30.0580   50.3900 C   0  0  0  0  0  0  0  0  0  0  0  0
   49.2420   31.0820   49.7540 C   0  0  0  0  0  0  0  0  0  0  0  0
   48.6300   30.8830   48.5290 C   0  0  0  0  0  0  0  0  0  0  0  0
   47.9570   31.8760   47.8490 C   0  0  0  0  0  0  0  0  0  0  0  0
   48.5960   35.1500   41.0470 C   0  0  0  0  0  0  0  0  0  0  0  0
   47.9790   34.6030   39.9120 C   0  0  0  0  0  0  0  0  0  0  0  0
   46.8350   33.8030   40.0870 C   0  0  0  0  0  0  0  0  0  0  0  0
   46.4420   33.6410   41.3650 N   0  0  0  0  0  0  0  0  0  0  0  0
   47.0350   34.1650   42.4420 C   0  0  0  0  0  0  0  0  0  0  0  0
   48.1220   34.9270   42.2930 N   0  0  0  0  0  0  0  0  0  0  0  0
   46.6890   33.2940   37.7230 C   0  0  0  0  0  0  0  0  0  0  0  0
   46.1260   33.1930   38.9770 C   0  0  0  0  0  0  0  0  0  0  0  0
   44.9300   32.5270   39.1250 C   0  0  0  0  0  0  0  0  0  0  0  0
   44.2540   31.9430   38.0510 C   0  0  0  0  0  0  0  0  0  0  0  0
   44.8010   32.0320   36.7820 C   0  0  0  0  0  0  0  0  0  0  0  0
   46.0070   32.7070   36.6520 C   0  0  0  0  0  0  0  0  0  0  0  0
   48.9310   34.5120   37.2850 N   0  0  0  0  0  0  0  0  0  0  0  0
   47.9350   33.9710   37.4720 C   0  0  0  0  0  0  0  0  0  0  0  0
   47.9087   32.3798   44.2284 H   0  0  0  0  0  0  0  0  0  0  0  0
   44.1663   34.9743   46.0015 H   0  0  0  0  0  0  0  0  0  0  0  0
   47.0137   30.1118   45.1650 H   0  0  0  0  0  0  0  0  0  0  0  0
   48.2035   28.3308   46.3577 H   0  0  0  0  0  0  0  0  0  0  0  0
   50.4989   27.9654   50.3341 H   0  0  0  0  0  0  0  0  0  0  0  0
   50.3763   30.2459   51.3631 H   0  0  0  0  0  0  0  0  0  0  0  0
   49.2015   32.0752   50.2251 H   0  0  0  0  0  0  0  0  0  0  0  0
   47.8943   32.8821   48.2892 H   0  0  0  0  0  0  0  0  0  0  0  0
   49.4902   35.7777   40.9194 H   0  0  0  0  0  0  0  0  0  0  0  0
   48.3812   34.7955   38.9064 H   0  0  0  0  0  0  0  0  0  0  0  0
   44.4889   32.4517   40.1299 H   0  0  0  0  0  0  0  0  0  0  0  0
   43.2999   31.4195   38.2112 H   0  0  0  0  0  0  0  0  0  0  0  0
   44.2994   31.5852   35.9109 H   0  0  0  0  0  0  0  0  0  0  0  0
   46.4520   32.7848   35.6490 H   0  0  0  0  0  0  0  0  0  0  0  0
  1  2  1  0
  2  8  2  0
  3  2  1  0
  3  4  2  0
  4  5  1  0
  5  6  2  0
  5  9  1  0
  6  7  1  0
  8  6  1  0
  9 18  1  0
 10  9  2  0
 10 11  1  0
 11 12  2  0
 12 17  1  0
 12 13  1  0
 13 14  2  0
 14 15  1  0
 16 15  2  0
 17 16  1  0
 18 17  2  0
 19 24  2  0
 20 21  2  0
 20 19  1  0
 21 22  1  0
 22 23  2  0
 23  3  1  0
 24 23  1  0
 25 26  2  0
 26 27  1  0
 26 21  1  0
 28 27  2  0
 29 28  1  0
 30 29  2  0
 30 25  1  0
 31 32  3  0
 32 25  1  0
  4 33  1  0
  8 34  1  0
 10 35  1  0
 11 36  1  0
 14 37  1  0
 15 38  1  0
 16 39  1  0
 18 40  1  0
 19 41  1  0
 20 42  1  0
 27 43  1  0
 28 44  1  0
 29 45  1  0
 30 46  1  0
M  END
>  <minimizedAffinity>  (1) 
-7.30322886

>  <minimizedRMSD>  (1) 
0.461834669

$$$$
