
     RDKit          3D

 44 47  0  0  0  0  0  0  0  0999 V2000
   45.1302   33.9427   40.7080 C   0  0  0  0  0  0  0  0  0  0  0  0
   44.0813   33.6353   39.8660 C   0  0  0  0  0  0  0  0  0  0  0  0
   44.3835   33.1607   38.6264 C   0  0  0  0  0  0  0  0  0  0  0  0
   45.6589   32.9733   38.1731 C   0  0  0  0  0  0  0  0  0  0  0  0
   46.6842   33.2838   39.0228 C   0  0  0  0  0  0  0  0  0  0  0  0
   46.4425   33.7717   40.2999 C   0  0  0  0  0  0  0  0  0  0  0  0
   40.7981   35.2495   40.7901 C   0  0  0  0  0  0  0  0  0  0  0  0
   42.0946   35.0840   40.2683 C   0  0  0  0  0  0  0  0  0  0  0  0
   42.7438   33.8502   40.3896 C   0  0  0  0  0  0  0  0  0  0  0  0
   42.0289   32.8916   41.0262 N   0  0  0  0  0  0  0  0  0  0  0  0
   40.8037   33.0612   41.5149 C   0  0  0  0  0  0  0  0  0  0  0  0
   40.1935   34.2473   41.3922 N   0  0  0  0  0  0  0  0  0  0  0  0
   40.1889   36.5236   40.6381 N   0  0  0  0  0  0  0  0  0  0  0  0
   47.6028   34.0735   41.1219 C   0  0  0  0  0  0  0  0  0  0  0  0
   48.1399   35.3257   40.9470 C   0  0  0  0  0  0  0  0  0  0  0  0
   49.2522   35.7946   41.6484 C   0  0  0  0  0  0  0  0  0  0  0  0
   49.8289   34.9452   42.5587 C   0  0  0  0  0  0  0  0  0  0  0  0
   49.3063   33.6854   42.7496 C   0  0  0  0  0  0  0  0  0  0  0  0
   48.1992   33.2476   42.0372 C   0  0  0  0  0  0  0  0  0  0  0  0
   44.7209   34.8532   43.1122 N   0  0  0  0  0  0  0  0  0  0  0  0
   44.9027   34.4569   42.0346 C   0  0  0  0  0  0  0  0  0  0  0  0
   43.5616   32.9190   37.9649 H   0  0  0  0  0  0  0  0  0  0  0  0
   45.8186   32.5925   37.1741 H   0  0  0  0  0  0  0  0  0  0  0  0
   47.6930   33.1310   38.6519 H   0  0  0  0  0  0  0  0  0  0  0  0
   42.6090   35.8948   39.7704 H   0  0  0  0  0  0  0  0  0  0  0  0
   40.3396   32.2099   42.0040 H   0  0  0  0  0  0  0  0  0  0  0  0
   40.7252   37.1105   41.3152 H   0  0  0  0  0  0  0  0  0  0  0  0
   39.3982   36.6634   39.9592 H   0  0  0  0  0  0  0  0  0  0  0  0
   47.7434   36.0701   40.2406 H   0  0  0  0  0  0  0  0  0  0  0  0
   49.6615   36.7820   41.4985 H   0  0  0  0  0  0  0  0  0  0  0  0
   50.6986   35.2195   43.1534 H   0  0  0  0  0  0  0  0  0  0  0  0
   49.7549   33.0009   43.4694 H   0  0  0  0  0  0  0  0  0  0  0  0
   50.3109   32.1601   44.5798 N   0  0  0  0  0  0  0  0  0  0  0  0
   49.4115   31.7216   43.9968 C   0  0  0  0  0  0  0  0  0  0  0  0
   48.2924   31.1761   43.2419 C   0  0  0  0  0  0  0  0  0  0  0  0
   47.6455   31.9129   42.2403 C   0  0  0  0  0  0  0  0  0  0  0  0
   46.6161   31.2908   41.6083 C   0  0  0  0  0  0  0  0  0  0  0  0
   46.1411   31.8836   40.8409 H   0  0  0  0  0  0  0  0  0  0  0  0
   46.2303   30.0079   41.9344 C   0  0  0  0  0  0  0  0  0  0  0  0
   45.3955   29.6067   41.3670 H   0  0  0  0  0  0  0  0  0  0  0  0
   46.8663   29.2795   42.9214 C   0  0  0  0  0  0  0  0  0  0  0  0
   47.9068   29.9103   43.5589 C   0  0  0  0  0  0  0  0  0  0  0  0
   46.5466   28.2743   43.1602 H   0  0  0  0  0  0  0  0  0  0  0  0
   48.3998   29.3241   44.3345 H   0  0  0  0  0  0  0  0  0  0  0  0
  1 21  1  0
  2  9  1  0
  2  1  2  0
  3  2  1  0
  4  3  2  0
  4  5  1  0
  5  6  2  0
  6  1  1  0
  6 14  1  0
  7 12  2  0
  8  9  2  0
  8  7  1  0
  9 10  1  0
 10 11  2  0
 12 11  1  0
 13  7  1  0
 14 19  1  0
 15 14  2  0
 15 16  1  0
 16 17  2  0
 17 18  1  0
 19 18  2  0
 21 20  3  0
  3 22  1  0
  4 23  1  0
  5 24  1  0
  8 25  1  0
 11 26  1  0
 13 27  1  0
 13 28  1  0
 15 29  1  0
 16 30  1  0
 17 31  1  0
 18 32  1  0
 33 34  3  0
 34 35  1  0
 35 36  2  0
 36 37  1  0
 37 38  1  0
 37 39  2  0
 39 40  1  0
 39 41  1  0
 41 42  2  0
 42 35  1  0
 41 43  1  0
 42 44  1  0
 19 36  1  0
M  ISO  8  22  14  23  14  24  14  25  14  26  14  29  14  30  14  31  14
M  ISO  3  32  14  38  15  40  16
M  END
>  <DihAtoms>  (1) 
13,18,35,34

>  <DihDeg>  (1) 
-117.17204318520751

$$$$
