
     RDKit          3D

 33 35  0  0  1  0  0  0  0  0999 V2000
   46.5840   34.1990   42.4410 N   0  0  0  0  0  0  0  0  0  0  0  0
   48.0240   34.2550   42.1340 C   0  0  0  0  0  0  0  0  0  0  0  0
   47.9360   34.8060   40.7400 C   0  0  0  0  0  0  0  0  0  0  0  0
   46.9200   33.8630   40.1240 C   0  0  0  0  0  0  0  0  0  0  0  0
   46.0010   33.6190   41.2670 C   0  0  2  0  0  0  0  0  0  0  0  0
   44.4920   36.0050   44.9090 C   0  0  0  0  0  0  0  0  0  0  0  0
   45.1390   35.7240   43.7110 C   0  0  0  0  0  0  0  0  0  0  0  0
   45.9030   34.5780   43.5890 C   0  0  0  0  0  0  0  0  0  0  0  0
   45.9730   33.7710   44.6930 N   0  0  0  0  0  0  0  0  0  0  0  0
   45.3560   34.0310   45.8520 C   0  0  0  0  0  0  0  0  0  0  0  0
   44.6060   35.1580   45.9670 N   0  0  0  0  0  0  0  0  0  0  0  0
   43.6700   32.7540   41.5070 C   0  0  0  0  0  0  0  0  0  0  0  0
   44.5930   33.6800   41.0450 C   0  0  0  0  0  0  0  0  0  0  0  0
   43.9430   34.6770   40.2980 C   0  0  0  0  0  0  0  0  0  0  0  0
   42.6030   34.7970   40.0150 C   0  0  0  0  0  0  0  0  0  0  0  0
   41.7820   33.8180   40.5250 C   0  0  0  0  0  0  0  0  0  0  0  0
   42.3100   32.7920   41.2740 C   0  0  0  0  0  0  0  0  0  0  0  0
   44.4980   30.7990   42.9910 N   0  0  0  0  0  0  0  0  0  0  0  0
   44.1240   31.6570   42.3310 C   0  0  0  0  0  0  0  0  0  0  0  0
   48.5660   34.9301   42.8126 H   0  0  0  0  0  0  0  0  0  0  0  0
   48.5707   33.3062   42.2378 H   0  0  0  0  0  0  0  0  0  0  0  0
   47.5766   35.8456   40.7378 H   0  0  0  0  0  0  0  0  0  0  0  0
   48.8971   34.8506   40.2069 H   0  0  0  0  0  0  0  0  0  0  0  0
   46.3944   34.3354   39.2810 H   0  0  0  0  0  0  0  0  0  0  0  0
   47.3599   32.9473   39.7022 H   0  0  0  0  0  0  0  0  0  0  0  0
   45.9339   32.5370   41.4534 H   0  0  0  0  0  0  0  0  0  0  0  0
   43.8846   36.9174   45.0017 H   0  0  0  0  0  0  0  0  0  0  0  0
   45.0431   36.4138   42.8596 H   0  0  0  0  0  0  0  0  0  0  0  0
   45.4551   33.3398   46.7020 H   0  0  0  0  0  0  0  0  0  0  0  0
   44.5911   35.4644   39.8858 H   0  0  0  0  0  0  0  0  0  0  0  0
   42.2091   35.6298   39.4140 H   0  0  0  0  0  0  0  0  0  0  0  0
   40.6995   33.8557   40.3332 H   0  0  0  0  0  0  0  0  0  0  0  0
   41.6545   32.0092   41.6834 H   0  0  0  0  0  0  0  0  0  0  0  0
  1  8  1  0
  2  1  1  0
  3  2  1  0
  4  3  1  0
  4  5  1  0
  5  1  1  0
  6 11  2  0
  7  6  1  0
  8  7  2  0
  8  9  1  0
  9 10  2  0
 10 11  1  0
 12 19  1  0
 13  5  1  0
 13 12  2  0
 14 13  1  0
 15 14  2  0
 15 16  1  0
 16 17  2  0
 17 12  1  0
 19 18  3  0
  2 20  1  0
  2 21  1  0
  3 22  1  0
  3 23  1  0
  4 24  1  0
  4 25  1  0
  5 26  1  1
  6 27  1  0
  7 28  1  0
 10 29  1  0
 14 30  1  0
 15 31  1  0
 16 32  1  0
 17 33  1  0
M  ISO  8  20  13  21  13  22  13  23  13  24  13  25  13  26  13  27  14
M  ISO  6  28  14  29  14  30  14  31  14  32  14  33  14
M  END
>  <minimizedAffinity>  (1) 
-4.83213329

>  <minimizedRMSD>  (1) 
1.54734576

$$$$
