
     RDKit          3D

 41 44  0  0  0  0  0  0  0  0999 V2000
   49.2360   33.7900   37.3070 Cl  0  0  0  0  0  0  0  0  0  0  0  0
   47.8210   32.7770   37.4710 C   0  0  0  0  0  0  0  0  0  0  0  0
   47.1530   32.7520   38.6470 C   0  0  0  0  0  0  0  0  0  0  0  0
   46.1490   31.8020   38.7170 C   0  0  0  0  0  0  0  0  0  0  0  0
   45.8130   30.9310   37.7010 C   0  0  0  0  0  0  0  0  0  0  0  0
   46.5300   31.0070   36.5170 C   0  0  0  0  0  0  0  0  0  0  0  0
   47.5320   31.9370   36.4130 C   0  0  0  0  0  0  0  0  0  0  0  0
   48.6720   35.5280   40.6300 C   0  0  0  0  0  0  0  0  0  0  0  0
   48.3320   34.7240   39.5290 C   0  0  0  0  0  0  0  0  0  0  0  0
   47.4940   33.6370   39.7250 C   0  0  0  0  0  0  0  0  0  0  0  0
   47.0430   33.4180   40.9840 N   0  0  0  0  0  0  0  0  0  0  0  0
   47.3660   34.1930   42.0320 C   0  0  0  0  0  0  0  0  0  0  0  0
   48.1840   35.2480   41.8600 N   0  0  0  0  0  0  0  0  0  0  0  0
   44.9870   35.9380   42.8220 Cl  0  0  0  0  0  0  0  0  0  0  0  0
   45.7200   34.6980   43.8120 C   0  0  0  0  0  0  0  0  0  0  0  0
   46.8040   33.9550   43.3470 C   0  0  0  0  0  0  0  0  0  0  0  0
   47.2820   33.0150   44.1960 C   0  0  0  0  0  0  0  0  0  0  0  0
   46.7680   32.7620   45.4580 C   0  0  0  0  0  0  0  0  0  0  0  0
   45.7030   33.5040   45.8950 C   0  0  0  0  0  0  0  0  0  0  0  0
   45.1340   33.1050   47.5020 Cl  0  0  0  0  0  0  0  0  0  0  0  0
   45.1800   34.4690   45.0750 C   0  0  0  0  0  0  0  0  0  0  0  0
   49.4290   31.2470   35.0830 C   0  0  0  0  0  0  0  0  0  0  0  0
   48.2600   31.9940   35.1640 C   0  0  0  0  0  0  0  0  0  0  0  0
   47.8620   32.7380   34.0680 C   0  0  0  0  0  0  0  0  0  0  0  0
   48.5800   32.7710   32.8880 C   0  0  0  0  0  0  0  0  0  0  0  0
   49.7340   32.0130   32.8540 C   0  0  0  0  0  0  0  0  0  0  0  0
   50.1970   31.2380   33.9230 C   0  0  0  0  0  0  0  0  0  0  0  0
   50.2210   29.8130   37.1280 N   0  0  0  0  0  0  0  0  0  0  0  0
   49.8760   30.4560   36.2090 C   0  0  0  0  0  0  0  0  0  0  0  0
   45.5755   31.7364   39.6534 H   0  0  0  0  0  0  0  0  0  0  0  0
   45.0015   30.1991   37.8266 H   0  0  0  0  0  0  0  0  0  0  0  0
   46.2996   30.3345   35.6776 H   0  0  0  0  0  0  0  0  0  0  0  0
   49.3396   36.3911   40.4907 H   0  0  0  0  0  0  0  0  0  0  0  0
   48.7245   34.9534   38.5273 H   0  0  0  0  0  0  0  0  0  0  0  0
   48.1376   32.4102   43.8610 H   0  0  0  0  0  0  0  0  0  0  0  0
   47.2067   31.9807   46.0960 H   0  0  0  0  0  0  0  0  0  0  0  0
   44.3244   35.0693   45.4180 H   0  0  0  0  0  0  0  0  0  0  0  0
   46.9360   33.3275   34.1387 H   0  0  0  0  0  0  0  0  0  0  0  0
   48.2510   33.3674   32.0243 H   0  0  0  0  0  0  0  0  0  0  0  0
   50.3269   32.0189   31.9275 H   0  0  0  0  0  0  0  0  0  0  0  0
   51.1237   30.6499   33.8498 H   0  0  0  0  0  0  0  0  0  0  0  0
  1  2  1  0
  2  3  2  0
  3  4  1  0
  3 10  1  0
  5  4  2  0
  6  5  1  0
  7  6  2  0
  7  2  1  0
  8 13  2  0
  9 10  2  0
  9  8  1  0
 10 11  1  0
 11 12  2  0
 12 16  1  0
 13 12  1  0
 14 15  1  0
 15 21  2  0
 16 15  1  0
 16 17  2  0
 17 18  1  0
 18 19  2  0
 19 20  1  0
 21 19  1  0
 22 23  2  0
 22 29  1  0
 23  7  1  0
 24 23  1  0
 25 24  2  0
 26 25  1  0
 26 27  2  0
 27 22  1  0
 29 28  3  0
  4 30  1  0
  5 31  1  0
  6 32  1  0
  8 33  1  0
  9 34  1  0
 17 35  1  0
 18 36  1  0
 21 37  1  0
 24 38  1  0
 25 39  1  0
 26 40  1  0
 27 41  1  0
M  ISO  8  30  14  31  14  32  14  33  14  34  14  35  14  36  14  37  14
M  ISO  4  38  14  39  14  40  14  41  14
M  END
>  <minimizedAffinity>  (1) 
-5.99607372

>  <minimizedRMSD>  (1) 
1.22877753

$$$$
