
     RDKit          3D

 40 42  0  0  0  0  0  0  0  0999 V2000
   46.0976   33.5519   42.2226 C   0  0  0  0  0  0  0  0  0  0  0  0
   45.5712   34.2597   43.3820 C   0  0  0  0  0  0  0  0  0  0  0  0
   45.0594   35.5277   43.2740 C   0  0  0  0  0  0  0  0  0  0  0  0
   44.5720   36.1633   44.4188 C   0  0  0  0  0  0  0  0  0  0  0  0
   44.6329   35.4782   45.5904 N   0  0  0  0  0  0  0  0  0  0  0  0
   45.1387   34.2426   45.6553 C   0  0  0  0  0  0  0  0  0  0  0  0
   45.5955   33.6619   44.5537 N   0  0  0  0  0  0  0  0  0  0  0  0
   47.4405   34.1516   41.8491 C   0  0  0  0  0  0  0  0  0  0  0  0
   48.4343   33.6198   42.5894 N   0  0  0  0  0  0  0  0  0  0  0  0
   48.5338   32.2467   42.9788 C   0  0  0  0  0  0  0  0  0  0  0  0
   49.4152   31.6644   41.8696 C   0  0  0  0  0  0  0  0  0  0  0  0
   50.7150   32.3337   41.7075 C   0  0  0  0  0  0  0  0  0  0  0  0
   50.8586   33.6928   42.3256 C   0  0  0  0  0  0  0  0  0  0  0  0
   49.6504   34.3899   42.8032 C   0  0  0  0  0  0  0  0  0  0  0  0
   46.0117   32.4812   42.1896 H   0  0  0  0  0  0  0  0  0  0  0  0
   45.4079   33.8872   41.3782 H   0  0  0  0  0  0  0  0  0  0  0  0
   45.0101   36.0659   42.3558 H   0  0  0  0  0  0  0  0  0  0  0  0
   44.1443   37.1704   44.4479 H   0  0  0  0  0  0  0  0  0  0  0  0
   45.1828   33.6967   46.6103 H   0  0  0  0  0  0  0  0  0  0  0  0
   47.3093   35.1374   41.4745 H   0  0  0  0  0  0  0  0  0  0  0  0
   47.5090   33.6064   40.7683 H   0  0  0  0  0  0  0  0  0  0  0  0
   49.0823   32.1100   43.9015 H   0  0  0  0  0  0  0  0  0  0  0  0
   47.6218   31.6706   43.0745 H   0  0  0  0  0  0  0  0  0  0  0  0
   49.5622   30.5949   42.1323 H   0  0  0  0  0  0  0  0  0  0  0  0
   48.7674   31.6592   40.9715 H   0  0  0  0  0  0  0  0  0  0  0  0
   51.5420   31.7193   42.1722 H   0  0  0  0  0  0  0  0  0  0  0  0
   50.9828   32.3341   40.6246 H   0  0  0  0  0  0  0  0  0  0  0  0
   51.8118   34.0957   42.3925 H   0  0  0  0  0  0  0  0  0  0  0  0
   46.4433   36.2597   42.3768 N   0  0  0  0  0  0  0  0  0  0  0  0
   47.4555   36.3745   42.9467 C   0  0  0  0  0  0  0  0  0  0  0  0
   48.7099   36.5294   43.6283 C   0  0  0  0  0  0  0  0  0  0  0  0
   49.7203   35.6453   43.4349 C   0  0  0  0  0  0  0  0  0  0  0  0
   50.8500   36.0747   44.0543 C   0  0  0  0  0  0  0  0  0  0  0  0
   51.7941   35.5861   44.0420 H   0  0  0  0  0  0  0  0  0  0  0  0
   51.0212   37.2225   44.7934 C   0  0  0  0  0  0  0  0  0  0  0  0
   51.9299   37.5413   45.2798 H   0  0  0  0  0  0  0  0  0  0  0  0
   49.9444   38.0933   44.9639 C   0  0  0  0  0  0  0  0  0  0  0  0
   48.7794   37.6972   44.3482 C   0  0  0  0  0  0  0  0  0  0  0  0
   49.9957   39.0114   45.5297 H   0  0  0  0  0  0  0  0  0  0  0  0
   47.9534   38.3651   44.4815 H   0  0  0  0  0  0  0  0  0  0  0  0
  1  2  1  0
  2  7  1  0
  3  2  2  0
  3  4  1  0
  4  5  2  0
  5  6  1  0
  7  6  2  0
  8  1  1  0
  8  9  1  0
  9 14  1  0
  9 10  1  0
 11 10  1  0
 12 11  1  0
 12 13  1  0
 13 14  2  0
  1 15  1  0
  1 16  1  0
  3 17  1  0
  4 18  1  0
  6 19  1  0
  8 20  1  0
  8 21  1  0
 10 22  1  0
 10 23  1  0
 11 24  1  0
 11 25  1  0
 12 26  1  0
 12 27  1  0
 13 28  1  0
 29 30  3  0
 30 31  1  0
 31 32  2  0
 32 33  1  0
 33 34  1  0
 33 35  2  0
 35 36  1  0
 35 37  1  0
 37 38  2  0
 38 31  1  0
 37 39  1  0
 38 40  1  0
 14 32  1  0
M  ISO  8  15   8  16   8  17  14  18  14  19  14  20   8  21   8  22  13
M  ISO  8  23  13  24  13  25  13  26  13  27  13  28  13  34  15  36  16
M  END
>  <DihAtoms>  (1) 
8,13,31,30

>  <DihDeg>  (1) 
160.4358352099213

$$$$
