
     RDKit          3D

 44 47  0  0  0  0  0  0  0  0999 V2000
   45.1600   33.9380   40.6990 C   0  0  0  0  0  0  0  0  0  0  0  0
   44.1080   33.6220   39.8640 C   0  0  0  0  0  0  0  0  0  0  0  0
   44.4060   33.1290   38.6300 C   0  0  0  0  0  0  0  0  0  0  0  0
   45.6800   32.9290   38.1770 C   0  0  0  0  0  0  0  0  0  0  0  0
   46.7080   33.2480   39.0210 C   0  0  0  0  0  0  0  0  0  0  0  0
   46.4720   33.7560   40.2910 C   0  0  0  0  0  0  0  0  0  0  0  0
   40.8380   35.2660   40.7810 C   0  0  0  0  0  0  0  0  0  0  0  0
   42.1340   35.0880   40.2590 C   0  0  0  0  0  0  0  0  0  0  0  0
   42.7730   33.8500   40.3870 C   0  0  0  0  0  0  0  0  0  0  0  0
   42.0510   32.9010   41.0290 N   0  0  0  0  0  0  0  0  0  0  0  0
   40.8280   33.0820   41.5180 C   0  0  0  0  0  0  0  0  0  0  0  0
   40.2270   34.2710   41.3890 N   0  0  0  0  0  0  0  0  0  0  0  0
   40.2390   36.5440   40.6220 N   0  0  0  0  0  0  0  0  0  0  0  0
   47.6350   34.0650   41.1060 C   0  0  0  0  0  0  0  0  0  0  0  0
   48.0820   35.3610   41.0280 C   0  0  0  0  0  0  0  0  0  0  0  0
   49.1820   35.8430   41.7390 C   0  0  0  0  0  0  0  0  0  0  0  0
   49.8430   34.9600   42.5570 C   0  0  0  0  0  0  0  0  0  0  0  0
   49.4100   33.6550   42.6500 C   0  0  0  0  0  0  0  0  0  0  0  0
   48.3120   33.2060   41.9300 C   0  0  0  0  0  0  0  0  0  0  0  0
   47.2140   31.5240   43.2400 C   0  0  0  0  0  0  0  0  0  0  0  0
   47.8540   31.8240   42.0290 C   0  0  0  0  0  0  0  0  0  0  0  0
   47.9620   30.8040   41.1390 C   0  0  0  0  0  0  0  0  0  0  0  0
   47.4680   29.5450   41.4100 C   0  0  0  0  0  0  0  0  0  0  0  0
   46.8340   29.2470   42.6010 C   0  0  0  0  0  0  0  0  0  0  0  0
   46.7280   30.2800   43.5010 C   0  0  0  0  0  0  0  0  0  0  0  0
   46.8720   33.3080   45.1190 N   0  0  0  0  0  0  0  0  0  0  0  0
   47.0320   32.5240   44.2830 C   0  0  0  0  0  0  0  0  0  0  0  0
   44.7400   34.9030   43.0800 N   0  0  0  0  0  0  0  0  0  0  0  0
   44.9380   34.4720   42.0190 C   0  0  0  0  0  0  0  0  0  0  0  0
   43.5723   32.8769   37.9582 H   0  0  0  0  0  0  0  0  0  0  0  0
   45.8714   32.5266   37.1713 H   0  0  0  0  0  0  0  0  0  0  0  0
   47.7450   33.0986   38.6858 H   0  0  0  0  0  0  0  0  0  0  0  0
   42.6428   35.9208   39.7516 H   0  0  0  0  0  0  0  0  0  0  0  0
   40.3108   32.2558   42.0278 H   0  0  0  0  0  0  0  0  0  0  0  0
   40.7511   37.2964   40.1397 H   0  0  0  0  0  0  0  0  0  0  0  0
   39.2925   36.7184   40.9890 H   0  0  0  0  0  0  0  0  0  0  0  0
   47.5434   36.0577   40.3688 H   0  0  0  0  0  0  0  0  0  0  0  0
   49.5070   36.8899   41.6477 H   0  0  0  0  0  0  0  0  0  0  0  0
   50.7162   35.2936   43.1368 H   0  0  0  0  0  0  0  0  0  0  0  0
   49.9456   32.9551   43.3083 H   0  0  0  0  0  0  0  0  0  0  0  0
   48.4577   30.9871   40.1742 H   0  0  0  0  0  0  0  0  0  0  0  0
   47.5823   28.7537   40.6545 H   0  0  0  0  0  0  0  0  0  0  0  0
   46.4380   28.2435   42.8157 H   0  0  0  0  0  0  0  0  0  0  0  0
   46.2332   30.0949   44.4658 H   0  0  0  0  0  0  0  0  0  0  0  0
  1 29  1  0
  2  9  1  0
  2  1  2  0
  3  2  1  0
  4  3  2  0
  4  5  1  0
  5  6  2  0
  6  1  1  0
  6 14  1  0
  7 12  2  0
  8  9  2  0
  8  7  1  0
  9 10  1  0
 10 11  2  0
 12 11  1  0
 13  7  1  0
 14 19  1  0
 15 14  2  0
 15 16  1  0
 16 17  2  0
 17 18  1  0
 19 21  1  0
 19 18  2  0
 20 25  2  0
 20 27  1  0
 21 20  1  0
 22 23  1  0
 22 21  2  0
 23 24  2  0
 24 25  1  0
 27 26  3  0
 29 28  3  0
  3 30  1  0
  4 31  1  0
  5 32  1  0
  8 33  1  0
 11 34  1  0
 13 35  1  0
 13 36  1  0
 15 37  1  0
 16 38  1  0
 17 39  1  0
 18 40  1  0
 22 41  1  0
 23 42  1  0
 24 43  1  0
 25 44  1  0
M  ISO  8  30  14  31  14  32  14  33  14  34  14  37  14  38  14  39  14
M  ISO  5  40  14  41  14  42  14  43  14  44  14
M  END
>  <minimizedAffinity>  (1) 
-6.11044979

>  <minimizedRMSD>  (1) 
0.391365767

$$$$
