
     RDKit          3D

 41 43  0  0  0  0  0  0  0  0999 V2000
   45.2850   35.6151   44.2126 C   0  0  0  0  0  0  0  0  0  0  0  0
   46.2437   34.8615   43.5189 C   0  0  0  0  0  0  0  0  0  0  0  0
   46.7080   33.6625   44.0810 C   0  0  0  0  0  0  0  0  0  0  0  0
   46.2048   33.2994   45.2602 N   0  0  0  0  0  0  0  0  0  0  0  0
   45.2797   34.0367   45.9176 C   0  0  0  0  0  0  0  0  0  0  0  0
   44.8195   35.1942   45.3946 N   0  0  0  0  0  0  0  0  0  0  0  0
   48.6810   33.7782   42.5737 C   0  0  2  0  0  0  0  0  0  0  0  0
   47.6984   32.9370   43.3107 C   0  0  2  0  0  0  0  0  0  0  0  0
   47.1612   32.1596   42.2436 O   0  0  0  0  0  0  0  0  0  0  0  0
   48.2971   31.6720   41.6360 C   0  0  0  0  0  0  0  0  0  0  0  0
   49.4267   32.6472   41.8413 C   0  0  1  0  0  0  0  0  0  0  0  0
   49.4913   34.5377   43.3646 O   0  0  0  0  0  0  0  0  0  0  0  0
   49.9555   33.1509   40.6587 O   0  0  0  0  0  0  0  0  0  0  0  0
   44.8043   36.9012   43.6029 C   0  0  0  0  0  0  0  0  0  0  0  0
   45.3016   39.2673   44.4570 C   0  0  0  0  0  0  0  0  0  0  0  0
   45.6471   39.6217   43.2945 O   0  0  0  0  0  0  0  0  0  0  0  0
   44.9252   37.9158   44.6442 N   0  0  0  0  0  0  0  0  0  0  0  0
   46.5592   35.2774   42.5750 H   0  0  0  0  0  0  0  0  0  0  0  0
   44.9557   33.6303   46.8626 H   0  0  0  0  0  0  0  0  0  0  0  0
   48.1656   34.3739   41.7705 H   0  0  0  0  0  0  0  0  0  0  0  0
   48.2614   32.1754   43.9214 H   0  0  0  0  0  0  0  0  0  0  0  0
   48.5610   30.6312   41.9651 H   0  0  0  0  0  0  0  0  0  0  0  0
   48.1137   31.5984   40.5425 H   0  0  0  0  0  0  0  0  0  0  0  0
   50.2192   32.2457   42.4738 H   0  0  0  0  0  0  0  0  0  0  0  0
   48.9188   34.9401   44.0579 H   0  0  0  0  0  0  0  0  0  0  0  0
   49.2469   33.4982   40.0703 H   0  0  0  0  0  0  0  0  0  0  0  0
   45.4423   37.1647   42.7468 H   0  0  0  0  0  0  0  0  0  0  0  0
   43.7554   36.7621   43.2704 H   0  0  0  0  0  0  0  0  0  0  0  0
   44.7157   37.6357   45.6418 H   0  0  0  0  0  0  0  0  0  0  0  0
   48.5297   38.7594   45.6767 N   0  0  0  0  0  0  0  0  0  0  0  0
   47.6280   39.4260   45.9530 C   0  0  0  0  0  0  0  0  0  0  0  0
   46.4789   40.2477   46.2899 C   0  0  0  0  0  0  0  0  0  0  0  0
   45.2874   40.2099   45.5749 C   0  0  0  0  0  0  0  0  0  0  0  0
   44.2549   41.0311   45.9765 C   0  0  0  0  0  0  0  0  0  0  0  0
   43.3622   40.9517   45.3805 H   0  0  0  0  0  0  0  0  0  0  0  0
   44.4120   41.8650   47.0617 C   0  0  0  0  0  0  0  0  0  0  0  0
   43.5929   42.4965   47.3578 H   0  0  0  0  0  0  0  0  0  0  0  0
   45.5810   41.9337   47.8009 C   0  0  0  0  0  0  0  0  0  0  0  0
   46.6117   41.0921   47.3743 C   0  0  0  0  0  0  0  0  0  0  0  0
   45.6613   42.6006   48.6430 H   0  0  0  0  0  0  0  0  0  0  0  0
   47.5613   41.1100   47.9299 H   0  0  0  0  0  0  0  0  0  0  0  0
  1  6  2  0
  2  3  2  0
  2  1  1  0
  3  4  1  0
  4  5  2  0
  6  5  1  0
  7  8  1  0
  7 12  1  0
  8  3  1  0
  9  8  1  0
 10 11  1  0
 10  9  1  0
 11  7  1  0
 13 11  1  0
 14  1  1  0
 14 17  1  0
 15 17  1  0
 16 15  2  0
  2 18  1  0
  5 19  1  0
  7 20  1  6
  8 21  1  1
 10 22  1  0
 10 23  1  0
 11 24  1  1
 12 25  1  0
 13 26  1  0
 14 27  1  0
 14 28  1  0
 17 29  1  0
 30 31  3  0
 31 32  1  0
 32 33  2  0
 33 34  1  0
 34 35  1  0
 34 36  2  0
 36 37  1  0
 36 38  1  0
 38 39  2  0
 39 32  1  0
 38 40  1  0
 39 41  1  0
 15 33  1  0
M  ISO  8  18  14  19  14  20  13  21  13  22  13  23  13  24  13  25   3
M  ISO  5  26   3  27   8  28   8  35  15  37  16
M  END
>  <DihAtoms>  (1) 
16,14,32,31

>  <DihDeg>  (1) 
-91.4642946740466

$$$$
