
     RDKit          3D

 38 40  0  0  0  0  0  0  0  0999 V2000
   40.8050   35.7950   39.6390 C   0  0  0  0  0  0  0  0  0  0  0  0
   43.8560   34.7510   41.5800 C   0  0  0  0  0  0  0  0  0  0  0  0
   42.6640   35.3960   41.2420 C   0  0  0  0  0  0  0  0  0  0  0  0
   42.0720   35.1270   40.0150 C   0  0  0  0  0  0  0  0  0  0  0  0
   42.6990   34.2270   39.1940 N   0  0  0  0  0  0  0  0  0  0  0  0
   43.8580   33.6190   39.5620 C   0  0  0  0  0  0  0  0  0  0  0  0
   44.4320   33.8730   40.7370 N   0  0  0  0  0  0  0  0  0  0  0  0
   44.4980   35.0560   42.8870 C   0  0  0  0  0  0  0  0  0  0  0  0
   46.0370   35.3510   42.7170 C   0  0  0  0  0  0  0  0  0  0  0  0
   45.0550   36.3170   43.2260 C   0  0  0  0  0  0  0  0  0  0  0  0
   39.6780   35.4020   40.5560 C   0  0  0  0  0  0  0  0  0  0  0  0
   39.1690   32.9860   40.7640 C   0  0  0  0  0  0  0  0  0  0  0  0
   39.9000   32.8970   41.8040 O   0  0  0  0  0  0  0  0  0  0  0  0
   38.9690   34.2170   40.0820 N   0  0  0  0  0  0  0  0  0  0  0  0
   38.9260   30.9200   39.2930 C   0  0  0  0  0  0  0  0  0  0  0  0
   38.6000   31.6940   40.4020 C   0  0  0  0  0  0  0  0  0  0  0  0
   37.6180   31.0920   41.2080 C   0  0  0  0  0  0  0  0  0  0  0  0
   36.9940   29.8930   41.0170 C   0  0  0  0  0  0  0  0  0  0  0  0
   37.3830   29.1980   39.8900 C   0  0  0  0  0  0  0  0  0  0  0  0
   38.3400   29.7100   39.0420 C   0  0  0  0  0  0  0  0  0  0  0  0
   40.7180   31.8720   37.6790 N   0  0  0  0  0  0  0  0  0  0  0  0
   39.9130   31.4540   38.4040 C   0  0  0  0  0  0  0  0  0  0  0  0
   40.9461   36.8846   39.6934 H   0  0  0  0  0  0  0  0  0  0  0  0
   40.5418   35.4835   38.6174 H   0  0  0  0  0  0  0  0  0  0  0  0
   42.1997   36.1086   41.9396 H   0  0  0  0  0  0  0  0  0  0  0  0
   44.3317   32.9023   38.8751 H   0  0  0  0  0  0  0  0  0  0  0  0
   43.8021   34.4097   43.4420 H   0  0  0  0  0  0  0  0  0  0  0  0
   46.7752   34.8918   43.3909 H   0  0  0  0  0  0  0  0  0  0  0  0
   46.7781   35.3106   41.9051 H   0  0  0  0  0  0  0  0  0  0  0  0
   44.8022   37.1932   42.6109 H   0  0  0  0  0  0  0  0  0  0  0  0
   45.0176   36.9193   44.1457 H   0  0  0  0  0  0  0  0  0  0  0  0
   40.0901   35.1926   41.5542 H   0  0  0  0  0  0  0  0  0  0  0  0
   38.9606   36.2354   40.5858 H   0  0  0  0  0  0  0  0  0  0  0  0
   38.3371   34.2719   39.2704 H   0  0  0  0  0  0  0  0  0  0  0  0
   37.3153   31.6564   42.1023 H   0  0  0  0  0  0  0  0  0  0  0  0
   36.2342   29.5077   41.7128 H   0  0  0  0  0  0  0  0  0  0  0  0
   36.9235   28.2239   39.6664 H   0  0  0  0  0  0  0  0  0  0  0  0
   38.6370   29.1379   38.1507 H   0  0  0  0  0  0  0  0  0  0  0  0
  1  4  1  0
  1 11  1  0
  2  8  1  0
  3  2  2  0
  4  3  1  0
  5  6  1  0
  5  4  2  0
  6  7  2  0
  7  2  1  0
  8 10  1  0
  9  8  1  0
  9 10  1  0
 12 13  2  0
 14 11  1  0
 14 12  1  0
 15 16  2  0
 16 12  1  0
 16 17  1  0
 18 17  2  0
 19 18  1  0
 20 15  1  0
 20 19  2  0
 21 22  3  0
 22 15  1  0
  1 23  1  0
  1 24  1  0
  3 25  1  0
  6 26  1  0
  8 27  1  0
  9 28  1  0
  9 29  1  0
 10 30  1  0
 10 31  1  0
 11 32  1  0
 11 33  1  0
 14 34  1  0
 17 35  1  0
 18 36  1  0
 19 37  1  0
 20 38  1  0
M  ISO  8  23   8  24   8  25  14  26  14  27  13  28  13  29  13  30  13
M  ISO  7  31  13  32   8  33   8  35  14  36  14  37  14  38  14
M  END
>  <minimizedAffinity>  (1) 
-5.17112541

>  <minimizedRMSD>  (1) 
0.843989432

$$$$
