
     RDKit          3D

 47 49  0  0  0  0  0  0  0  0999 V2000
   46.5745   34.9090   43.2487 O   0  0  0  0  0  0  0  0  0  0  0  0
   46.8053   33.9754   42.2313 C   0  0  1  0  0  0  0  0  0  0  0  0
   46.0766   34.4107   40.9552 C   0  0  0  0  0  0  0  0  0  0  0  0
   46.6852   33.4745   39.9464 C   0  0  0  0  0  0  0  0  0  0  0  0
   48.0675   33.1408   40.4698 C   0  0  0  0  0  0  0  0  0  0  0  0
   48.2193   33.9594   41.7446 C   0  0  1  0  0  0  0  0  0  0  0  0
   48.7606   35.3354   41.4594 C   0  0  0  0  0  0  0  0  0  0  0  0
   49.6562   35.7552   42.4170 O   0  0  0  0  0  0  0  0  0  0  0  0
   44.7272   35.3510   44.9946 O   0  0  0  0  0  0  0  0  0  0  0  0
   45.5809   34.2405   44.4130 P   0  0  1  0  0  0  0  0  0  0  0  0
   44.6067   33.0416   43.7187 O   0  0  0  0  0  0  0  0  0  0  0  0
   46.4769   33.4951   45.6060 O   0  0  0  0  0  0  0  0  0  0  0  0
   46.2386   32.1586   45.5728 C   0  0  0  0  0  0  0  0  0  0  0  0
   45.6413   31.9067   49.2379 C   0  0  0  0  0  0  0  0  0  0  0  0
   45.9803   32.4573   47.9952 C   0  0  0  0  0  0  0  0  0  0  0  0
   45.8855   31.6023   46.8912 C   0  0  0  0  0  0  0  0  0  0  0  0
   45.4800   30.3152   47.0764 N   0  0  0  0  0  0  0  0  0  0  0  0
   45.1600   29.8134   48.2876 C   0  0  0  0  0  0  0  0  0  0  0  0
   45.2415   30.6039   49.3512 N   0  0  0  0  0  0  0  0  0  0  0  0
   46.4582   32.9656   42.4564 H   0  0  0  0  0  0  0  0  0  0  0  0
   44.9957   34.1395   41.1022 H   0  0  0  0  0  0  0  0  0  0  0  0
   46.1719   35.4684   40.7346 H   0  0  0  0  0  0  0  0  0  0  0  0
   46.1061   32.5454   39.9381 H   0  0  0  0  0  0  0  0  0  0  0  0
   46.7659   33.9211   38.9363 H   0  0  0  0  0  0  0  0  0  0  0  0
   48.8440   33.4984   39.7583 H   0  0  0  0  0  0  0  0  0  0  0  0
   48.1957   32.0683   40.6823 H   0  0  0  0  0  0  0  0  0  0  0  0
   48.9222   33.4385   42.4549 H   0  0  0  0  0  0  0  0  0  0  0  0
   49.3181   35.3576   40.4787 H   0  0  0  0  0  0  0  0  0  0  0  0
   47.9913   36.1236   41.3840 H   0  0  0  0  0  0  0  0  0  0  0  0
   50.4851   35.2602   42.3120 H   0  0  0  0  0  0  0  0  0  0  0  0
   43.6941   33.1657   44.1103 H   0  0  0  0  0  0  0  0  0  0  0  0
   47.2013   31.6485   45.2716 H   0  0  0  0  0  0  0  0  0  0  0  0
   45.4961   31.7825   44.8714 H   0  0  0  0  0  0  0  0  0  0  0  0
   45.6981   32.5296   50.1275 H   0  0  0  0  0  0  0  0  0  0  0  0
   46.2966   33.4883   47.9063 H   0  0  0  0  0  0  0  0  0  0  0  0
   45.7460   27.6436   46.4240 O   0  0  0  0  0  0  0  0  0  0  0  0
   45.5132   27.4583   47.6480 C   0  0  0  0  0  0  0  0  0  0  0  0
   44.7211   28.4023   48.4517 C   0  0  1  0  0  0  0  0  0  0  0  0
   45.0572   27.9046   49.8641 C   0  0  1  0  0  0  0  0  0  0  0  0
   46.0951   28.1734   50.1481 H   0  0  0  0  0  0  0  0  0  0  0  0
   45.0705   26.3932   49.6041 C   0  0  2  0  0  0  0  0  0  0  0  0
   44.0139   26.1424   49.3063 H   0  0  0  0  0  0  0  0  0  0  0  0
   45.9586   26.3415   48.4456 N   0  0  0  0  0  0  0  0  0  0  0  0
   43.6324   28.2881   48.3607 H   0  0  0  0  0  0  0  0  0  0  0  0
   44.2824   28.2116   50.5712 H   0  0  0  0  0  0  0  0  0  0  0  0
   45.4185   25.8111   50.4556 H   0  0  0  0  0  0  0  0  0  0  0  0
   46.7483   25.6755   48.1992 H   0  0  0  0  0  0  0  0  0  0  0  0
 10  1  1  6
  2  1  1  0
  3  2  1  0
  4  5  1  0
  4  3  1  0
  5  6  1  0
  6  2  1  0
  7  6  1  0
  7  8  1  0
 10  9  2  0
 10 12  1  0
 11 10  1  0
 13 12  1  0
 13 16  1  0
 14 19  2  0
 15 14  1  0
 16 17  1  0
 16 15  2  0
 17 18  2  0
 18 19  1  0
  2 20  1  1
  3 21  1  0
  3 22  1  0
  4 23  1  0
  4 24  1  0
  5 25  1  0
  5 26  1  0
  6 27  1  1
  7 28  1  0
  7 29  1  0
  8 30  1  0
 11 31  1  0
 13 32  1  0
 13 33  1  0
 14 34  1  0
 15 35  1  0
 36 37  2  0
 37 38  1  0
 38 39  1  0
 39 40  1  1
 39 41  1  0
 41 42  1  6
 41 43  1  0
 43 37  1  0
 38 44  1  6
 39 45  1  0
 41 46  1  0
 43 47  1  0
 18 38  1  0
M  ISO  8  20  13  21  13  22  13  23  13  24  13  25  13  26  13  27  13
M  ISO  8  28   8  29   8  30   3  31   3  32   8  33   8  34  14  35  14
M  ISO  2  40   8  42   8
M  END
>  <DihAtoms>  (1) 
16,17,37,36

>  <DihDeg>  (1) 
132.10846226090334

$$$$
