
     RDKit          3D

 23 24  0  0  0  0  0  0  0  0999 V2000
   44.3817   35.8088   44.5917 C   0  0  0  0  0  0  0  0  0  0  0  0
   44.5656   35.3077   43.3035 C   0  0  0  0  0  0  0  0  0  0  0  0
   45.2075   34.0784   43.1508 C   0  0  0  0  0  0  0  0  0  0  0  0
   45.6124   33.4481   44.2681 N   0  0  0  0  0  0  0  0  0  0  0  0
   45.4287   33.9439   45.5155 C   0  0  0  0  0  0  0  0  0  0  0  0
   44.8090   35.1328   45.6795 N   0  0  0  0  0  0  0  0  0  0  0  0
   44.0671   36.1212   42.2419 N   0  0  0  0  0  0  0  0  0  0  0  0
   45.3297   33.7285   42.1534 H   0  0  0  0  0  0  0  0  0  0  0  0
   45.7806   33.3822   46.3692 H   0  0  0  0  0  0  0  0  0  0  0  0
   44.5358   36.8842   41.6843 H   0  0  0  0  0  0  0  0  0  0  0  0
   43.1012   35.7222   42.1960 H   0  0  0  0  0  0  0  0  0  0  0  0
   42.4483   36.9389   42.9243 O   0  0  0  0  0  0  0  0  0  0  0  0
   42.4356   37.2102   44.1301 C   0  0  0  0  0  0  0  0  0  0  0  0
   43.7138   37.1020   44.8690 C   0  0  1  0  0  0  0  0  0  0  0  0
   43.3628   37.1507   46.3257 C   0  0  1  0  0  0  0  0  0  0  0  0
   43.3213   36.1181   46.7795 H   0  0  0  0  0  0  0  0  0  0  0  0
   42.0322   37.8272   46.3905 C   0  0  1  0  0  0  0  0  0  0  0  0
   41.3508   37.3801   47.1670 H   0  0  0  0  0  0  0  0  0  0  0  0
   41.4818   37.6275   45.0887 N   0  0  0  0  0  0  0  0  0  0  0  0
   44.4065   37.9162   44.5703 H   0  0  0  0  0  0  0  0  0  0  0  0
   44.1261   37.6980   46.9385 H   0  0  0  0  0  0  0  0  0  0  0  0
   42.1889   38.8969   46.6145 H   0  0  0  0  0  0  0  0  0  0  0  0
   40.4760   37.7580   44.7967 H   0  0  0  0  0  0  0  0  0  0  0  0
  1  6  1  0
  2  1  2  0
  3  2  1  0
  3  4  2  0
  4  5  1  0
  5  6  2  0
  7  2  1  0
  3  8  1  0
  5  9  1  0
  7 10  1  0
  7 11  1  0
 12 13  2  0
 13 14  1  0
 14 15  1  0
 15 16  1  1
 15 17  1  0
 17 18  1  1
 17 19  1  0
 19 13  1  0
 14 20  1  6
 15 21  1  0
 17 22  1  0
 19 23  1  0
  1 14  1  0
M  ISO  4   8  14   9  14  16   8  18   8
M  END
>  <DihAtoms>  (1) 
5,0,13,12

>  <DihDeg>  (1) 
-26.432416087069615

$$$$
