
     RDKit          3D

 23 24  0  0  0  0  0  0  0  0999 V2000
   44.3817   35.8088   44.5917 C   0  0  0  0  0  0  0  0  0  0  0  0
   44.5656   35.3077   43.3035 C   0  0  0  0  0  0  0  0  0  0  0  0
   45.2075   34.0784   43.1508 C   0  0  0  0  0  0  0  0  0  0  0  0
   45.6124   33.4481   44.2681 N   0  0  0  0  0  0  0  0  0  0  0  0
   45.4287   33.9439   45.5155 C   0  0  0  0  0  0  0  0  0  0  0  0
   44.8090   35.1328   45.6795 N   0  0  0  0  0  0  0  0  0  0  0  0
   44.0671   36.1212   42.2419 N   0  0  0  0  0  0  0  0  0  0  0  0
   45.3297   33.7285   42.1534 H   0  0  0  0  0  0  0  0  0  0  0  0
   45.7806   33.3822   46.3692 H   0  0  0  0  0  0  0  0  0  0  0  0
   44.5358   36.8842   41.6843 H   0  0  0  0  0  0  0  0  0  0  0  0
   43.1012   35.7222   42.1960 H   0  0  0  0  0  0  0  0  0  0  0  0
   45.3107   37.6578   46.4662 O   0  0  0  0  0  0  0  0  0  0  0  0
   44.6489   38.0590   45.5025 C   0  0  0  0  0  0  0  0  0  0  0  0
   43.7138   37.1020   44.8690 C   0  0  1  0  0  0  0  0  0  0  0  0
   43.3066   37.7142   43.5625 C   0  0  1  0  0  0  0  0  0  0  0  0
   43.9011   37.2921   42.7009 H   0  0  0  0  0  0  0  0  0  0  0  0
   43.5445   39.1808   43.7206 C   0  0  1  0  0  0  0  0  0  0  0  0
   43.9505   39.6619   42.7874 H   0  0  0  0  0  0  0  0  0  0  0  0
   44.5111   39.2608   44.7680 N   0  0  0  0  0  0  0  0  0  0  0  0
   42.8481   36.9045   45.5350 H   0  0  0  0  0  0  0  0  0  0  0  0
   42.2374   37.5031   43.2982 H   0  0  0  0  0  0  0  0  0  0  0  0
   42.5924   39.6665   43.9974 H   0  0  0  0  0  0  0  0  0  0  0  0
   45.1006   40.0972   45.0266 H   0  0  0  0  0  0  0  0  0  0  0  0
  1  6  1  0
  2  1  2  0
  3  2  1  0
  3  4  2  0
  4  5  1  0
  5  6  2  0
  7  2  1  0
  3  8  1  0
  5  9  1  0
  7 10  1  0
  7 11  1  0
 12 13  2  0
 13 14  1  0
 14 15  1  0
 15 16  1  6
 15 17  1  0
 17 18  1  6
 17 19  1  0
 19 13  1  0
 14 20  1  1
 15 21  1  0
 17 22  1  0
 19 23  1  0
  1 14  1  0
M  ISO  4   8  14   9  14  16   8  18   8
M  END
>  <DihAtoms>  (1) 
5,0,13,12

>  <DihDeg>  (1) 
-26.432416087069615

$$$$
