
     RDKit          3D

 42 44  0  0  1  0  0  0  0  0999 V2000
   44.7790   34.7820   42.0600 C   0  0  0  0  0  0  0  0  0  0  0  0
   46.0710   34.5730   41.5730 C   0  0  0  0  0  0  0  0  0  0  0  0
   47.0920   34.3050   42.5000 C   0  0  0  0  0  0  0  0  0  0  0  0
   46.7570   34.2680   43.8210 N   0  0  0  0  0  0  0  0  0  0  0  0
   45.4980   34.4750   44.2620 C   0  0  0  0  0  0  0  0  0  0  0  0
   44.5390   34.7270   43.3770 N   0  0  0  0  0  0  0  0  0  0  0  0
   47.6610   34.2880   39.7330 O   0  0  0  0  0  0  0  0  0  0  0  0
   48.4840   33.8550   40.5850 C   0  0  0  0  0  0  0  0  0  0  0  0
   48.4670   34.0750   42.0700 C   0  0  2  0  0  0  0  0  0  0  0  0
   49.1120   32.8330   42.5800 C   0  0  0  0  0  0  0  0  0  0  0  0
   50.2580   32.6600   41.5890 C   0  0  0  0  0  0  0  0  0  0  0  0
   49.6390   33.0420   40.3350 N   0  0  0  0  0  0  0  0  0  0  0  0
   45.2780   34.4070   45.6890 C   0  0  0  0  0  0  0  0  0  0  0  0
   44.4030   35.1800   46.1710 O   0  0  0  0  0  0  0  0  0  0  0  0
   46.0820   33.4600   46.4320 N   0  0  0  0  0  0  0  0  0  0  0  0
   43.5340   35.1160   40.8270 S   0  0  0  0  0  0  0  0  0  0  0  0
   41.8800   35.2470   41.5370 C   0  0  0  0  0  0  0  0  0  0  0  0
   40.9500   36.1050   40.7430 C   0  0  0  0  0  0  0  0  0  0  0  0
   41.7750   36.2770   37.8190 Cl  0  0  0  0  0  0  0  0  0  0  0  0
   40.4650   35.3040   38.4110 C   0  0  0  0  0  0  0  0  0  0  0  0
   40.1710   35.2970   39.7650 C   0  0  0  0  0  0  0  0  0  0  0  0
   39.1150   34.4980   40.1580 C   0  0  0  0  0  0  0  0  0  0  0  0
   38.3270   33.7090   39.3360 C   0  0  0  0  0  0  0  0  0  0  0  0
   38.6370   33.7320   37.9990 C   0  0  0  0  0  0  0  0  0  0  0  0
   37.7060   32.7710   36.8660 Cl  0  0  0  0  0  0  0  0  0  0  0  0
   39.6870   34.5170   37.5450 C   0  0  0  0  0  0  0  0  0  0  0  0
   46.2832   34.6170   40.4946 H   0  0  0  0  0  0  0  0  0  0  0  0
   49.0020   34.9586   42.4481 H   0  0  0  0  0  0  0  0  0  0  0  0
   49.4844   32.9655   43.6065 H   0  0  0  0  0  0  0  0  0  0  0  0
   48.4357   31.9676   42.6408 H   0  0  0  0  0  0  0  0  0  0  0  0
   51.1015   33.3217   41.8352 H   0  0  0  0  0  0  0  0  0  0  0  0
   50.6846   31.6461   41.5800 H   0  0  0  0  0  0  0  0  0  0  0  0
   49.9787   32.7696   39.4016 H   0  0  0  0  0  0  0  0  0  0  0  0
   45.9640   33.3725   47.4515 H   0  0  0  0  0  0  0  0  0  0  0  0
   46.7721   32.8736   45.9412 H   0  0  0  0  0  0  0  0  0  0  0  0
   41.4495   34.2368   41.6024 H   0  0  0  0  0  0  0  0  0  0  0  0
   41.9910   35.7216   42.5231 H   0  0  0  0  0  0  0  0  0  0  0  0
   40.2523   36.6075   41.4290 H   0  0  0  0  0  0  0  0  0  0  0  0
   41.5474   36.8423   40.1866 H   0  0  0  0  0  0  0  0  0  0  0  0
   38.8757   34.4871   41.2316 H   0  0  0  0  0  0  0  0  0  0  0  0
   37.5011   33.0996   39.7316 H   0  0  0  0  0  0  0  0  0  0  0  0
   39.9185   34.5236   36.4697 H   0  0  0  0  0  0  0  0  0  0  0  0
  1  6  1  0
  2  1  2  0
  2  3  1  0
  3  4  2  0
  4  5  1  0
  5 13  1  0
  6  5  2  0
  7  8  2  0
  8  9  1  0
  9  3  1  0
  9 10  1  0
 11 10  1  0
 12  8  1  0
 12 11  1  0
 13 14  2  0
 13 15  1  0
 16 17  1  0
 16  1  1  0
 18 17  1  0
 19 20  1  0
 20 21  2  0
 21 22  1  0
 21 18  1  0
 23 22  2  0
 24 23  1  0
 25 24  1  0
 26 24  2  0
 26 20  1  0
  2 27  1  0
  9 28  1  6
 10 29  1  0
 10 30  1  0
 11 31  1  0
 11 32  1  0
 12 33  1  0
 15 34  1  0
 15 35  1  0
 17 36  1  0
 17 37  1  0
 18 38  1  0
 18 39  1  0
 22 40  1  0
 23 41  1  0
 26 42  1  0
M  ISO  8  27  14  28  13  29  13  30  13  31  13  32  13  33  10  36   8
M  ISO  6  37   8  38   8  39   8  40  14  41  14  42  14
M  END
>  <minimizedAffinity>  (1) 
-7.25426912

>  <minimizedRMSD>  (1) 
0.102054186

$$$$
