
     RDKit          3D

 43 45  0  0  0  0  0  0  0  0999 V2000
   46.1813   32.0867   45.4344 C   0  0  0  0  0  0  0  0  0  0  0  0
   45.7564   32.0327   49.1300 C   0  0  0  0  0  0  0  0  0  0  0  0
   46.0485   32.5088   47.8476 C   0  0  0  0  0  0  0  0  0  0  0  0
   45.8824   31.6153   46.7923 C   0  0  0  0  0  0  0  0  0  0  0  0
   45.4502   30.3413   47.0583 N   0  0  0  0  0  0  0  0  0  0  0  0
   45.1791   29.9229   48.3159 C   0  0  0  0  0  0  0  0  0  0  0  0
   45.3336   30.7644   49.3277 N   0  0  0  0  0  0  0  0  0  0  0  0
   46.5480   33.4022   45.4118 O   0  0  0  0  0  0  0  0  0  0  0  0
   44.6442   35.1762   45.2602 O   0  0  0  0  0  0  0  0  0  0  0  0
   45.4530   34.2344   44.4176 P   0  0  2  0  0  0  0  0  0  0  0  0
   44.5193   33.0567   43.6703 O   0  0  0  0  0  0  0  0  0  0  0  0
   46.3219   35.1114   43.2898 O   0  0  0  0  0  0  0  0  0  0  0  0
   47.1257   34.2790   42.5577 C   0  0  1  0  0  0  0  0  0  0  0  0
   46.9616   34.4721   41.0559 C   0  0  0  0  0  0  0  0  0  0  0  0
   48.1068   33.6796   40.5055 C   0  0  0  0  0  0  0  0  0  0  0  0
   49.1578   33.6437   41.5794 C   0  0  0  0  0  0  0  0  0  0  0  0
   48.6032   34.5264   42.7087 C   0  0  1  0  0  0  0  0  0  0  0  0
   45.3866   31.7511   44.7875 H   0  0  0  0  0  0  0  0  0  0  0  0
   47.0934   31.4984   45.1156 H   0  0  0  0  0  0  0  0  0  0  0  0
   45.8889   32.7360   49.9447 H   0  0  0  0  0  0  0  0  0  0  0  0
   46.3865   33.5153   47.6678 H   0  0  0  0  0  0  0  0  0  0  0  0
   44.8407   28.9107   48.4819 H   0  0  0  0  0  0  0  0  0  0  0  0
   43.6173   33.4727   43.5107 H   0  0  0  0  0  0  0  0  0  0  0  0
   46.9595   33.2020   42.7844 H   0  0  0  0  0  0  0  0  0  0  0  0
   46.9467   35.5255   40.7701 H   0  0  0  0  0  0  0  0  0  0  0  0
   46.0106   33.9394   40.7865 H   0  0  0  0  0  0  0  0  0  0  0  0
   47.8322   32.6570   40.1730 H   0  0  0  0  0  0  0  0  0  0  0  0
   48.4899   34.2376   39.6114 H   0  0  0  0  0  0  0  0  0  0  0  0
   50.1120   34.0425   41.1985 H   0  0  0  0  0  0  0  0  0  0  0  0
   49.3259   32.6043   41.9283 H   0  0  0  0  0  0  0  0  0  0  0  0
   48.9261   34.0133   43.6466 H   0  0  0  0  0  0  0  0  0  0  0  0
   51.6008   35.8781   43.0372 O   0  0  0  0  0  0  0  0  0  0  0  0
   50.3807   36.1353   43.3305 C   0  0  0  0  0  0  0  0  0  0  0  0
   49.0652   35.9257   42.6111 C   0  0  2  0  0  0  0  0  0  0  0  0
   48.1695   36.8255   43.4329 C   0  0  2  0  0  0  0  0  0  0  0  0
   47.1226   36.4955   43.4904 H   0  0  0  0  0  0  0  0  0  0  0  0
   48.7556   36.6449   44.8384 C   0  0  2  0  0  0  0  0  0  0  0  0
   48.5150   35.6373   45.1745 H   0  0  0  0  0  0  0  0  0  0  0  0
   50.1653   36.7502   44.5929 N   0  0  0  0  0  0  0  0  0  0  0  0
   49.0984   36.3320   41.5980 H   0  0  0  0  0  0  0  0  0  0  0  0
   48.2609   37.8907   43.1201 H   0  0  0  0  0  0  0  0  0  0  0  0
   48.3764   37.4393   45.5167 H   0  0  0  0  0  0  0  0  0  0  0  0
   50.8095   37.2072   45.2735 H   0  0  0  0  0  0  0  0  0  0  0  0
  1  4  1  0
  2  7  2  0
  3  2  1  0
  4  5  1  0
  4  3  2  0
  5  6  2  0
  6  7  1  0
  8  1  1  0
 10  9  2  0
 10  8  1  1
 11 10  1  0
 12 10  1  0
 13 17  1  0
 13 12  1  0
 14 13  1  0
 15 14  1  0
 15 16  1  0
 16 17  1  0
  1 18  1  0
  1 19  1  0
  2 20  1  0
  3 21  1  0
  6 22  1  0
 11 23  1  0
 13 24  1  6
 14 25  1  0
 14 26  1  0
 15 27  1  0
 15 28  1  0
 16 29  1  0
 16 30  1  0
 17 31  1  1
 32 33  2  0
 33 34  1  0
 34 35  1  0
 35 36  1  1
 35 37  1  0
 37 38  1  1
 37 39  1  0
 39 33  1  0
 34 40  1  6
 35 41  1  0
 37 42  1  0
 39 43  1  0
 17 34  1  0
M  ISO  8  18   8  19   8  20  14  21  14  22  14  23   3  24  13  25  13
M  ISO  8  26  13  27  13  28  13  29  13  30  13  31  13  36   8  38   8
M  END
>  <DihAtoms>  (1) 
12,16,33,32

>  <DihDeg>  (1) 
-174.1995849819862

$$$$
