
     RDKit          3D

 23 24  0  0  0  0  0  0  0  0999 V2000
   44.3817   35.8088   44.5917 C   0  0  0  0  0  0  0  0  0  0  0  0
   44.5656   35.3077   43.3035 C   0  0  0  0  0  0  0  0  0  0  0  0
   45.2075   34.0784   43.1508 C   0  0  0  0  0  0  0  0  0  0  0  0
   45.6124   33.4481   44.2681 N   0  0  0  0  0  0  0  0  0  0  0  0
   45.4287   33.9439   45.5155 C   0  0  0  0  0  0  0  0  0  0  0  0
   44.8090   35.1328   45.6795 N   0  0  0  0  0  0  0  0  0  0  0  0
   44.0671   36.1212   42.2419 N   0  0  0  0  0  0  0  0  0  0  0  0
   45.3297   33.7285   42.1534 H   0  0  0  0  0  0  0  0  0  0  0  0
   45.7806   33.3822   46.3692 H   0  0  0  0  0  0  0  0  0  0  0  0
   44.5358   36.8842   41.6843 H   0  0  0  0  0  0  0  0  0  0  0  0
   43.1012   35.7222   42.1960 H   0  0  0  0  0  0  0  0  0  0  0  0
   42.9219   37.2346   42.6861 O   0  0  0  0  0  0  0  0  0  0  0  0
   42.6431   37.3705   43.8825 C   0  0  0  0  0  0  0  0  0  0  0  0
   43.7138   37.1020   44.8690 C   0  0  1  0  0  0  0  0  0  0  0  0
   43.0408   37.0102   46.2055 C   0  0  1  0  0  0  0  0  0  0  0  0
   42.8604   35.9381   46.5088 H   0  0  0  0  0  0  0  0  0  0  0  0
   41.7552   37.7563   46.0541 C   0  0  1  0  0  0  0  0  0  0  0  0
   40.8990   37.2687   46.5984 H   0  0  0  0  0  0  0  0  0  0  0  0
   41.5106   37.7368   44.6479 N   0  0  0  0  0  0  0  0  0  0  0  0
   44.4846   37.9000   44.8341 H   0  0  0  0  0  0  0  0  0  0  0  0
   43.6623   37.4377   47.0352 H   0  0  0  0  0  0  0  0  0  0  0  0
   41.8938   38.7827   46.4364 H   0  0  0  0  0  0  0  0  0  0  0  0
   40.6034   37.9610   44.1572 H   0  0  0  0  0  0  0  0  0  0  0  0
  1  6  1  0
  2  1  2  0
  3  2  1  0
  3  4  2  0
  4  5  1  0
  5  6  2  0
  7  2  1  0
  3  8  1  0
  5  9  1  0
  7 10  1  0
  7 11  1  0
 12 13  2  0
 13 14  1  0
 14 15  1  0
 15 16  1  1
 15 17  1  0
 17 18  1  1
 17 19  1  0
 19 13  1  0
 14 20  1  1
 15 21  1  0
 17 22  1  0
 19 23  1  0
  1 14  1  0
M  ISO  4   8  14   9  14  16   8  18   8
M  END
>  <DihAtoms>  (1) 
5,0,13,12

>  <DihDeg>  (1) 
-26.432416087069615

$$$$
