
     RDKit          3D

 45 48  0  0  1  0  0  0  0  0999 V2000
   46.7650   32.9570   38.7050 N   0  0  0  0  0  0  0  0  0  0  0  0
   45.9320   33.3130   37.5730 C   0  0  0  0  0  0  0  0  0  0  0  0
   45.0790   32.1470   37.1270 C   0  0  0  0  0  0  0  0  0  0  0  0
   45.8920   31.0270   36.6570 N   0  0  0  0  0  0  0  0  0  0  0  0
   47.2410   31.2430   37.1440 C   0  0  0  0  0  0  0  0  0  0  0  0
   47.1590   31.5690   38.6410 C   0  0  1  0  0  0  0  0  0  0  0  0
   44.8500   32.9560   41.1960 Br  0  0  0  0  0  0  0  0  0  0  0  0
   46.4660   33.9430   40.9520 C   0  0  0  0  0  0  0  0  0  0  0  0
   46.9110   34.7750   41.9510 C   0  0  0  0  0  0  0  0  0  0  0  0
   48.1050   35.5200   41.7850 C   0  0  0  0  0  0  0  0  0  0  0  0
   48.7890   35.3850   40.6120 C   0  0  0  0  0  0  0  0  0  0  0  0
   48.2990   34.5380   39.6470 C   0  0  0  0  0  0  0  0  0  0  0  0
   47.1700   33.8160   39.7730 C   0  0  0  0  0  0  0  0  0  0  0  0
   45.6330   34.0530   45.2960 C   0  0  0  0  0  0  0  0  0  0  0  0
   44.7000   35.0770   45.5280 C   0  0  0  0  0  0  0  0  0  0  0  0
   44.5370   36.0010   44.5070 C   0  0  0  0  0  0  0  0  0  0  0  0
   45.2540   35.8930   43.3610 N   0  0  0  0  0  0  0  0  0  0  0  0
   46.1470   34.8840   43.1790 C   0  0  0  0  0  0  0  0  0  0  0  0
   46.3120   33.9840   44.1650 N   0  0  0  0  0  0  0  0  0  0  0  0
   48.7180   31.3730   41.9330 O   0  0  0  0  0  0  0  0  0  0  0  0
   48.3240   30.9970   40.7680 C   0  0  0  0  0  0  0  0  0  0  0  0
   48.4040   31.1540   39.2820 C   0  0  1  0  0  0  0  0  0  0  0  0
   48.5990   29.6630   38.9420 C   0  0  0  0  0  0  0  0  0  0  0  0
   47.5040   28.9900   39.7610 C   0  0  0  0  0  0  0  0  0  0  0  0
   47.3580   29.9270   40.8880 N   0  0  0  0  0  0  0  0  0  0  0  0
   45.2754   34.1475   37.8603 H   0  0  0  0  0  0  0  0  0  0  0  0
   46.5876   33.6015   36.7381 H   0  0  0  0  0  0  0  0  0  0  0  0
   44.4653   31.8099   37.9754 H   0  0  0  0  0  0  0  0  0  0  0  0
   44.4481   32.4852   36.2918 H   0  0  0  0  0  0  0  0  0  0  0  0
   45.5204   30.1409   37.0280 H   0  0  0  0  0  0  0  0  0  0  0  0
   47.8424   30.3345   36.9923 H   0  0  0  0  0  0  0  0  0  0  0  0
   47.7158   32.0717   36.5982 H   0  0  0  0  0  0  0  0  0  0  0  0
   46.4077   31.0178   39.2255 H   0  0  0  0  0  0  0  0  0  0  0  0
   48.4700   36.1880   42.5790 H   0  0  0  0  0  0  0  0  0  0  0  0
   49.7195   35.9462   40.4412 H   0  0  0  0  0  0  0  0  0  0  0  0
   48.8670   34.4439   38.7097 H   0  0  0  0  0  0  0  0  0  0  0  0
   45.8018   33.2924   46.0725 H   0  0  0  0  0  0  0  0  0  0  0  0
   44.1306   35.1423   46.4669 H   0  0  0  0  0  0  0  0  0  0  0  0
   43.8211   36.8274   44.6275 H   0  0  0  0  0  0  0  0  0  0  0  0
   49.1448   31.9028   38.9649 H   0  0  0  0  0  0  0  0  0  0  0  0
   48.4601   29.4794   37.8664 H   0  0  0  0  0  0  0  0  0  0  0  0
   49.6084   29.2902   39.1706 H   0  0  0  0  0  0  0  0  0  0  0  0
   46.5694   28.9036   39.1873 H   0  0  0  0  0  0  0  0  0  0  0  0
   47.7414   27.9595   40.0640 H   0  0  0  0  0  0  0  0  0  0  0  0
   46.6700   29.8341   41.6489 H   0  0  0  0  0  0  0  0  0  0  0  0
  1 13  1  0
  2  1  1  0
  3  2  1  0
  4  3  1  0
  4  5  1  0
  5  6  1  0
  6  1  1  0
  6 22  1  0
  8  7  1  0
  8  9  2  0
  9 18  1  0
 10  9  1  0
 11 10  2  0
 12 13  2  0
 12 11  1  0
 13  8  1  0
 14 15  2  0
 16 15  1  0
 17 16  2  0
 18 17  1  0
 18 19  2  0
 19 14  1  0
 21 25  1  0
 21 20  2  0
 22 23  1  0
 22 21  1  0
 23 24  1  0
 24 25  1  0
  2 26  1  0
  2 27  1  0
  3 28  1  0
  3 29  1  0
  4 30  1  0
  5 31  1  0
  5 32  1  0
  6 33  1  1
 10 34  1  0
 11 35  1  0
 12 36  1  0
 14 37  1  0
 15 38  1  0
 16 39  1  0
 22 40  1  1
 23 41  1  0
 23 42  1  0
 24 43  1  0
 24 44  1  0
 25 45  1  0
M  ISO  8  26  13  27  13  28  13  29  13  30   5  31  13  32  13  33  13
M  ISO  8  34  14  35  14  36  14  37  14  38  14  39  14  40  13  41  13
M  ISO  4  42  13  43  13  44  13  45  10
M  END
>  <minimizedAffinity>  (1) 
-5.46492624

>  <minimizedRMSD>  (1) 
1.12978351

$$$$
