
     RDKit          3D

 42 45  0  0  1  0  0  0  0  0999 V2000
   47.7870   32.7280   42.7200 C   0  0  0  0  0  0  0  0  0  0  0  0
   48.0160   32.4910   41.3110 C   0  0  0  0  0  0  0  0  0  0  0  0
   49.2010   32.6020   40.8130 C   0  0  0  0  0  0  0  0  0  0  0  0
   49.4420   32.3740   39.4390 N   0  0  0  0  0  0  0  0  0  0  0  0
   50.2570   31.7340   38.4330 C   0  0  0  0  0  0  0  0  0  0  0  0
   51.4700   31.3720   38.3590 O   0  0  0  0  0  0  0  0  0  0  0  0
   49.0150   31.7230   37.5910 C   0  0  0  0  0  0  0  0  0  0  0  0
   48.5980   32.9590   38.3730 C   0  0  1  0  0  0  0  0  0  0  0  0
   46.9020   33.0130   38.9340 S   0  0  0  0  0  0  0  0  0  0  0  0
   46.8200   32.1260   40.5240 C   0  0  0  0  0  0  0  0  0  0  0  0
   50.3300   32.9700   41.6720 C   0  0  0  0  0  0  0  0  0  0  0  0
   51.4780   32.4120   41.6420 O   0  0  0  0  0  0  0  0  0  0  0  0
   51.1600   33.5310   42.5830 O   0  0  0  0  0  0  0  0  0  0  0  0
   46.8360   34.2890   42.9670 S   0  0  0  0  0  0  0  0  0  0  0  0
   44.4870   35.0220   46.1960 C   0  0  0  0  0  0  0  0  0  0  0  0
   45.1140   35.1650   44.9330 C   0  0  0  0  0  0  0  0  0  0  0  0
   46.0190   34.1650   44.5380 C   0  0  0  0  0  0  0  0  0  0  0  0
   46.2260   33.1480   45.3820 N   0  0  0  0  0  0  0  0  0  0  0  0
   45.6200   33.0290   46.5800 C   0  0  0  0  0  0  0  0  0  0  0  0
   44.7510   33.9660   46.9870 N   0  0  0  0  0  0  0  0  0  0  0  0
   48.1110   32.6730   48.4350 O   0  0  0  0  0  0  0  0  0  0  0  0
   47.0540   32.0130   48.3340 C   0  0  0  0  0  0  0  0  0  0  0  0
   45.8820   31.8940   47.4630 C   0  0  1  0  0  0  0  0  0  0  0  0
   44.7740   31.6820   48.5030 C   0  0  0  0  0  0  0  0  0  0  0  0
   45.4200   30.5020   49.2410 C   0  0  0  0  0  0  0  0  0  0  0  0
   46.7920   31.0140   49.3440 N   0  0  0  0  0  0  0  0  0  0  0  0
   48.7554   32.8088   43.2355 H   0  0  0  0  0  0  0  0  0  0  0  0
   47.2067   31.8892   43.1319 H   0  0  0  0  0  0  0  0  0  0  0  0
   48.3673   30.8450   37.7310 H   0  0  0  0  0  0  0  0  0  0  0  0
   49.0473   31.7031   36.4917 H   0  0  0  0  0  0  0  0  0  0  0  0
   48.6871   33.9620   37.9302 H   0  0  0  0  0  0  0  0  0  0  0  0
   45.9105   32.4192   41.0689 H   0  0  0  0  0  0  0  0  0  0  0  0
   46.7900   31.0395   40.3550 H   0  0  0  0  0  0  0  0  0  0  0  0
   52.0877   33.1987   42.6781 H   0  0  0  0  0  0  0  0  0  0  0  0
   43.7729   35.7868   46.5351 H   0  0  0  0  0  0  0  0  0  0  0  0
   44.8999   36.0278   44.2851 H   0  0  0  0  0  0  0  0  0  0  0  0
   45.9950   31.0922   46.7184 H   0  0  0  0  0  0  0  0  0  0  0  0
   44.6361   32.5584   49.1533 H   0  0  0  0  0  0  0  0  0  0  0  0
   43.7599   31.5167   48.1101 H   0  0  0  0  0  0  0  0  0  0  0  0
   44.9668   30.3367   50.2296 H   0  0  0  0  0  0  0  0  0  0  0  0
   45.3173   29.5241   48.7479 H   0  0  0  0  0  0  0  0  0  0  0  0
   47.4786   30.7015   50.0453 H   0  0  0  0  0  0  0  0  0  0  0  0
  1 14  1  0
  2  1  1  0
  3  2  2  0
  3 11  1  0
  4  3  1  0
  5  4  1  0
  6  5  2  0
  7  8  1  0
  7  5  1  0
  8  9  1  0
  8  4  1  0
  9 10  1  0
 10  2  1  0
 11 13  1  0
 12 11  2  0
 14 17  1  0
 15 20  2  0
 16 15  1  0
 17 16  2  0
 17 18  1  0
 18 19  2  0
 19 20  1  0
 22 21  2  0
 22 26  1  0
 23 19  1  0
 23 22  1  0
 23 24  1  0
 24 25  1  0
 25 26  1  0
  1 27  1  0
  1 28  1  0
  7 29  1  0
  7 30  1  0
  8 31  1  6
 10 32  1  0
 10 33  1  0
 13 34  1  0
 15 35  1  0
 16 36  1  0
 23 37  1  6
 24 38  1  0
 24 39  1  0
 25 40  1  0
 25 41  1  0
 26 42  1  0
M  ISO  8  27   8  28   8  29  13  30  13  31  13  32  13  33  13  34   3
M  ISO  8  35  14  36  14  37  13  38  13  39  13  40  13  41  13  42  10
M  END
>  <minimizedAffinity>  (1) 
-5.60650826

>  <minimizedRMSD>  (1) 
1.29872513

$$$$
