
     RDKit          3D

 48 52  0  0  1  0  0  0  0  0999 V2000
   43.3030   34.3590   41.3070 C   0  0  0  0  0  0  0  0  0  0  0  0
   42.2170   33.5810   40.9170 C   0  0  0  0  0  0  0  0  0  0  0  0
   42.1680   32.2600   41.3810 C   0  0  0  0  0  0  0  0  0  0  0  0
   43.1570   31.7970   42.1730 N   0  0  0  0  0  0  0  0  0  0  0  0
   44.2010   32.5840   42.5330 C   0  0  0  0  0  0  0  0  0  0  0  0
   44.2760   33.8590   42.1040 N   0  0  0  0  0  0  0  0  0  0  0  0
   41.2600   34.2050   40.0850 N   0  0  0  0  0  0  0  0  0  0  0  0
   41.4900   34.1620   38.6650 C   0  0  0  0  0  0  0  0  0  0  0  0
   40.5060   34.9470   37.8780 C   0  0  0  0  0  0  0  0  0  0  0  0
   39.1600   34.6290   38.2520 N   0  0  0  0  0  0  0  0  0  0  0  0
   38.8930   34.4310   39.6170 C   0  0  0  0  0  0  0  0  0  0  0  0
   40.0750   34.8840   40.4760 C   0  0  0  0  0  0  0  0  0  0  0  0
   45.9440   30.9140   43.0310 C   0  0  0  0  0  0  0  0  0  0  0  0
   45.2470   32.0140   43.4010 C   0  0  0  0  0  0  0  0  0  0  0  0
   45.5320   32.6000   44.6190 C   0  0  0  0  0  0  0  0  0  0  0  0
   46.5170   32.0600   45.4310 C   0  0  0  0  0  0  0  0  0  0  0  0
   47.2250   30.9270   45.0330 C   0  0  0  0  0  0  0  0  0  0  0  0
   46.9310   30.3420   43.8080 C   0  0  0  0  0  0  0  0  0  0  0  0
   48.1390   30.6240   46.0510 O   0  0  0  0  0  0  0  0  0  0  0  0
   47.7970   31.3960   47.1930 C   0  0  1  0  0  0  0  0  0  0  0  0
   47.0070   32.4300   46.6800 O   0  0  0  0  0  0  0  0  0  0  0  0
   45.8780   32.5800   49.2670 O   0  0  0  0  0  0  0  0  0  0  0  0
   45.9460   31.3810   48.8430 C   0  0  0  0  0  0  0  0  0  0  0  0
   47.0130   30.5770   48.1970 C   0  0  1  0  0  0  0  0  0  0  0  0
   46.2130   29.5560   47.4230 C   0  0  0  0  0  0  0  0  0  0  0  0
   45.0620   29.2350   48.3570 C   0  0  0  0  0  0  0  0  0  0  0  0
   44.7960   30.5290   48.9660 N   0  0  0  0  0  0  0  0  0  0  0  0
   43.3720   35.4008   40.9607 H   0  0  0  0  0  0  0  0  0  0  0  0
   41.3294   31.6053   41.1016 H   0  0  0  0  0  0  0  0  0  0  0  0
   42.4946   34.5621   38.4635 H   0  0  0  0  0  0  0  0  0  0  0  0
   41.3868   33.1120   38.3539 H   0  0  0  0  0  0  0  0  0  0  0  0
   40.6425   34.7228   36.8098 H   0  0  0  0  0  0  0  0  0  0  0  0
   40.6767   36.0149   38.0793 H   0  0  0  0  0  0  0  0  0  0  0  0
   38.5600   35.4017   37.9297 H   0  0  0  0  0  0  0  0  0  0  0  0
   38.0011   35.0107   39.8973 H   0  0  0  0  0  0  0  0  0  0  0  0
   38.7239   33.3579   39.7899 H   0  0  0  0  0  0  0  0  0  0  0  0
   39.8617   34.6621   41.5321 H   0  0  0  0  0  0  0  0  0  0  0  0
   40.2217   35.9656   40.3393 H   0  0  0  0  0  0  0  0  0  0  0  0
   45.7116   30.4518   42.0602 H   0  0  0  0  0  0  0  0  0  0  0  0
   44.9784   33.4933   44.9438 H   0  0  0  0  0  0  0  0  0  0  0  0
   47.4705   29.4465   43.4661 H   0  0  0  0  0  0  0  0  0  0  0  0
   48.6857   31.7604   47.7292 H   0  0  0  0  0  0  0  0  0  0  0  0
   47.7329   30.1765   48.9259 H   0  0  0  0  0  0  0  0  0  0  0  0
   45.8461   29.9783   46.4759 H   0  0  0  0  0  0  0  0  0  0  0  0
   46.8013   28.6695   47.1437 H   0  0  0  0  0  0  0  0  0  0  0  0
   44.1868   28.8676   47.8011 H   0  0  0  0  0  0  0  0  0  0  0  0
   45.2891   28.4413   49.0839 H   0  0  0  0  0  0  0  0  0  0  0  0
   43.9108   30.7958   49.4199 H   0  0  0  0  0  0  0  0  0  0  0  0
  1  6  2  0
  2  1  1  0
  2  3  2  0
  3  4  1  0
  4  5  2  0
  5 14  1  0
  6  5  1  0
  7 12  1  0
  7  2  1  0
  8  7  1  0
  9 10  1  0
  9  8  1  0
 10 11  1  0
 11 12  1  0
 13 14  2  0
 13 18  1  0
 14 15  1  0
 15 16  2  0
 16 21  1  0
 17 16  1  0
 17 19  1  0
 18 17  2  0
 19 20  1  0
 20 24  1  0
 21 20  1  0
 23 27  1  0
 23 22  2  0
 24 25  1  0
 24 23  1  0
 25 26  1  0
 26 27  1  0
  1 28  1  0
  3 29  1  0
  8 30  1  0
  8 31  1  0
  9 32  1  0
  9 33  1  0
 10 34  1  0
 11 35  1  0
 11 36  1  0
 12 37  1  0
 12 38  1  0
 13 39  1  0
 15 40  1  0
 18 41  1  0
 20 42  1  1
 24 43  1  1
 25 44  1  0
 25 45  1  0
 26 46  1  0
 26 47  1  0
 27 48  1  0
M  ISO  8  28  14  29  14  30  13  31  13  32  13  33  13  34   5  35  13
M  ISO  8  36  13  37  13  38  13  39  14  40  14  41  14  42  13  43  13
M  ISO  5  44  13  45  13  46  13  47  13  48  10
M  END
>  <minimizedAffinity>  (1) 
-5.55770493

>  <minimizedRMSD>  (1) 
1.51334417

$$$$
