
     RDKit          3D

 36 38  0  0  0  0  0  0  0  0999 V2000
   44.8284   35.1589   45.0984 C   0  0  0  0  0  0  0  0  0  0  0  0
   45.7026   34.7873   44.0815 C   0  0  0  0  0  0  0  0  0  0  0  0
   46.5315   33.6811   44.3239 C   0  0  0  0  0  0  0  0  0  0  0  0
   46.4425   33.0438   45.5084 N   0  0  0  0  0  0  0  0  0  0  0  0
   45.5776   33.4466   46.4583 C   0  0  0  0  0  0  0  0  0  0  0  0
   44.7742   34.4952   46.2608 N   0  0  0  0  0  0  0  0  0  0  0  0
   45.7152   35.5693   42.8062 C   0  0  0  0  0  0  0  0  0  0  0  0
   45.2063   36.8121   43.1554 F   0  0  0  0  0  0  0  0  0  0  0  0
   44.8093   34.9270   41.9522 F   0  0  0  0  0  0  0  0  0  0  0  0
   46.9760   35.6088   42.3090 F   0  0  0  0  0  0  0  0  0  0  0  0
   45.4610   32.8096   47.6929 O   0  0  0  0  0  0  0  0  0  0  0  0
   45.2415   31.4247   47.7743 C   0  0  0  0  0  0  0  0  0  0  0  0
   46.5211   30.7705   48.0114 C   0  0  0  0  0  0  0  0  0  0  0  0
   47.0854   29.6524   47.4248 C   0  0  0  0  0  0  0  0  0  0  0  0
   48.3152   29.2321   47.8263 C   0  0  0  0  0  0  0  0  0  0  0  0
   48.9951   29.8651   48.7691 N   0  0  0  0  0  0  0  0  0  0  0  0
   48.4532   30.9564   49.3470 C   0  0  0  0  0  0  0  0  0  0  0  0
   47.2300   31.4181   48.9841 N   0  0  0  0  0  0  0  0  0  0  0  0
   44.1530   36.0086   44.9832 H   0  0  0  0  0  0  0  0  0  0  0  0
   47.2117   33.3896   43.5364 H   0  0  0  0  0  0  0  0  0  0  0  0
   44.6927   30.9895   46.9257 H   0  0  0  0  0  0  0  0  0  0  0  0
   44.5959   31.2639   48.6770 H   0  0  0  0  0  0  0  0  0  0  0  0
   46.4565   29.2192   46.6796 H   0  0  0  0  0  0  0  0  0  0  0  0
   48.6773   28.3511   47.3136 H   0  0  0  0  0  0  0  0  0  0  0  0
   47.5519   31.2411   52.3070 O   0  0  0  0  0  0  0  0  0  0  0  0
   48.4053   31.8834   51.6436 C   0  0  0  0  0  0  0  0  0  0  0  0
   49.2272   31.6793   50.4222 C   0  0  2  0  0  0  0  0  0  0  0  0
   49.4775   33.1256   50.0033 C   0  0  1  0  0  0  0  0  0  0  0  0
   50.3038   33.2146   49.2733 H   0  0  0  0  0  0  0  0  0  0  0  0
   49.8504   33.6890   51.3722 C   0  0  1  0  0  0  0  0  0  0  0  0
   50.7386   33.1328   51.7714 H   0  0  0  0  0  0  0  0  0  0  0  0
   48.7248   33.1946   52.1535 N   0  0  0  0  0  0  0  0  0  0  0  0
   50.1849   31.2034   50.6111 H   0  0  0  0  0  0  0  0  0  0  0  0
   48.5445   33.6017   49.6725 H   0  0  0  0  0  0  0  0  0  0  0  0
   49.9625   34.7710   51.3758 H   0  0  0  0  0  0  0  0  0  0  0  0
   48.3158   33.7909   52.9222 H   0  0  0  0  0  0  0  0  0  0  0  0
  1  6  2  0
  2  3  2  0
  2  1  1  0
  3  4  1  0
  4  5  2  0
  5 11  1  0
  6  5  1  0
  7  8  1  0
  7  2  1  0
  9  7  1  0
 10  7  1  0
 11 12  1  0
 12 13  1  0
 13 18  2  0
 14 15  2  0
 14 13  1  0
 15 16  1  0
 16 17  2  0
 18 17  1  0
  1 19  1  0
  3 20  1  0
 12 21  1  0
 12 22  1  0
 14 23  1  0
 15 24  1  0
 25 26  2  0
 26 27  1  0
 27 28  1  0
 28 29  1  6
 28 30  1  0
 30 31  1  1
 30 32  1  0
 32 26  1  0
 27 33  1  1
 28 34  1  0
 30 35  1  0
 32 36  1  0
 17 27  1  0
M  ISO  8  19  14  20  14  21   8  22   8  23  14  24  14  29   8  31   8
M  END
>  <DihAtoms>  (1) 
15,16,26,25

>  <DihDeg>  (1) 
-128.57664145691345

$$$$
