
     RDKit          3D

 37 40  0  0  1  0  0  0  0  0999 V2000
   44.7340   33.3330   41.0420 Cl  0  0  0  0  0  0  0  0  0  0  0  0
   46.2900   34.0610   40.8750 C   0  0  0  0  0  0  0  0  0  0  0  0
   46.8470   34.7510   41.9240 C   0  0  0  0  0  0  0  0  0  0  0  0
   48.1090   35.3570   41.8310 C   0  0  0  0  0  0  0  0  0  0  0  0
   48.7510   35.2160   40.6210 C   0  0  0  0  0  0  0  0  0  0  0  0
   48.2090   34.5380   39.5830 C   0  0  0  0  0  0  0  0  0  0  0  0
   46.9680   33.9470   39.6870 C   0  0  0  0  0  0  0  0  0  0  0  0
   45.5670   34.0380   45.3110 C   0  0  0  0  0  0  0  0  0  0  0  0
   44.7030   35.1000   45.5400 C   0  0  0  0  0  0  0  0  0  0  0  0
   44.5580   36.0570   44.5380 C   0  0  0  0  0  0  0  0  0  0  0  0
   45.2650   35.9050   43.3960 N   0  0  0  0  0  0  0  0  0  0  0  0
   46.1060   34.8620   43.1870 C   0  0  0  0  0  0  0  0  0  0  0  0
   46.2380   33.9510   44.1500 N   0  0  0  0  0  0  0  0  0  0  0  0
   46.5150   33.2490   38.4790 C   0  0  0  0  0  0  0  0  0  0  0  0
   47.2230   33.4430   37.2980 C   0  0  0  0  0  0  0  0  0  0  0  0
   46.3070   32.3890   36.0770 S   0  0  0  0  0  0  0  0  0  0  0  0
   45.0900   31.8640   37.4550 C   0  0  0  0  0  0  0  0  0  0  0  0
   45.5110   32.4390   38.3250 N   0  0  0  0  0  0  0  0  0  0  0  0
   42.2810   32.5350   38.2310 O   0  0  0  0  0  0  0  0  0  0  0  0
   42.6450   31.5520   37.5710 C   0  0  0  0  0  0  0  0  0  0  0  0
   43.9470   30.9270   37.2280 C   0  0  1  0  0  0  0  0  0  0  0  0
   43.7440   30.5790   35.7890 C   0  0  0  0  0  0  0  0  0  0  0  0
   42.3290   30.0350   35.7810 C   0  0  0  0  0  0  0  0  0  0  0  0
   41.6970   30.6920   36.9070 N   0  0  0  0  0  0  0  0  0  0  0  0
   48.5567   35.9091   42.6705 H   0  0  0  0  0  0  0  0  0  0  0  0
   49.7436   35.6725   40.4932 H   0  0  0  0  0  0  0  0  0  0  0  0
   48.7686   34.4570   38.6395 H   0  0  0  0  0  0  0  0  0  0  0  0
   45.7028   33.2654   46.0821 H   0  0  0  0  0  0  0  0  0  0  0  0
   44.1483   35.1836   46.4862 H   0  0  0  0  0  0  0  0  0  0  0  0
   43.8842   36.9159   44.6730 H   0  0  0  0  0  0  0  0  0  0  0  0
   48.1111   34.0697   37.1288 H   0  0  0  0  0  0  0  0  0  0  0  0
   44.2123   30.0574   37.8471 H   0  0  0  0  0  0  0  0  0  0  0  0
   43.8317   31.4689   35.1484 H   0  0  0  0  0  0  0  0  0  0  0  0
   44.4892   29.8699   35.3994 H   0  0  0  0  0  0  0  0  0  0  0  0
   41.8170   30.2898   34.8414 H   0  0  0  0  0  0  0  0  0  0  0  0
   42.2957   28.9381   35.8564 H   0  0  0  0  0  0  0  0  0  0  0  0
   40.7154   30.5637   37.1913 H   0  0  0  0  0  0  0  0  0  0  0  0
  2  1  1  0
  2  3  2  0
  3 12  1  0
  4  3  1  0
  5  4  2  0
  6  7  2  0
  6  5  1  0
  7  2  1  0
  8  9  2  0
 10  9  1  0
 11 10  2  0
 12 11  1  0
 12 13  2  0
 13  8  1  0
 14  7  1  0
 15 14  2  0
 16 15  1  0
 16 17  1  0
 17 18  2  0
 18 14  1  0
 20 19  2  0
 21 17  1  0
 21 20  1  0
 22 21  1  0
 23 22  1  0
 23 24  1  0
 24 20  1  0
  4 25  1  0
  5 26  1  0
  6 27  1  0
  8 28  1  0
  9 29  1  0
 10 30  1  0
 15 31  1  0
 21 32  1  1
 22 33  1  0
 22 34  1  0
 23 35  1  0
 23 36  1  0
 24 37  1  0
M  ISO  8  25  14  26  14  27  14  28  14  29  14  30  14  31  14  32  13
M  ISO  5  33  13  34  13  35  13  36  13  37  10
M  END
>  <minimizedAffinity>  (1) 
-6.03919935

>  <minimizedRMSD>  (1) 
1.04678547

$$$$
