
     RDKit          3D

 37 38  0  0  0  0  0  0  0  0999 V2000
   43.7526   35.7080   41.7008 C   0  0  0  0  0  0  0  0  0  0  0  0
   43.4303   35.6501   43.1211 N   0  0  0  0  0  0  0  0  0  0  0  0
   44.8211   35.8379   44.1114 S   0  0  0  0  0  0  0  0  0  0  0  0
   46.0703   35.3623   43.4292 O   0  0  0  0  0  0  0  0  0  0  0  0
   44.9566   37.3282   44.3771 O   0  0  0  0  0  0  0  0  0  0  0  0
   44.5993   35.0909   45.5698 O   0  0  0  0  0  0  0  0  0  0  0  0
   45.4265   34.0054   45.7379 C   0  0  0  0  0  0  0  0  0  0  0  0
   43.4056   34.0935   40.9997 S   0  0  0  0  0  0  0  0  0  0  0  0
   40.8808   33.0305   41.3602 C   0  0  0  0  0  0  0  0  0  0  0  0
   41.6274   33.9589   40.6764 C   0  0  0  0  0  0  0  0  0  0  0  0
   41.0514   34.7961   39.7438 C   0  0  0  0  0  0  0  0  0  0  0  0
   39.7186   34.6592   39.5353 N   0  0  0  0  0  0  0  0  0  0  0  0
   38.9986   33.7342   40.2226 C   0  0  0  0  0  0  0  0  0  0  0  0
   39.5609   32.9225   41.1278 N   0  0  0  0  0  0  0  0  0  0  0  0
   37.6270   33.5933   40.0080 O   0  0  0  0  0  0  0  0  0  0  0  0
   43.1502   36.5151   41.1962 H   0  0  0  0  0  0  0  0  0  0  0  0
   44.8329   35.9054   41.6000 H   0  0  0  0  0  0  0  0  0  0  0  0
   42.7474   36.4208   43.3272 H   0  0  0  0  0  0  0  0  0  0  0  0
   46.5920   34.5536   43.6122 H   0  0  0  0  0  0  0  0  0  0  0  0
   44.6203   37.6848   45.2476 H   0  0  0  0  0  0  0  0  0  0  0  0
   45.3469   33.3056   44.8791 H   0  0  0  0  0  0  0  0  0  0  0  0
   45.1162   33.4662   46.6349 H   0  0  0  0  0  0  0  0  0  0  0  0
   46.5049   34.2748   45.8446 H   0  0  0  0  0  0  0  0  0  0  0  0
   41.3546   32.3914   42.0807 H   0  0  0  0  0  0  0  0  0  0  0  0
   41.6283   35.5338   39.1964 H   0  0  0  0  0  0  0  0  0  0  0  0
   35.5049   34.0429   42.3237 O   0  0  0  0  0  0  0  0  0  0  0  0
   36.3751   33.1924   41.9753 C   0  0  0  0  0  0  0  0  0  0  0  0
   36.8390   32.6478   40.6972 C   0  0  2  0  0  0  0  0  0  0  0  0
   37.6169   31.4144   41.1019 C   0  0  1  0  0  0  0  0  0  0  0  0
   36.9073   30.5500   41.0107 H   0  0  0  0  0  0  0  0  0  0  0  0
   37.9858   31.5926   42.5404 C   0  0  2  0  0  0  0  0  0  0  0  0
   39.0502   31.8758   42.6850 H   0  0  0  0  0  0  0  0  0  0  0  0
   37.0921   32.6044   43.0394 N   0  0  0  0  0  0  0  0  0  0  0  0
   36.0119   32.3633   40.0132 H   0  0  0  0  0  0  0  0  0  0  0  0
   38.5042   31.2786   40.4412 H   0  0  0  0  0  0  0  0  0  0  0  0
   37.8180   30.6194   43.0729 H   0  0  0  0  0  0  0  0  0  0  0  0
   37.1173   32.7385   44.0887 H   0  0  0  0  0  0  0  0  0  0  0  0
  1  2  1  0
  2  3  1  0
  3  5  1  0
  3  6  1  0
  4  3  1  0
  6  7  1  0
  8  1  1  0
 10  8  1  0
 10  9  2  0
 11 10  1  0
 12 11  2  0
 12 13  1  0
 13 14  2  0
 14  9  1  0
 15 13  1  0
  1 16  1  0
  1 17  1  0
  2 18  1  0
  4 19  1  0
  5 20  1  0
  7 21  1  0
  7 22  1  0
  7 23  1  0
  9 24  1  0
 11 25  1  0
 26 27  2  0
 27 28  1  0
 28 29  1  0
 29 30  1  1
 29 31  1  0
 31 32  1  6
 31 33  1  0
 33 27  1  0
 28 34  1  6
 29 35  1  0
 31 36  1  0
 33 37  1  0
 15 28  1  0
M  ISO  8  16   8  17   8  18   5  19   3  20   3  21   8  22   8  23   8
M  ISO  4  24  14  25  14  30   8  32   8
M  END
>  <DihAtoms>  (1) 
12,14,27,26

>  <DihDeg>  (1) 
-123.80372579004073

$$$$
