
     RDKit          3D

 36 38  0  0  0  0  0  0  0  0999 V2000
   44.4815   35.7480   45.0120 C   0  0  0  0  0  0  0  0  0  0  0  0
   45.1177   35.7156   43.7559 C   0  0  0  0  0  0  0  0  0  0  0  0
   46.0118   34.7240   43.4871 C   0  0  0  0  0  0  0  0  0  0  0  0
   46.2357   33.8132   44.4671 N   0  0  0  0  0  0  0  0  0  0  0  0
   45.6247   33.8541   45.6575 C   0  0  0  0  0  0  0  0  0  0  0  0
   44.7524   34.8118   45.9354 N   0  0  0  0  0  0  0  0  0  0  0  0
   45.9470   32.8368   46.5969 N   0  0  0  0  0  0  0  0  0  0  0  0
   45.1627   32.5623   47.8061 C   0  0  0  0  0  0  0  0  0  0  0  0
   46.2480   32.2396   48.8096 C   0  0  0  0  0  0  0  0  0  0  0  0
   47.5200   32.0683   48.0404 C   0  0  0  0  0  0  0  0  0  0  0  0
   47.0313   31.8900   46.6093 C   0  0  1  0  0  0  0  0  0  0  0  0
   44.7636   36.7556   42.8290 N   0  0  0  0  0  0  0  0  0  0  0  0
   46.4857   30.2047   46.4047 S   0  0  0  0  0  0  0  0  0  0  0  0
   43.7521   36.4961   45.3282 H   0  0  0  0  0  0  0  0  0  0  0  0
   46.4977   34.7012   42.5265 H   0  0  0  0  0  0  0  0  0  0  0  0
   44.6094   31.6205   47.5936 H   0  0  0  0  0  0  0  0  0  0  0  0
   44.5144   33.3936   48.0870 H   0  0  0  0  0  0  0  0  0  0  0  0
   46.2748   33.0502   49.5705 H   0  0  0  0  0  0  0  0  0  0  0  0
   45.9913   31.3044   49.3848 H   0  0  0  0  0  0  0  0  0  0  0  0
   48.0096   31.1194   48.3469 H   0  0  0  0  0  0  0  0  0  0  0  0
   48.1582   32.9437   48.1570 H   0  0  0  0  0  0  0  0  0  0  0  0
   47.8503   32.1778   45.9192 H   0  0  0  0  0  0  0  0  0  0  0  0
   44.0640   36.6088   42.0516 H   0  0  0  0  0  0  0  0  0  0  0  0
   45.2052   37.6981   42.9134 H   0  0  0  0  0  0  0  0  0  0  0  0
   43.5476   31.0548   45.0532 O   0  0  0  0  0  0  0  0  0  0  0  0
   44.4811   30.4054   44.5200 C   0  0  0  0  0  0  0  0  0  0  0  0
   45.7700   29.7720   44.8591 C   0  0  1  0  0  0  0  0  0  0  0  0
   46.5868   30.0387   43.6265 C   0  0  2  0  0  0  0  0  0  0  0  0
   47.4739   29.3858   43.5253 H   0  0  0  0  0  0  0  0  0  0  0  0
   45.5928   29.5244   42.5741 C   0  0  1  0  0  0  0  0  0  0  0  0
   45.8312   29.8391   41.5625 H   0  0  0  0  0  0  0  0  0  0  0  0
   44.3653   30.1248   43.1089 N   0  0  0  0  0  0  0  0  0  0  0  0
   45.5779   28.6645   44.8554 H   0  0  0  0  0  0  0  0  0  0  0  0
   46.7572   31.1001   43.4057 H   0  0  0  0  0  0  0  0  0  0  0  0
   45.4989   28.4323   42.7357 H   0  0  0  0  0  0  0  0  0  0  0  0
   43.5740   30.2794   42.4460 H   0  0  0  0  0  0  0  0  0  0  0  0
  1  6  2  0
  2  1  1  0
  3  2  2  0
  3  4  1  0
  4  5  2  0
  5  6  1  0
  5  7  1  0
  7 11  1  0
  7  8  1  0
  8  9  1  0
 10  9  1  0
 11 10  1  0
 12  2  1  0
 13 11  1  0
  1 14  1  0
  3 15  1  0
  8 16  1  0
  8 17  1  0
  9 18  1  0
  9 19  1  0
 10 20  1  0
 10 21  1  0
 11 22  1  6
 12 23  1  0
 12 24  1  0
 25 26  2  0
 26 27  1  0
 27 28  1  0
 28 29  1  1
 28 30  1  0
 30 31  1  6
 30 32  1  0
 32 26  1  0
 27 33  1  1
 28 34  1  0
 30 35  1  0
 32 36  1  0
 13 27  1  0
M  ISO  8  14  14  15  14  16  13  17  13  18  13  19  13  20  13  21  13
M  ISO  3  22  13  29   8  31   8
M  END
>  <DihAtoms>  (1) 
10,12,26,25

>  <DihDeg>  (1) 
-66.25151108877041

$$$$
