
     RDKit          3D

 39 41  0  0  0  0  0  0  0  0999 V2000
   44.5694   35.5892   44.7508 C   0  0  0  0  0  0  0  0  0  0  0  0
   45.1493   35.7305   43.4770 C   0  0  0  0  0  0  0  0  0  0  0  0
   46.1929   34.8793   43.1599 C   0  0  0  0  0  0  0  0  0  0  0  0
   46.6047   33.9682   44.0634 N   0  0  0  0  0  0  0  0  0  0  0  0
   46.0436   33.8453   45.2708 C   0  0  0  0  0  0  0  0  0  0  0  0
   45.0155   34.6653   45.6156 N   0  0  0  0  0  0  0  0  0  0  0  0
   45.4113   32.5497   47.3254 C   0  0  1  0  0  0  0  0  0  0  0  0
   46.4585   32.8765   46.3023 C   0  0  1  0  0  0  0  0  0  0  0  0
   46.6067   31.4778   45.6641 C   0  0  0  0  0  0  0  0  0  0  0  0
   46.3363   30.5663   46.6343 O   0  0  0  0  0  0  0  0  0  0  0  0
   45.9723   31.2172   47.8087 C   0  0  0  0  0  0  0  0  0  0  0  0
   45.2475   33.4891   48.2987 O   0  0  0  0  0  0  0  0  0  0  0  0
   46.7572   35.0267   41.8995 O   0  0  0  0  0  0  0  0  0  0  0  0
   48.5852   33.2493   41.1345 O   0  0  0  0  0  0  0  0  0  0  0  0
   48.4113   34.6674   41.6498 P   0  0  1  0  0  0  0  0  0  0  0  0
   49.0485   35.8023   40.6009 O   0  0  0  0  0  0  0  0  0  0  0  0
   49.1548   34.7770   43.1773 O   0  0  0  0  0  0  0  0  0  0  0  0
   43.7537   36.2594   44.9903 H   0  0  0  0  0  0  0  0  0  0  0  0
   44.7595   36.4907   42.8051 H   0  0  0  0  0  0  0  0  0  0  0  0
   44.4407   32.3467   46.8234 H   0  0  0  0  0  0  0  0  0  0  0  0
   47.4093   33.1759   46.7577 H   0  0  0  0  0  0  0  0  0  0  0  0
   47.6786   31.4027   45.3860 H   0  0  0  0  0  0  0  0  0  0  0  0
   46.0063   31.4078   44.7429 H   0  0  0  0  0  0  0  0  0  0  0  0
   45.1771   30.6170   48.2965 H   0  0  0  0  0  0  0  0  0  0  0  0
   46.8160   31.3579   48.4990 H   0  0  0  0  0  0  0  0  0  0  0  0
   44.3894   33.3850   48.7466 H   0  0  0  0  0  0  0  0  0  0  0  0
   49.7843   36.3529   40.9897 H   0  0  0  0  0  0  0  0  0  0  0  0
   50.1058   31.6234   43.1105 O   0  0  0  0  0  0  0  0  0  0  0  0
   50.2211   32.7718   43.6392 C   0  0  0  0  0  0  0  0  0  0  0  0
   50.4031   34.1988   43.2136 C   0  0  2  0  0  0  0  0  0  0  0  0
   51.2501   34.7735   44.3315 C   0  0  1  0  0  0  0  0  0  0  0  0
   52.3097   34.5374   44.1291 H   0  0  0  0  0  0  0  0  0  0  0  0
   50.7897   34.0305   45.5895 C   0  0  2  0  0  0  0  0  0  0  0  0
   50.0344   34.6225   46.1286 H   0  0  0  0  0  0  0  0  0  0  0  0
   50.1767   32.8269   45.0612 N   0  0  0  0  0  0  0  0  0  0  0  0
   50.9070   34.2503   42.2423 H   0  0  0  0  0  0  0  0  0  0  0  0
   51.0911   35.8451   44.4873 H   0  0  0  0  0  0  0  0  0  0  0  0
   51.6447   33.7187   46.2138 H   0  0  0  0  0  0  0  0  0  0  0  0
   49.7877   32.1663   45.7806 H   0  0  0  0  0  0  0  0  0  0  0  0
  1  6  2  0
  2  1  1  0
  3  2  2  0
  3  4  1  0
  4  5  2  0
  5  6  1  0
  7 11  1  0
  7 12  1  0
  8  5  1  0
  8  7  1  0
  9  8  1  0
  9 10  1  0
 10 11  1  0
 13  3  1  0
 14 15  2  0
 15 13  1  1
 15 17  1  0
 16 15  1  0
  1 18  1  0
  2 19  1  0
  7 20  1  6
  8 21  1  1
  9 22  1  0
  9 23  1  0
 11 24  1  0
 11 25  1  0
 12 26  1  0
 16 27  1  0
 28 29  2  0
 29 30  1  0
 30 31  1  0
 31 32  1  6
 31 33  1  0
 33 34  1  1
 33 35  1  0
 35 29  1  0
 30 36  1  6
 31 37  1  0
 33 38  1  0
 35 39  1  0
 17 30  1  0
M  ISO  8  18  14  19  14  20  13  21  13  22  13  23  13  24  13  25  13
M  ISO  4  26   3  27   3  32   8  34   8
M  END
>  <DihAtoms>  (1) 
14,16,29,28

>  <DihDeg>  (1) 
-121.54312101694747

$$$$
