
     RDKit          3D

 39 41  0  0  0  0  0  0  0  0999 V2000
   46.3541   35.2346   42.6045 C   0  0  0  0  0  0  0  0  0  0  0  0
   46.8498   34.1276   43.3037 C   0  0  0  0  0  0  0  0  0  0  0  0
   46.2965   33.8074   44.5301 C   0  0  0  0  0  0  0  0  0  0  0  0
   45.2936   34.5991   44.9826 N   0  0  0  0  0  0  0  0  0  0  0  0
   44.8291   35.6578   44.3015 C   0  0  0  0  0  0  0  0  0  0  0  0
   45.3590   35.9782   43.1092 N   0  0  0  0  0  0  0  0  0  0  0  0
   46.1141   31.3669   44.9424 C   0  0  2  0  0  0  0  0  0  0  0  0
   46.8836   32.6830   45.2949 C   0  0  2  0  0  0  0  0  0  0  0  0
   46.6482   32.7615   46.7515 C   0  0  0  0  0  0  0  0  0  0  0  0
   45.9077   31.6469   47.1456 O   0  0  0  0  0  0  0  0  0  0  0  0
   46.3378   30.6408   46.2675 C   0  0  0  0  0  0  0  0  0  0  0  0
   46.7683   30.6832   43.9123 O   0  0  0  0  0  0  0  0  0  0  0  0
   47.8880   33.4087   42.6992 O   0  0  0  0  0  0  0  0  0  0  0  0
   50.3372   33.1388   41.8225 O   0  0  0  0  0  0  0  0  0  0  0  0
   49.3035   34.1540   42.1410 P   0  0  1  0  0  0  0  0  0  0  0  0
   48.9977   35.0448   40.7321 O   0  0  0  0  0  0  0  0  0  0  0  0
   49.8899   35.2176   43.3335 O   0  0  0  0  0  0  0  0  0  0  0  0
   46.7597   35.5131   41.6483 H   0  0  0  0  0  0  0  0  0  0  0  0
   44.0309   36.1211   44.8785 H   0  0  0  0  0  0  0  0  0  0  0  0
   45.0673   31.5555   44.7432 H   0  0  0  0  0  0  0  0  0  0  0  0
   47.8922   32.4499   44.9473 H   0  0  0  0  0  0  0  0  0  0  0  0
   47.5822   32.7841   47.3605 H   0  0  0  0  0  0  0  0  0  0  0  0
   46.0831   33.6836   47.0504 H   0  0  0  0  0  0  0  0  0  0  0  0
   47.4359   30.5104   46.4033 H   0  0  0  0  0  0  0  0  0  0  0  0
   45.7505   29.7279   46.3566 H   0  0  0  0  0  0  0  0  0  0  0  0
   47.7146   30.6163   44.1793 H   0  0  0  0  0  0  0  0  0  0  0  0
   49.0246   36.0134   40.8912 H   0  0  0  0  0  0  0  0  0  0  0  0
   48.0672   33.7067   45.2965 O   0  0  0  0  0  0  0  0  0  0  0  0
   49.2331   33.4941   44.8457 C   0  0  0  0  0  0  0  0  0  0  0  0
   50.1918   34.5861   44.5032 C   0  0  1  0  0  0  0  0  0  0  0  0
   51.4611   33.7711   44.2573 C   0  0  1  0  0  0  0  0  0  0  0  0
   52.1214   34.2223   43.5154 H   0  0  0  0  0  0  0  0  0  0  0  0
   50.9100   32.4859   43.6328 C   0  0  2  0  0  0  0  0  0  0  0  0
   51.6579   31.6961   43.5771 H   0  0  0  0  0  0  0  0  0  0  0  0
   49.8317   32.2074   44.5881 N   0  0  0  0  0  0  0  0  0  0  0  0
   50.3254   35.2352   45.3699 H   0  0  0  0  0  0  0  0  0  0  0  0
   51.9617   33.4630   45.1841 H   0  0  0  0  0  0  0  0  0  0  0  0
   50.4974   32.6879   42.6130 H   0  0  0  0  0  0  0  0  0  0  0  0
   49.5379   31.2962   45.0064 H   0  0  0  0  0  0  0  0  0  0  0  0
  1  6  2  0
  1  2  1  0
  2  3  2  0
  3  4  1  0
  5  4  2  0
  6  5  1  0
  7 12  1  0
  7  8  1  0
  7 11  1  0
  8  3  1  0
  8  9  1  0
  9 10  1  0
 11 10  1  0
 13  2  1  0
 14 15  2  0
 15 13  1  1
 15 17  1  0
 16 15  1  0
  1 18  1  0
  5 19  1  0
  7 20  1  6
  8 21  1  1
  9 22  1  0
  9 23  1  0
 11 24  1  0
 11 25  1  0
 12 26  1  0
 16 27  1  0
 28 29  2  0
 29 30  1  0
 30 31  1  0
 31 32  1  6
 31 33  1  0
 33 34  1  6
 33 35  1  0
 35 29  1  0
 30 36  1  1
 31 37  1  0
 33 38  1  0
 35 39  1  0
 17 30  1  0
M  ISO  8  18  14  19  14  20  13  21  13  22  13  23  13  24  13  25  13
M  ISO  4  26   3  27   3  32   8  34   8
M  END
>  <DihAtoms>  (1) 
14,16,29,28

>  <DihDeg>  (1) 
127.28095451772325

$$$$
