
     RDKit          3D

 41 45  0  0  0  0  0  0  0  0999 V2000
   45.4976   34.8180   43.5392 C   0  0  0  0  0  0  0  0  0  0  0  0
   46.2174   33.7498   44.1155 C   0  0  0  0  0  0  0  0  0  0  0  0
   46.0229   33.5185   45.4692 C   0  0  0  0  0  0  0  0  0  0  0  0
   45.1726   34.3066   46.1639 N   0  0  0  0  0  0  0  0  0  0  0  0
   44.4940   35.3255   45.5861 C   0  0  0  0  0  0  0  0  0  0  0  0
   44.6616   35.5698   44.2888 N   0  0  0  0  0  0  0  0  0  0  0  0
   47.0187   32.6995   47.5405 C   0  0  0  0  0  0  0  0  0  0  0  0
   46.6887   32.4564   46.2137 C   0  0  0  0  0  0  0  0  0  0  0  0
   47.0050   31.2311   45.6764 C   0  0  0  0  0  0  0  0  0  0  0  0
   47.6344   30.2353   46.3973 C   0  0  0  0  0  0  0  0  0  0  0  0
   48.0322   28.9909   46.0923 N   0  0  0  0  0  0  0  0  0  0  0  0
   48.6127   28.4526   47.2302 C   0  0  0  0  0  0  0  0  0  0  0  0
   48.5562   29.3754   48.1975 N   0  0  0  0  0  0  0  0  0  0  0  0
   47.9623   30.4758   47.7144 C   0  0  0  0  0  0  0  0  0  0  0  0
   47.6532   31.7043   48.2775 C   0  0  0  0  0  0  0  0  0  0  0  0
   45.6647   35.0801   42.1936 O   0  0  0  0  0  0  0  0  0  0  0  0
   44.6314   34.8962   41.2807 C   0  0  0  0  0  0  0  0  0  0  0  0
   45.0027   33.7776   40.6006 C   0  0  0  0  0  0  0  0  0  0  0  0
   43.5552   33.6022   39.3926 S   0  0  0  0  0  0  0  0  0  0  0  0
   42.7400   35.1630   40.1239 C   0  0  0  0  0  0  0  0  0  0  0  0
   43.4917   35.4222   40.8943 N   0  0  0  0  0  0  0  0  0  0  0  0
   46.8849   33.1287   43.5773 H   0  0  0  0  0  0  0  0  0  0  0  0
   43.8197   35.9436   46.1566 H   0  0  0  0  0  0  0  0  0  0  0  0
   46.8238   33.6154   48.0710 H   0  0  0  0  0  0  0  0  0  0  0  0
   46.7330   31.0670   44.6274 H   0  0  0  0  0  0  0  0  0  0  0  0
   47.8907   28.5744   45.1367 H   0  0  0  0  0  0  0  0  0  0  0  0
   48.9880   27.4393   47.1415 H   0  0  0  0  0  0  0  0  0  0  0  0
   47.9303   31.8523   49.3222 H   0  0  0  0  0  0  0  0  0  0  0  0
   45.6931   32.9693   40.4180 H   0  0  0  0  0  0  0  0  0  0  0  0
   42.5661   37.8186   38.8016 O   0  0  0  0  0  0  0  0  0  0  0  0
   41.6999   36.9057   38.8381 C   0  0  0  0  0  0  0  0  0  0  0  0
   41.4609   35.7344   39.6743 C   0  0  1  0  0  0  0  0  0  0  0  0
   40.7856   34.7883   38.7002 C   0  0  2  0  0  0  0  0  0  0  0  0
   40.2999   33.9341   39.1990 H   0  0  0  0  0  0  0  0  0  0  0  0
   39.7765   35.7465   38.0727 C   0  0  1  0  0  0  0  0  0  0  0  0
   39.3377   35.3749   37.1478 H   0  0  0  0  0  0  0  0  0  0  0  0
   40.6342   36.9143   37.8663 N   0  0  0  0  0  0  0  0  0  0  0  0
   40.7985   36.0171   40.5177 H   0  0  0  0  0  0  0  0  0  0  0  0
   41.5049   34.5190   37.9272 H   0  0  0  0  0  0  0  0  0  0  0  0
   39.0152   35.9470   38.8768 H   0  0  0  0  0  0  0  0  0  0  0  0
   40.4459   37.6165   37.1051 H   0  0  0  0  0  0  0  0  0  0  0  0
  1  2  2  0
  1  6  1  0
  2  3  1  0
  3  4  2  0
  3  8  1  0
  5  4  1  0
  6  5  2  0
  7 15  2  0
  8  7  1  0
  9  8  2  0
  9 10  1  0
 10 14  2  0
 11 10  1  0
 11 12  1  0
 12 13  2  0
 14 13  1  0
 14 15  1  0
 16  1  1  0
 17 16  1  0
 18 17  2  0
 19 20  1  0
 19 18  1  0
 20 21  2  0
 21 17  1  0
  2 22  1  0
  5 23  1  0
  7 24  1  0
  9 25  1  0
 11 26  1  0
 12 27  1  0
 15 28  1  0
 18 29  1  0
 30 31  2  0
 31 32  1  0
 32 33  1  0
 33 34  1  1
 33 35  1  0
 35 36  1  6
 35 37  1  0
 37 31  1  0
 32 38  1  1
 33 39  1  0
 35 40  1  0
 37 41  1  0
 20 32  1  0
M  ISO  8  22  14  23  14  24  14  25  14  26   9  27  14  28  14  29  14
M  ISO  2  34   8  36   8
M  END
>  <DihAtoms>  (1) 
18,19,31,30

>  <DihDeg>  (1) 
122.23048337114176

$$$$
