
     RDKit          3D

 37 38  0  0  1  0  0  0  0  0999 V2000
   45.2170   36.0440   44.0090 C   0  0  0  0  0  0  0  0  0  0  0  0
   45.9630   35.2290   43.1490 C   0  0  0  0  0  0  0  0  0  0  0  0
   46.2370   33.9070   43.5200 C   0  0  0  0  0  0  0  0  0  0  0  0
   45.7610   33.4920   44.6920 N   0  0  0  0  0  0  0  0  0  0  0  0
   45.0410   34.2880   45.5140 C   0  0  0  0  0  0  0  0  0  0  0  0
   44.7660   35.5640   45.1770 N   0  0  0  0  0  0  0  0  0  0  0  0
   48.2890   33.7370   42.1300 C   0  0  2  0  0  0  0  0  0  0  0  0
   47.0200   33.1060   42.5820 C   0  0  2  0  0  0  0  0  0  0  0  0
   46.3690   32.8900   41.3320 O   0  0  0  0  0  0  0  0  0  0  0  0
   47.3450   32.2310   40.6100 C   0  0  0  0  0  0  0  0  0  0  0  0
   48.7000   32.6740   41.0890 C   0  0  1  0  0  0  0  0  0  0  0  0
   49.2130   33.9440   43.1090 O   0  0  0  0  0  0  0  0  0  0  0  0
   49.4700   33.2750   40.1040 O   0  0  0  0  0  0  0  0  0  0  0  0
   44.9430   37.4650   43.5910 C   0  0  0  0  0  0  0  0  0  0  0  0
   45.2770   39.6040   44.9910 C   0  0  0  0  0  0  0  0  0  0  0  0
   45.6990   40.1930   43.9580 O   0  0  0  0  0  0  0  0  0  0  0  0
   44.8940   38.2530   44.8010 N   0  0  0  0  0  0  0  0  0  0  0  0
   45.1950   40.2640   46.2650 C   0  0  0  0  0  0  0  0  0  0  0  0
   44.5800   41.3980   46.4370 C   0  0  0  0  0  0  0  0  0  0  0  0
   43.9210   42.0780   45.3110 C   0  0  0  0  0  0  0  0  0  0  0  0
   46.3306   35.6238   42.1904 H   0  0  0  0  0  0  0  0  0  0  0  0
   44.6744   33.8889   46.4712 H   0  0  0  0  0  0  0  0  0  0  0  0
   48.1908   34.7671   41.7567 H   0  0  0  0  0  0  0  0  0  0  0  0
   47.1747   32.1954   43.1794 H   0  0  0  0  0  0  0  0  0  0  0  0
   47.2364   32.4699   39.5417 H   0  0  0  0  0  0  0  0  0  0  0  0
   47.2399   31.1454   40.7527 H   0  0  0  0  0  0  0  0  0  0  0  0
   49.3187   31.8379   41.4469 H   0  0  0  0  0  0  0  0  0  0  0  0
   48.7822   33.8475   43.9951 H   0  0  0  0  0  0  0  0  0  0  0  0
   50.1756   33.8258   40.5269 H   0  0  0  0  0  0  0  0  0  0  0  0
   45.7472   37.8285   42.9344 H   0  0  0  0  0  0  0  0  0  0  0  0
   43.9974   37.5376   43.0337 H   0  0  0  0  0  0  0  0  0  0  0  0
   44.5331   37.7690   45.6355 H   0  0  0  0  0  0  0  0  0  0  0  0
   45.6737   39.7892   47.1341 H   0  0  0  0  0  0  0  0  0  0  0  0
   44.5525   41.8541   47.4376 H   0  0  0  0  0  0  0  0  0  0  0  0
   43.2044   42.8175   45.6979 H   0  0  0  0  0  0  0  0  0  0  0  0
   44.6779   42.5875   44.6966 H   0  0  0  0  0  0  0  0  0  0  0  0
   43.3880   41.3374   44.6966 H   0  0  0  0  0  0  0  0  0  0  0  0
  1  6  2  0
  2  3  2  0
  2  1  1  0
  3  4  1  0
  4  5  2  0
  6  5  1  0
  7  8  1  0
  7 12  1  0
  8  3  1  0
  9  8  1  0
 10 11  1  0
 10  9  1  0
 11  7  1  0
 13 11  1  0
 14  1  1  0
 14 17  1  0
 15 18  1  0
 16 15  2  0
 17 15  1  0
 18 19  2  0
 20 19  1  0
  2 21  1  0
  5 22  1  0
  7 23  1  6
  8 24  1  1
 10 25  1  0
 10 26  1  0
 11 27  1  1
 12 28  1  0
 13 29  1  0
 14 30  1  0
 14 31  1  0
 17 32  1  0
 18 33  1  0
 19 34  1  0
 20 35  1  0
 20 36  1  0
 20 37  1  0
M  ISO  8  21  14  22  14  23  13  24  13  25  13  26  13  27  13  28   3
M  ISO  6  29   3  30   8  31   8  35   8  36   8  37   8
M  END
>  <minimizedAffinity>  (1) 
-4.89800406

>  <minimizedRMSD>  (1) 
0.857120633

$$$$
