
     RDKit          3D

 33 34  0  0  0  0  0  0  0  0999 V2000
   44.5310   36.0080   44.6116 C   0  0  0  0  0  0  0  0  0  0  0  0
   45.2608   35.7826   43.4374 C   0  0  0  0  0  0  0  0  0  0  0  0
   46.1060   34.6555   43.4007 C   0  0  0  0  0  0  0  0  0  0  0  0
   46.1371   33.8818   44.5171 N   0  0  0  0  0  0  0  0  0  0  0  0
   45.4298   34.1202   45.6245 C   0  0  0  0  0  0  0  0  0  0  0  0
   44.6239   35.1834   45.6777 N   0  0  0  0  0  0  0  0  0  0  0  0
   46.9380   34.2960   42.2377 C   0  0  1  0  0  0  0  0  0  0  0  0
   46.1468   34.1758   40.9690 C   0  0  0  0  0  0  0  0  0  0  0  0
   47.1349   33.5839   39.9607 C   0  0  0  0  0  0  0  0  0  0  0  0
   48.0982   34.7166   39.6276 C   0  0  0  0  0  0  0  0  0  0  0  0
   48.8114   35.2255   40.8286 C   0  0  0  0  0  0  0  0  0  0  0  0
   48.0341   35.3316   42.0823 C   0  0  2  0  0  0  0  0  0  0  0  0
   43.8918   36.8715   44.6227 H   0  0  0  0  0  0  0  0  0  0  0  0
   45.2258   36.3976   42.5708 H   0  0  0  0  0  0  0  0  0  0  0  0
   45.5788   33.3955   46.4210 H   0  0  0  0  0  0  0  0  0  0  0  0
   47.4376   33.3280   42.4196 H   0  0  0  0  0  0  0  0  0  0  0  0
   45.2436   33.5791   41.0952 H   0  0  0  0  0  0  0  0  0  0  0  0
   45.8917   35.1909   40.5484 H   0  0  0  0  0  0  0  0  0  0  0  0
   46.6565   33.2141   39.0579 H   0  0  0  0  0  0  0  0  0  0  0  0
   47.7545   32.8107   40.4926 H   0  0  0  0  0  0  0  0  0  0  0  0
   47.4642   35.5458   39.2115 H   0  0  0  0  0  0  0  0  0  0  0  0
   48.8277   34.3459   38.9001 H   0  0  0  0  0  0  0  0  0  0  0  0
   49.7237   34.6100   40.9769 H   0  0  0  0  0  0  0  0  0  0  0  0
   49.1834   36.2460   40.5744 H   0  0  0  0  0  0  0  0  0  0  0  0
   47.5614   36.3198   42.2429 H   0  0  0  0  0  0  0  0  0  0  0  0
   48.9767   35.1119   43.2160 C   0  0  0  0  0  0  0  0  0  0  0  0
   49.8566   34.1245   43.3200 C   0  0  0  0  0  0  0  0  0  0  0  0
   49.9244   33.1447   42.2256 C   0  0  0  0  0  0  0  0  0  0  0  0
   50.5735   32.3021   42.5868 H   0  0  0  0  0  0  0  0  0  0  0  0
   48.8072   35.9068   43.9335 H   0  0  0  0  0  0  0  0  0  0  0  0
   50.4427   34.1575   44.2316 H   0  0  0  0  0  0  0  0  0  0  0  0
   50.3379   33.5776   41.3082 H   0  0  0  0  0  0  0  0  0  0  0  0
   48.9137   32.7230   42.0444 H   0  0  0  0  0  0  0  0  0  0  0  0
  1  6  2  0
  2  1  1  0
  3  2  2  0
  3  4  1  0
  4  5  2  0
  5  6  1  0
  7  3  1  0
  8  7  1  0
  9  8  1  0
 10  9  1  0
 10 11  1  0
 11 12  1  0
 12  7  1  0
  1 13  1  0
  2 14  1  0
  5 15  1  0
  7 16  1  1
  8 17  1  0
  8 18  1  0
  9 19  1  0
  9 20  1  0
 10 21  1  0
 10 22  1  0
 11 23  1  0
 11 24  1  0
 12 25  1  1
 26 27  2  3
 27 28  1  0
 28 29  1  0
 26 30  1  0
 27 31  1  0
 28 32  1  0
 28 33  1  0
 12 26  1  0
M  ISO  8  13  14  14  14  15  14  16  13  17  13  18  13  19  13  20  13
M  ISO  6  21  13  22  13  23  13  24  13  25  13  29   8
M  END
>  <DihAtoms>  (1) 
10,11,25,26

>  <DihDeg>  (1) 
116.75723556531591

$$$$
