
     RDKit          3D

 33 35  0  0  0  0  0  0  0  0999 V2000
   46.0370   31.5160   45.1290 C   0  0  0  0  0  0  0  0  0  0  0  0
   45.8820   32.8500   45.4800 C   0  0  0  0  0  0  0  0  0  0  0  0
   45.6110   33.2100   46.7960 C   0  0  0  0  0  0  0  0  0  0  0  0
   45.5010   32.2000   47.7310 C   0  0  0  0  0  0  0  0  0  0  0  0
   45.2510   32.2180   49.0520 N   0  0  0  0  0  0  0  0  0  0  0  0
   45.2370   30.9750   49.5580 C   0  0  0  0  0  0  0  0  0  0  0  0
   45.4900   30.0880   48.5290 C   0  0  0  0  0  0  0  0  0  0  0  0
   45.6540   30.8500   47.3910 C   0  0  0  0  0  0  0  0  0  0  0  0
   45.9210   30.5300   46.0850 C   0  0  0  0  0  0  0  0  0  0  0  0
   47.3390   34.8400   42.7800 C   0  0  0  0  0  0  0  0  0  0  0  0
   46.3130   35.7180   42.4200 C   0  0  0  0  0  0  0  0  0  0  0  0
   45.1130   35.6170   43.1150 C   0  0  0  0  0  0  0  0  0  0  0  0
   44.9960   34.6860   44.0980 N   0  0  0  0  0  0  0  0  0  0  0  0
   46.0170   33.8530   44.4170 C   0  0  0  0  0  0  0  0  0  0  0  0
   47.1900   33.9270   43.7610 N   0  0  0  0  0  0  0  0  0  0  0  0
   48.5700   34.9750   42.0350 C   0  0  0  0  0  0  0  0  0  0  0  0
   49.7320   34.9260   42.5420 O   0  0  0  0  0  0  0  0  0  0  0  0
   48.5300   35.1850   40.5890 C   0  0  0  0  0  0  0  0  0  0  0  0
   48.2050   34.1880   39.7910 C   0  0  0  0  0  0  0  0  0  0  0  0
   48.1390   34.3050   38.3150 C   0  0  0  0  0  0  0  0  0  0  0  0
   46.2530   31.2451   44.0850 H   0  0  0  0  0  0  0  0  0  0  0  0
   45.4883   34.2649   47.0825 H   0  0  0  0  0  0  0  0  0  0  0  0
   45.0912   33.0733   49.6032 H   0  0  0  0  0  0  0  0  0  0  0  0
   45.0556   30.7085   50.6097 H   0  0  0  0  0  0  0  0  0  0  0  0
   45.5489   28.9921   48.6028 H   0  0  0  0  0  0  0  0  0  0  0  0
   46.0439   29.4755   45.7971 H   0  0  0  0  0  0  0  0  0  0  0  0
   46.4494   36.4593   41.6188 H   0  0  0  0  0  0  0  0  0  0  0  0
   44.2704   36.2812   42.8726 H   0  0  0  0  0  0  0  0  0  0  0  0
   48.7705   36.1725   40.1682 H   0  0  0  0  0  0  0  0  0  0  0  0
   47.9695   33.2145   40.2458 H   0  0  0  0  0  0  0  0  0  0  0  0
   47.6152   35.2335   38.0438 H   0  0  0  0  0  0  0  0  0  0  0  0
   49.1587   34.3254   37.9028 H   0  0  0  0  0  0  0  0  0  0  0  0
   47.5941   33.4429   37.9028 H   0  0  0  0  0  0  0  0  0  0  0  0
  1  2  2  0
  1  9  1  0
  2  3  1  0
  3  4  2  0
  4  5  1  0
  5  6  1  0
  7  6  2  0
  8  4  1  0
  8  7  1  0
  9  8  2  0
 10 15  2  0
 11 10  1  0
 11 12  2  0
 12 13  1  0
 13 14  2  0
 14  2  1  0
 15 14  1  0
 16 17  2  0
 16 10  1  0
 18 16  1  0
 19 18  2  0
 20 19  1  0
  1 21  1  0
  3 22  1  0
  5 23  1  0
  6 24  1  0
  7 25  1  0
  9 26  1  0
 11 27  1  0
 12 28  1  0
 18 29  1  0
 19 30  1  0
 20 31  1  0
 20 32  1  0
 20 33  1  0
M  ISO  8  21  14  22  14  23   9  24  14  25  14  26  14  27  14  28  14
M  ISO  3  31   8  32   8  33   8
M  END
>  <minimizedAffinity>  (1) 
-6.00591803

>  <minimizedRMSD>  (1) 
1.04300821

$$$$
