
     RDKit          3D

 37 39  0  0  0  0  0  0  0  0999 V2000
   46.8772   34.9142   42.1486 C   0  0  2  0  0  0  0  0  0  0  0  0
   46.3769   33.9019   41.1616 C   0  0  0  0  0  0  0  0  0  0  0  0
   47.5880   33.9083   40.2046 C   0  0  0  0  0  0  0  0  0  0  0  0
   48.7896   34.0998   41.0982 C   0  0  1  0  0  0  0  0  0  0  0  0
   48.2376   34.2731   42.4780 C   0  0  0  0  0  0  0  0  0  0  0  0
   44.4350   36.0859   44.7770 C   0  0  0  0  0  0  0  0  0  0  0  0
   45.1594   36.0831   43.5640 C   0  0  0  0  0  0  0  0  0  0  0  0
   46.0544   35.0077   43.3772 C   0  0  0  0  0  0  0  0  0  0  0  0
   46.1878   34.0287   44.3511 N   0  0  0  0  0  0  0  0  0  0  0  0
   45.4553   34.1042   45.4891 C   0  0  0  0  0  0  0  0  0  0  0  0
   44.5930   35.1160   45.6988 N   0  0  0  0  0  0  0  0  0  0  0  0
   49.7051   32.9279   41.1676 C   0  0  2  0  0  0  0  0  0  0  0  0
   49.5902   32.0135   42.3117 C   0  0  0  0  0  0  0  0  0  0  0  0
   50.8735   32.7925   41.9715 C   0  0  2  0  0  0  0  0  0  0  0  0
   46.9539   35.8707   41.6391 H   0  0  0  0  0  0  0  0  0  0  0  0
   45.4571   34.2320   40.6454 H   0  0  0  0  0  0  0  0  0  0  0  0
   46.2886   32.9367   41.6883 H   0  0  0  0  0  0  0  0  0  0  0  0
   47.5805   32.9201   39.7151 H   0  0  0  0  0  0  0  0  0  0  0  0
   47.4462   34.7293   39.4908 H   0  0  0  0  0  0  0  0  0  0  0  0
   49.2876   35.0159   40.7923 H   0  0  0  0  0  0  0  0  0  0  0  0
   47.8423   33.3708   42.9576 H   0  0  0  0  0  0  0  0  0  0  0  0
   48.8289   34.9491   43.1148 H   0  0  0  0  0  0  0  0  0  0  0  0
   43.7672   36.9468   44.8445 H   0  0  0  0  0  0  0  0  0  0  0  0
   45.0748   36.8226   42.8011 H   0  0  0  0  0  0  0  0  0  0  0  0
   45.5501   33.3493   46.2542 H   0  0  0  0  0  0  0  0  0  0  0  0
   49.7114   32.4122   40.1547 H   0  0  0  0  0  0  0  0  0  0  0  0
   49.3783   32.1377   43.3424 H   0  0  0  0  0  0  0  0  0  0  0  0
   49.6865   30.9083   42.0778 H   0  0  0  0  0  0  0  0  0  0  0  0
   51.7063   32.1186   41.5434 H   0  0  0  0  0  0  0  0  0  0  0  0
   51.4575   33.7397   42.9305 C   0  0  0  0  0  0  0  0  0  0  0  0
   51.6212   35.0429   43.2582 C   0  0  0  0  0  0  0  0  0  0  0  0
   51.2508   36.3732   42.7596 C   0  0  0  0  0  0  0  0  0  0  0  0
   50.5955   36.8752   43.4908 H   0  0  0  0  0  0  0  0  0  0  0  0
   51.9879   33.1256   43.6745 H   0  0  0  0  0  0  0  0  0  0  0  0
   52.1977   35.2953   44.1641 H   0  0  0  0  0  0  0  0  0  0  0  0
   50.6704   36.3511   41.7984 H   0  0  0  0  0  0  0  0  0  0  0  0
   52.1246   37.0442   42.5872 H   0  0  0  0  0  0  0  0  0  0  0  0
  1  5  1  0
  1  8  1  0
  2  1  1  0
  3  4  1  0
  3  2  1  0
  4 12  1  0
  4  5  1  0
  6 11  2  0
  7  6  1  0
  8  7  2  0
  8  9  1  0
  9 10  2  0
 10 11  1  0
 12 14  1  0
 12 13  1  0
 14 13  1  0
  1 15  1  6
  2 16  1  0
  2 17  1  0
  3 18  1  0
  3 19  1  0
  4 20  1  6
  5 21  1  0
  5 22  1  0
  6 23  1  0
  7 24  1  0
 10 25  1  0
 12 26  1  6
 13 27  1  0
 13 28  1  0
 14 29  1  6
 30 31  2  3
 31 32  1  0
 32 33  1  0
 30 34  1  0
 31 35  1  0
 32 36  1  0
 32 37  1  0
 14 30  1  0
M  ISO  8  15  13  16  13  17  13  18  13  19  13  20  13  21  13  22  13
M  ISO  8  23  14  24  14  25  14  26  13  27  13  28  13  29  13  33   8
M  END
>  <DihAtoms>  (1) 
11,13,29,30

>  <DihDeg>  (1) 
75.584416015397

$$$$
