
     RDKit          3D

 20 20  0  0  0  0  0  0  0  0999 V2000
   44.5599   36.0065   44.5013 C   0  0  0  0  0  0  0  0  0  0  0  0
   45.3092   35.9182   43.2950 C   0  0  0  0  0  0  0  0  0  0  0  0
   46.1954   34.8581   43.1687 C   0  0  0  0  0  0  0  0  0  0  0  0
   46.3070   33.9629   44.1892 N   0  0  0  0  0  0  0  0  0  0  0  0
   45.5674   34.0850   45.3322 C   0  0  0  0  0  0  0  0  0  0  0  0
   44.7051   35.1073   45.4676 N   0  0  0  0  0  0  0  0  0  0  0  0
   46.9581   34.7770   41.9290 C   0  0  0  0  0  0  0  0  0  0  0  0
   43.8601   36.8306   44.6185 H   0  0  0  0  0  0  0  0  0  0  0  0
   45.1433   36.6809   42.5509 H   0  0  0  0  0  0  0  0  0  0  0  0
   45.7561   33.3054   46.0589 H   0  0  0  0  0  0  0  0  0  0  0  0
   47.9066   34.2778   42.1453 H   0  0  0  0  0  0  0  0  0  0  0  0
   47.1254   35.7864   41.5084 H   0  0  0  0  0  0  0  0  0  0  0  0
   46.2695   33.9789   40.8669 C   0  0  0  0  0  0  0  0  0  0  0  0
   45.4323   32.9546   41.0002 C   0  0  0  0  0  0  0  0  0  0  0  0
   44.7865   32.2105   39.8846 C   0  0  0  0  0  0  0  0  0  0  0  0
   43.7276   32.5140   39.7369 H   0  0  0  0  0  0  0  0  0  0  0  0
   46.4806   34.2747   39.8388 H   0  0  0  0  0  0  0  0  0  0  0  0
   45.1762   32.6050   42.0041 H   0  0  0  0  0  0  0  0  0  0  0  0
   45.2832   32.4208   38.9029 H   0  0  0  0  0  0  0  0  0  0  0  0
   44.8065   31.1265   40.0159 H   0  0  0  0  0  0  0  0  0  0  0  0
  1  6  2  0
  2  1  1  0
  3  2  2  0
  3  4  1  0
  4  5  2  0
  5  6  1  0
  7  3  1  0
  1  8  1  0
  2  9  1  0
  5 10  1  0
  7 11  1  0
  7 12  1  0
 13 14  2  3
 14 15  1  0
 15 16  1  0
 13 17  1  0
 14 18  1  0
 15 19  1  0
 15 20  1  0
  7 13  1  0
M  ISO  6   8  14   9  14  10  14  11   8  12   8  16   8
M  END
>  <DihAtoms>  (1) 
2,6,12,13

>  <DihDeg>  (1) 
-6.257151817803573e-06

$$$$
