
     RDKit          3D

 49 51  0  0  0  0  0  0  0  0999 V2000
   47.9103   33.8476   42.8600 C   0  0  0  0  0  0  0  0  0  0  0  0
   48.5657   35.0957   42.6443 C   0  0  0  0  0  0  0  0  0  0  0  0
   49.9282   35.1186   42.3214 C   0  0  0  0  0  0  0  0  0  0  0  0
   50.5539   33.9016   42.2335 N   0  0  0  0  0  0  0  0  0  0  0  0
   49.8806   32.7242   42.4503 C   0  0  0  0  0  0  0  0  0  0  0  0
   48.5937   32.7182   42.7541 N   0  0  0  0  0  0  0  0  0  0  0  0
   46.4900   33.9667   43.1943 C   0  0  0  0  0  0  0  0  0  0  0  0
   45.7620   34.9592   42.4432 C   0  0  0  0  0  0  0  0  0  0  0  0
   45.2926   36.1167   43.2366 C   0  0  0  0  0  0  0  0  0  0  0  0
   44.4409   35.6566   44.4219 C   0  0  0  0  0  0  0  0  0  0  0  0
   44.9998   34.4808   45.1376 C   0  0  0  0  0  0  0  0  0  0  0  0
   46.4459   34.2170   44.7406 C   0  0  0  0  0  0  0  0  0  0  0  0
   50.7181   31.5383   42.3160 C   0  0  0  0  0  0  0  0  0  0  0  0
   51.3424   31.3036   41.1515 N   0  0  0  0  0  0  0  0  0  0  0  0
   52.0576   30.1536   41.2587 C   0  0  0  0  0  0  0  0  0  0  0  0
   51.8613   29.6889   42.5077 N   0  0  0  0  0  0  0  0  0  0  0  0
   51.0484   30.5226   43.1592 N   0  0  0  0  0  0  0  0  0  0  0  0
   52.4303   28.5033   43.1054 C   0  0  0  0  0  0  0  0  0  0  0  0
   53.7117   28.8300   43.7246 C   0  0  0  0  0  0  0  0  0  0  0  0
   54.0915   29.5763   44.7355 C   0  0  0  0  0  0  0  0  0  0  0  0
   55.4960   29.7585   45.3277 C   0  0  0  0  0  0  0  0  0  0  0  0
   48.1275   36.0832   42.6995 H   0  0  0  0  0  0  0  0  0  0  0  0
   50.4643   36.0209   42.1504 H   0  0  0  0  0  0  0  0  0  0  0  0
   46.0339   32.9386   43.0791 H   0  0  0  0  0  0  0  0  0  0  0  0
   46.3978   35.3718   41.6097 H   0  0  0  0  0  0  0  0  0  0  0  0
   44.8688   34.5341   41.9300 H   0  0  0  0  0  0  0  0  0  0  0  0
   46.0375   36.7935   43.6411 H   0  0  0  0  0  0  0  0  0  0  0  0
   44.6068   36.7495   42.6102 H   0  0  0  0  0  0  0  0  0  0  0  0
   43.4123   35.4674   44.0340 H   0  0  0  0  0  0  0  0  0  0  0  0
   44.3299   36.4844   45.1599 H   0  0  0  0  0  0  0  0  0  0  0  0
   44.4491   33.5346   44.9274 H   0  0  0  0  0  0  0  0  0  0  0  0
   45.0062   34.6169   46.2272 H   0  0  0  0  0  0  0  0  0  0  0  0
   46.7504   33.2583   45.1914 H   0  0  0  0  0  0  0  0  0  0  0  0
   47.1064   35.0682   44.9897 H   0  0  0  0  0  0  0  0  0  0  0  0
   52.6760   29.6921   40.4784 H   0  0  0  0  0  0  0  0  0  0  0  0
   52.5056   27.6591   42.4426 H   0  0  0  0  0  0  0  0  0  0  0  0
   51.7468   28.1718   43.9389 H   0  0  0  0  0  0  0  0  0  0  0  0
   54.5811   28.3684   43.2664 H   0  0  0  0  0  0  0  0  0  0  0  0
   53.3263   30.1102   45.2848 H   0  0  0  0  0  0  0  0  0  0  0  0
   55.6897   30.8401   45.1742 H   0  0  0  0  0  0  0  0  0  0  0  0
   55.4103   29.4829   46.4054 H   0  0  0  0  0  0  0  0  0  0  0  0
   56.4096   28.9188   44.5514 C   0  0  0  0  0  0  0  0  0  0  0  0
   57.2056   28.0572   43.9444 C   0  0  0  0  0  0  0  0  0  0  0  0
   58.1116   28.0402   42.7393 C   0  0  0  0  0  0  0  0  0  0  0  0
   58.0904   29.0949   42.3218 H   0  0  0  0  0  0  0  0  0  0  0  0
   56.6484   29.7131   43.8097 H   0  0  0  0  0  0  0  0  0  0  0  0
   57.3636   27.0197   44.2878 H   0  0  0  0  0  0  0  0  0  0  0  0
   59.1495   27.8695   43.0101 H   0  0  0  0  0  0  0  0  0  0  0  0
   57.7664   27.3164   41.9835 H   0  0  0  0  0  0  0  0  0  0  0  0
  1  7  1  0
  2  1  2  0
  3  2  1  0
  4  3  2  0
  4  5  1  0
  5  6  2  0
  6  1  1  0
  7 12  1  0
  8  7  1  0
  8  9  1  0
  9 10  1  0
 10 11  1  0
 12 11  1  0
 13  5  1  0
 13 17  2  0
 14 15  2  0
 14 13  1  0
 15 16  1  0
 16 18  1  0
 16 17  1  0
 18 19  1  0
 19 20  2  0
 20 21  1  0
  2 22  1  0
  3 23  1  0
  7 24  1  0
  8 25  1  0
  8 26  1  0
  9 27  1  0
  9 28  1  0
 10 29  1  0
 10 30  1  0
 11 31  1  0
 11 32  1  0
 12 33  1  0
 12 34  1  0
 15 35  1  0
 18 36  1  0
 18 37  1  0
 19 38  1  0
 20 39  1  0
 21 40  1  0
 21 41  1  0
 42 43  2  3
 43 44  1  0
 44 45  1  0
 42 46  1  0
 43 47  1  0
 44 48  1  0
 44 49  1  0
 21 42  1  0
M  ISO  8  22  14  23  14  24  13  25  13  26  13  27  13  28  13  29  13
M  ISO  8  30  13  31  13  32  13  33  13  34  13  35  14  36   8  37   8
M  ISO  3  40   8  41   8  45   8
M  END
>  <DihAtoms>  (1) 
19,20,41,42

>  <DihDeg>  (1) 
-0.04615792051180201

$$$$
