
     RDKit          3D

 20 20  0  0  0  0  0  0  0  0999 V2000
   44.5599   36.0065   44.5013 C   0  0  0  0  0  0  0  0  0  0  0  0
   45.3092   35.9182   43.2950 C   0  0  0  0  0  0  0  0  0  0  0  0
   46.1954   34.8581   43.1687 C   0  0  0  0  0  0  0  0  0  0  0  0
   46.3070   33.9629   44.1892 N   0  0  0  0  0  0  0  0  0  0  0  0
   45.5674   34.0850   45.3322 C   0  0  0  0  0  0  0  0  0  0  0  0
   44.7051   35.1073   45.4676 N   0  0  0  0  0  0  0  0  0  0  0  0
   46.9581   34.7770   41.9290 C   0  0  0  0  0  0  0  0  0  0  0  0
   43.8601   36.8306   44.6185 H   0  0  0  0  0  0  0  0  0  0  0  0
   45.1433   36.6809   42.5509 H   0  0  0  0  0  0  0  0  0  0  0  0
   45.7561   33.3054   46.0589 H   0  0  0  0  0  0  0  0  0  0  0  0
   47.9066   34.2778   42.1453 H   0  0  0  0  0  0  0  0  0  0  0  0
   47.1254   35.7864   41.5084 H   0  0  0  0  0  0  0  0  0  0  0  0
   46.2695   33.9789   40.8669 C   0  0  0  0  0  0  0  0  0  0  0  0
   46.1290   32.6603   40.7697 C   0  0  0  0  0  0  0  0  0  0  0  0
   45.4248   31.9410   39.6733 C   0  0  0  0  0  0  0  0  0  0  0  0
   44.4101   31.6050   39.9776 H   0  0  0  0  0  0  0  0  0  0  0  0
   45.8186   34.5543   40.0578 H   0  0  0  0  0  0  0  0  0  0  0  0
   46.5571   32.0217   41.5472 H   0  0  0  0  0  0  0  0  0  0  0  0
   45.2523   32.6028   38.7862 H   0  0  0  0  0  0  0  0  0  0  0  0
   45.9685   31.0674   39.3070 H   0  0  0  0  0  0  0  0  0  0  0  0
  1  6  2  0
  2  1  1  0
  3  2  2  0
  3  4  1  0
  4  5  2  0
  5  6  1  0
  7  3  1  0
  1  8  1  0
  2  9  1  0
  5 10  1  0
  7 11  1  0
  7 12  1  0
 13 14  2  3
 14 15  1  0
 15 16  1  0
 13 17  1  0
 14 18  1  0
 15 19  1  0
 15 20  1  0
  7 13  1  0
M  ISO  6   8  14   9  14  10  14  11   8  12   8  16   8
M  END
>  <DihAtoms>  (1) 
2,6,12,13

>  <DihDeg>  (1) 
-6.257151817803573e-06

$$$$
