
     RDKit          3D

 20 20  0  0  0  0  0  0  0  0999 V2000
   44.5599   36.0065   44.5013 C   0  0  0  0  0  0  0  0  0  0  0  0
   45.3092   35.9182   43.2950 C   0  0  0  0  0  0  0  0  0  0  0  0
   46.1954   34.8581   43.1687 C   0  0  0  0  0  0  0  0  0  0  0  0
   46.3070   33.9629   44.1892 N   0  0  0  0  0  0  0  0  0  0  0  0
   45.5674   34.0850   45.3322 C   0  0  0  0  0  0  0  0  0  0  0  0
   44.7051   35.1073   45.4676 N   0  0  0  0  0  0  0  0  0  0  0  0
   46.9581   34.7770   41.9290 C   0  0  0  0  0  0  0  0  0  0  0  0
   43.8601   36.8306   44.6185 H   0  0  0  0  0  0  0  0  0  0  0  0
   45.1433   36.6809   42.5509 H   0  0  0  0  0  0  0  0  0  0  0  0
   45.7561   33.3054   46.0589 H   0  0  0  0  0  0  0  0  0  0  0  0
   47.9066   34.2778   42.1453 H   0  0  0  0  0  0  0  0  0  0  0  0
   47.1254   35.7864   41.5084 H   0  0  0  0  0  0  0  0  0  0  0  0
   46.2695   33.9789   40.8669 C   0  0  0  0  0  0  0  0  0  0  0  0
   44.9964   34.0162   40.4851 C   0  0  0  0  0  0  0  0  0  0  0  0
   44.3871   33.1831   39.4127 C   0  0  0  0  0  0  0  0  0  0  0  0
   44.2505   33.7519   38.4678 H   0  0  0  0  0  0  0  0  0  0  0  0
   46.8946   33.2661   40.3283 H   0  0  0  0  0  0  0  0  0  0  0  0
   44.3126   34.7089   40.9832 H   0  0  0  0  0  0  0  0  0  0  0  0
   45.0442   32.3199   39.1337 H   0  0  0  0  0  0  0  0  0  0  0  0
   43.4192   32.7591   39.6886 H   0  0  0  0  0  0  0  0  0  0  0  0
  1  6  2  0
  2  1  1  0
  3  2  2  0
  3  4  1  0
  4  5  2  0
  5  6  1  0
  7  3  1  0
  1  8  1  0
  2  9  1  0
  5 10  1  0
  7 11  1  0
  7 12  1  0
 13 14  2  3
 14 15  1  0
 15 16  1  0
 13 17  1  0
 14 18  1  0
 15 19  1  0
 15 20  1  0
  7 13  1  0
M  ISO  6   8  14   9  14  10  14  11   8  12   8  16   8
M  END
>  <DihAtoms>  (1) 
2,6,12,13

>  <DihDeg>  (1) 
-6.257151817803573e-06

$$$$
