
     RDKit          3D

 51 53  0  0  0  0  0  0  0  0999 V2000
   47.9100   33.7960   42.8550 C   0  0  0  0  0  0  0  0  0  0  0  0
   48.5980   35.0310   42.6600 C   0  0  0  0  0  0  0  0  0  0  0  0
   49.9640   35.0260   42.3560 C   0  0  0  0  0  0  0  0  0  0  0  0
   50.5630   33.7960   42.2650 N   0  0  0  0  0  0  0  0  0  0  0  0
   49.8610   32.6320   42.4610 C   0  0  0  0  0  0  0  0  0  0  0  0
   48.5700   32.6520   42.7480 N   0  0  0  0  0  0  0  0  0  0  0  0
   46.4890   33.9440   43.1710 C   0  0  0  0  0  0  0  0  0  0  0  0
   45.7930   34.9550   42.4150 C   0  0  0  0  0  0  0  0  0  0  0  0
   45.3380   36.1190   43.2080 C   0  0  0  0  0  0  0  0  0  0  0  0
   44.4610   35.6730   44.3790 C   0  0  0  0  0  0  0  0  0  0  0  0
   44.9850   34.4820   45.0970 C   0  0  0  0  0  0  0  0  0  0  0  0
   46.4300   34.1890   44.7180 C   0  0  0  0  0  0  0  0  0  0  0  0
   50.6730   31.4280   42.3270 C   0  0  0  0  0  0  0  0  0  0  0  0
   51.4710   31.2910   41.2570 N   0  0  0  0  0  0  0  0  0  0  0  0
   52.1250   30.1030   41.3460 C   0  0  0  0  0  0  0  0  0  0  0  0
   51.7130   29.5160   42.4860 N   0  0  0  0  0  0  0  0  0  0  0  0
   50.8300   30.3130   43.0910 N   0  0  0  0  0  0  0  0  0  0  0  0
   52.1410   28.2470   43.0260 C   0  0  0  0  0  0  0  0  0  0  0  0
   53.4180   28.4110   43.7170 C   0  0  0  0  0  0  0  0  0  0  0  0
   53.9200   29.2990   44.5440 C   0  0  0  0  0  0  0  0  0  0  0  0
   55.2760   29.2910   45.2630 C   0  0  0  0  0  0  0  0  0  0  0  0
   56.2260   30.0110   44.4110 C   0  0  0  0  0  0  0  0  0  0  0  0
   57.0340   30.5790   43.5360 C   0  0  0  0  0  0  0  0  0  0  0  0
   58.0920   31.6540   43.5350 C   0  0  0  0  0  0  0  0  0  0  0  0
   48.0561   35.9842   42.7484 H   0  0  0  0  0  0  0  0  0  0  0  0
   50.5265   35.9581   42.1986 H   0  0  0  0  0  0  0  0  0  0  0  0
   45.9469   33.0340   42.8744 H   0  0  0  0  0  0  0  0  0  0  0  0
   46.4693   35.3202   41.6281 H   0  0  0  0  0  0  0  0  0  0  0  0
   44.8854   34.4760   42.0190 H   0  0  0  0  0  0  0  0  0  0  0  0
   46.2162   36.6537   43.5991 H   0  0  0  0  0  0  0  0  0  0  0  0
   44.7454   36.7779   42.5564 H   0  0  0  0  0  0  0  0  0  0  0  0
   44.3871   36.5053   45.0944 H   0  0  0  0  0  0  0  0  0  0  0  0
   43.4834   35.3920   43.9602 H   0  0  0  0  0  0  0  0  0  0  0  0
   44.9304   34.6657   46.1802 H   0  0  0  0  0  0  0  0  0  0  0  0
   44.3725   33.6132   44.8142 H   0  0  0  0  0  0  0  0  0  0  0  0
   46.7806   33.2928   45.2508 H   0  0  0  0  0  0  0  0  0  0  0  0
   47.0751   35.0362   44.9940 H   0  0  0  0  0  0  0  0  0  0  0  0
   52.8512   29.6986   40.6255 H   0  0  0  0  0  0  0  0  0  0  0  0
   51.3859   27.8784   43.7359 H   0  0  0  0  0  0  0  0  0  0  0  0
   52.2611   27.5240   42.2057 H   0  0  0  0  0  0  0  0  0  0  0  0
   54.1255   27.5995   43.4913 H   0  0  0  0  0  0  0  0  0  0  0  0
   53.2798   30.1694   44.7501 H   0  0  0  0  0  0  0  0  0  0  0  0
   55.1883   29.7940   46.2373 H   0  0  0  0  0  0  0  0  0  0  0  0
   55.6163   28.2601   45.4404 H   0  0  0  0  0  0  0  0  0  0  0  0
   55.8089   30.9842   44.7093 H   0  0  0  0  0  0  0  0  0  0  0  0
   56.9962   29.2578   44.6333 H   0  0  0  0  0  0  0  0  0  0  0  0
   57.5834   29.7146   43.1348 H   0  0  0  0  0  0  0  0  0  0  0  0
   56.2538   31.2465   43.1413 H   0  0  0  0  0  0  0  0  0  0  0  0
   58.3497   31.9158   44.5718 H   0  0  0  0  0  0  0  0  0  0  0  0
   58.9891   31.2851   43.0162 H   0  0  0  0  0  0  0  0  0  0  0  0
   57.7088   32.5451   43.0162 H   0  0  0  0  0  0  0  0  0  0  0  0
  1  7  1  0
  2  1  2  0
  3  2  1  0
  4  3  2  0
  4  5  1  0
  5  6  2  0
  6  1  1  0
  7 12  1  0
  8  7  1  0
  8  9  1  0
  9 10  1  0
 10 11  1  0
 12 11  1  0
 13  5  1  0
 13 17  2  0
 14 15  2  0
 14 13  1  0
 15 16  1  0
 16 18  1  0
 16 17  1  0
 18 19  1  0
 19 20  2  0
 20 21  1  0
 22 21  1  0
 23 22  1  0
 24 23  1  0
  2 25  1  0
  3 26  1  0
  7 27  1  0
  8 28  1  0
  8 29  1  0
  9 30  1  0
  9 31  1  0
 10 32  1  0
 10 33  1  0
 11 34  1  0
 11 35  1  0
 12 36  1  0
 12 37  1  0
 15 38  1  0
 18 39  1  0
 18 40  1  0
 19 41  1  0
 20 42  1  0
 21 43  1  0
 21 44  1  0
 22 45  1  0
 22 46  1  0
 23 47  1  0
 23 48  1  0
 24 49  1  0
 24 50  1  0
 24 51  1  0
M  ISO  8  25  14  26  14  27  13  28  13  29  13  30  13  31  13  32  13
M  ISO  8  33  13  34  13  35  13  36  13  37  13  38  14  39   8  40   8
M  ISO  8  43   8  44   8  45   8  46   8  47   8  48   8  49   8  50   8
M  ISO  1  51   8
M  END
>  <minimizedAffinity>  (1) 
-4.11905479

>  <minimizedRMSD>  (1) 
1.00675261

$$$$
