
     RDKit          3D

 39 41  0  0  0  0  0  0  0  0999 V2000
   46.2320   35.2284   42.7441 C   0  0  0  0  0  0  0  0  0  0  0  0
   46.8248   34.0437   43.1796 C   0  0  0  0  0  0  0  0  0  0  0  0
   46.4134   33.4722   44.3695 C   0  0  0  0  0  0  0  0  0  0  0  0
   45.4169   34.1068   45.0691 N   0  0  0  0  0  0  0  0  0  0  0  0
   44.8597   35.2424   44.6316 C   0  0  0  0  0  0  0  0  0  0  0  0
   45.2763   35.7904   43.4743 N   0  0  0  0  0  0  0  0  0  0  0  0
   46.9450   32.2708   44.9218 C   0  0  0  0  0  0  0  0  0  0  0  0
   47.6741   31.3178   44.2358 C   0  0  0  0  0  0  0  0  0  0  0  0
   48.1005   30.1344   44.7690 C   0  0  0  0  0  0  0  0  0  0  0  0
   47.7957   29.8310   46.0917 C   0  0  0  0  0  0  0  0  0  0  0  0
   47.0484   30.7981   46.8164 C   0  0  0  0  0  0  0  0  0  0  0  0
   46.7619   30.5097   48.1186 C   0  0  0  0  0  0  0  0  0  0  0  0
   46.0585   31.4136   48.8952 C   0  0  0  0  0  0  0  0  0  0  0  0
   45.6489   32.6235   48.3316 C   0  0  0  0  0  0  0  0  0  0  0  0
   45.9592   32.8880   46.9850 C   0  0  0  0  0  0  0  0  0  0  0  0
   46.6566   31.9611   46.2329 C   0  0  0  0  0  0  0  0  0  0  0  0
   47.7897   33.5046   42.3764 O   0  0  0  0  0  0  0  0  0  0  0  0
   50.2968   33.2772   41.6049 O   0  0  0  0  0  0  0  0  0  0  0  0
   49.2689   34.2708   42.0340 P   0  0  1  0  0  0  0  0  0  0  0  0
   49.0879   35.3847   40.7682 O   0  0  0  0  0  0  0  0  0  0  0  0
   49.7759   35.0979   43.4022 O   0  0  0  0  0  0  0  0  0  0  0  0
   46.5347   35.7039   41.8184 H   0  0  0  0  0  0  0  0  0  0  0  0
   44.0714   35.6746   45.2607 H   0  0  0  0  0  0  0  0  0  0  0  0
   47.9409   31.4592   43.2349 H   0  0  0  0  0  0  0  0  0  0  0  0
   48.6738   29.3971   44.2201 H   0  0  0  0  0  0  0  0  0  0  0  0
   48.1114   28.9070   46.5444 H   0  0  0  0  0  0  0  0  0  0  0  0
   47.0989   29.5525   48.5331 H   0  0  0  0  0  0  0  0  0  0  0  0
   45.8824   31.0786   49.9228 H   0  0  0  0  0  0  0  0  0  0  0  0
   45.1270   33.1935   49.0718 H   0  0  0  0  0  0  0  0  0  0  0  0
   45.5785   33.8457   46.8503 H   0  0  0  0  0  0  0  0  0  0  0  0
   48.4719   35.0602   40.0660 H   0  0  0  0  0  0  0  0  0  0  0  0
   50.4929   34.3841   44.3555 C   0  0  0  0  0  0  0  0  0  0  0  0
   50.8167   33.1206   44.1401 C   0  0  0  0  0  0  0  0  0  0  0  0
   50.4086   32.4657   42.8690 C   0  0  0  0  0  0  0  0  0  0  0  0
   49.7237   31.6074   43.0533 H   0  0  0  0  0  0  0  0  0  0  0  0
   50.7807   34.8781   45.2739 H   0  0  0  0  0  0  0  0  0  0  0  0
   51.3747   32.5794   44.8919 H   0  0  0  0  0  0  0  0  0  0  0  0
   51.3033   32.0379   42.3864 H   0  0  0  0  0  0  0  0  0  0  0  0
   49.9570   33.2023   42.1940 H   0  0  0  0  0  0  0  0  0  0  0  0
  1  2  2  0
  1  6  1  0
  2  3  1  0
  3  7  1  0
  3  4  2  0
  5  4  1  0
  6  5  2  0
  7 16  2  0
  8  9  2  0
  8  7  1  0
  9 10  1  0
 10 11  2  0
 11 12  1  0
 12 13  2  0
 14 13  1  0
 15 14  2  0
 16 11  1  0
 16 15  1  0
 17  2  1  0
 18 19  2  0
 19 17  1  1
 19 21  1  0
 20 19  1  0
  1 22  1  0
  5 23  1  0
  8 24  1  0
  9 25  1  0
 10 26  1  0
 12 27  1  0
 13 28  1  0
 14 29  1  0
 15 30  1  0
 20 31  1  0
 32 33  2  3
 33 34  1  0
 34 35  1  0
 32 36  1  0
 33 37  1  0
 34 38  1  0
 34 39  1  0
 21 32  1  0
M  ISO  8  22  14  23  14  24  14  25  14  26  14  27  14  28  14  29  14
M  ISO  3  30  14  31   3  35   8
M  END
>  <DihAtoms>  (1) 
18,20,31,32

>  <DihDeg>  (1) 
123.60795417293981

$$$$
