
     RDKit          3D

 21 21  0  0  0  0  0  0  0  0999 V2000
   46.2120   34.5860   43.3610 C   0  0  0  0  0  0  0  0  0  0  0  0
   46.1040   33.8420   44.5430 C   0  0  0  0  0  0  0  0  0  0  0  0
   45.2480   34.3250   45.5400 C   0  0  0  0  0  0  0  0  0  0  0  0
   44.5700   35.4760   45.3190 N   0  0  0  0  0  0  0  0  0  0  0  0
   44.7050   36.1600   44.1670 C   0  0  0  0  0  0  0  0  0  0  0  0
   45.5260   35.7250   43.1760 N   0  0  0  0  0  0  0  0  0  0  0  0
   46.8930   32.5940   44.6800 C   0  0  0  0  0  0  0  0  0  0  0  0
   46.3010   31.5740   43.9470 F   0  0  0  0  0  0  0  0  0  0  0  0
   48.1420   32.8130   44.1220 F   0  0  0  0  0  0  0  0  0  0  0  0
   47.0220   32.1560   45.9670 F   0  0  0  0  0  0  0  0  0  0  0  0
   47.0420   34.1150   42.3920 O   0  0  0  0  0  0  0  0  0  0  0  0
   47.5500   35.0570   41.4920 C   0  0  0  0  0  0  0  0  0  0  0  0
   48.7620   35.5450   41.4470 C   0  0  0  0  0  0  0  0  0  0  0  0
   49.7370   35.0740   42.4440 C   0  0  0  0  0  0  0  0  0  0  0  0
   45.1282   33.7785   46.4871 H   0  0  0  0  0  0  0  0  0  0  0  0
   44.1378   37.0918   44.0252 H   0  0  0  0  0  0  0  0  0  0  0  0
   46.8474   35.4313   40.7329 H   0  0  0  0  0  0  0  0  0  0  0  0
   49.0451   36.2866   40.6856 H   0  0  0  0  0  0  0  0  0  0  0  0
   49.3473   35.2622   43.4553 H   0  0  0  0  0  0  0  0  0  0  0  0
   49.9055   33.9952   42.3109 H   0  0  0  0  0  0  0  0  0  0  0  0
   50.6868   35.6126   42.3109 H   0  0  0  0  0  0  0  0  0  0  0  0
  1  2  2  0
  2  7  1  0
  2  3  1  0
  4  3  2  0
  5  4  1  0
  6  1  1  0
  6  5  2  0
  7 10  1  0
  8  7  1  0
  9  7  1  0
 11  1  1  0
 12 11  1  0
 13 12  2  0
 13 14  1  0
  3 15  1  0
  5 16  1  0
 12 17  1  0
 13 18  1  0
 14 19  1  0
 14 20  1  0
 14 21  1  0
M  ISO  5  15  14  16  14  19   8  20   8  21   8
M  END
>  <minimizedAffinity>  (1) 
-4.50331354

>  <minimizedRMSD>  (1) 
4.66571569

$$$$
