
     RDKit          3D

 21 21  0  0  0  0  0  0  0  0999 V2000
   45.0463   34.6927   44.9978 C   0  0  0  0  0  0  0  0  0  0  0  0
   45.8440   34.5536   43.8545 C   0  0  0  0  0  0  0  0  0  0  0  0
   46.9017   33.6391   43.9083 C   0  0  0  0  0  0  0  0  0  0  0  0
   47.1049   32.9382   45.0482 N   0  0  0  0  0  0  0  0  0  0  0  0
   46.3134   33.1042   46.1241 C   0  0  0  0  0  0  0  0  0  0  0  0
   45.2758   33.9822   46.1130 N   0  0  0  0  0  0  0  0  0  0  0  0
   45.5334   35.3731   42.6587 C   0  0  0  0  0  0  0  0  0  0  0  0
   44.2415   35.1063   42.2210 F   0  0  0  0  0  0  0  0  0  0  0  0
   45.5577   36.7069   43.0342 F   0  0  0  0  0  0  0  0  0  0  0  0
   46.3772   35.1640   41.6068 F   0  0  0  0  0  0  0  0  0  0  0  0
   44.0161   35.5798   44.9454 O   0  0  0  0  0  0  0  0  0  0  0  0
   47.5194   33.5284   43.0292 H   0  0  0  0  0  0  0  0  0  0  0  0
   46.5652   32.5023   46.9637 H   0  0  0  0  0  0  0  0  0  0  0  0
   43.2336   35.6991   46.0989 C   0  0  0  0  0  0  0  0  0  0  0  0
   43.5494   35.3433   47.3169 C   0  0  0  0  0  0  0  0  0  0  0  0
   44.8744   34.7429   47.5429 C   0  0  0  0  0  0  0  0  0  0  0  0
   44.8244   33.6560   47.3009 H   0  0  0  0  0  0  0  0  0  0  0  0
   42.3086   36.1506   45.7637 H   0  0  0  0  0  0  0  0  0  0  0  0
   42.7786   35.5362   48.0412 H   0  0  0  0  0  0  0  0  0  0  0  0
   45.6870   35.2361   46.9793 H   0  0  0  0  0  0  0  0  0  0  0  0
   45.1569   34.8401   48.6254 H   0  0  0  0  0  0  0  0  0  0  0  0
  1  6  2  0
  2  3  2  0
  2  1  1  0
  3  4  1  0
  4  5  2  0
  6  5  1  0
  7  9  1  0
  7  2  1  0
  8  7  1  0
 10  7  1  0
 11  1  1  0
  3 12  1  0
  5 13  1  0
 14 15  2  3
 15 16  1  0
 16 17  1  0
 14 18  1  0
 15 19  1  0
 16 20  1  0
 16 21  1  0
 11 14  1  0
M  ISO  3  12  14  13  14  17   8
M  END
>  <DihAtoms>  (1) 
0,10,13,14

>  <DihDeg>  (1) 
109.3151148130878

$$$$
