
     RDKit          3D

 27 28  0  0  0  0  0  0  0  0999 V2000
   45.6375   32.1999   48.4592 C   0  0  0  0  0  0  0  0  0  0  0  0
   45.3402   33.1580   47.4889 C   0  0  0  0  0  0  0  0  0  0  0  0
   46.0282   33.0337   46.2765 C   0  0  0  0  0  0  0  0  0  0  0  0
   46.9160   32.0282   46.1082 N   0  0  0  0  0  0  0  0  0  0  0  0
   47.1660   31.1301   47.0765 C   0  0  0  0  0  0  0  0  0  0  0  0
   46.5275   31.2186   48.2461 N   0  0  0  0  0  0  0  0  0  0  0  0
   45.7558   34.0109   45.2238 C   0  0  0  0  0  0  0  0  0  0  0  0
   46.4362   33.9285   44.0154 C   0  0  0  0  0  0  0  0  0  0  0  0
   46.1395   34.8749   43.0607 C   0  0  0  0  0  0  0  0  0  0  0  0
   45.1961   35.8413   43.3495 C   0  0  0  0  0  0  0  0  0  0  0  0
   44.5307   35.8945   44.5760 C   0  0  0  0  0  0  0  0  0  0  0  0
   44.8453   34.9491   45.4937 N   0  0  0  0  0  0  0  0  0  0  0  0
   44.4450   34.1874   47.6334 O   0  0  0  0  0  0  0  0  0  0  0  0
   45.0736   32.3479   49.3766 H   0  0  0  0  0  0  0  0  0  0  0  0
   47.8890   30.3500   46.8754 H   0  0  0  0  0  0  0  0  0  0  0  0
   47.1821   33.1523   43.8066 H   0  0  0  0  0  0  0  0  0  0  0  0
   46.6363   34.8627   42.1000 H   0  0  0  0  0  0  0  0  0  0  0  0
   44.9645   36.5879   42.5916 H   0  0  0  0  0  0  0  0  0  0  0  0
   43.7975   36.6683   44.7635 H   0  0  0  0  0  0  0  0  0  0  0  0
   43.7199   34.4032   48.7711 C   0  0  0  0  0  0  0  0  0  0  0  0
   43.4539   35.4844   49.4710 C   0  0  0  0  0  0  0  0  0  0  0  0
   42.6278   35.4648   50.6925 C   0  0  0  0  0  0  0  0  0  0  0  0
   43.0205   36.2801   51.3637 H   0  0  0  0  0  0  0  0  0  0  0  0
   43.3047   33.4587   49.1213 H   0  0  0  0  0  0  0  0  0  0  0  0
   43.8685   36.4304   49.1223 H   0  0  0  0  0  0  0  0  0  0  0  0
   42.7544   34.5067   51.2343 H   0  0  0  0  0  0  0  0  0  0  0  0
   41.5531   35.6070   50.4643 H   0  0  0  0  0  0  0  0  0  0  0  0
  2 13  1  0
  2  1  2  0
  3  2  1  0
  4  3  2  0
  4  5  1  0
  5  6  2  0
  6  1  1  0
  7 12  1  0
  7  3  1  0
  8  7  2  0
  9 10  2  0
  9  8  1  0
 10 11  1  0
 11 12  2  0
  1 14  1  0
  5 15  1  0
  8 16  1  0
  9 17  1  0
 10 18  1  0
 11 19  1  0
 20 21  2  3
 21 22  1  0
 22 23  1  0
 20 24  1  0
 21 25  1  0
 22 26  1  0
 22 27  1  0
 13 20  1  0
M  ISO  7  14  14  15  14  16  14  17  14  18  14  19  14  23   8
M  END
>  <DihAtoms>  (1) 
1,12,19,20

>  <DihDeg>  (1) 
-120.38769631902464

$$$$
