
     RDKit          3D

 29 31  0  0  0  0  0  0  0  0999 V2000
   46.4340   34.0800   41.1050 C   0  0  0  0  0  0  0  0  0  0  0  0
   46.9060   34.8460   42.1330 C   0  0  0  0  0  0  0  0  0  0  0  0
   48.0770   35.5020   41.9340 C   0  0  0  0  0  0  0  0  0  0  0  0
   48.7750   35.4040   40.7340 C   0  0  0  0  0  0  0  0  0  0  0  0
   48.3000   34.6430   39.7200 C   0  0  0  0  0  0  0  0  0  0  0  0
   47.0950   33.9450   39.8750 C   0  0  0  0  0  0  0  0  0  0  0  0
   44.4890   35.9470   44.8080 C   0  0  0  0  0  0  0  0  0  0  0  0
   45.2260   35.9190   43.6170 C   0  0  0  0  0  0  0  0  0  0  0  0
   46.1300   34.9040   43.3530 C   0  0  0  0  0  0  0  0  0  0  0  0
   46.2440   33.9590   44.3200 N   0  0  0  0  0  0  0  0  0  0  0  0
   45.5330   33.9910   45.4640 C   0  0  0  0  0  0  0  0  0  0  0  0
   44.6590   34.9770   45.7110 N   0  0  0  0  0  0  0  0  0  0  0  0
   45.2350   33.3820   41.2510 O   0  0  0  0  0  0  0  0  0  0  0  0
   46.5410   33.1480   38.8930 O   0  0  0  0  0  0  0  0  0  0  0  0
   47.1880   32.7950   37.7160 C   0  0  0  0  0  0  0  0  0  0  0  0
   47.6970   31.5000   37.6600 C   0  0  0  0  0  0  0  0  0  0  0  0
   48.2900   31.3910   36.3970 C   0  0  0  0  0  0  0  0  0  0  0  0
   48.1030   32.6190   35.7740 C   0  0  0  0  0  0  0  0  0  0  0  0
   47.4520   33.4060   36.5920 O   0  0  0  0  0  0  0  0  0  0  0  0
   48.4850   36.1273   42.7418 H   0  0  0  0  0  0  0  0  0  0  0  0
   49.7216   35.9500   40.6082 H   0  0  0  0  0  0  0  0  0  0  0  0
   48.8594   34.5727   38.7755 H   0  0  0  0  0  0  0  0  0  0  0  0
   43.7752   36.7620   44.9985 H   0  0  0  0  0  0  0  0  0  0  0  0
   45.0836   36.7198   42.8764 H   0  0  0  0  0  0  0  0  0  0  0  0
   45.6722   33.1936   46.2088 H   0  0  0  0  0  0  0  0  0  0  0  0
   44.8918   32.8265   40.5068 H   0  0  0  0  0  0  0  0  0  0  0  0
   47.6442   30.7277   38.4415 H   0  0  0  0  0  0  0  0  0  0  0  0
   48.8013   30.5103   35.9811 H   0  0  0  0  0  0  0  0  0  0  0  0
   48.4449   32.8849   34.7628 H   0  0  0  0  0  0  0  0  0  0  0  0
  1 13  1  0
  1  2  2  0
  2  9  1  0
  3  2  1  0
  4  3  2  0
  5  6  2  0
  5  4  1  0
  6  1  1  0
  7 12  2  0
  8  7  1  0
  9  8  2  0
  9 10  1  0
 10 11  2  0
 11 12  1  0
 14  6  1  0
 15 14  1  0
 16 15  2  0
 17 16  1  0
 18 17  2  0
 18 19  1  0
 19 15  1  0
  3 20  1  0
  4 21  1  0
  5 22  1  0
  7 23  1  0
  8 24  1  0
 11 25  1  0
 13 26  1  0
 16 27  1  0
 17 28  1  0
 18 29  1  0
M  ISO  8  20  14  21  14  22  14  23  14  24  14  25  14  26   3  27  14
M  ISO  2  28  14  29  14
M  END
>  <minimizedAffinity>  (1) 
-5.37810421

>  <minimizedRMSD>  (1) 
1.98406434

$$$$
