
     RDKit          3D

 28 29  0  0  0  0  0  0  0  0999 V2000
   44.3097   35.7487   44.1369 C   0  0  0  0  0  0  0  0  0  0  0  0
   44.5487   34.8774   43.0620 C   0  0  0  0  0  0  0  0  0  0  0  0
   45.1588   33.6873   43.3541 C   0  0  0  0  0  0  0  0  0  0  0  0
   45.4758   33.4505   44.6227 N   0  0  0  0  0  0  0  0  0  0  0  0
   45.2498   34.2749   45.6393 C   0  0  0  0  0  0  0  0  0  0  0  0
   44.6360   35.5013   45.4338 N   0  0  0  0  0  0  0  0  0  0  0  0
   44.0941   35.4422   41.7774 C   0  0  0  0  0  0  0  0  0  0  0  0
   42.7376   35.6572   41.6840 O   0  0  0  0  0  0  0  0  0  0  0  0
   41.8323   34.9865   40.8799 C   0  0  0  0  0  0  0  0  0  0  0  0
   40.6032   35.5472   40.7721 C   0  0  0  0  0  0  0  0  0  0  0  0
   39.4740   35.0258   39.9047 C   0  0  0  0  0  0  0  0  0  0  0  0
   43.8300   36.7359   44.0597 H   0  0  0  0  0  0  0  0  0  0  0  0
   45.3075   33.0731   42.4771 H   0  0  0  0  0  0  0  0  0  0  0  0
   45.5783   33.9014   46.5787 H   0  0  0  0  0  0  0  0  0  0  0  0
   44.6235   36.4559   41.7307 H   0  0  0  0  0  0  0  0  0  0  0  0
   44.4460   34.7925   40.9629 H   0  0  0  0  0  0  0  0  0  0  0  0
   41.9348   34.0654   40.3043 H   0  0  0  0  0  0  0  0  0  0  0  0
   40.2424   36.4695   41.2514 H   0  0  0  0  0  0  0  0  0  0  0  0
   39.1745   35.8140   39.1934 H   0  0  0  0  0  0  0  0  0  0  0  0
   38.6390   34.8211   40.5732 H   0  0  0  0  0  0  0  0  0  0  0  0
   39.9795   33.8069   39.2150 C   0  0  0  0  0  0  0  0  0  0  0  0
   41.2194   33.2163   39.3041 C   0  0  0  0  0  0  0  0  0  0  0  0
   42.0448   33.5638   39.9131 H   0  0  0  0  0  0  0  0  0  0  0  0
   41.1553   32.1123   38.4574 C   0  0  0  0  0  0  0  0  0  0  0  0
   41.9769   31.4084   38.2844 H   0  0  0  0  0  0  0  0  0  0  0  0
   39.8763   32.0988   37.9034 C   0  0  0  0  0  0  0  0  0  0  0  0
   39.5183   31.3565   37.2002 H   0  0  0  0  0  0  0  0  0  0  0  0
   39.1989   33.1305   38.3809 O   0  0  0  0  0  0  0  0  0  0  0  0
  1  6  2  0
  2  3  2  0
  2  1  1  0
  3  4  1  0
  4  5  2  0
  6  5  1  0
  7  2  1  0
  8  7  1  0
  9  8  1  0
 10  9  2  0
 11 10  1  0
  1 12  1  0
  3 13  1  0
  5 14  1  0
  7 15  1  0
  7 16  1  0
  9 17  1  0
 10 18  1  0
 11 19  1  0
 11 20  1  0
 21 22  2  0
 22 23  1  0
 22 24  1  0
 24 25  1  0
 24 26  2  0
 26 27  1  0
 26 28  1  0
 28 21  1  0
 11 21  1  0
M  ISO  8  12  14  13  14  14  14  15   8  16   8  19   8  20   8  23  16
M  ISO  2  25  16  27  14
M  END
>  <DihAtoms>  (1) 
9,10,20,21

>  <DihDeg>  (1) 
-89.99892657681464

$$$$
