
     RDKit          3D

 43 45  0  0  1  0  0  0  0  0999 V2000
   49.7900   31.3100   42.9040 O   0  0  0  0  0  0  0  0  0  0  0  0
   50.1530   32.1590   41.7020 P   0  0  2  0  0  0  0  0  0  0  0  0
   51.4080   33.2170   42.0140 O   0  0  0  0  0  0  0  0  0  0  0  0
   48.7970   33.0270   41.2100 O   0  0  0  0  0  0  0  0  0  0  0  0
   48.5210   34.0670   42.0820 C   0  0  0  0  0  0  0  0  0  0  0  0
   47.0480   34.2650   42.2250 C   0  0  0  0  0  0  0  0  0  0  0  0
   45.2770   34.4190   45.5350 C   0  0  0  0  0  0  0  0  0  0  0  0
   45.6590   34.7240   44.2220 C   0  0  0  0  0  0  0  0  0  0  0  0
   46.6410   33.9380   43.6290 C   0  0  0  0  0  0  0  0  0  0  0  0
   47.1870   32.9170   44.3320 N   0  0  0  0  0  0  0  0  0  0  0  0
   46.7840   32.6620   45.6010 C   0  0  0  0  0  0  0  0  0  0  0  0
   45.8490   33.3880   46.2080 N   0  0  0  0  0  0  0  0  0  0  0  0
   44.2820   35.1870   46.1920 N   0  0  0  0  0  0  0  0  0  0  0  0
   50.6560   31.1320   40.4270 O   0  0  0  0  0  0  0  0  0  0  0  0
   51.2640   31.3350   38.1650 C   0  0  1  0  0  0  0  0  0  0  0  0
   51.5250   31.7640   39.5820 C   0  0  2  0  0  0  0  0  0  0  0  0
   52.8830   31.0570   39.7960 C   0  0  0  0  0  0  0  0  0  0  0  0
   52.7740   29.8450   39.1780 O   0  0  0  0  0  0  0  0  0  0  0  0
   51.8430   29.9390   38.1730 C   0  0  0  0  0  0  0  0  0  0  0  0
   49.9250   31.3730   37.8350 O   0  0  0  0  0  0  0  0  0  0  0  0
   49.1400   32.4910   37.6420 C   0  0  0  0  0  0  0  0  0  0  0  0
   47.7920   32.3370   37.9940 C   0  0  0  0  0  0  0  0  0  0  0  0
   47.1770   33.5660   37.7260 C   0  0  0  0  0  0  0  0  0  0  0  0
   48.1770   34.3790   37.2340 C   0  0  0  0  0  0  0  0  0  0  0  0
   49.2960   33.7100   37.2050 O   0  0  0  0  0  0  0  0  0  0  0  0
   51.5226   33.3136   42.9926 H   0  0  0  0  0  0  0  0  0  0  0  0
   48.9506   33.8344   43.0676 H   0  0  0  0  0  0  0  0  0  0  0  0
   48.9625   34.9904   41.6790 H   0  0  0  0  0  0  0  0  0  0  0  0
   46.7942   35.3120   42.0028 H   0  0  0  0  0  0  0  0  0  0  0  0
   46.5166   33.6055   41.5231 H   0  0  0  0  0  0  0  0  0  0  0  0
   45.1962   35.5598   43.6768 H   0  0  0  0  0  0  0  0  0  0  0  0
   47.2458   31.8264   46.1473 H   0  0  0  0  0  0  0  0  0  0  0  0
   43.8328   35.9744   45.7030 H   0  0  0  0  0  0  0  0  0  0  0  0
   44.0086   34.9573   47.1581 H   0  0  0  0  0  0  0  0  0  0  0  0
   51.7090   31.9918   37.4030 H   0  0  0  0  0  0  0  0  0  0  0  0
   51.4627   32.8494   39.7495 H   0  0  0  0  0  0  0  0  0  0  0  0
   53.6960   31.6450   39.3450 H   0  0  0  0  0  0  0  0  0  0  0  0
   53.1171   30.9462   40.8651 H   0  0  0  0  0  0  0  0  0  0  0  0
   51.0395   29.2078   38.3455 H   0  0  0  0  0  0  0  0  0  0  0  0
   52.3206   29.7301   37.2044 H   0  0  0  0  0  0  0  0  0  0  0  0
   47.3138   31.4330   38.3991 H   0  0  0  0  0  0  0  0  0  0  0  0
   46.1193   33.8280   37.8761 H   0  0  0  0  0  0  0  0  0  0  0  0
   48.0507   35.4247   36.9168 H   0  0  0  0  0  0  0  0  0  0  0  0
  2  3  1  0
  2  1  2  0
  4  2  1  0
  4  5  1  0
  5  6  1  0
  6  9  1  0
  7 13  1  0
  7 12  2  0
  8  7  1  0
  9  8  2  0
  9 10  1  0
 10 11  2  0
 11 12  1  0
 14  2  1  0
 15 19  1  0
 15 16  1  0
 16 17  1  0
 16 14  1  0
 18 17  1  0
 19 18  1  0
 20 15  1  0
 21 20  1  0
 21 22  2  0
 23 22  1  0
 24 23  2  0
 25 24  1  0
 25 21  1  0
  3 26  1  0
  5 27  1  0
  5 28  1  0
  6 29  1  0
  6 30  1  0
  8 31  1  0
 11 32  1  0
 13 33  1  0
 13 34  1  0
 15 35  1  6
 16 36  1  6
 17 37  1  0
 17 38  1  0
 19 39  1  0
 19 40  1  0
 22 41  1  0
 23 42  1  0
 24 43  1  0
M  ISO  8  26   3  27   8  28   8  29   8  30   8  31  14  32  14  35  13
M  ISO  8  36  13  37  13  38  13  39  13  40  13  41  14  42  14  43  14
M  END
>  <minimizedAffinity>  (1) 
-4.79862547

>  <minimizedRMSD>  (1) 
2.1309917

$$$$
