
     RDKit          3D

 35 38  0  0  0  0  0  0  0  0999 V2000
   44.3974   34.7189   43.2162 C   0  0  1  0  0  0  0  0  0  0  0  0
   44.9036   36.1319   42.7984 C   0  0  0  0  0  0  0  0  0  0  0  0
   44.4708   35.0793   41.8144 C   0  0  2  0  0  0  0  0  0  0  0  0
   45.4461   33.8987   43.8766 C   0  0  0  0  0  0  0  0  0  0  0  0
   46.5457   33.4412   43.1083 C   0  0  0  0  0  0  0  0  0  0  0  0
   47.5223   32.6774   43.7372 C   0  0  0  0  0  0  0  0  0  0  0  0
   47.3680   32.4095   45.0653 N   0  0  0  0  0  0  0  0  0  0  0  0
   46.3050   32.8642   45.7638 C   0  0  0  0  0  0  0  0  0  0  0  0
   45.3612   33.6041   45.1478 N   0  0  0  0  0  0  0  0  0  0  0  0
   46.3308   32.4604   47.2042 C   0  0  0  0  0  0  0  0  0  0  0  0
   45.3097   33.0522   47.9145 F   0  0  0  0  0  0  0  0  0  0  0  0
   47.5358   32.8976   47.7887 F   0  0  0  0  0  0  0  0  0  0  0  0
   46.3410   31.0846   47.2944 F   0  0  0  0  0  0  0  0  0  0  0  0
   43.1319   35.2438   41.1476 C   0  0  0  0  0  0  0  0  0  0  0  0
   42.9768   35.0837   39.7845 C   0  0  0  0  0  0  0  0  0  0  0  0
   41.7655   35.2199   39.1458 C   0  0  0  0  0  0  0  0  0  0  0  0
   40.6866   35.5251   39.9046 N   0  0  0  0  0  0  0  0  0  0  0  0
   40.8275   35.6846   41.2444 C   0  0  0  0  0  0  0  0  0  0  0  0
   42.0224   35.5480   41.8572 N   0  0  0  0  0  0  0  0  0  0  0  0
   43.4434   34.7945   43.7811 H   0  0  0  0  0  0  0  0  0  0  0  0
   44.2674   36.9924   42.9988 H   0  0  0  0  0  0  0  0  0  0  0  0
   45.9839   36.3228   42.8918 H   0  0  0  0  0  0  0  0  0  0  0  0
   45.2455   34.7641   41.1110 H   0  0  0  0  0  0  0  0  0  0  0  0
   46.6601   33.6570   42.0623 H   0  0  0  0  0  0  0  0  0  0  0  0
   48.3914   32.2929   43.2126 H   0  0  0  0  0  0  0  0  0  0  0  0
   43.8257   34.8393   39.1569 H   0  0  0  0  0  0  0  0  0  0  0  0
   41.6352   35.0959   38.0758 H   0  0  0  0  0  0  0  0  0  0  0  0
   39.7389   36.0140   42.1655 C   0  0  0  0  0  0  0  0  0  0  0  0
   38.5376   35.4580   42.4672 C   0  0  0  0  0  0  0  0  0  0  0  0
   38.2091   34.5559   41.9668 H   0  0  0  0  0  0  0  0  0  0  0  0
   37.9432   36.2355   43.4346 C   0  0  0  0  0  0  0  0  0  0  0  0
   36.9744   36.0338   43.8697 H   0  0  0  0  0  0  0  0  0  0  0  0
   38.8255   37.2620   43.6934 C   0  0  0  0  0  0  0  0  0  0  0  0
   38.6645   38.0619   44.4135 H   0  0  0  0  0  0  0  0  0  0  0  0
   39.8737   37.0982   42.9258 O   0  0  0  0  0  0  0  0  0  0  0  0
  1  4  1  0
  2  1  1  0
  3  2  1  0
  3  1  1  0
  4  9  2  0
  5  6  2  0
  5  4  1  0
  6  7  1  0
  7  8  2  0
  8 10  1  0
  9  8  1  0
 10 13  1  0
 10 12  1  0
 10 11  1  0
 14  3  1  0
 14 19  1  0
 15 14  2  0
 16 15  1  0
 16 17  2  0
 17 18  1  0
 18 19  2  0
  1 20  1  1
  2 21  1  0
  2 22  1  0
  3 23  1  6
  5 24  1  0
  6 25  1  0
 15 26  1  0
 16 27  1  0
 28 29  2  0
 29 30  1  0
 29 31  1  0
 31 32  1  0
 31 33  2  0
 33 34  1  0
 33 35  1  0
 35 28  1  0
 18 28  1  0
M  ISO  8  20  13  21  13  22  13  23  13  24  14  25  14  26  14  27  14
M  ISO  3  30  16  32  16  34  14
M  END
>  <DihAtoms>  (1) 
16,17,27,28

>  <DihDeg>  (1) 
-63.78674450541162

$$$$
