
     RDKit          3D

 26 27  0  0  0  0  0  0  0  0999 V2000
   48.1320   32.8910   41.7050 O   0  0  0  0  0  0  0  0  0  0  0  0
   47.1660   33.9770   41.2480 P   0  0  2  0  0  0  0  0  0  0  0  0
   45.6230   33.6700   41.9460 O   0  0  0  0  0  0  0  0  0  0  0  0
   44.4110   35.8540   44.6300 C   0  0  0  0  0  0  0  0  0  0  0  0
   44.6850   35.3760   43.3250 C   0  0  0  0  0  0  0  0  0  0  0  0
   45.3440   34.1560   43.2200 C   0  0  0  0  0  0  0  0  0  0  0  0
   45.6920   33.4830   44.3580 N   0  0  0  0  0  0  0  0  0  0  0  0
   45.4060   33.9820   45.5740 C   0  0  0  0  0  0  0  0  0  0  0  0
   44.7730   35.1540   45.7250 N   0  0  0  0  0  0  0  0  0  0  0  0
   46.9950   34.0420   39.5850 O   0  0  0  0  0  0  0  0  0  0  0  0
   47.8980   33.5440   38.6580 C   0  0  0  0  0  0  0  0  0  0  0  0
   48.8490   32.5460   38.6980 C   0  0  0  0  0  0  0  0  0  0  0  0
   49.4290   32.5430   37.4270 C   0  0  0  0  0  0  0  0  0  0  0  0
   48.7830   33.5350   36.7260 C   0  0  0  0  0  0  0  0  0  0  0  0
   47.8730   34.1290   37.4630 O   0  0  0  0  0  0  0  0  0  0  0  0
   47.7180   35.4440   41.8730 O   0  0  0  0  0  0  0  0  0  0  0  0
   48.9910   35.7540   41.4400 C   0  0  0  0  0  0  0  0  0  0  0  0
   49.4460   36.9650   41.9350 F   0  0  0  0  0  0  0  0  0  0  0  0
   49.8430   34.7100   41.6920 F   0  0  0  0  0  0  0  0  0  0  0  0
   48.9030   35.9120   40.0530 F   0  0  0  0  0  0  0  0  0  0  0  0
   43.8922   36.8161   44.7531 H   0  0  0  0  0  0  0  0  0  0  0  0
   44.3889   35.9460   42.4320 H   0  0  0  0  0  0  0  0  0  0  0  0
   45.6994   33.4131   46.4685 H   0  0  0  0  0  0  0  0  0  0  0  0
   49.0974   31.8930   39.5476 H   0  0  0  0  0  0  0  0  0  0  0  0
   50.2328   31.8860   37.0634 H   0  0  0  0  0  0  0  0  0  0  0  0
   49.0013   33.7974   35.6803 H   0  0  0  0  0  0  0  0  0  0  0  0
  2  1  2  0
  2 16  1  0
  2  3  1  0
  3  6  1  0
  4  9  2  0
  5  4  1  0
  6  5  2  0
  6  7  1  0
  7  8  2  0
  8  9  1  0
 10  2  1  0
 11 12  2  0
 11 10  1  0
 13 12  1  0
 14 13  2  0
 14 15  1  0
 15 11  1  0
 17 19  1  0
 17 16  1  0
 17 18  1  0
 20 17  1  0
  4 21  1  0
  5 22  1  0
  8 23  1  0
 12 24  1  0
 13 25  1  0
 14 26  1  0
M  ISO  6  21  14  22  14  23  14  24  14  25  14  26  14
M  END
>  <minimizedAffinity>  (1) 
-5.28392744

>  <minimizedRMSD>  (1) 
0.51567775

$$$$
