
     RDKit          3D

 46 49  0  0  0  0  0  0  0  0999 V2000
   41.7260   32.3980   41.4560 C   0  0  0  0  0  0  0  0  0  0  0  0
   40.8820   31.5280   40.8890 N   0  0  0  0  0  0  0  0  0  0  0  0
   41.1990   30.2700   40.2920 C   0  0  0  0  0  0  0  0  0  0  0  0
   40.6750   29.3520   41.3980 C   0  0  0  0  0  0  0  0  0  0  0  0
   39.2580   29.5060   41.6720 C   0  0  0  0  0  0  0  0  0  0  0  0
   38.6140   30.7600   41.3550 C   0  0  0  0  0  0  0  0  0  0  0  0
   39.4580   31.9390   40.9340 C   0  0  0  0  0  0  0  0  0  0  0  0
   38.8310   33.5020   40.5790 S   0  0  0  0  0  0  0  0  0  0  0  0
   39.5440   34.2650   39.1640 C   0  0  0  0  0  0  0  0  0  0  0  0
   39.6970   34.4680   37.8170 C   0  0  0  0  0  0  0  0  0  0  0  0
   40.6530   35.4240   37.5470 C   0  0  0  0  0  0  0  0  0  0  0  0
   41.0700   35.7890   38.8080 C   0  0  0  0  0  0  0  0  0  0  0  0
   40.4150   35.1060   39.7310 O   0  0  0  0  0  0  0  0  0  0  0  0
   42.9470   32.6590   40.6500 C   0  0  0  0  0  0  0  0  0  0  0  0
   43.7230   33.7200   41.3200 C   0  0  0  0  0  0  0  0  0  0  0  0
   43.0900   34.8280   41.8400 C   0  0  0  0  0  0  0  0  0  0  0  0
   43.8660   35.8020   42.4440 C   0  0  0  0  0  0  0  0  0  0  0  0
   45.2200   35.6140   42.4950 N   0  0  0  0  0  0  0  0  0  0  0  0
   45.7950   34.5320   41.9850 C   0  0  0  0  0  0  0  0  0  0  0  0
   45.0280   33.6030   41.4040 N   0  0  0  0  0  0  0  0  0  0  0  0
   47.2410   34.4010   42.1100 C   0  0  0  0  0  0  0  0  0  0  0  0
   47.8160   33.1880   42.4780 C   0  0  0  0  0  0  0  0  0  0  0  0
   49.1760   33.0780   42.5960 C   0  0  0  0  0  0  0  0  0  0  0  0
   49.8760   34.2290   42.3270 C   0  0  0  0  0  0  0  0  0  0  0  0
   49.3540   35.4600   41.9570 C   0  0  0  0  0  0  0  0  0  0  0  0
   48.0030   35.4950   41.8600 N   0  0  0  0  0  0  0  0  0  0  0  0
   41.1961   33.3509   41.6019 H   0  0  0  0  0  0  0  0  0  0  0  0
   42.0572   31.9518   42.4053 H   0  0  0  0  0  0  0  0  0  0  0  0
   40.6676   30.1175   39.3410 H   0  0  0  0  0  0  0  0  0  0  0  0
   42.2535   30.1269   40.0137 H   0  0  0  0  0  0  0  0  0  0  0  0
   40.8578   28.3097   41.0978 H   0  0  0  0  0  0  0  0  0  0  0  0
   41.2088   29.6276   42.3195 H   0  0  0  0  0  0  0  0  0  0  0  0
   38.7335   28.7224   41.1056 H   0  0  0  0  0  0  0  0  0  0  0  0
   39.1942   29.4473   42.7686 H   0  0  0  0  0  0  0  0  0  0  0  0
   37.5200   30.8547   41.4197 H   0  0  0  0  0  0  0  0  0  0  0  0
   39.1257   33.9325   37.0444 H   0  0  0  0  0  0  0  0  0  0  0  0
   40.9958   35.8000   36.5717 H   0  0  0  0  0  0  0  0  0  0  0  0
   41.8415   36.5445   39.0180 H   0  0  0  0  0  0  0  0  0  0  0  0
   42.6630   32.9871   39.6392 H   0  0  0  0  0  0  0  0  0  0  0  0
   43.5498   31.7428   40.5656 H   0  0  0  0  0  0  0  0  0  0  0  0
   41.9971   34.9355   41.7768 H   0  0  0  0  0  0  0  0  0  0  0  0
   43.4055   36.7045   42.8722 H   0  0  0  0  0  0  0  0  0  0  0  0
   47.1761   32.3151   42.6746 H   0  0  0  0  0  0  0  0  0  0  0  0
   49.6706   32.1387   42.8844 H   0  0  0  0  0  0  0  0  0  0  0  0
   50.9708   34.1679   42.4146 H   0  0  0  0  0  0  0  0  0  0  0  0
   49.9865   36.3377   41.7582 H   0  0  0  0  0  0  0  0  0  0  0  0
  2  7  1  0
  2  1  1  0
  3  2  1  0
  3  4  1  0
  4  5  1  0
  6  5  1  0
  7  6  2  0
  8  7  1  0
  9 13  1  0
  9  8  1  0
 10  9  2  0
 11 10  1  0
 11 12  2  0
 12 13  1  0
 14 15  1  0
 14  1  1  0
 15 20  1  0
 15 16  2  0
 16 17  1  0
 17 18  2  0
 19 21  1  0
 19 18  1  0
 20 19  2  0
 21 22  2  0
 22 23  1  0
 24 23  2  0
 25 24  1  0
 26 25  2  0
 26 21  1  0
  1 27  1  0
  1 28  1  0
  3 29  1  0
  3 30  1  0
  4 31  1  0
  4 32  1  0
  5 33  1  0
  5 34  1  0
  6 35  1  0
 10 36  1  0
 11 37  1  0
 12 38  1  0
 14 39  1  0
 14 40  1  0
 16 41  1  0
 17 42  1  0
 22 43  1  0
 23 44  1  0
 24 45  1  0
 25 46  1  0
M  ISO  8  27   8  28   8  29  13  30  13  31  13  32  13  33  13  34  13
M  ISO  8  35  13  36  14  37  14  38  14  39   8  40   8  41  14  42  14
M  ISO  4  43  14  44  14  45  14  46  14
M  END
>  <minimizedAffinity>  (1) 
-5.43330669

>  <minimizedRMSD>  (1) 
2.49613142

$$$$
