
     RDKit          3D

 40 43  0  0  0  0  0  0  0  0999 V2000
   47.4980   31.7670   38.8830 C   0  0  0  0  0  0  0  0  0  0  0  0
   47.1290   33.0760   38.9340 C   0  0  0  0  0  0  0  0  0  0  0  0
   47.8240   34.0240   38.1990 C   0  0  0  0  0  0  0  0  0  0  0  0
   48.8880   33.6380   37.4190 C   0  0  0  0  0  0  0  0  0  0  0  0
   49.2980   32.3080   37.3360 C   0  0  0  0  0  0  0  0  0  0  0  0
   48.5790   31.3730   38.0890 C   0  0  0  0  0  0  0  0  0  0  0  0
   45.4120   35.4050   43.2100 Cl  0  0  0  0  0  0  0  0  0  0  0  0
   45.2090   34.6430   41.6550 C   0  0  0  0  0  0  0  0  0  0  0  0
   46.2770   34.1960   40.9480 C   0  0  0  0  0  0  0  0  0  0  0  0
   46.0110   33.5870   39.7300 C   0  0  0  0  0  0  0  0  0  0  0  0
   44.7290   33.4410   39.2580 C   0  0  0  0  0  0  0  0  0  0  0  0
   43.6730   33.8950   39.9790 C   0  0  0  0  0  0  0  0  0  0  0  0
   43.9250   34.4980   41.1860 C   0  0  0  0  0  0  0  0  0  0  0  0
   49.5910   35.6970   41.9510 C   0  0  0  0  0  0  0  0  0  0  0  0
   48.3040   35.5490   41.4180 C   0  0  0  0  0  0  0  0  0  0  0  0
   47.6050   34.3610   41.4950 C   0  0  0  0  0  0  0  0  0  0  0  0
   48.2640   33.3550   42.1260 N   0  0  0  0  0  0  0  0  0  0  0  0
   49.4940   33.4880   42.6390 C   0  0  0  0  0  0  0  0  0  0  0  0
   50.1470   34.6500   42.5500 N   0  0  0  0  0  0  0  0  0  0  0  0
   46.6500   30.5850   39.7310 S   0  0  0  0  0  0  0  0  0  0  0  0
   45.3780   30.1690   39.0250 O   0  0  0  0  0  0  0  0  0  0  0  0
   47.5550   29.3050   39.5900 O   0  0  0  0  0  0  0  0  0  0  0  0
   46.2770   30.6660   41.4100 C   0  0  0  0  0  0  0  0  0  0  0  0
   44.9330   30.8470   41.8260 C   0  0  0  0  0  0  0  0  0  0  0  0
   44.7800   30.8940   43.1920 C   0  0  0  0  0  0  0  0  0  0  0  0
   46.0680   30.7360   43.5910 C   0  0  0  0  0  0  0  0  0  0  0  0
   46.8380   30.6170   42.5920 O   0  0  0  0  0  0  0  0  0  0  0  0
   47.5249   35.0818   38.2399 H   0  0  0  0  0  0  0  0  0  0  0  0
   49.4322   34.4011   36.8432 H   0  0  0  0  0  0  0  0  0  0  0  0
   50.1486   32.0071   36.7068 H   0  0  0  0  0  0  0  0  0  0  0  0
   48.8687   30.3124   38.0556 H   0  0  0  0  0  0  0  0  0  0  0  0
   44.5573   32.9521   38.2877 H   0  0  0  0  0  0  0  0  0  0  0  0
   42.6440   33.7830   39.6067 H   0  0  0  0  0  0  0  0  0  0  0  0
   43.0843   34.8720   41.7889 H   0  0  0  0  0  0  0  0  0  0  0  0
   50.1268   36.6547   41.8755 H   0  0  0  0  0  0  0  0  0  0  0  0
   47.8337   36.4099   40.9204 H   0  0  0  0  0  0  0  0  0  0  0  0
   49.9712   32.6320   43.1385 H   0  0  0  0  0  0  0  0  0  0  0  0
   44.0926   30.9409   41.1225 H   0  0  0  0  0  0  0  0  0  0  0  0
   43.8682   31.0235   43.7935 H   0  0  0  0  0  0  0  0  0  0  0  0
   46.3984   30.7142   44.6400 H   0  0  0  0  0  0  0  0  0  0  0  0
  1  2  1  0
  1 20  1  0
  2 10  1  0
  3  2  2  0
  4  3  1  0
  5  4  2  0
  5  6  1  0
  6  1  2  0
  8  7  1  0
  9 16  1  0
  9  8  2  0
 10  9  1  0
 11 10  2  0
 11 12  1  0
 12 13  2  0
 13  8  1  0
 14 19  2  0
 15 16  2  0
 15 14  1  0
 16 17  1  0
 17 18  2  0
 19 18  1  0
 20 23  1  0
 21 20  2  0
 22 20  2  0
 23 24  2  0
 23 27  1  0
 24 25  1  0
 25 26  2  0
 27 26  1  0
  3 28  1  0
  4 29  1  0
  5 30  1  0
  6 31  1  0
 11 32  1  0
 12 33  1  0
 13 34  1  0
 14 35  1  0
 15 36  1  0
 18 37  1  0
 24 38  1  0
 25 39  1  0
 26 40  1  0
M  ISO  8  28  14  29  14  30  14  31  14  32  14  33  14  34  14  35  14
M  ISO  5  36  14  37  14  38  14  39  14  40  14
M  END
>  <minimizedAffinity>  (1) 
-4.67661524

>  <minimizedRMSD>  (1) 
0.789460361

$$$$
