
     RDKit          3D

 29 31  0  0  0  0  0  0  0  0999 V2000
   44.6738   35.3795   45.1444 C   0  0  0  0  0  0  0  0  0  0  0  0
   45.1347   35.6867   43.8365 C   0  0  0  0  0  0  0  0  0  0  0  0
   46.0788   34.8477   43.3338 C   0  0  0  0  0  0  0  0  0  0  0  0
   46.5508   33.7769   44.0545 N   0  0  0  0  0  0  0  0  0  0  0  0
   46.0860   33.5213   45.2957 C   0  0  0  0  0  0  0  0  0  0  0  0
   45.1438   34.3258   45.8414 N   0  0  0  0  0  0  0  0  0  0  0  0
   46.5809   35.0743   41.9325 C   0  0  1  0  0  0  0  0  0  0  0  0
   48.1162   35.2979   41.9238 C   0  0  0  0  0  0  0  0  0  0  0  0
   47.3575   34.0821   41.3112 C   0  0  2  0  0  0  0  0  0  0  0  0
   47.3804   33.9048   39.8110 C   0  0  0  0  0  0  0  0  0  0  0  0
   44.6550   36.8100   43.1242 N   0  0  0  0  0  0  0  0  0  0  0  0
   43.9175   36.0370   45.5650 H   0  0  0  0  0  0  0  0  0  0  0  0
   46.4299   32.6927   45.8935 H   0  0  0  0  0  0  0  0  0  0  0  0
   46.0679   35.8878   41.3978 H   0  0  0  0  0  0  0  0  0  0  0  0
   48.5220   35.9565   41.1432 H   0  0  0  0  0  0  0  0  0  0  0  0
   48.6893   35.0755   42.8289 H   0  0  0  0  0  0  0  0  0  0  0  0
   47.5252   33.1098   41.8578 H   0  0  0  0  0  0  0  0  0  0  0  0
   48.0108   33.0552   39.5523 H   0  0  0  0  0  0  0  0  0  0  0  0
   47.7273   34.8206   39.2893 H   0  0  0  0  0  0  0  0  0  0  0  0
   43.7657   37.0101   42.6195 H   0  0  0  0  0  0  0  0  0  0  0  0
   45.4601   37.4997   43.2039 H   0  0  0  0  0  0  0  0  0  0  0  0
   45.9611   33.6065   39.4317 C   0  0  0  0  0  0  0  0  0  0  0  0
   44.9791   34.5052   39.0911 C   0  0  0  0  0  0  0  0  0  0  0  0
   45.1012   35.5664   39.0505 H   0  0  0  0  0  0  0  0  0  0  0  0
   43.8403   33.7591   38.8227 C   0  0  0  0  0  0  0  0  0  0  0  0
   42.8782   34.1585   38.5230 H   0  0  0  0  0  0  0  0  0  0  0  0
   44.1985   32.4293   39.0178 C   0  0  0  0  0  0  0  0  0  0  0  0
   43.4647   31.6565   38.8654 H   0  0  0  0  0  0  0  0  0  0  0  0
   45.4563   32.3871   39.3756 O   0  0  0  0  0  0  0  0  0  0  0  0
  1  6  2  0
  2  1  1  0
  3  2  2  0
  3  4  1  0
  4  5  2  0
  5  6  1  0
  7  3  1  0
  8  7  1  0
  9  8  1  0
  9  7  1  0
 10  9  1  0
 11  2  1  0
  1 12  1  0
  5 13  1  0
  7 14  1  6
  8 15  1  0
  8 16  1  0
  9 17  1  1
 10 18  1  0
 10 19  1  0
 11 20  1  0
 11 21  1  0
 22 23  2  0
 23 24  1  0
 23 25  1  0
 25 26  1  0
 25 27  2  0
 27 28  1  0
 27 29  1  0
 29 22  1  0
 10 22  1  0
M  ISO  8  12  14  13  14  14  13  15  13  16  13  17  13  18   8  19   8
M  ISO  3  24  16  26  16  28  14
M  END
>  <DihAtoms>  (1) 
8,9,21,22

>  <DihDeg>  (1) 
90.0008062949075

$$$$
