
     RDKit          3D

 43 45  0  0  0  0  0  0  0  0999 V2000
   49.1279   34.2626   41.8410 C   0  0  0  0  0  0  0  0  0  0  0  0
   47.8436   35.0056   41.6764 C   0  0  0  0  0  0  0  0  0  0  0  0
   44.9180   35.1393   44.0295 C   0  0  0  0  0  0  0  0  0  0  0  0
   45.7552   35.4141   42.9389 C   0  0  0  0  0  0  0  0  0  0  0  0
   46.9506   34.7111   42.8414 C   0  0  0  0  0  0  0  0  0  0  0  0
   47.2619   33.7961   43.7913 N   0  0  0  0  0  0  0  0  0  0  0  0
   46.4195   33.5661   44.8266 C   0  0  0  0  0  0  0  0  0  0  0  0
   45.2650   34.2153   44.9605 N   0  0  0  0  0  0  0  0  0  0  0  0
   43.6866   35.8248   44.1817 N   0  0  0  0  0  0  0  0  0  0  0  0
   49.1726   33.1619   41.0006 O   0  0  0  0  0  0  0  0  0  0  0  0
   50.0897   31.2143   42.4734 O   0  0  0  0  0  0  0  0  0  0  0  0
   50.4832   32.1688   41.3627 P   0  0  2  0  0  0  0  0  0  0  0  0
   51.8044   33.1124   41.7599 O   0  0  0  0  0  0  0  0  0  0  0  0
   50.9019   31.2615   39.9716 O   0  0  0  0  0  0  0  0  0  0  0  0
   52.3919   31.5839   38.1825 C   0  0  1  0  0  0  0  0  0  0  0  0
   52.2276   31.3929   39.6640 C   0  0  2  0  0  0  0  0  0  0  0  0
   52.8139   29.9681   39.7850 C   0  0  0  0  0  0  0  0  0  0  0  0
   52.3714   29.2876   38.6876 O   0  0  0  0  0  0  0  0  0  0  0  0
   52.1222   30.1849   37.6775 C   0  0  0  0  0  0  0  0  0  0  0  0
   51.5288   32.5288   37.6680 O   0  0  0  0  0  0  0  0  0  0  0  0
   49.9746   34.9646   41.7035 H   0  0  0  0  0  0  0  0  0  0  0  0
   49.2230   33.9017   42.9062 H   0  0  0  0  0  0  0  0  0  0  0  0
   47.3605   34.7470   40.7087 H   0  0  0  0  0  0  0  0  0  0  0  0
   47.9955   36.1034   41.6928 H   0  0  0  0  0  0  0  0  0  0  0  0
   45.4238   36.1532   42.2410 H   0  0  0  0  0  0  0  0  0  0  0  0
   46.7277   32.8215   45.5521 H   0  0  0  0  0  0  0  0  0  0  0  0
   43.6664   36.6222   44.8675 H   0  0  0  0  0  0  0  0  0  0  0  0
   42.7810   35.6744   43.7248 H   0  0  0  0  0  0  0  0  0  0  0  0
   52.2278   32.7705   42.5959 H   0  0  0  0  0  0  0  0  0  0  0  0
   53.4323   31.8788   37.9872 H   0  0  0  0  0  0  0  0  0  0  0  0
   52.8064   32.0929   40.2907 H   0  0  0  0  0  0  0  0  0  0  0  0
   52.4746   29.5305   40.7448 H   0  0  0  0  0  0  0  0  0  0  0  0
   53.9120   30.0929   39.8225 H   0  0  0  0  0  0  0  0  0  0  0  0
   52.7634   30.0079   36.7831 H   0  0  0  0  0  0  0  0  0  0  0  0
   51.0640   30.0375   37.3659 H   0  0  0  0  0  0  0  0  0  0  0  0
   51.8583   33.6902   36.9988 C   0  0  0  0  0  0  0  0  0  0  0  0
   52.5911   33.5072   35.8178 C   0  0  0  0  0  0  0  0  0  0  0  0
   53.0096   32.6829   35.2235 H   0  0  0  0  0  0  0  0  0  0  0  0
   52.8205   34.7862   35.2998 C   0  0  0  0  0  0  0  0  0  0  0  0
   53.3044   35.2637   34.4536 H   0  0  0  0  0  0  0  0  0  0  0  0
   52.2206   35.6563   36.1866 C   0  0  0  0  0  0  0  0  0  0  0  0
   52.0481   36.7312   36.3500 H   0  0  0  0  0  0  0  0  0  0  0  0
   51.6766   34.9725   37.1543 O   0  0  0  0  0  0  0  0  0  0  0  0
  2  1  1  0
  2  5  1  0
  3  9  1  0
  3  8  2  0
  4  3  1  0
  5  4  2  0
  5  6  1  0
  6  7  2  0
  7  8  1  0
 12 10  1  6
 10  1  1  0
 12 13  1  0
 12 11  2  0
 14 12  1  0
 15 20  1  0
 15 16  1  0
 16 17  1  0
 16 14  1  0
 18 17  1  0
 19 15  1  0
 19 18  1  0
  1 21  1  0
  1 22  1  0
  2 23  1  0
  2 24  1  0
  4 25  1  0
  7 26  1  0
  9 27  1  0
  9 28  1  0
 13 29  1  0
 15 30  1  1
 16 31  1  1
 17 32  1  0
 17 33  1  0
 19 34  1  0
 19 35  1  0
 36 37  2  0
 37 38  1  0
 37 39  1  0
 39 40  1  0
 39 41  2  0
 41 42  1  0
 41 43  1  0
 43 36  1  0
 20 36  1  0
M  ISO  8  21   8  22   8  23   8  24   8  25  14  26  14  29   3  30  13
M  ISO  8  31  13  32  13  33  13  34  13  35  13  38  16  40  16  42  14
M  END
>  <DihAtoms>  (1) 
14,19,35,36

>  <DihDeg>  (1) 
-179.9974392858715

$$$$
