
     RDKit          3D

 27 29  0  0  0  0  0  0  0  0999 V2000
   45.2232   33.5578   43.7725 C   0  0  1  0  0  0  0  0  0  0  0  0
   45.8563   34.9546   43.4712 C   0  0  1  0  0  0  0  0  0  0  0  0
   45.7621   33.8293   42.4779 C   0  0  0  0  0  0  0  0  0  0  0  0
   45.9553   32.8533   44.8379 C   0  0  0  0  0  0  0  0  0  0  0  0
   46.6373   31.6348   44.5255 C   0  0  0  0  0  0  0  0  0  0  0  0
   47.3513   30.9568   45.5089 C   0  0  0  0  0  0  0  0  0  0  0  0
   47.3577   31.5164   46.7559 N   0  0  0  0  0  0  0  0  0  0  0  0
   46.6929   32.6837   47.0142 C   0  0  0  0  0  0  0  0  0  0  0  0
   46.0186   33.3194   46.0786 N   0  0  0  0  0  0  0  0  0  0  0  0
   44.8330   36.0503   43.2759 C   0  0  0  0  0  0  0  0  0  0  0  0
   45.4114   37.3018   43.2542 F   0  0  0  0  0  0  0  0  0  0  0  0
   44.2130   35.8582   42.0340 F   0  0  0  0  0  0  0  0  0  0  0  0
   43.8401   35.9656   44.2253 F   0  0  0  0  0  0  0  0  0  0  0  0
   44.1318   33.5835   43.9561 H   0  0  0  0  0  0  0  0  0  0  0  0
   46.8089   35.2041   43.9291 H   0  0  0  0  0  0  0  0  0  0  0  0
   46.7481   33.4645   42.1230 H   0  0  0  0  0  0  0  0  0  0  0  0
   45.0580   33.9438   41.6199 H   0  0  0  0  0  0  0  0  0  0  0  0
   46.5980   31.2388   43.5208 H   0  0  0  0  0  0  0  0  0  0  0  0
   47.8544   30.0498   45.2623 H   0  0  0  0  0  0  0  0  0  0  0  0
   46.7574   33.2065   48.3792 C   0  0  0  0  0  0  0  0  0  0  0  0
   46.0790   32.7552   49.4940 C   0  0  0  0  0  0  0  0  0  0  0  0
   45.3817   31.9331   49.5417 H   0  0  0  0  0  0  0  0  0  0  0  0
   46.4230   33.5314   50.6074 C   0  0  0  0  0  0  0  0  0  0  0  0
   46.0927   33.4702   51.6363 H   0  0  0  0  0  0  0  0  0  0  0  0
   47.3312   34.4436   50.0594 C   0  0  0  0  0  0  0  0  0  0  0  0
   47.8165   35.2216   50.6578 H   0  0  0  0  0  0  0  0  0  0  0  0
   47.4916   34.2186   48.7786 O   0  0  0  0  0  0  0  0  0  0  0  0
  1  4  1  0
  2  1  1  0
  3  2  1  0
  3  1  1  0
  4  9  1  0
  5  4  2  0
  5  6  1  0
  6  7  2  0
  7  8  1  0
  9  8  2  0
 10  2  1  0
 10 13  1  0
 11 10  1  0
 12 10  1  0
  1 14  1  6
  2 15  1  1
  3 16  1  0
  3 17  1  0
  5 18  1  0
  6 19  1  0
 20 21  2  0
 21 22  1  0
 21 23  1  0
 23 24  1  0
 23 25  2  0
 25 26  1  0
 25 27  1  0
 27 20  1  0
  8 20  1  0
M  ISO  8  14  13  15  13  16  13  17  13  18  14  19  14  22  16  24  16
M  ISO  1  26  14
M  END
>  <DihAtoms>  (1) 
6,7,19,20

>  <DihDeg>  (1) 
-0.9310440023314273

$$$$
