
     RDKit          3D

 37 40  0  0  0  0  0  0  0  0999 V2000
   45.5480   32.3770   40.4780 Cl  0  0  0  0  0  0  0  0  0  0  0  0
   46.8300   33.4890   40.1410 C   0  0  0  0  0  0  0  0  0  0  0  0
   47.3920   34.2240   41.1380 C   0  0  0  0  0  0  0  0  0  0  0  0
   48.4290   35.1320   40.9090 C   0  0  0  0  0  0  0  0  0  0  0  0
   48.8480   35.2380   39.6040 C   0  0  0  0  0  0  0  0  0  0  0  0
   48.2790   34.4920   38.5860 C   0  0  0  0  0  0  0  0  0  0  0  0
   47.2880   33.6340   38.8450 C   0  0  0  0  0  0  0  0  0  0  0  0
   46.8860   32.8980   44.5410 C   0  0  0  0  0  0  0  0  0  0  0  0
   45.9430   33.8140   45.0930 C   0  0  0  0  0  0  0  0  0  0  0  0
   45.5090   34.8530   44.2890 C   0  0  0  0  0  0  0  0  0  0  0  0
   45.9980   34.9580   43.0120 N   0  0  0  0  0  0  0  0  0  0  0  0
   46.8970   34.0650   42.5230 C   0  0  0  0  0  0  0  0  0  0  0  0
   47.3240   33.0520   43.2960 N   0  0  0  0  0  0  0  0  0  0  0  0
   44.5210   35.8760   44.7550 C   0  0  0  0  0  0  0  0  0  0  0  0
   44.9850   37.1450   44.5270 F   0  0  0  0  0  0  0  0  0  0  0  0
   43.3320   35.6920   44.0510 F   0  0  0  0  0  0  0  0  0  0  0  0
   44.3060   35.6470   46.0840 F   0  0  0  0  0  0  0  0  0  0  0  0
   46.6650   32.8300   37.7920 C   0  0  0  0  0  0  0  0  0  0  0  0
   45.6230   33.2760   36.9710 C   0  0  0  0  0  0  0  0  0  0  0  0
   45.2790   32.2690   36.0940 C   0  0  0  0  0  0  0  0  0  0  0  0
   46.1510   31.2400   36.4350 C   0  0  0  0  0  0  0  0  0  0  0  0
   46.9440   31.6000   37.4270 O   0  0  0  0  0  0  0  0  0  0  0  0
   46.1910   29.9330   35.7880 C   0  0  0  0  0  0  0  0  0  0  0  0
   45.6580   28.7570   36.2720 C   0  0  0  0  0  0  0  0  0  0  0  0
   45.8830   27.7150   35.3950 C   0  0  0  0  0  0  0  0  0  0  0  0
   46.5750   28.3340   34.3700 C   0  0  0  0  0  0  0  0  0  0  0  0
   46.7410   29.6200   34.6220 O   0  0  0  0  0  0  0  0  0  0  0  0
   48.8804   35.7231   41.7195 H   0  0  0  0  0  0  0  0  0  0  0  0
   49.6612   35.9378   39.3609 H   0  0  0  0  0  0  0  0  0  0  0  0
   48.6458   34.6066   37.5553 H   0  0  0  0  0  0  0  0  0  0  0  0
   47.2532   32.0585   45.1497 H   0  0  0  0  0  0  0  0  0  0  0  0
   45.5733   33.6986   46.1226 H   0  0  0  0  0  0  0  0  0  0  0  0
   45.1539   34.2699   37.0178 H   0  0  0  0  0  0  0  0  0  0  0  0
   44.5034   32.2773   35.3141 H   0  0  0  0  0  0  0  0  0  0  0  0
   45.1246   28.6619   37.2293 H   0  0  0  0  0  0  0  0  0  0  0  0
   45.5869   26.6597   35.4879 H   0  0  0  0  0  0  0  0  0  0  0  0
   46.9385   27.8237   33.4659 H   0  0  0  0  0  0  0  0  0  0  0  0
  2  1  1  0
  2  3  2  0
  3 12  1  0
  4  3  1  0
  5  4  2  0
  6  7  2  0
  6  5  1  0
  7  2  1  0
  8  9  2  0
 10 14  1  0
 10  9  1  0
 11 10  2  0
 12 11  1  0
 12 13  2  0
 13  8  1  0
 14 17  1  0
 15 14  1  0
 16 14  1  0
 18  7  1  0
 19 18  2  0
 20 21  2  0
 20 19  1  0
 21 22  1  0
 22 18  1  0
 23 24  2  0
 23 21  1  0
 25 24  1  0
 26 27  1  0
 26 25  2  0
 27 23  1  0
  4 28  1  0
  5 29  1  0
  6 30  1  0
  8 31  1  0
  9 32  1  0
 19 33  1  0
 20 34  1  0
 24 35  1  0
 25 36  1  0
 26 37  1  0
M  ISO  8  28  14  29  14  30  14  31  14  32  14  33  14  34  14  35  14
M  ISO  2  36  14  37  14
M  END
>  <minimizedAffinity>  (1) 
-5.63619566

>  <minimizedRMSD>  (1) 
0.217027754

$$$$
