
     RDKit          3D

 39 41  0  0  0  0  0  0  0  0999 V2000
   46.1827   32.0912   45.4382 C   0  0  0  0  0  0  0  0  0  0  0  0
   45.7606   32.0285   49.1320 C   0  0  0  0  0  0  0  0  0  0  0  0
   46.0490   32.5027   47.8468 C   0  0  0  0  0  0  0  0  0  0  0  0
   45.8788   31.6203   46.7940 C   0  0  0  0  0  0  0  0  0  0  0  0
   45.4402   30.3379   47.0589 N   0  0  0  0  0  0  0  0  0  0  0  0
   45.1721   29.9154   48.3087 C   0  0  0  0  0  0  0  0  0  0  0  0
   45.3366   30.7698   49.3323 N   0  0  0  0  0  0  0  0  0  0  0  0
   46.5419   33.4105   45.4144 O   0  0  0  0  0  0  0  0  0  0  0  0
   44.6401   35.1733   45.2525 O   0  0  0  0  0  0  0  0  0  0  0  0
   45.4600   34.2344   44.4220 P   0  0  2  0  0  0  0  0  0  0  0  0
   44.5203   33.0585   43.6818 O   0  0  0  0  0  0  0  0  0  0  0  0
   46.3474   35.1229   43.3010 O   0  0  0  0  0  0  0  0  0  0  0  0
   47.1187   34.2344   42.5444 C   0  0  1  0  0  0  0  0  0  0  0  0
   46.9551   34.4682   41.0473 C   0  0  0  0  0  0  0  0  0  0  0  0
   48.1028   33.6702   40.4956 C   0  0  0  0  0  0  0  0  0  0  0  0
   49.1617   33.6711   41.5893 C   0  0  0  0  0  0  0  0  0  0  0  0
   48.6050   34.5446   42.7040 C   0  0  2  0  0  0  0  0  0  0  0  0
   47.0767   31.4971   45.1194 H   0  0  0  0  0  0  0  0  0  0  0  0
   45.3782   31.7622   44.7842 H   0  0  0  0  0  0  0  0  0  0  0  0
   45.8701   32.6608   50.0040 H   0  0  0  0  0  0  0  0  0  0  0  0
   46.3865   33.5205   47.7352 H   0  0  0  0  0  0  0  0  0  0  0  0
   44.8324   28.9015   48.4525 H   0  0  0  0  0  0  0  0  0  0  0  0
   43.5774   33.3666   43.5864 H   0  0  0  0  0  0  0  0  0  0  0  0
   46.9711   33.1827   42.7902 H   0  0  0  0  0  0  0  0  0  0  0  0
   46.0049   34.0204   40.7247 H   0  0  0  0  0  0  0  0  0  0  0  0
   47.0305   35.5486   40.8333 H   0  0  0  0  0  0  0  0  0  0  0  0
   47.8167   32.6586   40.1824 H   0  0  0  0  0  0  0  0  0  0  0  0
   48.5227   34.2175   39.6258 H   0  0  0  0  0  0  0  0  0  0  0  0
   49.2356   32.6314   41.9356 H   0  0  0  0  0  0  0  0  0  0  0  0
   50.1264   34.0537   41.2057 H   0  0  0  0  0  0  0  0  0  0  0  0
   48.7670   35.6114   42.4255 H   0  0  0  0  0  0  0  0  0  0  0  0
   49.1683   34.1981   44.0052 C   0  0  0  0  0  0  0  0  0  0  0  0
   50.2546   33.3190   44.1025 C   0  0  0  0  0  0  0  0  0  0  0  0
   50.8651   32.7615   43.4351 H   0  0  0  0  0  0  0  0  0  0  0  0
   50.5244   33.2177   45.4637 C   0  0  0  0  0  0  0  0  0  0  0  0
   51.2883   32.6393   45.9879 H   0  0  0  0  0  0  0  0  0  0  0  0
   49.5922   34.0361   46.1109 C   0  0  0  0  0  0  0  0  0  0  0  0
   49.5637   34.1537   47.1891 H   0  0  0  0  0  0  0  0  0  0  0  0
   48.8296   34.5808   45.2145 O   0  0  0  0  0  0  0  0  0  0  0  0
  1  4  1  0
  2  7  2  0
  3  2  1  0
  4  5  1  0
  4  3  2  0
  5  6  2  0
  6  7  1  0
  8  1  1  0
 10  9  2  0
 10  8  1  1
 11 10  1  0
 12 10  1  0
 13 17  1  0
 13 12  1  0
 14 13  1  0
 15 14  1  0
 15 16  1  0
 16 17  1  0
  1 18  1  0
  1 19  1  0
  2 20  1  0
  3 21  1  0
  6 22  1  0
 11 23  1  0
 13 24  1  6
 14 25  1  0
 14 26  1  0
 15 27  1  0
 15 28  1  0
 16 29  1  0
 16 30  1  0
 17 31  1  6
 32 33  2  0
 33 34  1  0
 33 35  1  0
 35 36  1  0
 35 37  2  0
 37 38  1  0
 37 39  1  0
 39 32  1  0
 17 32  1  0
M  ISO  8  18   8  19   8  20  14  21  14  22  14  23   3  24  13  25  13
M  ISO  8  26  13  27  13  28  13  29  13  30  13  31  13  34  16  36  16
M  ISO  1  38  14
M  END
>  <DihAtoms>  (1) 
12,16,31,32

>  <DihDeg>  (1) 
77.57289118938826

$$$$
