
     RDKit          3D

 38 40  0  0  0  0  0  0  0  0999 V2000
   41.8688   35.2473   41.5129 C   0  0  0  0  0  0  0  0  0  0  0  0
   40.9399   36.1023   40.7205 C   0  0  0  0  0  0  0  0  0  0  0  0
   41.7537   36.2898   37.8030 Cl  0  0  0  0  0  0  0  0  0  0  0  0
   40.4528   35.3080   38.3911 C   0  0  0  0  0  0  0  0  0  0  0  0
   40.1634   35.2966   39.7592 C   0  0  0  0  0  0  0  0  0  0  0  0
   39.1139   34.4903   40.1488 C   0  0  0  0  0  0  0  0  0  0  0  0
   38.3233   33.6961   39.3259 C   0  0  0  0  0  0  0  0  0  0  0  0
   38.6426   33.7362   37.9815 C   0  0  0  0  0  0  0  0  0  0  0  0
   37.6980   32.7632   36.8538 Cl  0  0  0  0  0  0  0  0  0  0  0  0
   39.6796   34.5223   37.5331 C   0  0  0  0  0  0  0  0  0  0  0  0
   43.4999   35.0571   40.7824 S   0  0  0  0  0  0  0  0  0  0  0  0
   44.7668   34.7298   41.9972 C   0  0  0  0  0  0  0  0  0  0  0  0
   46.0498   34.5075   41.4978 C   0  0  0  0  0  0  0  0  0  0  0  0
   47.0943   34.2472   42.4016 C   0  0  0  0  0  0  0  0  0  0  0  0
   46.7789   34.2296   43.7123 N   0  0  0  0  0  0  0  0  0  0  0  0
   45.5342   34.4462   44.1764 C   0  0  0  0  0  0  0  0  0  0  0  0
   44.5557   34.6913   43.3115 N   0  0  0  0  0  0  0  0  0  0  0  0
   45.3300   34.3977   45.6121 C   0  0  0  0  0  0  0  0  0  0  0  0
   44.4665   35.1529   46.1100 O   0  0  0  0  0  0  0  0  0  0  0  0
   46.1441   33.4757   46.3599 N   0  0  0  0  0  0  0  0  0  0  0  0
   42.0049   35.7026   42.5203 H   0  0  0  0  0  0  0  0  0  0  0  0
   41.4315   34.2136   41.6080 H   0  0  0  0  0  0  0  0  0  0  0  0
   41.4589   36.9195   40.1767 H   0  0  0  0  0  0  0  0  0  0  0  0
   40.2408   36.6094   41.4375 H   0  0  0  0  0  0  0  0  0  0  0  0
   38.8913   34.4831   41.2100 H   0  0  0  0  0  0  0  0  0  0  0  0
   37.5288   33.1054   39.7383 H   0  0  0  0  0  0  0  0  0  0  0  0
   39.9088   34.5354   36.4743 H   0  0  0  0  0  0  0  0  0  0  0  0
   46.3124   34.5185   40.4640 H   0  0  0  0  0  0  0  0  0  0  0  0
   45.8874   32.5744   46.8208 H   0  0  0  0  0  0  0  0  0  0  0  0
   47.1431   33.7511   46.4554 H   0  0  0  0  0  0  0  0  0  0  0  0
   48.4572   34.0072   41.9396 C   0  0  0  0  0  0  0  0  0  0  0  0
   49.1543   32.8419   42.1805 C   0  0  0  0  0  0  0  0  0  0  0  0
   48.8370   31.9599   42.7172 H   0  0  0  0  0  0  0  0  0  0  0  0
   50.3807   33.0902   41.5521 C   0  0  0  0  0  0  0  0  0  0  0  0
   51.2202   32.4094   41.5116 H   0  0  0  0  0  0  0  0  0  0  0  0
   50.3538   34.3627   40.9811 C   0  0  0  0  0  0  0  0  0  0  0  0
   51.1168   34.8883   40.4203 H   0  0  0  0  0  0  0  0  0  0  0  0
   49.1637   34.8581   41.2537 O   0  0  0  0  0  0  0  0  0  0  0  0
  2  1  1  0
  3  4  1  0
  4  5  2  0
  5  6  1  0
  5  2  1  0
  7  6  2  0
  8  7  1  0
  9  8  1  0
 10  8  2  0
 10  4  1  0
 11  1  1  0
 11 12  1  0
 12 17  1  0
 13 12  2  0
 13 14  1  0
 14 15  2  0
 15 16  1  0
 16 18  1  0
 17 16  2  0
 18 19  2  0
 18 20  1  0
  1 21  1  0
  1 22  1  0
  2 23  1  0
  2 24  1  0
  6 25  1  0
  7 26  1  0
 10 27  1  0
 13 28  1  0
 20 29  1  0
 20 30  1  0
 31 32  2  0
 32 33  1  0
 32 34  1  0
 34 35  1  0
 34 36  2  0
 36 37  1  0
 36 38  1  0
 38 31  1  0
 14 31  1  0
M  ISO  8  21   8  22   8  23   8  24   8  25  14  26  14  27  14  28  14
M  ISO  3  33  16  35  16  37  14
M  END
>  <DihAtoms>  (1) 
12,13,30,31

>  <DihDeg>  (1) 
-0.0028386332161149776

$$$$
