
     RDKit          3D

 36 39  0  0  0  0  0  0  0  0999 V2000
   41.2880   35.5000   42.0560 Cl  0  0  0  0  0  0  0  0  0  0  0  0
   42.0240   34.7480   40.6510 C   0  0  0  0  0  0  0  0  0  0  0  0
   43.2980   34.2850   40.6790 C   0  0  0  0  0  0  0  0  0  0  0  0
   43.7630   33.7170   39.5180 C   0  0  0  0  0  0  0  0  0  0  0  0
   43.0240   33.6040   38.3840 C   0  0  0  0  0  0  0  0  0  0  0  0
   41.7320   34.0770   38.3670 C   0  0  0  0  0  0  0  0  0  0  0  0
   41.2380   34.6510   39.5120 C   0  0  0  0  0  0  0  0  0  0  0  0
   45.3020   35.7090   43.5540 C   0  0  0  0  0  0  0  0  0  0  0  0
   44.5720   35.6110   42.3710 C   0  0  0  0  0  0  0  0  0  0  0  0
   44.0610   34.4190   41.9030 C   0  0  0  0  0  0  0  0  0  0  0  0
   44.3170   33.3190   42.6830 N   0  0  0  0  0  0  0  0  0  0  0  0
   45.0240   33.4240   43.8250 C   0  0  0  0  0  0  0  0  0  0  0  0
   45.5120   34.5820   44.2650 N   0  0  0  0  0  0  0  0  0  0  0  0
   45.1460   33.2050   39.5230 C   0  0  0  0  0  0  0  0  0  0  0  0
   45.4000   32.0610   38.7570 C   0  0  0  0  0  0  0  0  0  0  0  0
   46.7150   31.6720   38.8340 C   0  0  0  0  0  0  0  0  0  0  0  0
   47.7180   32.2750   39.5480 C   0  0  0  0  0  0  0  0  0  0  0  0
   47.3630   33.4030   40.2730 C   0  0  0  0  0  0  0  0  0  0  0  0
   46.0920   33.8150   40.2260 N   0  0  0  0  0  0  0  0  0  0  0  0
   48.3620   34.1120   41.0640 C   0  0  0  0  0  0  0  0  0  0  0  0
   48.4840   35.4820   41.1310 C   0  0  0  0  0  0  0  0  0  0  0  0
   49.5460   35.7170   41.9830 C   0  0  0  0  0  0  0  0  0  0  0  0
   50.0270   34.4860   42.4010 C   0  0  0  0  0  0  0  0  0  0  0  0
   49.2770   33.5640   41.8160 O   0  0  0  0  0  0  0  0  0  0  0  0
   43.4552   33.1378   37.4858 H   0  0  0  0  0  0  0  0  0  0  0  0
   41.1125   33.9974   37.4615 H   0  0  0  0  0  0  0  0  0  0  0  0
   40.2084   35.0380   39.5265 H   0  0  0  0  0  0  0  0  0  0  0  0
   45.6954   36.6769   43.8979 H   0  0  0  0  0  0  0  0  0  0  0  0
   44.3957   36.5249   41.7847 H   0  0  0  0  0  0  0  0  0  0  0  0
   45.2055   32.5157   44.4183 H   0  0  0  0  0  0  0  0  0  0  0  0
   44.6369   31.5359   38.1638 H   0  0  0  0  0  0  0  0  0  0  0  0
   46.9945   30.7770   38.2587 H   0  0  0  0  0  0  0  0  0  0  0  0
   48.7469   31.8860   39.5461 H   0  0  0  0  0  0  0  0  0  0  0  0
   47.8660   36.2315   40.6149 H   0  0  0  0  0  0  0  0  0  0  0  0
   49.9384   36.7019   42.2763 H   0  0  0  0  0  0  0  0  0  0  0  0
   50.8690   34.3089   43.0863 H   0  0  0  0  0  0  0  0  0  0  0  0
  2  3  2  0
  2  1  1  0
  3 10  1  0
  4 14  1  0
  4  3  1  0
  5  4  2  0
  6  5  1  0
  6  7  2  0
  7  2  1  0
  8 13  2  0
  9  8  1  0
 10  9  2  0
 10 11  1  0
 11 12  2  0
 12 13  1  0
 14 19  2  0
 15 16  2  0
 15 14  1  0
 16 17  1  0
 17 18  2  0
 18 20  1  0
 19 18  1  0
 20 21  2  0
 20 24  1  0
 21 22  1  0
 22 23  2  0
 24 23  1  0
  5 25  1  0
  6 26  1  0
  7 27  1  0
  8 28  1  0
  9 29  1  0
 12 30  1  0
 15 31  1  0
 16 32  1  0
 17 33  1  0
 21 34  1  0
 22 35  1  0
 23 36  1  0
M  ISO  8  25  14  26  14  27  14  28  14  29  14  30  14  31  14  32  14
M  ISO  4  33  14  34  14  35  14  36  14
M  END
>  <minimizedAffinity>  (1) 
-5.85901928

>  <minimizedRMSD>  (1) 
3.18397641

$$$$
