
     RDKit          3D

 30 33  0  0  0  0  0  0  0  0999 V2000
   46.9480   35.0180   42.5800 C   0  0  0  0  0  0  0  0  0  0  0  0
   47.9720   34.5160   41.7790 C   0  0  0  0  0  0  0  0  0  0  0  0
   48.5170   33.2730   42.1220 C   0  0  0  0  0  0  0  0  0  0  0  0
   48.0260   32.6090   43.2220 N   0  0  0  0  0  0  0  0  0  0  0  0
   47.0290   33.1390   43.9700 C   0  0  0  0  0  0  0  0  0  0  0  0
   46.4970   34.3320   43.6500 N   0  0  0  0  0  0  0  0  0  0  0  0
   46.2930   31.0330   45.0110 C   0  0  0  0  0  0  0  0  0  0  0  0
   46.5540   32.3800   45.1250 C   0  0  0  0  0  0  0  0  0  0  0  0
   46.3910   33.1000   46.3140 C   0  0  0  0  0  0  0  0  0  0  0  0
   45.9410   32.4190   47.4460 C   0  0  0  0  0  0  0  0  0  0  0  0
   45.6700   32.7690   48.7340 N   0  0  0  0  0  0  0  0  0  0  0  0
   45.2500   31.6440   49.3960 C   0  0  0  0  0  0  0  0  0  0  0  0
   45.2690   30.6200   48.4940 N   0  0  0  0  0  0  0  0  0  0  0  0
   45.6880   31.0750   47.3020 C   0  0  0  0  0  0  0  0  0  0  0  0
   45.8420   30.3550   46.1450 C   0  0  0  0  0  0  0  0  0  0  0  0
   49.5910   32.6300   41.3720 C   0  0  0  0  0  0  0  0  0  0  0  0
   50.8800   32.5170   41.9010 C   0  0  0  0  0  0  0  0  0  0  0  0
   51.6770   31.8690   40.9760 C   0  0  0  0  0  0  0  0  0  0  0  0
   50.8250   31.6190   39.9210 C   0  0  0  0  0  0  0  0  0  0  0  0
   49.6230   32.0740   40.1850 O   0  0  0  0  0  0  0  0  0  0  0  0
   46.4992   35.9919   42.3349 H   0  0  0  0  0  0  0  0  0  0  0  0
   48.3394   35.0772   40.9072 H   0  0  0  0  0  0  0  0  0  0  0  0
   46.4355   30.5070   44.0555 H   0  0  0  0  0  0  0  0  0  0  0  0
   46.6122   34.1767   46.3553 H   0  0  0  0  0  0  0  0  0  0  0  0
   45.7639   33.7114   49.1389 H   0  0  0  0  0  0  0  0  0  0  0  0
   44.9539   31.5792   50.4534 H   0  0  0  0  0  0  0  0  0  0  0  0
   45.6175   29.2787   46.1116 H   0  0  0  0  0  0  0  0  0  0  0  0
   51.2050   32.8819   42.8865 H   0  0  0  0  0  0  0  0  0  0  0  0
   52.7432   31.6124   41.0616 H   0  0  0  0  0  0  0  0  0  0  0  0
   51.1126   31.1098   38.9893 H   0  0  0  0  0  0  0  0  0  0  0  0
  1  6  2  0
  2  3  2  0
  2  1  1  0
  3  4  1  0
  4  5  2  0
  5  8  1  0
  6  5  1  0
  7  8  2  0
  7 15  1  0
  8  9  1  0
  9 10  2  0
 10 11  1  0
 11 12  1  0
 13 12  2  0
 14 10  1  0
 14 13  1  0
 15 14  2  0
 16 17  2  0
 16  3  1  0
 18 17  1  0
 19 20  1  0
 19 18  2  0
 20 16  1  0
  1 21  1  0
  2 22  1  0
  7 23  1  0
  9 24  1  0
 11 25  1  0
 12 26  1  0
 15 27  1  0
 17 28  1  0
 18 29  1  0
 19 30  1  0
M  ISO  8  21  14  22  14  23  14  24  14  25   9  26  14  27  14  28  14
M  ISO  2  29  14  30  14
M  END
>  <minimizedAffinity>  (1) 
-5.59459591

>  <minimizedRMSD>  (1) 
1.03787816

$$$$
