
     RDKit          3D

 44 48  0  0  0  0  0  0  0  0999 V2000
   47.5352   32.6739   44.2711 C   0  0  0  0  0  0  0  0  0  0  0  0
   46.8392   33.6443   43.5560 C   0  0  0  0  0  0  0  0  0  0  0  0
   45.7831   34.3664   44.0917 C   0  0  0  0  0  0  0  0  0  0  0  0
   45.3890   34.1157   45.4159 C   0  0  0  0  0  0  0  0  0  0  0  0
   44.4475   34.5963   46.2459 N   0  0  0  0  0  0  0  0  0  0  0  0
   44.5286   33.9686   47.4413 C   0  0  0  0  0  0  0  0  0  0  0  0
   45.5362   33.0985   47.3214 N   0  0  0  0  0  0  0  0  0  0  0  0
   46.0884   33.1570   46.0989 C   0  0  0  0  0  0  0  0  0  0  0  0
   47.1507   32.4186   45.5858 C   0  0  0  0  0  0  0  0  0  0  0  0
   47.0685   33.4267   39.9035 C   0  0  0  0  0  0  0  0  0  0  0  0
   47.9745   34.4398   39.5908 C   0  0  0  0  0  0  0  0  0  0  0  0
   48.4982   35.1890   40.6428 C   0  0  0  0  0  0  0  0  0  0  0  0
   48.1108   34.9078   41.9223 N   0  0  0  0  0  0  0  0  0  0  0  0
   47.2341   33.9207   42.1747 C   0  0  0  0  0  0  0  0  0  0  0  0
   46.6958   33.1639   41.1931 N   0  0  0  0  0  0  0  0  0  0  0  0
   44.9096   35.5951   43.1709 S   0  0  0  0  0  0  0  0  0  0  0  0
   42.3205   35.5994   42.6975 N   0  0  0  0  0  0  0  0  0  0  0  0
   43.5195   34.9405   42.2094 C   0  0  1  0  0  0  0  0  0  0  0  0
   43.8073   35.3024   40.7525 C   0  0  0  0  0  0  0  0  0  0  0  0
   42.6767   35.3067   39.9605 O   0  0  0  0  0  0  0  0  0  0  0  0
   41.5485   34.7765   40.5311 C   0  0  0  0  0  0  0  0  0  0  0  0
   41.2222   35.5243   41.7902 C   0  0  2  0  0  0  0  0  0  0  0  0
   48.3440   32.1545   43.7880 H   0  0  0  0  0  0  0  0  0  0  0  0
   43.7578   35.3488   45.9892 H   0  0  0  0  0  0  0  0  0  0  0  0
   43.8938   34.1543   48.3001 H   0  0  0  0  0  0  0  0  0  0  0  0
   47.6811   31.6766   46.1361 H   0  0  0  0  0  0  0  0  0  0  0  0
   46.6684   32.8503   39.0693 H   0  0  0  0  0  0  0  0  0  0  0  0
   48.2602   34.6366   38.5678 H   0  0  0  0  0  0  0  0  0  0  0  0
   49.2095   35.9909   40.4460 H   0  0  0  0  0  0  0  0  0  0  0  0
   42.1078   35.1728   43.6163 H   0  0  0  0  0  0  0  0  0  0  0  0
   43.4106   33.8455   42.3243 H   0  0  0  0  0  0  0  0  0  0  0  0
   44.4331   34.5209   40.3206 H   0  0  0  0  0  0  0  0  0  0  0  0
   44.3630   36.2597   40.6755 H   0  0  0  0  0  0  0  0  0  0  0  0
   41.7274   33.7160   40.7931 H   0  0  0  0  0  0  0  0  0  0  0  0
   40.7369   34.8375   39.8098 H   0  0  0  0  0  0  0  0  0  0  0  0
   40.3845   34.9733   42.2875 H   0  0  0  0  0  0  0  0  0  0  0  0
   40.7295   36.8939   41.5123 C   0  0  0  0  0  0  0  0  0  0  0  0
   39.3953   37.2462   41.4996 C   0  0  0  0  0  0  0  0  0  0  0  0
   38.5449   36.5840   41.6869 H   0  0  0  0  0  0  0  0  0  0  0  0
   39.3918   38.6103   41.1991 C   0  0  0  0  0  0  0  0  0  0  0  0
   38.4399   39.1233   41.1324 H   0  0  0  0  0  0  0  0  0  0  0  0
   40.7302   38.9892   41.0504 C   0  0  0  0  0  0  0  0  0  0  0  0
   40.8432   40.0380   40.8137 H   0  0  0  0  0  0  0  0  0  0  0  0
   41.4855   37.9245   41.2483 O   0  0  0  0  0  0  0  0  0  0  0  0
  1  9  2  0
  2  3  2  0
  2  1  1  0
  3  4  1  0
  4  8  2  0
  4  5  1  0
  5  6  1  0
  7  6  2  0
  8  7  1  0
  9  8  1  0
 10 15  2  0
 11 10  1  0
 11 12  2  0
 12 13  1  0
 13 14  2  0
 14  2  1  0
 15 14  1  0
 16  3  1  0
 18 17  1  0
 18 16  1  0
 19 18  1  0
 20 21  1  0
 20 19  1  0
 21 22  1  0
 22 17  1  0
  1 23  1  0
  5 24  1  0
  6 25  1  0
  9 26  1  0
 10 27  1  0
 11 28  1  0
 12 29  1  0
 17 30  1  0
 18 31  1  6
 19 32  1  0
 19 33  1  0
 21 34  1  0
 21 35  1  0
 22 36  1  1
 37 38  2  0
 38 39  1  0
 38 40  1  0
 40 41  1  0
 40 42  2  0
 42 43  1  0
 42 44  1  0
 44 37  1  0
 22 37  1  0
M  ISO  8  23  14  24   9  25  14  26  14  27  14  28  14  29  14  30   5
M  ISO  8  31  13  32  13  33  13  34  13  35  13  36  13  39  16  41  16
M  ISO  1  43  14
M  END
>  <DihAtoms>  (1) 
20,21,36,37

>  <DihDeg>  (1) 
8.967004406673299

$$$$
