
     RDKit          3D

 27 29  0  0  0  0  0  0  0  0999 V2000
   44.7030   36.2370   42.7890 Cl  0  0  0  0  0  0  0  0  0  0  0  0
   45.3790   35.0760   43.8880 C   0  0  0  0  0  0  0  0  0  0  0  0
   46.4610   34.3080   43.5170 C   0  0  0  0  0  0  0  0  0  0  0  0
   46.9110   33.4250   44.4630 C   0  0  0  0  0  0  0  0  0  0  0  0
   46.3810   33.2520   45.7200 C   0  0  0  0  0  0  0  0  0  0  0  0
   45.3040   34.0320   46.0610 C   0  0  0  0  0  0  0  0  0  0  0  0
   44.6450   33.7920   47.6650 Cl  0  0  0  0  0  0  0  0  0  0  0  0
   44.8020   34.9410   45.1540 C   0  0  0  0  0  0  0  0  0  0  0  0
   48.7160   35.4120   40.8700 C   0  0  0  0  0  0  0  0  0  0  0  0
   48.2810   34.6820   39.7590 C   0  0  0  0  0  0  0  0  0  0  0  0
   47.1950   33.7960   39.9190 C   0  0  0  0  0  0  0  0  0  0  0  0
   46.6370   33.7070   41.1520 N   0  0  0  0  0  0  0  0  0  0  0  0
   47.0790   34.4270   42.2110 C   0  0  0  0  0  0  0  0  0  0  0  0
   48.1130   35.2730   42.0650 N   0  0  0  0  0  0  0  0  0  0  0  0
   46.9440   32.2780   46.6500 C   0  0  0  0  0  0  0  0  0  0  0  0
   46.8760   30.9090   46.4930 C   0  0  0  0  0  0  0  0  0  0  0  0
   47.5260   30.3730   47.5830 C   0  0  0  0  0  0  0  0  0  0  0  0
   47.9620   31.4470   48.3580 C   0  0  0  0  0  0  0  0  0  0  0  0
   47.5910   32.5440   47.7600 O   0  0  0  0  0  0  0  0  0  0  0  0
   47.7736   32.7982   44.1927 H   0  0  0  0  0  0  0  0  0  0  0  0
   43.9395   35.5658   45.4292 H   0  0  0  0  0  0  0  0  0  0  0  0
   49.5613   36.1082   40.7657 H   0  0  0  0  0  0  0  0  0  0  0  0
   48.7746   34.7962   38.7826 H   0  0  0  0  0  0  0  0  0  0  0  0
   46.8152   33.2001   39.0760 H   0  0  0  0  0  0  0  0  0  0  0  0
   46.4007   30.3588   45.6675 H   0  0  0  0  0  0  0  0  0  0  0  0
   47.6726   29.3046   47.7999 H   0  0  0  0  0  0  0  0  0  0  0  0
   48.5190   31.3804   49.3042 H   0  0  0  0  0  0  0  0  0  0  0  0
  1  2  1  0
  2  8  2  0
  3  2  1  0
  3  4  2  0
  4  5  1  0
  5  6  2  0
  5 15  1  0
  6  7  1  0
  8  6  1  0
  9 14  2  0
 10 11  2  0
 10  9  1  0
 11 12  1  0
 12 13  2  0
 13  3  1  0
 14 13  1  0
 15 19  1  0
 16 15  2  0
 16 17  1  0
 17 18  2  0
 19 18  1  0
  4 20  1  0
  8 21  1  0
  9 22  1  0
 10 23  1  0
 11 24  1  0
 16 25  1  0
 17 26  1  0
 18 27  1  0
M  ISO  8  20  14  21  14  22  14  23  14  24  14  25  14  26  14  27  14
M  END
>  <minimizedAffinity>  (1) 
-5.66332674

>  <minimizedRMSD>  (1) 
0.732854962

$$$$
