
     RDKit          3D

 20 21  0  0  0  0  0  0  0  0999 V2000
   45.1480   34.7850   44.9430 C   0  0  0  0  0  0  0  0  0  0  0  0
   46.0190   34.5630   43.8820 C   0  0  0  0  0  0  0  0  0  0  0  0
   46.9640   33.5430   44.0350 C   0  0  0  0  0  0  0  0  0  0  0  0
   46.9840   32.8320   45.1950 N   0  0  0  0  0  0  0  0  0  0  0  0
   46.1140   33.0910   46.1930 C   0  0  0  0  0  0  0  0  0  0  0  0
   45.1920   34.0640   46.0810 N   0  0  0  0  0  0  0  0  0  0  0  0
   46.1500   32.3140   47.4380 C   0  0  0  0  0  0  0  0  0  0  0  0
   45.0250   32.1450   48.2520 C   0  0  0  0  0  0  0  0  0  0  0  0
   45.4980   31.3720   49.2800 C   0  0  0  0  0  0  0  0  0  0  0  0
   46.8360   31.0990   49.0810 C   0  0  0  0  0  0  0  0  0  0  0  0
   47.1870   31.6950   47.9460 O   0  0  0  0  0  0  0  0  0  0  0  0
   45.8810   35.4120   42.6840 C   0  0  0  0  0  0  0  0  0  0  0  0
   45.2620   36.5770   43.1020 F   0  0  0  0  0  0  0  0  0  0  0  0
   45.0840   34.7610   41.7700 F   0  0  0  0  0  0  0  0  0  0  0  0
   47.1510   35.6440   42.1640 F   0  0  0  0  0  0  0  0  0  0  0  0
   44.3936   35.5801   44.8500 H   0  0  0  0  0  0  0  0  0  0  0  0
   47.6797   33.3192   43.2302 H   0  0  0  0  0  0  0  0  0  0  0  0
   44.0081   32.5372   48.1032 H   0  0  0  0  0  0  0  0  0  0  0  0
   44.9010   31.0219   50.1350 H   0  0  0  0  0  0  0  0  0  0  0  0
   47.4875   30.5023   49.7364 H   0  0  0  0  0  0  0  0  0  0  0  0
  1  6  2  0
  2  3  2  0
  2  1  1  0
  3  4  1  0
  4  5  2  0
  5  7  1  0
  6  5  1  0
  7 11  1  0
  7  8  2  0
  8  9  1  0
 10  9  2  0
 11 10  1  0
 12 13  1  0
 12  2  1  0
 14 12  1  0
 15 12  1  0
  1 16  1  0
  3 17  1  0
  8 18  1  0
  9 19  1  0
 10 20  1  0
M  ISO  5  16  14  17  14  18  14  19  14  20  14
M  END
>  <minimizedAffinity>  (1) 
-5.13749027

>  <minimizedRMSD>  (1) 
0.529004693

$$$$
