
     RDKit          3D

 36 38  0  0  0  0  0  0  0  0999 V2000
   43.5000   34.9840   40.7540 S   0  0  0  0  0  0  0  0  0  0  0  0
   44.7710   34.6910   41.9870 C   0  0  0  0  0  0  0  0  0  0  0  0
   46.0820   34.5320   41.5090 C   0  0  0  0  0  0  0  0  0  0  0  0
   47.1060   34.3010   42.4350 C   0  0  0  0  0  0  0  0  0  0  0  0
   46.7670   34.2430   43.7560 N   0  0  0  0  0  0  0  0  0  0  0  0
   45.5050   34.3970   44.1970 C   0  0  0  0  0  0  0  0  0  0  0  0
   44.5470   34.6150   43.3010 N   0  0  0  0  0  0  0  0  0  0  0  0
   45.2680   34.3160   45.6220 C   0  0  0  0  0  0  0  0  0  0  0  0
   44.5010   35.1880   46.1220 O   0  0  0  0  0  0  0  0  0  0  0  0
   45.8590   33.2970   46.4830 C   0  0  0  0  0  0  0  0  0  0  0  0
   45.2370   32.8260   47.6210 C   0  0  0  0  0  0  0  0  0  0  0  0
   46.1190   31.8910   48.1300 C   0  0  0  0  0  0  0  0  0  0  0  0
   47.2310   31.8380   47.2810 C   0  0  0  0  0  0  0  0  0  0  0  0
   47.0030   32.7010   46.3260 O   0  0  0  0  0  0  0  0  0  0  0  0
   41.8650   35.1090   41.4720 C   0  0  0  0  0  0  0  0  0  0  0  0
   40.9540   36.0110   40.7080 C   0  0  0  0  0  0  0  0  0  0  0  0
   41.7970   36.2700   37.7980 Cl  0  0  0  0  0  0  0  0  0  0  0  0
   40.4690   35.3000   38.3350 C   0  0  0  0  0  0  0  0  0  0  0  0
   40.1630   35.2500   39.7070 C   0  0  0  0  0  0  0  0  0  0  0  0
   39.0930   34.4600   40.0630 C   0  0  0  0  0  0  0  0  0  0  0  0
   38.2890   33.7070   39.2090 C   0  0  0  0  0  0  0  0  0  0  0  0
   38.6180   33.7800   37.8690 C   0  0  0  0  0  0  0  0  0  0  0  0
   37.6580   32.8630   36.7050 Cl  0  0  0  0  0  0  0  0  0  0  0  0
   39.6750   34.5530   37.4560 C   0  0  0  0  0  0  0  0  0  0  0  0
   46.2990   34.5877   40.4321 H   0  0  0  0  0  0  0  0  0  0  0  0
   48.1485   34.1706   42.1092 H   0  0  0  0  0  0  0  0  0  0  0  0
   44.2611   33.1262   48.0303 H   0  0  0  0  0  0  0  0  0  0  0  0
   45.9728   31.2936   49.0420 H   0  0  0  0  0  0  0  0  0  0  0  0
   48.1186   31.1984   47.3948 H   0  0  0  0  0  0  0  0  0  0  0  0
   41.4183   34.1042   41.5010 H   0  0  0  0  0  0  0  0  0  0  0  0
   41.9820   35.5388   42.4778 H   0  0  0  0  0  0  0  0  0  0  0  0
   40.2656   36.5044   41.4099 H   0  0  0  0  0  0  0  0  0  0  0  0
   41.5649   36.7559   40.1771 H   0  0  0  0  0  0  0  0  0  0  0  0
   38.8467   34.4188   41.1343 H   0  0  0  0  0  0  0  0  0  0  0  0
   37.4507   33.0969   39.5764 H   0  0  0  0  0  0  0  0  0  0  0  0
   39.9096   34.5872   36.3819 H   0  0  0  0  0  0  0  0  0  0  0  0
  1 15  1  0
  1  2  1  0
  2  7  1  0
  3  2  2  0
  3  4  1  0
  4  5  2  0
  5  6  1  0
  6  8  1  0
  7  6  2  0
  8  9  2  0
  8 10  1  0
 10 11  2  0
 11 12  1  0
 13 12  2  0
 14 10  1  0
 14 13  1  0
 16 15  1  0
 17 18  1  0
 18 19  2  0
 19 20  1  0
 19 16  1  0
 21 20  2  0
 22 21  1  0
 23 22  1  0
 24 22  2  0
 24 18  1  0
  3 25  1  0
  4 26  1  0
 11 27  1  0
 12 28  1  0
 13 29  1  0
 15 30  1  0
 15 31  1  0
 16 32  1  0
 16 33  1  0
 20 34  1  0
 21 35  1  0
 24 36  1  0
M  ISO  8  25  14  26  14  27  14  28  14  29  14  30   8  31   8  32   8
M  ISO  4  33   8  34  14  35  14  36  14
M  END
>  <minimizedAffinity>  (1) 
-6.79146862

>  <minimizedRMSD>  (1) 
0.15942964

$$$$
