
     RDKit          3D

 36 38  0  0  0  0  0  0  0  0999 V2000
   41.8997   35.2276   41.5301 C   0  0  0  0  0  0  0  0  0  0  0  0
   40.9728   36.0943   40.7427 C   0  0  0  0  0  0  0  0  0  0  0  0
   41.7667   36.2950   37.8145 Cl  0  0  0  0  0  0  0  0  0  0  0  0
   40.4691   35.3124   38.3970 C   0  0  0  0  0  0  0  0  0  0  0  0
   40.1843   35.2913   39.7742 C   0  0  0  0  0  0  0  0  0  0  0  0
   39.1374   34.4866   40.1671 C   0  0  0  0  0  0  0  0  0  0  0  0
   38.3366   33.6961   39.3444 C   0  0  0  0  0  0  0  0  0  0  0  0
   38.6444   33.7410   37.9979 C   0  0  0  0  0  0  0  0  0  0  0  0
   37.6866   32.7736   36.8731 Cl  0  0  0  0  0  0  0  0  0  0  0  0
   39.6779   34.5259   37.5486 C   0  0  0  0  0  0  0  0  0  0  0  0
   43.5163   35.0600   40.7786 S   0  0  0  0  0  0  0  0  0  0  0  0
   44.8007   34.7137   41.9829 C   0  0  0  0  0  0  0  0  0  0  0  0
   46.1023   34.5486   41.4813 C   0  0  0  0  0  0  0  0  0  0  0  0
   47.1355   34.2772   42.3842 C   0  0  0  0  0  0  0  0  0  0  0  0
   46.8158   34.1882   43.7082 N   0  0  0  0  0  0  0  0  0  0  0  0
   45.5642   34.3489   44.1729 C   0  0  0  0  0  0  0  0  0  0  0  0
   44.5960   34.6064   43.2977 N   0  0  0  0  0  0  0  0  0  0  0  0
   45.3466   34.2317   45.5992 C   0  0  0  0  0  0  0  0  0  0  0  0
   44.5430   35.0564   46.1214 O   0  0  0  0  0  0  0  0  0  0  0  0
   42.0376   35.6338   42.5493 H   0  0  0  0  0  0  0  0  0  0  0  0
   41.4440   34.2142   41.5806 H   0  0  0  0  0  0  0  0  0  0  0  0
   41.4500   36.9463   40.2330 H   0  0  0  0  0  0  0  0  0  0  0  0
   40.2300   36.5375   41.4436 H   0  0  0  0  0  0  0  0  0  0  0  0
   38.9394   34.4891   41.2351 H   0  0  0  0  0  0  0  0  0  0  0  0
   37.5441   33.1061   39.7648 H   0  0  0  0  0  0  0  0  0  0  0  0
   39.8800   34.5263   36.4779 H   0  0  0  0  0  0  0  0  0  0  0  0
   46.2844   34.6321   40.4225 H   0  0  0  0  0  0  0  0  0  0  0  0
   48.1273   34.1491   42.0229 H   0  0  0  0  0  0  0  0  0  0  0  0
   45.9976   33.2299   46.4360 C   0  0  0  0  0  0  0  0  0  0  0  0
   47.0932   32.5030   46.0175 C   0  0  0  0  0  0  0  0  0  0  0  0
   47.6298   32.5439   45.0564 H   0  0  0  0  0  0  0  0  0  0  0  0
   47.3890   31.6839   47.0911 C   0  0  0  0  0  0  0  0  0  0  0  0
   48.2208   30.9774   47.0679 H   0  0  0  0  0  0  0  0  0  0  0  0
   46.4637   31.9501   48.1070 C   0  0  0  0  0  0  0  0  0  0  0  0
   46.5496   31.3916   49.0295 H   0  0  0  0  0  0  0  0  0  0  0  0
   45.6691   32.8798   47.6438 O   0  0  0  0  0  0  0  0  0  0  0  0
  2  1  1  0
  3  4  1  0
  4  5  2  0
  5  6  1  0
  5  2  1  0
  7  6  2  0
  8  7  1  0
  9  8  1  0
 10  8  2  0
 10  4  1  0
 11  1  1  0
 11 12  1  0
 12 17  1  0
 13 12  2  0
 13 14  1  0
 14 15  2  0
 15 16  1  0
 16 18  1  0
 17 16  2  0
 18 19  2  0
  1 20  1  0
  1 21  1  0
  2 22  1  0
  2 23  1  0
  6 24  1  0
  7 25  1  0
 10 26  1  0
 13 27  1  0
 14 28  1  0
 29 30  2  0
 30 31  1  0
 30 32  1  0
 32 33  1  0
 32 34  2  0
 34 35  1  0
 34 36  1  0
 36 29  1  0
 18 29  1  0
M  ISO  8  20   8  21   8  22   8  23   8  24  14  25  14  26  14  27  14
M  ISO  4  28  14  31  16  33  16  35  14
M  END
>  <DihAtoms>  (1) 
15,17,28,29

>  <DihDeg>  (1) 
179.99929869087157

$$$$
