
     RDKit          3D

 49 52  0  0  0  0  0  0  0  0999 V2000
   44.5907   34.4253   42.9389 C   0  0  0  0  0  0  0  0  0  0  0  0
   44.3077   35.6920   43.5564 C   0  0  0  0  0  0  0  0  0  0  0  0
   44.6281   35.8184   44.8976 C   0  0  0  0  0  0  0  0  0  0  0  0
   45.1822   34.7521   45.5378 N   0  0  0  0  0  0  0  0  0  0  0  0
   45.4320   33.5630   44.8996 C   0  0  0  0  0  0  0  0  0  0  0  0
   45.1356   33.4434   43.6534 N   0  0  0  0  0  0  0  0  0  0  0  0
   46.0293   32.4593   45.6799 C   0  0  1  0  0  0  0  0  0  0  0  0
   46.9744   32.7810   46.8117 C   0  0  0  0  0  0  0  0  0  0  0  0
   45.5490   32.3649   47.0847 C   0  0  1  0  0  0  0  0  0  0  0  0
   44.7484   33.4229   47.6546 N   0  0  0  0  0  0  0  0  0  0  0  0
   44.2413   34.3149   41.5487 C   0  0  0  0  0  0  0  0  0  0  0  0
   45.1133   34.1593   40.6370 O   0  0  0  0  0  0  0  0  0  0  0  0
   41.9912   33.3118   41.3025 C   0  0  0  0  0  0  0  0  0  0  0  0
   42.8128   34.4016   41.3091 C   0  0  0  0  0  0  0  0  0  0  0  0
   42.2306   35.6610   41.0677 C   0  0  0  0  0  0  0  0  0  0  0  0
   40.8906   35.8475   40.8294 C   0  0  0  0  0  0  0  0  0  0  0  0
   40.0761   34.7484   40.8261 C   0  0  0  0  0  0  0  0  0  0  0  0
   40.6296   33.5248   41.0578 C   0  0  0  0  0  0  0  0  0  0  0  0
   42.5334   31.7610   41.6747 S   0  0  0  0  0  0  0  0  0  0  0  0
   42.3883   31.0712   40.2808 O   0  0  0  0  0  0  0  0  0  0  0  0
   41.6363   31.0392   42.6046 O   0  0  0  0  0  0  0  0  0  0  0  0
   43.8837   36.5633   43.1325 H   0  0  0  0  0  0  0  0  0  0  0  0
   44.4678   36.7133   45.4789 H   0  0  0  0  0  0  0  0  0  0  0  0
   46.2765   31.5390   45.1551 H   0  0  0  0  0  0  0  0  0  0  0  0
   47.7945   32.0644   47.0532 H   0  0  0  0  0  0  0  0  0  0  0  0
   47.2824   33.8392   46.9846 H   0  0  0  0  0  0  0  0  0  0  0  0
   45.3573   31.3448   47.4673 H   0  0  0  0  0  0  0  0  0  0  0  0
   43.8695   33.6077   47.1622 H   0  0  0  0  0  0  0  0  0  0  0  0
   45.2733   34.2567   47.9601 H   0  0  0  0  0  0  0  0  0  0  0  0
   42.8041   36.5837   41.0442 H   0  0  0  0  0  0  0  0  0  0  0  0
   40.4588   36.8014   40.6479 H   0  0  0  0  0  0  0  0  0  0  0  0
   39.0180   34.8013   40.6492 H   0  0  0  0  0  0  0  0  0  0  0  0
   39.9676   32.6451   41.0530 H   0  0  0  0  0  0  0  0  0  0  0  0
   45.0077   32.2108   38.3084 N   0  0  0  0  0  0  0  0  0  0  0  0
   44.3070   31.4965   39.1277 C   0  0  0  0  0  0  0  0  0  0  0  0
   43.0961   31.1306   38.4847 N   0  0  0  0  0  0  0  0  0  0  0  0
   44.7816   31.1376   40.4857 C   0  0  0  0  0  0  0  0  0  0  0  0
   44.0964   31.1357   41.7332 C   0  0  0  0  0  0  0  0  0  0  0  0
   44.9184   30.6681   42.7729 C   0  0  0  0  0  0  0  0  0  0  0  0
   44.3529   30.7225   43.7243 H   0  0  0  0  0  0  0  0  0  0  0  0
   46.2237   30.2291   42.7775 C   0  0  0  0  0  0  0  0  0  0  0  0
   46.6270   29.9182   43.7182 H   0  0  0  0  0  0  0  0  0  0  0  0
   46.7281   30.2947   41.5164 C   0  0  0  0  0  0  0  0  0  0  0  0
   46.0903   30.7159   40.4022 C   0  0  0  0  0  0  0  0  0  0  0  0
   44.5619   32.3685   37.3785 H   0  0  0  0  0  0  0  0  0  0  0  0
   43.0521   30.6761   37.5463 H   0  0  0  0  0  0  0  0  0  0  0  0
   42.0826   30.9929   38.2962 H   0  0  0  0  0  0  0  0  0  0  0  0
   47.7736   29.9438   41.4997 H   0  0  0  0  0  0  0  0  0  0  0  0
   46.7165   30.6761   39.4967 H   0  0  0  0  0  0  0  0  0  0  0  0
  1  2  2  0
  1  6  1  0
  2  3  1  0
  3  4  2  0
  5  4  1  0
  5  7  1  0
  6  5  2  0
  7  8  1  0
  7  9  1  0
  8  9  1  0
  9 10  1  0
 11  1  1  0
 12 11  2  0
 13 19  1  0
 14 13  1  0
 14 11  1  0
 15 14  2  0
 16 17  2  0
 16 15  1  0
 17 18  1  0
 18 13  2  0
 19 21  2  0
 20 19  2  0
  2 22  1  0
  3 23  1  0
  7 24  1  6
  8 25  1  0
  8 26  1  0
  9 27  1  1
 10 28  1  0
 10 29  1  0
 15 30  1  0
 16 31  1  0
 17 32  1  0
 18 33  1  0
 34 35  2  3
 35 36  1  0
 35 37  1  0
 37 38  2  0
 38 39  1  0
 39 40  1  0
 39 41  2  0
 41 42  1  0
 41 43  1  0
 43 44  2  0
 44 37  1  0
 34 45  1  0
 36 46  1  0
 36 47  1  0
 43 48  1  0
 44 49  1  0
 19 38  1  0
M  ISO  8  22  14  23  14  24  13  25  13  26  13  27  13  28   5  29   5
M  ISO  6  30  14  31  14  32  14  33  14  40  15  42  16
M  END
>  <DihAtoms>  (1) 
12,18,37,36

>  <DihDeg>  (1) 
131.53587439469686

$$$$
