
     RDKit          3D

 38 40  0  0  0  0  0  0  0  0999 V2000
   46.6114   34.4210   41.4478 C   0  0  0  0  0  0  0  0  0  0  0  0
   47.8963   34.9182   41.2433 C   0  0  0  0  0  0  0  0  0  0  0  0
   48.5163   34.6476   40.0359 C   0  0  0  0  0  0  0  0  0  0  0  0
   47.8716   33.9138   39.0865 C   0  0  0  0  0  0  0  0  0  0  0  0
   46.6125   33.4134   39.2590 C   0  0  0  0  0  0  0  0  0  0  0  0
   46.0159   33.7010   40.4803 C   0  0  0  0  0  0  0  0  0  0  0  0
   44.6839   36.0604   44.2668 C   0  0  0  0  0  0  0  0  0  0  0  0
   45.2323   35.8602   42.9787 C   0  0  0  0  0  0  0  0  0  0  0  0
   45.9942   34.7320   42.7403 C   0  0  0  0  0  0  0  0  0  0  0  0
   46.1750   33.8706   43.7684 N   0  0  0  0  0  0  0  0  0  0  0  0
   45.6498   34.0619   45.0017 C   0  0  0  0  0  0  0  0  0  0  0  0
   44.9046   35.1564   45.2510 N   0  0  0  0  0  0  0  0  0  0  0  0
   48.5652   35.7086   42.3085 C   0  0  0  0  0  0  0  0  0  0  0  0
   49.5158   35.0133   39.8324 H   0  0  0  0  0  0  0  0  0  0  0  0
   48.3428   33.6899   38.1294 H   0  0  0  0  0  0  0  0  0  0  0  0
   46.0238   32.8219   38.5627 H   0  0  0  0  0  0  0  0  0  0  0  0
   45.0168   33.3414   40.6977 H   0  0  0  0  0  0  0  0  0  0  0  0
   44.0917   36.9423   44.4469 H   0  0  0  0  0  0  0  0  0  0  0  0
   45.0800   36.5601   42.1632 H   0  0  0  0  0  0  0  0  0  0  0  0
   45.8958   33.2761   45.6931 H   0  0  0  0  0  0  0  0  0  0  0  0
   48.6686   35.0542   43.2224 H   0  0  0  0  0  0  0  0  0  0  0  0
   47.8985   36.5237   42.6312 H   0  0  0  0  0  0  0  0  0  0  0  0
   47.5742   38.5014   41.7050 N   0  0  0  0  0  0  0  0  0  0  0  0
   48.8505   38.4329   41.8237 C   0  0  0  0  0  0  0  0  0  0  0  0
   48.9594   39.7823   42.2455 N   0  0  0  0  0  0  0  0  0  0  0  0
   50.0067   37.5811   41.6952 C   0  0  0  0  0  0  0  0  0  0  0  0
   49.8807   36.2324   41.9391 C   0  0  0  0  0  0  0  0  0  0  0  0
   50.9738   35.4128   41.8275 C   0  0  0  0  0  0  0  0  0  0  0  0
   50.8686   34.3661   42.0187 H   0  0  0  0  0  0  0  0  0  0  0  0
   52.1712   35.9925   41.4682 C   0  0  0  0  0  0  0  0  0  0  0  0
   53.0379   35.3358   41.3805 H   0  0  0  0  0  0  0  0  0  0  0  0
   52.2741   37.3467   41.2280 C   0  0  0  0  0  0  0  0  0  0  0  0
   51.1798   38.2095   41.3331 C   0  0  0  0  0  0  0  0  0  0  0  0
   47.0312   39.3544   41.9049 H   0  0  0  0  0  0  0  0  0  0  0  0
   49.0658   40.0361   43.2705 H   0  0  0  0  0  0  0  0  0  0  0  0
   49.0280   40.8036   42.4178 H   0  0  0  0  0  0  0  0  0  0  0  0
   53.2586   37.7208   40.9490 H   0  0  0  0  0  0  0  0  0  0  0  0
   51.2836   39.2488   41.1437 H   0  0  0  0  0  0  0  0  0  0  0  0
  1  9  1  0
  2  1  1  0
  2 13  1  0
  3  2  2  0
  4  5  2  0
  4  3  1  0
  5  6  1  0
  6  1  2  0
  7 12  2  0
  8  7  1  0
  9  8  2  0
  9 10  1  0
 10 11  2  0
 11 12  1  0
  3 14  1  0
  4 15  1  0
  5 16  1  0
  6 17  1  0
  7 18  1  0
  8 19  1  0
 11 20  1  0
 13 21  1  0
 13 22  1  0
 23 24  2  3
 24 25  1  0
 24 26  1  0
 26 27  2  0
 27 28  1  0
 28 29  1  0
 28 30  2  0
 30 31  1  0
 30 32  1  0
 32 33  2  0
 33 26  1  0
 23 34  1  0
 25 35  1  0
 25 36  1  0
 32 37  1  0
 33 38  1  0
 13 27  1  0
M  ISO  8  14  14  15  14  16  14  17  14  18  14  19  14  20  14  21   8
M  ISO  3  22   8  29  15  31  16
M  END
>  <DihAtoms>  (1) 
1,12,26,25

>  <DihDeg>  (1) 
77.28858321492554

$$$$
