
     RDKit          3D

 29 30  0  0  0  0  0  0  0  0999 V2000
   44.9048   35.1049   44.9413 C   0  0  0  0  0  0  0  0  0  0  0  0
   45.8124   34.7552   43.9498 C   0  0  0  0  0  0  0  0  0  0  0  0
   46.6824   33.6928   44.2175 C   0  0  0  0  0  0  0  0  0  0  0  0
   46.6049   33.0645   45.4053 N   0  0  0  0  0  0  0  0  0  0  0  0
   45.7094   33.4358   46.3405 C   0  0  0  0  0  0  0  0  0  0  0  0
   44.8637   34.4454   46.1183 N   0  0  0  0  0  0  0  0  0  0  0  0
   45.7852   35.5425   42.6873 C   0  0  0  0  0  0  0  0  0  0  0  0
   45.3629   36.8103   43.0462 F   0  0  0  0  0  0  0  0  0  0  0  0
   44.9163   34.9455   41.8146 F   0  0  0  0  0  0  0  0  0  0  0  0
   47.0755   35.5482   42.1616 F   0  0  0  0  0  0  0  0  0  0  0  0
   45.6287   32.7898   47.5657 O   0  0  0  0  0  0  0  0  0  0  0  0
   44.2060   35.9173   44.7942 H   0  0  0  0  0  0  0  0  0  0  0  0
   47.3727   33.4369   43.4460 H   0  0  0  0  0  0  0  0  0  0  0  0
   46.2804   30.2943   49.2446 N   0  0  0  0  0  0  0  0  0  0  0  0
   45.6978   31.2435   49.8953 C   0  0  0  0  0  0  0  0  0  0  0  0
   46.2762   30.9498   51.1599 N   0  0  0  0  0  0  0  0  0  0  0  0
   44.7706   32.3601   49.7493 C   0  0  0  0  0  0  0  0  0  0  0  0
   44.7594   33.0962   48.5828 C   0  0  0  0  0  0  0  0  0  0  0  0
   43.8524   34.1348   48.4858 C   0  0  0  0  0  0  0  0  0  0  0  0
   43.7940   34.7516   47.5927 H   0  0  0  0  0  0  0  0  0  0  0  0
   43.0091   34.3786   49.5596 C   0  0  0  0  0  0  0  0  0  0  0  0
   42.3123   35.1968   49.4520 H   0  0  0  0  0  0  0  0  0  0  0  0
   43.0495   33.6207   50.7116 C   0  0  0  0  0  0  0  0  0  0  0  0
   43.9483   32.5734   50.8365 C   0  0  0  0  0  0  0  0  0  0  0  0
   46.1525   30.1131   48.2405 H   0  0  0  0  0  0  0  0  0  0  0  0
   46.6886   30.7056   52.0617 H   0  0  0  0  0  0  0  0  0  0  0  0
   46.6283   31.5916   51.9310 H   0  0  0  0  0  0  0  0  0  0  0  0
   42.3581   33.8553   51.5366 H   0  0  0  0  0  0  0  0  0  0  0  0
   43.9940   31.9688   51.7320 H   0  0  0  0  0  0  0  0  0  0  0  0
  1  6  2  0
  2  3  2  0
  2  1  1  0
  3  4  1  0
  4  5  2  0
  5 11  1  0
  6  5  1  0
  7  8  1  0
  7  2  1  0
  9  7  1  0
 10  7  1  0
  1 12  1  0
  3 13  1  0
 14 15  2  3
 15 16  1  0
 15 17  1  0
 17 18  2  0
 18 19  1  0
 19 20  1  0
 19 21  2  0
 21 22  1  0
 21 23  1  0
 23 24  2  0
 24 17  1  0
 14 25  1  0
 16 26  1  0
 16 27  1  0
 23 28  1  0
 24 29  1  0
 11 18  1  0
M  ISO  4  12  14  13  14  20  15  22  16
M  END
>  <DihAtoms>  (1) 
4,10,17,16

>  <DihDeg>  (1) 
-60.87518738155062

$$$$
