
     RDKit          3D

 52 55  0  0  0  0  0  0  0  0999 V2000
   43.4217   35.2673   42.0829 C   0  0  0  0  0  0  0  0  0  0  0  0
   46.6375   33.5324   42.7162 C   0  0  0  0  0  0  0  0  0  0  0  0
   46.7589   33.7791   44.0407 C   0  0  0  0  0  0  0  0  0  0  0  0
   45.2314   34.7564   44.3786 S   0  0  0  0  0  0  0  0  0  0  0  0
   44.6836   34.6532   42.6089 C   0  0  0  0  0  0  0  0  0  0  0  0
   45.5597   34.0421   42.2049 N   0  0  0  0  0  0  0  0  0  0  0  0
   49.3653   32.5529   40.3206 C   0  0  0  0  0  0  0  0  0  0  0  0
   48.4520   33.3595   41.0317 C   0  0  0  0  0  0  0  0  0  0  0  0
   47.6136   32.7720   41.9372 C   0  0  0  0  0  0  0  0  0  0  0  0
   47.7311   31.3870   42.0897 N   0  0  0  0  0  0  0  0  0  0  0  0
   48.6158   30.6578   41.3912 C   0  0  0  0  0  0  0  0  0  0  0  0
   49.4357   31.2353   40.5050 N   0  0  0  0  0  0  0  0  0  0  0  0
   48.4724   34.7422   40.7500 N   0  0  0  0  0  0  0  0  0  0  0  0
   43.4820   35.4552   40.6142 C   0  0  0  0  0  0  0  0  0  0  0  0
   42.3196   35.0694   39.8573 C   0  0  0  0  0  0  0  0  0  0  0  0
   41.9920   35.3271   38.5409 C   0  0  0  0  0  0  0  0  0  0  0  0
   40.8463   34.9158   37.8929 C   0  0  0  0  0  0  0  0  0  0  0  0
   39.9541   34.1784   38.6460 C   0  0  0  0  0  0  0  0  0  0  0  0
   40.2939   33.9234   39.9734 C   0  0  0  0  0  0  0  0  0  0  0  0
   41.4133   34.3349   40.5772 N   0  0  0  0  0  0  0  0  0  0  0  0
   39.2721   33.1238   40.7019 C   0  0  0  0  0  0  0  0  0  0  0  0
   37.9955   33.6539   40.4531 F   0  0  0  0  0  0  0  0  0  0  0  0
   39.5432   32.9789   42.0258 F   0  0  0  0  0  0  0  0  0  0  0  0
   39.2322   31.8256   40.1680 F   0  0  0  0  0  0  0  0  0  0  0  0
   38.4691   33.5924   37.8808 S   0  0  0  0  0  0  0  0  0  0  0  0
   43.2620   36.2127   42.6465 H   0  0  0  0  0  0  0  0  0  0  0  0
   42.6219   34.5659   42.3668 H   0  0  0  0  0  0  0  0  0  0  0  0
   47.5301   33.4937   44.7390 H   0  0  0  0  0  0  0  0  0  0  0  0
   50.0272   33.0200   39.6054 H   0  0  0  0  0  0  0  0  0  0  0  0
   48.5746   29.6049   41.6308 H   0  0  0  0  0  0  0  0  0  0  0  0
   47.7756   35.2888   40.1718 H   0  0  0  0  0  0  0  0  0  0  0  0
   49.1244   35.5203   41.0158 H   0  0  0  0  0  0  0  0  0  0  0  0
   43.6992   36.5320   40.4181 H   0  0  0  0  0  0  0  0  0  0  0  0
   44.3813   34.9048   40.2358 H   0  0  0  0  0  0  0  0  0  0  0  0
   42.7534   35.9117   38.0326 H   0  0  0  0  0  0  0  0  0  0  0  0
   40.7151   35.1868   36.8592 H   0  0  0  0  0  0  0  0  0  0  0  0
   35.0461   34.0428   35.1585 N   0  0  0  0  0  0  0  0  0  0  0  0
   36.1840   34.4274   35.6804 C   0  0  0  0  0  0  0  0  0  0  0  0
   36.8513   34.0019   34.5168 N   0  0  0  0  0  0  0  0  0  0  0  0
   36.1319   35.0213   36.9983 C   0  0  0  0  0  0  0  0  0  0  0  0
   37.1038   34.6522   37.8578 C   0  0  0  0  0  0  0  0  0  0  0  0
   37.0119   35.2684   39.1160 C   0  0  0  0  0  0  0  0  0  0  0  0
   37.6292   35.1909   40.0235 H   0  0  0  0  0  0  0  0  0  0  0  0
   35.9795   36.1751   39.3892 C   0  0  0  0  0  0  0  0  0  0  0  0
   35.8145   36.7079   40.3261 H   0  0  0  0  0  0  0  0  0  0  0  0
   35.0238   36.4971   38.4503 C   0  0  0  0  0  0  0  0  0  0  0  0
   35.1085   35.8983   37.2202 C   0  0  0  0  0  0  0  0  0  0  0  0
   34.1525   34.1519   35.6765 H   0  0  0  0  0  0  0  0  0  0  0  0
   37.0821   34.6157   33.7042 H   0  0  0  0  0  0  0  0  0  0  0  0
   37.0892   34.6053   33.6949 H   0  0  0  0  0  0  0  0  0  0  0  0
   34.2099   37.1936   38.6245 H   0  0  0  0  0  0  0  0  0  0  0  0
   34.3865   36.1138   36.4483 H   0  0  0  0  0  0  0  0  0  0  0  0
  1  5  1  0
  2  3  2  0
  3  4  1  0
  5  4  1  0
  6  5  2  0
  6  2  1  0
  7 12  2  0
  7  8  1  0
  8  9  2  0
  9 10  1  0
  9  2  1  0
 11 10  2  0
 12 11  1  0
 13  8  1  0
 14  1  1  0
 15 20  1  0
 15 14  1  0
 16 15  2  0
 17 16  1  0
 17 18  2  0
 18 19  1  0
 19 20  2  0
 19 21  1  0
 21 23  1  0
 22 21  1  0
 24 21  1  0
 25 18  1  0
  1 26  1  0
  1 27  1  0
  3 28  1  0
  7 29  1  0
 11 30  1  0
 13 31  1  0
 13 32  1  0
 14 33  1  0
 14 34  1  0
 16 35  1  0
 17 36  1  0
 37 38  2  3
 38 39  1  0
 38 40  1  0
 40 41  2  0
 41 42  1  0
 42 43  1  0
 42 44  2  0
 44 45  1  0
 44 46  1  0
 46 47  2  0
 47 40  1  0
 37 48  1  0
 39 49  1  0
 39 50  1  0
 46 51  1  0
 47 52  1  0
 25 41  1  0
M  ISO  8  26   8  27   8  28  14  29  14  30  14  33   8  34   8  35  14
M  ISO  3  36  14  43  15  45  16
M  END
>  <DihAtoms>  (1) 
17,24,40,39

>  <DihDeg>  (1) 
3.5630337224741484

$$$$
