
     RDKit          3D

 50 52  0  0  0  0  0  0  0  0999 V2000
   45.1563   32.1134   48.1866 O   0  0  0  0  0  0  0  0  0  0  0  0
   46.9782   30.5728   48.2112 C   0  0  2  0  0  0  0  0  0  0  0  0
   45.5261   30.8021   48.3747 C   0  0  2  0  0  0  0  0  0  0  0  0
   44.8693   29.8857   47.4637 C   0  0  0  0  0  0  0  0  0  0  0  0
   45.7418   28.8272   47.1748 O   0  0  0  0  0  0  0  0  0  0  0  0
   46.8306   29.0184   47.9560 C   0  0  0  0  0  0  0  0  0  0  0  0
   47.7573   30.7268   49.2911 O   0  0  0  0  0  0  0  0  0  0  0  0
   49.0076   31.0899   49.2973 C   0  0  0  0  0  0  0  0  0  0  0  0
   49.7376   30.3095   50.3742 C   0  0  0  0  0  0  0  0  0  0  0  0
   47.1660   32.9994   46.9501 O   0  0  0  0  0  0  0  0  0  0  0  0
   45.7287   32.6740   46.7484 P   0  0  1  0  0  0  0  0  0  0  0  0
   45.5860   31.4704   45.5648 O   0  0  0  0  0  0  0  0  0  0  0  0
   44.9890   34.1365   46.2650 O   0  0  0  0  0  0  0  0  0  0  0  0
   44.9646   36.3875   43.4996 C   0  0  0  0  0  0  0  0  0  0  0  0
   45.0380   35.5315   42.3456 C   0  0  0  0  0  0  0  0  0  0  0  0
   45.0954   34.1556   42.5995 C   0  0  0  0  0  0  0  0  0  0  0  0
   45.0786   33.7235   43.8726 N   0  0  0  0  0  0  0  0  0  0  0  0
   45.0086   34.5659   44.9211 C   0  0  0  0  0  0  0  0  0  0  0  0
   44.9525   35.8888   44.7255 N   0  0  0  0  0  0  0  0  0  0  0  0
   44.9028   37.7422   43.2592 O   0  0  0  0  0  0  0  0  0  0  0  0
   47.4354   30.7744   47.2288 H   0  0  0  0  0  0  0  0  0  0  0  0
   45.3729   30.6587   49.4805 H   0  0  0  0  0  0  0  0  0  0  0  0
   44.1759   29.2946   48.1637 H   0  0  0  0  0  0  0  0  0  0  0  0
   44.1329   30.1479   46.7388 H   0  0  0  0  0  0  0  0  0  0  0  0
   46.6706   28.6313   48.9993 H   0  0  0  0  0  0  0  0  0  0  0  0
   47.7806   28.5970   47.6307 H   0  0  0  0  0  0  0  0  0  0  0  0
   49.2918   32.0858   49.1475 H   0  0  0  0  0  0  0  0  0  0  0  0
   49.5371   30.6082   48.3156 H   0  0  0  0  0  0  0  0  0  0  0  0
   49.3253   30.5011   51.3813 H   0  0  0  0  0  0  0  0  0  0  0  0
   50.8252   30.5116   50.2992 H   0  0  0  0  0  0  0  0  0  0  0  0
   49.6219   29.2258   50.1032 H   0  0  0  0  0  0  0  0  0  0  0  0
   46.3423   31.5184   44.9304 H   0  0  0  0  0  0  0  0  0  0  0  0
   45.0423   35.8122   41.3237 H   0  0  0  0  0  0  0  0  0  0  0  0
   45.1527   33.4452   41.7827 H   0  0  0  0  0  0  0  0  0  0  0  0
   43.7917   35.4126   42.1545 N   0  0  0  0  0  0  0  0  0  0  0  0
   43.4787   36.2699   41.2335 C   0  0  0  0  0  0  0  0  0  0  0  0
   42.3507   36.0421   40.4063 N   0  0  0  0  0  0  0  0  0  0  0  0
   44.2708   37.4892   41.0203 C   0  0  0  0  0  0  0  0  0  0  0  0
   44.9838   38.2258   41.9743 C   0  0  0  0  0  0  0  0  0  0  0  0
   45.6872   39.3343   41.5663 C   0  0  0  0  0  0  0  0  0  0  0  0
   46.2118   39.8439   42.3793 H   0  0  0  0  0  0  0  0  0  0  0  0
   45.7324   39.7690   40.2603 C   0  0  0  0  0  0  0  0  0  0  0  0
   46.2911   40.6349   39.9873 H   0  0  0  0  0  0  0  0  0  0  0  0
   45.0528   39.0837   39.2960 C   0  0  0  0  0  0  0  0  0  0  0  0
   44.3438   37.9624   39.7186 C   0  0  0  0  0  0  0  0  0  0  0  0
   43.2090   34.5768   42.2666 H   0  0  0  0  0  0  0  0  0  0  0  0
   41.3385   35.8804   40.3069 H   0  0  0  0  0  0  0  0  0  0  0  0
   42.3853   35.9787   39.3684 H   0  0  0  0  0  0  0  0  0  0  0  0
   45.0522   39.3763   38.2651 H   0  0  0  0  0  0  0  0  0  0  0  0
   43.8069   37.4314   38.9203 H   0  0  0  0  0  0  0  0  0  0  0  0
  1  3  1  0
  2  3  1  0
  2  7  1  0
  4  3  1  0
  5  4  1  0
  5  6  1  0
  6  2  1  0
  8  7  1  0
  8  9  1  0
 11 10  2  0
 11  1  1  1
 12 11  1  0
 13 11  1  0
 14 19  2  0
 15 16  2  0
 15 14  1  0
 16 17  1  0
 17 18  2  0
 18 13  1  0
 19 18  1  0
 20 14  1  0
  2 21  1  6
  3 22  1  1
  4 23  1  0
  4 24  1  0
  6 25  1  0
  6 26  1  0
  8 27  1  0
  8 28  1  0
  9 29  1  0
  9 30  1  0
  9 31  1  0
 12 32  1  0
 15 33  1  0
 16 34  1  0
 35 36  2  3
 36 37  1  0
 36 38  1  0
 38 39  2  0
 39 40  1  0
 40 41  1  0
 40 42  2  0
 42 43  1  0
 42 44  1  0
 44 45  2  0
 45 38  1  0
 35 46  1  0
 37 47  1  0
 37 48  1  0
 44 49  1  0
 45 50  1  0
 20 39  1  0
M  ISO  8  21  13  22  13  23  13  24  13  25  13  26  13  27   8  28   8
M  ISO  8  29   8  30   8  31   8  32   3  33  14  34  14  41  15  43  16
M  END
>  <DihAtoms>  (1) 
13,19,38,37

>  <DihDeg>  (1) 
-63.875460377711704

$$$$
