
     RDKit          3D

 52 55  0  0  0  0  0  0  0  0999 V2000
   43.4217   35.2673   42.0829 C   0  0  0  0  0  0  0  0  0  0  0  0
   46.6375   33.5324   42.7162 C   0  0  0  0  0  0  0  0  0  0  0  0
   46.7589   33.7791   44.0407 C   0  0  0  0  0  0  0  0  0  0  0  0
   45.2314   34.7564   44.3786 S   0  0  0  0  0  0  0  0  0  0  0  0
   44.6836   34.6532   42.6089 C   0  0  0  0  0  0  0  0  0  0  0  0
   45.5597   34.0421   42.2049 N   0  0  0  0  0  0  0  0  0  0  0  0
   49.3653   32.5529   40.3206 C   0  0  0  0  0  0  0  0  0  0  0  0
   48.4520   33.3595   41.0317 C   0  0  0  0  0  0  0  0  0  0  0  0
   47.6136   32.7720   41.9372 C   0  0  0  0  0  0  0  0  0  0  0  0
   47.7311   31.3870   42.0897 N   0  0  0  0  0  0  0  0  0  0  0  0
   48.6158   30.6578   41.3912 C   0  0  0  0  0  0  0  0  0  0  0  0
   49.4357   31.2353   40.5050 N   0  0  0  0  0  0  0  0  0  0  0  0
   48.4724   34.7422   40.7500 N   0  0  0  0  0  0  0  0  0  0  0  0
   43.4820   35.4552   40.6142 C   0  0  0  0  0  0  0  0  0  0  0  0
   42.3196   35.0694   39.8573 C   0  0  0  0  0  0  0  0  0  0  0  0
   41.9920   35.3271   38.5409 C   0  0  0  0  0  0  0  0  0  0  0  0
   40.8463   34.9158   37.8929 C   0  0  0  0  0  0  0  0  0  0  0  0
   39.9541   34.1784   38.6460 C   0  0  0  0  0  0  0  0  0  0  0  0
   40.2939   33.9234   39.9734 C   0  0  0  0  0  0  0  0  0  0  0  0
   41.4133   34.3349   40.5772 N   0  0  0  0  0  0  0  0  0  0  0  0
   39.2721   33.1238   40.7019 C   0  0  0  0  0  0  0  0  0  0  0  0
   37.9955   33.6539   40.4531 F   0  0  0  0  0  0  0  0  0  0  0  0
   39.5432   32.9789   42.0258 F   0  0  0  0  0  0  0  0  0  0  0  0
   39.2322   31.8256   40.1680 F   0  0  0  0  0  0  0  0  0  0  0  0
   38.4691   33.5924   37.8808 S   0  0  0  0  0  0  0  0  0  0  0  0
   43.2620   36.2127   42.6465 H   0  0  0  0  0  0  0  0  0  0  0  0
   42.6219   34.5659   42.3668 H   0  0  0  0  0  0  0  0  0  0  0  0
   47.5301   33.4937   44.7390 H   0  0  0  0  0  0  0  0  0  0  0  0
   50.0272   33.0200   39.6054 H   0  0  0  0  0  0  0  0  0  0  0  0
   48.5746   29.6049   41.6308 H   0  0  0  0  0  0  0  0  0  0  0  0
   47.7756   35.2888   40.1718 H   0  0  0  0  0  0  0  0  0  0  0  0
   49.1244   35.5203   41.0158 H   0  0  0  0  0  0  0  0  0  0  0  0
   43.6992   36.5320   40.4181 H   0  0  0  0  0  0  0  0  0  0  0  0
   44.3813   34.9048   40.2358 H   0  0  0  0  0  0  0  0  0  0  0  0
   42.7534   35.9117   38.0326 H   0  0  0  0  0  0  0  0  0  0  0  0
   40.7151   35.1868   36.8592 H   0  0  0  0  0  0  0  0  0  0  0  0
   36.1565   35.6007   41.0350 N   0  0  0  0  0  0  0  0  0  0  0  0
   36.3209   34.6997   40.0989 C   0  0  0  0  0  0  0  0  0  0  0  0
   36.5221   33.7204   41.0893 N   0  0  0  0  0  0  0  0  0  0  0  0
   36.2026   35.1499   38.7294 C   0  0  0  0  0  0  0  0  0  0  0  0
   37.1038   34.6522   37.8578 C   0  0  0  0  0  0  0  0  0  0  0  0
   36.9340   35.1122   36.5422 C   0  0  0  0  0  0  0  0  0  0  0  0
   37.4836   34.9076   35.6113 H   0  0  0  0  0  0  0  0  0  0  0  0
   35.9019   36.0066   36.2301 C   0  0  0  0  0  0  0  0  0  0  0  0
   35.6804   36.4250   35.2478 H   0  0  0  0  0  0  0  0  0  0  0  0
   35.0219   36.4672   37.1851 C   0  0  0  0  0  0  0  0  0  0  0  0
   35.1831   36.0215   38.4713 C   0  0  0  0  0  0  0  0  0  0  0  0
   35.9611   36.5930   40.7983 H   0  0  0  0  0  0  0  0  0  0  0  0
   35.7753   33.1008   41.4747 H   0  0  0  0  0  0  0  0  0  0  0  0
   35.7837   33.0926   41.4850 H   0  0  0  0  0  0  0  0  0  0  0  0
   34.2112   37.1597   36.9821 H   0  0  0  0  0  0  0  0  0  0  0  0
   34.5227   36.3502   39.2582 H   0  0  0  0  0  0  0  0  0  0  0  0
  1  5  1  0
  2  3  2  0
  3  4  1  0
  5  4  1  0
  6  5  2  0
  6  2  1  0
  7 12  2  0
  7  8  1  0
  8  9  2  0
  9 10  1  0
  9  2  1  0
 11 10  2  0
 12 11  1  0
 13  8  1  0
 14  1  1  0
 15 20  1  0
 15 14  1  0
 16 15  2  0
 17 16  1  0
 17 18  2  0
 18 19  1  0
 19 20  2  0
 19 21  1  0
 21 23  1  0
 22 21  1  0
 24 21  1  0
 25 18  1  0
  1 26  1  0
  1 27  1  0
  3 28  1  0
  7 29  1  0
 11 30  1  0
 13 31  1  0
 13 32  1  0
 14 33  1  0
 14 34  1  0
 16 35  1  0
 17 36  1  0
 37 38  2  3
 38 39  1  0
 38 40  1  0
 40 41  2  0
 41 42  1  0
 42 43  1  0
 42 44  2  0
 44 45  1  0
 44 46  1  0
 46 47  2  0
 47 40  1  0
 37 48  1  0
 39 49  1  0
 39 50  1  0
 46 51  1  0
 47 52  1  0
 25 41  1  0
M  ISO  8  26   8  27   8  28  14  29  14  30  14  33   8  34   8  35  14
M  ISO  3  36  14  43  15  45  16
M  END
>  <DihAtoms>  (1) 
17,24,40,39

>  <DihDeg>  (1) 
3.5630337224741484

$$$$
