
     RDKit          3D

 39 41  0  0  1  0  0  0  0  0999 V2000
   47.9890   33.7250   42.5570 N   0  0  0  0  0  0  0  0  0  0  0  0
   47.9910   32.7760   41.4620 C   0  0  0  0  0  0  0  0  0  0  0  0
   49.2910   32.0920   41.7430 C   0  0  2  0  0  0  0  0  0  0  0  0
   50.2170   33.2730   41.9370 C   0  0  0  0  0  0  0  0  0  0  0  0
   49.3270   34.2790   42.6240 C   0  0  0  0  0  0  0  0  0  0  0  0
   45.5970   33.9470   45.4060 C   0  0  0  0  0  0  0  0  0  0  0  0
   46.6580   33.4840   44.6370 C   0  0  0  0  0  0  0  0  0  0  0  0
   46.9490   34.0930   43.4270 C   0  0  0  0  0  0  0  0  0  0  0  0
   46.1510   35.1510   43.0380 N   0  0  0  0  0  0  0  0  0  0  0  0
   45.1170   35.5860   43.8060 C   0  0  0  0  0  0  0  0  0  0  0  0
   44.8440   34.9760   44.9970 N   0  0  0  0  0  0  0  0  0  0  0  0
   49.7730   31.3230   40.6340 N   0  0  0  0  0  0  0  0  0  0  0  0
   51.2940   31.6380   38.7150 C   0  0  0  0  0  0  0  0  0  0  0  0
   51.0520   31.2710   40.0220 C   0  0  0  0  0  0  0  0  0  0  0  0
   52.1870   30.8590   40.6860 C   0  0  0  0  0  0  0  0  0  0  0  0
   53.4400   30.8060   40.1380 C   0  0  0  0  0  0  0  0  0  0  0  0
   53.6260   31.1810   38.8360 C   0  0  0  0  0  0  0  0  0  0  0  0
   52.5240   31.6000   38.1320 C   0  0  0  0  0  0  0  0  0  0  0  0
   49.2410   31.3350   37.5370 N   0  0  0  0  0  0  0  0  0  0  0  0
   50.2210   32.1020   37.8710 C   0  0  0  0  0  0  0  0  0  0  0  0
   49.7500   33.2240   37.1560 N   0  0  0  0  0  0  0  0  0  0  0  0
   48.4630   31.6450   36.9310 H   0  0  0  0  0  0  0  0  0  0  0  0
   47.9924   33.2770   40.4827 H   0  0  0  0  0  0  0  0  0  0  0  0
   47.1126   32.1160   41.4081 H   0  0  0  0  0  0  0  0  0  0  0  0
   49.2114   31.3858   42.5826 H   0  0  0  0  0  0  0  0  0  0  0  0
   51.0756   33.0047   42.5701 H   0  0  0  0  0  0  0  0  0  0  0  0
   50.6549   33.6446   40.9988 H   0  0  0  0  0  0  0  0  0  0  0  0
   49.3684   35.2471   42.1033 H   0  0  0  0  0  0  0  0  0  0  0  0
   49.6417   34.4589   43.6626 H   0  0  0  0  0  0  0  0  0  0  0  0
   45.3721   33.4602   46.3664 H   0  0  0  0  0  0  0  0  0  0  0  0
   47.2650   32.6365   44.9880 H   0  0  0  0  0  0  0  0  0  0  0  0
   44.4992   36.4308   43.4675 H   0  0  0  0  0  0  0  0  0  0  0  0
   49.0706   30.7015   40.2082 H   0  0  0  0  0  0  0  0  0  0  0  0
   52.0777   30.5493   41.7358 H   0  0  0  0  0  0  0  0  0  0  0  0
   54.2933   30.4635   40.7418 H   0  0  0  0  0  0  0  0  0  0  0  0
   54.6218   31.1482   38.3699 H   0  0  0  0  0  0  0  0  0  0  0  0
   52.6364   31.9093   37.0824 H   0  0  0  0  0  0  0  0  0  0  0  0
   50.2855   34.1038   37.1672 H   0  0  0  0  0  0  0  0  0  0  0  0
   48.8707   33.1631   36.6230 H   0  0  0  0  0  0  0  0  0  0  0  0
  1  5  1  0
  1  8  1  0
  2  3  1  0
  2  1  1  0
  3  4  1  0
  4  5  1  0
  7  6  2  0
  8  7  1  0
  9  8  2  0
  9 10  1  0
 10 11  2  0
 11  6  1  0
 12  3  1  0
 13 14  2  0
 14 12  1  0
 14 15  1  0
 16 15  2  0
 17 16  1  0
 18 13  1  0
 18 17  2  0
 19 20  2  0
 20 13  1  0
 21 20  1  0
 22 19  1  0
  2 23  1  0
  2 24  1  0
  3 25  1  1
  4 26  1  0
  4 27  1  0
  5 28  1  0
  5 29  1  0
  6 30  1  0
  7 31  1  0
 10 32  1  0
 12 33  1  0
 15 34  1  0
 16 35  1  0
 17 36  1  0
 18 37  1  0
 21 38  1  0
 21 39  1  0
M  ISO  8  23  13  24  13  25  13  26  13  27  13  28  13  29  13  30  14
M  ISO  6  31  14  32  14  34  14  35  14  36  14  37  14
M  END
>  <minimizedAffinity>  (1) 
-4.92509508

>  <minimizedRMSD>  (1) 
4.46486664

$$$$
