
     RDKit          3D

 36 38  0  0  0  0  0  0  0  0999 V2000
   45.9910   32.7410   46.8920 C   0  0  0  0  0  0  0  0  0  0  0  0
   47.0900   31.9140   46.8870 C   0  0  0  0  0  0  0  0  0  0  0  0
   47.3280   31.0320   47.9200 C   0  0  0  0  0  0  0  0  0  0  0  0
   46.4640   30.9510   49.0010 C   0  0  0  0  0  0  0  0  0  0  0  0
   45.3630   31.7710   49.0200 C   0  0  0  0  0  0  0  0  0  0  0  0
   45.1430   32.6460   47.9760 C   0  0  0  0  0  0  0  0  0  0  0  0
   44.5660   35.5350   45.0100 C   0  0  0  0  0  0  0  0  0  0  0  0
   45.2190   35.4730   43.7740 C   0  0  0  0  0  0  0  0  0  0  0  0
   46.1670   34.4520   43.5860 C   0  0  0  0  0  0  0  0  0  0  0  0
   46.4140   33.5670   44.6010 N   0  0  0  0  0  0  0  0  0  0  0  0
   45.7430   33.6760   45.7910 C   0  0  0  0  0  0  0  0  0  0  0  0
   44.8220   34.6550   45.9980 N   0  0  0  0  0  0  0  0  0  0  0  0
   48.7790   29.9860   47.8430 S   0  0  0  0  0  0  0  0  0  0  0  0
   50.1730   28.8400   49.7900 C   0  0  0  0  0  0  0  0  0  0  0  0
   49.7080   30.0530   49.3580 C   0  0  0  0  0  0  0  0  0  0  0  0
   49.9970   31.1550   50.1150 C   0  0  0  0  0  0  0  0  0  0  0  0
   50.7300   31.0730   51.2750 C   0  0  0  0  0  0  0  0  0  0  0  0
   51.2050   29.8540   51.7190 C   0  0  0  0  0  0  0  0  0  0  0  0
   50.9160   28.7270   50.9570 C   0  0  0  0  0  0  0  0  0  0  0  0
   48.9600   26.7390   49.0700 N   0  0  0  0  0  0  0  0  0  0  0  0
   49.9520   27.5650   49.0960 C   0  0  0  0  0  0  0  0  0  0  0  0
   51.0690   27.1880   48.3020 N   0  0  0  0  0  0  0  0  0  0  0  0
   48.0750   26.8690   49.5910 H   0  0  0  0  0  0  0  0  0  0  0  0
   47.7931   31.9570   46.0421 H   0  0  0  0  0  0  0  0  0  0  0  0
   46.6559   30.2466   49.8238 H   0  0  0  0  0  0  0  0  0  0  0  0
   44.6590   31.7306   49.8642 H   0  0  0  0  0  0  0  0  0  0  0  0
   44.2550   33.2944   48.0094 H   0  0  0  0  0  0  0  0  0  0  0  0
   43.8210   36.3262   45.1804 H   0  0  0  0  0  0  0  0  0  0  0  0
   44.9982   36.1982   42.9769 H   0  0  0  0  0  0  0  0  0  0  0  0
   46.7060   34.3649   42.6311 H   0  0  0  0  0  0  0  0  0  0  0  0
   49.6311   32.1384   49.7849 H   0  0  0  0  0  0  0  0  0  0  0  0
   50.9399   31.9845   51.8539 H   0  0  0  0  0  0  0  0  0  0  0  0
   51.7929   29.7773   52.6455 H   0  0  0  0  0  0  0  0  0  0  0  0
   51.2784   27.7403   51.2811 H   0  0  0  0  0  0  0  0  0  0  0  0
   51.9029   27.7915   48.2667 H   0  0  0  0  0  0  0  0  0  0  0  0
   51.0445   26.3113   47.7620 H   0  0  0  0  0  0  0  0  0  0  0  0
  1  6  1  0
  2  1  2  0
  2  3  1  0
  3  4  2  0
  4  5  1  0
  6  5  2  0
  7 12  2  0
  8  7  1  0
  9  8  2  0
  9 10  1  0
 10 11  2  0
 11 12  1  0
 11  1  1  0
 13  3  1  0
 13 15  1  0
 14 19  2  0
 15 14  1  0
 15 16  2  0
 16 17  1  0
 17 18  2  0
 19 18  1  0
 20 21  2  0
 20 23  1  0
 21 14  1  0
 22 21  1  0
  2 24  1  0
  4 25  1  0
  5 26  1  0
  6 27  1  0
  7 28  1  0
  8 29  1  0
  9 30  1  0
 16 31  1  0
 17 32  1  0
 18 33  1  0
 19 34  1  0
 22 35  1  0
 22 36  1  0
M  ISO  8  24  14  25  14  26  14  27  14  28  14  29  14  30  14  31  14
M  ISO  3  32  14  33  14  34  14
M  END
>  <minimizedAffinity>  (1) 
-6.0007863

>  <minimizedRMSD>  (1) 
1.40034318

$$$$
