
     RDKit          3D

 50 52  0  0  0  0  0  0  0  0999 V2000
   46.6583   34.9134   42.0352 C   0  0  0  0  0  0  0  0  0  0  0  0
   45.1843   34.9093   41.8019 C   0  0  0  0  0  0  0  0  0  0  0  0
   44.3164   35.5359   42.7390 C   0  0  0  0  0  0  0  0  0  0  0  0
   42.6534   35.2630   42.0186 S   0  0  0  0  0  0  0  0  0  0  0  0
   43.4161   34.3304   40.5425 C   0  0  0  0  0  0  0  0  0  0  0  0
   44.5344   34.3865   40.8094 N   0  0  0  0  0  0  0  0  0  0  0  0
   42.6595   33.7906   39.5046 O   0  0  0  0  0  0  0  0  0  0  0  0
   40.6928   34.1276   37.7588 O   0  0  0  0  0  0  0  0  0  0  0  0
   41.7423   34.8660   38.5700 P   0  0  0  0  0  0  0  0  0  0  0  0
   40.9464   35.9333   39.6348 O   0  0  0  0  0  0  0  0  0  0  0  0
   42.7622   35.7910   37.5723 O   0  0  0  0  0  0  0  0  0  0  0  0
   47.4615   34.5772   40.8240 C   0  0  0  0  0  0  0  0  0  0  0  0
   48.7083   33.8368   41.1234 C   0  0  0  0  0  0  0  0  0  0  0  0
   49.0273   32.7799   40.2927 C   0  0  0  0  0  0  0  0  0  0  0  0
   50.1681   32.0308   40.4923 C   0  0  0  0  0  0  0  0  0  0  0  0
   50.9706   32.3880   41.5574 N   0  0  0  0  0  0  0  0  0  0  0  0
   50.6114   33.4454   42.3538 C   0  0  0  0  0  0  0  0  0  0  0  0
   49.5133   34.1348   42.1287 N   0  0  0  0  0  0  0  0  0  0  0  0
   47.9570   32.3523   38.9221 S   0  0  0  0  0  0  0  0  0  0  0  0
   48.6201   32.9888   37.3759 C   0  0  0  0  0  0  0  0  0  0  0  0
   48.3012   34.4598   37.2715 C   0  0  0  0  0  0  0  0  0  0  0  0
   46.9481   35.9042   42.4744 H   0  0  0  0  0  0  0  0  0  0  0  0
   46.8758   34.1582   42.8217 H   0  0  0  0  0  0  0  0  0  0  0  0
   44.5712   36.0556   43.6651 H   0  0  0  0  0  0  0  0  0  0  0  0
   40.6833   36.7648   39.1684 H   0  0  0  0  0  0  0  0  0  0  0  0
   43.5530   35.2809   37.2691 H   0  0  0  0  0  0  0  0  0  0  0  0
   47.7791   35.5412   40.3498 H   0  0  0  0  0  0  0  0  0  0  0  0
   46.8143   34.0380   40.1303 H   0  0  0  0  0  0  0  0  0  0  0  0
   50.4372   31.1980   39.8525 H   0  0  0  0  0  0  0  0  0  0  0  0
   51.2528   33.7098   43.1824 H   0  0  0  0  0  0  0  0  0  0  0  0
   49.7206   32.8684   37.4006 H   0  0  0  0  0  0  0  0  0  0  0  0
   48.2590   32.4063   36.5250 H   0  0  0  0  0  0  0  0  0  0  0  0
   47.2329   34.6765   37.1975 H   0  0  0  0  0  0  0  0  0  0  0  0
   48.7924   35.0291   38.0796 H   0  0  0  0  0  0  0  0  0  0  0  0
   49.0383   31.6581   34.3159 N   0  0  0  0  0  0  0  0  0  0  0  0
   49.2235   32.5882   35.2212 C   0  0  0  0  0  0  0  0  0  0  0  0
   49.3054   31.6883   36.3003 N   0  0  0  0  0  0  0  0  0  0  0  0
   49.2991   34.0251   35.0233 C   0  0  0  0  0  0  0  0  0  0  0  0
   48.8783   34.9092   35.9723 C   0  0  0  0  0  0  0  0  0  0  0  0
   49.0212   36.2419   35.6405 C   0  0  0  0  0  0  0  0  0  0  0  0
   48.6994   36.9878   36.3672 H   0  0  0  0  0  0  0  0  0  0  0  0
   49.5444   36.7024   34.4508 C   0  0  0  0  0  0  0  0  0  0  0  0
   49.6174   37.7678   34.2801 H   0  0  0  0  0  0  0  0  0  0  0  0
   49.9601   35.7502   33.5135 C   0  0  0  0  0  0  0  0  0  0  0  0
   49.8314   34.4096   33.8135 C   0  0  0  0  0  0  0  0  0  0  0  0
   48.9240   31.9302   33.3186 H   0  0  0  0  0  0  0  0  0  0  0  0
   48.5737   31.1791   36.8252 H   0  0  0  0  0  0  0  0  0  0  0  0
   50.2819   31.5163   36.6118 H   0  0  0  0  0  0  0  0  0  0  0  0
   50.3618   36.1691   32.6013 H   0  0  0  0  0  0  0  0  0  0  0  0
   50.1691   33.7317   33.0528 H   0  0  0  0  0  0  0  0  0  0  0  0
  2  1  1  0
  2  3  2  0
  4  3  1  0
  5  6  2  0
  5  4  1  0
  6  2  1  0
  7  5  1  0
  8  9  2  0
  9  7  1  0
  9 10  1  0
 11  9  1  0
 12 13  1  0
 12  1  1  0
 13 18  2  0
 14 15  2  0
 14 13  1  0
 15 16  1  0
 16 17  2  0
 18 17  1  0
 19 14  1  0
 20 19  1  0
 21 20  1  0
  1 22  1  0
  1 23  1  0
  3 24  1  0
 10 25  1  0
 11 26  1  0
 12 27  1  0
 12 28  1  0
 15 29  1  0
 17 30  1  0
 20 31  1  0
 20 32  1  0
 21 33  1  0
 21 34  1  0
 35 36  2  3
 36 37  1  0
 36 38  1  0
 38 39  2  0
 39 40  1  0
 40 41  1  0
 40 42  2  0
 42 43  1  0
 42 44  1  0
 44 45  2  0
 45 38  1  0
 35 46  1  0
 37 47  1  0
 37 48  1  0
 44 49  1  0
 45 50  1  0
 21 39  1  0
M  ISO  8  22   8  23   8  24  14  25   3  26   3  27   8  28   8  29  14
M  ISO  7  30  14  31   8  32   8  33   8  34   8  41  15  43  16
M  END
>  <DihAtoms>  (1) 
19,20,38,37

>  <DihDeg>  (1) 
-76.6706110460024

$$$$
