
     RDKit          3D

 28 29  0  0  0  0  0  0  0  0999 V2000
   44.5688   36.0004   44.4933 C   0  0  0  0  0  0  0  0  0  0  0  0
   45.3000   35.9308   43.2959 C   0  0  0  0  0  0  0  0  0  0  0  0
   46.1907   34.8612   43.1754 C   0  0  0  0  0  0  0  0  0  0  0  0
   46.3044   33.9613   44.1977 N   0  0  0  0  0  0  0  0  0  0  0  0
   45.5761   34.0799   45.3232 C   0  0  0  0  0  0  0  0  0  0  0  0
   44.7060   35.1087   45.4624 N   0  0  0  0  0  0  0  0  0  0  0  0
   46.9560   34.7727   41.9353 C   0  0  0  0  0  0  0  0  0  0  0  0
   43.8614   36.8146   44.6379 H   0  0  0  0  0  0  0  0  0  0  0  0
   45.1705   36.6679   42.5217 H   0  0  0  0  0  0  0  0  0  0  0  0
   45.6988   33.3432   46.1077 H   0  0  0  0  0  0  0  0  0  0  0  0
   46.3042   35.1313   41.1040 H   0  0  0  0  0  0  0  0  0  0  0  0
   47.0758   33.6707   41.7105 H   0  0  0  0  0  0  0  0  0  0  0  0
   49.2125   32.4530   40.9438 N   0  0  0  0  0  0  0  0  0  0  0  0
   49.6070   33.5674   41.4319 C   0  0  0  0  0  0  0  0  0  0  0  0
   50.6065   32.6094   41.7168 N   0  0  0  0  0  0  0  0  0  0  0  0
   49.4820   34.9863   41.7238 C   0  0  0  0  0  0  0  0  0  0  0  0
   48.2217   35.4940   41.9411 C   0  0  0  0  0  0  0  0  0  0  0  0
   48.1946   36.8617   42.2002 C   0  0  0  0  0  0  0  0  0  0  0  0
   47.2384   37.3454   42.3831 H   0  0  0  0  0  0  0  0  0  0  0  0
   49.3711   37.5816   42.2214 C   0  0  0  0  0  0  0  0  0  0  0  0
   49.2679   38.6409   42.4296 H   0  0  0  0  0  0  0  0  0  0  0  0
   50.6140   37.0114   41.9945 C   0  0  0  0  0  0  0  0  0  0  0  0
   50.6552   35.6662   41.7381 C   0  0  0  0  0  0  0  0  0  0  0  0
   48.3236   32.2964   40.4366 H   0  0  0  0  0  0  0  0  0  0  0  0
   51.3522   33.0362   42.2945 H   0  0  0  0  0  0  0  0  0  0  0  0
   51.3315   33.1121   42.3065 H   0  0  0  0  0  0  0  0  0  0  0  0
   51.4477   37.6710   42.0375 H   0  0  0  0  0  0  0  0  0  0  0  0
   51.6214   35.2149   41.5601 H   0  0  0  0  0  0  0  0  0  0  0  0
  1  6  2  0
  2  1  1  0
  3  2  2  0
  3  4  1  0
  4  5  2  0
  5  6  1  0
  7  3  1  0
  1  8  1  0
  2  9  1  0
  5 10  1  0
  7 11  1  0
  7 12  1  0
 13 14  2  3
 14 15  1  0
 14 16  1  0
 16 17  2  0
 17 18  1  0
 18 19  1  0
 18 20  2  0
 20 21  1  0
 20 22  1  0
 22 23  2  0
 23 16  1  0
 13 24  1  0
 15 25  1  0
 15 26  1  0
 22 27  1  0
 23 28  1  0
  7 17  1  0
M  ISO  7   8  14   9  14  10  14  11   8  12   8  19  15  21  16
M  END
>  <DihAtoms>  (1) 
2,6,16,15

>  <DihDeg>  (1) 
76.84804979161082

$$$$
