
     RDKit          3D

 28 29  0  0  0  0  0  0  0  0999 V2000
   44.5688   36.0004   44.4933 C   0  0  0  0  0  0  0  0  0  0  0  0
   45.3000   35.9308   43.2959 C   0  0  0  0  0  0  0  0  0  0  0  0
   46.1907   34.8612   43.1754 C   0  0  0  0  0  0  0  0  0  0  0  0
   46.3044   33.9613   44.1977 N   0  0  0  0  0  0  0  0  0  0  0  0
   45.5761   34.0799   45.3232 C   0  0  0  0  0  0  0  0  0  0  0  0
   44.7060   35.1087   45.4624 N   0  0  0  0  0  0  0  0  0  0  0  0
   46.9560   34.7727   41.9353 C   0  0  0  0  0  0  0  0  0  0  0  0
   43.8614   36.8146   44.6379 H   0  0  0  0  0  0  0  0  0  0  0  0
   45.1705   36.6679   42.5217 H   0  0  0  0  0  0  0  0  0  0  0  0
   45.6988   33.3432   46.1077 H   0  0  0  0  0  0  0  0  0  0  0  0
   46.3042   35.1313   41.1040 H   0  0  0  0  0  0  0  0  0  0  0  0
   47.0758   33.6707   41.7105 H   0  0  0  0  0  0  0  0  0  0  0  0
   46.1035   37.8925   42.9333 N   0  0  0  0  0  0  0  0  0  0  0  0
   47.2667   37.6658   42.4522 C   0  0  0  0  0  0  0  0  0  0  0  0
   46.9539   39.0152   42.1705 N   0  0  0  0  0  0  0  0  0  0  0  0
   48.4258   36.8362   42.1651 C   0  0  0  0  0  0  0  0  0  0  0  0
   48.2217   35.4940   41.9411 C   0  0  0  0  0  0  0  0  0  0  0  0
   49.3864   34.7746   41.6872 C   0  0  0  0  0  0  0  0  0  0  0  0
   49.3164   33.7061   41.4997 H   0  0  0  0  0  0  0  0  0  0  0  0
   50.6055   35.4199   41.6769 C   0  0  0  0  0  0  0  0  0  0  0  0
   51.4657   34.7920   41.4722 H   0  0  0  0  0  0  0  0  0  0  0  0
   50.7468   36.7789   41.9102 C   0  0  0  0  0  0  0  0  0  0  0  0
   49.6088   37.4990   42.1616 C   0  0  0  0  0  0  0  0  0  0  0  0
   45.5122   37.2056   43.4336 H   0  0  0  0  0  0  0  0  0  0  0  0
   47.7052   39.4414   41.5997 H   0  0  0  0  0  0  0  0  0  0  0  0
   47.7600   39.3850   41.5879 H   0  0  0  0  0  0  0  0  0  0  0  0
   51.7395   37.1602   41.8756 H   0  0  0  0  0  0  0  0  0  0  0  0
   49.7117   38.5596   42.3445 H   0  0  0  0  0  0  0  0  0  0  0  0
  1  6  2  0
  2  1  1  0
  3  2  2  0
  3  4  1  0
  4  5  2  0
  5  6  1  0
  7  3  1  0
  1  8  1  0
  2  9  1  0
  5 10  1  0
  7 11  1  0
  7 12  1  0
 13 14  2  3
 14 15  1  0
 14 16  1  0
 16 17  2  0
 17 18  1  0
 18 19  1  0
 18 20  2  0
 20 21  1  0
 20 22  1  0
 22 23  2  0
 23 16  1  0
 13 24  1  0
 15 25  1  0
 15 26  1  0
 22 27  1  0
 23 28  1  0
  7 17  1  0
M  ISO  7   8  14   9  14  10  14  11   8  12   8  19  15  21  16
M  END
>  <DihAtoms>  (1) 
2,6,16,15

>  <DihDeg>  (1) 
76.84804979161082

$$$$
