
     RDKit          3D

 38 40  0  0  0  0  0  0  0  0999 V2000
   46.6114   34.4210   41.4478 C   0  0  0  0  0  0  0  0  0  0  0  0
   47.8963   34.9182   41.2433 C   0  0  0  0  0  0  0  0  0  0  0  0
   48.5163   34.6476   40.0359 C   0  0  0  0  0  0  0  0  0  0  0  0
   47.8716   33.9138   39.0865 C   0  0  0  0  0  0  0  0  0  0  0  0
   46.6125   33.4134   39.2590 C   0  0  0  0  0  0  0  0  0  0  0  0
   46.0159   33.7010   40.4803 C   0  0  0  0  0  0  0  0  0  0  0  0
   44.6839   36.0604   44.2668 C   0  0  0  0  0  0  0  0  0  0  0  0
   45.2323   35.8602   42.9787 C   0  0  0  0  0  0  0  0  0  0  0  0
   45.9942   34.7320   42.7403 C   0  0  0  0  0  0  0  0  0  0  0  0
   46.1750   33.8706   43.7684 N   0  0  0  0  0  0  0  0  0  0  0  0
   45.6498   34.0619   45.0017 C   0  0  0  0  0  0  0  0  0  0  0  0
   44.9046   35.1564   45.2510 N   0  0  0  0  0  0  0  0  0  0  0  0
   48.5652   35.7086   42.3085 C   0  0  0  0  0  0  0  0  0  0  0  0
   49.5158   35.0133   39.8324 H   0  0  0  0  0  0  0  0  0  0  0  0
   48.3428   33.6899   38.1294 H   0  0  0  0  0  0  0  0  0  0  0  0
   46.0238   32.8219   38.5627 H   0  0  0  0  0  0  0  0  0  0  0  0
   45.0168   33.3414   40.6977 H   0  0  0  0  0  0  0  0  0  0  0  0
   44.0917   36.9423   44.4469 H   0  0  0  0  0  0  0  0  0  0  0  0
   45.0800   36.5601   42.1632 H   0  0  0  0  0  0  0  0  0  0  0  0
   45.8958   33.2761   45.6931 H   0  0  0  0  0  0  0  0  0  0  0  0
   48.6686   35.0542   43.2224 H   0  0  0  0  0  0  0  0  0  0  0  0
   47.8985   36.5237   42.6312 H   0  0  0  0  0  0  0  0  0  0  0  0
   48.9550   37.2664   44.8712 N   0  0  0  0  0  0  0  0  0  0  0  0
   50.0379   37.1243   44.1967 C   0  0  0  0  0  0  0  0  0  0  0  0
   50.8571   37.2066   45.3512 N   0  0  0  0  0  0  0  0  0  0  0  0
   50.5960   36.9370   42.8805 C   0  0  0  0  0  0  0  0  0  0  0  0
   49.8807   36.2324   41.9391 C   0  0  0  0  0  0  0  0  0  0  0  0
   50.4032   36.0410   40.6863 C   0  0  0  0  0  0  0  0  0  0  0  0
   49.8420   35.4924   39.9602 H   0  0  0  0  0  0  0  0  0  0  0  0
   51.6462   36.5758   40.4255 C   0  0  0  0  0  0  0  0  0  0  0  0
   52.0573   36.4208   39.4270 H   0  0  0  0  0  0  0  0  0  0  0  0
   52.3450   37.2790   41.3843 C   0  0  0  0  0  0  0  0  0  0  0  0
   51.8411   37.4918   42.6703 C   0  0  0  0  0  0  0  0  0  0  0  0
   48.9361   37.3841   45.8950 H   0  0  0  0  0  0  0  0  0  0  0  0
   51.2527   36.3372   45.8135 H   0  0  0  0  0  0  0  0  0  0  0  0
   51.4391   37.4064   46.1871 H   0  0  0  0  0  0  0  0  0  0  0  0
   53.3204   37.6670   41.0928 H   0  0  0  0  0  0  0  0  0  0  0  0
   52.3978   38.0360   43.3919 H   0  0  0  0  0  0  0  0  0  0  0  0
  1  9  1  0
  2  1  1  0
  2 13  1  0
  3  2  2  0
  4  5  2  0
  4  3  1  0
  5  6  1  0
  6  1  2  0
  7 12  2  0
  8  7  1  0
  9  8  2  0
  9 10  1  0
 10 11  2  0
 11 12  1  0
  3 14  1  0
  4 15  1  0
  5 16  1  0
  6 17  1  0
  7 18  1  0
  8 19  1  0
 11 20  1  0
 13 21  1  0
 13 22  1  0
 23 24  2  3
 24 25  1  0
 24 26  1  0
 26 27  2  0
 27 28  1  0
 28 29  1  0
 28 30  2  0
 30 31  1  0
 30 32  1  0
 32 33  2  0
 33 26  1  0
 23 34  1  0
 25 35  1  0
 25 36  1  0
 32 37  1  0
 33 38  1  0
 13 27  1  0
M  ISO  8  14  14  15  14  16  14  17  14  18  14  19  14  20  14  21   8
M  ISO  3  22   8  29  15  31  16
M  END
>  <DihAtoms>  (1) 
1,12,26,25

>  <DihDeg>  (1) 
77.28858321492554

$$$$
