
     RDKit          3D

 53 57  0  0  1  0  0  0  0  0999 V2000
   45.9140   32.6910   46.5200 C   0  0  0  0  0  0  0  0  0  0  0  0
   46.4610   32.7830   45.2240 C   0  0  0  0  0  0  0  0  0  0  0  0
   47.2880   31.7180   44.9570 C   0  0  0  0  0  0  0  0  0  0  0  0
   47.5720   30.6900   45.8040 C   0  0  0  0  0  0  0  0  0  0  0  0
   46.9890   30.6810   47.0680 C   0  0  0  0  0  0  0  0  0  0  0  0
   46.1510   31.6950   47.4280 C   0  0  0  0  0  0  0  0  0  0  0  0
   47.4730   29.5330   47.6730 O   0  0  0  0  0  0  0  0  0  0  0  0
   48.2770   28.7900   46.7640 C   0  0  2  0  0  0  0  0  0  0  0  0
   48.3900   29.6000   45.5800 O   0  0  0  0  0  0  0  0  0  0  0  0
   45.8720   35.6960   42.9440 C   0  0  0  0  0  0  0  0  0  0  0  0
   46.4760   34.5070   43.3590 C   0  0  0  0  0  0  0  0  0  0  0  0
   46.0860   33.9400   44.5340 C   0  0  0  0  0  0  0  0  0  0  0  0
   45.1120   34.5820   45.2470 N   0  0  0  0  0  0  0  0  0  0  0  0
   44.5370   35.7210   44.8460 C   0  0  0  0  0  0  0  0  0  0  0  0
   44.9150   36.2630   43.7120 N   0  0  0  0  0  0  0  0  0  0  0  0
   47.4760   33.9770   42.5450 N   0  0  0  0  0  0  0  0  0  0  0  0
   48.8600   34.2400   42.7840 C   0  0  0  0  0  0  0  0  0  0  0  0
   49.8080   33.4600   41.9250 C   0  0  0  0  0  0  0  0  0  0  0  0
   49.4420   32.1280   41.6920 N   0  0  0  0  0  0  0  0  0  0  0  0
   48.1090   31.8840   41.4290 C   0  0  0  0  0  0  0  0  0  0  0  0
   47.2800   33.1510   41.4230 C   0  0  0  0  0  0  0  0  0  0  0  0
   47.6410   27.6250   46.4760 O   0  0  0  0  0  0  0  0  0  0  0  0
   46.2730   25.9630   47.7490 C   0  0  0  0  0  0  0  0  0  0  0  0
   47.2780   26.4750   46.9800 C   0  0  0  0  0  0  0  0  0  0  0  0
   48.2420   25.5370   46.5770 C   0  0  0  0  0  0  0  0  0  0  0  0
   48.1420   24.1940   46.9540 C   0  0  0  0  0  0  0  0  0  0  0  0
   47.0970   23.7550   47.7320 C   0  0  0  0  0  0  0  0  0  0  0  0
   46.1360   24.6490   48.1440 C   0  0  0  0  0  0  0  0  0  0  0  0
   44.0660   26.3670   48.3720 N   0  0  0  0  0  0  0  0  0  0  0  0
   45.2670   26.8640   48.2290 C   0  0  0  0  0  0  0  0  0  0  0  0
   44.8180   28.1090   48.6920 N   0  0  0  0  0  0  0  0  0  0  0  0
   43.2660   26.9240   48.7220 H   0  0  0  0  0  0  0  0  0  0  0  0
   45.2320   33.4962   46.8309 H   0  0  0  0  0  0  0  0  0  0  0  0
   47.7652   31.6938   43.9662 H   0  0  0  0  0  0  0  0  0  0  0  0
   45.6785   31.7118   48.4212 H   0  0  0  0  0  0  0  0  0  0  0  0
   49.2694   28.5538   47.1756 H   0  0  0  0  0  0  0  0  0  0  0  0
   46.1734   36.1684   41.9974 H   0  0  0  0  0  0  0  0  0  0  0  0
   43.7574   36.1973   45.4586 H   0  0  0  0  0  0  0  0  0  0  0  0
   49.0400   35.3106   42.6065 H   0  0  0  0  0  0  0  0  0  0  0  0
   49.0581   33.9312   43.8210 H   0  0  0  0  0  0  0  0  0  0  0  0
   49.8825   33.9678   40.9521 H   0  0  0  0  0  0  0  0  0  0  0  0
   50.7599   33.4238   42.4751 H   0  0  0  0  0  0  0  0  0  0  0  0
   49.9852   31.7928   40.8836 H   0  0  0  0  0  0  0  0  0  0  0  0
   48.0258   31.4029   40.4433 H   0  0  0  0  0  0  0  0  0  0  0  0
   47.7230   31.2347   42.2286 H   0  0  0  0  0  0  0  0  0  0  0  0
   47.5378   33.7270   40.5220 H   0  0  0  0  0  0  0  0  0  0  0  0
   46.2258   32.8375   41.4432 H   0  0  0  0  0  0  0  0  0  0  0  0
   49.0887   25.8635   45.9553 H   0  0  0  0  0  0  0  0  0  0  0  0
   48.9100   23.4791   46.6235 H   0  0  0  0  0  0  0  0  0  0  0  0
   47.0298   22.6963   48.0230 H   0  0  0  0  0  0  0  0  0  0  0  0
   45.2882   24.3270   48.7666 H   0  0  0  0  0  0  0  0  0  0  0  0
   43.8271   28.2390   48.9412 H   0  0  0  0  0  0  0  0  0  0  0  0
   45.4791   28.8936   48.7829 H   0  0  0  0  0  0  0  0  0  0  0  0
  1  6  2  0
  2  1  1  0
  3  2  2  0
  3  4  1  0
  4  5  2  0
  5  6  1  0
  5  7  1  0
  8  7  1  0
  9  4  1  0
  9  8  1  0
 10 11  2  0
 10 15  1  0
 11 12  1  0
 12  2  1  0
 12 13  2  0
 14 13  1  0
 15 14  2  0
 16 17  1  0
 16 11  1  0
 18 17  1  0
 19 18  1  0
 20 19  1  0
 21 20  1  0
 21 16  1  0
 22  8  1  0
 22 24  1  0
 23 28  2  0
 23 30  1  0
 24 23  1  0
 25 26  1  0
 25 24  2  0
 26 27  2  0
 27 28  1  0
 29 32  1  0
 30 29  2  0
 30 31  1  0
  1 33  1  0
  3 34  1  0
  6 35  1  0
  8 36  1  1
 10 37  1  0
 14 38  1  0
 17 39  1  0
 17 40  1  0
 18 41  1  0
 18 42  1  0
 19 43  1  0
 20 44  1  0
 20 45  1  0
 21 46  1  0
 21 47  1  0
 25 48  1  0
 26 49  1  0
 27 50  1  0
 28 51  1  0
 31 52  1  0
 31 53  1  0
M  ISO  8  33  14  34  14  35  14  36  13  37  14  38  14  39  13  40  13
M  ISO  8  41  13  42  13  43   5  44  13  45  13  46  13  47  13  48  14
M  ISO  3  49  14  50  14  51  14
M  END
>  <minimizedAffinity>  (1) 
-5.5453701

>  <minimizedRMSD>  (1) 
4.05468369

$$$$
