
     RDKit          3D

 29 30  0  0  0  0  0  0  0  0999 V2000
   44.9048   35.1049   44.9413 C   0  0  0  0  0  0  0  0  0  0  0  0
   45.8124   34.7552   43.9498 C   0  0  0  0  0  0  0  0  0  0  0  0
   46.6824   33.6928   44.2175 C   0  0  0  0  0  0  0  0  0  0  0  0
   46.6049   33.0645   45.4053 N   0  0  0  0  0  0  0  0  0  0  0  0
   45.7094   33.4358   46.3405 C   0  0  0  0  0  0  0  0  0  0  0  0
   44.8637   34.4454   46.1183 N   0  0  0  0  0  0  0  0  0  0  0  0
   45.7852   35.5425   42.6873 C   0  0  0  0  0  0  0  0  0  0  0  0
   45.3629   36.8103   43.0462 F   0  0  0  0  0  0  0  0  0  0  0  0
   44.9163   34.9455   41.8146 F   0  0  0  0  0  0  0  0  0  0  0  0
   47.0755   35.5482   42.1616 F   0  0  0  0  0  0  0  0  0  0  0  0
   45.6287   32.7898   47.5657 O   0  0  0  0  0  0  0  0  0  0  0  0
   44.2060   35.9173   44.7942 H   0  0  0  0  0  0  0  0  0  0  0  0
   47.3727   33.4369   43.4460 H   0  0  0  0  0  0  0  0  0  0  0  0
   47.6789   34.3972   49.2039 N   0  0  0  0  0  0  0  0  0  0  0  0
   46.4476   34.6149   49.5204 C   0  0  0  0  0  0  0  0  0  0  0  0
   46.6275   35.9572   49.9517 N   0  0  0  0  0  0  0  0  0  0  0  0
   45.1263   33.9979   49.5600 C   0  0  0  0  0  0  0  0  0  0  0  0
   44.7594   33.0962   48.5828 C   0  0  0  0  0  0  0  0  0  0  0  0
   43.5031   32.5266   48.6717 C   0  0  0  0  0  0  0  0  0  0  0  0
   43.1552   31.8090   47.9332 H   0  0  0  0  0  0  0  0  0  0  0  0
   42.6855   32.8907   49.7312 C   0  0  0  0  0  0  0  0  0  0  0  0
   41.7105   32.4278   49.7718 H   0  0  0  0  0  0  0  0  0  0  0  0
   43.0869   33.7973   50.6904 C   0  0  0  0  0  0  0  0  0  0  0  0
   44.3408   34.3839   50.6266 C   0  0  0  0  0  0  0  0  0  0  0  0
   48.0346   33.5094   48.8259 H   0  0  0  0  0  0  0  0  0  0  0  0
   46.7865   36.9125   50.2756 H   0  0  0  0  0  0  0  0  0  0  0  0
   46.0127   36.8162   49.8310 H   0  0  0  0  0  0  0  0  0  0  0  0
   42.3996   34.0534   51.5124 H   0  0  0  0  0  0  0  0  0  0  0  0
   44.6722   35.0964   51.3695 H   0  0  0  0  0  0  0  0  0  0  0  0
  1  6  2  0
  2  3  2  0
  2  1  1  0
  3  4  1  0
  4  5  2  0
  5 11  1  0
  6  5  1  0
  7  8  1  0
  7  2  1  0
  9  7  1  0
 10  7  1  0
  1 12  1  0
  3 13  1  0
 14 15  2  3
 15 16  1  0
 15 17  1  0
 17 18  2  0
 18 19  1  0
 19 20  1  0
 19 21  2  0
 21 22  1  0
 21 23  1  0
 23 24  2  0
 24 17  1  0
 14 25  1  0
 16 26  1  0
 16 27  1  0
 23 28  1  0
 24 29  1  0
 11 18  1  0
M  ISO  4  12  14  13  14  20  15  22  16
M  END
>  <DihAtoms>  (1) 
4,10,17,16

>  <DihDeg>  (1) 
-60.87518738155062

$$$$
