
     RDKit          3D

 29 30  0  0  0  0  0  0  0  0999 V2000
   44.9048   35.1049   44.9413 C   0  0  0  0  0  0  0  0  0  0  0  0
   45.8124   34.7552   43.9498 C   0  0  0  0  0  0  0  0  0  0  0  0
   46.6824   33.6928   44.2175 C   0  0  0  0  0  0  0  0  0  0  0  0
   46.6049   33.0645   45.4053 N   0  0  0  0  0  0  0  0  0  0  0  0
   45.7094   33.4358   46.3405 C   0  0  0  0  0  0  0  0  0  0  0  0
   44.8637   34.4454   46.1183 N   0  0  0  0  0  0  0  0  0  0  0  0
   45.7852   35.5425   42.6873 C   0  0  0  0  0  0  0  0  0  0  0  0
   45.3629   36.8103   43.0462 F   0  0  0  0  0  0  0  0  0  0  0  0
   44.9163   34.9455   41.8146 F   0  0  0  0  0  0  0  0  0  0  0  0
   47.0755   35.5482   42.1616 F   0  0  0  0  0  0  0  0  0  0  0  0
   45.6287   32.7898   47.5657 O   0  0  0  0  0  0  0  0  0  0  0  0
   44.2060   35.9173   44.7942 H   0  0  0  0  0  0  0  0  0  0  0  0
   47.3727   33.4369   43.4460 H   0  0  0  0  0  0  0  0  0  0  0  0
   45.8521   35.8383   47.2085 N   0  0  0  0  0  0  0  0  0  0  0  0
   44.8214   35.4492   47.8792 C   0  0  0  0  0  0  0  0  0  0  0  0
   43.9734   36.5288   47.5111 N   0  0  0  0  0  0  0  0  0  0  0  0
   44.3337   34.3958   48.7626 C   0  0  0  0  0  0  0  0  0  0  0  0
   44.7594   33.0962   48.5828 C   0  0  0  0  0  0  0  0  0  0  0  0
   44.2814   32.1359   49.4546 C   0  0  0  0  0  0  0  0  0  0  0  0
   44.5794   31.0944   49.3657 H   0  0  0  0  0  0  0  0  0  0  0  0
   43.4054   32.5289   50.4555 C   0  0  0  0  0  0  0  0  0  0  0  0
   43.0506   31.7548   51.1199 H   0  0  0  0  0  0  0  0  0  0  0  0
   43.0012   33.8394   50.6044 C   0  0  0  0  0  0  0  0  0  0  0  0
   43.4643   34.8231   49.7452 C   0  0  0  0  0  0  0  0  0  0  0  0
   46.7494   35.3368   47.1770 H   0  0  0  0  0  0  0  0  0  0  0  0
   43.3907   37.3255   47.2488 H   0  0  0  0  0  0  0  0  0  0  0  0
   42.9357   36.5524   47.2806 H   0  0  0  0  0  0  0  0  0  0  0  0
   42.3033   34.1003   51.4160 H   0  0  0  0  0  0  0  0  0  0  0  0
   43.1582   35.8553   49.8469 H   0  0  0  0  0  0  0  0  0  0  0  0
  1  6  2  0
  2  3  2  0
  2  1  1  0
  3  4  1  0
  4  5  2  0
  5 11  1  0
  6  5  1  0
  7  8  1  0
  7  2  1  0
  9  7  1  0
 10  7  1  0
  1 12  1  0
  3 13  1  0
 14 15  2  3
 15 16  1  0
 15 17  1  0
 17 18  2  0
 18 19  1  0
 19 20  1  0
 19 21  2  0
 21 22  1  0
 21 23  1  0
 23 24  2  0
 24 17  1  0
 14 25  1  0
 16 26  1  0
 16 27  1  0
 23 28  1  0
 24 29  1  0
 11 18  1  0
M  ISO  4  12  14  13  14  20  15  22  16
M  END
>  <DihAtoms>  (1) 
4,10,17,16

>  <DihDeg>  (1) 
-60.87518738155062

$$$$
