
     RDKit          3D

 54 57  0  0  0  0  0  0  0  0999 V2000
   46.0762   31.7211   45.2655 C   0  0  0  0  0  0  0  0  0  0  0  0
   47.0806   32.4843   47.3987 C   0  0  0  0  0  0  0  0  0  0  0  0
   46.9577   31.4939   46.4036 C   0  0  0  0  0  0  0  0  0  0  0  0
   47.6919   30.3314   46.5769 C   0  0  0  0  0  0  0  0  0  0  0  0
   48.4740   30.1974   47.6647 N   0  0  0  0  0  0  0  0  0  0  0  0
   48.5603   31.1567   48.5815 C   0  0  0  0  0  0  0  0  0  0  0  0
   47.8730   32.3146   48.4732 N   0  0  0  0  0  0  0  0  0  0  0  0
   49.4389   30.9287   49.7879 C   0  0  0  0  0  0  0  0  0  0  0  0
   50.7081   31.6325   49.7255 C   0  0  0  0  0  0  0  0  0  0  0  0
   51.8963   31.1167   49.2347 C   0  0  0  0  0  0  0  0  0  0  0  0
   52.8681   32.0834   49.3427 C   0  0  0  0  0  0  0  0  0  0  0  0
   52.2376   33.1479   49.8936 N   0  0  0  0  0  0  0  0  0  0  0  0
   50.9479   32.8887   50.1257 N   0  0  0  0  0  0  0  0  0  0  0  0
   46.7328   32.7201   44.3613 C   0  0  0  0  0  0  0  0  0  0  0  0
   46.3149   34.7173   43.0197 C   0  0  0  0  0  0  0  0  0  0  0  0
   46.0403   34.0111   44.1851 C   0  0  0  0  0  0  0  0  0  0  0  0
   45.1955   34.3861   45.1577 C   0  0  0  0  0  0  0  0  0  0  0  0
   44.5299   35.5761   45.0047 C   0  0  0  0  0  0  0  0  0  0  0  0
   44.7086   36.3599   43.9034 C   0  0  0  0  0  0  0  0  0  0  0  0
   45.5946   35.9184   42.9319 C   0  0  0  0  0  0  0  0  0  0  0  0
   47.3531   34.2491   41.7503 S   0  0  0  0  0  0  0  0  0  0  0  0
   48.3410   35.4614   41.4671 O   0  0  0  0  0  0  0  0  0  0  0  0
   46.6065   34.1453   40.4706 O   0  0  0  0  0  0  0  0  0  0  0  0
   45.9286   30.7205   44.8012 H   0  0  0  0  0  0  0  0  0  0  0  0
   45.0314   31.9626   45.5357 H   0  0  0  0  0  0  0  0  0  0  0  0
   46.6128   33.4475   47.4610 H   0  0  0  0  0  0  0  0  0  0  0  0
   47.5969   29.5694   45.8078 H   0  0  0  0  0  0  0  0  0  0  0  0
   48.8482   31.3525   50.6370 H   0  0  0  0  0  0  0  0  0  0  0  0
   49.5784   29.8420   49.9523 H   0  0  0  0  0  0  0  0  0  0  0  0
   52.1165   30.1374   48.8194 H   0  0  0  0  0  0  0  0  0  0  0  0
   53.9169   32.1309   49.0938 H   0  0  0  0  0  0  0  0  0  0  0  0
   52.6127   34.0956   50.1463 H   0  0  0  0  0  0  0  0  0  0  0  0
   46.6621   32.2416   43.3707 H   0  0  0  0  0  0  0  0  0  0  0  0
   47.7330   32.9516   44.7349 H   0  0  0  0  0  0  0  0  0  0  0  0
   44.9063   33.9241   46.0597 H   0  0  0  0  0  0  0  0  0  0  0  0
   43.8163   36.0173   45.7048 H   0  0  0  0  0  0  0  0  0  0  0  0
   44.2160   37.3194   43.7029 H   0  0  0  0  0  0  0  0  0  0  0  0
   45.7571   36.5172   42.0452 H   0  0  0  0  0  0  0  0  0  0  0  0
   46.9209   32.0175   39.7262 N   0  0  0  0  0  0  0  0  0  0  0  0
   47.6941   31.4050   40.5485 C   0  0  0  0  0  0  0  0  0  0  0  0
   47.3736   30.0027   40.4511 N   0  0  0  0  0  0  0  0  0  0  0  0
   48.7295   31.8454   41.4644 C   0  0  0  0  0  0  0  0  0  0  0  0
   48.6067   33.1042   42.0175 C   0  0  0  0  0  0  0  0  0  0  0  0
   49.6792   33.3761   42.8930 C   0  0  0  0  0  0  0  0  0  0  0  0
   49.6538   34.3663   43.3776 H   0  0  0  0  0  0  0  0  0  0  0  0
   50.7301   32.5592   43.2017 C   0  0  0  0  0  0  0  0  0  0  0  0
   51.4823   32.9075   43.8956 H   0  0  0  0  0  0  0  0  0  0  0  0
   50.7489   31.3341   42.5934 C   0  0  0  0  0  0  0  0  0  0  0  0
   49.7464   30.9701   41.7197 C   0  0  0  0  0  0  0  0  0  0  0  0
   46.2259   31.5599   39.1354 H   0  0  0  0  0  0  0  0  0  0  0  0
   46.5750   29.7626   41.0877 H   0  0  0  0  0  0  0  0  0  0  0  0
   46.7607   29.2160   40.7770 H   0  0  0  0  0  0  0  0  0  0  0  0
   51.5513   30.6413   42.7938 H   0  0  0  0  0  0  0  0  0  0  0  0
   49.7712   29.9837   41.2367 H   0  0  0  0  0  0  0  0  0  0  0  0
  1  3  1  0
  2  7  2  0
  3  4  2  0
  3  2  1  0
  4  5  1  0
  5  6  2  0
  6  8  1  0
  7  6  1  0
  9  8  1  0
  9 13  2  0
 10 11  2  0
 10  9  1  0
 11 12  1  0
 12 13  1  0
 14  1  1  0
 15 16  1  0
 16 14  1  0
 16 17  2  0
 18 17  1  0
 19 18  2  0
 20 15  2  0
 20 19  1  0
 21 15  1  0
 22 21  2  0
 23 21  2  0
  1 24  1  0
  1 25  1  0
  2 26  1  0
  4 27  1  0
  8 28  1  0
  8 29  1  0
 10 30  1  0
 11 31  1  0
 12 32  1  0
 14 33  1  0
 14 34  1  0
 17 35  1  0
 18 36  1  0
 19 37  1  0
 20 38  1  0
 39 40  2  3
 40 41  1  0
 40 42  1  0
 42 43  2  0
 43 44  1  0
 44 45  1  0
 44 46  2  0
 46 47  1  0
 46 48  1  0
 48 49  2  0
 49 42  1  0
 39 50  1  0
 41 51  1  0
 41 52  1  0
 48 53  1  0
 49 54  1  0
 21 43  1  0
M  END
>  <DihAtoms>  (1) 
14,20,42,41

>  <DihDeg>  (1) 
-64.71497229333387

$$$$
