
     RDKit          3D

 28 29  0  0  0  0  0  0  0  0999 V2000
   44.5688   36.0004   44.4933 C   0  0  0  0  0  0  0  0  0  0  0  0
   45.3000   35.9308   43.2959 C   0  0  0  0  0  0  0  0  0  0  0  0
   46.1907   34.8612   43.1754 C   0  0  0  0  0  0  0  0  0  0  0  0
   46.3044   33.9613   44.1977 N   0  0  0  0  0  0  0  0  0  0  0  0
   45.5761   34.0799   45.3232 C   0  0  0  0  0  0  0  0  0  0  0  0
   44.7060   35.1087   45.4624 N   0  0  0  0  0  0  0  0  0  0  0  0
   46.9560   34.7727   41.9353 C   0  0  0  0  0  0  0  0  0  0  0  0
   43.8614   36.8146   44.6379 H   0  0  0  0  0  0  0  0  0  0  0  0
   45.1705   36.6679   42.5217 H   0  0  0  0  0  0  0  0  0  0  0  0
   45.6988   33.3432   46.1077 H   0  0  0  0  0  0  0  0  0  0  0  0
   46.3042   35.1313   41.1040 H   0  0  0  0  0  0  0  0  0  0  0  0
   47.0758   33.6707   41.7105 H   0  0  0  0  0  0  0  0  0  0  0  0
   49.0978   32.6341   43.4503 N   0  0  0  0  0  0  0  0  0  0  0  0
   49.4371   33.8509   43.2500 C   0  0  0  0  0  0  0  0  0  0  0  0
   50.1420   33.4030   44.3904 N   0  0  0  0  0  0  0  0  0  0  0  0
   49.4020   35.1202   42.5416 C   0  0  0  0  0  0  0  0  0  0  0  0
   48.2217   35.4940   41.9411 C   0  0  0  0  0  0  0  0  0  0  0  0
   48.2823   36.7153   41.2753 C   0  0  0  0  0  0  0  0  0  0  0  0
   47.3932   37.0867   40.7720 H   0  0  0  0  0  0  0  0  0  0  0  0
   49.4596   37.4340   41.2616 C   0  0  0  0  0  0  0  0  0  0  0  0
   49.4276   38.3744   40.7224 H   0  0  0  0  0  0  0  0  0  0  0  0
   50.6190   37.0034   41.8875 C   0  0  0  0  0  0  0  0  0  0  0  0
   50.5735   35.8031   42.5463 C   0  0  0  0  0  0  0  0  0  0  0  0
   48.4296   32.0908   42.8757 H   0  0  0  0  0  0  0  0  0  0  0  0
   50.6874   34.1826   44.7987 H   0  0  0  0  0  0  0  0  0  0  0  0
   50.6738   34.2465   44.7533 H   0  0  0  0  0  0  0  0  0  0  0  0
   51.4628   37.6463   41.8058 H   0  0  0  0  0  0  0  0  0  0  0  0
   51.4743   35.4611   43.0367 H   0  0  0  0  0  0  0  0  0  0  0  0
  1  6  2  0
  2  1  1  0
  3  2  2  0
  3  4  1  0
  4  5  2  0
  5  6  1  0
  7  3  1  0
  1  8  1  0
  2  9  1  0
  5 10  1  0
  7 11  1  0
  7 12  1  0
 13 14  2  3
 14 15  1  0
 14 16  1  0
 16 17  2  0
 17 18  1  0
 18 19  1  0
 18 20  2  0
 20 21  1  0
 20 22  1  0
 22 23  2  0
 23 16  1  0
 13 24  1  0
 15 25  1  0
 15 26  1  0
 22 27  1  0
 23 28  1  0
  7 17  1  0
M  ISO  7   8  14   9  14  10  14  11   8  12   8  19  15  21  16
M  END
>  <DihAtoms>  (1) 
2,6,16,15

>  <DihDeg>  (1) 
76.84804979161082

$$$$
