
     RDKit          3D

 29 30  0  0  0  0  0  0  0  0999 V2000
   44.9048   35.1049   44.9413 C   0  0  0  0  0  0  0  0  0  0  0  0
   45.8124   34.7552   43.9498 C   0  0  0  0  0  0  0  0  0  0  0  0
   46.6824   33.6928   44.2175 C   0  0  0  0  0  0  0  0  0  0  0  0
   46.6049   33.0645   45.4053 N   0  0  0  0  0  0  0  0  0  0  0  0
   45.7094   33.4358   46.3405 C   0  0  0  0  0  0  0  0  0  0  0  0
   44.8637   34.4454   46.1183 N   0  0  0  0  0  0  0  0  0  0  0  0
   45.7852   35.5425   42.6873 C   0  0  0  0  0  0  0  0  0  0  0  0
   45.3629   36.8103   43.0462 F   0  0  0  0  0  0  0  0  0  0  0  0
   44.9163   34.9455   41.8146 F   0  0  0  0  0  0  0  0  0  0  0  0
   47.0755   35.5482   42.1616 F   0  0  0  0  0  0  0  0  0  0  0  0
   45.6287   32.7898   47.5657 O   0  0  0  0  0  0  0  0  0  0  0  0
   44.2060   35.9173   44.7942 H   0  0  0  0  0  0  0  0  0  0  0  0
   47.3727   33.4369   43.4460 H   0  0  0  0  0  0  0  0  0  0  0  0
   45.2333   35.7208   46.7150 N   0  0  0  0  0  0  0  0  0  0  0  0
   44.3281   35.2653   47.5130 C   0  0  0  0  0  0  0  0  0  0  0  0
   43.2698   36.0890   47.0422 N   0  0  0  0  0  0  0  0  0  0  0  0
   44.0944   34.3046   48.5856 C   0  0  0  0  0  0  0  0  0  0  0  0
   44.7594   33.0962   48.5828 C   0  0  0  0  0  0  0  0  0  0  0  0
   44.5164   32.2255   49.6284 C   0  0  0  0  0  0  0  0  0  0  0  0
   45.0094   31.2583   49.6838 H   0  0  0  0  0  0  0  0  0  0  0  0
   43.6228   32.6116   50.6164 C   0  0  0  0  0  0  0  0  0  0  0  0
   43.4552   31.9089   51.4193 H   0  0  0  0  0  0  0  0  0  0  0  0
   42.9754   33.8294   50.5854 C   0  0  0  0  0  0  0  0  0  0  0  0
   43.1998   34.7222   49.5495 C   0  0  0  0  0  0  0  0  0  0  0  0
   46.2095   35.3980   46.6972 H   0  0  0  0  0  0  0  0  0  0  0  0
   42.5315   36.7065   46.7009 H   0  0  0  0  0  0  0  0  0  0  0  0
   42.2390   35.8788   46.8881 H   0  0  0  0  0  0  0  0  0  0  0  0
   42.2744   34.0889   51.3947 H   0  0  0  0  0  0  0  0  0  0  0  0
   42.7013   35.6809   49.5089 H   0  0  0  0  0  0  0  0  0  0  0  0
  1  6  2  0
  2  3  2  0
  2  1  1  0
  3  4  1  0
  4  5  2  0
  5 11  1  0
  6  5  1  0
  7  8  1  0
  7  2  1  0
  9  7  1  0
 10  7  1  0
  1 12  1  0
  3 13  1  0
 14 15  2  3
 15 16  1  0
 15 17  1  0
 17 18  2  0
 18 19  1  0
 19 20  1  0
 19 21  2  0
 21 22  1  0
 21 23  1  0
 23 24  2  0
 24 17  1  0
 14 25  1  0
 16 26  1  0
 16 27  1  0
 23 28  1  0
 24 29  1  0
 11 18  1  0
M  ISO  4  12  14  13  14  20  15  22  16
M  END
>  <DihAtoms>  (1) 
4,10,17,16

>  <DihDeg>  (1) 
-60.87518738155062

$$$$
