
     RDKit          3D

 43 46  0  0  0  0  0  0  0  0999 V2000
   45.9715   33.5753   45.5622 C   0  0  0  0  0  0  0  0  0  0  0  0
   45.0029   34.4875   45.8291 C   0  0  0  0  0  0  0  0  0  0  0  0
   44.6250   35.4829   44.9565 C   0  0  0  0  0  0  0  0  0  0  0  0
   45.2913   35.5053   43.7803 N   0  0  0  0  0  0  0  0  0  0  0  0
   46.2462   34.6159   43.5019 C   0  0  0  0  0  0  0  0  0  0  0  0
   46.6153   33.6374   44.3640 N   0  0  0  0  0  0  0  0  0  0  0  0
   46.1191   30.3327   47.2714 C   0  0  0  0  0  0  0  0  0  0  0  0
   47.0175   30.5837   48.3096 C   0  0  0  0  0  0  0  0  0  0  0  0
   47.5695   31.8526   48.4245 C   0  0  0  0  0  0  0  0  0  0  0  0
   47.2066   32.8164   47.5054 N   0  0  0  0  0  0  0  0  0  0  0  0
   46.3384   32.5353   46.5203 C   0  0  0  0  0  0  0  0  0  0  0  0
   45.8030   31.3151   46.4039 N   0  0  0  0  0  0  0  0  0  0  0  0
   46.9538   34.6607   42.2152 C   0  0  0  0  0  0  0  0  0  0  0  0
   46.4605   33.9518   41.1336 C   0  0  0  0  0  0  0  0  0  0  0  0
   47.0570   33.9310   39.8904 C   0  0  0  0  0  0  0  0  0  0  0  0
   48.2294   34.6748   39.7270 C   0  0  0  0  0  0  0  0  0  0  0  0
   48.7117   35.3700   40.7904 C   0  0  0  0  0  0  0  0  0  0  0  0
   48.1042   35.3805   42.0252 C   0  0  0  0  0  0  0  0  0  0  0  0
   44.5159   34.4053   46.7900 H   0  0  0  0  0  0  0  0  0  0  0  0
   43.8408   36.1982   45.2088 H   0  0  0  0  0  0  0  0  0  0  0  0
   45.7079   29.3359   47.2103 H   0  0  0  0  0  0  0  0  0  0  0  0
   47.3379   29.8711   49.0559 H   0  0  0  0  0  0  0  0  0  0  0  0
   48.2705   32.1000   49.2104 H   0  0  0  0  0  0  0  0  0  0  0  0
   45.5507   33.3726   41.2548 H   0  0  0  0  0  0  0  0  0  0  0  0
   46.6512   33.3660   39.0542 H   0  0  0  0  0  0  0  0  0  0  0  0
   48.7523   34.7072   38.7851 H   0  0  0  0  0  0  0  0  0  0  0  0
   49.6252   35.9528   40.6742 H   0  0  0  0  0  0  0  0  0  0  0  0
   45.3488   36.2484   43.4435 N   0  0  0  0  0  0  0  0  0  0  0  0
   46.4639   36.7434   43.8042 C   0  0  0  0  0  0  0  0  0  0  0  0
   45.5951   37.7941   44.1929 N   0  0  0  0  0  0  0  0  0  0  0  0
   47.8969   36.8341   44.0100 C   0  0  0  0  0  0  0  0  0  0  0  0
   48.6891   36.1605   43.1103 C   0  0  0  0  0  0  0  0  0  0  0  0
   50.0592   36.2550   43.2946 C   0  0  0  0  0  0  0  0  0  0  0  0
   50.7238   35.7432   42.6140 H   0  0  0  0  0  0  0  0  0  0  0  0
   50.5034   37.0207   44.3702 C   0  0  0  0  0  0  0  0  0  0  0  0
   51.5900   37.0384   44.4370 H   0  0  0  0  0  0  0  0  0  0  0  0
   49.6690   37.6776   45.2457 C   0  0  0  0  0  0  0  0  0  0  0  0
   48.3030   37.5973   45.0813 C   0  0  0  0  0  0  0  0  0  0  0  0
   45.1620   35.3378   42.9971 H   0  0  0  0  0  0  0  0  0  0  0  0
   45.7235   38.3169   45.0988 H   0  0  0  0  0  0  0  0  0  0  0  0
   44.9929   38.5719   44.5327 H   0  0  0  0  0  0  0  0  0  0  0  0
   50.1308   38.2391   46.0393 H   0  0  0  0  0  0  0  0  0  0  0  0
   47.6401   38.0984   45.7486 H   0  0  0  0  0  0  0  0  0  0  0  0
  1  2  2  0
  1 11  1  0
  3  2  1  0
  4  3  2  0
  5  4  1  0
  5  6  2  0
  6  1  1  0
  7  8  2  0
  8  9  1  0
 10  9  2  0
 11 10  1  0
 12 11  2  0
 12  7  1  0
 13  5  1  0
 14 13  2  0
 15 14  1  0
 16 15  2  0
 16 17  1  0
 17 18  2  0
 18 13  1  0
  2 19  1  0
  3 20  1  0
  7 21  1  0
  8 22  1  0
  9 23  1  0
 14 24  1  0
 15 25  1  0
 16 26  1  0
 17 27  1  0
 28 29  2  3
 29 30  1  0
 29 31  1  0
 31 32  2  0
 32 33  1  0
 33 34  1  0
 33 35  2  0
 35 36  1  0
 35 37  1  0
 37 38  2  0
 38 31  1  0
 28 39  1  0
 30 40  1  0
 30 41  1  0
 37 42  1  0
 38 43  1  0
 18 32  1  0
M  ISO  8  19  14  20  14  21  14  22  14  23  14  24  14  25  14  26  14
M  ISO  3  27  14  34  15  36  16
M  END
>  <DihAtoms>  (1) 
16,17,31,30

>  <DihDeg>  (1) 
97.39310128823473

$$$$
