
     RDKit          3D

 50 54  0  0  0  0  0  0  0  0999 V2000
   44.7889   35.9887   43.3040 Cl  0  0  0  0  0  0  0  0  0  0  0  0
   45.5380   34.7359   44.2533 C   0  0  0  0  0  0  0  0  0  0  0  0
   46.6333   34.0524   43.7552 C   0  0  0  0  0  0  0  0  0  0  0  0
   47.1527   33.0786   44.5852 C   0  0  0  0  0  0  0  0  0  0  0  0
   46.6543   32.7642   45.8385 C   0  0  0  0  0  0  0  0  0  0  0  0
   45.5715   33.4680   46.2852 C   0  0  0  0  0  0  0  0  0  0  0  0
   44.9731   33.0370   47.8789 Cl  0  0  0  0  0  0  0  0  0  0  0  0
   45.0161   34.4427   45.5068 C   0  0  0  0  0  0  0  0  0  0  0  0
   47.3491   31.6960   46.5657 C   0  0  0  0  0  0  0  0  0  0  0  0
   47.4568   30.4052   46.0926 C   0  0  0  0  0  0  0  0  0  0  0  0
   48.1094   29.3904   46.7668 C   0  0  0  0  0  0  0  0  0  0  0  0
   48.6918   29.6623   47.9812 C   0  0  0  0  0  0  0  0  0  0  0  0
   49.3230   28.6701   48.6259 N   0  0  0  0  0  0  0  0  0  0  0  0
   49.9248   28.8497   49.8260 C   0  0  0  0  0  0  0  0  0  0  0  0
   49.8562   30.1273   50.3646 C   0  0  0  0  0  0  0  0  0  0  0  0
   49.2175   31.1451   49.7196 C   0  0  0  0  0  0  0  0  0  0  0  0
   48.6107   30.9299   48.4915 C   0  0  0  0  0  0  0  0  0  0  0  0
   47.9537   31.9436   47.8085 C   0  0  0  0  0  0  0  0  0  0  0  0
   48.7691   35.4420   41.1576 C   0  0  0  0  0  0  0  0  0  0  0  0
   48.2676   34.8541   39.9864 C   0  0  0  0  0  0  0  0  0  0  0  0
   47.1811   33.9686   40.0879 C   0  0  0  0  0  0  0  0  0  0  0  0
   46.7350   33.7823   41.3352 N   0  0  0  0  0  0  0  0  0  0  0  0
   47.2040   34.3358   42.4551 C   0  0  0  0  0  0  0  0  0  0  0  0
   48.2345   35.1762   42.3633 N   0  0  0  0  0  0  0  0  0  0  0  0
   48.0117   32.5451   44.1905 H   0  0  0  0  0  0  0  0  0  0  0  0
   44.1587   34.9813   45.8910 H   0  0  0  0  0  0  0  0  0  0  0  0
   47.0011   30.1818   45.1369 H   0  0  0  0  0  0  0  0  0  0  0  0
   48.1729   28.3886   46.3635 H   0  0  0  0  0  0  0  0  0  0  0  0
   50.4373   28.0422   50.3480 H   0  0  0  0  0  0  0  0  0  0  0  0
   50.3186   30.3456   51.3275 H   0  0  0  0  0  0  0  0  0  0  0  0
   49.1778   32.1349   50.1618 H   0  0  0  0  0  0  0  0  0  0  0  0
   47.9216   32.9103   48.2519 H   0  0  0  0  0  0  0  0  0  0  0  0
   49.5952   36.1268   41.1575 H   0  0  0  0  0  0  0  0  0  0  0  0
   48.7789   35.1482   39.1094 H   0  0  0  0  0  0  0  0  0  0  0  0
   43.4305   35.0189   38.7548 N   0  0  0  0  0  0  0  0  0  0  0  0
   44.3523   34.2633   39.2853 C   0  0  0  0  0  0  0  0  0  0  0  0
   43.8029   34.5506   40.5401 N   0  0  0  0  0  0  0  0  0  0  0  0
   45.3581   33.5532   38.5436 C   0  0  0  0  0  0  0  0  0  0  0  0
   46.6774   33.3685   38.8734 C   0  0  0  0  0  0  0  0  0  0  0  0
   47.4346   32.6271   38.0184 C   0  0  0  0  0  0  0  0  0  0  0  0
   48.4709   32.4376   38.2048 H   0  0  0  0  0  0  0  0  0  0  0  0
   46.9053   32.0832   36.8694 C   0  0  0  0  0  0  0  0  0  0  0  0
   47.5305   31.5041   36.2185 H   0  0  0  0  0  0  0  0  0  0  0  0
   45.5642   32.2556   36.5072 C   0  0  0  0  0  0  0  0  0  0  0  0
   44.8092   33.0160   37.3951 C   0  0  0  0  0  0  0  0  0  0  0  0
   42.7262   35.4914   39.3593 H   0  0  0  0  0  0  0  0  0  0  0  0
   43.8434   34.4321   41.5717 H   0  0  0  0  0  0  0  0  0  0  0  0
   43.8371   34.4371   41.5662 H   0  0  0  0  0  0  0  0  0  0  0  0
   45.2212   31.8062   35.6022 H   0  0  0  0  0  0  0  0  0  0  0  0
   43.7796   33.1050   37.0451 H   0  0  0  0  0  0  0  0  0  0  0  0
  1  2  1  0
  2  8  2  0
  3  2  1  0
  3  4  2  0
  4  5  1  0
  5  6  2  0
  5  9  1  0
  6  7  1  0
  8  6  1  0
  9 18  1  0
 10  9  2  0
 10 11  1  0
 11 12  2  0
 12 17  1  0
 12 13  1  0
 13 14  2  0
 14 15  1  0
 16 15  2  0
 17 16  1  0
 18 17  2  0
 19 24  2  0
 20 21  2  0
 20 19  1  0
 21 22  1  0
 22 23  2  0
 23  3  1  0
 24 23  1  0
  4 25  1  0
  8 26  1  0
 10 27  1  0
 11 28  1  0
 14 29  1  0
 15 30  1  0
 16 31  1  0
 18 32  1  0
 19 33  1  0
 20 34  1  0
 35 36  2  3
 36 37  1  0
 36 38  1  0
 38 39  2  0
 39 40  1  0
 40 41  1  0
 40 42  2  0
 42 43  1  0
 42 44  1  0
 44 45  2  0
 45 38  1  0
 35 46  1  0
 37 47  1  0
 37 48  1  0
 44 49  1  0
 45 50  1  0
 21 39  1  0
M  ISO  8  25  14  26  14  27  14  28  14  29  14  30  14  31  14  32  14
M  ISO  4  33  14  34  14  41  15  43  16
M  END
>  <DihAtoms>  (1) 
19,20,38,37

>  <DihDeg>  (1) 
177.57744310441538

$$$$
