
     RDKit          3D

 41 44  0  0  0  0  0  0  0  0999 V2000
   44.4694   35.0113   41.6288 C   0  0  0  0  0  0  0  0  0  0  0  0
   44.6180   34.1451   40.5525 C   0  0  0  0  0  0  0  0  0  0  0  0
   43.5527   33.9108   39.7194 C   0  0  0  0  0  0  0  0  0  0  0  0
   42.3192   34.5108   39.9106 C   0  0  0  0  0  0  0  0  0  0  0  0
   41.3391   34.2173   39.0403 N   0  0  0  0  0  0  0  0  0  0  0  0
   40.1183   34.7894   39.1994 C   0  0  0  0  0  0  0  0  0  0  0  0
   39.9228   35.6515   40.2468 C   0  0  0  0  0  0  0  0  0  0  0  0
   40.9521   35.9561   41.1563 C   0  0  0  0  0  0  0  0  0  0  0  0
   42.1820   35.3743   40.9886 C   0  0  0  0  0  0  0  0  0  0  0  0
   43.2368   35.6387   41.8564 C   0  0  0  0  0  0  0  0  0  0  0  0
   45.4326   35.3609   42.5648 O   0  0  0  0  0  0  0  0  0  0  0  0
   45.0044   34.8139   44.9327 C   0  0  0  0  0  0  0  0  0  0  0  0
   45.6921   34.6615   43.7274 C   0  0  0  0  0  0  0  0  0  0  0  0
   46.7217   33.7223   43.7138 C   0  0  0  0  0  0  0  0  0  0  0  0
   46.9879   33.0346   44.8302 N   0  0  0  0  0  0  0  0  0  0  0  0
   46.3282   33.1833   45.9799 C   0  0  0  0  0  0  0  0  0  0  0  0
   45.3308   34.0962   45.9861 N   0  0  0  0  0  0  0  0  0  0  0  0
   45.6010   33.7061   40.4526 H   0  0  0  0  0  0  0  0  0  0  0  0
   43.7081   33.2319   38.8949 H   0  0  0  0  0  0  0  0  0  0  0  0
   39.2932   34.5902   38.5300 H   0  0  0  0  0  0  0  0  0  0  0  0
   38.9676   36.1307   40.4141 H   0  0  0  0  0  0  0  0  0  0  0  0
   40.7935   36.6342   41.9776 H   0  0  0  0  0  0  0  0  0  0  0  0
   43.0244   36.3256   42.6634 H   0  0  0  0  0  0  0  0  0  0  0  0
   44.2059   35.5539   44.9133 H   0  0  0  0  0  0  0  0  0  0  0  0
   47.3290   33.5130   42.8392 H   0  0  0  0  0  0  0  0  0  0  0  0
   44.1526   35.0516   48.1028 N   0  0  0  0  0  0  0  0  0  0  0  0
   45.0470   34.2003   48.4046 C   0  0  0  0  0  0  0  0  0  0  0  0
   45.2764   35.1838   49.4288 N   0  0  0  0  0  0  0  0  0  0  0  0
   45.9059   33.0304   48.3894 C   0  0  0  0  0  0  0  0  0  0  0  0
   46.5024   32.5142   47.2624 C   0  0  0  0  0  0  0  0  0  0  0  0
   47.2514   31.3715   47.4528 C   0  0  0  0  0  0  0  0  0  0  0  0
   47.7315   30.9444   46.5787 H   0  0  0  0  0  0  0  0  0  0  0  0
   47.3597   30.8334   48.6977 C   0  0  0  0  0  0  0  0  0  0  0  0
   47.9551   29.9532   48.7526 H   0  0  0  0  0  0  0  0  0  0  0  0
   46.7761   31.3310   49.8300 C   0  0  0  0  0  0  0  0  0  0  0  0
   46.0218   32.4713   49.6687 C   0  0  0  0  0  0  0  0  0  0  0  0
   43.5291   34.8813   47.2926 H   0  0  0  0  0  0  0  0  0  0  0  0
   46.1906   35.6338   49.7352 H   0  0  0  0  0  0  0  0  0  0  0  0
   45.3712   35.9101   50.2001 H   0  0  0  0  0  0  0  0  0  0  0  0
   46.9445   30.8048   50.7519 H   0  0  0  0  0  0  0  0  0  0  0  0
   45.5621   32.8619   50.5669 H   0  0  0  0  0  0  0  0  0  0  0  0
  1 10  1  0
  1 11  1  0
  2  1  2  0
  3  4  2  0
  3  2  1  0
  4  9  1  0
  5  6  2  0
  5  4  1  0
  6  7  1  0
  7  8  2  0
  9  8  1  0
  9 10  2  0
 11 13  1  0
 12 17  2  0
 13 12  1  0
 14 13  2  0
 14 15  1  0
 15 16  2  0
 16 17  1  0
  2 18  1  0
  3 19  1  0
  6 20  1  0
  7 21  1  0
  8 22  1  0
 10 23  1  0
 12 24  1  0
 14 25  1  0
 26 27  2  3
 27 28  1  0
 27 29  1  0
 29 30  2  0
 30 31  1  0
 31 32  1  0
 31 33  2  0
 33 34  1  0
 33 35  1  0
 35 36  2  0
 36 29  1  0
 26 37  1  0
 28 38  1  0
 28 39  1  0
 35 40  1  0
 36 41  1  0
 16 30  1  0
M  END
>  <DihAtoms>  (1) 
14,15,29,28

>  <DihDeg>  (1) 
0.7161903352347154

$$$$
