
     RDKit          3D

 44 46  0  0  0  0  0  0  0  0999 V2000
   45.1530   34.9158   42.9426 C   0  0  0  0  0  0  0  0  0  0  0  0
   46.2056   35.2921   42.0729 C   0  0  0  0  0  0  0  0  0  0  0  0
   47.4817   34.8286   42.3975 C   0  0  0  0  0  0  0  0  0  0  0  0
   47.6153   34.0638   43.5054 N   0  0  0  0  0  0  0  0  0  0  0  0
   46.5837   33.7309   44.3042 C   0  0  0  0  0  0  0  0  0  0  0  0
   45.3394   34.1594   44.0230 N   0  0  0  0  0  0  0  0  0  0  0  0
   43.2296   34.6395   41.6273 C   0  0  0  0  0  0  0  0  0  0  0  0
   43.9178   33.7766   41.0303 O   0  0  0  0  0  0  0  0  0  0  0  0
   43.8199   35.3394   42.6815 N   0  0  0  0  0  0  0  0  0  0  0  0
   41.9004   34.8543   41.2031 N   0  0  0  0  0  0  0  0  0  0  0  0
   41.4793   34.3276   39.8873 C   0  0  0  0  0  0  0  0  0  0  0  0
   40.4711   35.3414   39.4317 C   0  0  0  0  0  0  0  0  0  0  0  0
   40.2770   36.3188   40.5518 C   0  0  0  0  0  0  0  0  0  0  0  0
   40.7472   35.4551   41.7295 C   0  0  2  0  0  0  0  0  0  0  0  0
   48.5399   35.2359   41.4776 C   0  0  0  0  0  0  0  0  0  0  0  0
   49.6491   34.4039   41.6696 F   0  0  0  0  0  0  0  0  0  0  0  0
   48.9507   36.4999   41.8702 F   0  0  0  0  0  0  0  0  0  0  0  0
   48.1924   35.1371   40.1545 F   0  0  0  0  0  0  0  0  0  0  0  0
   45.9175   35.9015   41.2431 H   0  0  0  0  0  0  0  0  0  0  0  0
   46.7353   33.1163   45.1816 H   0  0  0  0  0  0  0  0  0  0  0  0
   43.4136   36.0818   43.2529 H   0  0  0  0  0  0  0  0  0  0  0  0
   42.3185   34.3639   39.1879 H   0  0  0  0  0  0  0  0  0  0  0  0
   41.0522   33.3075   40.0129 H   0  0  0  0  0  0  0  0  0  0  0  0
   40.7470   35.8259   38.4733 H   0  0  0  0  0  0  0  0  0  0  0  0
   39.5127   34.7845   39.2209 H   0  0  0  0  0  0  0  0  0  0  0  0
   39.2262   36.6119   40.6692 H   0  0  0  0  0  0  0  0  0  0  0  0
   40.9715   37.1681   40.3674 H   0  0  0  0  0  0  0  0  0  0  0  0
   39.9388   34.6188   41.7085 H   0  0  0  0  0  0  0  0  0  0  0  0
   38.0623   34.1787   44.6025 N   0  0  0  0  0  0  0  0  0  0  0  0
   38.6246   34.8694   43.6709 C   0  0  0  0  0  0  0  0  0  0  0  0
   37.8488   34.2475   42.6615 N   0  0  0  0  0  0  0  0  0  0  0  0
   39.6622   35.8721   43.8783 C   0  0  0  0  0  0  0  0  0  0  0  0
   40.6812   36.1383   42.9847 C   0  0  0  0  0  0  0  0  0  0  0  0
   41.5540   37.1502   43.4087 C   0  0  0  0  0  0  0  0  0  0  0  0
   42.3690   37.3946   42.7417 H   0  0  0  0  0  0  0  0  0  0  0  0
   41.3965   37.8080   44.6080 C   0  0  0  0  0  0  0  0  0  0  0  0
   42.1286   38.5642   44.8231 H   0  0  0  0  0  0  0  0  0  0  0  0
   40.3624   37.5046   45.4648 C   0  0  0  0  0  0  0  0  0  0  0  0
   39.4876   36.5233   45.0896 C   0  0  0  0  0  0  0  0  0  0  0  0
   37.3384   33.5066   44.2976 H   0  0  0  0  0  0  0  0  0  0  0  0
   36.9013   34.5369   42.3109 H   0  0  0  0  0  0  0  0  0  0  0  0
   36.9018   34.5339   42.3086 H   0  0  0  0  0  0  0  0  0  0  0  0
   40.3508   38.0867   46.3632 H   0  0  0  0  0  0  0  0  0  0  0  0
   38.7048   36.3387   45.8068 H   0  0  0  0  0  0  0  0  0  0  0  0
  1  6  2  0
  2  3  2  0
  2  1  1  0
  3  4  1  0
  4  5  2  0
  6  5  1  0
  7  9  1  0
  8  7  2  0
  9  1  1  0
 10  7  1  0
 10 14  1  0
 11 10  1  0
 12 11  1  0
 12 13  1  0
 13 14  1  0
 15 16  1  0
 15 17  1  0
 15  3  1  0
 18 15  1  0
  2 19  1  0
  5 20  1  0
  9 21  1  0
 11 22  1  0
 11 23  1  0
 12 24  1  0
 12 25  1  0
 13 26  1  0
 13 27  1  0
 14 28  1  1
 29 30  2  3
 30 31  1  0
 30 32  1  0
 32 33  2  0
 33 34  1  0
 34 35  1  0
 34 36  2  0
 36 37  1  0
 36 38  1  0
 38 39  2  0
 39 32  1  0
 29 40  1  0
 31 41  1  0
 31 42  1  0
 38 43  1  0
 39 44  1  0
 14 33  1  0
M  ISO  8  19  14  20  14  22  13  23  13  24  13  25  13  26  13  27  13
M  ISO  3  28  13  35  15  37  16
M  END
>  <DihAtoms>  (1) 
9,13,32,31

>  <DihDeg>  (1) 
-102.3280159337748

$$$$
