
     RDKit          3D

 28 29  0  0  0  0  0  0  0  0999 V2000
   46.3670   33.8300   41.3130 C   0  0  0  0  0  0  0  0  0  0  0  0
   46.8860   34.5280   42.3700 C   0  0  0  0  0  0  0  0  0  0  0  0
   48.0340   35.2810   42.1360 C   0  0  0  0  0  0  0  0  0  0  0  0
   48.6750   35.3640   40.9080 C   0  0  0  0  0  0  0  0  0  0  0  0
   48.1320   34.6480   39.8530 C   0  0  0  0  0  0  0  0  0  0  0  0
   46.9960   33.9030   40.0870 C   0  0  0  0  0  0  0  0  0  0  0  0
   44.5840   35.5230   45.0420 C   0  0  0  0  0  0  0  0  0  0  0  0
   45.2860   35.4790   43.8290 C   0  0  0  0  0  0  0  0  0  0  0  0
   46.2410   34.4620   43.6400 C   0  0  0  0  0  0  0  0  0  0  0  0
   46.4010   33.6060   44.6520 N   0  0  0  0  0  0  0  0  0  0  0  0
   45.7250   33.6580   45.8060 C   0  0  0  0  0  0  0  0  0  0  0  0
   44.7910   34.6200   46.0430 N   0  0  0  0  0  0  0  0  0  0  0  0
   44.9160   36.5500   42.8820 C   0  0  0  0  0  0  0  0  0  0  0  0
   44.0010   33.3140   41.0370 N   0  0  0  0  0  0  0  0  0  0  0  0
   45.1890   32.9850   41.3190 C   0  0  0  0  0  0  0  0  0  0  0  0
   45.2700   31.5890   41.6750 N   0  0  0  0  0  0  0  0  0  0  0  0
   43.1680   32.7280   41.0400 H   0  0  0  0  0  0  0  0  0  0  0  0
   48.4598   35.8460   42.9783 H   0  0  0  0  0  0  0  0  0  0  0  0
   49.5801   35.9752   40.7769 H   0  0  0  0  0  0  0  0  0  0  0  0
   48.5951   34.6735   38.8556 H   0  0  0  0  0  0  0  0  0  0  0  0
   46.5666   33.3345   39.2489 H   0  0  0  0  0  0  0  0  0  0  0  0
   43.8373   36.3167   45.1921 H   0  0  0  0  0  0  0  0  0  0  0  0
   45.9289   32.9053   46.5818 H   0  0  0  0  0  0  0  0  0  0  0  0
   44.6070   37.4445   43.4426 H   0  0  0  0  0  0  0  0  0  0  0  0
   45.7816   36.7949   42.2490 H   0  0  0  0  0  0  0  0  0  0  0  0
   44.0838   36.2083   42.2490 H   0  0  0  0  0  0  0  0  0  0  0  0
   44.4203   31.0068   41.6726 H   0  0  0  0  0  0  0  0  0  0  0  0
   46.1775   31.1747   41.9315 H   0  0  0  0  0  0  0  0  0  0  0  0
  1 15  1  0
  1  2  2  0
  2  9  1  0
  3  2  1  0
  4  3  2  0
  5  6  2  0
  5  4  1  0
  6  1  1  0
  7 12  2  0
  8  7  1  0
  9  8  2  0
  9 10  1  0
 10 11  2  0
 11 12  1  0
 13  8  1  0
 14 17  1  0
 14 15  2  0
 15 16  1  0
  3 18  1  0
  4 19  1  0
  5 20  1  0
  6 21  1  0
  7 22  1  0
 11 23  1  0
 13 24  1  0
 13 25  1  0
 13 26  1  0
 16 27  1  0
 16 28  1  0
M  ISO  8  18  14  19  14  20  14  21  14  22  14  23  14  24   8  25   8
M  ISO  1  26   8
M  END
>  <minimizedAffinity>  (1) 
-5.12054205

>  <minimizedRMSD>  (1) 
2.50499535

$$$$
