
     RDKit          3D

 38 40  0  0  0  0  0  0  0  0999 V2000
   44.4811   35.9873   44.9006 C   0  0  0  0  0  0  0  0  0  0  0  0
   44.7702   35.8475   43.5179 C   0  0  0  0  0  0  0  0  0  0  0  0
   45.3909   34.6677   43.1153 C   0  0  0  0  0  0  0  0  0  0  0  0
   45.6811   33.7357   44.0474 N   0  0  0  0  0  0  0  0  0  0  0  0
   45.3932   33.8913   45.3812 C   0  0  0  0  0  0  0  0  0  0  0  0
   44.7924   35.0220   45.7969 N   0  0  0  0  0  0  0  0  0  0  0  0
   45.7207   34.3525   41.7330 C   0  0  0  0  0  0  0  0  0  0  0  0
   47.0474   34.4179   41.3873 N   0  0  0  0  0  0  0  0  0  0  0  0
   47.4627   33.8764   40.1315 C   0  0  0  0  0  0  0  0  0  0  0  0
   48.6010   34.7706   39.7631 C   0  0  0  0  0  0  0  0  0  0  0  0
   48.8209   35.7571   40.8756 C   0  0  0  0  0  0  0  0  0  0  0  0
   48.0544   35.0710   42.0502 C   0  0  2  0  0  0  0  0  0  0  0  0
   43.9992   36.9154   45.1735 H   0  0  0  0  0  0  0  0  0  0  0  0
   44.5361   36.5937   42.7908 H   0  0  0  0  0  0  0  0  0  0  0  0
   45.6781   33.0698   46.0205 H   0  0  0  0  0  0  0  0  0  0  0  0
   44.9900   34.9278   41.1005 H   0  0  0  0  0  0  0  0  0  0  0  0
   45.3356   33.2958   41.5800 H   0  0  0  0  0  0  0  0  0  0  0  0
   47.1874   33.0944   39.4886 H   0  0  0  0  0  0  0  0  0  0  0  0
   49.2082   34.7015   38.8520 H   0  0  0  0  0  0  0  0  0  0  0  0
   49.8724   35.8841   41.0958 H   0  0  0  0  0  0  0  0  0  0  0  0
   48.3230   36.6876   40.5668 H   0  0  0  0  0  0  0  0  0  0  0  0
   47.7376   35.9758   42.6605 H   0  0  0  0  0  0  0  0  0  0  0  0
   47.8467   33.7898   46.0605 N   0  0  0  0  0  0  0  0  0  0  0  0
   48.3157   34.6031   45.1489 C   0  0  0  0  0  0  0  0  0  0  0  0
   47.7298   35.8241   45.5327 N   0  0  0  0  0  0  0  0  0  0  0  0
   49.2257   34.1384   44.1375 C   0  0  0  0  0  0  0  0  0  0  0  0
   49.0895   34.4057   42.8141 C   0  0  0  0  0  0  0  0  0  0  0  0
   50.1392   33.8857   42.0407 C   0  0  0  0  0  0  0  0  0  0  0  0
   50.1699   34.0212   40.9527 H   0  0  0  0  0  0  0  0  0  0  0  0
   51.2117   33.1745   42.5196 C   0  0  0  0  0  0  0  0  0  0  0  0
   51.9932   32.7958   41.8870 H   0  0  0  0  0  0  0  0  0  0  0  0
   51.2851   32.9387   43.8740 C   0  0  0  0  0  0  0  0  0  0  0  0
   50.2697   33.4328   44.6937 C   0  0  0  0  0  0  0  0  0  0  0  0
   47.2012   34.1563   46.8136 H   0  0  0  0  0  0  0  0  0  0  0  0
   47.9504   36.7597   45.9446 H   0  0  0  0  0  0  0  0  0  0  0  0
   47.2904   36.6873   45.7993 H   0  0  0  0  0  0  0  0  0  0  0  0
   52.1288   32.3780   44.2509 H   0  0  0  0  0  0  0  0  0  0  0  0
   50.4041   33.2064   45.7203 H   0  0  0  0  0  0  0  0  0  0  0  0
  1  6  2  0
  2  1  1  0
  3  2  2  0
  3  4  1  0
  4  5  2  0
  5  6  1  0
  7  3  1  0
  8  7  1  0
  8 12  1  0
  9  8  1  0
 10  9  2  0
 10 11  1  0
 11 12  1  0
  1 13  1  0
  2 14  1  0
  5 15  1  0
  7 16  1  0
  7 17  1  0
  9 18  1  0
 10 19  1  0
 11 20  1  0
 11 21  1  0
 12 22  1  1
 23 24  2  3
 24 25  1  0
 24 26  1  0
 26 27  2  0
 27 28  1  0
 28 29  1  0
 28 30  2  0
 30 31  1  0
 30 32  1  0
 32 33  2  0
 33 26  1  0
 23 34  1  0
 25 35  1  0
 25 36  1  0
 32 37  1  0
 33 38  1  0
 12 27  1  0
M  ISO  8  13  14  14  14  15  14  16   8  17   8  18  13  19  13  20  13
M  ISO  4  21  13  22  13  29  15  31  16
M  END
>  <DihAtoms>  (1) 
7,11,26,25

>  <DihDeg>  (1) 
8.240022545554124

$$$$
