
     RDKit          3D

 36 38  0  0  0  0  0  0  0  0999 V2000
   42.1040   31.9273   41.7007 Cl  0  0  0  0  0  0  0  0  0  0  0  0
   41.2665   33.3626   41.1085 C   0  0  0  0  0  0  0  0  0  0  0  0
   42.0699   34.4280   40.8415 C   0  0  0  0  0  0  0  0  0  0  0  0
   41.4715   35.5878   40.3695 C   0  0  0  0  0  0  0  0  0  0  0  0
   40.0937   35.6181   40.1896 C   0  0  0  0  0  0  0  0  0  0  0  0
   39.2696   34.5427   40.4574 C   0  0  0  0  0  0  0  0  0  0  0  0
   39.8981   33.3900   40.9308 C   0  0  0  0  0  0  0  0  0  0  0  0
   38.9775   31.9438   41.3172 Cl  0  0  0  0  0  0  0  0  0  0  0  0
   43.8305   34.5417   41.0175 S   0  0  0  0  0  0  0  0  0  0  0  0
   44.3678   34.6169   42.7319 C   0  0  0  0  0  0  0  0  0  0  0  0
   45.0319   33.4923   43.2072 C   0  0  0  0  0  0  0  0  0  0  0  0
   45.4744   33.4993   44.5515 C   0  0  0  0  0  0  0  0  0  0  0  0
   45.2223   34.5967   45.2838 N   0  0  0  0  0  0  0  0  0  0  0  0
   44.5787   35.6767   44.8103 C   0  0  0  0  0  0  0  0  0  0  0  0
   44.1468   35.6850   43.5175 N   0  0  0  0  0  0  0  0  0  0  0  0
   42.0112   36.4919   40.1254 H   0  0  0  0  0  0  0  0  0  0  0  0
   39.6284   36.5354   39.8169 H   0  0  0  0  0  0  0  0  0  0  0  0
   38.1964   34.5693   40.3165 H   0  0  0  0  0  0  0  0  0  0  0  0
   45.2391   32.6153   42.6403 H   0  0  0  0  0  0  0  0  0  0  0  0
   45.9934   32.6511   44.9624 H   0  0  0  0  0  0  0  0  0  0  0  0
   46.7837   35.4733   47.6464 N   0  0  0  0  0  0  0  0  0  0  0  0
   45.8469   36.2666   47.3718 C   0  0  0  0  0  0  0  0  0  0  0  0
   45.8397   36.0082   48.7775 N   0  0  0  0  0  0  0  0  0  0  0  0
   44.8645   37.1456   46.7771 C   0  0  0  0  0  0  0  0  0  0  0  0
   44.2754   36.8832   45.5690 C   0  0  0  0  0  0  0  0  0  0  0  0
   43.3732   37.8338   45.1379 C   0  0  0  0  0  0  0  0  0  0  0  0
   42.8856   37.6568   44.1784 H   0  0  0  0  0  0  0  0  0  0  0  0
   43.1315   38.9393   45.9162 C   0  0  0  0  0  0  0  0  0  0  0  0
   42.4100   39.6131   45.4804 H   0  0  0  0  0  0  0  0  0  0  0  0
   43.7209   39.2029   47.1266 C   0  0  0  0  0  0  0  0  0  0  0  0
   44.6119   38.2686   47.5566 C   0  0  0  0  0  0  0  0  0  0  0  0
   47.4822   35.0394   47.0187 H   0  0  0  0  0  0  0  0  0  0  0  0
   45.3329   36.2053   49.6792 H   0  0  0  0  0  0  0  0  0  0  0  0
   45.3055   36.2348   49.6282 H   0  0  0  0  0  0  0  0  0  0  0  0
   43.4303   40.1076   47.6167 H   0  0  0  0  0  0  0  0  0  0  0  0
   45.0871   38.4666   48.5173 H   0  0  0  0  0  0  0  0  0  0  0  0
  2  1  1  0
  3  9  1  0
  3  2  2  0
  4  3  1  0
  5  4  2  0
  5  6  1  0
  6  7  2  0
  7  2  1  0
  7  8  1  0
  9 10  1  0
 10 11  2  0
 10 15  1  0
 11 12  1  0
 12 13  2  0
 14 13  1  0
 15 14  2  0
  4 16  1  0
  5 17  1  0
  6 18  1  0
 11 19  1  0
 12 20  1  0
 21 22  2  3
 22 23  1  0
 22 24  1  0
 24 25  2  0
 25 26  1  0
 26 27  1  0
 26 28  2  0
 28 29  1  0
 28 30  1  0
 30 31  2  0
 31 24  1  0
 21 32  1  0
 23 33  1  0
 23 34  1  0
 30 35  1  0
 31 36  1  0
 14 25  1  0
M  ISO  7  16  14  17  14  18  14  19  14  20  14  27  15  29  16
M  END
>  <DihAtoms>  (1) 
12,13,24,23

>  <DihDeg>  (1) 
-1.1614861388472255

$$$$
