
     RDKit          3D

 26 27  0  0  0  0  0  0  0  0999 V2000
   48.8260   33.3730   42.4460 C   0  0  0  0  0  0  0  0  0  0  0  0
   47.5700   32.8750   42.6270 C   0  0  0  0  0  0  0  0  0  0  0  0
   47.4290   31.5130   42.7620 C   0  0  0  0  0  0  0  0  0  0  0  0
   48.4830   30.6280   42.7260 C   0  0  0  0  0  0  0  0  0  0  0  0
   49.7680   31.0980   42.5450 C   0  0  0  0  0  0  0  0  0  0  0  0
   49.9100   32.4850   42.4080 C   0  0  0  0  0  0  0  0  0  0  0  0
   44.7240   34.9640   41.4910 C   0  0  0  0  0  0  0  0  0  0  0  0
   45.7660   34.0230   41.5010 C   0  0  0  0  0  0  0  0  0  0  0  0
   46.5140   33.8490   42.6650 C   0  0  0  0  0  0  0  0  0  0  0  0
   46.1810   34.6100   43.7220 N   0  0  0  0  0  0  0  0  0  0  0  0
   45.1870   35.5060   43.7080 C   0  0  0  0  0  0  0  0  0  0  0  0
   44.4610   35.6770   42.5820 N   0  0  0  0  0  0  0  0  0  0  0  0
   43.9910   35.1360   40.3570 O   0  0  0  0  0  0  0  0  0  0  0  0
   50.1810   35.3360   42.9810 N   0  0  0  0  0  0  0  0  0  0  0  0
   49.3350   34.6970   42.2470 C   0  0  0  0  0  0  0  0  0  0  0  0
   49.1710   35.7080   41.2830 N   0  0  0  0  0  0  0  0  0  0  0  0
   50.4570   36.2920   42.6790 H   0  0  0  0  0  0  0  0  0  0  0  0
   46.4165   31.1082   42.9069 H   0  0  0  0  0  0  0  0  0  0  0  0
   48.3015   29.5492   42.8412 H   0  0  0  0  0  0  0  0  0  0  0  0
   50.6337   30.4203   42.5102 H   0  0  0  0  0  0  0  0  0  0  0  0
   50.9198   32.8967   42.2638 H   0  0  0  0  0  0  0  0  0  0  0  0
   45.9896   33.4303   40.6017 H   0  0  0  0  0  0  0  0  0  0  0  0
   44.9629   36.0989   44.6070 H   0  0  0  0  0  0  0  0  0  0  0  0
   43.2541   35.7969   40.3394 H   0  0  0  0  0  0  0  0  0  0  0  0
   49.6738   36.6013   41.3829 H   0  0  0  0  0  0  0  0  0  0  0  0
   48.5481   35.5550   40.4771 H   0  0  0  0  0  0  0  0  0  0  0  0
  1  2  2  0
  2  9  1  0
  2  3  1  0
  4  3  2  0
  5  4  1  0
  6  1  1  0
  6  5  2  0
  7  8  2  0
  7 12  1  0
  8  9  1  0
  9 10  2  0
 11 10  1  0
 12 11  2  0
 13  7  1  0
 15  1  1  0
 15 14  2  0
 16 15  1  0
 17 14  1  0
  3 18  1  0
  4 19  1  0
  5 20  1  0
  6 21  1  0
  8 22  1  0
 11 23  1  0
 13 24  1  0
 16 25  1  0
 16 26  1  0
M  ISO  7  18  14  19  14  20  14  21  14  22  14  23  14  24   3
M  END
>  <minimizedAffinity>  (1) 
-5.02435493

>  <minimizedRMSD>  (1) 
1.97218895

$$$$
