
     RDKit          3D

 41 44  0  0  0  0  0  0  0  0999 V2000
   44.7669   34.4900   40.4523 C   0  0  0  0  0  0  0  0  0  0  0  0
   45.9209   34.1222   40.9982 N   0  0  0  0  0  0  0  0  0  0  0  0
   46.8375   33.1322   40.5603 C   0  0  0  0  0  0  0  0  0  0  0  0
   47.9068   34.0653   39.9359 C   0  0  0  0  0  0  0  0  0  0  0  0
   48.5052   34.9767   40.9145 C   0  0  0  0  0  0  0  0  0  0  0  0
   47.7546   35.3076   42.1255 C   0  0  0  0  0  0  0  0  0  0  0  0
   46.3293   34.8714   42.1915 C   0  0  0  0  0  0  0  0  0  0  0  0
   45.2992   35.2973   43.5687 S   0  0  0  0  0  0  0  0  0  0  0  0
   43.6419   33.5498   40.7652 C   0  0  0  0  0  0  0  0  0  0  0  0
   42.3763   34.2992   40.5441 C   0  0  0  0  0  0  0  0  0  0  0  0
   41.6254   34.1281   39.3942 C   0  0  0  0  0  0  0  0  0  0  0  0
   40.4621   34.8772   39.2608 C   0  0  0  0  0  0  0  0  0  0  0  0
   40.1130   35.7427   40.2623 N   0  0  0  0  0  0  0  0  0  0  0  0
   40.8776   35.8681   41.3544 C   0  0  0  0  0  0  0  0  0  0  0  0
   41.9873   35.1531   41.4810 N   0  0  0  0  0  0  0  0  0  0  0  0
   44.3608   35.5292   40.6821 H   0  0  0  0  0  0  0  0  0  0  0  0
   44.8499   34.5472   39.3386 H   0  0  0  0  0  0  0  0  0  0  0  0
   47.2903   32.4615   41.2667 H   0  0  0  0  0  0  0  0  0  0  0  0
   46.4763   32.5413   39.7076 H   0  0  0  0  0  0  0  0  0  0  0  0
   47.3466   34.5979   39.1255 H   0  0  0  0  0  0  0  0  0  0  0  0
   48.6757   33.4011   39.4824 H   0  0  0  0  0  0  0  0  0  0  0  0
   49.4996   34.6135   41.2440 H   0  0  0  0  0  0  0  0  0  0  0  0
   48.7117   35.9603   40.4037 H   0  0  0  0  0  0  0  0  0  0  0  0
   48.1070   35.8501   42.9617 H   0  0  0  0  0  0  0  0  0  0  0  0
   44.1826   36.0434   43.1971 H   0  0  0  0  0  0  0  0  0  0  0  0
   43.6918   33.0923   41.7682 H   0  0  0  0  0  0  0  0  0  0  0  0
   43.6692   32.7043   40.0401 H   0  0  0  0  0  0  0  0  0  0  0  0
   41.9413   33.4329   38.6312 H   0  0  0  0  0  0  0  0  0  0  0  0
   39.8355   34.7846   38.3822 H   0  0  0  0  0  0  0  0  0  0  0  0
   40.5288   36.7659   42.4090 N   0  0  0  0  0  0  0  0  0  0  0  0
   41.0604   36.6322   43.6378 C   0  0  0  0  0  0  0  0  0  0  0  0
   41.7675   35.8998   43.9986 H   0  0  0  0  0  0  0  0  0  0  0  0
   40.5726   37.5858   44.4190 N   0  0  0  0  0  0  0  0  0  0  0  0
   39.7235   38.3320   43.6795 C   0  0  0  0  0  0  0  0  0  0  0  0
   38.9163   39.4438   43.9007 C   0  0  0  0  0  0  0  0  0  0  0  0
   38.9250   39.8645   44.8924 H   0  0  0  0  0  0  0  0  0  0  0  0
   38.1825   39.9247   42.8853 N   0  0  0  0  0  0  0  0  0  0  0  0
   38.1725   39.3983   41.6469 C   0  0  0  0  0  0  0  0  0  0  0  0
   37.5647   39.8189   40.8569 H   0  0  0  0  0  0  0  0  0  0  0  0
   38.9471   38.3110   41.3874 N   0  0  0  0  0  0  0  0  0  0  0  0
   39.6873   37.8132   42.3828 C   0  0  0  0  0  0  0  0  0  0  0  0
  1  9  1  0
  1  2  1  0
  2  7  1  0
  3  2  1  0
  4  3  1  0
  4  5  1  0
  5  6  1  0
  6  7  2  0
  7  8  1  0
 10  9  1  0
 10 15  1  0
 11 10  2  0
 12 11  1  0
 12 13  2  0
 13 14  1  0
 14 15  2  0
  1 16  1  0
  1 17  1  0
  3 18  1  0
  3 19  1  0
  4 20  1  0
  4 21  1  0
  5 22  1  0
  5 23  1  0
  6 24  1  0
  8 25  1  0
  9 26  1  0
  9 27  1  0
 11 28  1  0
 12 29  1  0
 30 31  1  0
 31 32  1  0
 31 33  2  0
 33 34  1  0
 34 35  2  0
 35 36  1  0
 35 37  1  0
 37 38  2  0
 38 39  1  0
 38 40  1  0
 40 41  2  0
 41 30  1  0
 41 34  1  0
 14 30  1  0
M  ISO  8  16   8  17   8  18  13  19  13  20  13  21  13  22  13  23  13
M  ISO  8  24  13  25  11  26   8  27   8  28  14  29  14  32  15  36  16
M  ISO  1  39  16
M  END
>  <DihAtoms>  (1) 
12,13,29,30

>  <DihDeg>  (1) 
-33.76134599649283

$$$$
