
     RDKit          3D

 46 49  0  0  1  0  0  0  0  0999 V2000
   47.1680   32.9880   46.7530 O   0  0  0  0  0  0  0  0  0  0  0  0
   45.7130   32.6890   46.6430 P   0  0  1  0  0  0  0  0  0  0  0  0
   45.4720   31.4780   45.4840 O   0  0  0  0  0  0  0  0  0  0  0  0
   45.2140   32.1500   48.1190 O   0  0  0  0  0  0  0  0  0  0  0  0
   47.0600   30.6330   48.1550 C   0  0  2  0  0  0  0  0  0  0  0  0
   45.5990   30.8480   48.3020 C   0  0  2  0  0  0  0  0  0  0  0  0
   44.9560   29.9220   47.3980 C   0  0  0  0  0  0  0  0  0  0  0  0
   45.8430   28.8740   47.1220 O   0  0  0  0  0  0  0  0  0  0  0  0
   46.9210   29.0800   47.9100 C   0  0  0  0  0  0  0  0  0  0  0  0
   47.8160   30.8100   49.2540 O   0  0  0  0  0  0  0  0  0  0  0  0
   49.0160   31.3310   49.2710 C   0  0  0  0  0  0  0  0  0  0  0  0
   49.8400   30.5900   50.3200 C   0  0  0  0  0  0  0  0  0  0  0  0
   44.9720   34.1610   46.1910 O   0  0  0  0  0  0  0  0  0  0  0  0
   45.2490   36.4370   43.4460 C   0  0  0  0  0  0  0  0  0  0  0  0
   45.0130   35.6350   42.3030 C   0  0  0  0  0  0  0  0  0  0  0  0
   44.7520   34.2600   42.5360 C   0  0  0  0  0  0  0  0  0  0  0  0
   44.7450   33.8130   43.8070 N   0  0  0  0  0  0  0  0  0  0  0  0
   44.9760   34.6180   44.8630 C   0  0  0  0  0  0  0  0  0  0  0  0
   45.2240   35.9180   44.6640 N   0  0  0  0  0  0  0  0  0  0  0  0
   45.4970   37.7510   43.2040 O   0  0  0  0  0  0  0  0  0  0  0  0
   45.0670   40.0220   43.5700 N   0  0  0  0  0  0  0  0  0  0  0  0
   45.2600   38.7800   44.1050 C   0  0  0  0  0  0  0  0  0  0  0  0
   45.1660   38.8760   45.4450 N   0  0  0  0  0  0  0  0  0  0  0  0
   44.9160   40.1440   45.8070 C   0  0  0  0  0  0  0  0  0  0  0  0
   44.7380   40.7380   47.0470 C   0  0  0  0  0  0  0  0  0  0  0  0
   44.4950   42.0660   47.0880 N   0  0  0  0  0  0  0  0  0  0  0  0
   44.4330   42.7770   45.9260 C   0  0  0  0  0  0  0  0  0  0  0  0
   44.6110   42.1730   44.7380 N   0  0  0  0  0  0  0  0  0  0  0  0
   44.8560   40.8560   44.6050 C   0  0  0  0  0  0  0  0  0  0  0  0
   45.3004   30.6155   45.9387 H   0  0  0  0  0  0  0  0  0  0  0  0
   47.5453   31.3054   47.4322 H   0  0  0  0  0  0  0  0  0  0  0  0
   45.2870   30.6492   49.3379 H   0  0  0  0  0  0  0  0  0  0  0  0
   44.0441   29.5217   47.8652 H   0  0  0  0  0  0  0  0  0  0  0  0
   44.6834   30.4374   46.4652 H   0  0  0  0  0  0  0  0  0  0  0  0
   46.7851   28.5617   48.8707 H   0  0  0  0  0  0  0  0  0  0  0  0
   47.8275   28.6881   47.4256 H   0  0  0  0  0  0  0  0  0  0  0  0
   49.4847   31.2199   48.2821 H   0  0  0  0  0  0  0  0  0  0  0  0
   48.9628   32.4022   49.5153 H   0  0  0  0  0  0  0  0  0  0  0  0
   49.5079   30.8887   51.3252 H   0  0  0  0  0  0  0  0  0  0  0  0
   49.7025   29.5058   50.1955 H   0  0  0  0  0  0  0  0  0  0  0  0
   50.9036   30.8414   50.1955 H   0  0  0  0  0  0  0  0  0  0  0  0
   45.0311   36.0563   41.2870 H   0  0  0  0  0  0  0  0  0  0  0  0
   44.5597   33.5742   41.6977 H   0  0  0  0  0  0  0  0  0  0  0  0
   45.0803   40.2713   42.5707 H   0  0  0  0  0  0  0  0  0  0  0  0
   44.7931   40.1444   47.9715 H   0  0  0  0  0  0  0  0  0  0  0  0
   44.2348   43.8584   45.9610 H   0  0  0  0  0  0  0  0  0  0  0  0
  2  1  2  0
  2  4  1  0
  3  2  1  0
  4  6  1  0
  5  6  1  0
  5 10  1  0
  7  6  1  0
  8  7  1  0
  8  9  1  0
  9  5  1  0
 10 11  1  0
 11 12  1  0
 13  2  1  0
 14 19  2  0
 15 16  2  0
 15 14  1  0
 16 17  1  0
 17 18  2  0
 18 13  1  0
 19 18  1  0
 20 14  1  0
 20 22  1  0
 21 22  1  0
 21 29  1  0
 22 23  2  0
 23 24  1  0
 24 25  2  0
 25 26  1  0
 27 26  2  0
 28 27  1  0
 29 28  2  0
 29 24  1  0
  3 30  1  0
  5 31  1  6
  6 32  1  1
  7 33  1  0
  7 34  1  0
  9 35  1  0
  9 36  1  0
 11 37  1  0
 11 38  1  0
 12 39  1  0
 12 40  1  0
 12 41  1  0
 15 42  1  0
 16 43  1  0
 21 44  1  0
 25 45  1  0
 27 46  1  0
M  ISO  8  30   3  31  13  32  13  33  13  34  13  35  13  36  13  37   8
M  ISO  8  38   8  39   8  40   8  41   8  42  14  43  14  44   9  45  14
M  ISO  1  46  14
M  END
>  <minimizedAffinity>  (1) 
-4.44227982

>  <minimizedRMSD>  (1) 
0.620170891

$$$$
