
     RDKit          3D

 39 42  0  0  0  0  0  0  0  0999 V2000
   45.3740   33.3250   41.2260 F   0  0  0  0  0  0  0  0  0  0  0  0
   46.4930   34.0050   41.0910 C   0  0  0  0  0  0  0  0  0  0  0  0
   46.9340   34.8030   42.1400 C   0  0  0  0  0  0  0  0  0  0  0  0
   48.1080   35.5540   42.0840 C   0  0  0  0  0  0  0  0  0  0  0  0
   48.8940   35.5170   40.9320 C   0  0  0  0  0  0  0  0  0  0  0  0
   48.4250   34.7120   39.9080 C   0  0  0  0  0  0  0  0  0  0  0  0
   47.2840   33.9750   39.9450 C   0  0  0  0  0  0  0  0  0  0  0  0
   45.7020   34.0550   45.5120 C   0  0  0  0  0  0  0  0  0  0  0  0
   44.6940   35.0240   45.6780 C   0  0  0  0  0  0  0  0  0  0  0  0
   44.4380   35.9420   44.6200 C   0  0  0  0  0  0  0  0  0  0  0  0
   45.2060   35.8110   43.4970 N   0  0  0  0  0  0  0  0  0  0  0  0
   46.1510   34.8780   43.3790 C   0  0  0  0  0  0  0  0  0  0  0  0
   46.3960   34.0110   44.3750 N   0  0  0  0  0  0  0  0  0  0  0  0
   45.9420   33.1500   46.5770 N   0  0  0  0  0  0  0  0  0  0  0  0
   46.9170   33.2140   38.8700 O   0  0  0  0  0  0  0  0  0  0  0  0
   48.3570   34.5830   37.1070 O   0  0  0  0  0  0  0  0  0  0  0  0
   47.3520   33.4880   37.2640 P   0  0  2  0  0  0  0  0  0  0  0  0
   45.9300   33.8250   36.3800 O   0  0  0  0  0  0  0  0  0  0  0  0
   47.9800   32.0800   36.5230 O   0  0  0  0  0  0  0  0  0  0  0  0
   48.7140   33.1400   34.5220 N   0  0  0  0  0  0  0  0  0  0  0  0
   48.2180   32.0650   35.1540 C   0  0  0  0  0  0  0  0  0  0  0  0
   48.0460   31.1150   34.2060 N   0  0  0  0  0  0  0  0  0  0  0  0
   48.4370   31.6110   33.0050 C   0  0  0  0  0  0  0  0  0  0  0  0
   48.4910   31.1200   31.7160 C   0  0  0  0  0  0  0  0  0  0  0  0
   48.9390   31.8610   30.6820 N   0  0  0  0  0  0  0  0  0  0  0  0
   49.3540   33.1360   30.9120 C   0  0  0  0  0  0  0  0  0  0  0  0
   49.3150   33.6460   32.1570 N   0  0  0  0  0  0  0  0  0  0  0  0
   48.8720   32.9260   33.2040 C   0  0  0  0  0  0  0  0  0  0  0  0
   48.4120   36.1712   42.9423 H   0  0  0  0  0  0  0  0  0  0  0  0
   49.8279   36.0914   40.8429 H   0  0  0  0  0  0  0  0  0  0  0  0
   49.0260   34.6651   38.9879 H   0  0  0  0  0  0  0  0  0  0  0  0
   44.1131   35.0711   46.6109 H   0  0  0  0  0  0  0  0  0  0  0  0
   43.6618   36.7170   44.7023 H   0  0  0  0  0  0  0  0  0  0  0  0
   46.6726   32.4297   46.4860 H   0  0  0  0  0  0  0  0  0  0  0  0
   45.3857   33.2129   47.4416 H   0  0  0  0  0  0  0  0  0  0  0  0
   45.1852   34.0015   37.0078 H   0  0  0  0  0  0  0  0  0  0  0  0
   48.9467   34.0264   34.9922 H   0  0  0  0  0  0  0  0  0  0  0  0
   48.1573   30.0893   31.5257 H   0  0  0  0  0  0  0  0  0  0  0  0
   49.7224   33.7518   30.0783 H   0  0  0  0  0  0  0  0  0  0  0  0
  2  1  1  0
  2  3  2  0
  3 12  1  0
  4  3  1  0
  5  4  2  0
  6  7  2  0
  6  5  1  0
  7  2  1  0
  8  9  2  0
  8 14  1  0
 10  9  1  0
 11 10  2  0
 12 11  1  0
 12 13  2  0
 13  8  1  0
 15  7  1  0
 17 16  2  0
 17 15  1  0
 18 17  1  0
 19 17  1  0
 20 21  1  0
 21 19  1  0
 22 21  2  0
 23 28  2  0
 23 22  1  0
 24 23  1  0
 25 26  1  0
 25 24  2  0
 26 27  2  0
 27 28  1  0
 28 20  1  0
  4 29  1  0
  5 30  1  0
  6 31  1  0
  9 32  1  0
 10 33  1  0
 14 34  1  0
 14 35  1  0
 18 36  1  0
 20 37  1  0
 24 38  1  0
 26 39  1  0
M  ISO  8  29  14  30  14  31  14  32  14  33  14  36   3  37   9  38  14
M  ISO  1  39  14
M  END
>  <minimizedAffinity>  (1) 
-7.83107948

>  <minimizedRMSD>  (1) 
3.26404405

$$$$
