
     RDKit          3D

 43 47  0  0  1  0  0  0  0  0999 V2000
   46.7730   33.3260   37.8590 O   0  0  0  0  0  0  0  0  0  0  0  0
   45.6880   32.8400   38.5620 C   0  0  0  0  0  0  0  0  0  0  0  0
   45.6260   31.6940   39.3390 C   0  0  0  0  0  0  0  0  0  0  0  0
   44.4740   31.3440   39.9750 C   0  0  0  0  0  0  0  0  0  0  0  0
   43.3380   32.1230   39.8620 C   0  0  0  0  0  0  0  0  0  0  0  0
   43.4500   33.2690   39.0680 C   0  0  0  0  0  0  0  0  0  0  0  0
   44.6040   33.6010   38.4430 N   0  0  0  0  0  0  0  0  0  0  0  0
   42.2570   34.0410   38.9800 N   0  0  0  0  0  0  0  0  0  0  0  0
   41.9790   35.2190   38.3480 C   0  0  0  0  0  0  0  0  0  0  0  0
   40.6870   35.5160   38.5830 N   0  0  0  0  0  0  0  0  0  0  0  0
   40.1110   34.5660   39.3510 C   0  0  0  0  0  0  0  0  0  0  0  0
   38.8460   34.3810   39.8720 C   0  0  0  0  0  0  0  0  0  0  0  0
   38.5790   33.3020   40.6190 N   0  0  0  0  0  0  0  0  0  0  0  0
   39.5530   32.4100   40.8500 C   0  0  0  0  0  0  0  0  0  0  0  0
   40.7920   32.5760   40.3490 N   0  0  0  0  0  0  0  0  0  0  0  0
   41.1160   33.6450   39.5910 C   0  0  0  0  0  0  0  0  0  0  0  0
   49.1370   32.4520   38.2020 O   0  0  0  0  0  0  0  0  0  0  0  0
   48.2710   33.6650   38.5390 P   0  0  1  0  0  0  0  0  0  0  0  0
   48.9480   34.9540   37.6710 O   0  0  0  0  0  0  0  0  0  0  0  0
   48.1480   33.9160   40.1500 O   0  0  0  0  0  0  0  0  0  0  0  0
   47.9750   35.6110   41.8720 C   0  0  1  0  0  0  0  0  0  0  0  0
   49.3410   35.0910   42.0100 C   0  0  0  0  0  0  0  0  0  0  0  0
   48.6050   35.0710   40.6600 C   0  0  1  0  0  0  0  0  0  0  0  0
   46.2260   33.0940   44.0990 C   0  0  0  0  0  0  0  0  0  0  0  0
   47.2310   33.8800   43.5420 C   0  0  0  0  0  0  0  0  0  0  0  0
   46.9020   34.7620   42.4930 C   0  0  0  0  0  0  0  0  0  0  0  0
   45.6230   34.8220   42.0530 N   0  0  0  0  0  0  0  0  0  0  0  0
   44.6590   34.0420   42.6120 C   0  0  0  0  0  0  0  0  0  0  0  0
   44.9640   33.1790   43.6360 N   0  0  0  0  0  0  0  0  0  0  0  0
   46.5184   31.0594   39.4432 H   0  0  0  0  0  0  0  0  0  0  0  0
   44.4472   30.4299   40.5863 H   0  0  0  0  0  0  0  0  0  0  0  0
   42.3984   31.8567   40.3682 H   0  0  0  0  0  0  0  0  0  0  0  0
   42.6843   35.8181   37.7533 H   0  0  0  0  0  0  0  0  0  0  0  0
   38.0565   35.1207   39.6733 H   0  0  0  0  0  0  0  0  0  0  0  0
   39.3352   31.5226   41.4625 H   0  0  0  0  0  0  0  0  0  0  0  0
   49.3020   35.6281   38.3037 H   0  0  0  0  0  0  0  0  0  0  0  0
   47.4935   36.5712   42.1092 H   0  0  0  0  0  0  0  0  0  0  0  0
   50.1827   35.7803   42.1722 H   0  0  0  0  0  0  0  0  0  0  0  0
   49.8380   34.3440   42.6463 H   0  0  0  0  0  0  0  0  0  0  0  0
   48.8275   35.4380   39.6472 H   0  0  0  0  0  0  0  0  0  0  0  0
   46.4633   32.4013   44.9199 H   0  0  0  0  0  0  0  0  0  0  0  0
   48.2640   33.8138   43.9141 H   0  0  0  0  0  0  0  0  0  0  0  0
   43.6254   34.1030   42.2405 H   0  0  0  0  0  0  0  0  0  0  0  0
  1 18  1  0
  1  2  1  0
  2  3  2  0
  3  4  1  0
  5  4  2  0
  6  5  1  0
  7  2  1  0
  7  6  2  0
  8  6  1  0
  8 16  1  0
  9 10  2  0
  9  8  1  0
 10 11  1  0
 11 16  2  0
 11 12  1  0
 12 13  2  0
 13 14  1  0
 15 14  2  0
 16 15  1  0
 18 17  2  0
 18 20  1  0
 19 18  1  0
 20 23  1  0
 21 22  1  0
 21 26  1  0
 23 21  1  0
 23 22  1  0
 25 24  2  0
 26 25  1  0
 27 26  2  0
 27 28  1  0
 28 29  2  0
 29 24  1  0
  3 30  1  0
  4 31  1  0
  5 32  1  0
  9 33  1  0
 12 34  1  0
 14 35  1  0
 19 36  1  0
 21 37  1  6
 22 38  1  0
 22 39  1  0
 23 40  1  6
 24 41  1  0
 25 42  1  0
 28 43  1  0
M  ISO  8  30  14  31  14  32  14  33  14  34  14  35  14  36   3  37  13
M  ISO  6  38  13  39  13  40  13  41  14  42  14  43  14
M  END
>  <minimizedAffinity>  (1) 
-6.17638016

>  <minimizedRMSD>  (1) 
2.51808047

$$$$
