
     RDKit          3D

 30 32  0  0  0  0  0  0  0  0999 V2000
   48.1940   32.9210   41.7140 O   0  0  0  0  0  0  0  0  0  0  0  0
   47.2410   34.0130   41.2470 P   0  0  2  0  0  0  0  0  0  0  0  0
   45.6780   33.7140   41.9080 O   0  0  0  0  0  0  0  0  0  0  0  0
   44.4140   35.8640   44.5960 C   0  0  0  0  0  0  0  0  0  0  0  0
   44.7170   35.3930   43.2880 C   0  0  0  0  0  0  0  0  0  0  0  0
   45.3840   34.1720   43.1870 C   0  0  0  0  0  0  0  0  0  0  0  0
   45.7060   33.5050   44.3160 N   0  0  0  0  0  0  0  0  0  0  0  0
   45.4050   33.9770   45.5440 C   0  0  0  0  0  0  0  0  0  0  0  0
   44.7610   35.1530   45.6920 N   0  0  0  0  0  0  0  0  0  0  0  0
   47.1200   34.1070   39.5890 O   0  0  0  0  0  0  0  0  0  0  0  0
   49.1090   32.8310   38.9690 N   0  0  0  0  0  0  0  0  0  0  0  0
   47.9090   33.3900   38.6920 C   0  0  0  0  0  0  0  0  0  0  0  0
   47.6020   33.1340   37.3910 N   0  0  0  0  0  0  0  0  0  0  0  0
   48.5860   32.4220   36.8320 C   0  0  0  0  0  0  0  0  0  0  0  0
   48.8670   31.8710   35.6040 C   0  0  0  0  0  0  0  0  0  0  0  0
   50.0050   31.1720   35.3410 N   0  0  0  0  0  0  0  0  0  0  0  0
   50.9180   31.0020   36.3390 C   0  0  0  0  0  0  0  0  0  0  0  0
   50.6500   31.5370   37.5410 N   0  0  0  0  0  0  0  0  0  0  0  0
   49.5390   32.2330   37.8400 C   0  0  0  0  0  0  0  0  0  0  0  0
   47.7860   35.4760   41.8960 O   0  0  0  0  0  0  0  0  0  0  0  0
   49.0480   35.8160   41.4430 C   0  0  0  0  0  0  0  0  0  0  0  0
   49.4800   37.0500   41.9170 F   0  0  0  0  0  0  0  0  0  0  0  0
   49.9390   34.8110   41.7080 F   0  0  0  0  0  0  0  0  0  0  0  0
   48.9490   35.9490   40.0690 F   0  0  0  0  0  0  0  0  0  0  0  0
   43.8886   36.8228   44.7173 H   0  0  0  0  0  0  0  0  0  0  0  0
   44.4368   35.9681   42.3932 H   0  0  0  0  0  0  0  0  0  0  0  0
   45.6880   33.3962   46.4343 H   0  0  0  0  0  0  0  0  0  0  0  0
   49.6019   32.8573   39.8730 H   0  0  0  0  0  0  0  0  0  0  0  0
   48.1352   32.0017   34.7932 H   0  0  0  0  0  0  0  0  0  0  0  0
   51.8485   30.4420   36.1644 H   0  0  0  0  0  0  0  0  0  0  0  0
  2  1  2  0
  2 20  1  0
  2  3  1  0
  3  6  1  0
  4  9  2  0
  5  4  1  0
  6  5  2  0
  6  7  1  0
  7  8  2  0
  8  9  1  0
 10  2  1  0
 12 11  1  0
 12 10  1  0
 13 12  2  0
 14 13  1  0
 14 19  2  0
 15 14  1  0
 16 15  2  0
 16 17  1  0
 17 18  2  0
 18 19  1  0
 19 11  1  0
 21 23  1  0
 21 20  1  0
 21 22  1  0
 24 21  1  0
  4 25  1  0
  5 26  1  0
  8 27  1  0
 11 28  1  0
 15 29  1  0
 17 30  1  0
M  ISO  6  25  14  26  14  27  14  28   9  29  14  30  14
M  END
>  <minimizedAffinity>  (1) 
-5.77748108

>  <minimizedRMSD>  (1) 
1.4457134

$$$$
