
     RDKit          3D

 47 51  0  0  0  0  0  0  0  0999 V2000
   39.1310   33.1950   40.3150 C   0  0  0  0  0  0  0  0  0  0  0  0
   39.3520   33.0450   41.5600 O   0  0  0  0  0  0  0  0  0  0  0  0
   39.1590   34.4200   39.6250 N   0  0  0  0  0  0  0  0  0  0  0  0
   38.8170   31.9890   39.5130 C   0  0  0  0  0  0  0  0  0  0  0  0
   39.0050   32.0410   38.1370 C   0  0  0  0  0  0  0  0  0  0  0  0
   38.7620   31.0000   37.2650 C   0  0  0  0  0  0  0  0  0  0  0  0
   38.2920   29.8180   37.8300 C   0  0  0  0  0  0  0  0  0  0  0  0
   38.1230   29.8200   39.1980 C   0  0  0  0  0  0  0  0  0  0  0  0
   38.3640   30.8370   40.0250 N   0  0  0  0  0  0  0  0  0  0  0  0
   37.6390   28.6360   39.8640 N   0  0  0  0  0  0  0  0  0  0  0  0
   37.5700   28.2710   41.1520 C   0  0  0  0  0  0  0  0  0  0  0  0
   37.0250   27.0460   41.2190 N   0  0  0  0  0  0  0  0  0  0  0  0
   36.7240   26.5790   39.9800 C   0  0  0  0  0  0  0  0  0  0  0  0
   36.1680   25.4270   39.4620 C   0  0  0  0  0  0  0  0  0  0  0  0
   36.0030   25.2840   38.1130 N   0  0  0  0  0  0  0  0  0  0  0  0
   36.3980   26.2940   37.3080 C   0  0  0  0  0  0  0  0  0  0  0  0
   36.9350   27.4050   37.8160 N   0  0  0  0  0  0  0  0  0  0  0  0
   37.1240   27.6100   39.1350 C   0  0  0  0  0  0  0  0  0  0  0  0
   39.6320   35.5730   40.3590 C   0  0  0  0  0  0  0  0  0  0  0  0
   40.9300   36.1310   39.8040 C   0  0  0  0  0  0  0  0  0  0  0  0
   43.8430   34.5630   41.6500 C   0  0  0  0  0  0  0  0  0  0  0  0
   42.7770   35.4460   41.3320 C   0  0  0  0  0  0  0  0  0  0  0  0
   42.0580   35.2400   40.1710 C   0  0  0  0  0  0  0  0  0  0  0  0
   42.4380   34.1720   39.3920 N   0  0  0  0  0  0  0  0  0  0  0  0
   43.4740   33.3550   39.7500 C   0  0  0  0  0  0  0  0  0  0  0  0
   44.1660   33.5540   40.8690 N   0  0  0  0  0  0  0  0  0  0  0  0
   44.6170   34.8110   42.9080 C   0  0  0  0  0  0  0  0  0  0  0  0
   46.0760   35.3150   42.5830 C   0  0  0  0  0  0  0  0  0  0  0  0
   45.0800   36.0590   43.3610 C   0  0  0  0  0  0  0  0  0  0  0  0
   38.8569   34.4927   38.6430 H   0  0  0  0  0  0  0  0  0  0  0  0
   39.3760   32.9846   37.7105 H   0  0  0  0  0  0  0  0  0  0  0  0
   38.9305   31.0987   36.1825 H   0  0  0  0  0  0  0  0  0  0  0  0
   38.0678   28.9314   37.2187 H   0  0  0  0  0  0  0  0  0  0  0  0
   37.9037   28.8737   42.0095 H   0  0  0  0  0  0  0  0  0  0  0  0
   35.8556   24.6186   40.1394 H   0  0  0  0  0  0  0  0  0  0  0  0
   36.2754   26.1995   36.2189 H   0  0  0  0  0  0  0  0  0  0  0  0
   38.8634   36.3586   40.3129 H   0  0  0  0  0  0  0  0  0  0  0  0
   39.8248   35.2513   41.3931 H   0  0  0  0  0  0  0  0  0  0  0  0
   41.1052   37.1331   40.2225 H   0  0  0  0  0  0  0  0  0  0  0  0
   40.8589   36.1941   38.7081 H   0  0  0  0  0  0  0  0  0  0  0  0
   42.5275   36.2825   42.0013 H   0  0  0  0  0  0  0  0  0  0  0  0
   43.7423   32.5118   39.0965 H   0  0  0  0  0  0  0  0  0  0  0  0
   44.0641   34.0301   43.4507 H   0  0  0  0  0  0  0  0  0  0  0  0
   46.9508   34.8627   43.0730 H   0  0  0  0  0  0  0  0  0  0  0  0
   46.6898   35.4845   41.6860 H   0  0  0  0  0  0  0  0  0  0  0  0
   44.6462   36.9740   42.9314 H   0  0  0  0  0  0  0  0  0  0  0  0
   45.1159   36.5126   44.3625 H   0  0  0  0  0  0  0  0  0  0  0  0
  1  2  2  0
  3  1  1  0
  3 19  1  0
  4  9  1  0
  4  1  1  0
  5  4  2  0
  6  7  2  0
  6  5  1  0
  7  8  1  0
  8 10  1  0
  8  9  2  0
 10 11  1  0
 11 12  2  0
 13 12  1  0
 14 13  2  0
 15 14  1  0
 16 17  1  0
 16 15  2  0
 17 18  2  0
 18 10  1  0
 18 13  1  0
 20 23  1  0
 20 19  1  0
 21 27  1  0
 22 21  2  0
 23 22  1  0
 24 25  1  0
 24 23  2  0
 25 26  2  0
 26 21  1  0
 27 29  1  0
 28 27  1  0
 28 29  1  0
  3 30  1  0
  5 31  1  0
  6 32  1  0
  7 33  1  0
 11 34  1  0
 14 35  1  0
 16 36  1  0
 19 37  1  0
 19 38  1  0
 20 39  1  0
 20 40  1  0
 22 41  1  0
 25 42  1  0
 27 43  1  0
 28 44  1  0
 28 45  1  0
 29 46  1  0
 29 47  1  0
M  ISO  8  31  14  32  14  33  14  34  14  35  14  36  14  37   8  38   8
M  ISO  8  39   8  40   8  41  14  42  14  43  13  44  13  45  13  46  13
M  ISO  1  47  13
M  END
>  <minimizedAffinity>  (1) 
-5.48272228

>  <minimizedRMSD>  (1) 
1.78503323

$$$$
