
     RDKit          3D

 28 30  0  0  0  0  0  0  0  0999 V2000
   47.7508   34.8387   42.0929 C   0  0  0  0  0  0  0  0  0  0  0  0
   48.3122   33.8029   42.8329 C   0  0  0  0  0  0  0  0  0  0  0  0
   47.5940   33.2942   43.9163 C   0  0  0  0  0  0  0  0  0  0  0  0
   46.3670   33.8294   44.2126 N   0  0  0  0  0  0  0  0  0  0  0  0
   45.8611   34.8330   43.4681 C   0  0  0  0  0  0  0  0  0  0  0  0
   46.5323   35.3346   42.4266 N   0  0  0  0  0  0  0  0  0  0  0  0
   49.9117   33.1409   42.4072 S   0  0  0  0  0  0  0  0  0  0  0  0
   48.5411   35.3454   40.9595 C   0  0  0  0  0  0  0  0  0  0  0  0
   48.1949   34.7099   39.6529 C   0  0  0  0  0  0  0  0  0  0  0  0
   47.9886   32.4890   44.5217 H   0  0  0  0  0  0  0  0  0  0  0  0
   44.8944   35.2721   43.6823 H   0  0  0  0  0  0  0  0  0  0  0  0
   50.3763   32.4067   43.5013 H   0  0  0  0  0  0  0  0  0  0  0  0
   49.6295   35.2247   41.1459 H   0  0  0  0  0  0  0  0  0  0  0  0
   48.3870   36.4424   40.8415 H   0  0  0  0  0  0  0  0  0  0  0  0
   48.2937   33.6048   39.6585 H   0  0  0  0  0  0  0  0  0  0  0  0
   47.1244   34.9278   39.4383 H   0  0  0  0  0  0  0  0  0  0  0  0
   49.0580   35.3169   38.6494 N   0  0  0  0  0  0  0  0  0  0  0  0
   49.7355   34.6511   37.6795 C   0  0  0  0  0  0  0  0  0  0  0  0
   49.6821   33.5880   37.5777 H   0  0  0  0  0  0  0  0  0  0  0  0
   50.4205   35.5800   36.9544 N   0  0  0  0  0  0  0  0  0  0  0  0
   50.1766   36.7833   37.4575 C   0  0  0  0  0  0  0  0  0  0  0  0
   50.6637   38.0025   37.0311 C   0  0  0  0  0  0  0  0  0  0  0  0
   51.3334   38.1015   36.1930 H   0  0  0  0  0  0  0  0  0  0  0  0
   50.2521   39.0982   37.7306 N   0  0  0  0  0  0  0  0  0  0  0  0
   49.4095   38.9569   38.7824 C   0  0  0  0  0  0  0  0  0  0  0  0
   49.1532   39.9028   39.2602 H   0  0  0  0  0  0  0  0  0  0  0  0
   48.9285   37.7503   39.2029 N   0  0  0  0  0  0  0  0  0  0  0  0
   49.3155   36.6307   38.5310 C   0  0  0  0  0  0  0  0  0  0  0  0
  1  6  1  0
  1  2  2  0
  2  3  1  0
  3  4  2  0
  5  4  1  0
  6  5  2  0
  7  2  1  0
  8  1  1  0
  9  8  1  0
  3 10  1  0
  5 11  1  0
  7 12  1  0
  8 13  1  0
  8 14  1  0
  9 15  1  0
  9 16  1  0
 17 18  1  0
 18 19  1  0
 18 20  2  0
 20 21  1  0
 21 22  2  0
 22 23  1  0
 22 24  1  0
 24 25  2  0
 25 26  1  0
 25 27  1  0
 27 28  2  0
 28 17  1  0
 28 21  1  0
  9 17  1  0
M  ISO  8  10  14  11  14  12  11  13   8  14   8  15   8  16   8  19  15
M  ISO  2  23  16  26  16
M  END
>  <DihAtoms>  (1) 
7,8,16,17

>  <DihDeg>  (1) 
-89.99900544444291

$$$$
