
     RDKit          3D

 42 45  0  0  0  0  0  0  0  0999 V2000
   46.3170   34.8981   41.8045 C   0  0  0  0  0  0  0  0  0  0  0  0
   44.4819   35.9834   44.8970 C   0  0  0  0  0  0  0  0  0  0  0  0
   44.9851   35.9792   43.5811 C   0  0  0  0  0  0  0  0  0  0  0  0
   45.7786   34.9219   43.1838 C   0  0  0  0  0  0  0  0  0  0  0  0
   46.0356   33.9447   44.0685 N   0  0  0  0  0  0  0  0  0  0  0  0
   45.5433   33.9662   45.3281 C   0  0  0  0  0  0  0  0  0  0  0  0
   44.7643   34.9840   45.7507 N   0  0  0  0  0  0  0  0  0  0  0  0
   47.8063   34.9117   41.8366 C   0  0  0  0  0  0  0  0  0  0  0  0
   48.3586   34.1817   40.7514 N   0  0  0  0  0  0  0  0  0  0  0  0
   49.2535   33.1509   41.1008 C   0  0  0  0  0  0  0  0  0  0  0  0
   49.1472   31.8560   40.3432 C   0  0  0  0  0  0  0  0  0  0  0  0
   48.6840   32.0012   38.9192 C   0  0  0  0  0  0  0  0  0  0  0  0
   48.4893   33.4336   38.5209 C   0  0  0  0  0  0  0  0  0  0  0  0
   47.5544   34.0143   39.6103 C   0  0  2  0  0  0  0  0  0  0  0  0
   45.8517   34.0162   41.3281 H   0  0  0  0  0  0  0  0  0  0  0  0
   45.9699   35.7746   41.2637 H   0  0  0  0  0  0  0  0  0  0  0  0
   43.8658   36.8399   45.1487 H   0  0  0  0  0  0  0  0  0  0  0  0
   44.7504   36.7889   42.9052 H   0  0  0  0  0  0  0  0  0  0  0  0
   45.8184   33.1240   45.9499 H   0  0  0  0  0  0  0  0  0  0  0  0
   48.1484   34.4350   42.7920 H   0  0  0  0  0  0  0  0  0  0  0  0
   48.2052   35.9305   41.8108 H   0  0  0  0  0  0  0  0  0  0  0  0
   50.2990   33.5123   40.9934 H   0  0  0  0  0  0  0  0  0  0  0  0
   49.1708   32.8802   42.1892 H   0  0  0  0  0  0  0  0  0  0  0  0
   48.3729   31.2341   40.8663 H   0  0  0  0  0  0  0  0  0  0  0  0
   50.0899   31.2936   40.4475 H   0  0  0  0  0  0  0  0  0  0  0  0
   49.4975   31.5502   38.2812 H   0  0  0  0  0  0  0  0  0  0  0  0
   47.7764   31.4473   38.6660 H   0  0  0  0  0  0  0  0  0  0  0  0
   49.4515   33.9995   38.5629 H   0  0  0  0  0  0  0  0  0  0  0  0
   48.0275   33.4809   37.5271 H   0  0  0  0  0  0  0  0  0  0  0  0
   46.7433   33.2731   39.6556 H   0  0  0  0  0  0  0  0  0  0  0  0
   47.0695   35.2610   39.0521 N   0  0  0  0  0  0  0  0  0  0  0  0
   45.7755   35.4867   38.6799 C   0  0  0  0  0  0  0  0  0  0  0  0
   44.9236   34.8327   38.7206 H   0  0  0  0  0  0  0  0  0  0  0  0
   45.6388   36.7561   38.1969 N   0  0  0  0  0  0  0  0  0  0  0  0
   46.8406   37.3538   38.2551 C   0  0  0  0  0  0  0  0  0  0  0  0
   47.4024   38.5875   37.9424 C   0  0  0  0  0  0  0  0  0  0  0  0
   46.7358   39.3339   37.5262 H   0  0  0  0  0  0  0  0  0  0  0  0
   48.6948   38.8534   38.1392 N   0  0  0  0  0  0  0  0  0  0  0  0
   49.5298   37.9436   38.6516 C   0  0  0  0  0  0  0  0  0  0  0  0
   50.5845   38.0147   38.8642 H   0  0  0  0  0  0  0  0  0  0  0  0
   49.0282   36.7241   38.9729 N   0  0  0  0  0  0  0  0  0  0  0  0
   47.7182   36.4336   38.7808 C   0  0  0  0  0  0  0  0  0  0  0  0
  1  8  1  0
  1  4  1  0
  2  7  2  0
  3  2  1  0
  4  3  2  0
  4  5  1  0
  5  6  2  0
  6  7  1  0
  9 10  1  0
  9  8  1  0
 11 10  1  0
 12 11  1  0
 13 12  1  0
 13 14  1  0
 14  9  1  0
  1 15  1  0
  1 16  1  0
  2 17  1  0
  3 18  1  0
  6 19  1  0
  8 20  1  0
  8 21  1  0
 10 22  1  0
 10 23  1  0
 11 24  1  0
 11 25  1  0
 12 26  1  0
 12 27  1  0
 13 28  1  0
 13 29  1  0
 14 30  1  1
 31 32  1  0
 32 33  1  0
 32 34  2  0
 34 35  1  0
 35 36  2  0
 36 37  1  0
 36 38  1  0
 38 39  2  0
 39 40  1  0
 39 41  1  0
 41 42  2  0
 42 31  1  0
 42 35  1  0
 14 31  1  0
M  ISO  8  15   8  16   8  17  14  18  14  19  14  20   8  21   8  22  13
M  ISO  8  23  13  24  13  25  13  26  13  27  13  28  13  29  13  30  13
M  ISO  3  33  15  37  16  40  16
M  END
>  <DihAtoms>  (1) 
12,13,30,31

>  <DihDeg>  (1) 
-82.99001427198358

$$$$
