
     RDKit          3D

 40 43  0  0  0  0  0  0  0  0999 V2000
   46.0988   33.5368   42.2181 C   0  0  0  0  0  0  0  0  0  0  0  0
   45.5767   34.2565   43.3853 C   0  0  0  0  0  0  0  0  0  0  0  0
   45.0679   35.5396   43.2742 C   0  0  0  0  0  0  0  0  0  0  0  0
   44.5763   36.1740   44.4200 C   0  0  0  0  0  0  0  0  0  0  0  0
   44.6267   35.4840   45.5945 N   0  0  0  0  0  0  0  0  0  0  0  0
   45.1292   34.2426   45.6510 C   0  0  0  0  0  0  0  0  0  0  0  0
   45.5903   33.6580   44.5562 N   0  0  0  0  0  0  0  0  0  0  0  0
   47.4260   34.1498   41.8499 C   0  0  0  0  0  0  0  0  0  0  0  0
   48.4283   33.6071   42.5874 N   0  0  0  0  0  0  0  0  0  0  0  0
   48.5475   32.2506   42.9905 C   0  0  0  0  0  0  0  0  0  0  0  0
   49.4260   31.6766   41.8691 C   0  0  0  0  0  0  0  0  0  0  0  0
   50.7198   32.3531   41.6900 C   0  0  0  0  0  0  0  0  0  0  0  0
   50.8603   33.6736   42.3311 C   0  0  0  0  0  0  0  0  0  0  0  0
   49.6413   34.3816   42.8026 C   0  0  0  0  0  0  0  0  0  0  0  0
   45.3955   33.8642   41.3891 H   0  0  0  0  0  0  0  0  0  0  0  0
   46.0260   32.4656   42.2142 H   0  0  0  0  0  0  0  0  0  0  0  0
   45.0493   36.0436   42.3239 H   0  0  0  0  0  0  0  0  0  0  0  0
   44.1718   37.1865   44.3487 H   0  0  0  0  0  0  0  0  0  0  0  0
   45.1279   33.7671   46.6413 H   0  0  0  0  0  0  0  0  0  0  0  0
   47.4858   33.9682   40.7174 H   0  0  0  0  0  0  0  0  0  0  0  0
   47.3123   35.2334   41.9305 H   0  0  0  0  0  0  0  0  0  0  0  0
   49.1179   32.1415   43.9068 H   0  0  0  0  0  0  0  0  0  0  0  0
   47.6638   31.6392   43.0807 H   0  0  0  0  0  0  0  0  0  0  0  0
   48.8089   31.6559   40.9642 H   0  0  0  0  0  0  0  0  0  0  0  0
   49.6031   30.6168   42.1557 H   0  0  0  0  0  0  0  0  0  0  0  0
   51.5613   31.7526   42.0762 H   0  0  0  0  0  0  0  0  0  0  0  0
   50.9039   32.5083   40.5948 H   0  0  0  0  0  0  0  0  0  0  0  0
   51.7763   34.1477   42.4468 H   0  0  0  0  0  0  0  0  0  0  0  0
   49.7176   35.6846   43.3131 N   0  0  0  0  0  0  0  0  0  0  0  0
   49.0225   36.2266   44.3160 C   0  0  0  0  0  0  0  0  0  0  0  0
   48.3094   35.6869   44.9076 H   0  0  0  0  0  0  0  0  0  0  0  0
   49.3841   37.5097   44.4463 N   0  0  0  0  0  0  0  0  0  0  0  0
   50.3326   37.7975   43.5067 C   0  0  0  0  0  0  0  0  0  0  0  0
   50.9510   39.0142   43.3198 C   0  0  0  0  0  0  0  0  0  0  0  0
   50.7229   39.8654   43.9297 H   0  0  0  0  0  0  0  0  0  0  0  0
   51.8493   39.0337   42.3210 N   0  0  0  0  0  0  0  0  0  0  0  0
   52.0885   37.9367   41.5965 C   0  0  0  0  0  0  0  0  0  0  0  0
   52.8215   37.9928   40.7981 H   0  0  0  0  0  0  0  0  0  0  0  0
   51.4421   36.7989   41.8477 N   0  0  0  0  0  0  0  0  0  0  0  0
   50.5240   36.6266   42.8051 C   0  0  0  0  0  0  0  0  0  0  0  0
  1  2  1  0
  2  7  1  0
  3  2  2  0
  3  4  1  0
  4  5  2  0
  5  6  1  0
  7  6  2  0
  8  1  1  0
  8  9  1  0
  9 14  1  0
  9 10  1  0
 11 10  1  0
 12 11  1  0
 12 13  1  0
 13 14  2  0
  1 15  1  0
  1 16  1  0
  3 17  1  0
  4 18  1  0
  6 19  1  0
  8 20  1  0
  8 21  1  0
 10 22  1  0
 10 23  1  0
 11 24  1  0
 11 25  1  0
 12 26  1  0
 12 27  1  0
 13 28  1  0
 29 30  1  0
 30 31  1  0
 30 32  2  0
 32 33  1  0
 33 34  2  0
 34 35  1  0
 34 36  1  0
 36 37  2  0
 37 38  1  0
 37 39  1  0
 39 40  2  0
 40 29  1  0
 40 33  1  0
 14 29  1  0
M  ISO  8  15   8  16   8  17  14  18  14  19  14  20   8  21   8  22  13
M  ISO  8  23  13  24  13  25  13  26  13  27  13  28  13  31  15  35  16
M  ISO  1  38  16
M  END
>  <DihAtoms>  (1) 
8,13,28,29

>  <DihDeg>  (1) 
10.7682539883937

$$$$
