
     RDKit          3D

 44 48  0  0  0  0  0  0  0  0999 V2000
   45.2817   35.2938   43.1246 Cl  0  0  0  0  0  0  0  0  0  0  0  0
   45.1626   34.5439   41.5517 C   0  0  0  0  0  0  0  0  0  0  0  0
   46.2719   34.1537   40.8735 C   0  0  0  0  0  0  0  0  0  0  0  0
   46.0723   33.5549   39.6423 C   0  0  0  0  0  0  0  0  0  0  0  0
   44.8150   33.3618   39.1235 C   0  0  0  0  0  0  0  0  0  0  0  0
   43.7201   33.7583   39.8157 C   0  0  0  0  0  0  0  0  0  0  0  0
   43.9021   34.3547   41.0418 C   0  0  0  0  0  0  0  0  0  0  0  0
   49.5389   35.7442   41.8885 C   0  0  0  0  0  0  0  0  0  0  0  0
   48.2816   35.5462   41.3121 C   0  0  0  0  0  0  0  0  0  0  0  0
   47.5783   34.3709   41.4672 C   0  0  0  0  0  0  0  0  0  0  0  0
   48.2072   33.4301   42.2220 N   0  0  0  0  0  0  0  0  0  0  0  0
   49.4059   33.6088   42.7766 C   0  0  0  0  0  0  0  0  0  0  0  0
   50.0640   34.7595   42.6085 N   0  0  0  0  0  0  0  0  0  0  0  0
   47.8058   31.8741   38.9879 C   0  0  0  0  0  0  0  0  0  0  0  0
   47.2374   33.1068   38.8749 C   0  0  0  0  0  0  0  0  0  0  0  0
   47.7623   34.0272   37.9841 C   0  0  0  0  0  0  0  0  0  0  0  0
   48.8521   33.7019   37.2142 C   0  0  0  0  0  0  0  0  0  0  0  0
   49.4602   32.4511   37.3000 C   0  0  0  0  0  0  0  0  0  0  0  0
   48.9151   31.5358   38.2062 C   0  0  0  0  0  0  0  0  0  0  0  0
   47.1704   30.7166   40.0287 S   0  0  0  0  0  0  0  0  0  0  0  0
   46.7870   29.4385   39.3180 O   0  0  0  0  0  0  0  0  0  0  0  0
   48.4111   30.2711   40.8901 O   0  0  0  0  0  0  0  0  0  0  0  0
   44.7372   32.8833   38.1460 H   0  0  0  0  0  0  0  0  0  0  0  0
   42.7709   33.5795   39.3576 H   0  0  0  0  0  0  0  0  0  0  0  0
   43.0087   34.6619   41.5739 H   0  0  0  0  0  0  0  0  0  0  0  0
   49.9803   36.7192   41.6842 H   0  0  0  0  0  0  0  0  0  0  0  0
   47.8167   36.3179   40.7200 H   0  0  0  0  0  0  0  0  0  0  0  0
   49.8043   32.7875   43.3564 H   0  0  0  0  0  0  0  0  0  0  0  0
   47.3419   35.0188   37.8630 H   0  0  0  0  0  0  0  0  0  0  0  0
   49.3412   34.3335   36.4937 H   0  0  0  0  0  0  0  0  0  0  0  0
   50.3061   32.1321   36.7335 H   0  0  0  0  0  0  0  0  0  0  0  0
   49.3808   30.5503   38.2852 H   0  0  0  0  0  0  0  0  0  0  0  0
   45.4263   28.8838   41.5689 H   0  0  0  0  0  0  0  0  0  0  0  0
   45.3145   29.9327   41.7603 N   0  0  0  0  0  0  0  0  0  0  0  0
   45.9764   31.0202   41.2223 C   0  0  0  0  0  0  0  0  0  0  0  0
   45.3378   31.9859   41.9057 N   0  0  0  0  0  0  0  0  0  0  0  0
   44.4187   31.5575   42.7408 C   0  0  0  0  0  0  0  0  0  0  0  0
   43.6114   32.3364   43.5687 C   0  0  0  0  0  0  0  0  0  0  0  0
   43.6800   33.4159   43.5919 H   0  0  0  0  0  0  0  0  0  0  0  0
   42.7222   31.6759   44.3564 N   0  0  0  0  0  0  0  0  0  0  0  0
   42.6705   30.3323   44.2955 C   0  0  0  0  0  0  0  0  0  0  0  0
   41.9652   29.8205   44.9212 H   0  0  0  0  0  0  0  0  0  0  0  0
   43.4771   29.5983   43.4721 N   0  0  0  0  0  0  0  0  0  0  0  0
   44.3715   30.1925   42.6740 C   0  0  0  0  0  0  0  0  0  0  0  0
  2  1  1  0
  3 10  1  0
  3  2  2  0
  4  3  1  0
  5  4  2  0
  5  6  1  0
  6  7  2  0
  7  2  1  0
  8 13  2  0
  9 10  2  0
  9  8  1  0
 10 11  1  0
 11 12  2  0
 13 12  1  0
 14 20  1  0
 15 14  1  0
 15  4  1  0
 16 15  2  0
 17 18  2  0
 17 16  1  0
 18 19  1  0
 19 14  2  0
 20 22  2  0
 21 20  2  0
  5 23  1  0
  6 24  1  0
  7 25  1  0
  8 26  1  0
  9 27  1  0
 12 28  1  0
 16 29  1  0
 17 30  1  0
 18 31  1  0
 19 32  1  0
 33 34  1  0
 34 35  1  0
 35 36  2  0
 36 37  1  0
 37 38  2  0
 38 39  1  0
 38 40  1  0
 40 41  2  0
 41 42  1  0
 41 43  1  0
 43 44  2  0
 44 34  1  0
 44 37  1  0
 20 35  1  0
M  ISO  8  23  14  24  14  25  14  26  14  27  14  28  14  29  14  30  14
M  ISO  5  31  14  32  14  33   9  39  16  42  16
M  END
>  <DihAtoms>  (1) 
13,19,34,33

>  <DihDeg>  (1) 
103.89721571637834

$$$$
