
     RDKit          3D

 30 32  0  0  0  0  0  0  0  0999 V2000
   47.1611   33.9779   42.4735 C   0  0  0  0  0  0  0  0  0  0  0  0
   45.2948   34.2334   45.6982 C   0  0  0  0  0  0  0  0  0  0  0  0
   46.1674   33.7492   44.7087 C   0  0  0  0  0  0  0  0  0  0  0  0
   46.2614   34.4633   43.5136 C   0  0  0  0  0  0  0  0  0  0  0  0
   45.5026   35.5913   43.3702 N   0  0  0  0  0  0  0  0  0  0  0  0
   44.6768   36.0235   44.3435 C   0  0  0  0  0  0  0  0  0  0  0  0
   44.5746   35.3474   45.5004 N   0  0  0  0  0  0  0  0  0  0  0  0
   48.3232   33.4202   43.0166 O   0  0  0  0  0  0  0  0  0  0  0  0
   50.6577   33.1027   41.9059 O   0  0  0  0  0  0  0  0  0  0  0  0
   49.6292   34.1338   42.2297 P   0  0  2  0  0  0  0  0  0  0  0  0
   50.2043   35.3647   43.2453 O   0  0  0  0  0  0  0  0  0  0  0  0
   49.0679   34.8184   40.7813 O   0  0  0  0  0  0  0  0  0  0  0  0
   46.6102   33.2488   41.8155 H   0  0  0  0  0  0  0  0  0  0  0  0
   47.3819   34.8409   41.8046 H   0  0  0  0  0  0  0  0  0  0  0  0
   45.2707   33.6260   46.6072 H   0  0  0  0  0  0  0  0  0  0  0  0
   46.7744   32.8500   44.8190 H   0  0  0  0  0  0  0  0  0  0  0  0
   44.0951   36.9391   44.1613 H   0  0  0  0  0  0  0  0  0  0  0  0
   51.0017   35.1124   43.7514 H   0  0  0  0  0  0  0  0  0  0  0  0
   48.0112   34.7109   38.2423 H   0  0  0  0  0  0  0  0  0  0  0  0
   48.9972   34.4678   38.3707 N   0  0  0  0  0  0  0  0  0  0  0  0
   49.6304   34.4789   39.5449 C   0  0  0  0  0  0  0  0  0  0  0  0
   50.9276   34.1105   39.3977 N   0  0  0  0  0  0  0  0  0  0  0  0
   51.1630   33.8469   38.0885 C   0  0  0  0  0  0  0  0  0  0  0  0
   52.2426   33.4421   37.3259 C   0  0  0  0  0  0  0  0  0  0  0  0
   53.1264   33.2969   37.9160 H   0  0  0  0  0  0  0  0  0  0  0  0
   52.0972   33.2756   35.9871 N   0  0  0  0  0  0  0  0  0  0  0  0
   50.8912   33.5078   35.4033 C   0  0  0  0  0  0  0  0  0  0  0  0
   50.8128   33.3628   34.3215 H   0  0  0  0  0  0  0  0  0  0  0  0
   49.8410   33.9017   36.1466 N   0  0  0  0  0  0  0  0  0  0  0  0
   49.9257   34.0853   37.4911 C   0  0  0  0  0  0  0  0  0  0  0  0
  1  8  1  0
  1  4  1  0
  3  2  2  0
  4  3  1  0
  5  4  2  0
  5  6  1  0
  6  7  2  0
  7  2  1  0
  9 10  2  0
 10  8  1  1
 10 11  1  0
 12 10  1  0
  1 13  1  0
  1 14  1  0
  2 15  1  0
  3 16  1  0
  6 17  1  0
 11 18  1  0
 19 20  1  0
 20 21  1  0
 21 22  2  0
 22 23  1  0
 23 24  2  0
 24 25  1  0
 24 26  1  0
 26 27  2  0
 27 28  1  0
 27 29  1  0
 29 30  2  0
 30 20  1  0
 30 23  1  0
 12 21  1  0
M  ISO  8  13   8  14   8  15  14  16  14  17  14  18   3  19   9  25  16
M  ISO  1  28  16
M  END
>  <DihAtoms>  (1) 
9,11,20,19

>  <DihDeg>  (1) 
-179.9994413914152

$$$$
