
     RDKit          3D

 30 32  0  0  0  0  0  0  0  0999 V2000
   47.1611   33.9779   42.4735 C   0  0  0  0  0  0  0  0  0  0  0  0
   45.2948   34.2334   45.6982 C   0  0  0  0  0  0  0  0  0  0  0  0
   46.1674   33.7492   44.7087 C   0  0  0  0  0  0  0  0  0  0  0  0
   46.2614   34.4633   43.5136 C   0  0  0  0  0  0  0  0  0  0  0  0
   45.5026   35.5913   43.3702 N   0  0  0  0  0  0  0  0  0  0  0  0
   44.6768   36.0235   44.3435 C   0  0  0  0  0  0  0  0  0  0  0  0
   44.5746   35.3474   45.5004 N   0  0  0  0  0  0  0  0  0  0  0  0
   48.3232   33.4202   43.0166 O   0  0  0  0  0  0  0  0  0  0  0  0
   50.6577   33.1027   41.9059 O   0  0  0  0  0  0  0  0  0  0  0  0
   49.6292   34.1338   42.2297 P   0  0  0  0  0  0  0  0  0  0  0  0
   50.2043   35.3647   43.2453 O   0  0  0  0  0  0  0  0  0  0  0  0
   49.0679   34.8184   40.7813 O   0  0  0  0  0  0  0  0  0  0  0  0
   46.6102   33.2488   41.8155 H   0  0  0  0  0  0  0  0  0  0  0  0
   47.3819   34.8409   41.8046 H   0  0  0  0  0  0  0  0  0  0  0  0
   45.2707   33.6260   46.6072 H   0  0  0  0  0  0  0  0  0  0  0  0
   46.7744   32.8500   44.8190 H   0  0  0  0  0  0  0  0  0  0  0  0
   44.0951   36.9391   44.1613 H   0  0  0  0  0  0  0  0  0  0  0  0
   51.0017   35.1124   43.7514 H   0  0  0  0  0  0  0  0  0  0  0  0
   48.5124   35.6420   38.2146 H   0  0  0  0  0  0  0  0  0  0  0  0
   49.2617   34.9592   38.3561 N   0  0  0  0  0  0  0  0  0  0  0  0
   49.6304   34.4789   39.5449 C   0  0  0  0  0  0  0  0  0  0  0  0
   50.6488   33.5926   39.4131 N   0  0  0  0  0  0  0  0  0  0  0  0
   50.9658   33.4807   38.0994 C   0  0  0  0  0  0  0  0  0  0  0  0
   51.8794   32.7675   37.3459 C   0  0  0  0  0  0  0  0  0  0  0  0
   52.5021   32.1372   37.9504 H   0  0  0  0  0  0  0  0  0  0  0  0
   51.9049   32.9186   35.9977 N   0  0  0  0  0  0  0  0  0  0  0  0
   51.0324   33.7702   35.3955 C   0  0  0  0  0  0  0  0  0  0  0  0
   51.0833   33.8654   34.3065 H   0  0  0  0  0  0  0  0  0  0  0  0
   50.1436   34.4639   36.1299 N   0  0  0  0  0  0  0  0  0  0  0  0
   50.0705   34.3543   37.4831 C   0  0  0  0  0  0  0  0  0  0  0  0
  1  8  1  0
  1  4  1  0
  3  2  2  0
  4  3  1  0
  5  4  2  0
  5  6  1  0
  6  7  2  0
  7  2  1  0
  9 10  2  0
 10  8  1  0
 10 11  1  0
 12 10  1  0
  1 13  1  0
  1 14  1  0
  2 15  1  0
  3 16  1  0
  6 17  1  0
 11 18  1  0
 19 20  1  0
 20 21  1  0
 21 22  2  0
 22 23  1  0
 23 24  2  0
 24 25  1  0
 24 26  1  0
 26 27  2  0
 27 28  1  0
 27 29  1  0
 29 30  2  0
 30 20  1  0
 30 23  1  0
 12 21  1  0
M  ISO  8  13   8  14   8  15  14  16  14  17  14  18   3  19   9  25  16
M  ISO  1  28  16
M  END
>  <DihAtoms>  (1) 
9,11,20,19

>  <DihDeg>  (1) 
-179.9994413914152

$$$$
