
     RDKit          3D

 47 51  0  0  1  0  0  0  0  0999 V2000
   46.7970   29.9880   46.5250 S   0  0  0  0  0  0  0  0  0  0  0  0
   45.3060   30.6140   43.6070 O   0  0  0  0  0  0  0  0  0  0  0  0
   44.8440   29.9870   44.5710 C   0  0  0  0  0  0  0  0  0  0  0  0
   45.1660   29.6760   45.9860 C   0  0  1  0  0  0  0  0  0  0  0  0
   44.7110   28.2430   46.1060 C   0  0  0  0  0  0  0  0  0  0  0  0
   43.2930   28.4320   45.5600 C   0  0  0  0  0  0  0  0  0  0  0  0
   43.5980   29.2840   44.4170 N   0  0  0  0  0  0  0  0  0  0  0  0
   41.6390   30.2010   43.2270 N   0  0  0  0  0  0  0  0  0  0  0  0
   42.6660   29.3290   43.3140 C   0  0  0  0  0  0  0  0  0  0  0  0
   42.6240   28.5570   42.2050 N   0  0  0  0  0  0  0  0  0  0  0  0
   41.5940   28.9280   41.4270 C   0  0  0  0  0  0  0  0  0  0  0  0
   41.0920   28.5000   40.2140 C   0  0  0  0  0  0  0  0  0  0  0  0
   40.0080   29.0810   39.6560 N   0  0  0  0  0  0  0  0  0  0  0  0
   39.3990   30.1090   40.3010 C   0  0  0  0  0  0  0  0  0  0  0  0
   39.8780   30.5360   41.4840 N   0  0  0  0  0  0  0  0  0  0  0  0
   40.9590   29.9750   42.0670 C   0  0  0  0  0  0  0  0  0  0  0  0
   44.5350   35.4340   45.1790 C   0  0  0  0  0  0  0  0  0  0  0  0
   45.2060   35.4660   43.9330 C   0  0  0  0  0  0  0  0  0  0  0  0
   46.1580   34.5320   43.6670 C   0  0  0  0  0  0  0  0  0  0  0  0
   46.4030   33.6160   44.6330 N   0  0  0  0  0  0  0  0  0  0  0  0
   45.7730   33.5910   45.7980 C   0  0  0  0  0  0  0  0  0  0  0  0
   44.8350   34.4930   46.0860 N   0  0  0  0  0  0  0  0  0  0  0  0
   46.1220   32.5700   46.7500 N   0  0  0  0  0  0  0  0  0  0  0  0
   45.3770   32.2820   47.9210 C   0  0  0  0  0  0  0  0  0  0  0  0
   46.4500   31.9460   48.9410 C   0  0  0  0  0  0  0  0  0  0  0  0
   47.7420   31.8890   48.1820 C   0  0  0  0  0  0  0  0  0  0  0  0
   47.2640   31.6890   46.7460 C   0  0  1  0  0  0  0  0  0  0  0  0
   44.8320   36.5030   43.0120 N   0  0  0  0  0  0  0  0  0  0  0  0
   44.6574   30.3636   46.6777 H   0  0  0  0  0  0  0  0  0  0  0  0
   45.3104   27.5608   45.4853 H   0  0  0  0  0  0  0  0  0  0  0  0
   44.7904   27.7902   47.1053 H   0  0  0  0  0  0  0  0  0  0  0  0
   42.8389   27.4781   45.2534 H   0  0  0  0  0  0  0  0  0  0  0  0
   42.5631   28.8423   46.2734 H   0  0  0  0  0  0  0  0  0  0  0  0
   41.4064   30.9217   43.9252 H   0  0  0  0  0  0  0  0  0  0  0  0
   41.5857   27.6678   39.6908 H   0  0  0  0  0  0  0  0  0  0  0  0
   38.5158   30.5919   39.8574 H   0  0  0  0  0  0  0  0  0  0  0  0
   43.7635   36.1850   45.4044 H   0  0  0  0  0  0  0  0  0  0  0  0
   46.7033   34.5214   42.7117 H   0  0  0  0  0  0  0  0  0  0  0  0
   44.7896   33.1558   48.2397 H   0  0  0  0  0  0  0  0  0  0  0  0
   44.6473   31.4711   47.7795 H   0  0  0  0  0  0  0  0  0  0  0  0
   46.4968   32.7248   49.7165 H   0  0  0  0  0  0  0  0  0  0  0  0
   46.2388   30.9925   49.4471 H   0  0  0  0  0  0  0  0  0  0  0  0
   48.3079   32.8264   48.2870 H   0  0  0  0  0  0  0  0  0  0  0  0
   48.4261   31.1024   48.5332 H   0  0  0  0  0  0  0  0  0  0  0  0
   47.9886   31.8991   45.9455 H   0  0  0  0  0  0  0  0  0  0  0  0
   45.2928   36.5664   42.0930 H   0  0  0  0  0  0  0  0  0  0  0  0
   44.1031   37.1832   43.2706 H   0  0  0  0  0  0  0  0  0  0  0  0
  1 27  1  0
  2  3  2  0
  3  4  1  0
  4  5  1  0
  4  1  1  0
  6  5  1  0
  7  3  1  0
  7  6  1  0
  8  9  1  0
  9  7  1  0
 10  9  2  0
 11 16  2  0
 11 10  1  0
 12 11  1  0
 13 12  2  0
 13 14  1  0
 14 15  2  0
 15 16  1  0
 16  8  1  0
 17 22  2  0
 18 17  1  0
 19 18  2  0
 19 20  1  0
 20 21  2  0
 21 22  1  0
 21 23  1  0
 23 24  1  0
 24 25  1  0
 26 25  1  0
 27 23  1  0
 27 26  1  0
 28 18  1  0
  4 29  1  1
  5 30  1  0
  5 31  1  0
  6 32  1  0
  6 33  1  0
  8 34  1  0
 12 35  1  0
 14 36  1  0
 17 37  1  0
 19 38  1  0
 24 39  1  0
 24 40  1  0
 25 41  1  0
 25 42  1  0
 26 43  1  0
 26 44  1  0
 27 45  1  6
 28 46  1  0
 28 47  1  0
M  ISO  8  29  13  30  13  31  13  32  13  33  13  34   9  35  14  36  14
M  ISO  8  37  14  38  14  39  13  40  13  41  13  42  13  43  13  44  13
M  ISO  1  45  13
M  END
>  <minimizedAffinity>  (1) 
-6.11086512

>  <minimizedRMSD>  (1) 
0.558740199

$$$$
