
     RDKit          3D

 47 51  0  0  1  0  0  0  0  0999 V2000
   49.1090   32.8580   37.9160 C   0  0  1  0  0  0  0  0  0  0  0  0
   48.5640   33.5800   39.2500 C   0  0  1  0  0  0  0  0  0  0  0  0
   47.4710   34.1570   38.7120 O   0  0  0  0  0  0  0  0  0  0  0  0
   46.7990   33.0050   38.2290 C   0  0  0  0  0  0  0  0  0  0  0  0
   47.8200   32.4420   37.2740 C   0  0  1  0  0  0  0  0  0  0  0  0
   49.6390   33.9070   37.1530 O   0  0  0  0  0  0  0  0  0  0  0  0
   48.1750   32.5090   40.0500 O   0  0  0  0  0  0  0  0  0  0  0  0
   48.3070   33.6720   42.1080 C   0  0  2  0  0  0  0  0  0  0  0  0
   46.8320   33.2270   42.3000 C   0  0  1  0  0  0  0  0  0  0  0  0
   47.0420   32.0320   42.9240 O   0  0  0  0  0  0  0  0  0  0  0  0
   47.9720   31.3750   42.0910 C   0  0  0  0  0  0  0  0  0  0  0  0
   48.7210   32.4650   41.2950 C   0  0  1  0  0  0  0  0  0  0  0  0
   44.8510   36.1910   43.6220 C   0  0  0  0  0  0  0  0  0  0  0  0
   45.5690   35.4320   42.7010 C   0  0  0  0  0  0  0  0  0  0  0  0
   46.0810   34.2150   43.0810 C   0  0  0  0  0  0  0  0  0  0  0  0
   45.8460   33.8180   44.3730 N   0  0  0  0  0  0  0  0  0  0  0  0
   45.1520   34.5630   45.2490 C   0  0  0  0  0  0  0  0  0  0  0  0
   44.6560   35.7450   44.8760 N   0  0  0  0  0  0  0  0  0  0  0  0
   48.9940   33.5970   43.2930 O   0  0  0  0  0  0  0  0  0  0  0  0
   47.6390   33.0230   36.0340 O   0  0  0  0  0  0  0  0  0  0  0  0
   48.3390   33.1070   33.8310 N   0  0  0  0  0  0  0  0  0  0  0  0
   47.7500   32.3710   34.8130 C   0  0  0  0  0  0  0  0  0  0  0  0
   47.4430   31.1950   34.2890 N   0  0  0  0  0  0  0  0  0  0  0  0
   47.8030   31.1140   32.9940 C   0  0  0  0  0  0  0  0  0  0  0  0
   47.6610   30.0670   32.0930 C   0  0  0  0  0  0  0  0  0  0  0  0
   48.1390   30.3180   30.8370 N   0  0  0  0  0  0  0  0  0  0  0  0
   48.6980   31.5010   30.5380 C   0  0  0  0  0  0  0  0  0  0  0  0
   48.8120   32.4740   31.4340 N   0  0  0  0  0  0  0  0  0  0  0  0
   48.3710   32.3410   32.7180 C   0  0  0  0  0  0  0  0  0  0  0  0
   49.8362   32.0428   38.0448 H   0  0  0  0  0  0  0  0  0  0  0  0
   49.2153   34.2633   39.8147 H   0  0  0  0  0  0  0  0  0  0  0  0
   46.5767   32.2986   39.0423 H   0  0  0  0  0  0  0  0  0  0  0  0
   45.8218   33.2146   37.7695 H   0  0  0  0  0  0  0  0  0  0  0  0
   47.7678   31.3559   37.1076 H   0  0  0  0  0  0  0  0  0  0  0  0
   49.9930   34.6077   37.7562 H   0  0  0  0  0  0  0  0  0  0  0  0
   48.4631   34.6846   41.7078 H   0  0  0  0  0  0  0  0  0  0  0  0
   46.2135   33.1386   41.3946 H   0  0  0  0  0  0  0  0  0  0  0  0
   48.6828   30.7983   42.7010 H   0  0  0  0  0  0  0  0  0  0  0  0
   47.4622   30.6760   41.4116 H   0  0  0  0  0  0  0  0  0  0  0  0
   49.8072   32.3490   41.1661 H   0  0  0  0  0  0  0  0  0  0  0  0
   44.4390   37.1654   43.3208 H   0  0  0  0  0  0  0  0  0  0  0  0
   45.7249   35.8039   41.6776 H   0  0  0  0  0  0  0  0  0  0  0  0
   44.9922   34.1989   46.2746 H   0  0  0  0  0  0  0  0  0  0  0  0
   48.3577   33.6665   44.0483 H   0  0  0  0  0  0  0  0  0  0  0  0
   48.6945   34.0696   33.9198 H   0  0  0  0  0  0  0  0  0  0  0  0
   47.1987   29.1078   32.3691 H   0  0  0  0  0  0  0  0  0  0  0  0
   49.0737   31.6698   29.5180 H   0  0  0  0  0  0  0  0  0  0  0  0
  1  2  1  0
  2  7  1  0
  3  2  1  0
  4  3  1  0
  5  1  1  0
  5  4  1  0
  6  1  1  0
  7 12  1  0
  8  9  1  0
  8 19  1  0
  9 10  1  0
  9 15  1  0
 11 10  1  0
 12 11  1  0
 12  8  1  0
 13 18  2  0
 14 15  2  0
 14 13  1  0
 15 16  1  0
 16 17  2  0
 18 17  1  0
 20  5  1  0
 21 22  1  0
 22 20  1  0
 23 22  2  0
 24 23  1  0
 25 24  2  0
 26 25  1  0
 27 26  2  0
 27 28  1  0
 28 29  2  0
 29 24  1  0
 29 21  1  0
  1 30  1  1
  2 31  1  1
  4 32  1  0
  4 33  1  0
  5 34  1  6
  6 35  1  0
  8 36  1  6
  9 37  1  6
 11 38  1  0
 11 39  1  0
 12 40  1  6
 13 41  1  0
 14 42  1  0
 17 43  1  0
 19 44  1  0
 21 45  1  0
 25 46  1  0
 27 47  1  0
M  ISO  8  30  13  31  13  32  13  33  13  34  13  35   3  36  13  37  13
M  ISO  8  38  13  39  13  40  13  41  14  42  14  43  14  44   3  45   9
M  ISO  2  46  14  47  14
M  END
>  <minimizedAffinity>  (1) 
-6.46766996

>  <minimizedRMSD>  (1) 
2.48228097

$$$$
