
     RDKit          3D

 34 37  0  0  0  0  0  0  0  0999 V2000
   43.9498   34.6584   41.4522 C   0  0  0  0  0  0  0  0  0  0  0  0
   42.7445   35.3119   41.1014 C   0  0  0  0  0  0  0  0  0  0  0  0
   42.1800   35.0401   39.8595 C   0  0  0  0  0  0  0  0  0  0  0  0
   42.8290   34.1522   39.0480 N   0  0  0  0  0  0  0  0  0  0  0  0
   43.9907   33.5468   39.4317 C   0  0  0  0  0  0  0  0  0  0  0  0
   44.5457   33.7948   40.6174 N   0  0  0  0  0  0  0  0  0  0  0  0
   44.5504   34.9575   42.7780 C   0  0  0  0  0  0  0  0  0  0  0  0
   46.0574   35.3283   42.6815 C   0  0  0  0  0  0  0  0  0  0  0  0
   45.0121   36.2644   43.1483 C   0  0  0  0  0  0  0  0  0  0  0  0
   40.9199   35.6993   39.4608 C   0  0  0  0  0  0  0  0  0  0  0  0
   40.2084   36.3162   40.6452 C   0  0  0  0  0  0  0  0  0  0  0  0
   42.3196   35.9941   41.8217 H   0  0  0  0  0  0  0  0  0  0  0  0
   44.4708   32.8439   38.7456 H   0  0  0  0  0  0  0  0  0  0  0  0
   44.3003   34.2096   43.5617 H   0  0  0  0  0  0  0  0  0  0  0  0
   46.6996   34.7903   43.4065 H   0  0  0  0  0  0  0  0  0  0  0  0
   46.4869   35.4488   41.6629 H   0  0  0  0  0  0  0  0  0  0  0  0
   44.8245   37.1562   42.4835 H   0  0  0  0  0  0  0  0  0  0  0  0
   45.0427   36.5713   44.2079 H   0  0  0  0  0  0  0  0  0  0  0  0
   41.0751   36.5238   38.7366 H   0  0  0  0  0  0  0  0  0  0  0  0
   40.2982   34.9290   38.9593 H   0  0  0  0  0  0  0  0  0  0  0  0
   40.0076   35.5252   41.3787 H   0  0  0  0  0  0  0  0  0  0  0  0
   40.8618   37.1374   41.0027 H   0  0  0  0  0  0  0  0  0  0  0  0
   38.9834   36.9358   40.1728 N   0  0  0  0  0  0  0  0  0  0  0  0
   38.8410   37.9312   39.2640 C   0  0  0  0  0  0  0  0  0  0  0  0
   39.7364   38.3628   38.7914 H   0  0  0  0  0  0  0  0  0  0  0  0
   37.5526   38.2410   39.0832 N   0  0  0  0  0  0  0  0  0  0  0  0
   36.8229   37.4439   39.8804 C   0  0  0  0  0  0  0  0  0  0  0  0
   35.4480   37.3713   40.0604 C   0  0  0  0  0  0  0  0  0  0  0  0
   34.7758   38.0186   39.5169 H   0  0  0  0  0  0  0  0  0  0  0  0
   35.0362   36.4478   40.9482 N   0  0  0  0  0  0  0  0  0  0  0  0
   35.8759   35.6376   41.6284 C   0  0  0  0  0  0  0  0  0  0  0  0
   35.4020   34.9407   42.3118 H   0  0  0  0  0  0  0  0  0  0  0  0
   37.2146   35.7374   41.4263 N   0  0  0  0  0  0  0  0  0  0  0  0
   37.7313   36.6290   40.5593 C   0  0  0  0  0  0  0  0  0  0  0  0
  1  7  1  0
  2  1  2  0
  3  2  1  0
  4  5  1  0
  4  3  2  0
  5  6  2  0
  6  1  1  0
  7  9  1  0
  8  7  1  0
  8  9  1  0
 10  3  1  0
 10 11  1  0
  2 12  1  0
  5 13  1  0
  7 14  1  0
  8 15  1  0
  8 16  1  0
  9 17  1  0
  9 18  1  0
 10 19  1  0
 10 20  1  0
 11 21  1  0
 11 22  1  0
 23 24  1  0
 24 25  1  0
 24 26  2  0
 26 27  1  0
 27 28  2  0
 28 29  1  0
 28 30  1  0
 30 31  2  0
 31 32  1  0
 31 33  1  0
 33 34  2  0
 34 23  1  0
 34 27  1  0
 11 23  1  0
M  ISO  8  12  14  13  14  14  13  15  13  16  13  17  13  18  13  19   8
M  ISO  6  20   8  21   8  22   8  25  15  29  16  32  16
M  END
>  <DihAtoms>  (1) 
9,10,22,23

>  <DihDeg>  (1) 
-90.00287337403043

$$$$
