
     RDKit          3D

 46 49  0  0  0  0  0  0  0  0999 V2000
   46.6570   34.9030   42.0416 C   0  0  0  0  0  0  0  0  0  0  0  0
   45.1846   34.9030   41.7983 C   0  0  0  0  0  0  0  0  0  0  0  0
   44.3166   35.5436   42.7371 C   0  0  0  0  0  0  0  0  0  0  0  0
   42.6590   35.2767   42.0123 S   0  0  0  0  0  0  0  0  0  0  0  0
   43.4193   34.3333   40.5442 C   0  0  0  0  0  0  0  0  0  0  0  0
   44.5317   34.3803   40.8075 N   0  0  0  0  0  0  0  0  0  0  0  0
   42.6566   33.7945   39.5081 O   0  0  0  0  0  0  0  0  0  0  0  0
   40.6878   34.1222   37.7613 O   0  0  0  0  0  0  0  0  0  0  0  0
   41.7386   34.8653   38.5748 P   0  0  0  0  0  0  0  0  0  0  0  0
   40.9446   35.9340   39.6288 O   0  0  0  0  0  0  0  0  0  0  0  0
   42.7631   35.7861   37.5764 O   0  0  0  0  0  0  0  0  0  0  0  0
   47.4651   34.5707   40.8189 C   0  0  0  0  0  0  0  0  0  0  0  0
   48.7067   33.8438   41.1285 C   0  0  0  0  0  0  0  0  0  0  0  0
   49.0349   32.7768   40.2966 C   0  0  0  0  0  0  0  0  0  0  0  0
   50.1727   32.0272   40.4931 C   0  0  0  0  0  0  0  0  0  0  0  0
   50.9667   32.3852   41.5504 N   0  0  0  0  0  0  0  0  0  0  0  0
   50.6132   33.4437   42.3517 C   0  0  0  0  0  0  0  0  0  0  0  0
   49.5031   34.1427   42.1262 N   0  0  0  0  0  0  0  0  0  0  0  0
   47.9487   32.3477   38.9135 S   0  0  0  0  0  0  0  0  0  0  0  0
   48.6348   33.0040   37.3730 C   0  0  0  0  0  0  0  0  0  0  0  0
   48.3003   34.4571   37.2865 C   0  0  0  0  0  0  0  0  0  0  0  0
   46.9556   35.9069   42.4468 H   0  0  0  0  0  0  0  0  0  0  0  0
   46.8364   34.2058   42.8985 H   0  0  0  0  0  0  0  0  0  0  0  0
   44.6087   36.0576   43.6537 H   0  0  0  0  0  0  0  0  0  0  0  0
   40.0881   35.5443   39.9485 H   0  0  0  0  0  0  0  0  0  0  0  0
   42.5403   35.6775   36.6220 H   0  0  0  0  0  0  0  0  0  0  0  0
   46.8658   34.0946   40.0468 H   0  0  0  0  0  0  0  0  0  0  0  0
   47.7818   35.5609   40.3766 H   0  0  0  0  0  0  0  0  0  0  0  0
   50.4099   31.2067   39.8404 H   0  0  0  0  0  0  0  0  0  0  0  0
   51.2936   33.6652   43.1687 H   0  0  0  0  0  0  0  0  0  0  0  0
   48.1499   32.4376   36.5408 H   0  0  0  0  0  0  0  0  0  0  0  0
   49.7194   32.8203   37.3724 H   0  0  0  0  0  0  0  0  0  0  0  0
   48.7149   34.9385   38.2180 H   0  0  0  0  0  0  0  0  0  0  0  0
   47.1892   34.5524   37.3847 H   0  0  0  0  0  0  0  0  0  0  0  0
   48.7939   35.1023   36.0965 N   0  0  0  0  0  0  0  0  0  0  0  0
   48.5230   34.8282   34.8075 C   0  0  0  0  0  0  0  0  0  0  0  0
   47.8620   34.0446   34.4447 H   0  0  0  0  0  0  0  0  0  0  0  0
   49.2226   35.7029   34.0849 N   0  0  0  0  0  0  0  0  0  0  0  0
   49.9396   36.5369   34.8595 C   0  0  0  0  0  0  0  0  0  0  0  0
   50.8066   37.5927   34.6547 C   0  0  0  0  0  0  0  0  0  0  0  0
   50.9747   37.8387   33.6081 H   0  0  0  0  0  0  0  0  0  0  0  0
   51.3857   38.2490   35.6994 N   0  0  0  0  0  0  0  0  0  0  0  0
   51.0837   37.8332   36.9428 C   0  0  0  0  0  0  0  0  0  0  0  0
   51.5407   38.3505   37.7822 H   0  0  0  0  0  0  0  0  0  0  0  0
   50.2437   36.8078   37.2056 N   0  0  0  0  0  0  0  0  0  0  0  0
   49.6606   36.1460   36.1678 C   0  0  0  0  0  0  0  0  0  0  0  0
  2  1  1  0
  2  3  2  0
  4  3  1  0
  5  6  2  0
  5  4  1  0
  6  2  1  0
  7  5  1  0
  8  9  2  0
  9  7  1  0
  9 10  1  0
 11  9  1  0
 12 13  1  0
 12  1  1  0
 13 18  2  0
 14 15  2  0
 14 13  1  0
 15 16  1  0
 16 17  2  0
 18 17  1  0
 19 14  1  0
 20 19  1  0
 21 20  1  0
  1 22  1  0
  1 23  1  0
  3 24  1  0
 10 25  1  0
 11 26  1  0
 12 27  1  0
 12 28  1  0
 15 29  1  0
 17 30  1  0
 20 31  1  0
 20 32  1  0
 21 33  1  0
 21 34  1  0
 35 36  1  0
 36 37  1  0
 36 38  2  0
 38 39  1  0
 39 40  2  0
 40 41  1  0
 40 42  1  0
 42 43  2  0
 43 44  1  0
 43 45  1  0
 45 46  2  0
 46 35  1  0
 46 39  1  0
 21 35  1  0
M  ISO  8  22   8  23   8  24  14  25   3  26   3  27   8  28   8  29  14
M  ISO  8  30  14  31   8  32   8  33   8  34   8  37  15  41  16  44  16
M  END
>  <DihAtoms>  (1) 
19,20,34,35

>  <DihDeg>  (1) 
-90.00014247103917

$$$$
