
     RDKit          3D

 40 42  0  0  0  0  0  0  0  0999 V2000
   46.2728   32.1249   44.4442 C   0  0  1  0  0  0  0  0  0  0  0  0
   46.5796   31.5047   43.2073 C   0  0  0  0  0  0  0  0  0  0  0  0
   47.7069   32.1469   44.0345 C   0  0  1  0  0  0  0  0  0  0  0  0
   45.0271   34.0248   43.2030 C   0  0  0  0  0  0  0  0  0  0  0  0
   45.5287   33.4634   44.4049 C   0  0  0  0  0  0  0  0  0  0  0  0
   45.3499   34.1682   45.5721 C   0  0  0  0  0  0  0  0  0  0  0  0
   44.7089   35.3597   45.5304 N   0  0  0  0  0  0  0  0  0  0  0  0
   44.2315   35.8924   44.3759 C   0  0  0  0  0  0  0  0  0  0  0  0
   44.3996   35.1961   43.1752 N   0  0  0  0  0  0  0  0  0  0  0  0
   48.1919   33.3835   43.5081 N   0  0  0  0  0  0  0  0  0  0  0  0
   49.2410   33.4747   42.6132 C   0  0  0  0  0  0  0  0  0  0  0  0
   50.3629   32.8971   42.5993 O   0  0  0  0  0  0  0  0  0  0  0  0
   49.1287   34.3889   41.4008 C   0  0  2  0  0  0  0  0  0  0  0  0
   49.1307   35.9236   41.6902 C   0  0  0  0  0  0  0  0  0  0  0  0
   47.9320   35.1909   41.1608 C   0  0  1  0  0  0  0  0  0  0  0  0
   45.9758   31.5643   45.3434 H   0  0  0  0  0  0  0  0  0  0  0  0
   46.4733   31.9364   42.1942 H   0  0  0  0  0  0  0  0  0  0  0  0
   46.5593   30.3800   43.1495 H   0  0  0  0  0  0  0  0  0  0  0  0
   48.4300   31.3482   44.3020 H   0  0  0  0  0  0  0  0  0  0  0  0
   45.1661   33.4772   42.3076 H   0  0  0  0  0  0  0  0  0  0  0  0
   45.7174   33.7697   46.4973 H   0  0  0  0  0  0  0  0  0  0  0  0
   43.7271   36.8303   44.3413 H   0  0  0  0  0  0  0  0  0  0  0  0
   47.7521   34.3048   43.7927 H   0  0  0  0  0  0  0  0  0  0  0  0
   49.8627   34.2218   40.5906 H   0  0  0  0  0  0  0  0  0  0  0  0
   49.6340   36.5968   41.0165 H   0  0  0  0  0  0  0  0  0  0  0  0
   49.2411   36.1887   42.7559 H   0  0  0  0  0  0  0  0  0  0  0  0
   47.1169   35.3188   41.8999 H   0  0  0  0  0  0  0  0  0  0  0  0
   47.4244   35.3281   39.7702 C   0  0  0  0  0  0  0  0  0  0  0  0
   47.6452   34.2552   38.8670 N   0  0  0  0  0  4  0  0  0  0  0  0
   47.9613   34.8571   37.5534 C   0  0  0  0  0  0  0  0  0  0  0  0
   47.1364   35.5288   37.2416 H   0  0  0  0  0  0  0  0  0  0  0  0
   46.4149   33.4947   38.5801 C   0  0  0  0  0  0  0  0  0  0  0  0
   45.7757   34.1886   37.9588 H   0  0  0  0  0  0  0  0  0  0  0  0
   47.7057   36.3272   39.3174 H   0  0  0  0  0  0  0  0  0  0  0  0
   46.2970   35.4251   39.8623 H   0  0  0  0  0  0  0  0  0  0  0  0
   48.4338   33.6346   39.0612 H   0  0  0  0  0  0  0  0  0  0  0  0
   48.0039   34.0128   36.8494 H   0  0  0  0  0  0  0  0  0  0  0  0
   48.9535   35.3580   37.5877 H   0  0  0  0  0  0  0  0  0  0  0  0
   46.7182   32.6291   37.9799 H   0  0  0  0  0  0  0  0  0  0  0  0
   45.8210   33.2785   39.4638 H   0  0  0  0  0  0  0  0  0  0  0  0
  2  3  1  0
  2  1  1  0
  3  1  1  0
  4  5  2  0
  5  1  1  0
  5  6  1  0
  7  6  2  0
  8  7  1  0
  9  4  1  0
  9  8  2  0
 10  3  1  0
 11 10  1  0
 12 11  2  0
 13 14  1  0
 13 11  1  0
 15 13  1  0
 15 14  1  0
  1 16  1  1
  2 17  1  0
  2 18  1  0
  3 19  1  1
  4 20  1  0
  6 21  1  0
  8 22  1  0
 10 23  1  0
 13 24  1  6
 14 25  1  0
 14 26  1  0
 15 27  1  1
 28 29  1  0
 29 30  1  0
 30 31  1  0
 29 32  1  0
 32 33  1  0
 28 34  1  0
 28 35  1  0
 29 36  1  0
 30 37  1  0
 30 38  1  0
 32 39  1  0
 32 40  1  0
 15 28  1  0
M  CHG  1  29   1
M  END
>  <DihAtoms>  (1) 
12,14,27,28

>  <DihDeg>  (1) 
-59.78922926011291

$$$$
