
     RDKit          3D

 41 43  0  0  0  0  0  0  0  0999 V2000
   47.5324   32.8414   43.9065 C   0  0  0  0  0  0  0  0  0  0  0  0
   48.3740   33.3876   43.0171 C   0  0  0  0  0  0  0  0  0  0  0  0
   49.2382   32.4938   42.4193 C   0  0  0  0  0  0  0  0  0  0  0  0
   49.1662   31.1362   42.7853 N   0  0  0  0  0  0  0  0  0  0  0  0
   48.3128   30.6780   43.6710 C   0  0  0  0  0  0  0  0  0  0  0  0
   47.4319   31.5423   44.2873 N   0  0  0  0  0  0  0  0  0  0  0  0
   48.5237   34.7721   42.7332 C   0  0  0  0  0  0  0  0  0  0  0  0
   49.5220   35.4000   42.0587 C   0  0  0  0  0  0  0  0  0  0  0  0
   48.2790   35.2218   41.2308 C   0  0  0  0  0  0  0  0  0  0  0  0
   46.4515   33.5327   44.6203 C   0  0  0  0  0  0  0  0  0  0  0  0
   45.8797   33.8978   45.6178 O   0  0  0  0  0  0  0  0  0  0  0  0
   44.6868   31.6644   42.9194 Cl  0  0  0  0  0  0  0  0  0  0  0  0
   44.6487   33.4229   42.7653 C   0  0  0  0  0  0  0  0  0  0  0  0
   45.5237   34.1246   43.6217 C   0  0  0  0  0  0  0  0  0  0  0  0
   45.4181   35.4876   43.4022 C   0  0  0  0  0  0  0  0  0  0  0  0
   44.6498   36.1694   42.5413 C   0  0  0  0  0  0  0  0  0  0  0  0
   43.8341   35.4158   41.7508 C   0  0  0  0  0  0  0  0  0  0  0  0
   43.8154   34.0655   41.8439 C   0  0  0  0  0  0  0  0  0  0  0  0
   49.9761   32.7701   41.6773 H   0  0  0  0  0  0  0  0  0  0  0  0
   48.3781   29.6090   43.8520 H   0  0  0  0  0  0  0  0  0  0  0  0
   48.0599   35.4300   43.4910 H   0  0  0  0  0  0  0  0  0  0  0  0
   50.3882   34.8172   41.6576 H   0  0  0  0  0  0  0  0  0  0  0  0
   49.8394   36.4759   42.1121 H   0  0  0  0  0  0  0  0  0  0  0  0
   48.2186   34.3850   40.5230 H   0  0  0  0  0  0  0  0  0  0  0  0
   47.5828   36.0677   41.1437 H   0  0  0  0  0  0  0  0  0  0  0  0
   46.0164   36.1907   44.0227 H   0  0  0  0  0  0  0  0  0  0  0  0
   44.6133   37.2399   42.4139 H   0  0  0  0  0  0  0  0  0  0  0  0
   43.1552   35.8255   41.0066 H   0  0  0  0  0  0  0  0  0  0  0  0
   42.9084   33.2228   41.0051 C   0  0  0  0  0  0  0  0  0  0  0  0
   42.7172   31.9109   41.5411 N   0  0  0  0  0  4  0  0  0  0  0  0
   43.5318   31.5485   42.6539 C   0  0  0  0  0  0  0  0  0  0  0  0
   44.3082   30.7851   42.3533 H   0  0  0  0  0  0  0  0  0  0  0  0
   42.8380   30.9032   40.5089 C   0  0  0  0  0  0  0  0  0  0  0  0
   41.8360   30.5764   40.1250 H   0  0  0  0  0  0  0  0  0  0  0  0
   41.9621   33.7872   40.8919 H   0  0  0  0  0  0  0  0  0  0  0  0
   43.3687   33.2032   39.9814 H   0  0  0  0  0  0  0  0  0  0  0  0
   41.6957   31.8746   41.8508 H   0  0  0  0  0  0  0  0  0  0  0  0
   43.9401   32.3717   43.2524 H   0  0  0  0  0  0  0  0  0  0  0  0
   42.8998   30.9642   43.3886 H   0  0  0  0  0  0  0  0  0  0  0  0
   43.4299   31.1928   39.6426 H   0  0  0  0  0  0  0  0  0  0  0  0
   43.2918   29.9590   40.9120 H   0  0  0  0  0  0  0  0  0  0  0  0
  1  6  1  0
  1 10  1  0
  2  1  2  0
  3  4  2  0
  3  2  1  0
  4  5  1  0
  5  6  2  0
  7  2  1  0
  8  7  1  0
  9  8  1  0
  9  7  1  0
 10 11  2  0
 13 12  1  0
 13 14  2  0
 14 10  1  0
 15 14  1  0
 16 15  2  0
 17 18  2  0
 17 16  1  0
 18 13  1  0
  3 19  1  0
  5 20  1  0
  7 21  1  0
  8 22  1  0
  8 23  1  0
  9 24  1  0
  9 25  1  0
 15 26  1  0
 16 27  1  0
 17 28  1  0
 29 30  1  0
 30 31  1  0
 31 32  1  0
 30 33  1  0
 33 34  1  0
 29 35  1  0
 29 36  1  0
 30 37  1  0
 31 38  1  0
 31 39  1  0
 33 40  1  0
 33 41  1  0
 18 29  1  0
M  ISO  8  19  14  20  14  21  13  22  13  23  13  24  13  25  13  26  14
M  CHG  1  30   1
M  ISO  4  27  14  28  14  32   8  34   8
M  END
>  <DihAtoms>  (1) 
16,17,28,29

>  <DihDeg>  (1) 
-100.65950357221571

$$$$
