
     RDKit          3D

 46 49  0  0  0  0  0  0  0  0999 V2000
   44.8115   32.0364   40.9844 F   0  0  0  0  0  0  0  0  0  0  0  0
   44.3204   33.2763   41.0906 C   0  0  0  0  0  0  0  0  0  0  0  0
   44.7330   34.0708   42.1160 C   0  0  0  0  0  0  0  0  0  0  0  0
   44.2324   35.3832   42.2536 C   0  0  0  0  0  0  0  0  0  0  0  0
   43.3252   35.8882   41.3658 C   0  0  0  0  0  0  0  0  0  0  0  0
   42.9226   35.0610   40.3336 C   0  0  0  0  0  0  0  0  0  0  0  0
   43.4080   33.7727   40.1907 C   0  0  0  0  0  0  0  0  0  0  0  0
   42.9155   32.9849   39.0640 C   0  0  0  0  0  0  0  0  0  0  0  0
   43.5480   32.4772   37.9649 C   0  0  0  0  0  0  0  0  0  0  0  0
   42.6785   31.8093   37.1872 N   0  0  0  0  0  0  0  0  0  0  0  0
   41.4910   31.8916   37.7915 C   0  0  0  0  0  0  0  0  0  0  0  0
   41.6318   32.5997   38.9227 N   0  0  0  0  0  0  0  0  0  0  0  0
   46.3477   32.9078   45.0236 C   0  0  0  0  0  0  0  0  0  0  0  0
   47.4506   33.2882   44.2564 C   0  0  0  0  0  0  0  0  0  0  0  0
   46.9983   33.7739   43.0668 C   0  0  0  0  0  0  0  0  0  0  0  0
   45.6546   33.6948   43.1010 N   0  0  0  0  0  0  0  0  0  0  0  0
   45.2985   33.1793   44.2693 N   0  0  0  0  0  0  0  0  0  0  0  0
   47.3738   30.8568   47.8645 C   0  0  0  0  0  0  0  0  0  0  0  0
   46.5157   31.3015   48.8899 C   0  0  0  0  0  0  0  0  0  0  0  0
   45.5892   32.3072   48.5906 C   0  0  0  0  0  0  0  0  0  0  0  0
   45.6161   32.7528   47.3280 N   0  0  0  0  0  0  0  0  0  0  0  0
   46.4176   32.3430   46.3555 C   0  0  0  0  0  0  0  0  0  0  0  0
   47.3259   31.3666   46.6235 N   0  0  0  0  0  0  0  0  0  0  0  0
   44.5463   36.0327   43.0612 H   0  0  0  0  0  0  0  0  0  0  0  0
   42.9490   36.8966   41.4827 H   0  0  0  0  0  0  0  0  0  0  0  0
   42.2006   35.4826   39.6391 H   0  0  0  0  0  0  0  0  0  0  0  0
   44.6220   32.6265   37.7932 H   0  0  0  0  0  0  0  0  0  0  0  0
   42.9119   31.3297   36.2918 H   0  0  0  0  0  0  0  0  0  0  0  0
   40.5343   31.4656   37.4534 H   0  0  0  0  0  0  0  0  0  0  0  0
   48.5036   33.2160   44.5440 H   0  0  0  0  0  0  0  0  0  0  0  0
   47.6088   34.1475   42.2599 H   0  0  0  0  0  0  0  0  0  0  0  0
   48.0883   30.0698   48.1263 H   0  0  0  0  0  0  0  0  0  0  0  0
   46.5183   30.9242   49.8935 H   0  0  0  0  0  0  0  0  0  0  0  0
   44.6224   32.8810   49.5513 C   0  0  0  0  0  0  0  0  0  0  0  0
   45.1376   34.0176   50.2609 N   0  0  0  0  0  4  0  0  0  0  0  0
   46.6037   34.0674   50.1973 C   0  0  0  0  0  0  0  0  0  0  0  0
   46.9607   34.9077   50.8047 H   0  0  0  0  0  0  0  0  0  0  0  0
   44.6861   34.0455   51.6208 C   0  0  0  0  0  0  0  0  0  0  0  0
   45.4205   34.5662   52.2721 H   0  0  0  0  0  0  0  0  0  0  0  0
   44.2359   32.0909   50.2245 H   0  0  0  0  0  0  0  0  0  0  0  0
   43.7259   33.2073   48.9586 H   0  0  0  0  0  0  0  0  0  0  0  0
   44.7932   34.9032   49.7939 H   0  0  0  0  0  0  0  0  0  0  0  0
   46.9069   34.2172   49.1436 H   0  0  0  0  0  0  0  0  0  0  0  0
   47.0139   33.1443   50.6579 H   0  0  0  0  0  0  0  0  0  0  0  0
   44.4682   33.0429   52.0413 H   0  0  0  0  0  0  0  0  0  0  0  0
   43.7549   34.6772   51.7072 H   0  0  0  0  0  0  0  0  0  0  0  0
  1  2  1  0
  2  3  2  0
  3  4  1  0
  3 16  1  0
  5  4  2  0
  6  5  1  0
  7  6  2  0
  7  2  1  0
  8  7  1  0
  9  8  2  0
 10 11  1  0
 10  9  1  0
 11 12  2  0
 12  8  1  0
 13 22  1  0
 14 13  1  0
 15 16  1  0
 15 14  2  0
 16 17  1  0
 17 13  2  0
 18 19  2  0
 20 19  1  0
 21 20  2  0
 22 23  2  0
 22 21  1  0
 23 18  1  0
  4 24  1  0
  5 25  1  0
  6 26  1  0
  9 27  1  0
 10 28  1  0
 11 29  1  0
 14 30  1  0
 15 31  1  0
 18 32  1  0
 19 33  1  0
 34 35  1  0
 35 36  1  0
 36 37  1  0
 35 38  1  0
 38 39  1  0
 34 40  1  0
 34 41  1  0
 35 42  1  0
 36 43  1  0
 36 44  1  0
 38 45  1  0
 38 46  1  0
 20 34  1  0
M  ISO  8  24  14  25  14  26  14  27  14  28   9  29  14  30  14  31  14
M  CHG  1  35   1
M  ISO  4  32  14  33  14  37   8  39   8
M  END
>  <DihAtoms>  (1) 
18,19,33,34

>  <DihDeg>  (1) 
90.00947429150996

$$$$
