
     RDKit          3D

 28 28  0  0  0  0  0  0  0  0999 V2000
   46.3462   35.2089   42.5912 C   0  0  0  0  0  0  0  0  0  0  0  0
   46.8719   34.0926   43.2834 C   0  0  0  0  0  0  0  0  0  0  0  0
   46.3367   33.7678   44.5265 C   0  0  0  0  0  0  0  0  0  0  0  0
   45.3279   34.5525   45.0072 N   0  0  0  0  0  0  0  0  0  0  0  0
   44.8535   35.6024   44.3269 C   0  0  0  0  0  0  0  0  0  0  0  0
   45.3587   35.9397   43.1121 N   0  0  0  0  0  0  0  0  0  0  0  0
   47.8947   33.4028   42.6609 O   0  0  0  0  0  0  0  0  0  0  0  0
   50.3979   33.1957   41.8285 O   0  0  0  0  0  0  0  0  0  0  0  0
   49.3249   34.1977   42.1479 P   0  0  0  0  0  0  0  0  0  0  0  0
   49.0401   35.1114   40.7499 O   0  0  0  0  0  0  0  0  0  0  0  0
   49.8916   35.2264   43.3554 O   0  0  0  0  0  0  0  0  0  0  0  0
   46.7483   35.4859   41.6232 H   0  0  0  0  0  0  0  0  0  0  0  0
   44.0577   36.1818   44.7674 H   0  0  0  0  0  0  0  0  0  0  0  0
   49.6393   34.8623   40.0056 H   0  0  0  0  0  0  0  0  0  0  0  0
   49.1180   35.6613   43.8161 H   0  0  0  0  0  0  0  0  0  0  0  0
   46.8495   32.6088   45.2582 C   0  0  0  0  0  0  0  0  0  0  0  0
   46.8678   32.7498   46.6880 N   0  0  0  0  0  4  0  0  0  0  0  0
   45.8696   31.9403   47.3712 C   0  0  0  0  0  0  0  0  0  0  0  0
   46.2494   31.8115   48.4271 H   0  0  0  0  0  0  0  0  0  0  0  0
   48.1585   32.1907   47.1259 C   0  0  0  0  0  0  0  0  0  0  0  0
   48.1398   31.1487   46.7277 H   0  0  0  0  0  0  0  0  0  0  0  0
   46.1446   31.7467   45.0486 H   0  0  0  0  0  0  0  0  0  0  0  0
   47.8147   32.3072   44.8391 H   0  0  0  0  0  0  0  0  0  0  0  0
   46.7843   33.7222   47.0388 H   0  0  0  0  0  0  0  0  0  0  0  0
   45.7900   30.9291   46.9483 H   0  0  0  0  0  0  0  0  0  0  0  0
   44.9098   32.4509   47.4758 H   0  0  0  0  0  0  0  0  0  0  0  0
   48.2022   32.2243   48.2123 H   0  0  0  0  0  0  0  0  0  0  0  0
   48.9685   32.6983   46.5814 H   0  0  0  0  0  0  0  0  0  0  0  0
  1  6  2  0
  1  2  1  0
  2  3  2  0
  3  4  1  0
  5  4  2  0
  6  5  1  0
  7  2  1  0
  8  9  2  0
  9  7  1  0
  9 11  1  0
 10  9  1  0
  1 12  1  0
  5 13  1  0
 10 14  1  0
 11 15  1  0
 16 17  1  0
 17 18  1  0
 18 19  1  0
 17 20  1  0
 20 21  1  0
 16 22  1  0
 16 23  1  0
 17 24  1  0
 18 25  1  0
 18 26  1  0
 20 27  1  0
 20 28  1  0
  3 16  1  0
M  CHG  1  17   1
M  END
>  <DihAtoms>  (1) 
1,2,15,16

>  <DihDeg>  (1) 
-79.17432987761921

$$$$
