
     RDKit          3D

 42 43  0  0  0  0  0  0  0  0999 V2000
   45.6281   34.3490   45.0446 C   0  0  0  0  0  0  0  0  0  0  0  0
   46.4419   34.0710   43.9145 C   0  0  0  0  0  0  0  0  0  0  0  0
   47.2634   32.9459   43.9675 C   0  0  0  0  0  0  0  0  0  0  0  0
   47.2318   32.1813   45.1077 N   0  0  0  0  0  0  0  0  0  0  0  0
   46.4398   32.4919   46.1508 C   0  0  0  0  0  0  0  0  0  0  0  0
   45.6450   33.5668   46.1190 N   0  0  0  0  0  0  0  0  0  0  0  0
   46.4936   31.6092   47.2981 N   0  0  0  0  0  0  0  0  0  0  0  0
   46.2579   32.1731   48.5908 C   0  0  0  0  0  0  0  0  0  0  0  0
   45.5198   31.2384   49.4576 C   0  0  0  0  0  0  0  0  0  0  0  0
   44.9639   29.9962   48.8376 C   0  0  0  0  0  0  0  0  0  0  0  0
   45.8652   29.3448   47.8431 C   0  0  0  0  0  0  0  0  0  0  0  0
   46.7821   30.2056   47.0801 C   0  0  2  0  0  0  0  0  0  0  0  0
   44.8501   35.4551   44.9373 O   0  0  0  0  0  0  0  0  0  0  0  0
   44.4812   36.0605   43.7440 C   0  0  0  0  0  0  0  0  0  0  0  0
   45.1126   36.9924   43.1698 O   0  0  0  0  0  0  0  0  0  0  0  0
   43.3195   35.6959   43.0054 N   0  0  0  0  0  0  0  0  0  0  0  0
   46.4348   34.7017   43.0363 H   0  0  0  0  0  0  0  0  0  0  0  0
   47.9103   32.6703   43.1463 H   0  0  0  0  0  0  0  0  0  0  0  0
   45.6651   33.1107   48.4914 H   0  0  0  0  0  0  0  0  0  0  0  0
   47.2471   32.4930   49.0245 H   0  0  0  0  0  0  0  0  0  0  0  0
   44.6990   31.7328   50.0182 H   0  0  0  0  0  0  0  0  0  0  0  0
   46.2413   30.8793   50.2500 H   0  0  0  0  0  0  0  0  0  0  0  0
   44.7044   29.2992   49.6407 H   0  0  0  0  0  0  0  0  0  0  0  0
   44.0113   30.2676   48.3260 H   0  0  0  0  0  0  0  0  0  0  0  0
   45.1934   28.7279   47.1757 H   0  0  0  0  0  0  0  0  0  0  0  0
   46.4465   28.5783   48.3977 H   0  0  0  0  0  0  0  0  0  0  0  0
   46.6939   29.9707   45.9988 H   0  0  0  0  0  0  0  0  0  0  0  0
   43.0744   35.2547   42.0843 H   0  0  0  0  0  0  0  0  0  0  0  0
   42.3344   35.8391   43.3300 H   0  0  0  0  0  0  0  0  0  0  0  0
   48.2416   30.0247   47.4438 C   0  0  0  0  0  0  0  0  0  0  0  0
   48.6162   30.6726   48.6669 N   0  0  0  0  0  4  0  0  0  0  0  0
   47.8142   30.2292   49.7986 C   0  0  0  0  0  0  0  0  0  0  0  0
   46.7607   30.5840   49.7481 H   0  0  0  0  0  0  0  0  0  0  0  0
   49.9774   30.2209   48.9665 C   0  0  0  0  0  0  0  0  0  0  0  0
   50.7282   30.8124   48.4038 H   0  0  0  0  0  0  0  0  0  0  0  0
   48.8911   30.4328   46.6468 H   0  0  0  0  0  0  0  0  0  0  0  0
   48.4975   28.9640   47.5400 H   0  0  0  0  0  0  0  0  0  0  0  0
   48.6340   31.6965   48.6521 H   0  0  0  0  0  0  0  0  0  0  0  0
   47.8475   29.1227   49.9037 H   0  0  0  0  0  0  0  0  0  0  0  0
   48.2544   30.7225   50.7040 H   0  0  0  0  0  0  0  0  0  0  0  0
   50.1630   30.2419   50.0611 H   0  0  0  0  0  0  0  0  0  0  0  0
   50.0232   29.1462   48.6600 H   0  0  0  0  0  0  0  0  0  0  0  0
  1  6  2  0
  2  3  2  0
  2  1  1  0
  3  4  1  0
  4  5  2  0
  5  7  1  0
  6  5  1  0
  7  8  1  0
  8  9  1  0
 10  9  1  0
 11 10  1  0
 12  7  1  0
 12 11  1  0
 13  1  1  0
 14 13  1  0
 15 14  2  0
 16 14  1  0
  2 17  1  0
  3 18  1  0
  8 19  1  0
  8 20  1  0
  9 21  1  0
  9 22  1  0
 10 23  1  0
 10 24  1  0
 11 25  1  0
 11 26  1  0
 12 27  1  6
 16 28  1  0
 16 29  1  0
 30 31  1  0
 31 32  1  0
 32 33  1  0
 31 34  1  0
 34 35  1  0
 30 36  1  0
 30 37  1  0
 31 38  1  0
 32 39  1  0
 32 40  1  0
 34 41  1  0
 34 42  1  0
 12 30  1  0
M  CHG  1  31   1
M  END
>  <DihAtoms>  (1) 
6,11,29,30

>  <DihDeg>  (1) 
179.99927997279426

$$$$
