
     RDKit          3D

 52 55  0  0  0  0  0  0  0  0999 V2000
   47.4744   32.0588   47.8504 C   0  0  0  0  0  0  0  0  0  0  0  0
   46.9322   30.7685   47.8890 C   0  0  0  0  0  0  0  0  0  0  0  0
   45.9482   30.4907   47.0015 C   0  0  0  0  0  0  0  0  0  0  0  0
   45.5373   31.4301   46.1353 N   0  0  0  0  0  0  0  0  0  0  0  0
   46.0320   32.6468   46.0772 C   0  0  0  0  0  0  0  0  0  0  0  0
   47.0148   32.9492   46.9574 N   0  0  0  0  0  0  0  0  0  0  0  0
   45.3487   29.2523   46.9927 N   0  0  0  0  0  0  0  0  0  0  0  0
   44.1432   28.8986   46.1888 C   0  0  0  0  0  0  0  0  0  0  0  0
   44.0273   27.4047   46.2587 C   0  0  0  0  0  0  0  0  0  0  0  0
   44.6720   27.0794   47.5606 C   0  0  0  0  0  0  0  0  0  0  0  0
   45.7482   28.0957   47.7406 C   0  0  0  0  0  0  0  0  0  0  0  0
   45.7439   33.7985   45.1878 C   0  0  0  0  0  0  0  0  0  0  0  0
   44.8732   34.7722   45.4855 N   0  0  0  0  0  0  0  0  0  0  0  0
   44.6060   35.8156   44.7061 C   0  0  0  0  0  0  0  0  0  0  0  0
   45.2319   35.9526   43.5144 N   0  0  0  0  0  0  0  0  0  0  0  0
   46.1158   35.0544   43.1070 C   0  0  0  0  0  0  0  0  0  0  0  0
   46.7704   35.1858   41.8903 C   0  0  0  0  0  0  0  0  0  0  0  0
   47.6836   34.2750   41.4658 C   0  0  0  0  0  0  0  0  0  0  0  0
   47.9460   33.2040   42.2848 C   0  0  0  0  0  0  0  0  0  0  0  0
   47.2789   33.0938   43.4952 C   0  0  0  0  0  0  0  0  0  0  0  0
   46.3583   33.9866   43.9544 C   0  0  0  0  0  0  0  0  0  0  0  0
   47.6664   31.9230   44.2076 N   0  0  0  0  0  0  0  0  0  0  0  0
   47.4654   29.8835   48.7868 N   0  0  0  0  0  0  0  0  0  0  0  0
   48.2726   32.3350   48.5511 H   0  0  0  0  0  0  0  0  0  0  0  0
   44.2374   29.2103   45.1507 H   0  0  0  0  0  0  0  0  0  0  0  0
   43.2959   29.4165   46.7176 H   0  0  0  0  0  0  0  0  0  0  0  0
   42.9508   27.0754   46.3107 H   0  0  0  0  0  0  0  0  0  0  0  0
   44.5717   26.9245   45.4441 H   0  0  0  0  0  0  0  0  0  0  0  0
   43.9056   27.0730   48.3828 H   0  0  0  0  0  0  0  0  0  0  0  0
   45.1029   26.0520   47.5640 H   0  0  0  0  0  0  0  0  0  0  0  0
   45.7153   28.3251   48.8268 H   0  0  0  0  0  0  0  0  0  0  0  0
   46.6854   27.6537   47.3839 H   0  0  0  0  0  0  0  0  0  0  0  0
   43.8743   36.5534   45.0526 H   0  0  0  0  0  0  0  0  0  0  0  0
   46.5454   36.0382   41.2639 H   0  0  0  0  0  0  0  0  0  0  0  0
   48.1786   34.4031   40.5131 H   0  0  0  0  0  0  0  0  0  0  0  0
   47.0147   31.2001   43.8224 H   0  0  0  0  0  0  0  0  0  0  0  0
   48.3850   31.7083   44.9282 H   0  0  0  0  0  0  0  0  0  0  0  0
   48.1599   29.1937   48.4267 H   0  0  0  0  0  0  0  0  0  0  0  0
   47.2301   29.8485   49.8247 H   0  0  0  0  0  0  0  0  0  0  0  0
   48.9536   32.2264   41.7988 C   0  0  0  0  0  0  0  0  0  0  0  0
   49.4694   32.5575   40.4971 N   0  0  0  0  0  4  0  0  0  0  0  0
   48.6408   33.4887   39.7729 C   0  0  0  0  0  0  0  0  0  0  0  0
   49.2167   33.8169   38.8819 H   0  0  0  0  0  0  0  0  0  0  0  0
   49.5398   31.3661   39.6563 C   0  0  0  0  0  0  0  0  0  0  0  0
   48.5043   31.1600   39.2695 H   0  0  0  0  0  0  0  0  0  0  0  0
   48.5539   31.2193   41.7913 H   0  0  0  0  0  0  0  0  0  0  0  0
   49.7846   32.2355   42.5568 H   0  0  0  0  0  0  0  0  0  0  0  0
   50.4375   32.9089   40.5996 H   0  0  0  0  0  0  0  0  0  0  0  0
   47.7418   32.9490   39.3669 H   0  0  0  0  0  0  0  0  0  0  0  0
   48.3362   34.3810   40.3203 H   0  0  0  0  0  0  0  0  0  0  0  0
   49.9912   30.5010   40.1367 H   0  0  0  0  0  0  0  0  0  0  0  0
   50.0990   31.6960   38.7441 H   0  0  0  0  0  0  0  0  0  0  0  0
  1  2  2  0
  2 23  1  0
  3  2  1  0
  4  3  2  0
  5  4  1  0
  5  6  2  0
  6  1  1  0
  7  3  1  0
  7 11  1  0
  8  9  1  0
  8  7  1  0
  9 10  1  0
 10 11  1  0
 12 13  2  0
 12  5  1  0
 14 13  1  0
 15 14  2  0
 16 15  1  0
 16 21  2  0
 17 16  1  0
 18 17  2  0
 18 19  1  0
 19 20  2  0
 20 21  1  0
 20 22  1  0
 21 12  1  0
  1 24  1  0
  8 25  1  0
  8 26  1  0
  9 27  1  0
  9 28  1  0
 10 29  1  0
 10 30  1  0
 11 31  1  0
 11 32  1  0
 14 33  1  0
 17 34  1  0
 18 35  1  0
 22 36  1  0
 22 37  1  0
 23 38  1  0
 23 39  1  0
 40 41  1  0
 41 42  1  0
 42 43  1  0
 41 44  1  0
 44 45  1  0
 40 46  1  0
 40 47  1  0
 41 48  1  0
 42 49  1  0
 42 50  1  0
 44 51  1  0
 44 52  1  0
 19 40  1  0
M  ISO  8  24  14  25  13  26  13  27  13  28  13  29  13  30  13  31  13
M  CHG  1  41   1
M  ISO  6  32  13  33  14  34  14  35  14  43   8  45   8
M  END
>  <DihAtoms>  (1) 
17,18,39,40

>  <DihDeg>  (1) 
103.24977547462514

$$$$
