
     RDKit          3D

 37 37  0  0  0  0  0  0  0  0999 V2000
   43.3639   35.4390   41.7019 C   0  0  0  0  0  0  0  0  0  0  0  0
   43.2283   35.5281   43.1463 N   0  0  0  0  0  0  0  0  0  0  0  0
   44.7145   35.8302   43.9396 S   0  0  0  0  0  0  0  0  0  0  0  0
   45.8682   35.2647   43.1848 O   0  0  0  0  0  0  0  0  0  0  0  0
   44.8456   37.3436   44.0349 O   0  0  0  0  0  0  0  0  0  0  0  0
   44.6647   35.2460   45.5015 O   0  0  0  0  0  0  0  0  0  0  0  0
   45.4028   34.0827   45.6503 C   0  0  0  0  0  0  0  0  0  0  0  0
   42.8143   33.7970   41.2301 S   0  0  0  0  0  0  0  0  0  0  0  0
   40.1179   33.1192   41.3360 C   0  0  0  0  0  0  0  0  0  0  0  0
   41.0880   33.8619   40.6987 C   0  0  0  0  0  0  0  0  0  0  0  0
   40.7706   34.6924   39.6179 C   0  0  0  0  0  0  0  0  0  0  0  0
   39.4555   34.7165   39.2434 N   0  0  0  0  0  0  0  0  0  0  0  0
   38.5364   33.9833   39.8826 C   0  0  0  0  0  0  0  0  0  0  0  0
   38.8412   33.1914   40.9139 N   0  0  0  0  0  0  0  0  0  0  0  0
   42.7234   36.1975   41.1795 H   0  0  0  0  0  0  0  0  0  0  0  0
   44.4270   35.5293   41.4308 H   0  0  0  0  0  0  0  0  0  0  0  0
   42.5558   36.2935   43.3781 H   0  0  0  0  0  0  0  0  0  0  0  0
   45.9508   34.4308   42.6812 H   0  0  0  0  0  0  0  0  0  0  0  0
   44.1635   37.9325   44.4452 H   0  0  0  0  0  0  0  0  0  0  0  0
   44.7412   33.2360   45.3502 H   0  0  0  0  0  0  0  0  0  0  0  0
   45.6261   33.9397   46.7276 H   0  0  0  0  0  0  0  0  0  0  0  0
   46.3047   34.0312   45.0149 H   0  0  0  0  0  0  0  0  0  0  0  0
   40.3791   32.4792   42.1734 H   0  0  0  0  0  0  0  0  0  0  0  0
   41.5699   35.2540   39.1533 H   0  0  0  0  0  0  0  0  0  0  0  0
   37.1551   34.1406   39.3309 C   0  0  0  0  0  0  0  0  0  0  0  0
   36.3154   34.9474   40.1683 N   0  0  0  0  0  4  0  0  0  0  0  0
   36.3958   36.3445   39.7165 C   0  0  0  0  0  0  0  0  0  0  0  0
   37.1405   36.4330   38.9114 H   0  0  0  0  0  0  0  0  0  0  0  0
   34.9401   34.5250   39.9748 C   0  0  0  0  0  0  0  0  0  0  0  0
   34.2588   34.8832   40.7792 H   0  0  0  0  0  0  0  0  0  0  0  0
   36.6562   33.1428   39.2242 H   0  0  0  0  0  0  0  0  0  0  0  0
   37.1650   34.5662   38.3111 H   0  0  0  0  0  0  0  0  0  0  0  0
   36.5468   34.8959   41.1824 H   0  0  0  0  0  0  0  0  0  0  0  0
   36.7071   37.0136   40.5439 H   0  0  0  0  0  0  0  0  0  0  0  0
   35.4321   36.6944   39.2866 H   0  0  0  0  0  0  0  0  0  0  0  0
   34.8669   33.3993   39.9551 H   0  0  0  0  0  0  0  0  0  0  0  0
   34.5478   34.8639   38.9859 H   0  0  0  0  0  0  0  0  0  0  0  0
  1  2  1  0
  2  3  1  0
  3  5  1  0
  3  6  1  0
  4  3  1  0
  6  7  1  0
  8  1  1  0
 10  8  1  0
 10  9  2  0
 11 10  1  0
 12 11  2  0
 12 13  1  0
 13 14  2  0
 14  9  1  0
  1 15  1  0
  1 16  1  0
  2 17  1  0
  4 18  1  0
  5 19  1  0
  7 20  1  0
  7 21  1  0
  7 22  1  0
  9 23  1  0
 11 24  1  0
 25 26  1  0
 26 27  1  0
 27 28  1  0
 26 29  1  0
 29 30  1  0
 25 31  1  0
 25 32  1  0
 26 33  1  0
 27 34  1  0
 27 35  1  0
 29 36  1  0
 29 37  1  0
 13 25  1  0
M  ISO  8  15   8  16   8  17   5  18   3  19   3  20   8  21   8  22   8
M  CHG  1  26   1
M  ISO  4  23  14  24  14  28   8  30   8
M  END
>  <DihAtoms>  (1) 
11,12,24,25

>  <DihDeg>  (1) 
-89.98986505871744

$$$$
