
     RDKit          3D

 47 49  0  0  0  0  0  0  0  0999 V2000
   45.7931   34.1140   41.0886 C   0  0  0  0  0  0  0  0  0  0  0  0
   46.4241   34.7594   42.1499 C   0  0  0  0  0  0  0  0  0  0  0  0
   47.7638   35.1099   41.9728 C   0  0  0  0  0  0  0  0  0  0  0  0
   48.3731   34.8049   40.7855 N   0  0  0  0  0  0  0  0  0  0  0  0
   47.7308   34.1919   39.8098 C   0  0  0  0  0  0  0  0  0  0  0  0
   46.4334   33.8406   39.9531 N   0  0  0  0  0  0  0  0  0  0  0  0
   45.6869   35.0373   43.3696 C   0  0  0  0  0  0  0  0  0  0  0  0
   45.0397   36.2355   43.6098 C   0  0  0  0  0  0  0  0  0  0  0  0
   44.4852   36.0748   44.8489 C   0  0  0  0  0  0  0  0  0  0  0  0
   44.7727   34.8483   45.3463 N   0  0  0  0  0  0  0  0  0  0  0  0
   45.4959   34.2539   44.4298 N   0  0  0  0  0  0  0  0  0  0  0  0
   44.4669   33.7548   41.2348 O   0  0  0  0  0  0  0  0  0  0  0  0
   43.3906   34.4654   40.7686 C   0  0  0  0  0  0  0  0  0  0  0  0
   43.2968   35.7225   40.5484 O   0  0  0  0  0  0  0  0  0  0  0  0
   42.0480   34.0691   40.3798 N   0  0  0  0  0  0  0  0  0  0  0  0
   41.6918   34.3716   39.0085 C   0  0  0  0  0  0  0  0  0  0  0  0
   40.8366   35.6306   39.0897 C   0  0  0  0  0  0  0  0  0  0  0  0
   40.0245   35.5406   40.3792 C   0  0  0  0  0  0  0  0  0  0  0  0
   39.7300   34.0823   40.7341 C   0  0  0  0  0  0  0  0  0  0  0  0
   41.0179   33.4095   41.1878 C   0  0  2  0  0  0  0  0  0  0  0  0
   48.2738   35.6084   42.7756 H   0  0  0  0  0  0  0  0  0  0  0  0
   48.1943   33.9412   38.8621 H   0  0  0  0  0  0  0  0  0  0  0  0
   44.9934   37.0944   42.9543 H   0  0  0  0  0  0  0  0  0  0  0  0
   43.8841   36.8008   45.4088 H   0  0  0  0  0  0  0  0  0  0  0  0
   44.4955   34.4125   46.2750 H   0  0  0  0  0  0  0  0  0  0  0  0
   42.5652   34.5895   38.3661 H   0  0  0  0  0  0  0  0  0  0  0  0
   41.0429   33.5759   38.5681 H   0  0  0  0  0  0  0  0  0  0  0  0
   41.5294   36.4885   39.2230 H   0  0  0  0  0  0  0  0  0  0  0  0
   40.1842   35.7594   38.2068 H   0  0  0  0  0  0  0  0  0  0  0  0
   39.0801   36.0880   40.3088 H   0  0  0  0  0  0  0  0  0  0  0  0
   40.6319   35.9426   41.2231 H   0  0  0  0  0  0  0  0  0  0  0  0
   39.3668   33.5927   39.7909 H   0  0  0  0  0  0  0  0  0  0  0  0
   38.9607   34.0943   41.5135 H   0  0  0  0  0  0  0  0  0  0  0  0
   40.9693   32.3599   40.8781 H   0  0  0  0  0  0  0  0  0  0  0  0
   41.2591   33.5972   42.6580 C   0  0  0  0  0  0  0  0  0  0  0  0
   42.6522   33.3740   42.9893 N   0  0  0  0  0  4  0  0  0  0  0  0
   42.9410   33.9440   44.3131 C   0  0  0  0  0  0  0  0  0  0  0  0
   44.0234   33.9988   44.4873 H   0  0  0  0  0  0  0  0  0  0  0  0
   43.5478   33.9700   42.0220 C   0  0  0  0  0  0  0  0  0  0  0  0
   43.1558   34.9340   41.6139 H   0  0  0  0  0  0  0  0  0  0  0  0
   40.6908   32.7613   43.1621 H   0  0  0  0  0  0  0  0  0  0  0  0
   40.8466   34.5278   43.0447 H   0  0  0  0  0  0  0  0  0  0  0  0
   42.8845   32.3665   43.0458 H   0  0  0  0  0  0  0  0  0  0  0  0
   42.5659   35.0068   44.3723 H   0  0  0  0  0  0  0  0  0  0  0  0
   42.4210   33.3177   45.0564 H   0  0  0  0  0  0  0  0  0  0  0  0
   44.4945   34.2321   42.5758 H   0  0  0  0  0  0  0  0  0  0  0  0
   43.8667   33.2693   41.2211 H   0  0  0  0  0  0  0  0  0  0  0  0
  1 12  1  0
  1  2  1  0
  2  7  1  0
  3  2  2  0
  4  3  1  0
  5  6  1  0
  5  4  2  0
  6  1  2  0
  7  8  1  0
  7 11  2  0
  8  9  2  0
  9 10  1  0
 11 10  1  0
 13 12  1  0
 14 13  2  0
 15 13  1  0
 15 20  1  0
 16 17  1  0
 16 15  1  0
 17 18  1  0
 18 19  1  0
 19 20  1  0
  3 21  1  0
  5 22  1  0
  8 23  1  0
  9 24  1  0
 10 25  1  0
 16 26  1  0
 16 27  1  0
 17 28  1  0
 17 29  1  0
 18 30  1  0
 18 31  1  0
 19 32  1  0
 19 33  1  0
 20 34  1  1
 35 36  1  0
 36 37  1  0
 37 38  1  0
 36 39  1  0
 39 40  1  0
 35 41  1  0
 35 42  1  0
 36 43  1  0
 37 44  1  0
 37 45  1  0
 39 46  1  0
 39 47  1  0
 20 35  1  0
M  ISO  8  21  14  22  14  23  14  24  14  25   9  26  13  27  13  28  13
M  ISO  8  29  13  30  13  31  13  32  13  33  13  34  13  38   8  40   8
M  CHG  1  36   1
M  END
>  <DihAtoms>  (1) 
14,19,34,35

>  <DihDeg>  (1) 
-179.98295980552112

$$$$
