
     RDKit          3D

 33 34  0  0  0  0  0  0  0  0999 V2000
   42.1003   31.9325   41.7130 Cl  0  0  0  0  0  0  0  0  0  0  0  0
   41.2701   33.3591   41.1137 C   0  0  0  0  0  0  0  0  0  0  0  0
   42.0735   34.4177   40.8465 C   0  0  0  0  0  0  0  0  0  0  0  0
   41.4725   35.5906   40.3640 C   0  0  0  0  0  0  0  0  0  0  0  0
   40.0875   35.6244   40.1790 C   0  0  0  0  0  0  0  0  0  0  0  0
   39.2790   34.5425   40.4537 C   0  0  0  0  0  0  0  0  0  0  0  0
   39.9054   33.3860   40.9337 C   0  0  0  0  0  0  0  0  0  0  0  0
   38.9792   31.9472   41.3175 Cl  0  0  0  0  0  0  0  0  0  0  0  0
   43.8267   34.5393   41.0237 S   0  0  0  0  0  0  0  0  0  0  0  0
   44.3555   34.6309   42.7298 C   0  0  0  0  0  0  0  0  0  0  0  0
   45.0317   33.4943   43.2069 C   0  0  0  0  0  0  0  0  0  0  0  0
   45.4756   33.4930   44.5329 C   0  0  0  0  0  0  0  0  0  0  0  0
   45.2347   34.5841   45.2963 N   0  0  0  0  0  0  0  0  0  0  0  0
   44.5751   35.6693   44.7990 C   0  0  0  0  0  0  0  0  0  0  0  0
   44.1362   35.6982   43.5252 N   0  0  0  0  0  0  0  0  0  0  0  0
   41.9919   36.4799   40.1201 H   0  0  0  0  0  0  0  0  0  0  0  0
   39.5915   36.5155   39.8075 H   0  0  0  0  0  0  0  0  0  0  0  0
   38.2019   34.5681   40.3100 H   0  0  0  0  0  0  0  0  0  0  0  0
   45.2339   32.6150   42.6160 H   0  0  0  0  0  0  0  0  0  0  0  0
   46.0031   32.6398   44.9506 H   0  0  0  0  0  0  0  0  0  0  0  0
   44.3568   36.8220   45.7137 C   0  0  0  0  0  0  0  0  0  0  0  0
   42.9411   37.0963   45.8803 N   0  0  0  0  0  4  0  0  0  0  0  0
   42.2374   37.0701   44.6118 C   0  0  0  0  0  0  0  0  0  0  0  0
   41.1530   37.2139   44.8841 H   0  0  0  0  0  0  0  0  0  0  0  0
   42.7836   38.4315   46.4289 C   0  0  0  0  0  0  0  0  0  0  0  0
   41.9630   38.4290   47.2018 H   0  0  0  0  0  0  0  0  0  0  0  0
   44.8283   37.7461   45.3310 H   0  0  0  0  0  0  0  0  0  0  0  0
   44.8026   36.6016   46.6958 H   0  0  0  0  0  0  0  0  0  0  0  0
   42.4970   36.4232   46.5580 H   0  0  0  0  0  0  0  0  0  0  0  0
   42.5817   37.9150   43.9969 H   0  0  0  0  0  0  0  0  0  0  0  0
   42.2894   36.0923   44.1010 H   0  0  0  0  0  0  0  0  0  0  0  0
   42.5712   39.1443   45.6153 H   0  0  0  0  0  0  0  0  0  0  0  0
   43.7446   38.7150   46.9229 H   0  0  0  0  0  0  0  0  0  0  0  0
  2  1  1  0
  3  9  1  0
  3  2  2  0
  4  3  1  0
  5  4  2  0
  5  6  1  0
  6  7  2  0
  7  2  1  0
  7  8  1  0
  9 10  1  0
 10 11  2  0
 10 15  1  0
 11 12  1  0
 12 13  2  0
 14 13  1  0
 15 14  2  0
  4 16  1  0
  5 17  1  0
  6 18  1  0
 11 19  1  0
 12 20  1  0
 21 22  1  0
 22 23  1  0
 23 24  1  0
 22 25  1  0
 25 26  1  0
 21 27  1  0
 21 28  1  0
 22 29  1  0
 23 30  1  0
 23 31  1  0
 25 32  1  0
 25 33  1  0
 14 21  1  0
M  CHG  1  22   1
M  ISO  7  16  14  17  14  18  14  19  14  20  14  24   8  26   8
M  END
>  <DihAtoms>  (1) 
12,13,20,21

>  <DihDeg>  (1) 
-89.99937049872372

$$$$
