
     RDKit          3D

 35 36  0  0  0  0  0  0  0  0999 V2000
   44.5128   35.8901   44.7210 C   0  0  0  0  0  0  0  0  0  0  0  0
   45.1064   36.0401   43.4733 C   0  0  0  0  0  0  0  0  0  0  0  0
   46.0535   35.1002   43.0840 C   0  0  0  0  0  0  0  0  0  0  0  0
   46.3454   34.0841   43.9510 N   0  0  0  0  0  0  0  0  0  0  0  0
   45.7583   33.9568   45.1561 C   0  0  0  0  0  0  0  0  0  0  0  0
   44.8419   34.8567   45.5454 N   0  0  0  0  0  0  0  0  0  0  0  0
   46.7586   35.1262   41.7868 C   0  0  2  0  0  0  0  0  0  0  0  0
   46.8485   33.8207   41.0706 C   0  0  0  0  0  0  0  0  0  0  0  0
   47.8016   34.1985   39.9440 C   0  0  0  0  0  0  0  0  0  0  0  0
   48.7237   35.2535   40.5394 C   0  0  1  0  0  0  0  0  0  0  0  0
   48.2503   35.4520   41.9624 C   0  0  0  0  0  0  0  0  0  0  0  0
   43.7648   36.6094   45.0599 H   0  0  0  0  0  0  0  0  0  0  0  0
   44.8705   36.8359   42.8071 H   0  0  0  0  0  0  0  0  0  0  0  0
   46.0216   33.1375   45.8057 H   0  0  0  0  0  0  0  0  0  0  0  0
   46.3259   35.8994   41.1257 H   0  0  0  0  0  0  0  0  0  0  0  0
   47.2436   33.0172   41.6904 H   0  0  0  0  0  0  0  0  0  0  0  0
   45.8658   33.6093   40.6083 H   0  0  0  0  0  0  0  0  0  0  0  0
   48.3460   33.2638   39.6950 H   0  0  0  0  0  0  0  0  0  0  0  0
   47.2648   34.5563   39.0453 H   0  0  0  0  0  0  0  0  0  0  0  0
   48.5542   36.1777   39.9949 H   0  0  0  0  0  0  0  0  0  0  0  0
   48.2946   36.5245   42.2305 H   0  0  0  0  0  0  0  0  0  0  0  0
   48.6876   34.7636   42.6902 H   0  0  0  0  0  0  0  0  0  0  0  0
   50.1081   34.7068   40.5138 C   0  0  0  0  0  0  0  0  0  0  0  0
   50.8715   34.9766   39.3408 N   0  0  0  0  0  4  0  0  0  0  0  0
   50.2030   34.6708   38.1084 C   0  0  0  0  0  0  0  0  0  0  0  0
   50.1378   35.6127   37.4967 H   0  0  0  0  0  0  0  0  0  0  0  0
   51.4765   36.3077   39.3362 C   0  0  0  0  0  0  0  0  0  0  0  0
   52.4193   36.2618   38.7171 H   0  0  0  0  0  0  0  0  0  0  0  0
   50.6504   35.2037   41.3706 H   0  0  0  0  0  0  0  0  0  0  0  0
   50.1302   33.6260   40.7398 H   0  0  0  0  0  0  0  0  0  0  0  0
   51.7102   34.3219   39.3856 H   0  0  0  0  0  0  0  0  0  0  0  0
   50.7677   33.9436   37.4670 H   0  0  0  0  0  0  0  0  0  0  0  0
   49.2055   34.1920   38.2315 H   0  0  0  0  0  0  0  0  0  0  0  0
   50.8123   37.0795   38.9255 H   0  0  0  0  0  0  0  0  0  0  0  0
   51.8252   36.5002   40.3699 H   0  0  0  0  0  0  0  0  0  0  0  0
  1  6  2  0
  2  1  1  0
  3  2  2  0
  3  4  1  0
  4  5  2  0
  5  6  1  0
  7 11  1  0
  7  3  1  0
  8  7  1  0
  9 10  1  0
  9  8  1  0
 10 11  1  0
  1 12  1  0
  2 13  1  0
  5 14  1  0
  7 15  1  6
  8 16  1  0
  8 17  1  0
  9 18  1  0
  9 19  1  0
 10 20  1  6
 11 21  1  0
 11 22  1  0
 23 24  1  0
 24 25  1  0
 25 26  1  0
 24 27  1  0
 27 28  1  0
 23 29  1  0
 23 30  1  0
 24 31  1  0
 25 32  1  0
 25 33  1  0
 27 34  1  0
 27 35  1  0
 10 23  1  0
M  ISO  8  12  14  13  14  14  14  15  13  16  13  17  13  18  13  19  13
M  CHG  1  24   1
M  ISO  5  20  13  21  13  22  13  26   8  28   8
M  END
>  <DihAtoms>  (1) 
8,9,22,23

>  <DihDeg>  (1) 
179.99946318746765

$$$$
