
     RDKit          3D

 49 51  0  0  0  0  0  0  0  0999 V2000
   43.4175   35.2675   42.0877 C   0  0  0  0  0  0  0  0  0  0  0  0
   46.6337   33.5328   42.7221 C   0  0  0  0  0  0  0  0  0  0  0  0
   46.7527   33.7861   44.0447 C   0  0  0  0  0  0  0  0  0  0  0  0
   45.2288   34.7630   44.3783 S   0  0  0  0  0  0  0  0  0  0  0  0
   44.6804   34.6533   42.6107 C   0  0  0  0  0  0  0  0  0  0  0  0
   45.5618   34.0346   42.1980 N   0  0  0  0  0  0  0  0  0  0  0  0
   49.3702   32.5475   40.3230 C   0  0  0  0  0  0  0  0  0  0  0  0
   48.4623   33.3615   41.0264 C   0  0  0  0  0  0  0  0  0  0  0  0
   47.6195   32.7627   41.9373 C   0  0  0  0  0  0  0  0  0  0  0  0
   47.7364   31.3874   42.0887 N   0  0  0  0  0  0  0  0  0  0  0  0
   48.6168   30.6544   41.3959 C   0  0  0  0  0  0  0  0  0  0  0  0
   49.4431   31.2367   40.5038 N   0  0  0  0  0  0  0  0  0  0  0  0
   48.4757   34.7490   40.7498 N   0  0  0  0  0  0  0  0  0  0  0  0
   43.4863   35.4483   40.6174 C   0  0  0  0  0  0  0  0  0  0  0  0
   42.3221   35.0691   39.8527 C   0  0  0  0  0  0  0  0  0  0  0  0
   41.9872   35.3233   38.5534 C   0  0  0  0  0  0  0  0  0  0  0  0
   40.8411   34.9152   37.9026 C   0  0  0  0  0  0  0  0  0  0  0  0
   39.9613   34.1864   38.6374 C   0  0  0  0  0  0  0  0  0  0  0  0
   40.2879   33.9237   39.9494 C   0  0  0  0  0  0  0  0  0  0  0  0
   41.4125   34.3324   40.5630 N   0  0  0  0  0  0  0  0  0  0  0  0
   39.2730   33.1167   40.7042 C   0  0  0  0  0  0  0  0  0  0  0  0
   37.9930   33.6554   40.4501 F   0  0  0  0  0  0  0  0  0  0  0  0
   39.5440   32.9856   42.0325 F   0  0  0  0  0  0  0  0  0  0  0  0
   39.2346   31.8249   40.1622 F   0  0  0  0  0  0  0  0  0  0  0  0
   38.4501   33.5985   37.8977 S   0  0  0  0  0  0  0  0  0  0  0  0
   43.1620   36.1670   42.6613 H   0  0  0  0  0  0  0  0  0  0  0  0
   42.6130   34.5137   42.2918 H   0  0  0  0  0  0  0  0  0  0  0  0
   47.5250   33.5059   44.7548 H   0  0  0  0  0  0  0  0  0  0  0  0
   50.0530   32.9724   39.5958 H   0  0  0  0  0  0  0  0  0  0  0  0
   48.4894   29.6162   41.7136 H   0  0  0  0  0  0  0  0  0  0  0  0
   49.2641   35.4187   40.9960 H   0  0  0  0  0  0  0  0  0  0  0  0
   47.6270   35.1109   40.2633 H   0  0  0  0  0  0  0  0  0  0  0  0
   43.7156   36.5260   40.4082 H   0  0  0  0  0  0  0  0  0  0  0  0
   44.3695   34.9134   40.1697 H   0  0  0  0  0  0  0  0  0  0  0  0
   42.7444   35.9170   38.0203 H   0  0  0  0  0  0  0  0  0  0  0  0
   40.7144   35.1913   36.8681 H   0  0  0  0  0  0  0  0  0  0  0  0
   38.3279   34.1185   36.1734 C   0  0  0  0  0  0  0  0  0  0  0  0
   38.7700   33.0546   35.2771 N   0  0  0  0  0  4  0  0  0  0  0  0
   40.1700   33.3956   34.9525 C   0  0  0  0  0  0  0  0  0  0  0  0
   40.6070   32.6720   34.2389 H   0  0  0  0  0  0  0  0  0  0  0  0
   38.0225   33.0269   34.0428 C   0  0  0  0  0  0  0  0  0  0  0  0
   38.7244   32.9752   33.2015 H   0  0  0  0  0  0  0  0  0  0  0  0
   38.8760   35.0695   36.0146 H   0  0  0  0  0  0  0  0  0  0  0  0
   37.2633   34.3501   35.8823 H   0  0  0  0  0  0  0  0  0  0  0  0
   38.7291   32.1251   35.7146 H   0  0  0  0  0  0  0  0  0  0  0  0
   40.7277   33.4058   35.9090 H   0  0  0  0  0  0  0  0  0  0  0  0
   40.2051   34.4496   34.5621 H   0  0  0  0  0  0  0  0  0  0  0  0
   37.3357   33.9120   33.9409 H   0  0  0  0  0  0  0  0  0  0  0  0
   37.4175   32.0808   33.9827 H   0  0  0  0  0  0  0  0  0  0  0  0
  1  5  1  0
  2  3  2  0
  3  4  1  0
  5  4  1  0
  6  5  2  0
  6  2  1  0
  7 12  2  0
  7  8  1  0
  8  9  2  0
  9 10  1  0
  9  2  1  0
 11 10  2  0
 12 11  1  0
 13  8  1  0
 14  1  1  0
 15 20  1  0
 15 14  1  0
 16 15  2  0
 17 16  1  0
 17 18  2  0
 18 19  1  0
 19 20  2  0
 19 21  1  0
 21 23  1  0
 22 21  1  0
 24 21  1  0
 25 18  1  0
  1 26  1  0
  1 27  1  0
  3 28  1  0
  7 29  1  0
 11 30  1  0
 13 31  1  0
 13 32  1  0
 14 33  1  0
 14 34  1  0
 16 35  1  0
 17 36  1  0
 37 38  1  0
 38 39  1  0
 39 40  1  0
 38 41  1  0
 41 42  1  0
 37 43  1  0
 37 44  1  0
 38 45  1  0
 39 46  1  0
 39 47  1  0
 41 48  1  0
 41 49  1  0
 25 37  1  0
M  ISO  8  26   8  27   8  28  14  29  14  30  14  33   8  34   8  35  14
M  CHG  1  38   1
M  ISO  3  36  14  40   8  42   8
M  END
>  <DihAtoms>  (1) 
17,24,36,37

>  <DihDeg>  (1) 
-67.7078761229154

$$$$
