
     RDKit          3D

 41 42  0  0  0  0  0  0  0  0999 V2000
   45.1455   36.0055   43.0651 C   0  0  0  0  0  0  0  0  0  0  0  0
   44.1456   35.8002   42.0978 C   0  0  0  0  0  0  0  0  0  0  0  0
   44.3718   34.8031   41.1260 C   0  0  0  0  0  0  0  0  0  0  0  0
   45.5306   34.1004   41.1741 N   0  0  0  0  0  0  0  0  0  0  0  0
   46.4653   34.3352   42.1273 C   0  0  0  0  0  0  0  0  0  0  0  0
   46.2641   35.2819   43.0598 N   0  0  0  0  0  0  0  0  0  0  0  0
   48.9541   35.8049   41.2426 Cl  0  0  0  0  0  0  0  0  0  0  0  0
   48.8705   34.1429   41.7083 C   0  0  0  0  0  0  0  0  0  0  0  0
   47.6883   33.5299   42.1029 C   0  0  0  0  0  0  0  0  0  0  0  0
   47.5961   32.2077   42.4765 C   0  0  0  0  0  0  0  0  0  0  0  0
   48.7494   31.4668   42.4519 C   0  0  0  0  0  0  0  0  0  0  0  0
   49.9834   31.9822   42.0737 C   0  0  0  0  0  0  0  0  0  0  0  0
   49.9848   33.3296   41.7107 C   0  0  0  0  0  0  0  0  0  0  0  0
   44.8993   37.0436   44.0642 C   0  0  0  0  0  0  0  0  0  0  0  0
   45.4836   38.2209   43.9003 C   0  0  0  0  0  0  0  0  0  0  0  0
   45.2156   39.2716   44.9344 C   0  0  0  0  0  0  0  0  0  0  0  0
   44.8099   40.4574   44.2515 N   0  0  0  0  0  0  0  0  0  0  0  0
   43.2250   36.3718   42.0735 H   0  0  0  0  0  0  0  0  0  0  0  0
   43.6090   34.6400   40.3796 H   0  0  0  0  0  0  0  0  0  0  0  0
   46.6404   31.8051   42.7708 H   0  0  0  0  0  0  0  0  0  0  0  0
   48.6367   30.4309   42.7518 H   0  0  0  0  0  0  0  0  0  0  0  0
   50.8641   31.3723   42.0666 H   0  0  0  0  0  0  0  0  0  0  0  0
   50.9428   33.7419   41.4146 H   0  0  0  0  0  0  0  0  0  0  0  0
   44.2614   36.8775   44.9211 H   0  0  0  0  0  0  0  0  0  0  0  0
   46.1349   38.4879   43.0837 H   0  0  0  0  0  0  0  0  0  0  0  0
   46.2155   39.4895   45.3855 H   0  0  0  0  0  0  0  0  0  0  0  0
   44.5590   38.9310   45.7219 H   0  0  0  0  0  0  0  0  0  0  0  0
   45.5719   40.9181   43.7168 H   0  0  0  0  0  0  0  0  0  0  0  0
   43.5596   40.4276   43.5929 C   0  0  0  0  0  0  0  0  0  0  0  0
   42.3971   40.4994   44.3857 N   0  0  0  0  0  4  0  0  0  0  0  0
   41.6025   39.3015   44.2241 C   0  0  0  0  0  0  0  0  0  0  0  0
   41.9610   38.7345   43.3161 H   0  0  0  0  0  0  0  0  0  0  0  0
   41.5601   41.5895   43.9102 C   0  0  0  0  0  0  0  0  0  0  0  0
   40.5130   41.4737   44.3107 H   0  0  0  0  0  0  0  0  0  0  0  0
   43.5298   39.4793   42.9918 H   0  0  0  0  0  0  0  0  0  0  0  0
   43.5558   41.2330   42.8316 H   0  0  0  0  0  0  0  0  0  0  0  0
   42.5590   40.7311   45.3937 H   0  0  0  0  0  0  0  0  0  0  0  0
   41.6532   38.6032   45.0611 H   0  0  0  0  0  0  0  0  0  0  0  0
   40.5230   39.5017   44.0305 H   0  0  0  0  0  0  0  0  0  0  0  0
   41.4517   41.5272   42.7971 H   0  0  0  0  0  0  0  0  0  0  0  0
   41.9700   42.5869   44.1911 H   0  0  0  0  0  0  0  0  0  0  0  0
  1  6  2  0
  1 14  1  0
  2  1  1  0
  3  4  1  0
  3  2  2  0
  4  5  2  0
  5  6  1  0
  7  8  1  0
  8 13  2  0
  8  9  1  0
  9  5  1  0
  9 10  2  0
 11 10  1  0
 12 11  2  0
 13 12  1  0
 15 14  2  0
 15 16  1  0
 17 16  1  0
  2 18  1  0
  3 19  1  0
 10 20  1  0
 11 21  1  0
 12 22  1  0
 13 23  1  0
 14 24  1  0
 15 25  1  0
 16 26  1  0
 16 27  1  0
 17 28  1  0
 29 30  1  0
 30 31  1  0
 31 32  1  0
 30 33  1  0
 33 34  1  0
 29 35  1  0
 29 36  1  0
 30 37  1  0
 31 38  1  0
 31 39  1  0
 33 40  1  0
 33 41  1  0
 17 29  1  0
M  ISO  8  18  14  19  14  20  14  21  14  22  14  23  14  26   8  27   8
M  CHG  1  30   1
M  ISO  3  28   5  32   8  34   8
M  END
>  <DihAtoms>  (1) 
15,16,28,29

>  <DihDeg>  (1) 
59.85823328192008

$$$$
