
     RDKit          3D

 36 38  0  0  0  0  0  0  0  0999 V2000
   47.4615   31.6837   44.8265 C   0  0  0  0  0  0  0  0  0  0  0  0
   46.7814   32.8696   44.5396 C   0  0  0  0  0  0  0  0  0  0  0  0
   45.9159   33.4522   45.4217 C   0  0  0  0  0  0  0  0  0  0  0  0
   45.6808   32.8591   46.6720 C   0  0  0  0  0  0  0  0  0  0  0  0
   44.9174   33.1368   47.7641 N   0  0  0  0  0  0  0  0  0  0  0  0
   45.1157   32.1657   48.6873 C   0  0  0  0  0  0  0  0  0  0  0  0
   45.9969   31.3019   48.1560 N   0  0  0  0  0  0  0  0  0  0  0  0
   46.3594   31.6984   46.9280 C   0  0  0  0  0  0  0  0  0  0  0  0
   47.2467   31.0736   46.0610 C   0  0  0  0  0  0  0  0  0  0  0  0
   46.3758   33.8100   41.0200 C   0  0  0  0  0  0  0  0  0  0  0  0
   47.4235   34.7098   40.8231 C   0  0  0  0  0  0  0  0  0  0  0  0
   48.2641   34.9910   41.8956 C   0  0  0  0  0  0  0  0  0  0  0  0
   48.0253   34.3714   43.0978 N   0  0  0  0  0  0  0  0  0  0  0  0
   47.0033   33.5090   43.2468 C   0  0  0  0  0  0  0  0  0  0  0  0
   46.1725   33.2182   42.2226 N   0  0  0  0  0  0  0  0  0  0  0  0
   45.0517   34.9666   45.0547 S   0  0  0  0  0  0  0  0  0  0  0  0
   48.1498   31.2239   44.1209 H   0  0  0  0  0  0  0  0  0  0  0  0
   44.3341   34.0027   47.7211 H   0  0  0  0  0  0  0  0  0  0  0  0
   44.5899   32.2036   49.6455 H   0  0  0  0  0  0  0  0  0  0  0  0
   47.7452   30.1530   46.3403 H   0  0  0  0  0  0  0  0  0  0  0  0
   45.6923   33.5617   40.2016 H   0  0  0  0  0  0  0  0  0  0  0  0
   47.5692   35.1743   39.8474 H   0  0  0  0  0  0  0  0  0  0  0  0
   49.0774   35.6734   41.7884 H   0  0  0  0  0  0  0  0  0  0  0  0
   43.4635   34.7020   44.2492 C   0  0  0  0  0  0  0  0  0  0  0  0
   43.2906   33.2496   44.1014 N   0  0  0  0  0  4  0  0  0  0  0  0
   43.1533   33.0019   42.6634 C   0  0  0  0  0  0  0  0  0  0  0  0
   43.8372   33.7390   42.1629 H   0  0  0  0  0  0  0  0  0  0  0  0
   42.1865   32.7443   44.8593 C   0  0  0  0  0  0  0  0  0  0  0  0
   41.9852   33.3558   45.7699 H   0  0  0  0  0  0  0  0  0  0  0  0
   43.3481   35.2346   43.2927 H   0  0  0  0  0  0  0  0  0  0  0  0
   42.6819   35.0411   44.9911 H   0  0  0  0  0  0  0  0  0  0  0  0
   44.1377   32.7196   44.4017 H   0  0  0  0  0  0  0  0  0  0  0  0
   42.0838   33.1801   42.4175 H   0  0  0  0  0  0  0  0  0  0  0  0
   43.4554   31.9429   42.4311 H   0  0  0  0  0  0  0  0  0  0  0  0
   42.3938   31.7080   45.2475 H   0  0  0  0  0  0  0  0  0  0  0  0
   41.2691   32.7214   44.2399 H   0  0  0  0  0  0  0  0  0  0  0  0
  1  9  2  0
  2  1  1  0
  2  3  2  0
  3  4  1  0
  4  8  2  0
  4  5  1  0
  5  6  1  0
  7  6  2  0
  8  7  1  0
  9  8  1  0
 10 15  2  0
 11 10  1  0
 11 12  2  0
 12 13  1  0
 13 14  2  0
 14  2  1  0
 15 14  1  0
 16  3  1  0
  1 17  1  0
  5 18  1  0
  6 19  1  0
  9 20  1  0
 10 21  1  0
 11 22  1  0
 12 23  1  0
 24 25  1  0
 25 26  1  0
 26 27  1  0
 25 28  1  0
 28 29  1  0
 24 30  1  0
 24 31  1  0
 25 32  1  0
 26 33  1  0
 26 34  1  0
 28 35  1  0
 28 36  1  0
 16 24  1  0
M  ISO  8  17  14  18   9  19  14  20  14  21  14  22  14  23  14  27   8
M  CHG  1  25   1
M  ISO  1  29   8
M  END
>  <DihAtoms>  (1) 
2,15,23,24

>  <DihDeg>  (1) 
-179.96063554313827

$$$$
