
     RDKit          3D

 49 51  0  0  0  0  0  0  0  0999 V2000
   46.3769   33.4418   44.6696 C   0  0  0  0  0  0  0  0  0  0  0  0
   45.8480   33.8265   45.6685 O   0  0  0  0  0  0  0  0  0  0  0  0
   44.4781   31.7649   42.8854 Cl  0  0  0  0  0  0  0  0  0  0  0  0
   44.5623   33.5117   42.7997 C   0  0  0  0  0  0  0  0  0  0  0  0
   45.4708   34.1507   43.6874 C   0  0  0  0  0  0  0  0  0  0  0  0
   45.4308   35.5079   43.5211 C   0  0  0  0  0  0  0  0  0  0  0  0
   44.7186   36.2585   42.7078 C   0  0  0  0  0  0  0  0  0  0  0  0
   43.8531   35.5893   41.8663 C   0  0  0  0  0  0  0  0  0  0  0  0
   43.7711   34.2405   41.9067 C   0  0  0  0  0  0  0  0  0  0  0  0
   42.8774   33.6793   41.0282 O   0  0  0  0  0  0  0  0  0  0  0  0
   40.5853   33.1055   39.8928 O   0  0  0  0  0  0  0  0  0  0  0  0
   41.2292   33.3456   41.2318 P   0  0  0  0  0  0  0  0  0  0  0  0
   41.0633   31.9969   42.2418 O   0  0  0  0  0  0  0  0  0  0  0  0
   40.4284   34.6155   42.0160 O   0  0  0  0  0  0  0  0  0  0  0  0
   47.3927   32.6812   43.8876 C   0  0  0  0  0  0  0  0  0  0  0  0
   48.3210   33.2126   43.1154 C   0  0  0  0  0  0  0  0  0  0  0  0
   49.1031   32.2983   42.4309 C   0  0  0  0  0  0  0  0  0  0  0  0
   48.8285   30.9234   42.6346 N   0  0  0  0  0  0  0  0  0  0  0  0
   47.8895   30.4724   43.4216 C   0  0  0  0  0  0  0  0  0  0  0  0
   47.0954   31.3744   44.1124 N   0  0  0  0  0  0  0  0  0  0  0  0
   48.6845   34.6043   42.9976 C   0  0  1  0  0  0  0  0  0  0  0  0
   49.5783   35.1486   42.1422 C   0  0  0  0  0  0  0  0  0  0  0  0
   48.1665   35.3105   41.6611 C   0  0  1  0  0  0  0  0  0  0  0  0
   47.7132   34.4287   40.6446 N   0  0  0  0  0  0  0  0  0  0  0  0
   46.1061   36.1035   44.1906 H   0  0  0  0  0  0  0  0  0  0  0  0
   44.7689   37.3521   42.6588 H   0  0  0  0  0  0  0  0  0  0  0  0
   43.2431   36.1949   41.1726 H   0  0  0  0  0  0  0  0  0  0  0  0
   40.6909   32.1947   43.1171 H   0  0  0  0  0  0  0  0  0  0  0  0
   39.9040   35.1283   41.3387 H   0  0  0  0  0  0  0  0  0  0  0  0
   49.9096   32.5240   41.7504 H   0  0  0  0  0  0  0  0  0  0  0  0
   47.8034   29.3948   43.4735 H   0  0  0  0  0  0  0  0  0  0  0  0
   48.2308   35.1840   43.8645 H   0  0  0  0  0  0  0  0  0  0  0  0
   50.1020   36.1099   42.3339 H   0  0  0  0  0  0  0  0  0  0  0  0
   50.2342   34.5182   41.4697 H   0  0  0  0  0  0  0  0  0  0  0  0
   47.6875   36.2950   41.7973 H   0  0  0  0  0  0  0  0  0  0  0  0
   46.8861   33.8504   40.9113 H   0  0  0  0  0  0  0  0  0  0  0  0
   47.3035   35.2989   39.5546 C   0  0  0  0  0  0  0  0  0  0  0  0
   48.2302   35.3160   38.4702 N   0  0  0  0  0  4  0  0  0  0  0  0
   47.4802   35.7008   37.2785 C   0  0  0  0  0  0  0  0  0  0  0  0
   46.8949   36.6172   37.5473 H   0  0  0  0  0  0  0  0  0  0  0  0
   48.8658   34.0348   38.2307 C   0  0  0  0  0  0  0  0  0  0  0  0
   49.6489   33.9073   39.0189 H   0  0  0  0  0  0  0  0  0  0  0  0
   47.1811   36.3475   39.8980 H   0  0  0  0  0  0  0  0  0  0  0  0
   46.2931   35.0096   39.1691 H   0  0  0  0  0  0  0  0  0  0  0  0
   48.9335   36.0742   38.6009 H   0  0  0  0  0  0  0  0  0  0  0  0
   46.7346   34.8882   37.1038 H   0  0  0  0  0  0  0  0  0  0  0  0
   48.1335   35.8404   36.3956 H   0  0  0  0  0  0  0  0  0  0  0  0
   48.1323   33.2292   38.2491 H   0  0  0  0  0  0  0  0  0  0  0  0
   49.4000   34.0786   37.2593 H   0  0  0  0  0  0  0  0  0  0  0  0
  1  2  2  0
  4  3  1  0
  4  5  2  0
  5  1  1  0
  6  5  1  0
  7  6  2  0
  8  9  2  0
  8  7  1  0
  9  4  1  0
 10 12  1  0
 10  9  1  0
 11 12  2  0
 12 14  1  0
 12 13  1  0
 15 20  1  0
 15  1  1  0
 16 15  2  0
 17 18  2  0
 17 16  1  0
 18 19  1  0
 19 20  2  0
 21 16  1  0
 22 21  1  0
 23 22  1  0
 23 21  1  0
 24 23  1  0
  6 25  1  0
  7 26  1  0
  8 27  1  0
 13 28  1  0
 14 29  1  0
 17 30  1  0
 19 31  1  0
 21 32  1  1
 22 33  1  0
 22 34  1  0
 23 35  1  1
 24 36  1  0
 37 38  1  0
 38 39  1  0
 39 40  1  0
 38 41  1  0
 41 42  1  0
 37 43  1  0
 37 44  1  0
 38 45  1  0
 39 46  1  0
 39 47  1  0
 41 48  1  0
 41 49  1  0
 24 37  1  0
M  CHG  1  38   1
M  END
>  <DihAtoms>  (1) 
22,23,36,37

>  <DihDeg>  (1) 
179.9236958394036

$$$$
