
     RDKit          3D

 43 44  0  0  0  0  0  0  0  0999 V2000
   47.1725   33.4156   40.7037 O   0  0  0  0  0  0  0  0  0  0  0  0
   49.6485   32.3433   38.3479 C   0  0  0  0  0  0  0  0  0  0  0  0
   49.3130   33.0428   37.1727 C   0  0  0  0  0  0  0  0  0  0  0  0
   48.2103   33.8957   37.2156 C   0  0  0  0  0  0  0  0  0  0  0  0
   47.5212   34.0073   38.3797 N   0  0  0  0  0  0  0  0  0  0  0  0
   47.8508   33.3385   39.4829 C   0  0  0  0  0  0  0  0  0  0  0  0
   48.9203   32.4999   39.4737 N   0  0  0  0  0  0  0  0  0  0  0  0
   50.8319   31.4272   38.2887 C   0  0  0  0  0  0  0  0  0  0  0  0
   51.7217   31.7021   39.2808 F   0  0  0  0  0  0  0  0  0  0  0  0
   50.3670   30.1211   38.3419 F   0  0  0  0  0  0  0  0  0  0  0  0
   51.4265   31.5463   37.0066 F   0  0  0  0  0  0  0  0  0  0  0  0
   45.4758   34.7812   41.8437 C   0  0  1  0  0  0  0  0  0  0  0  0
   45.8779   34.0004   40.6573 C   0  0  2  0  0  0  0  0  0  0  0  0
   44.9666   32.9232   40.4106 O   0  0  0  0  0  0  0  0  0  0  0  0
   45.1986   32.0081   41.4425 C   0  0  0  0  0  0  0  0  0  0  0  0
   44.6661   32.5562   42.7520 C   0  0  1  0  0  0  0  0  0  0  0  0
   44.4587   34.0463   42.6942 C   0  0  1  0  0  0  0  0  0  0  0  0
   46.5952   35.1441   42.6196 O   0  0  0  0  0  0  0  0  0  0  0  0
   43.4102   31.9465   42.9308 O   0  0  0  0  0  0  0  0  0  0  0  0
   44.5833   34.5363   44.0149 O   0  0  0  0  0  0  0  0  0  0  0  0
   49.8473   32.9627   36.2524 H   0  0  0  0  0  0  0  0  0  0  0  0
   47.8884   34.4654   36.3622 H   0  0  0  0  0  0  0  0  0  0  0  0
   45.0084   35.7560   41.5734 H   0  0  0  0  0  0  0  0  0  0  0  0
   45.7684   34.5971   39.7145 H   0  0  0  0  0  0  0  0  0  0  0  0
   46.2961   31.8547   41.5543 H   0  0  0  0  0  0  0  0  0  0  0  0
   44.7208   31.0460   41.1764 H   0  0  0  0  0  0  0  0  0  0  0  0
   45.3646   32.3105   43.5653 H   0  0  0  0  0  0  0  0  0  0  0  0
   43.4481   34.2308   42.3195 H   0  0  0  0  0  0  0  0  0  0  0  0
   46.7871   34.4462   43.2899 H   0  0  0  0  0  0  0  0  0  0  0  0
   43.3640   31.7596   43.9189 H   0  0  0  0  0  0  0  0  0  0  0  0
   43.3263   35.0691   44.3029 C   0  0  0  0  0  0  0  0  0  0  0  0
   42.5138   35.2540   43.1341 N   0  0  0  0  0  4  0  0  0  0  0  0
   41.4100   34.3134   43.2152 C   0  0  0  0  0  0  0  0  0  0  0  0
   40.5683   34.5768   42.5431 H   0  0  0  0  0  0  0  0  0  0  0  0
   41.8814   36.5769   43.1127 C   0  0  0  0  0  0  0  0  0  0  0  0
   41.1576   36.5731   42.2726 H   0  0  0  0  0  0  0  0  0  0  0  0
   42.8203   34.4698   45.0604 H   0  0  0  0  0  0  0  0  0  0  0  0
   43.4646   36.0968   44.7507 H   0  0  0  0  0  0  0  0  0  0  0  0
   43.0465   35.1054   42.2366 H   0  0  0  0  0  0  0  0  0  0  0  0
   41.7370   33.2722   43.1611 H   0  0  0  0  0  0  0  0  0  0  0  0
   40.9997   34.4614   44.2574 H   0  0  0  0  0  0  0  0  0  0  0  0
   42.6119   37.4011   43.0779 H   0  0  0  0  0  0  0  0  0  0  0  0
   41.2621   36.6188   44.0534 H   0  0  0  0  0  0  0  0  0  0  0  0
  2  7  2  0
  3  4  2  0
  3  2  1  0
  4  5  1  0
  5  6  2  0
  6  1  1  0
  7  6  1  0
  8  2  1  0
  8 10  1  0
  8  9  1  0
 11  8  1  0
 12 18  1  0
 12 17  1  0
 13  1  1  0
 13 12  1  0
 14 13  1  0
 14 15  1  0
 15 16  1  0
 16 19  1  0
 17 16  1  0
 17 20  1  0
  3 21  1  0
  4 22  1  0
 12 23  1  6
 13 24  1  6
 15 25  1  0
 15 26  1  0
 16 27  1  1
 17 28  1  6
 18 29  1  0
 19 30  1  0
 31 32  1  0
 32 33  1  0
 33 34  1  0
 32 35  1  0
 35 36  1  0
 31 37  1  0
 31 38  1  0
 32 39  1  0
 33 40  1  0
 33 41  1  0
 35 42  1  0
 35 43  1  0
 20 31  1  0
M  CHG  1  32   1
M  END
>  <DihAtoms>  (1) 
16,19,30,31

>  <DihDeg>  (1) 
-179.9982238208507

$$$$
