
     RDKit          3D

 35 35  0  0  0  0  0  0  0  0999 V2000
   44.9106   37.8120   44.6393 C   0  0  0  0  0  0  0  0  0  0  0  0
   45.3825   38.8113   43.9115 C   0  0  0  0  0  0  0  0  0  0  0  0
   44.9786   36.4634   44.0784 C   0  0  0  0  0  0  0  0  0  0  0  0
   45.0007   36.3351   42.6807 C   0  0  0  0  0  0  0  0  0  0  0  0
   45.0635   35.0586   42.1095 C   0  0  0  0  0  0  0  0  0  0  0  0
   45.1003   33.9935   42.9529 N   0  0  0  0  0  0  0  0  0  0  0  0
   45.0775   34.1491   44.3058 C   0  0  0  0  0  0  0  0  0  0  0  0
   45.0176   35.3707   44.8407 N   0  0  0  0  0  0  0  0  0  0  0  0
   45.3633   40.2206   44.3801 C   0  0  0  0  0  0  0  0  0  0  0  0
   44.7223   40.3664   45.5879 O   0  0  0  0  0  0  0  0  0  0  0  0
   42.8849   42.1551   45.6110 O   0  0  0  0  0  0  0  0  0  0  0  0
   44.3399   41.9926   45.9073 P   0  0  1  0  0  0  0  0  0  0  0  0
   44.6071   42.3010   47.5608 O   0  0  0  0  0  0  0  0  0  0  0  0
   45.2701   43.0546   45.0513 O   0  0  0  0  0  0  0  0  0  0  0  0
   44.5017   38.0504   45.6073 H   0  0  0  0  0  0  0  0  0  0  0  0
   45.8348   38.7654   42.9075 H   0  0  0  0  0  0  0  0  0  0  0  0
   44.9724   37.1635   41.9879 H   0  0  0  0  0  0  0  0  0  0  0  0
   45.0807   34.9528   41.0463 H   0  0  0  0  0  0  0  0  0  0  0  0
   45.1106   33.2358   44.8988 H   0  0  0  0  0  0  0  0  0  0  0  0
   44.7276   40.7657   43.6308 H   0  0  0  0  0  0  0  0  0  0  0  0
   46.3601   40.7053   44.3434 H   0  0  0  0  0  0  0  0  0  0  0  0
   45.5537   42.5422   47.7173 H   0  0  0  0  0  0  0  0  0  0  0  0
   44.7012   43.7957   44.0814 C   0  0  0  0  0  0  0  0  0  0  0  0
   43.6882   44.7431   44.3747 N   0  0  0  0  0  4  0  0  0  0  0  0
   42.4452   44.3578   43.7396 C   0  0  0  0  0  0  0  0  0  0  0  0
   41.6379   44.2693   44.4832 H   0  0  0  0  0  0  0  0  0  0  0  0
   43.4802   45.0813   45.7478 C   0  0  0  0  0  0  0  0  0  0  0  0
   42.4754   44.7699   46.1230 H   0  0  0  0  0  0  0  0  0  0  0  0
   44.2953   43.0891   43.2729 H   0  0  0  0  0  0  0  0  0  0  0  0
   45.5564   44.3776   43.5845 H   0  0  0  0  0  0  0  0  0  0  0  0
   43.9272   45.6902   43.8929 H   0  0  0  0  0  0  0  0  0  0  0  0
   42.5416   43.3765   43.2251 H   0  0  0  0  0  0  0  0  0  0  0  0
   42.0850   45.1161   43.0006 H   0  0  0  0  0  0  0  0  0  0  0  0
   44.2523   44.7075   46.4162 H   0  0  0  0  0  0  0  0  0  0  0  0
   43.4981   46.2100   45.9108 H   0  0  0  0  0  0  0  0  0  0  0  0
  2  9  1  0
  2  1  2  0
  3  1  1  0
  3  8  2  0
  4  3  1  0
  5  4  2  0
  5  6  1  0
  6  7  2  0
  7  8  1  0
  9 10  1  0
 12 10  1  1
 11 12  2  0
 12 13  1  0
 14 12  1  0
  1 15  1  0
  2 16  1  0
  4 17  1  0
  5 18  1  0
  7 19  1  0
  9 20  1  0
  9 21  1  0
 13 22  1  0
 23 24  1  0
 24 25  1  0
 25 26  1  0
 24 27  1  0
 27 28  1  0
 23 29  1  0
 23 30  1  0
 24 31  1  0
 25 32  1  0
 25 33  1  0
 27 34  1  0
 27 35  1  0
 14 23  1  0
M  CHG  1  24   1
M  END
>  <DihAtoms>  (1) 
11,13,22,23

>  <DihDeg>  (1) 
63.2797108098865

$$$$
