
     RDKit          3D

 35 36  0  0  0  0  0  0  0  0999 V2000
   44.5209   36.0897   44.4832 C   0  0  0  0  0  0  0  0  0  0  0  0
   45.2588   35.9286   43.3151 C   0  0  0  0  0  0  0  0  0  0  0  0
   46.1203   34.8469   43.2097 C   0  0  0  0  0  0  0  0  0  0  0  0
   46.1931   33.9886   44.2810 N   0  0  0  0  0  0  0  0  0  0  0  0
   45.4679   34.1668   45.4002 C   0  0  0  0  0  0  0  0  0  0  0  0
   44.6255   35.2230   45.5050 N   0  0  0  0  0  0  0  0  0  0  0  0
   48.4262   34.9237   42.2816 C   0  0  2  0  0  0  0  0  0  0  0  0
   46.9749   34.4501   42.1008 C   0  0  1  0  0  0  0  0  0  0  0  0
   47.2103   33.0919   42.0005 O   0  0  0  0  0  0  0  0  0  0  0  0
   48.1861   32.9742   41.0213 C   0  0  0  0  0  0  0  0  0  0  0  0
   48.9547   34.2806   40.9878 C   0  0  1  0  0  0  0  0  0  0  0  0
   49.0303   34.2557   43.3000 O   0  0  0  0  0  0  0  0  0  0  0  0
   48.5228   35.1113   39.9429 O   0  0  0  0  0  0  0  0  0  0  0  0
   43.8910   36.9715   44.4330 H   0  0  0  0  0  0  0  0  0  0  0  0
   45.2501   36.5617   42.4399 H   0  0  0  0  0  0  0  0  0  0  0  0
   45.5306   33.4886   46.2361 H   0  0  0  0  0  0  0  0  0  0  0  0
   48.5116   36.0040   42.2725 H   0  0  0  0  0  0  0  0  0  0  0  0
   46.6270   34.9371   41.1727 H   0  0  0  0  0  0  0  0  0  0  0  0
   48.8899   32.1979   41.3511 H   0  0  0  0  0  0  0  0  0  0  0  0
   47.7995   32.6985   40.0248 H   0  0  0  0  0  0  0  0  0  0  0  0
   50.0394   34.1371   40.9957 H   0  0  0  0  0  0  0  0  0  0  0  0
   48.5045   33.6009   43.7919 H   0  0  0  0  0  0  0  0  0  0  0  0
   49.5749   35.5537   39.1673 C   0  0  0  0  0  0  0  0  0  0  0  0
   50.0477   34.4831   38.3093 N   0  0  0  0  0  4  0  0  0  0  0  0
   50.8885   34.9888   37.2620 C   0  0  0  0  0  0  0  0  0  0  0  0
   51.0215   34.1998   36.4958 H   0  0  0  0  0  0  0  0  0  0  0  0
   48.9029   33.7661   37.7515 C   0  0  0  0  0  0  0  0  0  0  0  0
   49.2103   32.7854   37.3375 H   0  0  0  0  0  0  0  0  0  0  0  0
   49.2719   36.4122   38.5431 H   0  0  0  0  0  0  0  0  0  0  0  0
   50.4323   35.8196   39.8334 H   0  0  0  0  0  0  0  0  0  0  0  0
   50.6128   33.7807   38.8408 H   0  0  0  0  0  0  0  0  0  0  0  0
   51.8763   35.2486   37.7268 H   0  0  0  0  0  0  0  0  0  0  0  0
   50.4720   35.9142   36.8339 H   0  0  0  0  0  0  0  0  0  0  0  0
   48.1569   33.5853   38.5624 H   0  0  0  0  0  0  0  0  0  0  0  0
   48.3977   34.3801   36.9714 H   0  0  0  0  0  0  0  0  0  0  0  0
  1  6  2  0
  2  1  1  0
  3  2  2  0
  3  4  1  0
  4  5  2  0
  5  6  1  0
  7 12  1  0
  8  7  1  0
  8  3  1  0
  9  8  1  0
 10  9  1  0
 11 13  1  0
 11 10  1  0
 11  7  1  0
  1 14  1  0
  2 15  1  0
  5 16  1  0
  7 17  1  6
  8 18  1  6
 10 19  1  0
 10 20  1  0
 11 21  1  1
 12 22  1  0
 23 24  1  0
 24 25  1  0
 25 26  1  0
 24 27  1  0
 27 28  1  0
 23 29  1  0
 23 30  1  0
 24 31  1  0
 25 32  1  0
 25 33  1  0
 27 34  1  0
 27 35  1  0
 13 23  1  0
M  CHG  1  24   1
M  END
>  <DihAtoms>  (1) 
10,12,22,23

>  <DihDeg>  (1) 
-179.99989513665884

$$$$
