
     RDKit          3D

 38 39  0  0  0  0  0  0  0  0999 V2000
   46.8765   34.6179   42.2310 N   0  0  0  0  0  0  0  0  0  0  0  0
   48.3262   34.7907   42.2607 C   0  0  0  0  0  0  0  0  0  0  0  0
   48.6589   35.5195   40.9571 C   0  0  0  0  0  0  0  0  0  0  0  0
   48.3356   34.6421   39.7728 C   0  0  0  0  0  0  0  0  0  0  0  0
   47.1010   33.8190   39.9209 C   0  0  0  0  0  0  0  0  0  0  0  0
   46.1896   34.2673   41.0340 C   0  0  1  0  0  0  0  0  0  0  0  0
   44.5159   35.9765   44.7741 C   0  0  0  0  0  0  0  0  0  0  0  0
   45.2337   35.8906   43.5680 C   0  0  0  0  0  0  0  0  0  0  0  0
   46.1036   34.7981   43.4136 C   0  0  0  0  0  0  0  0  0  0  0  0
   46.1866   33.9083   44.4382 N   0  0  0  0  0  0  0  0  0  0  0  0
   45.4775   34.0308   45.5798 C   0  0  0  0  0  0  0  0  0  0  0  0
   44.6365   35.0798   45.7383 N   0  0  0  0  0  0  0  0  0  0  0  0
   45.3294   33.1753   41.2896 O   0  0  0  0  0  0  0  0  0  0  0  0
   48.7565   33.7722   42.2792 H   0  0  0  0  0  0  0  0  0  0  0  0
   48.6623   35.4098   43.1083 H   0  0  0  0  0  0  0  0  0  0  0  0
   48.1009   36.4611   40.9713 H   0  0  0  0  0  0  0  0  0  0  0  0
   49.7463   35.7215   40.9443 H   0  0  0  0  0  0  0  0  0  0  0  0
   48.1841   35.3236   38.8968 H   0  0  0  0  0  0  0  0  0  0  0  0
   49.1923   33.9926   39.4989 H   0  0  0  0  0  0  0  0  0  0  0  0
   47.4052   32.7744   40.1935 H   0  0  0  0  0  0  0  0  0  0  0  0
   46.4908   33.7339   39.0032 H   0  0  0  0  0  0  0  0  0  0  0  0
   45.5569   35.0854   40.6566 H   0  0  0  0  0  0  0  0  0  0  0  0
   43.8821   36.8671   44.7613 H   0  0  0  0  0  0  0  0  0  0  0  0
   45.1871   36.5760   42.7468 H   0  0  0  0  0  0  0  0  0  0  0  0
   45.5468   33.3214   46.3909 H   0  0  0  0  0  0  0  0  0  0  0  0
   44.0060   33.4666   40.9952 C   0  0  0  0  0  0  0  0  0  0  0  0
   43.1853   32.4391   41.6183 N   0  0  0  0  0  4  0  0  0  0  0  0
   43.9754   31.5857   42.4759 C   0  0  0  0  0  0  0  0  0  0  0  0
   43.3811   30.6950   42.7472 H   0  0  0  0  0  0  0  0  0  0  0  0
   42.6667   31.5850   40.5531 C   0  0  0  0  0  0  0  0  0  0  0  0
   43.3937   30.8216   40.2270 H   0  0  0  0  0  0  0  0  0  0  0  0
   43.7852   34.4810   41.3972 H   0  0  0  0  0  0  0  0  0  0  0  0
   43.8251   33.4973   39.9016 H   0  0  0  0  0  0  0  0  0  0  0  0
   42.3987   32.8094   42.1782 H   0  0  0  0  0  0  0  0  0  0  0  0
   44.8953   31.2376   41.9264 H   0  0  0  0  0  0  0  0  0  0  0  0
   44.2865   32.1099   43.4053 H   0  0  0  0  0  0  0  0  0  0  0  0
   42.5232   32.2506   39.6587 H   0  0  0  0  0  0  0  0  0  0  0  0
   41.6846   31.1762   40.8687 H   0  0  0  0  0  0  0  0  0  0  0  0
  1  2  1  0
  1  9  1  0
  3  2  1  0
  4  5  1  0
  4  3  1  0
  5  6  1  0
  6 13  1  0
  6  1  1  0
  7 12  2  0
  8  7  1  0
  9  8  2  0
  9 10  1  0
 10 11  2  0
 11 12  1  0
  2 14  1  0
  2 15  1  0
  3 16  1  0
  3 17  1  0
  4 18  1  0
  4 19  1  0
  5 20  1  0
  5 21  1  0
  6 22  1  6
  7 23  1  0
  8 24  1  0
 11 25  1  0
 26 27  1  0
 27 28  1  0
 28 29  1  0
 27 30  1  0
 30 31  1  0
 26 32  1  0
 26 33  1  0
 27 34  1  0
 28 35  1  0
 28 36  1  0
 30 37  1  0
 30 38  1  0
 13 26  1  0
M  CHG  1  27   1
M  END
>  <DihAtoms>  (1) 
5,12,25,26

>  <DihDeg>  (1) 
179.9996649639764

$$$$
