
     RDKit          3D

 40 41  0  0  0  0  0  0  0  0999 V2000
   46.3517   35.2369   42.6079 C   0  0  0  0  0  0  0  0  0  0  0  0
   46.8536   34.1282   43.3019 C   0  0  0  0  0  0  0  0  0  0  0  0
   46.2974   33.8079   44.5273 C   0  0  0  0  0  0  0  0  0  0  0  0
   45.2912   34.5988   44.9761 N   0  0  0  0  0  0  0  0  0  0  0  0
   44.8203   35.6545   44.3042 C   0  0  0  0  0  0  0  0  0  0  0  0
   45.3541   35.9780   43.1096 N   0  0  0  0  0  0  0  0  0  0  0  0
   46.1152   31.3689   44.9417 C   0  0  2  0  0  0  0  0  0  0  0  0
   46.8861   32.6859   45.2967 C   0  0  2  0  0  0  0  0  0  0  0  0
   46.6430   32.7615   46.7518 C   0  0  0  0  0  0  0  0  0  0  0  0
   45.9050   31.6457   47.1463 O   0  0  0  0  0  0  0  0  0  0  0  0
   46.3511   30.6467   46.2692 C   0  0  0  0  0  0  0  0  0  0  0  0
   46.7640   30.6830   43.9119 O   0  0  0  0  0  0  0  0  0  0  0  0
   47.8891   33.4128   42.7000 O   0  0  0  0  0  0  0  0  0  0  0  0
   50.3336   33.1348   41.8169 O   0  0  0  0  0  0  0  0  0  0  0  0
   49.3039   34.1528   42.1368 P   0  0  1  0  0  0  0  0  0  0  0  0
   49.0000   35.0474   40.7315 O   0  0  0  0  0  0  0  0  0  0  0  0
   49.8987   35.2070   43.3442 O   0  0  0  0  0  0  0  0  0  0  0  0
   46.7747   35.4982   41.6548 H   0  0  0  0  0  0  0  0  0  0  0  0
   44.0137   36.2233   44.7481 H   0  0  0  0  0  0  0  0  0  0  0  0
   45.0614   31.5467   44.7936 H   0  0  0  0  0  0  0  0  0  0  0  0
   47.8969   32.4350   44.9776 H   0  0  0  0  0  0  0  0  0  0  0  0
   47.5641   32.8727   47.3668 H   0  0  0  0  0  0  0  0  0  0  0  0
   45.9880   33.6491   46.9749 H   0  0  0  0  0  0  0  0  0  0  0  0
   45.7834   29.7203   46.3453 H   0  0  0  0  0  0  0  0  0  0  0  0
   47.4428   30.5639   46.4042 H   0  0  0  0  0  0  0  0  0  0  0  0
   47.7245   30.8033   44.0019 H   0  0  0  0  0  0  0  0  0  0  0  0
   49.0261   36.0283   40.9277 H   0  0  0  0  0  0  0  0  0  0  0  0
   50.8955   34.5231   44.0262 C   0  0  0  0  0  0  0  0  0  0  0  0
   50.4202   33.7703   45.1613 N   0  0  0  0  0  4  0  0  0  0  0  0
   49.1131   33.2045   44.9825 C   0  0  0  0  0  0  0  0  0  0  0  0
   49.1621   32.2931   44.3480 H   0  0  0  0  0  0  0  0  0  0  0  0
   50.4237   34.5426   46.3836 C   0  0  0  0  0  0  0  0  0  0  0  0
   49.4822   35.1023   46.5514 H   0  0  0  0  0  0  0  0  0  0  0  0
   51.7200   35.1751   44.3712 H   0  0  0  0  0  0  0  0  0  0  0  0
   51.3448   33.7846   43.3102 H   0  0  0  0  0  0  0  0  0  0  0  0
   51.0936   32.9748   45.3087 H   0  0  0  0  0  0  0  0  0  0  0  0
   48.7790   32.8530   45.9807 H   0  0  0  0  0  0  0  0  0  0  0  0
   48.3759   33.9499   44.6138 H   0  0  0  0  0  0  0  0  0  0  0  0
   50.5085   33.8225   47.2253 H   0  0  0  0  0  0  0  0  0  0  0  0
   51.3244   35.1979   46.4638 H   0  0  0  0  0  0  0  0  0  0  0  0
  1  6  2  0
  1  2  1  0
  2  3  2  0
  3  4  1  0
  5  4  2  0
  6  5  1  0
  7 12  1  0
  7  8  1  0
  7 11  1  0
  8  3  1  0
  8  9  1  0
  9 10  1  0
 11 10  1  0
 13  2  1  0
 14 15  2  0
 15 13  1  1
 15 17  1  0
 16 15  1  0
  1 18  1  0
  5 19  1  0
  7 20  1  6
  8 21  1  1
  9 22  1  0
  9 23  1  0
 11 24  1  0
 11 25  1  0
 12 26  1  0
 16 27  1  0
 28 29  1  0
 29 30  1  0
 30 31  1  0
 29 32  1  0
 32 33  1  0
 28 34  1  0
 28 35  1  0
 29 36  1  0
 30 37  1  0
 30 38  1  0
 32 39  1  0
 32 40  1  0
 17 28  1  0
M  ISO  8  18  14  19  14  20  13  21  13  22  13  23  13  24  13  25  13
M  CHG  1  29   1
M  ISO  4  26   3  27   3  31   8  33   8
M  END
>  <DihAtoms>  (1) 
14,16,27,28

>  <DihDeg>  (1) 
-179.99887806305819

$$$$
