
     RDKit          3D

 40 41  0  0  0  0  0  0  0  0999 V2000
   46.3517   35.2369   42.6079 C   0  0  0  0  0  0  0  0  0  0  0  0
   46.8536   34.1282   43.3019 C   0  0  0  0  0  0  0  0  0  0  0  0
   46.2974   33.8079   44.5273 C   0  0  0  0  0  0  0  0  0  0  0  0
   45.2912   34.5988   44.9761 N   0  0  0  0  0  0  0  0  0  0  0  0
   44.8203   35.6545   44.3042 C   0  0  0  0  0  0  0  0  0  0  0  0
   45.3541   35.9780   43.1096 N   0  0  0  0  0  0  0  0  0  0  0  0
   46.1152   31.3689   44.9417 C   0  0  2  0  0  0  0  0  0  0  0  0
   46.8861   32.6859   45.2967 C   0  0  2  0  0  0  0  0  0  0  0  0
   46.6430   32.7615   46.7518 C   0  0  0  0  0  0  0  0  0  0  0  0
   45.9050   31.6457   47.1463 O   0  0  0  0  0  0  0  0  0  0  0  0
   46.3511   30.6467   46.2692 C   0  0  0  0  0  0  0  0  0  0  0  0
   46.7640   30.6830   43.9119 O   0  0  0  0  0  0  0  0  0  0  0  0
   47.8891   33.4128   42.7000 O   0  0  0  0  0  0  0  0  0  0  0  0
   50.3336   33.1348   41.8169 O   0  0  0  0  0  0  0  0  0  0  0  0
   49.3039   34.1528   42.1368 P   0  0  1  0  0  0  0  0  0  0  0  0
   49.0000   35.0474   40.7315 O   0  0  0  0  0  0  0  0  0  0  0  0
   49.8987   35.2070   43.3442 O   0  0  0  0  0  0  0  0  0  0  0  0
   46.7747   35.4982   41.6548 H   0  0  0  0  0  0  0  0  0  0  0  0
   44.0137   36.2233   44.7481 H   0  0  0  0  0  0  0  0  0  0  0  0
   45.0614   31.5467   44.7936 H   0  0  0  0  0  0  0  0  0  0  0  0
   47.8969   32.4350   44.9776 H   0  0  0  0  0  0  0  0  0  0  0  0
   47.5641   32.8727   47.3668 H   0  0  0  0  0  0  0  0  0  0  0  0
   45.9880   33.6491   46.9749 H   0  0  0  0  0  0  0  0  0  0  0  0
   45.7834   29.7203   46.3453 H   0  0  0  0  0  0  0  0  0  0  0  0
   47.4428   30.5639   46.4042 H   0  0  0  0  0  0  0  0  0  0  0  0
   47.7245   30.8033   44.0019 H   0  0  0  0  0  0  0  0  0  0  0  0
   49.0261   36.0283   40.9277 H   0  0  0  0  0  0  0  0  0  0  0  0
   50.8955   34.5231   44.0262 C   0  0  0  0  0  0  0  0  0  0  0  0
   52.1890   35.1594   43.9691 N   0  0  0  0  0  4  0  0  0  0  0  0
   52.1357   36.5939   43.9635 C   0  0  0  0  0  0  0  0  0  0  0  0
   51.9442   36.9847   44.9863 H   0  0  0  0  0  0  0  0  0  0  0  0
   52.9751   34.7239   42.8365 C   0  0  0  0  0  0  0  0  0  0  0  0
   52.8041   35.3303   41.9249 H   0  0  0  0  0  0  0  0  0  0  0  0
   51.0168   33.4749   43.6940 H   0  0  0  0  0  0  0  0  0  0  0  0
   50.5971   34.4874   45.1077 H   0  0  0  0  0  0  0  0  0  0  0  0
   52.7171   34.8641   44.8304 H   0  0  0  0  0  0  0  0  0  0  0  0
   53.1525   36.9492   43.6960 H   0  0  0  0  0  0  0  0  0  0  0  0
   51.4219   36.9882   43.2085 H   0  0  0  0  0  0  0  0  0  0  0  0
   54.0434   34.8665   43.1056 H   0  0  0  0  0  0  0  0  0  0  0  0
   52.8627   33.6299   42.6429 H   0  0  0  0  0  0  0  0  0  0  0  0
  1  6  2  0
  1  2  1  0
  2  3  2  0
  3  4  1  0
  5  4  2  0
  6  5  1  0
  7 12  1  0
  7  8  1  0
  7 11  1  0
  8  3  1  0
  8  9  1  0
  9 10  1  0
 11 10  1  0
 13  2  1  0
 14 15  2  0
 15 13  1  1
 15 17  1  0
 16 15  1  0
  1 18  1  0
  5 19  1  0
  7 20  1  6
  8 21  1  1
  9 22  1  0
  9 23  1  0
 11 24  1  0
 11 25  1  0
 12 26  1  0
 16 27  1  0
 28 29  1  0
 29 30  1  0
 30 31  1  0
 29 32  1  0
 32 33  1  0
 28 34  1  0
 28 35  1  0
 29 36  1  0
 30 37  1  0
 30 38  1  0
 32 39  1  0
 32 40  1  0
 17 28  1  0
M  ISO  8  18  14  19  14  20  13  21  13  22  13  23  13  24  13  25  13
M  CHG  1  29   1
M  ISO  4  26   3  27   3  31   8  33   8
M  END
>  <DihAtoms>  (1) 
14,16,27,28

>  <DihDeg>  (1) 
-179.99887806305819

$$$$
