
     RDKit          3D

 34 37  0  0  0  0  0  0  0  0999 V2000
   45.2287   33.5576   43.7735 C   0  0  1  0  0  0  0  0  0  0  0  0
   45.8569   34.9572   43.4617 C   0  0  1  0  0  0  0  0  0  0  0  0
   45.7608   33.8293   42.4753 C   0  0  0  0  0  0  0  0  0  0  0  0
   45.9666   32.8491   44.8289 C   0  0  0  0  0  0  0  0  0  0  0  0
   46.6350   31.6435   44.5163 C   0  0  0  0  0  0  0  0  0  0  0  0
   47.3419   30.9666   45.5213 C   0  0  0  0  0  0  0  0  0  0  0  0
   47.3424   31.5213   46.7569 N   0  0  0  0  0  0  0  0  0  0  0  0
   46.6922   32.6848   47.0353 C   0  0  0  0  0  0  0  0  0  0  0  0
   46.0370   33.2928   46.0642 N   0  0  0  0  0  0  0  0  0  0  0  0
   44.8313   36.0521   43.2755 C   0  0  0  0  0  0  0  0  0  0  0  0
   45.4042   37.3040   43.2468 F   0  0  0  0  0  0  0  0  0  0  0  0
   44.2112   35.8589   42.0444 F   0  0  0  0  0  0  0  0  0  0  0  0
   43.8438   35.9647   44.2318 F   0  0  0  0  0  0  0  0  0  0  0  0
   44.1321   33.6058   43.9841 H   0  0  0  0  0  0  0  0  0  0  0  0
   46.8264   35.1916   43.8940 H   0  0  0  0  0  0  0  0  0  0  0  0
   46.7274   33.4332   42.1045 H   0  0  0  0  0  0  0  0  0  0  0  0
   45.0283   33.9151   41.6244 H   0  0  0  0  0  0  0  0  0  0  0  0
   46.6332   31.2094   43.5404 H   0  0  0  0  0  0  0  0  0  0  0  0
   47.8822   30.0525   45.4060 H   0  0  0  0  0  0  0  0  0  0  0  0
   46.5930   33.4282   48.3115 C   0  0  0  0  0  0  0  0  0  0  0  0
   45.6870   34.3951   48.5344 N   0  0  0  0  0  0  0  0  0  0  0  0
   45.5890   35.0713   49.6777 C   0  0  0  0  0  0  0  0  0  0  0  0
   46.3993   34.8387   50.7163 N   0  0  0  0  0  0  0  0  0  0  0  0
   47.3424   33.8898   50.5964 C   0  0  0  0  0  0  0  0  0  0  0  0
   48.1840   33.6415   51.6571 C   0  0  0  0  0  0  0  0  0  0  0  0
   49.1599   32.6804   51.5691 C   0  0  0  0  0  0  0  0  0  0  0  0
   49.7592   32.5739   52.4621 H   0  0  0  0  0  0  0  0  0  0  0  0
   49.2631   31.9704   50.3679 C   0  0  0  0  0  0  0  0  0  0  0  0
   50.0364   31.2331   50.3455 H   0  0  0  0  0  0  0  0  0  0  0  0
   48.3927   32.2638   49.3430 C   0  0  0  0  0  0  0  0  0  0  0  0
   47.4069   33.2175   49.3989 C   0  0  0  0  0  0  0  0  0  0  0  0
   44.7945   35.8142   49.6679 H   0  0  0  0  0  0  0  0  0  0  0  0
   48.0376   34.2435   52.5669 H   0  0  0  0  0  0  0  0  0  0  0  0
   48.5634   31.6700   48.4884 H   0  0  0  0  0  0  0  0  0  0  0  0
  1  4  1  0
  2  1  1  0
  3  2  1  0
  3  1  1  0
  4  9  1  0
  5  4  2  0
  5  6  1  0
  6  7  2  0
  7  8  1  0
  9  8  2  0
 10  2  1  0
 10 13  1  0
 11 10  1  0
 12 10  1  0
  1 14  1  6
  2 15  1  1
  3 16  1  0
  3 17  1  0
  5 18  1  0
  6 19  1  0
 20 21  2  0
 21 22  1  0
 22 23  2  0
 23 24  1  0
 24 25  2  0
 25 26  1  0
 26 27  1  0
 26 28  2  0
 28 29  1  0
 28 30  1  0
 30 31  2  0
 31 20  1  0
 31 24  1  0
 22 32  1  0
 25 33  1  0
 30 34  1  0
  8 20  1  0
M  ISO  8  14  13  15  13  16  13  17  13  18  14  19  14  27  16  29  16
M  END
>  <DihAtoms>  (1) 
6,7,19,20

>  <DihDeg>  (1) 
-179.55773371259275

$$$$
