
     RDKit          3D

 34 37  0  0  0  0  0  0  0  0999 V2000
   44.5651   35.4235   45.1419 C   0  0  0  0  0  0  0  0  0  0  0  0
   45.2503   35.2670   43.9163 C   0  0  0  0  0  0  0  0  0  0  0  0
   46.1968   34.2431   43.7752 C   0  0  0  0  0  0  0  0  0  0  0  0
   46.4100   33.4341   44.8608 N   0  0  0  0  0  0  0  0  0  0  0  0
   45.7418   33.6087   46.0182 C   0  0  0  0  0  0  0  0  0  0  0  0
   44.8352   34.5868   46.1538 N   0  0  0  0  0  0  0  0  0  0  0  0
   46.0148   32.7233   47.1444 C   0  0  0  0  0  0  0  0  0  0  0  0
   47.2599   32.2719   47.4496 C   0  0  0  0  0  0  0  0  0  0  0  0
   47.5645   31.4422   48.4934 C   0  0  0  0  0  0  0  0  0  0  0  0
   46.5209   31.0673   49.2529 N   0  0  0  0  0  0  0  0  0  0  0  0
   45.2894   31.5084   48.9584 C   0  0  0  0  0  0  0  0  0  0  0  0
   44.9717   32.3307   47.9277 N   0  0  0  0  0  0  0  0  0  0  0  0
   44.9489   36.2131   42.8670 C   0  0  0  0  0  0  0  0  0  0  0  0
   44.1375   35.7808   41.9734 O   0  0  0  0  0  0  0  0  0  0  0  0
   43.8302   36.1869   45.3074 H   0  0  0  0  0  0  0  0  0  0  0  0
   46.7181   34.1242   42.8379 H   0  0  0  0  0  0  0  0  0  0  0  0
   48.0834   32.6109   46.7921 H   0  0  0  0  0  0  0  0  0  0  0  0
   48.5748   31.1241   48.6761 H   0  0  0  0  0  0  0  0  0  0  0  0
   44.4356   31.1949   49.5888 H   0  0  0  0  0  0  0  0  0  0  0  0
   45.3113   37.5754   42.5123 C   0  0  0  0  0  0  0  0  0  0  0  0
   44.4487   38.2424   41.7273 N   0  0  0  0  0  0  0  0  0  0  0  0
   44.6945   39.5353   41.3354 C   0  0  0  0  0  0  0  0  0  0  0  0
   45.7954   40.2002   41.7074 N   0  0  0  0  0  0  0  0  0  0  0  0
   46.6975   39.5913   42.4906 C   0  0  0  0  0  0  0  0  0  0  0  0
   47.8521   40.2239   42.8998 C   0  0  0  0  0  0  0  0  0  0  0  0
   48.7953   39.5876   43.7100 C   0  0  0  0  0  0  0  0  0  0  0  0
   49.6700   40.1570   43.9830 H   0  0  0  0  0  0  0  0  0  0  0  0
   48.5064   38.2839   44.0801 C   0  0  0  0  0  0  0  0  0  0  0  0
   49.2688   37.8303   44.7095 H   0  0  0  0  0  0  0  0  0  0  0  0
   47.3466   37.6948   43.6500 C   0  0  0  0  0  0  0  0  0  0  0  0
   46.4196   38.3007   42.8626 C   0  0  0  0  0  0  0  0  0  0  0  0
   43.9151   39.9758   40.6939 H   0  0  0  0  0  0  0  0  0  0  0  0
   47.9917   41.2491   42.5579 H   0  0  0  0  0  0  0  0  0  0  0  0
   47.2174   36.6946   43.9783 H   0  0  0  0  0  0  0  0  0  0  0  0
  1  6  2  0
  2  1  1  0
  3  2  2  0
  3  4  1  0
  4  5  2  0
  5  6  1  0
  5  7  1  0
  7  8  2  0
  7 12  1  0
  8  9  1  0
  9 10  2  0
 11 10  1  0
 12 11  2  0
 13  2  1  0
 14 13  2  0
  1 15  1  0
  3 16  1  0
  8 17  1  0
  9 18  1  0
 11 19  1  0
 20 21  2  0
 21 22  1  0
 22 23  2  0
 23 24  1  0
 24 25  2  0
 25 26  1  0
 26 27  1  0
 26 28  2  0
 28 29  1  0
 28 30  1  0
 30 31  2  0
 31 20  1  0
 31 24  1  0
 22 32  1  0
 25 33  1  0
 30 34  1  0
 13 20  1  0
M  ISO  7  15  14  16  14  17  14  18  14  19  14  27  16  29  16
M  END
>  <DihAtoms>  (1) 
1,12,19,20

>  <DihDeg>  (1) 
-171.52501429478548

$$$$
