
     RDKit          3D

 46 50  0  0  1  0  0  0  0  0999 V2000
   44.9270   34.7240   41.4260 C   0  0  0  0  0  0  0  0  0  0  0  0
   43.7030   35.3000   41.2050 C   0  0  0  0  0  0  0  0  0  0  0  0
   43.1840   34.7330   40.1320 N   0  0  0  0  0  0  0  0  0  0  0  0
   44.0710   33.8220   39.6970 C   0  0  0  0  0  0  0  0  0  0  0  0
   45.1480   33.8100   40.4920 N   0  0  0  0  0  0  0  0  0  0  0  0
   44.0290   32.9020   38.5780 N   0  0  0  0  0  0  0  0  0  0  0  0
   42.0880   34.9370   39.3270 C   0  0  0  0  0  0  0  0  0  0  0  0
   41.6920   35.5410   38.2630 N   0  0  0  0  0  0  0  0  0  0  0  0
   41.3370   36.0980   37.2870 C   0  0  0  0  0  0  0  0  0  0  0  0
   40.1320   35.5130   37.4260 N   0  0  0  0  0  0  0  0  0  0  0  0
   39.8300   34.6780   38.4230 C   0  0  0  0  0  0  0  0  0  0  0  0
   38.5660   34.0080   38.6010 C   0  0  0  0  0  0  0  0  0  0  0  0
   38.3140   33.1350   39.6250 C   0  0  0  0  0  0  0  0  0  0  0  0
   39.2790   32.8370   40.5690 C   0  0  0  0  0  0  0  0  0  0  0  0
   40.4990   33.4580   40.4400 C   0  0  0  0  0  0  0  0  0  0  0  0
   40.8020   34.3690   39.3970 C   0  0  0  0  0  0  0  0  0  0  0  0
   45.8780   35.0720   42.5280 C   0  0  0  0  0  0  0  0  0  0  0  0
   46.9930   35.6700   42.3480 O   0  0  0  0  0  0  0  0  0  0  0  0
   44.7900   35.6090   44.6650 C   0  0  0  0  0  0  0  0  0  0  0  0
   45.5720   34.7420   43.8870 C   0  0  0  0  0  0  0  0  0  0  0  0
   46.0100   33.5780   44.5270 C   0  0  0  0  0  0  0  0  0  0  0  0
   45.6950   33.3240   45.8010 N   0  0  0  0  0  0  0  0  0  0  0  0
   44.9340   34.1910   46.5240 C   0  0  0  0  0  0  0  0  0  0  0  0
   44.4890   35.3340   45.9410 N   0  0  0  0  0  0  0  0  0  0  0  0
   46.8040   32.6690   43.8110 C   0  0  0  0  0  0  0  0  0  0  0  0
   48.1240   32.5680   43.5090 C   0  0  0  0  0  0  0  0  0  0  0  0
   48.6400   31.5940   42.7970 C   0  0  0  0  0  0  0  0  0  0  0  0
   47.7700   30.6480   42.3520 C   0  0  0  0  0  0  0  0  0  0  0  0
   46.1630   31.2260   43.0090 S   0  0  0  0  0  0  0  0  0  0  0  0
   43.2378   36.0910   41.8116 H   0  0  0  0  0  0  0  0  0  0  0  0
   44.8216   32.2681   38.4024 H   0  0  0  0  0  0  0  0  0  0  0  0
   43.2065   32.8821   37.9583 H   0  0  0  0  0  0  0  0  0  0  0  0
   41.7607   35.7587   39.9809 H   0  0  0  0  0  0  0  0  0  0  0  0
   41.3876   34.6419   37.8632 H   0  0  0  0  0  0  0  0  0  0  0  0
   41.8801   35.8074   36.3756 H   0  0  0  0  0  0  0  0  0  0  0  0
   41.4300   37.1899   37.1911 H   0  0  0  0  0  0  0  0  0  0  0  0
   39.4052   35.7207   36.7264 H   0  0  0  0  0  0  0  0  0  0  0  0
   37.7627   34.2085   37.8768 H   0  0  0  0  0  0  0  0  0  0  0  0
   37.3240   32.6612   39.6981 H   0  0  0  0  0  0  0  0  0  0  0  0
   39.0791   32.1322   41.3895 H   0  0  0  0  0  0  0  0  0  0  0  0
   41.2790   33.2368   41.1834 H   0  0  0  0  0  0  0  0  0  0  0  0
   44.4139   36.5396   44.2150 H   0  0  0  0  0  0  0  0  0  0  0  0
   44.6818   33.9677   47.5711 H   0  0  0  0  0  0  0  0  0  0  0  0
   48.8014   33.3495   43.8837 H   0  0  0  0  0  0  0  0  0  0  0  0
   49.7158   31.5453   42.5726 H   0  0  0  0  0  0  0  0  0  0  0  0
   47.9807   29.7546   41.7458 H   0  0  0  0  0  0  0  0  0  0  0  0
  1 17  1  0
  2  1  2  0
  3  2  1  0
  4  3  1  0
  4  5  2  0
  5  1  1  0
  6  4  1  0
  7 16  1  0
  7  3  1  0
  8  7  1  0
  9 10  1  0
  9  8  1  0
 10 11  1  0
 11 12  2  0
 11 16  1  0
 12 13  1  0
 13 14  2  0
 15 14  1  0
 16 15  2  0
 17 20  1  0
 18 17  2  0
 19 24  2  0
 20 21  2  0
 20 19  1  0
 21 22  1  0
 22 23  2  0
 24 23  1  0
 25 21  1  0
 26 25  2  0
 27 26  1  0
 28 27  2  0
 28 29  1  0
 29 25  1  0
  2 30  1  0
  6 31  1  0
  6 32  1  0
  7 33  1  0
  8 34  1  0
  9 35  1  0
  9 36  1  0
 10 37  1  0
 12 38  1  0
 13 39  1  0
 14 40  1  0
 15 41  1  0
 19 42  1  0
 23 43  1  0
 26 44  1  0
 27 45  1  0
 28 46  1  0
M  ISO  8  30  14  33  13  34   5  35  13  36  13  38  14  39  14  40  14
M  ISO  6  41  14  42  14  43  14  44  14  45  14  46  14
M  END
>  <minimizedAffinity>  (1) 
-7.09169054

>  <minimizedRMSD>  (1) 
1.91387451

$$$$
