
     RDKit          3D

 48 52  0  0  1  0  0  0  0  0999 V2000
   42.6020   33.2470   41.1430 C   0  0  0  0  0  0  0  0  0  0  0  0
   43.2080   34.4290   41.4540 C   0  0  0  0  0  0  0  0  0  0  0  0
   42.4380   35.6100   41.3930 C   0  0  0  0  0  0  0  0  0  0  0  0
   41.1070   35.6150   41.0340 C   0  0  0  0  0  0  0  0  0  0  0  0
   40.5080   34.4260   40.7240 C   0  0  0  0  0  0  0  0  0  0  0  0
   41.2490   33.2850   40.7810 C   0  0  0  0  0  0  0  0  0  0  0  0
   43.4100   31.7670   41.2210 S   0  0  0  0  0  0  0  0  0  0  0  0
   42.5710   30.8730   40.3140 O   0  0  0  0  0  0  0  0  0  0  0  0
   43.2960   31.2410   42.6340 O   0  0  0  0  0  0  0  0  0  0  0  0
   44.7910   31.2160   40.4980 C   0  0  0  0  0  0  0  0  0  0  0  0
   45.7380   30.3970   41.0080 N   0  0  0  0  0  0  0  0  0  0  0  0
   46.9140   30.0440   40.5690 C   0  0  0  0  0  0  0  0  0  0  0  0
   47.2520   30.5850   39.4080 N   0  0  0  0  0  0  0  0  0  0  0  0
   46.4440   31.4200   38.7520 C   0  0  0  0  0  0  0  0  0  0  0  0
   46.9920   31.8850   37.5550 C   0  0  0  0  0  0  0  0  0  0  0  0
   46.2180   32.7590   36.8190 C   0  0  0  0  0  0  0  0  0  0  0  0
   44.9730   33.1230   37.2840 C   0  0  0  0  0  0  0  0  0  0  0  0
   44.5290   32.6070   38.4770 C   0  0  0  0  0  0  0  0  0  0  0  0
   45.2210   31.7360   39.2840 C   0  0  0  0  0  0  0  0  0  0  0  0
   44.6050   34.5290   41.8270 C   0  0  0  0  0  0  0  0  0  0  0  0
   45.5640   34.6410   40.9860 O   0  0  0  0  0  0  0  0  0  0  0  0
   44.8170   34.4920   43.2450 C   0  0  0  0  0  0  0  0  0  0  0  0
   44.3880   35.6540   43.9520 C   0  0  0  0  0  0  0  0  0  0  0  0
   44.5780   35.6420   45.3330 C   0  0  0  0  0  0  0  0  0  0  0  0
   45.1450   34.5460   45.9040 N   0  0  0  0  0  0  0  0  0  0  0  0
   45.5310   33.4760   45.1720 C   0  0  0  0  0  0  0  0  0  0  0  0
   45.3670   33.4640   43.8910 N   0  0  0  0  0  0  0  0  0  0  0  0
   46.1340   32.3160   45.8790 C   0  0  1  0  0  0  0  0  0  0  0  0
   47.0390   32.5770   47.0660 C   0  0  0  0  0  0  0  0  0  0  0  0
   45.6430   32.0800   47.2430 C   0  0  1  0  0  0  0  0  0  0  0  0
   44.7950   33.0790   47.8870 N   0  0  0  0  0  0  0  0  0  0  0  0
   42.9201   36.5668   41.6424 H   0  0  0  0  0  0  0  0  0  0  0  0
   40.5388   36.5562   40.9978 H   0  0  0  0  0  0  0  0  0  0  0  0
   39.4475   34.3916   40.4340 H   0  0  0  0  0  0  0  0  0  0  0  0
   40.7553   32.3353   40.5274 H   0  0  0  0  0  0  0  0  0  0  0  0
   47.5715   29.3536   41.1177 H   0  0  0  0  0  0  0  0  0  0  0  0
   47.9901   31.5707   37.2158 H   0  0  0  0  0  0  0  0  0  0  0  0
   46.5927   33.1626   35.8668 H   0  0  0  0  0  0  0  0  0  0  0  0
   44.3435   33.8171   36.7078 H   0  0  0  0  0  0  0  0  0  0  0  0
   43.5303   32.9188   38.8168 H   0  0  0  0  0  0  0  0  0  0  0  0
   43.9324   36.5121   43.4362 H   0  0  0  0  0  0  0  0  0  0  0  0
   44.2753   36.5020   45.9484 H   0  0  0  0  0  0  0  0  0  0  0  0
   46.2404   31.7254   44.9571 H   0  0  0  0  0  0  0  0  0  0  0  0
   47.8932   31.9140   47.2681 H   0  0  0  0  0  0  0  0  0  0  0  0
   47.6227   33.4323   47.4373 H   0  0  0  0  0  0  0  0  0  0  0  0
   45.1355   31.2123   47.6896 H   0  0  0  0  0  0  0  0  0  0  0  0
   44.8728   32.9874   48.9100 H   0  0  0  0  0  0  0  0  0  0  0  0
   45.0982   34.0214   47.6027 H   0  0  0  0  0  0  0  0  0  0  0  0
  1  7  1  0
  1  2  1  0
  2 20  1  0
  3  2  2  0
  4  3  1  0
  5  6  1  0
  5  4  2  0
  6  1  2  0
  7  9  2  0
  8  7  2  0
 10 11  2  0
 10  7  1  0
 12 11  1  0
 13 12  2  0
 14 19  2  0
 14 13  1  0
 15 14  1  0
 16 17  1  0
 16 15  2  0
 17 18  2  0
 18 19  1  0
 19 10  1  0
 20 22  1  0
 21 20  2  0
 22 27  1  0
 22 23  2  0
 23 24  1  0
 24 25  2  0
 26 28  1  0
 26 25  1  0
 27 26  2  0
 28 29  1  0
 28 30  1  0
 29 30  1  0
 30 31  1  0
  3 32  1  0
  4 33  1  0
  5 34  1  0
  6 35  1  0
 12 36  1  0
 15 37  1  0
 16 38  1  0
 17 39  1  0
 18 40  1  0
 23 41  1  0
 24 42  1  0
 28 43  1  6
 29 44  1  0
 29 45  1  0
 30 46  1  6
 31 47  1  0
 31 48  1  0
M  ISO  8  32  14  33  14  34  14  35  14  36  14  37  14  38  14  39  14
M  ISO  8  40  14  41  14  42  14  43  13  44  13  45  13  46  13  47   5
M  ISO  1  48   5
M  END
>  <minimizedAffinity>  (1) 
-6.20367384

>  <minimizedRMSD>  (1) 
1.39259982

$$$$
