
     RDKit          3D

 51 54  0  0  0  0  0  0  0  0999 V2000
   47.5315   34.4449   40.7731 C   0  0  0  0  0  0  0  0  0  0  0  0
   48.7812   33.7639   41.1293 C   0  0  0  0  0  0  0  0  0  0  0  0
   49.1082   32.6242   40.4161 C   0  0  0  0  0  0  0  0  0  0  0  0
   50.2596   31.9216   40.6812 C   0  0  0  0  0  0  0  0  0  0  0  0
   51.0690   32.4076   41.6893 N   0  0  0  0  0  0  0  0  0  0  0  0
   50.7126   33.5336   42.3691 C   0  0  0  0  0  0  0  0  0  0  0  0
   49.5904   34.1851   42.0829 N   0  0  0  0  0  0  0  0  0  0  0  0
   48.0140   32.0496   39.1224 S   0  0  0  0  0  0  0  0  0  0  0  0
   48.8404   32.1788   37.5056 C   0  0  0  0  0  0  0  0  0  0  0  0
   48.4889   33.5184   36.8958 C   0  0  0  0  0  0  0  0  0  0  0  0
   48.1832   33.2826   35.5080 N   0  0  0  0  0  0  0  0  0  0  0  0
   46.7512   34.9579   41.9515 C   0  0  0  0  0  0  0  0  0  0  0  0
   45.2800   34.9429   41.7484 C   0  0  0  0  0  0  0  0  0  0  0  0
   44.4445   35.6186   42.6844 C   0  0  0  0  0  0  0  0  0  0  0  0
   42.7620   35.3206   42.0204 S   0  0  0  0  0  0  0  0  0  0  0  0
   43.4812   34.3174   40.5668 C   0  0  0  0  0  0  0  0  0  0  0  0
   44.5986   34.3758   40.7934 N   0  0  0  0  0  0  0  0  0  0  0  0
   42.7011   33.7358   39.5775 O   0  0  0  0  0  0  0  0  0  0  0  0
   40.7498   33.9828   37.7960 O   0  0  0  0  0  0  0  0  0  0  0  0
   41.7750   34.7739   38.6002 P   0  0  1  0  0  0  0  0  0  0  0  0
   40.9313   35.8287   39.6364 O   0  0  0  0  0  0  0  0  0  0  0  0
   42.7802   35.6862   37.6053 O   0  0  0  0  0  0  0  0  0  0  0  0
   47.8013   35.3433   40.1574 H   0  0  0  0  0  0  0  0  0  0  0  0
   46.8724   33.8431   40.1400 H   0  0  0  0  0  0  0  0  0  0  0  0
   50.5662   31.0412   40.1703 H   0  0  0  0  0  0  0  0  0  0  0  0
   51.3820   33.8761   43.1530 H   0  0  0  0  0  0  0  0  0  0  0  0
   49.9204   32.0300   37.5777 H   0  0  0  0  0  0  0  0  0  0  0  0
   48.4469   31.3359   36.8707 H   0  0  0  0  0  0  0  0  0  0  0  0
   47.6563   33.9690   37.4366 H   0  0  0  0  0  0  0  0  0  0  0  0
   49.3919   34.1607   36.9471 H   0  0  0  0  0  0  0  0  0  0  0  0
   48.1413   34.1624   34.9568 H   0  0  0  0  0  0  0  0  0  0  0  0
   48.8212   32.5910   35.0753 H   0  0  0  0  0  0  0  0  0  0  0  0
   46.9473   34.3041   42.8314 H   0  0  0  0  0  0  0  0  0  0  0  0
   47.0506   35.9852   42.2457 H   0  0  0  0  0  0  0  0  0  0  0  0
   44.7345   36.1703   43.5677 H   0  0  0  0  0  0  0  0  0  0  0  0
   41.3388   36.7282   39.6212 H   0  0  0  0  0  0  0  0  0  0  0  0
   43.5241   35.0307   36.6312 C   0  0  0  0  0  0  0  0  0  0  0  0
   43.3011   33.7544   36.2151 N   0  0  0  0  0  0  0  0  0  0  0  0
   44.0724   33.1910   35.2610 C   0  0  0  0  0  0  0  0  0  0  0  0
   45.1071   33.8257   34.6497 N   0  0  0  0  0  0  0  0  0  0  0  0
   45.3447   35.1013   35.0528 C   0  0  0  0  0  0  0  0  0  0  0  0
   46.3941   35.8051   34.4617 C   0  0  0  0  0  0  0  0  0  0  0  0
   46.6945   37.1199   34.8278 C   0  0  0  0  0  0  0  0  0  0  0  0
   47.4944   37.6888   34.3930 H   0  0  0  0  0  0  0  0  0  0  0  0
   45.8967   37.6869   35.8071 C   0  0  0  0  0  0  0  0  0  0  0  0
   46.0760   38.7076   36.1391 H   0  0  0  0  0  0  0  0  0  0  0  0
   44.8604   36.9900   36.3899 C   0  0  0  0  0  0  0  0  0  0  0  0
   44.5702   35.6997   36.0264 C   0  0  0  0  0  0  0  0  0  0  0  0
   43.7494   32.1637   35.0530 H   0  0  0  0  0  0  0  0  0  0  0  0
   47.0166   35.3860   33.7088 H   0  0  0  0  0  0  0  0  0  0  0  0
   44.2668   37.5022   37.1619 H   0  0  0  0  0  0  0  0  0  0  0  0
  1  2  1  0
  1 12  1  0
  2  7  2  0
  3  4  2  0
  3  2  1  0
  4  5  1  0
  5  6  2  0
  7  6  1  0
  8  3  1  0
  9  8  1  0
 10  9  1  0
 11 10  1  0
 13 12  1  0
 13 14  2  0
 15 14  1  0
 16 17  2  0
 16 15  1  0
 17 13  1  0
 18 16  1  0
 19 20  2  0
 20 18  1  1
 20 21  1  0
 22 20  1  0
  1 23  1  0
  1 24  1  0
  4 25  1  0
  6 26  1  0
  9 27  1  0
  9 28  1  0
 10 29  1  0
 10 30  1  0
 11 31  1  0
 11 32  1  0
 12 33  1  0
 12 34  1  0
 14 35  1  0
 21 36  1  0
 37 38  2  0
 38 39  1  0
 39 40  2  0
 40 41  1  0
 41 42  2  0
 42 43  1  0
 43 44  1  0
 43 45  2  0
 45 46  1  0
 45 47  1  0
 47 48  2  0
 48 37  1  0
 48 41  1  0
 39 49  1  0
 42 50  1  0
 47 51  1  0
 22 37  1  0
M  ISO  8  23   8  24   8  25  14  26  14  27   8  28   8  29   8  30   8
M  ISO  8  31   5  32   5  33   8  34   8  35  14  36   3  44  16  46  16
M  END
>  <DihAtoms>  (1) 
19,21,36,37

>  <DihDeg>  (1) 
-0.00012600617644198454

$$$$
