
     RDKit          3D

 51 54  0  0  0  0  0  0  0  0999 V2000
   47.5315   34.4449   40.7731 C   0  0  0  0  0  0  0  0  0  0  0  0
   48.7812   33.7639   41.1293 C   0  0  0  0  0  0  0  0  0  0  0  0
   49.1082   32.6242   40.4161 C   0  0  0  0  0  0  0  0  0  0  0  0
   50.2596   31.9216   40.6812 C   0  0  0  0  0  0  0  0  0  0  0  0
   51.0690   32.4076   41.6893 N   0  0  0  0  0  0  0  0  0  0  0  0
   50.7126   33.5336   42.3691 C   0  0  0  0  0  0  0  0  0  0  0  0
   49.5904   34.1851   42.0829 N   0  0  0  0  0  0  0  0  0  0  0  0
   48.0140   32.0496   39.1224 S   0  0  0  0  0  0  0  0  0  0  0  0
   48.8404   32.1788   37.5056 C   0  0  0  0  0  0  0  0  0  0  0  0
   48.4889   33.5184   36.8958 C   0  0  0  0  0  0  0  0  0  0  0  0
   48.1832   33.2826   35.5080 N   0  0  0  0  0  0  0  0  0  0  0  0
   46.7512   34.9579   41.9515 C   0  0  0  0  0  0  0  0  0  0  0  0
   45.2800   34.9429   41.7484 C   0  0  0  0  0  0  0  0  0  0  0  0
   44.4445   35.6186   42.6844 C   0  0  0  0  0  0  0  0  0  0  0  0
   42.7620   35.3206   42.0204 S   0  0  0  0  0  0  0  0  0  0  0  0
   43.4812   34.3174   40.5668 C   0  0  0  0  0  0  0  0  0  0  0  0
   44.5986   34.3758   40.7934 N   0  0  0  0  0  0  0  0  0  0  0  0
   42.7011   33.7358   39.5775 O   0  0  0  0  0  0  0  0  0  0  0  0
   40.7498   33.9828   37.7960 O   0  0  0  0  0  0  0  0  0  0  0  0
   41.7750   34.7739   38.6002 P   0  0  1  0  0  0  0  0  0  0  0  0
   40.9313   35.8287   39.6364 O   0  0  0  0  0  0  0  0  0  0  0  0
   42.7802   35.6862   37.6053 O   0  0  0  0  0  0  0  0  0  0  0  0
   47.8013   35.3433   40.1574 H   0  0  0  0  0  0  0  0  0  0  0  0
   46.8724   33.8431   40.1400 H   0  0  0  0  0  0  0  0  0  0  0  0
   50.5662   31.0412   40.1703 H   0  0  0  0  0  0  0  0  0  0  0  0
   51.3820   33.8761   43.1530 H   0  0  0  0  0  0  0  0  0  0  0  0
   49.9204   32.0300   37.5777 H   0  0  0  0  0  0  0  0  0  0  0  0
   48.4469   31.3359   36.8707 H   0  0  0  0  0  0  0  0  0  0  0  0
   47.6563   33.9690   37.4366 H   0  0  0  0  0  0  0  0  0  0  0  0
   49.3919   34.1607   36.9471 H   0  0  0  0  0  0  0  0  0  0  0  0
   48.1413   34.1624   34.9568 H   0  0  0  0  0  0  0  0  0  0  0  0
   48.8212   32.5910   35.0753 H   0  0  0  0  0  0  0  0  0  0  0  0
   46.9473   34.3041   42.8314 H   0  0  0  0  0  0  0  0  0  0  0  0
   47.0506   35.9852   42.2457 H   0  0  0  0  0  0  0  0  0  0  0  0
   44.7345   36.1703   43.5677 H   0  0  0  0  0  0  0  0  0  0  0  0
   41.3388   36.7282   39.6212 H   0  0  0  0  0  0  0  0  0  0  0  0
   43.5241   35.0307   36.6312 C   0  0  0  0  0  0  0  0  0  0  0  0
   43.9815   33.7534   36.7355 N   0  0  0  0  0  0  0  0  0  0  0  0
   44.6991   33.1899   35.7403 C   0  0  0  0  0  0  0  0  0  0  0  0
   45.0194   33.8258   34.5826 N   0  0  0  0  0  0  0  0  0  0  0  0
   44.5710   35.1027   34.4610 C   0  0  0  0  0  0  0  0  0  0  0  0
   44.8681   35.8077   33.2946 C   0  0  0  0  0  0  0  0  0  0  0  0
   44.4389   37.1238   33.1026 C   0  0  0  0  0  0  0  0  0  0  0  0
   44.6503   37.6937   32.2178 H   0  0  0  0  0  0  0  0  0  0  0  0
   43.7038   37.6906   34.1300 C   0  0  0  0  0  0  0  0  0  0  0  0
   43.3387   38.7122   34.0455 H   0  0  0  0  0  0  0  0  0  0  0  0
   43.4113   36.9925   35.2816 C   0  0  0  0  0  0  0  0  0  0  0  0
   43.8353   35.7010   35.4643 C   0  0  0  0  0  0  0  0  0  0  0  0
   44.9821   32.1616   35.9958 H   0  0  0  0  0  0  0  0  0  0  0  0
   45.4308   35.3887   32.4960 H   0  0  0  0  0  0  0  0  0  0  0  0
   42.8227   37.5047   36.0575 H   0  0  0  0  0  0  0  0  0  0  0  0
  1  2  1  0
  1 12  1  0
  2  7  2  0
  3  4  2  0
  3  2  1  0
  4  5  1  0
  5  6  2  0
  7  6  1  0
  8  3  1  0
  9  8  1  0
 10  9  1  0
 11 10  1  0
 13 12  1  0
 13 14  2  0
 15 14  1  0
 16 17  2  0
 16 15  1  0
 17 13  1  0
 18 16  1  0
 19 20  2  0
 20 18  1  1
 20 21  1  0
 22 20  1  0
  1 23  1  0
  1 24  1  0
  4 25  1  0
  6 26  1  0
  9 27  1  0
  9 28  1  0
 10 29  1  0
 10 30  1  0
 11 31  1  0
 11 32  1  0
 12 33  1  0
 12 34  1  0
 14 35  1  0
 21 36  1  0
 37 38  2  0
 38 39  1  0
 39 40  2  0
 40 41  1  0
 41 42  2  0
 42 43  1  0
 43 44  1  0
 43 45  2  0
 45 46  1  0
 45 47  1  0
 47 48  2  0
 48 37  1  0
 48 41  1  0
 39 49  1  0
 42 50  1  0
 47 51  1  0
 22 37  1  0
M  ISO  8  23   8  24   8  25  14  26  14  27   8  28   8  29   8  30   8
M  ISO  8  31   5  32   5  33   8  34   8  35  14  36   3  44  16  46  16
M  END
>  <DihAtoms>  (1) 
19,21,36,37

>  <DihDeg>  (1) 
-0.00012600617644198454

$$$$
