
     RDKit          3D

 32 35  0  0  0  0  0  0  0  0999 V2000
   45.3125   33.2457   47.3843 C   0  0  0  0  0  0  0  0  0  0  0  0
   45.8273   33.3227   46.0750 C   0  0  0  0  0  0  0  0  0  0  0  0
   46.9055   32.4910   45.7510 C   0  0  0  0  0  0  0  0  0  0  0  0
   47.3847   31.6676   46.7123 N   0  0  0  0  0  0  0  0  0  0  0  0
   46.8762   31.6146   47.9495 C   0  0  0  0  0  0  0  0  0  0  0  0
   45.8351   32.4006   48.3038 N   0  0  0  0  0  0  0  0  0  0  0  0
   45.2171   34.2554   45.1329 C   0  0  0  0  0  0  0  0  0  0  0  0
   45.2128   34.0346   43.7774 C   0  0  0  0  0  0  0  0  0  0  0  0
   44.5552   35.1234   43.2581 C   0  0  0  0  0  0  0  0  0  0  0  0
   44.1796   35.9621   44.2471 N   0  0  0  0  0  0  0  0  0  0  0  0
   44.5907   35.4186   45.3868 N   0  0  0  0  0  0  0  0  0  0  0  0
   44.2523   34.0577   47.7169 O   0  0  0  0  0  0  0  0  0  0  0  0
   47.3003   32.5459   44.7571 H   0  0  0  0  0  0  0  0  0  0  0  0
   47.2844   30.9445   48.6920 H   0  0  0  0  0  0  0  0  0  0  0  0
   45.6352   33.1896   43.2469 H   0  0  0  0  0  0  0  0  0  0  0  0
   44.3848   35.2464   42.1789 H   0  0  0  0  0  0  0  0  0  0  0  0
   43.6572   36.8723   44.1037 H   0  0  0  0  0  0  0  0  0  0  0  0
   43.7051   34.0274   48.9832 C   0  0  0  0  0  0  0  0  0  0  0  0
   43.1427   35.1647   49.4810 N   0  0  0  0  0  0  0  0  0  0  0  0
   42.5942   35.1665   50.7281 C   0  0  0  0  0  0  0  0  0  0  0  0
   42.5902   34.0623   51.4968 N   0  0  0  0  0  0  0  0  0  0  0  0
   43.1519   32.9323   50.9956 C   0  0  0  0  0  0  0  0  0  0  0  0
   43.1508   31.7923   51.7823 C   0  0  0  0  0  0  0  0  0  0  0  0
   43.7164   30.6209   51.3010 C   0  0  0  0  0  0  0  0  0  0  0  0
   43.7551   29.6940   51.8506 H   0  0  0  0  0  0  0  0  0  0  0  0
   44.2958   30.5492   50.0316 C   0  0  0  0  0  0  0  0  0  0  0  0
   44.7385   29.6335   49.6540 H   0  0  0  0  0  0  0  0  0  0  0  0
   44.2902   31.6926   49.2577 C   0  0  0  0  0  0  0  0  0  0  0  0
   43.7317   32.8621   49.7242 C   0  0  0  0  0  0  0  0  0  0  0  0
   42.1487   36.0812   51.1130 H   0  0  0  0  0  0  0  0  0  0  0  0
   42.7150   31.7684   52.7909 H   0  0  0  0  0  0  0  0  0  0  0  0
   44.7269   31.7123   48.2501 H   0  0  0  0  0  0  0  0  0  0  0  0
  1 12  1  0
  1  6  2  0
  2  1  1  0
  3  2  2  0
  3  4  1  0
  4  5  2  0
  5  6  1  0
  7 11  2  0
  7  2  1  0
  8  7  1  0
  9  8  2  0
  9 10  1  0
 10 11  1  0
  3 13  1  0
  5 14  1  0
  8 15  1  0
  9 16  1  0
 10 17  1  0
 18 19  2  0
 19 20  1  0
 20 21  2  0
 21 22  1  0
 22 23  2  0
 23 24  1  0
 24 25  1  0
 24 26  2  0
 26 27  1  0
 26 28  1  0
 28 29  2  0
 29 18  1  0
 29 22  1  0
 20 30  1  0
 23 31  1  0
 28 32  1  0
 12 18  1  0
M  ISO  7  13  14  14  14  15  14  16  14  17   9  25  16  27  16
M  END
>  <DihAtoms>  (1) 
0,11,17,18

>  <DihDeg>  (1) 
0.0027604738117291945

$$$$
