
     RDKit          3D

 35 38  0  0  0  0  0  0  0  0999 V2000
   46.2796   34.7520   43.2386 C   0  0  0  0  0  0  0  0  0  0  0  0
   45.3061   35.7503   43.5950 C   0  0  0  0  0  0  0  0  0  0  0  0
   44.6597   35.5763   44.8167 C   0  0  0  0  0  0  0  0  0  0  0  0
   44.9778   34.5034   45.5798 N   0  0  0  0  0  0  0  0  0  0  0  0
   45.9182   33.5847   45.1824 C   0  0  0  0  0  0  0  0  0  0  0  0
   46.5759   33.6816   44.0342 N   0  0  0  0  0  0  0  0  0  0  0  0
   46.2156   32.4319   46.0808 C   0  0  1  0  0  0  0  0  0  0  0  0
   47.0342   32.6787   47.3274 C   0  0  0  0  0  0  0  0  0  0  0  0
   45.5443   32.4886   47.3947 C   0  0  1  0  0  0  0  0  0  0  0  0
   44.8437   33.7149   47.7935 N   0  0  0  0  0  0  0  0  0  0  0  0
   46.9168   34.9262   41.9601 C   0  0  0  0  0  0  0  0  0  0  0  0
   48.0632   35.5315   41.8648 O   0  0  0  0  0  0  0  0  0  0  0  0
   45.1273   36.5553   42.9288 H   0  0  0  0  0  0  0  0  0  0  0  0
   43.9275   36.3037   45.1118 H   0  0  0  0  0  0  0  0  0  0  0  0
   46.3404   31.4479   45.5894 H   0  0  0  0  0  0  0  0  0  0  0  0
   47.7009   31.8444   47.6254 H   0  0  0  0  0  0  0  0  0  0  0  0
   47.4765   33.7037   47.3544 H   0  0  0  0  0  0  0  0  0  0  0  0
   45.2423   31.5446   47.9121 H   0  0  0  0  0  0  0  0  0  0  0  0
   45.4905   34.3955   48.2652 H   0  0  0  0  0  0  0  0  0  0  0  0
   44.1418   33.4497   48.5334 H   0  0  0  0  0  0  0  0  0  0  0  0
   46.6109   34.5796   40.5753 C   0  0  0  0  0  0  0  0  0  0  0  0
   46.5662   33.2813   40.2404 N   0  0  0  0  0  0  0  0  0  0  0  0
   46.2890   32.8543   38.9689 C   0  0  0  0  0  0  0  0  0  0  0  0
   46.0465   33.7197   37.9885 N   0  0  0  0  0  0  0  0  0  0  0  0
   46.0650   35.0636   38.2143 C   0  0  0  0  0  0  0  0  0  0  0  0
   45.8156   35.9912   37.2299 C   0  0  0  0  0  0  0  0  0  0  0  0
   45.8363   37.3452   37.4890 C   0  0  0  0  0  0  0  0  0  0  0  0
   45.6274   37.9671   36.6446 H   0  0  0  0  0  0  0  0  0  0  0  0
   46.1231   37.7250   38.8013 C   0  0  0  0  0  0  0  0  0  0  0  0
   46.1321   38.7875   38.9740 H   0  0  0  0  0  0  0  0  0  0  0  0
   46.3631   36.7578   39.7389 C   0  0  0  0  0  0  0  0  0  0  0  0
   46.3501   35.4079   39.5119 C   0  0  0  0  0  0  0  0  0  0  0  0
   46.2852   31.7653   38.8363 H   0  0  0  0  0  0  0  0  0  0  0  0
   45.6022   35.6009   36.2406 H   0  0  0  0  0  0  0  0  0  0  0  0
   46.5642   37.1537   40.7000 H   0  0  0  0  0  0  0  0  0  0  0  0
  1  2  2  0
  1  6  1  0
  2  3  1  0
  3  4  2  0
  5  4  1  0
  5  7  1  0
  6  5  2  0
  7  8  1  0
  7  9  1  0
  8  9  1  0
  9 10  1  0
 11  1  1  0
 12 11  2  0
  2 13  1  0
  3 14  1  0
  7 15  1  6
  8 16  1  0
  8 17  1  0
  9 18  1  1
 10 19  1  0
 10 20  1  0
 21 22  2  0
 22 23  1  0
 23 24  2  0
 24 25  1  0
 25 26  2  0
 26 27  1  0
 27 28  1  0
 27 29  2  0
 29 30  1  0
 29 31  1  0
 31 32  2  0
 32 21  1  0
 32 25  1  0
 23 33  1  0
 26 34  1  0
 31 35  1  0
 11 21  1  0
M  ISO  8  13  14  14  14  15  13  16  13  17  13  18  13  19   5  20   5
M  ISO  2  28  16  30  16
M  END
>  <DihAtoms>  (1) 
0,10,20,21

>  <DihDeg>  (1) 
174.35682737724758

$$$$
