
     RDKit          3D

 49 53  0  0  0  0  0  0  0  0999 V2000
   38.5460   31.7810   41.1620 C   0  0  0  0  0  0  0  0  0  0  0  0
   39.8980   31.7220   40.8150 C   0  0  0  0  0  0  0  0  0  0  0  0
   40.3670   30.5470   40.2790 C   0  0  0  0  0  0  0  0  0  0  0  0
   39.5060   29.5110   40.1130 N   0  0  0  0  0  0  0  0  0  0  0  0
   38.1960   29.6030   40.4610 C   0  0  0  0  0  0  0  0  0  0  0  0
   37.6950   30.7160   40.9830 N   0  0  0  0  0  0  0  0  0  0  0  0
   37.3420   28.4180   40.2420 C   0  0  0  0  0  0  0  0  0  0  0  0
   35.8810   28.8350   40.0300 C   0  0  0  0  0  0  0  0  0  0  0  0
   35.3250   27.8800   39.0340 C   0  0  0  0  0  0  0  0  0  0  0  0
   36.0480   27.0090   38.3090 N   0  0  0  0  0  0  0  0  0  0  0  0
   35.4980   26.1650   37.4190 C   0  0  0  0  0  0  0  0  0  0  0  0
   34.1730   26.1430   37.2010 N   0  0  0  0  0  0  0  0  0  0  0  0
   33.3760   26.9900   37.8920 C   0  0  0  0  0  0  0  0  0  0  0  0
   32.0240   26.9310   37.6340 C   0  0  0  0  0  0  0  0  0  0  0  0
   31.1800   27.7740   38.3150 C   0  0  0  0  0  0  0  0  0  0  0  0
   31.7240   28.6400   39.2240 C   0  0  0  0  0  0  0  0  0  0  0  0
   33.0810   28.7110   39.4930 C   0  0  0  0  0  0  0  0  0  0  0  0
   33.9450   27.8590   38.8080 C   0  0  0  0  0  0  0  0  0  0  0  0
   40.9660   33.1070   41.0570 S   0  0  0  0  0  0  0  0  0  0  0  0
   40.9570   34.1540   39.6300 C   0  0  0  0  0  0  0  0  0  0  0  0
   39.8860   34.2340   38.7500 C   0  0  0  0  0  0  0  0  0  0  0  0
   39.9580   35.0810   37.6540 C   0  0  0  0  0  0  0  0  0  0  0  0
   41.0640   35.8440   37.4150 C   0  0  0  0  0  0  0  0  0  0  0  0
   42.1240   35.7590   38.2960 C   0  0  0  0  0  0  0  0  0  0  0  0
   42.0840   34.9240   39.3970 C   0  0  0  0  0  0  0  0  0  0  0  0
   43.2100   34.8480   40.3140 C   0  0  0  0  0  0  0  0  0  0  0  0
   44.2720   34.0100   40.1670 C   0  0  0  0  0  0  0  0  0  0  0  0
   45.3430   33.9530   41.0600 C   0  0  0  0  0  0  0  0  0  0  0  0
   45.3250   34.7690   42.1250 N   0  0  0  0  0  0  0  0  0  0  0  0
   44.2740   35.6040   42.2790 C   0  0  0  0  0  0  0  0  0  0  0  0
   43.2440   35.6470   41.4050 N   0  0  0  0  0  0  0  0  0  0  0  0
   38.1486   32.7116   41.5933 H   0  0  0  0  0  0  0  0  0  0  0  0
   41.4234   30.4475   39.9890 H   0  0  0  0  0  0  0  0  0  0  0  0
   37.6960   27.8771   39.3520 H   0  0  0  0  0  0  0  0  0  0  0  0
   37.4001   27.7709   41.1297 H   0  0  0  0  0  0  0  0  0  0  0  0
   35.3232   28.7694   40.9758 H   0  0  0  0  0  0  0  0  0  0  0  0
   35.8045   29.8747   39.6791 H   0  0  0  0  0  0  0  0  0  0  0  0
   36.1473   25.4775   36.8571 H   0  0  0  0  0  0  0  0  0  0  0  0
   31.6267   26.2202   36.8945 H   0  0  0  0  0  0  0  0  0  0  0  0
   30.0951   27.7534   38.1343 H   0  0  0  0  0  0  0  0  0  0  0  0
   31.0484   29.3151   39.7697 H   0  0  0  0  0  0  0  0  0  0  0  0
   33.4691   29.4262   40.2332 H   0  0  0  0  0  0  0  0  0  0  0  0
   38.9840   33.6281   38.9213 H   0  0  0  0  0  0  0  0  0  0  0  0
   39.1048   35.1390   36.9621 H   0  0  0  0  0  0  0  0  0  0  0  0
   41.1100   36.5108   36.5414 H   0  0  0  0  0  0  0  0  0  0  0  0
   43.0211   36.3700   38.1175 H   0  0  0  0  0  0  0  0  0  0  0  0
   44.2872   33.3396   39.2950 H   0  0  0  0  0  0  0  0  0  0  0  0
   46.1794   33.2578   40.8952 H   0  0  0  0  0  0  0  0  0  0  0  0
   44.2559   36.2754   43.1502 H   0  0  0  0  0  0  0  0  0  0  0  0
  2 19  1  0
  2  1  2  0
  3  2  1  0
  4  3  2  0
  4  5  1  0
  5  6  2  0
  6  1  1  0
  7  5  1  0
  8  7  1  0
  9  8  1  0
 10  9  2  0
 11 10  1  0
 12 11  2  0
 12 13  1  0
 13 18  2  0
 14 13  1  0
 14 15  2  0
 15 16  1  0
 16 17  2  0
 18  9  1  0
 18 17  1  0
 20 19  1  0
 21 20  2  0
 22 21  1  0
 23 22  2  0
 23 24  1  0
 24 25  2  0
 25 20  1  0
 25 26  1  0
 26 31  1  0
 27 26  2  0
 27 28  1  0
 28 29  2  0
 29 30  1  0
 31 30  2  0
  1 32  1  0
  3 33  1  0
  7 34  1  0
  7 35  1  0
  8 36  1  0
  8 37  1  0
 11 38  1  0
 14 39  1  0
 15 40  1  0
 16 41  1  0
 17 42  1  0
 21 43  1  0
 22 44  1  0
 23 45  1  0
 24 46  1  0
 27 47  1  0
 28 48  1  0
 30 49  1  0
M  ISO  8  32  14  33  14  34   8  35   8  36   8  37   8  38  14  39  14
M  ISO  8  40  14  41  14  42  14  43  14  44  14  45  14  46  14  47  14
M  ISO  2  48  14  49  14
M  END
>  <minimizedAffinity>  (1) 
-5.90304327

>  <minimizedRMSD>  (1) 
2.38392186

$$$$
