
     RDKit          3D

 31 33  0  0  0  0  0  0  0  0999 V2000
   45.4354   35.1921   43.0969 C   0  0  0  0  0  0  0  0  0  0  0  0
   46.4599   35.5686   42.2004 C   0  0  0  0  0  0  0  0  0  0  0  0
   47.6813   34.8874   42.3817 C   0  0  0  0  0  0  0  0  0  0  0  0
   47.7680   33.9608   43.3665 N   0  0  0  0  0  0  0  0  0  0  0  0
   46.7388   33.6497   44.1936 C   0  0  0  0  0  0  0  0  0  0  0  0
   45.5635   34.2730   44.0547 N   0  0  0  0  0  0  0  0  0  0  0  0
   43.3936   35.3500   41.8825 C   0  0  0  0  0  0  0  0  0  0  0  0
   43.9509   34.4775   41.1724 O   0  0  0  0  0  0  0  0  0  0  0  0
   44.1507   35.8115   42.9837 N   0  0  0  0  0  0  0  0  0  0  0  0
   48.7415   35.2766   41.4524 C   0  0  0  0  0  0  0  0  0  0  0  0
   49.8478   34.4359   41.6601 F   0  0  0  0  0  0  0  0  0  0  0  0
   49.1503   36.5403   41.8148 F   0  0  0  0  0  0  0  0  0  0  0  0
   48.3901   35.1486   40.1362 F   0  0  0  0  0  0  0  0  0  0  0  0
   46.3097   36.3107   41.4499 H   0  0  0  0  0  0  0  0  0  0  0  0
   46.9575   32.8901   44.9319 H   0  0  0  0  0  0  0  0  0  0  0  0
   43.8596   36.5154   43.6633 H   0  0  0  0  0  0  0  0  0  0  0  0
   42.0739   36.0236   41.8172 C   0  0  0  0  0  0  0  0  0  0  0  0
   41.1448   35.9695   42.7924 N   0  0  0  0  0  0  0  0  0  0  0  0
   39.9672   36.5712   42.7325 C   0  0  0  0  0  0  0  0  0  0  0  0
   39.5970   37.2934   41.6831 N   0  0  0  0  0  0  0  0  0  0  0  0
   40.4594   37.4125   40.6448 C   0  0  0  0  0  0  0  0  0  0  0  0
   40.0726   38.1605   39.5609 C   0  0  0  0  0  0  0  0  0  0  0  0
   40.8986   38.3152   38.4877 C   0  0  0  0  0  0  0  0  0  0  0  0
   40.5126   38.9191   37.6817 H   0  0  0  0  0  0  0  0  0  0  0  0
   42.1326   37.6886   38.5430 C   0  0  0  0  0  0  0  0  0  0  0  0
   42.7712   37.8290   37.6730 H   0  0  0  0  0  0  0  0  0  0  0  0
   42.4799   36.9473   39.6506 C   0  0  0  0  0  0  0  0  0  0  0  0
   41.6762   36.7741   40.7387 C   0  0  0  0  0  0  0  0  0  0  0  0
   39.4056   36.3689   43.6499 H   0  0  0  0  0  0  0  0  0  0  0  0
   39.0772   38.6308   39.5841 H   0  0  0  0  0  0  0  0  0  0  0  0
   43.4405   36.5131   39.5902 H   0  0  0  0  0  0  0  0  0  0  0  0
  1  6  2  0
  2  3  2  0
  2  1  1  0
  3  4  1  0
  4  5  2  0
  6  5  1  0
  7  9  1  0
  8  7  2  0
  9  1  1  0
 10 11  1  0
 10 12  1  0
 10  3  1  0
 13 10  1  0
  2 14  1  0
  5 15  1  0
  9 16  1  0
 17 18  2  0
 18 19  1  0
 19 20  2  0
 20 21  1  0
 21 22  2  0
 22 23  1  0
 23 24  1  0
 23 25  2  0
 25 26  1  0
 25 27  1  0
 27 28  2  0
 28 17  1  0
 28 21  1  0
 19 29  1  0
 22 30  1  0
 27 31  1  0
  7 17  1  0
M  ISO  4  14  14  15  14  24  16  26  16
M  END
>  <DihAtoms>  (1) 
8,6,16,17

>  <DihDeg>  (1) 
0.03775734292161675

$$$$
