
     RDKit          3D

 45 48  0  0  0  0  0  0  0  0999 V2000
   42.2032   34.1749   40.2010 C   0  0  0  0  0  0  0  0  0  0  0  0
   42.2949   35.1429   41.1871 C   0  0  0  0  0  0  0  0  0  0  0  0
   41.2486   36.0214   41.3316 C   0  0  0  0  0  0  0  0  0  0  0  0
   40.1511   35.9428   40.5275 C   0  0  0  0  0  0  0  0  0  0  0  0
   40.0374   34.9934   39.5446 C   0  0  0  0  0  0  0  0  0  0  0  0
   41.1127   34.1222   39.4262 C   0  0  0  0  0  0  0  0  0  0  0  0
   44.6091   31.2905   40.5952 C   0  0  0  0  0  0  0  0  0  0  0  0
   43.4706   32.0906   40.7885 C   0  0  0  0  0  0  0  0  0  0  0  0
   43.3430   33.2602   40.0840 C   0  0  0  0  0  0  0  0  0  0  0  0
   44.3408   33.5952   39.2178 N   0  0  0  0  0  0  0  0  0  0  0  0
   45.4334   32.8149   39.0407 C   0  0  0  0  0  0  0  0  0  0  0  0
   45.5710   31.6725   39.7205 N   0  0  0  0  0  0  0  0  0  0  0  0
   43.4935   35.2220   42.0589 C   0  0  0  0  0  0  0  0  0  0  0  0
   43.2205   35.6652   43.4021 N   0  0  0  0  0  0  0  0  0  0  0  0
   44.6464   35.8521   44.3334 S   0  0  0  0  0  0  0  0  0  0  0  0
   45.8182   35.2314   43.6406 O   0  0  0  0  0  0  0  0  0  0  0  0
   44.4942   35.2888   45.7049 O   0  0  0  0  0  0  0  0  0  0  0  0
   44.9243   37.5049   44.4613 O   0  0  0  0  0  0  0  0  0  0  0  0
   41.2913   36.7861   42.0909 H   0  0  0  0  0  0  0  0  0  0  0  0
   39.3178   36.6286   40.6294 H   0  0  0  0  0  0  0  0  0  0  0  0
   39.2184   34.8420   38.8558 H   0  0  0  0  0  0  0  0  0  0  0  0
   41.1014   33.3424   38.6735 H   0  0  0  0  0  0  0  0  0  0  0  0
   44.7090   30.3706   41.1496 H   0  0  0  0  0  0  0  0  0  0  0  0
   42.6766   31.8207   41.4800 H   0  0  0  0  0  0  0  0  0  0  0  0
   46.2031   33.1192   38.3417 H   0  0  0  0  0  0  0  0  0  0  0  0
   43.9489   34.2205   42.1283 H   0  0  0  0  0  0  0  0  0  0  0  0
   44.2426   35.9090   41.6174 H   0  0  0  0  0  0  0  0  0  0  0  0
   42.5151   35.0998   43.8890 H   0  0  0  0  0  0  0  0  0  0  0  0
   46.0406   34.2900   43.5276 H   0  0  0  0  0  0  0  0  0  0  0  0
   44.0504   35.7369   46.4726 H   0  0  0  0  0  0  0  0  0  0  0  0
   45.9077   38.1563   43.7290 C   0  0  0  0  0  0  0  0  0  0  0  0
   45.7407   38.7153   42.4943 N   0  0  0  0  0  0  0  0  0  0  0  0
   46.7695   39.3235   41.8768 C   0  0  0  0  0  0  0  0  0  0  0  0
   48.0134   39.4330   42.4009 N   0  0  0  0  0  0  0  0  0  0  0  0
   48.1898   38.8807   43.6277 C   0  0  0  0  0  0  0  0  0  0  0  0
   49.4600   38.9941   44.1595 C   0  0  0  0  0  0  0  0  0  0  0  0
   49.7339   38.4576   45.4128 C   0  0  0  0  0  0  0  0  0  0  0  0
   50.7444   38.5507   45.8303 H   0  0  0  0  0  0  0  0  0  0  0  0
   48.7239   37.8137   46.1139 C   0  0  0  0  0  0  0  0  0  0  0  0
   48.9581   37.4013   47.0916 H   0  0  0  0  0  0  0  0  0  0  0  0
   47.4576   37.7169   45.5507 C   0  0  0  0  0  0  0  0  0  0  0  0
   47.1564   38.2394   44.3095 C   0  0  0  0  0  0  0  0  0  0  0  0
   46.5690   39.7520   40.8868 H   0  0  0  0  0  0  0  0  0  0  0  0
   50.2813   39.4829   43.6602 H   0  0  0  0  0  0  0  0  0  0  0  0
   46.6791   37.2116   46.1095 H   0  0  0  0  0  0  0  0  0  0  0  0
  1  2  1  0
  2  3  2  0
  2 13  1  0
  4  3  1  0
  5  4  2  0
  6  5  1  0
  6  1  2  0
  7  8  2  0
  9  1  1  0
  9  8  1  0
 10  9  2  0
 11 10  1  0
 11 12  2  0
 12  7  1  0
 13 14  1  0
 14 15  1  0
 15 18  1  0
 15 17  1  0
 16 15  1  0
  3 19  1  0
  4 20  1  0
  5 21  1  0
  6 22  1  0
  7 23  1  0
  8 24  1  0
 11 25  1  0
 13 26  1  0
 13 27  1  0
 14 28  1  0
 16 29  1  0
 17 30  1  0
 31 32  2  0
 32 33  1  0
 33 34  2  0
 34 35  1  0
 35 36  2  0
 36 37  1  0
 37 38  1  0
 37 39  2  0
 39 40  1  0
 39 41  1  0
 41 42  2  0
 42 31  1  0
 42 35  1  0
 33 43  1  0
 36 44  1  0
 41 45  1  0
 18 31  1  0
M  ISO  8  19  14  20  14  21  14  22  14  23  14  24  14  25  14  26   8
M  ISO  6  27   8  28   5  29   3  30   3  38  16  40  16
M  END
>  <DihAtoms>  (1) 
14,17,30,31

>  <DihDeg>  (1) 
0.0009657780231609424

$$$$
