
     RDKit          3D

 25 27  0  0  0  0  0  0  0  0999 V2000
   44.2505   35.7842   44.3020 C   0  0  0  0  0  0  0  0  0  0  0  0
   44.4160   34.9450   43.1694 C   0  0  0  0  0  0  0  0  0  0  0  0
   45.0493   33.7093   43.2714 C   0  0  0  0  0  0  0  0  0  0  0  0
   45.5104   33.3324   44.5199 N   0  0  0  0  0  0  0  0  0  0  0  0
   45.3421   34.1391   45.5664 C   0  0  0  0  0  0  0  0  0  0  0  0
   44.7418   35.2938   45.4323 N   0  0  0  0  0  0  0  0  0  0  0  0
   43.8280   35.3952   41.5096 S   0  0  0  0  0  0  0  0  0  0  0  0
   45.1681   33.0895   42.4199 H   0  0  0  0  0  0  0  0  0  0  0  0
   45.6711   33.9219   46.5733 H   0  0  0  0  0  0  0  0  0  0  0  0
   44.6112   36.4297   41.0027 H   0  0  0  0  0  0  0  0  0  0  0  0
   43.5606   37.0210   43.9448 C   0  0  0  0  0  0  0  0  0  0  0  0
   44.1261   38.0321   43.2838 N   0  0  0  0  0  0  0  0  0  0  0  0
   43.4969   39.1605   42.9578 C   0  0  0  0  0  0  0  0  0  0  0  0
   42.2108   39.3853   43.2719 N   0  0  0  0  0  0  0  0  0  0  0  0
   41.5600   38.4083   43.9445 C   0  0  0  0  0  0  0  0  0  0  0  0
   40.2412   38.6539   44.2595 C   0  0  0  0  0  0  0  0  0  0  0  0
   39.5257   37.6955   44.9445 C   0  0  0  0  0  0  0  0  0  0  0  0
   38.4968   37.9417   45.1646 H   0  0  0  0  0  0  0  0  0  0  0  0
   40.1811   36.5086   45.2896 C   0  0  0  0  0  0  0  0  0  0  0  0
   39.5662   35.8102   45.8193 H   0  0  0  0  0  0  0  0  0  0  0  0
   41.4902   36.3507   44.9364 C   0  0  0  0  0  0  0  0  0  0  0  0
   42.2496   37.2584   44.2610 C   0  0  0  0  0  0  0  0  0  0  0  0
   44.1364   39.8655   42.4170 H   0  0  0  0  0  0  0  0  0  0  0  0
   39.7750   39.5871   43.9722 H   0  0  0  0  0  0  0  0  0  0  0  0
   41.8842   35.4115   45.2502 H   0  0  0  0  0  0  0  0  0  0  0  0
  1  6  2  0
  2  3  2  0
  2  1  1  0
  3  4  1  0
  4  5  2  0
  6  5  1  0
  7  2  1  0
  3  8  1  0
  5  9  1  0
  7 10  1  0
 11 12  2  0
 12 13  1  0
 13 14  2  0
 14 15  1  0
 15 16  2  0
 16 17  1  0
 17 18  1  0
 17 19  2  0
 19 20  1  0
 19 21  1  0
 21 22  2  0
 22 11  1  0
 22 15  1  0
 13 23  1  0
 16 24  1  0
 21 25  1  0
  1 11  1  0
M  ISO  5   8  14   9  14  10  11  18  16  20  16
M  END
>  <DihAtoms>  (1) 
5,0,10,11

>  <DihDeg>  (1) 
-179.999940246917

$$$$
