
     RDKit          3D

 25 27  0  0  0  0  0  0  0  0999 V2000
   44.2505   35.7842   44.3020 C   0  0  0  0  0  0  0  0  0  0  0  0
   44.4160   34.9450   43.1694 C   0  0  0  0  0  0  0  0  0  0  0  0
   45.0493   33.7093   43.2714 C   0  0  0  0  0  0  0  0  0  0  0  0
   45.5104   33.3324   44.5199 N   0  0  0  0  0  0  0  0  0  0  0  0
   45.3421   34.1391   45.5664 C   0  0  0  0  0  0  0  0  0  0  0  0
   44.7418   35.2938   45.4323 N   0  0  0  0  0  0  0  0  0  0  0  0
   43.8280   35.3952   41.5096 S   0  0  0  0  0  0  0  0  0  0  0  0
   45.1681   33.0895   42.4199 H   0  0  0  0  0  0  0  0  0  0  0  0
   45.6711   33.9219   46.5733 H   0  0  0  0  0  0  0  0  0  0  0  0
   44.6112   36.4297   41.0027 H   0  0  0  0  0  0  0  0  0  0  0  0
   43.5606   37.0210   43.9448 C   0  0  0  0  0  0  0  0  0  0  0  0
   42.8935   37.2062   42.8047 N   0  0  0  0  0  0  0  0  0  0  0  0
   42.2641   38.3344   42.4787 C   0  0  0  0  0  0  0  0  0  0  0  0
   42.2444   39.4079   43.2852 N   0  0  0  0  0  0  0  0  0  0  0  0
   42.8984   39.3052   44.4652 C   0  0  0  0  0  0  0  0  0  0  0  0
   42.8690   40.4149   45.2816 C   0  0  0  0  0  0  0  0  0  0  0  0
   43.5176   40.3705   46.4969 C   0  0  0  0  0  0  0  0  0  0  0  0
   43.4615   41.2686   47.0952 H   0  0  0  0  0  0  0  0  0  0  0  0
   44.1803   39.1886   46.8448 C   0  0  0  0  0  0  0  0  0  0  0  0
   44.6614   39.2246   47.8006 H   0  0  0  0  0  0  0  0  0  0  0  0
   44.1571   38.1379   45.9736 C   0  0  0  0  0  0  0  0  0  0  0  0
   43.5355   38.1201   44.7612 C   0  0  0  0  0  0  0  0  0  0  0  0
   41.7767   38.2843   41.4997 H   0  0  0  0  0  0  0  0  0  0  0  0
   42.3435   41.3084   44.9712 H   0  0  0  0  0  0  0  0  0  0  0  0
   44.6929   37.2937   46.3424 H   0  0  0  0  0  0  0  0  0  0  0  0
  1  6  2  0
  2  3  2  0
  2  1  1  0
  3  4  1  0
  4  5  2  0
  6  5  1  0
  7  2  1  0
  3  8  1  0
  5  9  1  0
  7 10  1  0
 11 12  2  0
 12 13  1  0
 13 14  2  0
 14 15  1  0
 15 16  2  0
 16 17  1  0
 17 18  1  0
 17 19  2  0
 19 20  1  0
 19 21  1  0
 21 22  2  0
 22 11  1  0
 22 15  1  0
 13 23  1  0
 16 24  1  0
 21 25  1  0
  1 11  1  0
M  ISO  5   8  14   9  14  10  11  18  16  20  16
M  END
>  <DihAtoms>  (1) 
5,0,10,11

>  <DihDeg>  (1) 
-179.999940246917

$$$$
