
     RDKit          3D

 26 28  0  0  0  0  0  0  0  0999 V2000
   46.7780   33.0240   42.8110 C   0  0  0  0  0  0  0  0  0  0  0  0
   46.2250   31.8860   42.3770 N   0  0  0  0  0  0  0  0  0  0  0  0
   46.9090   30.9260   41.7570 C   0  0  0  0  0  0  0  0  0  0  0  0
   48.2270   31.0240   41.5140 N   0  0  0  0  0  0  0  0  0  0  0  0
   48.8760   32.1340   41.9130 C   0  0  0  0  0  0  0  0  0  0  0  0
   50.2260   32.2540   41.6740 C   0  0  0  0  0  0  0  0  0  0  0  0
   50.9120   33.3760   42.0700 C   0  0  0  0  0  0  0  0  0  0  0  0
   50.1970   34.3740   42.7160 C   0  0  0  0  0  0  0  0  0  0  0  0
   48.8460   34.2030   42.9300 C   0  0  0  0  0  0  0  0  0  0  0  0
   48.1250   33.0970   42.5490 C   0  0  0  0  0  0  0  0  0  0  0  0
   45.0820   36.2760   43.1990 C   0  0  0  0  0  0  0  0  0  0  0  0
   45.8010   35.1970   42.6960 C   0  0  0  0  0  0  0  0  0  0  0  0
   46.0120   34.0550   43.4820 C   0  0  0  0  0  0  0  0  0  0  0  0
   45.4560   34.1640   44.6890 N   0  0  0  0  0  0  0  0  0  0  0  0
   44.7710   35.1690   45.1950 C   0  0  0  0  0  0  0  0  0  0  0  0
   44.5800   36.2570   44.4240 N   0  0  0  0  0  0  0  0  0  0  0  0
   44.2430   35.1310   46.5000 N   0  0  0  0  0  0  0  0  0  0  0  0
   46.3759   30.0203   41.4322 H   0  0  0  0  0  0  0  0  0  0  0  0
   50.7616   31.4422   41.1601 H   0  0  0  0  0  0  0  0  0  0  0  0
   51.9908   33.4797   41.8815 H   0  0  0  0  0  0  0  0  0  0  0  0
   50.7022   35.2910   43.0535 H   0  0  0  0  0  0  0  0  0  0  0  0
   48.3052   35.0115   43.4436 H   0  0  0  0  0  0  0  0  0  0  0  0
   44.9273   37.1627   42.5666 H   0  0  0  0  0  0  0  0  0  0  0  0
   46.2070   35.2397   41.6745 H   0  0  0  0  0  0  0  0  0  0  0  0
   43.7120   35.9349   46.8643 H   0  0  0  0  0  0  0  0  0  0  0  0
   44.3878   34.2993   47.0901 H   0  0  0  0  0  0  0  0  0  0  0  0
  1 13  1  0
  2  1  2  0
  3  2  1  0
  4  3  2  0
  4  5  1  0
  5 10  2  0
  6  5  1  0
  6  7  2  0
  7  8  1  0
  8  9  2  0
 10  1  1  0
 10  9  1  0
 11 16  2  0
 12 11  1  0
 12 13  2  0
 13 14  1  0
 14 15  2  0
 15 17  1  0
 16 15  1  0
  3 18  1  0
  6 19  1  0
  7 20  1  0
  8 21  1  0
  9 22  1  0
 11 23  1  0
 12 24  1  0
 17 25  1  0
 17 26  1  0
M  ISO  7  18  14  19  14  20  14  21  14  22  14  23  14  24  14
M  END
>  <minimizedAffinity>  (1) 
-5.64304256

>  <minimizedRMSD>  (1) 
1.58106828

$$$$
