
     RDKit          3D

 46 49  0  0  0  0  0  0  0  0999 V2000
   46.1788   32.0852   45.4334 C   0  0  0  0  0  0  0  0  0  0  0  0
   45.7705   32.0331   49.1315 C   0  0  0  0  0  0  0  0  0  0  0  0
   46.0564   32.4920   47.8418 C   0  0  0  0  0  0  0  0  0  0  0  0
   45.8808   31.6110   46.7889 C   0  0  0  0  0  0  0  0  0  0  0  0
   45.4387   30.3402   47.0549 N   0  0  0  0  0  0  0  0  0  0  0  0
   45.1722   29.9325   48.3187 C   0  0  0  0  0  0  0  0  0  0  0  0
   45.3381   30.7711   49.3330 N   0  0  0  0  0  0  0  0  0  0  0  0
   46.5456   33.3985   45.4098 O   0  0  0  0  0  0  0  0  0  0  0  0
   44.6318   35.1711   45.2506 O   0  0  0  0  0  0  0  0  0  0  0  0
   45.4532   34.2370   44.4194 P   0  0  2  0  0  0  0  0  0  0  0  0
   44.5192   33.0596   43.6769 O   0  0  0  0  0  0  0  0  0  0  0  0
   46.3472   35.1227   43.3038 O   0  0  0  0  0  0  0  0  0  0  0  0
   47.1046   34.2683   42.5354 C   0  0  1  0  0  0  0  0  0  0  0  0
   46.9603   34.4681   41.0500 C   0  0  0  0  0  0  0  0  0  0  0  0
   48.1105   33.6642   40.5084 C   0  0  0  0  0  0  0  0  0  0  0  0
   49.1618   33.6675   41.5853 C   0  0  0  0  0  0  0  0  0  0  0  0
   48.6034   34.5319   42.7212 C   0  0  1  0  0  0  0  0  0  0  0  0
   45.3939   31.7441   44.7771 H   0  0  0  0  0  0  0  0  0  0  0  0
   47.1010   31.5118   45.1160 H   0  0  0  0  0  0  0  0  0  0  0  0
   45.9235   32.7566   49.9130 H   0  0  0  0  0  0  0  0  0  0  0  0
   46.4027   33.4938   47.6530 H   0  0  0  0  0  0  0  0  0  0  0  0
   44.8224   28.9194   48.5059 H   0  0  0  0  0  0  0  0  0  0  0  0
   43.5928   33.3989   43.5874 H   0  0  0  0  0  0  0  0  0  0  0  0
   46.9554   33.2027   42.7959 H   0  0  0  0  0  0  0  0  0  0  0  0
   46.0231   33.9527   40.7131 H   0  0  0  0  0  0  0  0  0  0  0  0
   46.9930   35.5179   40.7657 H   0  0  0  0  0  0  0  0  0  0  0  0
   47.8183   32.6013   40.3004 H   0  0  0  0  0  0  0  0  0  0  0  0
   48.4693   34.0879   39.5475 H   0  0  0  0  0  0  0  0  0  0  0  0
   50.0808   34.1438   41.1628 H   0  0  0  0  0  0  0  0  0  0  0  0
   49.4519   32.6618   41.9212 H   0  0  0  0  0  0  0  0  0  0  0  0
   48.8947   34.0551   43.6635 H   0  0  0  0  0  0  0  0  0  0  0  0
   48.9635   35.9410   42.5670 C   0  0  0  0  0  0  0  0  0  0  0  0
   48.7003   36.8331   43.5403 N   0  0  0  0  0  0  0  0  0  0  0  0
   49.0212   38.1515   43.4326 C   0  0  0  0  0  0  0  0  0  0  0  0
   49.6239   38.6495   42.3434 N   0  0  0  0  0  0  0  0  0  0  0  0
   49.9195   37.8197   41.3272 C   0  0  0  0  0  0  0  0  0  0  0  0
   50.5448   38.2780   40.1703 C   0  0  0  0  0  0  0  0  0  0  0  0
   50.8403   37.4135   39.1382 C   0  0  0  0  0  0  0  0  0  0  0  0
   51.3247   37.7950   38.2538 H   0  0  0  0  0  0  0  0  0  0  0  0
   50.5161   36.0558   39.2354 C   0  0  0  0  0  0  0  0  0  0  0  0
   50.7438   35.3679   38.4304 H   0  0  0  0  0  0  0  0  0  0  0  0
   49.8965   35.6500   40.4035 C   0  0  0  0  0  0  0  0  0  0  0  0
   49.5825   36.4777   41.4595 C   0  0  0  0  0  0  0  0  0  0  0  0
   48.8161   38.8809   44.2067 H   0  0  0  0  0  0  0  0  0  0  0  0
   50.8058   39.3379   40.0772 H   0  0  0  0  0  0  0  0  0  0  0  0
   49.6655   34.5975   40.4337 H   0  0  0  0  0  0  0  0  0  0  0  0
  1  4  1  0
  2  7  2  0
  3  2  1  0
  4  5  1  0
  4  3  2  0
  5  6  2  0
  6  7  1  0
  8  1  1  0
 10  9  2  0
 10  8  1  1
 11 10  1  0
 12 10  1  0
 13 17  1  0
 13 12  1  0
 14 13  1  0
 15 14  1  0
 15 16  1  0
 16 17  1  0
  1 18  1  0
  1 19  1  0
  2 20  1  0
  3 21  1  0
  6 22  1  0
 11 23  1  0
 13 24  1  6
 14 25  1  0
 14 26  1  0
 15 27  1  0
 15 28  1  0
 16 29  1  0
 16 30  1  0
 17 31  1  1
 32 33  2  0
 33 34  1  0
 34 35  2  0
 35 36  1  0
 36 37  2  0
 37 38  1  0
 38 39  1  0
 38 40  2  0
 40 41  1  0
 40 42  1  0
 42 43  2  0
 43 32  1  0
 43 36  1  0
 34 44  1  0
 37 45  1  0
 42 46  1  0
 17 32  1  0
M  ISO  8  18   8  19   8  20  14  21  14  22  14  23   3  24  13  25  13
M  ISO  8  26  13  27  13  28  13  29  13  30  13  31  13  39  16  41  16
M  END
>  <DihAtoms>  (1) 
12,16,31,32

>  <DihDeg>  (1) 
-89.0862123983931

$$$$
