
     RDKit          3D

 37 40  0  0  0  0  0  0  0  0999 V2000
   43.9700   34.2060   42.0120 C   0  0  0  0  0  0  0  0  0  0  0  0
   43.4240   35.5200   42.1320 C   0  0  0  0  0  0  0  0  0  0  0  0
   41.6450   35.2340   41.6700 S   0  0  0  0  0  0  0  0  0  0  0  0
   41.9760   33.3980   41.4030 C   0  0  0  0  0  0  0  0  0  0  0  0
   43.0860   33.3220   41.6430 N   0  0  0  0  0  0  0  0  0  0  0  0
   40.7690   32.6670   40.9900 C   0  0  0  0  0  0  0  0  0  0  0  0
   40.2270   31.6000   41.6040 N   0  0  0  0  0  0  0  0  0  0  0  0
   39.1270   30.9830   41.1740 C   0  0  0  0  0  0  0  0  0  0  0  0
   38.4700   31.3900   40.0770 N   0  0  0  0  0  0  0  0  0  0  0  0
   38.9270   32.4410   39.3960 C   0  0  0  0  0  0  0  0  0  0  0  0
   38.2560   32.8630   38.2680 C   0  0  0  0  0  0  0  0  0  0  0  0
   38.7390   33.9630   37.5600 C   0  0  0  0  0  0  0  0  0  0  0  0
   39.8870   34.5740   38.0420 C   0  0  0  0  0  0  0  0  0  0  0  0
   40.5380   34.1340   39.1700 C   0  0  0  0  0  0  0  0  0  0  0  0
   40.0670   33.0510   39.8720 C   0  0  0  0  0  0  0  0  0  0  0  0
   45.3990   33.9600   42.2990 C   0  0  0  0  0  0  0  0  0  0  0  0
   46.3400   34.2860   41.2010 C   0  0  0  0  0  0  0  0  0  0  0  0
   47.7640   34.0800   41.5420 C   0  0  0  0  0  0  0  0  0  0  0  0
   48.3930   32.9770   40.9190 C   0  0  0  0  0  0  0  0  0  0  0  0
   49.7250   32.7170   41.1830 C   0  0  0  0  0  0  0  0  0  0  0  0
   50.3800   33.5560   42.0490 N   0  0  0  0  0  0  0  0  0  0  0  0
   49.7380   34.5970   42.6220 C   0  0  0  0  0  0  0  0  0  0  0  0
   48.4580   34.8480   42.3690 N   0  0  0  0  0  0  0  0  0  0  0  0
   47.4720   31.9230   39.8000 S   0  0  0  0  0  0  0  0  0  0  0  0
   43.9242   36.4559   42.4217 H   0  0  0  0  0  0  0  0  0  0  0  0
   38.7469   30.1158   41.7339 H   0  0  0  0  0  0  0  0  0  0  0  0
   37.3502   32.3381   37.9304 H   0  0  0  0  0  0  0  0  0  0  0  0
   38.2305   34.3309   36.6566 H   0  0  0  0  0  0  0  0  0  0  0  0
   40.2915   35.4427   37.5018 H   0  0  0  0  0  0  0  0  0  0  0  0
   41.4444   34.6538   39.5137 H   0  0  0  0  0  0  0  0  0  0  0  0
   45.6773   34.5660   43.1738 H   0  0  0  0  0  0  0  0  0  0  0  0
   45.4903   32.8758   42.4605 H   0  0  0  0  0  0  0  0  0  0  0  0
   46.1998   35.3425   40.9288 H   0  0  0  0  0  0  0  0  0  0  0  0
   46.1105   33.5986   40.3734 H   0  0  0  0  0  0  0  0  0  0  0  0
   50.2421   31.8665   40.7148 H   0  0  0  0  0  0  0  0  0  0  0  0
   50.2875   35.2521   43.3140 H   0  0  0  0  0  0  0  0  0  0  0  0
   46.7066   31.0471   40.5237 H   0  0  0  0  0  0  0  0  0  0  0  0
  1  2  2  0
  1 16  1  0
  3  2  1  0
  4  5  2  0
  4  3  1  0
  5  1  1  0
  6  4  1  0
  6  7  2  0
  8  7  1  0
  9  8  2  0
 10 15  2  0
 10  9  1  0
 11 10  1  0
 12 13  1  0
 12 11  2  0
 13 14  2  0
 14 15  1  0
 15  6  1  0
 17 18  1  0
 17 16  1  0
 18 23  2  0
 19 20  2  0
 19 18  1  0
 20 21  1  0
 21 22  2  0
 23 22  1  0
 24 19  1  0
  2 25  1  0
  8 26  1  0
 11 27  1  0
 12 28  1  0
 13 29  1  0
 14 30  1  0
 16 31  1  0
 16 32  1  0
 17 33  1  0
 17 34  1  0
 20 35  1  0
 22 36  1  0
 24 37  1  0
M  ISO  8  25  14  26  14  27  14  28  14  29  14  30  14  31   8  32   8
M  ISO  5  33   8  34   8  35  14  36  14  37  11
M  END
>  <minimizedAffinity>  (1) 
-5.66814613

>  <minimizedRMSD>  (1) 
2.29408836

$$$$
