
     RDKit          3D

 44 47  0  0  0  0  0  0  0  0999 V2000
   46.8114   32.6881   46.1023 C   0  0  0  0  0  0  0  0  0  0  0  0
   46.2095   31.9120   47.1906 C   0  0  0  0  0  0  0  0  0  0  0  0
   45.4850   32.3720   48.2750 C   0  0  0  0  0  0  0  0  0  0  0  0
   44.9570   31.5418   49.2238 C   0  0  0  0  0  0  0  0  0  0  0  0
   45.1488   30.2128   49.0988 C   0  0  0  0  0  0  0  0  0  0  0  0
   45.8818   29.7205   48.0079 C   0  0  0  0  0  0  0  0  0  0  0  0
   46.4112   30.5685   47.0563 C   0  0  0  0  0  0  0  0  0  0  0  0
   48.4378   29.4090   46.4725 C   0  0  0  0  0  0  0  0  0  0  0  0
   49.3263   29.6699   47.3641 O   0  0  0  0  0  0  0  0  0  0  0  0
   47.0862   29.7415   46.1259 N   0  0  0  0  0  0  0  0  0  0  0  0
   45.9885   32.5980   44.8438 C   0  0  0  0  0  0  0  0  0  0  0  0
   44.5694   35.9790   44.8004 C   0  0  0  0  0  0  0  0  0  0  0  0
   45.0018   36.4700   43.5398 C   0  0  0  0  0  0  0  0  0  0  0  0
   45.7700   35.6092   42.7572 C   0  0  0  0  0  0  0  0  0  0  0  0
   46.0670   34.3830   43.2055 N   0  0  0  0  0  0  0  0  0  0  0  0
   45.6298   33.9635   44.4149 C   0  0  0  0  0  0  0  0  0  0  0  0
   44.9044   34.7242   45.1982 N   0  0  0  0  0  0  0  0  0  0  0  0
   46.9620   33.7257   46.4616 H   0  0  0  0  0  0  0  0  0  0  0  0
   47.8452   32.3190   45.8416 H   0  0  0  0  0  0  0  0  0  0  0  0
   45.4042   33.4718   48.2535 H   0  0  0  0  0  0  0  0  0  0  0  0
   44.4448   32.1175   49.9814 H   0  0  0  0  0  0  0  0  0  0  0  0
   45.9366   28.6259   48.0701 H   0  0  0  0  0  0  0  0  0  0  0  0
   49.0807   28.7300   45.9163 H   0  0  0  0  0  0  0  0  0  0  0  0
   46.8221   29.3029   45.2174 H   0  0  0  0  0  0  0  0  0  0  0  0
   46.5078   32.0270   44.0393 H   0  0  0  0  0  0  0  0  0  0  0  0
   45.0456   32.0540   45.0864 H   0  0  0  0  0  0  0  0  0  0  0  0
   43.9737   36.6561   45.3994 H   0  0  0  0  0  0  0  0  0  0  0  0
   44.7664   37.4474   43.1798 H   0  0  0  0  0  0  0  0  0  0  0  0
   46.1458   35.8905   41.7841 H   0  0  0  0  0  0  0  0  0  0  0  0
   44.5515   29.3542   50.1280 C   0  0  0  0  0  0  0  0  0  0  0  0
   45.2010   28.1609   50.1558 N   0  0  0  0  0  0  0  0  0  0  0  0
   44.8096   27.1990   51.0443 C   0  0  0  0  0  0  0  0  0  0  0  0
   43.7803   27.3848   51.9183 N   0  0  0  0  0  0  0  0  0  0  0  0
   43.1423   28.5654   51.8849 C   0  0  0  0  0  0  0  0  0  0  0  0
   42.0743   28.8869   52.7035 C   0  0  0  0  0  0  0  0  0  0  0  0
   41.4396   30.1317   52.6131 C   0  0  0  0  0  0  0  0  0  0  0  0
   40.6239   30.2489   53.3089 H   0  0  0  0  0  0  0  0  0  0  0  0
   41.8643   31.0947   51.6900 C   0  0  0  0  0  0  0  0  0  0  0  0
   41.2836   32.0047   51.7319 H   0  0  0  0  0  0  0  0  0  0  0  0
   42.9286   30.7756   50.8743 C   0  0  0  0  0  0  0  0  0  0  0  0
   43.5265   29.5417   50.9949 C   0  0  0  0  0  0  0  0  0  0  0  0
   45.2939   26.2199   51.1133 H   0  0  0  0  0  0  0  0  0  0  0  0
   41.7541   28.1328   53.4145 H   0  0  0  0  0  0  0  0  0  0  0  0
   43.2083   31.5406   50.1713 H   0  0  0  0  0  0  0  0  0  0  0  0
  1  2  1  0
  2  3  2  0
  3  4  1  0
  5  4  2  0
  6  5  1  0
  7  2  1  0
  7  6  2  0
  8  9  2  0
 10  8  1  0
 10  7  1  0
 11  1  1  0
 12 17  2  0
 13 12  1  0
 14 15  1  0
 14 13  2  0
 15 16  2  0
 16 11  1  0
 16 17  1  0
  1 18  1  0
  1 19  1  0
  3 20  1  0
  4 21  1  0
  6 22  1  0
  8 23  1  0
 10 24  1  0
 11 25  1  0
 11 26  1  0
 12 27  1  0
 13 28  1  0
 14 29  1  0
 30 31  2  0
 31 32  1  0
 32 33  2  0
 33 34  1  0
 34 35  2  0
 35 36  1  0
 36 37  1  0
 36 38  2  0
 38 39  1  0
 38 40  1  0
 40 41  2  0
 41 30  1  0
 41 34  1  0
 32 42  1  0
 35 43  1  0
 40 44  1  0
  5 30  1  0
M  ISO  8  18   8  19   8  20  14  21  14  22  14  23   6  25   8  26   8
M  ISO  5  27  14  28  14  29  14  37  16  39  16
M  END
>  <DihAtoms>  (1) 
3,4,29,30

>  <DihDeg>  (1) 
-128.21875550317904

$$$$
