
     RDKit          3D

 25 27  0  0  0  0  0  0  0  0999 V2000
   44.2505   35.7842   44.3020 C   0  0  0  0  0  0  0  0  0  0  0  0
   44.4160   34.9450   43.1694 C   0  0  0  0  0  0  0  0  0  0  0  0
   45.0493   33.7093   43.2714 C   0  0  0  0  0  0  0  0  0  0  0  0
   45.5104   33.3324   44.5199 N   0  0  0  0  0  0  0  0  0  0  0  0
   45.3421   34.1391   45.5664 C   0  0  0  0  0  0  0  0  0  0  0  0
   44.7418   35.2938   45.4323 N   0  0  0  0  0  0  0  0  0  0  0  0
   43.8280   35.3952   41.5096 S   0  0  0  0  0  0  0  0  0  0  0  0
   45.1681   33.0895   42.4199 H   0  0  0  0  0  0  0  0  0  0  0  0
   45.6711   33.9219   46.5733 H   0  0  0  0  0  0  0  0  0  0  0  0
   44.6112   36.4297   41.0027 H   0  0  0  0  0  0  0  0  0  0  0  0
   43.5606   37.0210   43.9448 C   0  0  0  0  0  0  0  0  0  0  0  0
   43.0165   37.8592   44.8283 N   0  0  0  0  0  0  0  0  0  0  0  0
   42.3871   38.9875   44.5026 C   0  0  0  0  0  0  0  0  0  0  0  0
   42.2413   39.3902   43.2299 N   0  0  0  0  0  0  0  0  0  0  0  0
   42.7653   38.5963   42.2676 C   0  0  0  0  0  0  0  0  0  0  0  0
   42.6076   39.0229   40.9669 C   0  0  0  0  0  0  0  0  0  0  0  0
   43.1202   38.2560   39.9429 C   0  0  0  0  0  0  0  0  0  0  0  0
   42.9672   38.6387   38.9440 H   0  0  0  0  0  0  0  0  0  0  0  0
   43.7821   37.0701   40.2786 C   0  0  0  0  0  0  0  0  0  0  0  0
   44.1540   36.5255   39.4351 H   0  0  0  0  0  0  0  0  0  0  0  0
   43.8916   36.7252   41.5949 C   0  0  0  0  0  0  0  0  0  0  0  0
   43.4076   37.4390   42.6498 C   0  0  0  0  0  0  0  0  0  0  0  0
   42.0120   39.5344   45.3736 H   0  0  0  0  0  0  0  0  0  0  0  0
   42.0880   39.9479   40.7540 H   0  0  0  0  0  0  0  0  0  0  0  0
   44.4132   35.8058   41.7309 H   0  0  0  0  0  0  0  0  0  0  0  0
  1  6  2  0
  2  3  2  0
  2  1  1  0
  3  4  1  0
  4  5  2  0
  6  5  1  0
  7  2  1  0
  3  8  1  0
  5  9  1  0
  7 10  1  0
 11 12  2  0
 12 13  1  0
 13 14  2  0
 14 15  1  0
 15 16  2  0
 16 17  1  0
 17 18  1  0
 17 19  2  0
 19 20  1  0
 19 21  1  0
 21 22  2  0
 22 11  1  0
 22 15  1  0
 13 23  1  0
 16 24  1  0
 21 25  1  0
  1 11  1  0
M  ISO  5   8  14   9  14  10  11  18  16  20  16
M  END
>  <DihAtoms>  (1) 
5,0,10,11

>  <DihDeg>  (1) 
-179.999940246917

$$$$
