
     RDKit          3D

 45 48  0  0  0  0  0  0  0  0999 V2000
   46.3219   34.9408   41.7969 C   0  0  0  0  0  0  0  0  0  0  0  0
   44.4802   35.9669   44.9068 C   0  0  0  0  0  0  0  0  0  0  0  0
   44.9906   35.9795   43.5950 C   0  0  0  0  0  0  0  0  0  0  0  0
   45.7856   34.9441   43.1740 C   0  0  0  0  0  0  0  0  0  0  0  0
   46.0332   33.9626   44.0571 N   0  0  0  0  0  0  0  0  0  0  0  0
   45.5410   33.9535   45.3173 C   0  0  0  0  0  0  0  0  0  0  0  0
   44.7590   34.9602   45.7490 N   0  0  0  0  0  0  0  0  0  0  0  0
   47.8044   34.9216   41.8300 C   0  0  0  0  0  0  0  0  0  0  0  0
   48.3733   34.1779   40.7528 N   0  0  0  0  0  0  0  0  0  0  0  0
   49.2560   33.1484   41.1112 C   0  0  0  0  0  0  0  0  0  0  0  0
   49.1594   31.8603   40.3452 C   0  0  0  0  0  0  0  0  0  0  0  0
   48.6827   31.9902   38.9292 C   0  0  0  0  0  0  0  0  0  0  0  0
   48.4722   33.4174   38.5221 C   0  0  0  0  0  0  0  0  0  0  0  0
   47.5394   34.0033   39.6093 C   0  0  2  0  0  0  0  0  0  0  0  0
   45.8289   34.0788   41.3122 H   0  0  0  0  0  0  0  0  0  0  0  0
   45.9735   35.8421   41.2696 H   0  0  0  0  0  0  0  0  0  0  0  0
   43.8655   36.8060   45.1730 H   0  0  0  0  0  0  0  0  0  0  0  0
   44.7459   36.8114   42.9357 H   0  0  0  0  0  0  0  0  0  0  0  0
   45.7975   33.1155   45.9567 H   0  0  0  0  0  0  0  0  0  0  0  0
   48.2352   35.9416   41.7966 H   0  0  0  0  0  0  0  0  0  0  0  0
   48.1184   34.4354   42.7812 H   0  0  0  0  0  0  0  0  0  0  0  0
   49.0699   32.9033   42.1930 H   0  0  0  0  0  0  0  0  0  0  0  0
   50.2948   33.5466   41.0968 H   0  0  0  0  0  0  0  0  0  0  0  0
   50.1956   31.4291   40.3225 H   0  0  0  0  0  0  0  0  0  0  0  0
   48.5493   31.1182   40.9057 H   0  0  0  0  0  0  0  0  0  0  0  0
   47.7085   31.4651   38.8160 H   0  0  0  0  0  0  0  0  0  0  0  0
   49.3776   31.4769   38.2169 H   0  0  0  0  0  0  0  0  0  0  0  0
   49.3977   34.0031   38.4570 H   0  0  0  0  0  0  0  0  0  0  0  0
   47.9601   33.3892   37.5350 H   0  0  0  0  0  0  0  0  0  0  0  0
   46.7858   33.2463   39.7494 H   0  0  0  0  0  0  0  0  0  0  0  0
   47.1308   35.3065   39.0831 C   0  0  0  0  0  0  0  0  0  0  0  0
   46.3116   36.0791   39.8611 N   0  0  0  0  0  0  0  0  0  0  0  0
   45.8858   37.2973   39.4595 C   0  0  0  0  0  0  0  0  0  0  0  0
   46.2323   37.8341   38.2784 N   0  0  0  0  0  0  0  0  0  0  0  0
   47.0367   37.1164   37.4742 C   0  0  0  0  0  0  0  0  0  0  0  0
   47.4436   37.5877   36.2461 C   0  0  0  0  0  0  0  0  0  0  0  0
   48.2668   36.8544   35.4247 C   0  0  0  0  0  0  0  0  0  0  0  0
   48.5728   37.2331   34.4773 H   0  0  0  0  0  0  0  0  0  0  0  0
   48.6993   35.6100   35.8400 C   0  0  0  0  0  0  0  0  0  0  0  0
   49.3468   35.0330   35.1942 H   0  0  0  0  0  0  0  0  0  0  0  0
   48.2832   35.1570   37.0669 C   0  0  0  0  0  0  0  0  0  0  0  0
   47.4640   35.8889   37.8819 C   0  0  0  0  0  0  0  0  0  0  0  0
   45.2379   37.8334   40.1488 H   0  0  0  0  0  0  0  0  0  0  0  0
   47.1000   38.5561   35.9364 H   0  0  0  0  0  0  0  0  0  0  0  0
   48.6511   34.1806   37.3424 H   0  0  0  0  0  0  0  0  0  0  0  0
  1  8  1  0
  1  4  1  0
  2  7  2  0
  3  2  1  0
  4  3  2  0
  4  5  1  0
  5  6  2  0
  6  7  1  0
  9 10  1  0
  9  8  1  0
 11 10  1  0
 12 11  1  0
 13 12  1  0
 13 14  1  0
 14  9  1  0
  1 15  1  0
  1 16  1  0
  2 17  1  0
  3 18  1  0
  6 19  1  0
  8 20  1  0
  8 21  1  0
 10 22  1  0
 10 23  1  0
 11 24  1  0
 11 25  1  0
 12 26  1  0
 12 27  1  0
 13 28  1  0
 13 29  1  0
 14 30  1  1
 31 32  2  0
 32 33  1  0
 33 34  2  0
 34 35  1  0
 35 36  2  0
 36 37  1  0
 37 38  1  0
 37 39  2  0
 39 40  1  0
 39 41  1  0
 41 42  2  0
 42 31  1  0
 42 35  1  0
 33 43  1  0
 36 44  1  0
 41 45  1  0
 14 31  1  0
M  ISO  8  15   8  16   8  17  14  18  14  19  14  20   8  21   8  22  13
M  ISO  8  23  13  24  13  25  13  26  13  27  13  28  13  29  13  30  13
M  ISO  2  38  16  40  16
M  END
>  <DihAtoms>  (1) 
12,13,30,31

>  <DihDeg>  (1) 
-88.51604384063198

$$$$
