
     RDKit          3D

 33 36  0  0  0  0  0  0  0  0999 V2000
   44.6255   35.4635   45.1330 C   0  0  0  0  0  0  0  0  0  0  0  0
   45.0946   35.7103   43.8165 C   0  0  0  0  0  0  0  0  0  0  0  0
   46.0406   34.8283   43.3534 C   0  0  0  0  0  0  0  0  0  0  0  0
   46.4883   33.7779   44.1449 N   0  0  0  0  0  0  0  0  0  0  0  0
   46.0141   33.5875   45.3825 C   0  0  0  0  0  0  0  0  0  0  0  0
   45.0746   34.4406   45.8754 N   0  0  0  0  0  0  0  0  0  0  0  0
   46.5417   34.9717   41.9327 C   0  0  1  0  0  0  0  0  0  0  0  0
   48.0618   35.2783   41.9368 C   0  0  0  0  0  0  0  0  0  0  0  0
   47.3907   33.9738   41.3965 C   0  0  2  0  0  0  0  0  0  0  0  0
   44.6510   36.8089   43.0163 N   0  0  0  0  0  0  0  0  0  0  0  0
   43.8760   36.1458   45.5242 H   0  0  0  0  0  0  0  0  0  0  0  0
   46.4382   32.7475   45.8842 H   0  0  0  0  0  0  0  0  0  0  0  0
   45.9563   35.6850   41.3272 H   0  0  0  0  0  0  0  0  0  0  0  0
   48.6260   35.1943   42.8601 H   0  0  0  0  0  0  0  0  0  0  0  0
   48.3820   36.0024   41.1920 H   0  0  0  0  0  0  0  0  0  0  0  0
   47.6248   33.0751   42.0384 H   0  0  0  0  0  0  0  0  0  0  0  0
   45.4106   37.4855   43.2748 H   0  0  0  0  0  0  0  0  0  0  0  0
   43.8127   36.8394   42.3932 H   0  0  0  0  0  0  0  0  0  0  0  0
   47.6664   33.7356   39.9791 C   0  0  0  0  0  0  0  0  0  0  0  0
   48.5766   32.7849   39.6592 N   0  0  0  0  0  0  0  0  0  0  0  0
   48.8426   32.5554   38.3557 C   0  0  0  0  0  0  0  0  0  0  0  0
   48.2547   33.2190   37.3283 N   0  0  0  0  0  0  0  0  0  0  0  0
   47.3378   34.1784   37.6067 C   0  0  0  0  0  0  0  0  0  0  0  0
   46.6825   34.9102   36.6369 C   0  0  0  0  0  0  0  0  0  0  0  0
   45.7531   35.8807   36.9460 C   0  0  0  0  0  0  0  0  0  0  0  0
   45.2375   36.4562   36.1922 H   0  0  0  0  0  0  0  0  0  0  0  0
   45.4721   36.1247   38.2813 C   0  0  0  0  0  0  0  0  0  0  0  0
   44.7457   36.8832   38.5225 H   0  0  0  0  0  0  0  0  0  0  0  0
   46.1387   35.3821   39.2233 C   0  0  0  0  0  0  0  0  0  0  0  0
   47.0704   34.4084   38.9333 C   0  0  0  0  0  0  0  0  0  0  0  0
   49.5511   31.8216   37.9516 H   0  0  0  0  0  0  0  0  0  0  0  0
   46.9043   34.7172   35.5928 H   0  0  0  0  0  0  0  0  0  0  0  0
   45.8781   35.6158   40.2458 H   0  0  0  0  0  0  0  0  0  0  0  0
  1  6  2  0
  2  1  1  0
  3  2  2  0
  3  4  1  0
  4  5  2  0
  5  6  1  0
  7  3  1  0
  8  7  1  0
  9  8  1  0
  9  7  1  0
 10  2  1  0
  1 11  1  0
  5 12  1  0
  7 13  1  6
  8 14  1  0
  8 15  1  0
  9 16  1  1
 10 17  1  0
 10 18  1  0
 19 20  2  0
 20 21  1  0
 21 22  2  0
 22 23  1  0
 23 24  2  0
 24 25  1  0
 25 26  1  0
 25 27  2  0
 27 28  1  0
 27 29  1  0
 29 30  2  0
 30 19  1  0
 30 23  1  0
 21 31  1  0
 24 32  1  0
 29 33  1  0
  9 19  1  0
M  ISO  8  11  14  12  14  13  13  14  13  15  13  16  13  26  16  28  16
M  END
>  <DihAtoms>  (1) 
7,8,18,19

>  <DihDeg>  (1) 
-91.06179748788401

$$$$
