
     RDKit          3D

 44 49  0  0  0  0  0  0  0  0999 V2000
   45.7550   34.7060   43.7270 C   0  0  0  0  0  0  0  0  0  0  0  0
   46.4980   33.6600   44.3290 C   0  0  0  0  0  0  0  0  0  0  0  0
   46.2290   33.3950   45.6650 C   0  0  0  0  0  0  0  0  0  0  0  0
   45.2940   34.1310   46.3080 N   0  0  0  0  0  0  0  0  0  0  0  0
   44.6010   35.1240   45.7010 C   0  0  0  0  0  0  0  0  0  0  0  0
   44.8310   35.4050   44.4290 N   0  0  0  0  0  0  0  0  0  0  0  0
   47.2000   32.6360   47.7620 C   0  0  0  0  0  0  0  0  0  0  0  0
   46.9020   32.3480   46.4330 C   0  0  0  0  0  0  0  0  0  0  0  0
   47.2480   31.1260   45.9320 C   0  0  0  0  0  0  0  0  0  0  0  0
   47.8800   30.1620   46.6840 C   0  0  0  0  0  0  0  0  0  0  0  0
   48.3060   28.9130   46.4010 N   0  0  0  0  0  0  0  0  0  0  0  0
   48.8780   28.4040   47.5580 C   0  0  0  0  0  0  0  0  0  0  0  0
   48.7820   29.3600   48.5120 N   0  0  0  0  0  0  0  0  0  0  0  0
   48.1790   30.4310   47.9950 C   0  0  0  0  0  0  0  0  0  0  0  0
   47.8420   31.6560   48.5280 C   0  0  0  0  0  0  0  0  0  0  0  0
   46.0230   34.9770   42.3770 O   0  0  0  0  0  0  0  0  0  0  0  0
   45.0490   34.7150   41.4150 C   0  0  0  0  0  0  0  0  0  0  0  0
   45.6770   33.7410   40.7330 C   0  0  0  0  0  0  0  0  0  0  0  0
   44.3880   33.3310   39.3950 S   0  0  0  0  0  0  0  0  0  0  0  0
   43.2460   34.6470   40.1200 C   0  0  0  0  0  0  0  0  0  0  0  0
   43.8490   35.0230   40.9530 N   0  0  0  0  0  0  0  0  0  0  0  0
   41.9430   34.7340   39.3670 C   0  0  0  0  0  0  0  0  0  0  0  0
   41.7920   35.3690   38.2270 N   0  0  0  0  0  0  0  0  0  0  0  0
   40.6580   35.4540   37.5440 C   0  0  0  0  0  0  0  0  0  0  0  0
   39.5800   34.8850   37.9880 N   0  0  0  0  0  0  0  0  0  0  0  0
   39.5640   34.1800   39.1710 C   0  0  0  0  0  0  0  0  0  0  0  0
   38.4610   33.5520   39.7040 C   0  0  0  0  0  0  0  0  0  0  0  0
   38.6040   32.8830   40.9010 C   0  0  0  0  0  0  0  0  0  0  0  0
   39.8310   32.8240   41.5790 C   0  0  0  0  0  0  0  0  0  0  0  0
   40.9160   33.4570   41.0260 C   0  0  0  0  0  0  0  0  0  0  0  0
   40.8110   34.1460   39.8200 C   0  0  0  0  0  0  0  0  0  0  0  0
   47.2497   33.0871   43.7662 H   0  0  0  0  0  0  0  0  0  0  0  0
   43.8487   35.6954   46.2645 H   0  0  0  0  0  0  0  0  0  0  0  0
   46.9372   33.6104   48.1997 H   0  0  0  0  0  0  0  0  0  0  0  0
   47.0113   30.9021   44.8814 H   0  0  0  0  0  0  0  0  0  0  0  0
   48.2222   28.4286   45.4959 H   0  0  0  0  0  0  0  0  0  0  0  0
   49.3270   27.4070   47.6782 H   0  0  0  0  0  0  0  0  0  0  0  0
   48.0831   31.8688   49.5799 H   0  0  0  0  0  0  0  0  0  0  0  0
   46.6700   33.2995   40.9031 H   0  0  0  0  0  0  0  0  0  0  0  0
   40.6315   36.0103   36.5954 H   0  0  0  0  0  0  0  0  0  0  0  0
   37.4901   33.5832   39.1879 H   0  0  0  0  0  0  0  0  0  0  0  0
   37.7289   32.3798   41.3381 H   0  0  0  0  0  0  0  0  0  0  0  0
   39.9213   32.2826   42.5323 H   0  0  0  0  0  0  0  0  0  0  0  0
   41.8855   33.4196   41.5443 H   0  0  0  0  0  0  0  0  0  0  0  0
  1  2  2  0
  1  6  1  0
  2  3  1  0
  3  4  2  0
  3  8  1  0
  5  4  1  0
  6  5  2  0
  7 15  2  0
  8  7  1  0
  9  8  2  0
  9 10  1  0
 10 14  2  0
 11 10  1  0
 11 12  1  0
 12 13  2  0
 14 13  1  0
 14 15  1  0
 16  1  1  0
 17 16  1  0
 18 17  2  0
 19 20  1  0
 19 18  1  0
 20 21  2  0
 21 17  1  0
 22 31  1  0
 22 20  1  0
 23 22  2  0
 24 25  2  0
 24 23  1  0
 25 26  1  0
 26 27  1  0
 26 31  2  0
 27 28  2  0
 28 29  1  0
 30 29  2  0
 31 30  1  0
  2 32  1  0
  5 33  1  0
  7 34  1  0
  9 35  1  0
 11 36  1  0
 12 37  1  0
 15 38  1  0
 18 39  1  0
 24 40  1  0
 27 41  1  0
 28 42  1  0
 29 43  1  0
 30 44  1  0
M  END
>  <minimizedAffinity>  (1) 
-7.71737337

>  <minimizedRMSD>  (1) 
0.759895146

$$$$
