
     RDKit          3D

 44 49  0  0  0  0  0  0  0  0999 V2000
   47.3850   31.4270   45.2830 C   0  0  0  0  0  0  0  0  0  0  0  0
   46.8800   32.7100   45.1970 C   0  0  0  0  0  0  0  0  0  0  0  0
   46.1670   33.2930   46.2270 C   0  0  0  0  0  0  0  0  0  0  0  0
   45.9330   32.5790   47.4120 C   0  0  0  0  0  0  0  0  0  0  0  0
   45.2980   32.8160   48.5910 N   0  0  0  0  0  0  0  0  0  0  0  0
   45.4170   31.7080   49.3700 C   0  0  0  0  0  0  0  0  0  0  0  0
   46.1230   30.8040   48.6560 N   0  0  0  0  0  0  0  0  0  0  0  0
   46.4520   31.3070   47.4580 C   0  0  0  0  0  0  0  0  0  0  0  0
   47.1560   30.7070   46.4630 C   0  0  0  0  0  0  0  0  0  0  0  0
   46.4110   35.1580   42.4930 C   0  0  0  0  0  0  0  0  0  0  0  0
   47.5470   34.9650   41.7120 C   0  0  0  0  0  0  0  0  0  0  0  0
   48.4790   33.9900   42.1130 C   0  0  0  0  0  0  0  0  0  0  0  0
   48.2160   33.2820   43.2550 N   0  0  0  0  0  0  0  0  0  0  0  0
   47.0930   33.4990   43.9950 C   0  0  0  0  0  0  0  0  0  0  0  0
   46.1950   34.4300   43.6180 N   0  0  0  0  0  0  0  0  0  0  0  0
   47.6740   29.3380   46.6060 C   0  0  0  0  0  0  0  0  0  0  0  0
   48.8750   28.8880   46.1250 C   0  0  0  0  0  0  0  0  0  0  0  0
   48.8790   27.5420   46.5230 C   0  0  0  0  0  0  0  0  0  0  0  0
   47.7320   27.2430   47.1980 C   0  0  0  0  0  0  0  0  0  0  0  0
   47.0670   28.3730   47.2030 O   0  0  0  0  0  0  0  0  0  0  0  0
   47.1270   26.1020   47.8530 C   0  0  0  0  0  0  0  0  0  0  0  0
   45.8030   25.8410   47.6720 N   0  0  0  0  0  0  0  0  0  0  0  0
   45.1480   24.8910   48.3070 C   0  0  0  0  0  0  0  0  0  0  0  0
   45.7250   24.0740   49.2050 N   0  0  0  0  0  0  0  0  0  0  0  0
   47.0550   24.2420   49.4670 C   0  0  0  0  0  0  0  0  0  0  0  0
   47.7040   23.4320   50.3410 C   0  0  0  0  0  0  0  0  0  0  0  0
   49.0550   23.5580   50.5990 C   0  0  0  0  0  0  0  0  0  0  0  0
   49.7010   24.5760   49.8950 C   0  0  0  0  0  0  0  0  0  0  0  0
   49.0070   25.3730   49.0200 C   0  0  0  0  0  0  0  0  0  0  0  0
   47.6710   25.2480   48.7700 C   0  0  0  0  0  0  0  0  0  0  0  0
   47.9501   30.9838   44.4498 H   0  0  0  0  0  0  0  0  0  0  0  0
   45.7825   34.3178   46.1179 H   0  0  0  0  0  0  0  0  0  0  0  0
   44.8105   33.6857   48.8495 H   0  0  0  0  0  0  0  0  0  0  0  0
   45.0159   31.5736   50.3854 H   0  0  0  0  0  0  0  0  0  0  0  0
   45.6730   35.9162   42.1922 H   0  0  0  0  0  0  0  0  0  0  0  0
   47.7123   35.5609   40.8023 H   0  0  0  0  0  0  0  0  0  0  0  0
   49.3908   33.8024   41.5270 H   0  0  0  0  0  0  0  0  0  0  0  0
   49.6437   29.4425   45.5667 H   0  0  0  0  0  0  0  0  0  0  0  0
   49.6918   26.8293   46.3194 H   0  0  0  0  0  0  0  0  0  0  0  0
   44.0772   24.7599   48.0921 H   0  0  0  0  0  0  0  0  0  0  0  0
   47.1346   22.6481   50.8619 H   0  0  0  0  0  0  0  0  0  0  0  0
   49.5837   22.9037   51.3078 H   0  0  0  0  0  0  0  0  0  0  0  0
   50.7784   24.7409   50.0435 H   0  0  0  0  0  0  0  0  0  0  0  0
   49.5608   26.1604   48.4877 H   0  0  0  0  0  0  0  0  0  0  0  0
  1  9  2  0
  2  1  1  0
  2  3  2  0
  3  4  1  0
  4  8  2  0
  4  5  1  0
  5  6  1  0
  7  6  2  0
  8  7  1  0
  9 16  1  0
  9  8  1  0
 10 15  2  0
 11 12  2  0
 11 10  1  0
 12 13  1  0
 13 14  2  0
 14  2  1  0
 15 14  1  0
 16 20  1  0
 17 18  1  0
 17 16  2  0
 18 19  2  0
 19 20  1  0
 19 21  1  0
 21 30  1  0
 22 21  2  0
 22 23  1  0
 23 24  2  0
 24 25  1  0
 25 26  2  0
 26 27  1  0
 28 27  2  0
 29 28  1  0
 30 29  2  0
 30 25  1  0
  1 31  1  0
  3 32  1  0
  5 33  1  0
  6 34  1  0
 10 35  1  0
 11 36  1  0
 12 37  1  0
 17 38  1  0
 18 39  1  0
 23 40  1  0
 26 41  1  0
 27 42  1  0
 28 43  1  0
 29 44  1  0
M  ISO  8  31  14  32  14  33   9  34  14  35  14  36  14  37  14  38  14
M  ISO  6  39  14  40  14  41  14  42  14  43  14  44  14
M  END
>  <minimizedAffinity>  (1) 
-6.67097139

>  <minimizedRMSD>  (1) 
1.63643873

$$$$
