
     RDKit          3D

 30 32  0  0  1  0  0  0  0  0999 V2000
   42.5850   32.8590   41.4610 C   0  0  0  0  0  0  0  0  0  0  0  0
   43.3420   32.0450   41.9150 N   0  0  0  0  0  0  0  0  0  0  0  0
   44.0780   31.1710   42.3530 C   0  0  0  0  0  0  0  0  0  0  0  0
   44.9070   32.0530   42.9260 N   0  0  0  0  0  0  0  0  0  0  0  0
   44.6760   33.4060   42.8280 C   0  0  0  0  0  0  0  0  0  0  0  0
   45.7070   34.1790   43.4220 C   0  0  0  0  0  0  0  0  0  0  0  0
   45.5660   35.5350   43.2460 C   0  0  0  0  0  0  0  0  0  0  0  0
   44.5220   36.1380   42.5520 C   0  0  0  0  0  0  0  0  0  0  0  0
   43.6500   35.1880   42.0720 C   0  0  0  0  0  0  0  0  0  0  0  0
   43.5190   33.7740   42.0920 C   0  0  0  0  0  0  0  0  0  0  0  0
   41.6540   33.8010   40.8360 C   0  0  0  0  0  0  0  0  0  0  0  0
   40.5510   34.4980   41.2030 C   0  0  0  0  0  0  0  0  0  0  0  0
   40.0230   35.4780   40.4070 C   0  0  0  0  0  0  0  0  0  0  0  0
   40.7110   35.6680   39.2260 N   0  0  0  0  0  0  0  0  0  0  0  0
   41.7840   34.9940   38.8540 C   0  0  0  0  0  0  0  0  0  0  0  0
   42.3050   34.0170   39.6600 N   0  0  0  0  0  0  0  0  0  0  0  0
   39.9090   34.0100   42.4070 N   0  0  0  0  0  0  0  0  0  0  0  0
   41.7393   32.3328   41.9277 H   0  0  0  0  0  0  0  0  0  0  0  0
   44.1374   32.5005   41.4452 H   0  0  0  0  0  0  0  0  0  0  0  0
   43.5830   30.5046   43.0747 H   0  0  0  0  0  0  0  0  0  0  0  0
   44.4948   30.4317   41.6532 H   0  0  0  0  0  0  0  0  0  0  0  0
   45.7284   31.7141   43.4470 H   0  0  0  0  0  0  0  0  0  0  0  0
   46.5461   33.7320   43.9752 H   0  0  0  0  0  0  0  0  0  0  0  0
   46.3331   36.1897   43.6851 H   0  0  0  0  0  0  0  0  0  0  0  0
   44.4093   37.2226   42.4072 H   0  0  0  0  0  0  0  0  0  0  0  0
   42.8225   35.6544   41.5174 H   0  0  0  0  0  0  0  0  0  0  0  0
   39.1319   36.0608   40.6833 H   0  0  0  0  0  0  0  0  0  0  0  0
   42.2629   35.2190   37.8896 H   0  0  0  0  0  0  0  0  0  0  0  0
   39.0629   34.4760   42.7646 H   0  0  0  0  0  0  0  0  0  0  0  0
   40.2988   33.1971   42.9052 H   0  0  0  0  0  0  0  0  0  0  0  0
  1 11  1  0
  1  2  1  0
  1 10  1  0
  2  3  1  0
  3  4  1  0
  5  4  1  0
  5  6  2  0
  7  6  1  0
  8  7  2  0
  9 10  2  0
  9  8  1  0
 10  5  1  0
 11 12  2  0
 12 17  1  0
 13 12  1  0
 14 13  2  0
 15 14  1  0
 15 16  2  0
 16 11  1  0
  1 18  1  0
  2 19  1  0
  3 20  1  0
  3 21  1  0
  4 22  1  0
  6 23  1  0
  7 24  1  0
  8 25  1  0
  9 26  1  0
 13 27  1  0
 15 28  1  0
 17 29  1  0
 17 30  1  0
M  ISO  8  18  13  19   5  20  13  21  13  23  14  24  14  25  14  26  14
M  ISO  2  27  14  28  14
M  END
>  <minimizedAffinity>  (1) 
-4.96296453

>  <minimizedRMSD>  (1) 
6.09643602

$$$$
