
     RDKit          3D

 25 27  0  0  0  0  0  0  0  0999 V2000
   44.2505   35.7842   44.3020 C   0  0  0  0  0  0  0  0  0  0  0  0
   44.4160   34.9450   43.1694 C   0  0  0  0  0  0  0  0  0  0  0  0
   45.0493   33.7093   43.2714 C   0  0  0  0  0  0  0  0  0  0  0  0
   45.5104   33.3324   44.5199 N   0  0  0  0  0  0  0  0  0  0  0  0
   45.3421   34.1391   45.5664 C   0  0  0  0  0  0  0  0  0  0  0  0
   44.7418   35.2938   45.4323 N   0  0  0  0  0  0  0  0  0  0  0  0
   43.8280   35.3952   41.5096 S   0  0  0  0  0  0  0  0  0  0  0  0
   45.1681   33.0895   42.4199 H   0  0  0  0  0  0  0  0  0  0  0  0
   45.6711   33.9219   46.5733 H   0  0  0  0  0  0  0  0  0  0  0  0
   44.6112   36.4297   41.0027 H   0  0  0  0  0  0  0  0  0  0  0  0
   43.5606   37.0210   43.9448 C   0  0  0  0  0  0  0  0  0  0  0  0
   43.9367   38.2346   44.3509 N   0  0  0  0  0  0  0  0  0  0  0  0
   43.3074   39.3630   44.0251 C   0  0  0  0  0  0  0  0  0  0  0  0
   42.2161   39.3799   43.2428 N   0  0  0  0  0  0  0  0  0  0  0  0
   41.7660   38.1885   42.7858 C   0  0  0  0  0  0  0  0  0  0  0  0
   40.6456   38.2224   41.9844 C   0  0  0  0  0  0  0  0  0  0  0  0
   40.1399   37.0400   41.4886 C   0  0  0  0  0  0  0  0  0  0  0  0
   39.2606   37.1264   40.8665 H   0  0  0  0  0  0  0  0  0  0  0  0
   40.7963   35.8518   41.8273 C   0  0  0  0  0  0  0  0  0  0  0  0
   40.3500   34.9734   41.4082 H   0  0  0  0  0  0  0  0  0  0  0  0
   41.9005   35.9128   42.6276 C   0  0  0  0  0  0  0  0  0  0  0  0
   42.4475   37.0472   43.1477 C   0  0  0  0  0  0  0  0  0  0  0  0
   43.7735   40.2530   44.4598 H   0  0  0  0  0  0  0  0  0  0  0  0
   40.1703   39.1654   41.7485 H   0  0  0  0  0  0  0  0  0  0  0  0
   42.3162   34.9502   42.8186 H   0  0  0  0  0  0  0  0  0  0  0  0
  1  6  2  0
  2  3  2  0
  2  1  1  0
  3  4  1  0
  4  5  2  0
  6  5  1  0
  7  2  1  0
  3  8  1  0
  5  9  1  0
  7 10  1  0
 11 12  2  0
 12 13  1  0
 13 14  2  0
 14 15  1  0
 15 16  2  0
 16 17  1  0
 17 18  1  0
 17 19  2  0
 19 20  1  0
 19 21  1  0
 21 22  2  0
 22 11  1  0
 22 15  1  0
 13 23  1  0
 16 24  1  0
 21 25  1  0
  1 11  1  0
M  ISO  5   8  14   9  14  10  11  18  16  20  16
M  END
>  <DihAtoms>  (1) 
5,0,10,11

>  <DihDeg>  (1) 
-179.999940246917

$$$$
