
     RDKit          3D

 25 27  0  0  0  0  0  0  0  0999 V2000
   44.2505   35.7842   44.3020 C   0  0  0  0  0  0  0  0  0  0  0  0
   44.4160   34.9450   43.1694 C   0  0  0  0  0  0  0  0  0  0  0  0
   45.0493   33.7093   43.2714 C   0  0  0  0  0  0  0  0  0  0  0  0
   45.5104   33.3324   44.5199 N   0  0  0  0  0  0  0  0  0  0  0  0
   45.3421   34.1391   45.5664 C   0  0  0  0  0  0  0  0  0  0  0  0
   44.7418   35.2938   45.4323 N   0  0  0  0  0  0  0  0  0  0  0  0
   43.8280   35.3952   41.5096 S   0  0  0  0  0  0  0  0  0  0  0  0
   45.1681   33.0895   42.4199 H   0  0  0  0  0  0  0  0  0  0  0  0
   45.6711   33.9219   46.5733 H   0  0  0  0  0  0  0  0  0  0  0  0
   44.6112   36.4297   41.0027 H   0  0  0  0  0  0  0  0  0  0  0  0
   43.5606   37.0210   43.9448 C   0  0  0  0  0  0  0  0  0  0  0  0
   42.4753   37.0789   43.1715 N   0  0  0  0  0  0  0  0  0  0  0  0
   41.8458   38.2070   42.8456 C   0  0  0  0  0  0  0  0  0  0  0  0
   42.2559   39.4114   43.2752 N   0  0  0  0  0  0  0  0  0  0  0  0
   43.3526   39.4435   44.0669 C   0  0  0  0  0  0  0  0  0  0  0  0
   43.7608   40.6865   44.4996 C   0  0  0  0  0  0  0  0  0  0  0  0
   44.8722   40.7831   45.3090 C   0  0  0  0  0  0  0  0  0  0  0  0
   45.1463   41.7817   45.6178 H   0  0  0  0  0  0  0  0  0  0  0  0
   45.5375   39.6019   45.6546 C   0  0  0  0  0  0  0  0  0  0  0  0
   46.3905   39.7511   46.2843 H   0  0  0  0  0  0  0  0  0  0  0  0
   45.0621   38.4135   45.1799 C   0  0  0  0  0  0  0  0  0  0  0  0
   43.9719   38.2530   44.3785 C   0  0  0  0  0  0  0  0  0  0  0  0
   40.9761   38.0405   42.2020 H   0  0  0  0  0  0  0  0  0  0  0  0
   43.2152   41.5739   44.2069 H   0  0  0  0  0  0  0  0  0  0  0  0
   45.6461   37.5839   45.5065 H   0  0  0  0  0  0  0  0  0  0  0  0
  1  6  2  0
  2  3  2  0
  2  1  1  0
  3  4  1  0
  4  5  2  0
  6  5  1  0
  7  2  1  0
  3  8  1  0
  5  9  1  0
  7 10  1  0
 11 12  2  0
 12 13  1  0
 13 14  2  0
 14 15  1  0
 15 16  2  0
 16 17  1  0
 17 18  1  0
 17 19  2  0
 19 20  1  0
 19 21  1  0
 21 22  2  0
 22 11  1  0
 22 15  1  0
 13 23  1  0
 16 24  1  0
 21 25  1  0
  1 11  1  0
M  ISO  5   8  14   9  14  10  11  18  16  20  16
M  END
>  <DihAtoms>  (1) 
5,0,10,11

>  <DihDeg>  (1) 
-179.999940246917

$$$$
