
     RDKit          3D

 41 44  0  0  1  0  0  0  0  0999 V2000
   46.5340   34.8550   42.1380 N   0  0  0  0  0  0  0  0  0  0  0  0
   47.7650   35.5610   41.9340 C   0  0  0  0  0  0  0  0  0  0  0  0
   48.7490   34.7240   41.2340 C   0  0  0  0  0  0  0  0  0  0  0  0
   48.2420   33.5770   40.4670 C   0  0  0  0  0  0  0  0  0  0  0  0
   46.8200   33.5660   40.0790 C   0  0  0  0  0  0  0  0  0  0  0  0
   45.8560   34.2970   40.9770 C   0  0  1  0  0  0  0  0  0  0  0  0
   44.6930   33.4630   41.3480 C   0  0  0  0  0  0  0  0  0  0  0  0
   44.7700   32.2870   41.9970 N   0  0  0  0  0  0  0  0  0  0  0  0
   43.6830   31.5730   42.3170 C   0  0  0  0  0  0  0  0  0  0  0  0
   42.4180   31.9430   42.0320 N   0  0  0  0  0  0  0  0  0  0  0  0
   42.2780   33.1200   41.3780 C   0  0  0  0  0  0  0  0  0  0  0  0
   40.9940   33.5140   41.0730 C   0  0  0  0  0  0  0  0  0  0  0  0
   40.7760   34.6830   40.4140 C   0  0  0  0  0  0  0  0  0  0  0  0
   41.8580   35.4520   40.0630 C   0  0  0  0  0  0  0  0  0  0  0  0
   43.1220   35.0200   40.3860 C   0  0  0  0  0  0  0  0  0  0  0  0
   43.4010   33.8440   41.0540 C   0  0  0  0  0  0  0  0  0  0  0  0
   45.0580   35.6900   43.8650 C   0  0  0  0  0  0  0  0  0  0  0  0
   45.9980   34.7140   43.4290 C   0  0  0  0  0  0  0  0  0  0  0  0
   46.3300   33.6790   44.3070 C   0  0  0  0  0  0  0  0  0  0  0  0
   45.7200   33.6900   45.5220 N   0  0  0  0  0  0  0  0  0  0  0  0
   44.8410   34.6140   45.9110 C   0  0  0  0  0  0  0  0  0  0  0  0
   44.5030   35.6220   45.0860 N   0  0  0  0  0  0  0  0  0  0  0  0
   44.6980   36.7580   42.9900 N   0  0  0  0  0  0  0  0  0  0  0  0
   47.5671   36.4606   41.3328 H   0  0  0  0  0  0  0  0  0  0  0  0
   48.1767   35.8336   42.9169 H   0  0  0  0  0  0  0  0  0  0  0  0
   49.2948   35.3732   40.5336 H   0  0  0  0  0  0  0  0  0  0  0  0
   49.3576   34.2784   42.0347 H   0  0  0  0  0  0  0  0  0  0  0  0
   48.8322   33.5189   39.5406 H   0  0  0  0  0  0  0  0  0  0  0  0
   48.3404   32.7259   41.1569 H   0  0  0  0  0  0  0  0  0  0  0  0
   46.7465   34.0164   39.0781 H   0  0  0  0  0  0  0  0  0  0  0  0
   46.5179   32.5100   40.1383 H   0  0  0  0  0  0  0  0  0  0  0  0
   45.4509   35.1429   40.4022 H   0  0  0  0  0  0  0  0  0  0  0  0
   43.8321   30.6211   42.8478 H   0  0  0  0  0  0  0  0  0  0  0  0
   40.1425   32.8811   41.3634 H   0  0  0  0  0  0  0  0  0  0  0  0
   39.7539   35.0061   40.1671 H   0  0  0  0  0  0  0  0  0  0  0  0
   41.7147   36.4031   39.5293 H   0  0  0  0  0  0  0  0  0  0  0  0
   43.9706   35.6552   40.0920 H   0  0  0  0  0  0  0  0  0  0  0  0
   47.0491   32.8944   44.0290 H   0  0  0  0  0  0  0  0  0  0  0  0
   44.3895   34.5520   46.9121 H   0  0  0  0  0  0  0  0  0  0  0  0
   45.1182   36.8188   42.0516 H   0  0  0  0  0  0  0  0  0  0  0  0
   44.0179   37.4681   43.2968 H   0  0  0  0  0  0  0  0  0  0  0  0
  1 18  1  0
  2  1  1  0
  3  2  1  0
  4  3  1  0
  5  4  1  0
  5  6  1  0
  6  7  1  0
  6  1  1  0
  7  8  2  0
  8  9  1  0
 10  9  2  0
 11 10  1  0
 12 11  2  0
 13 12  1  0
 14 15  1  0
 14 13  2  0
 15 16  2  0
 16  7  1  0
 16 11  1  0
 17 22  2  0
 18 17  1  0
 18 19  2  0
 19 20  1  0
 20 21  2  0
 22 21  1  0
 23 17  1  0
  2 24  1  0
  2 25  1  0
  3 26  1  0
  3 27  1  0
  4 28  1  0
  4 29  1  0
  5 30  1  0
  5 31  1  0
  6 32  1  6
  9 33  1  0
 12 34  1  0
 13 35  1  0
 14 36  1  0
 15 37  1  0
 19 38  1  0
 21 39  1  0
 23 40  1  0
 23 41  1  0
M  ISO  8  24  13  25  13  26  13  27  13  28  13  29  13  30  13  31  13
M  ISO  8  32  13  33  14  34  14  35  14  36  14  37  14  38  14  39  14
M  END
>  <minimizedAffinity>  (1) 
-6.33794594

>  <minimizedRMSD>  (1) 
0.55321461

$$$$
