
     RDKit          3D

 53 57  0  0  1  0  0  0  0  0999 V2000
   47.5760   34.1480   43.2830 C   0  0  0  0  0  0  0  0  0  0  0  0
   48.6030   33.7120   42.3970 N   0  0  0  0  0  0  0  0  0  0  0  0
   49.8290   34.4040   42.5760 C   0  0  0  0  0  0  0  0  0  0  0  0
   50.9470   33.4420   42.2730 C   0  0  0  0  0  0  0  0  0  0  0  0
   50.3340   32.1160   42.5880 C   0  0  0  0  0  0  0  0  0  0  0  0
   48.8430   32.2910   42.4800 C   0  0  2  0  0  0  0  0  0  0  0  0
   48.4220   31.7440   41.1640 C   0  0  0  0  0  0  0  0  0  0  0  0
   48.1470   30.4320   40.9800 N   0  0  0  0  0  0  0  0  0  0  0  0
   47.7660   29.9170   39.7970 C   0  0  0  0  0  0  0  0  0  0  0  0
   47.6240   30.6690   38.6910 N   0  0  0  0  0  0  0  0  0  0  0  0
   47.8820   31.9840   38.8040 C   0  0  0  0  0  0  0  0  0  0  0  0
   47.7420   32.7760   37.6790 C   0  0  0  0  0  0  0  0  0  0  0  0
   48.0000   34.1280   37.7650 C   0  0  0  0  0  0  0  0  0  0  0  0
   48.3980   34.6880   38.9830 C   0  0  0  0  0  0  0  0  0  0  0  0
   48.5250   33.8550   40.0880 C   0  0  0  0  0  0  0  0  0  0  0  0
   48.2730   32.5000   40.0220 C   0  0  0  0  0  0  0  0  0  0  0  0
   45.7520   34.7130   41.7440 C   0  0  0  0  0  0  0  0  0  0  0  0
   46.1950   33.9240   42.7330 C   0  0  0  0  0  0  0  0  0  0  0  0
   44.0620   33.4200   40.3650 C   0  0  0  0  0  0  0  0  0  0  0  0
   44.4140   34.5560   41.1560 C   0  0  0  0  0  0  0  0  0  0  0  0
   43.4510   35.5500   41.3770 C   0  0  0  0  0  0  0  0  0  0  0  0
   42.2190   35.3830   40.8230 N   0  0  0  0  0  0  0  0  0  0  0  0
   41.9200   34.3170   40.0930 C   0  0  0  0  0  0  0  0  0  0  0  0
   42.8370   33.3510   39.8700 N   0  0  0  0  0  0  0  0  0  0  0  0
   39.7430   33.5740   41.6550 F   0  0  0  0  0  0  0  0  0  0  0  0
   39.5100   33.8020   40.3330 C   0  0  0  0  0  0  0  0  0  0  0  0
   40.5850   34.1780   39.5180 C   0  0  0  0  0  0  0  0  0  0  0  0
   40.4240   34.4250   38.1730 C   0  0  0  0  0  0  0  0  0  0  0  0
   39.1410   34.2860   37.6470 C   0  0  0  0  0  0  0  0  0  0  0  0
   38.0410   33.9080   38.4520 C   0  0  0  0  0  0  0  0  0  0  0  0
   38.2500   33.6690   39.8040 C   0  0  0  0  0  0  0  0  0  0  0  0
   47.6708   33.5953   44.2293 H   0  0  0  0  0  0  0  0  0  0  0  0
   47.7023   35.2312   43.4272 H   0  0  0  0  0  0  0  0  0  0  0  0
   49.8778   35.2629   41.8904 H   0  0  0  0  0  0  0  0  0  0  0  0
   49.9125   34.7789   43.6068 H   0  0  0  0  0  0  0  0  0  0  0  0
   51.2447   33.5002   41.2157 H   0  0  0  0  0  0  0  0  0  0  0  0
   51.8647   33.6454   42.8444 H   0  0  0  0  0  0  0  0  0  0  0  0
   50.6796   31.3584   41.8692 H   0  0  0  0  0  0  0  0  0  0  0  0
   50.6203   31.7773   43.5946 H   0  0  0  0  0  0  0  0  0  0  0  0
   48.3214   31.8089   43.3200 H   0  0  0  0  0  0  0  0  0  0  0  0
   47.5625   28.8380   39.7317 H   0  0  0  0  0  0  0  0  0  0  0  0
   47.4274   32.3312   36.7234 H   0  0  0  0  0  0  0  0  0  0  0  0
   47.8927   34.7660   36.8754 H   0  0  0  0  0  0  0  0  0  0  0  0
   48.6061   35.7650   39.0647 H   0  0  0  0  0  0  0  0  0  0  0  0
   48.8372   34.2909   41.0485 H   0  0  0  0  0  0  0  0  0  0  0  0
   46.4120   35.5046   41.3595 H   0  0  0  0  0  0  0  0  0  0  0  0
   45.5570   33.1239   43.1364 H   0  0  0  0  0  0  0  0  0  0  0  0
   44.7927   32.6208   40.1718 H   0  0  0  0  0  0  0  0  0  0  0  0
   43.6841   36.4395   41.9808 H   0  0  0  0  0  0  0  0  0  0  0  0
   41.2735   34.7200   37.5395 H   0  0  0  0  0  0  0  0  0  0  0  0
   38.9791   34.4756   36.5756 H   0  0  0  0  0  0  0  0  0  0  0  0
   37.0370   33.8051   38.0145 H   0  0  0  0  0  0  0  0  0  0  0  0
   37.4090   33.3742   40.4488 H   0  0  0  0  0  0  0  0  0  0  0  0
  2  6  1  0
  2  3  1  0
  2  1  1  0
  4  3  1  0
  4  5  1  0
  6  5  1  0
  7  6  1  0
  8  7  2  0
  9  8  1  0
 10 11  1  0
 10  9  2  0
 11 16  2  0
 12 13  2  0
 12 11  1  0
 13 14  1  0
 14 15  2  0
 16 15  1  0
 16  7  1  0
 17 18  2  0
 18  1  1  0
 19 20  2  0
 20 21  1  0
 20 17  1  0
 22 21  2  0
 23 22  1  0
 24 23  2  0
 24 19  1  0
 26 25  1  0
 27 23  1  0
 27 26  2  0
 28 27  1  0
 29 28  2  0
 29 30  1  0
 30 31  2  0
 31 26  1  0
  1 32  1  0
  1 33  1  0
  3 34  1  0
  3 35  1  0
  4 36  1  0
  4 37  1  0
  5 38  1  0
  5 39  1  0
  6 40  1  1
  9 41  1  0
 12 42  1  0
 13 43  1  0
 14 44  1  0
 15 45  1  0
 17 46  1  0
 18 47  1  0
 19 48  1  0
 21 49  1  0
 28 50  1  0
 29 51  1  0
 30 52  1  0
 31 53  1  0
M  ISO  8  32   8  33   8  34  13  35  13  36  13  37  13  38  13  39  13
M  ISO  8  40  13  41  14  42  14  43  14  44  14  45  14  48  14  49  14
M  ISO  4  50  14  51  14  52  14  53  14
M  END
>  <minimizedAffinity>  (1) 
-6.77458048

>  <minimizedRMSD>  (1) 
2.21794605

$$$$
