
     RDKit          3D

 25 27  0  0  0  0  0  0  0  0999 V2000
   44.2505   35.7842   44.3020 C   0  0  0  0  0  0  0  0  0  0  0  0
   44.4160   34.9450   43.1694 C   0  0  0  0  0  0  0  0  0  0  0  0
   45.0493   33.7093   43.2714 C   0  0  0  0  0  0  0  0  0  0  0  0
   45.5104   33.3324   44.5199 N   0  0  0  0  0  0  0  0  0  0  0  0
   45.3421   34.1391   45.5664 C   0  0  0  0  0  0  0  0  0  0  0  0
   44.7418   35.2938   45.4323 N   0  0  0  0  0  0  0  0  0  0  0  0
   43.8280   35.3952   41.5096 S   0  0  0  0  0  0  0  0  0  0  0  0
   45.1681   33.0895   42.4199 H   0  0  0  0  0  0  0  0  0  0  0  0
   45.6711   33.9219   46.5733 H   0  0  0  0  0  0  0  0  0  0  0  0
   44.6112   36.4297   41.0027 H   0  0  0  0  0  0  0  0  0  0  0  0
   43.5606   37.0210   43.9448 C   0  0  0  0  0  0  0  0  0  0  0  0
   43.3955   37.4543   42.6941 N   0  0  0  0  0  0  0  0  0  0  0  0
   42.7661   38.5825   42.3681 C   0  0  0  0  0  0  0  0  0  0  0  0
   42.2307   39.4011   43.2881 N   0  0  0  0  0  0  0  0  0  0  0  0
   42.3533   39.0358   44.5851 C   0  0  0  0  0  0  0  0  0  0  0  0
   41.7988   39.8859   45.5171 C   0  0  0  0  0  0  0  0  0  0  0  0
   41.8919   39.5670   46.8547 C   0  0  0  0  0  0  0  0  0  0  0  0
   41.4397   40.2693   47.5403 H   0  0  0  0  0  0  0  0  0  0  0  0
   42.5517   38.3836   47.2033 C   0  0  0  0  0  0  0  0  0  0  0  0
   42.5865   38.1991   48.2573 H   0  0  0  0  0  0  0  0  0  0  0  0
   43.0710   37.6011   46.2126 C   0  0  0  0  0  0  0  0  0  0  0  0
   43.0118   37.8613   44.8764 C   0  0  0  0  0  0  0  0  0  0  0  0
   42.7376   38.7592   41.2881 H   0  0  0  0  0  0  0  0  0  0  0  0
   41.2974   40.7914   45.2014 H   0  0  0  0  0  0  0  0  0  0  0  0
   43.5491   36.7284   46.5942 H   0  0  0  0  0  0  0  0  0  0  0  0
  1  6  2  0
  2  3  2  0
  2  1  1  0
  3  4  1  0
  4  5  2  0
  6  5  1  0
  7  2  1  0
  3  8  1  0
  5  9  1  0
  7 10  1  0
 11 12  2  0
 12 13  1  0
 13 14  2  0
 14 15  1  0
 15 16  2  0
 16 17  1  0
 17 18  1  0
 17 19  2  0
 19 20  1  0
 19 21  1  0
 21 22  2  0
 22 11  1  0
 22 15  1  0
 13 23  1  0
 16 24  1  0
 21 25  1  0
  1 11  1  0
M  ISO  5   8  14   9  14  10  11  18  16  20  16
M  END
>  <DihAtoms>  (1) 
5,0,10,11

>  <DihDeg>  (1) 
-179.999940246917

$$$$
