
     RDKit          3D

 25 27  0  0  0  0  0  0  0  0999 V2000
   44.2505   35.7842   44.3020 C   0  0  0  0  0  0  0  0  0  0  0  0
   44.4160   34.9450   43.1694 C   0  0  0  0  0  0  0  0  0  0  0  0
   45.0493   33.7093   43.2714 C   0  0  0  0  0  0  0  0  0  0  0  0
   45.5104   33.3324   44.5199 N   0  0  0  0  0  0  0  0  0  0  0  0
   45.3421   34.1391   45.5664 C   0  0  0  0  0  0  0  0  0  0  0  0
   44.7418   35.2938   45.4323 N   0  0  0  0  0  0  0  0  0  0  0  0
   43.8280   35.3952   41.5096 S   0  0  0  0  0  0  0  0  0  0  0  0
   45.1681   33.0895   42.4199 H   0  0  0  0  0  0  0  0  0  0  0  0
   45.6711   33.9219   46.5733 H   0  0  0  0  0  0  0  0  0  0  0  0
   44.6112   36.4297   41.0027 H   0  0  0  0  0  0  0  0  0  0  0  0
   43.5606   37.0210   43.9448 C   0  0  0  0  0  0  0  0  0  0  0  0
   42.2363   37.1775   43.9748 N   0  0  0  0  0  0  0  0  0  0  0  0
   41.6068   38.3057   43.6490 C   0  0  0  0  0  0  0  0  0  0  0  0
   42.2625   39.4088   43.2533 N   0  0  0  0  0  0  0  0  0  0  0  0
   43.6123   39.3365   43.1947 C   0  0  0  0  0  0  0  0  0  0  0  0
   44.2707   40.4763   42.7870 C   0  0  0  0  0  0  0  0  0  0  0  0
   45.6466   40.4637   42.7076 C   0  0  0  0  0  0  0  0  0  0  0  0
   46.1094   41.3845   42.3824 H   0  0  0  0  0  0  0  0  0  0  0  0
   46.3132   39.2819   43.0484 C   0  0  0  0  0  0  0  0  0  0  0  0
   47.3788   39.3435   42.9638 H   0  0  0  0  0  0  0  0  0  0  0  0
   45.5795   38.2001   43.4420 C   0  0  0  0  0  0  0  0  0  0  0  0
   44.2214   38.1502   43.5405 C   0  0  0  0  0  0  0  0  0  0  0  0
   40.5185   38.2294   43.7396 H   0  0  0  0  0  0  0  0  0  0  0  0
   43.7135   41.3684   42.5330 H   0  0  0  0  0  0  0  0  0  0  0  0
   46.1909   37.3592   43.6761 H   0  0  0  0  0  0  0  0  0  0  0  0
  1  6  2  0
  2  3  2  0
  2  1  1  0
  3  4  1  0
  4  5  2  0
  6  5  1  0
  7  2  1  0
  3  8  1  0
  5  9  1  0
  7 10  1  0
 11 12  2  0
 12 13  1  0
 13 14  2  0
 14 15  1  0
 15 16  2  0
 16 17  1  0
 17 18  1  0
 17 19  2  0
 19 20  1  0
 19 21  1  0
 21 22  2  0
 22 11  1  0
 22 15  1  0
 13 23  1  0
 16 24  1  0
 21 25  1  0
  1 11  1  0
M  ISO  5   8  14   9  14  10  11  18  16  20  16
M  END
>  <DihAtoms>  (1) 
5,0,10,11

>  <DihDeg>  (1) 
-179.999940246917

$$$$
