
     RDKit          3D

 25 27  0  0  0  0  0  0  0  0999 V2000
   44.2505   35.7842   44.3020 C   0  0  0  0  0  0  0  0  0  0  0  0
   44.4160   34.9450   43.1694 C   0  0  0  0  0  0  0  0  0  0  0  0
   45.0493   33.7093   43.2714 C   0  0  0  0  0  0  0  0  0  0  0  0
   45.5104   33.3324   44.5199 N   0  0  0  0  0  0  0  0  0  0  0  0
   45.3421   34.1391   45.5664 C   0  0  0  0  0  0  0  0  0  0  0  0
   44.7418   35.2938   45.4323 N   0  0  0  0  0  0  0  0  0  0  0  0
   43.8280   35.3952   41.5096 S   0  0  0  0  0  0  0  0  0  0  0  0
   45.1681   33.0895   42.4199 H   0  0  0  0  0  0  0  0  0  0  0  0
   45.6711   33.9219   46.5733 H   0  0  0  0  0  0  0  0  0  0  0  0
   44.6112   36.4297   41.0027 H   0  0  0  0  0  0  0  0  0  0  0  0
   43.5606   37.0210   43.9448 C   0  0  0  0  0  0  0  0  0  0  0  0
   43.6357   37.6036   42.7472 N   0  0  0  0  0  0  0  0  0  0  0  0
   43.0064   38.7318   42.4212 C   0  0  0  0  0  0  0  0  0  0  0  0
   42.2241   39.3970   43.2866 N   0  0  0  0  0  0  0  0  0  0  0  0
   42.0924   38.8736   44.5273 C   0  0  0  0  0  0  0  0  0  0  0  0
   41.2867   39.5675   45.4037 C   0  0  0  0  0  0  0  0  0  0  0  0
   41.1139   39.0833   46.6825 C   0  0  0  0  0  0  0  0  0  0  0  0
   40.4721   39.6677   47.3261 H   0  0  0  0  0  0  0  0  0  0  0  0
   41.7722   37.8990   47.0307 C   0  0  0  0  0  0  0  0  0  0  0  0
   41.5934   37.5817   48.0376 H   0  0  0  0  0  0  0  0  0  0  0  0
   42.5513   37.2779   46.0975 C   0  0  0  0  0  0  0  0  0  0  0  0
   42.7612   37.7054   44.8209 C   0  0  0  0  0  0  0  0  0  0  0  0
   43.1975   39.0451   41.3899 H   0  0  0  0  0  0  0  0  0  0  0  0
   40.7968   40.4801   45.0906 H   0  0  0  0  0  0  0  0  0  0  0  0
   43.0017   36.3880   46.4730 H   0  0  0  0  0  0  0  0  0  0  0  0
  1  6  2  0
  2  3  2  0
  2  1  1  0
  3  4  1  0
  4  5  2  0
  6  5  1  0
  7  2  1  0
  3  8  1  0
  5  9  1  0
  7 10  1  0
 11 12  2  0
 12 13  1  0
 13 14  2  0
 14 15  1  0
 15 16  2  0
 16 17  1  0
 17 18  1  0
 17 19  2  0
 19 20  1  0
 19 21  1  0
 21 22  2  0
 22 11  1  0
 22 15  1  0
 13 23  1  0
 16 24  1  0
 21 25  1  0
  1 11  1  0
M  ISO  5   8  14   9  14  10  11  18  16  20  16
M  END
>  <DihAtoms>  (1) 
5,0,10,11

>  <DihDeg>  (1) 
-179.999940246917

$$$$
