
     RDKit          3D

 25 27  0  0  0  0  0  0  0  0999 V2000
   44.2505   35.7842   44.3020 C   0  0  0  0  0  0  0  0  0  0  0  0
   44.4160   34.9450   43.1694 C   0  0  0  0  0  0  0  0  0  0  0  0
   45.0493   33.7093   43.2714 C   0  0  0  0  0  0  0  0  0  0  0  0
   45.5104   33.3324   44.5199 N   0  0  0  0  0  0  0  0  0  0  0  0
   45.3421   34.1391   45.5664 C   0  0  0  0  0  0  0  0  0  0  0  0
   44.7418   35.2938   45.4323 N   0  0  0  0  0  0  0  0  0  0  0  0
   43.8280   35.3952   41.5096 S   0  0  0  0  0  0  0  0  0  0  0  0
   45.1681   33.0895   42.4199 H   0  0  0  0  0  0  0  0  0  0  0  0
   45.6711   33.9219   46.5733 H   0  0  0  0  0  0  0  0  0  0  0  0
   44.6112   36.4297   41.0027 H   0  0  0  0  0  0  0  0  0  0  0  0
   43.5606   37.0210   43.9448 C   0  0  0  0  0  0  0  0  0  0  0  0
   42.6660   37.1244   42.9608 N   0  0  0  0  0  0  0  0  0  0  0  0
   42.0365   38.2526   42.6349 C   0  0  0  0  0  0  0  0  0  0  0  0
   42.2506   39.4101   43.2809 N   0  0  0  0  0  0  0  0  0  0  0  0
   43.1454   39.3941   44.2957 C   0  0  0  0  0  0  0  0  0  0  0  0
   43.3542   40.5894   44.9487 C   0  0  0  0  0  0  0  0  0  0  0  0
   44.2544   40.6355   45.9913 C   0  0  0  0  0  0  0  0  0  0  0  0
   44.3780   41.5982   46.4664 H   0  0  0  0  0  0  0  0  0  0  0  0
   44.9186   39.4541   46.3382 C   0  0  0  0  0  0  0  0  0  0  0  0
   45.6020   39.5629   47.1552 H   0  0  0  0  0  0  0  0  0  0  0  0
   44.6494   38.3149   45.6358 C   0  0  0  0  0  0  0  0  0  0  0  0
   43.7729   38.2055   44.5983 C   0  0  0  0  0  0  0  0  0  0  0  0
   41.3412   38.1277   41.7986 H   0  0  0  0  0  0  0  0  0  0  0  0
   42.8176   41.4789   44.6459 H   0  0  0  0  0  0  0  0  0  0  0  0
   45.2114   37.4802   45.9866 H   0  0  0  0  0  0  0  0  0  0  0  0
  1  6  2  0
  2  3  2  0
  2  1  1  0
  3  4  1  0
  4  5  2  0
  6  5  1  0
  7  2  1  0
  3  8  1  0
  5  9  1  0
  7 10  1  0
 11 12  2  0
 12 13  1  0
 13 14  2  0
 14 15  1  0
 15 16  2  0
 16 17  1  0
 17 18  1  0
 17 19  2  0
 19 20  1  0
 19 21  1  0
 21 22  2  0
 22 11  1  0
 22 15  1  0
 13 23  1  0
 16 24  1  0
 21 25  1  0
  1 11  1  0
M  ISO  5   8  14   9  14  10  11  18  16  20  16
M  END
>  <DihAtoms>  (1) 
5,0,10,11

>  <DihDeg>  (1) 
-179.999940246917

$$$$
