
     RDKit          3D

 28 30  0  0  0  0  0  0  0  0999 V2000
   44.9123   35.1381   44.0472 C   0  0  0  0  0  0  0  0  0  0  0  0
   45.7380   35.3789   42.9483 C   0  0  0  0  0  0  0  0  0  0  0  0
   46.9609   34.6756   42.8115 C   0  0  0  0  0  0  0  0  0  0  0  0
   47.2439   33.7848   43.8073 N   0  0  0  0  0  0  0  0  0  0  0  0
   46.4286   33.5750   44.8530 C   0  0  0  0  0  0  0  0  0  0  0  0
   45.2804   34.2520   44.9559 N   0  0  0  0  0  0  0  0  0  0  0  0
   43.6971   35.8374   44.1726 N   0  0  0  0  0  0  0  0  0  0  0  0
   47.7214   34.9687   41.6383 C   0  0  0  0  0  0  0  0  0  0  0  0
   48.6844   35.8245   41.6568 O   0  0  0  0  0  0  0  0  0  0  0  0
   45.4396   36.0948   42.2162 H   0  0  0  0  0  0  0  0  0  0  0  0
   46.7616   32.8393   45.5831 H   0  0  0  0  0  0  0  0  0  0  0  0
   43.8625   36.7893   44.5938 H   0  0  0  0  0  0  0  0  0  0  0  0
   42.7866   35.4087   43.8678 H   0  0  0  0  0  0  0  0  0  0  0  0
   47.7350   34.5320   40.2358 C   0  0  0  0  0  0  0  0  0  0  0  0
   47.7946   33.2205   39.9567 N   0  0  0  0  0  0  0  0  0  0  0  0
   47.8135   32.7309   38.6736 C   0  0  0  0  0  0  0  0  0  0  0  0
   47.7722   33.5586   37.6218 N   0  0  0  0  0  0  0  0  0  0  0  0
   47.7100   34.9033   37.8047 C   0  0  0  0  0  0  0  0  0  0  0  0
   47.6618   35.7579   36.7322 C   0  0  0  0  0  0  0  0  0  0  0  0
   47.5926   37.1168   36.9174 C   0  0  0  0  0  0  0  0  0  0  0  0
   47.5598   37.6869   36.0110 H   0  0  0  0  0  0  0  0  0  0  0  0
   47.5741   37.5758   38.2344 C   0  0  0  0  0  0  0  0  0  0  0  0
   47.5194   38.6429   38.3439 H   0  0  0  0  0  0  0  0  0  0  0  0
   47.6250   36.6700   39.2539 C   0  0  0  0  0  0  0  0  0  0  0  0
   47.6952   35.3065   39.1204 C   0  0  0  0  0  0  0  0  0  0  0  0
   47.8637   31.6457   38.6073 H   0  0  0  0  0  0  0  0  0  0  0  0
   47.6812   35.3033   35.7508 H   0  0  0  0  0  0  0  0  0  0  0  0
   47.5986   37.1202   40.2145 H   0  0  0  0  0  0  0  0  0  0  0  0
  1  7  1  0
  1  6  2  0
  2  1  1  0
  3  2  2  0
  3  4  1  0
  4  5  2  0
  5  6  1  0
  8  3  1  0
  9  8  2  0
  2 10  1  0
  5 11  1  0
  7 12  1  0
  7 13  1  0
 14 15  2  0
 15 16  1  0
 16 17  2  0
 17 18  1  0
 18 19  2  0
 19 20  1  0
 20 21  1  0
 20 22  2  0
 22 23  1  0
 22 24  1  0
 24 25  2  0
 25 14  1  0
 25 18  1  0
 16 26  1  0
 19 27  1  0
 24 28  1  0
  8 14  1  0
M  ISO  4  10  14  11  14  21  16  23  16
M  END
>  <DihAtoms>  (1) 
2,7,13,14

>  <DihDeg>  (1) 
172.31374761325276

$$$$
