
     RDKit          3D

 28 30  0  0  0  0  0  0  0  0999 V2000
   44.9123   35.1381   44.0472 C   0  0  0  0  0  0  0  0  0  0  0  0
   45.7380   35.3789   42.9483 C   0  0  0  0  0  0  0  0  0  0  0  0
   46.9609   34.6756   42.8115 C   0  0  0  0  0  0  0  0  0  0  0  0
   47.2439   33.7848   43.8073 N   0  0  0  0  0  0  0  0  0  0  0  0
   46.4286   33.5750   44.8530 C   0  0  0  0  0  0  0  0  0  0  0  0
   45.2804   34.2520   44.9559 N   0  0  0  0  0  0  0  0  0  0  0  0
   43.6971   35.8374   44.1726 N   0  0  0  0  0  0  0  0  0  0  0  0
   47.7214   34.9687   41.6383 C   0  0  0  0  0  0  0  0  0  0  0  0
   48.6844   35.8245   41.6568 O   0  0  0  0  0  0  0  0  0  0  0  0
   45.4396   36.0948   42.2162 H   0  0  0  0  0  0  0  0  0  0  0  0
   46.7616   32.8393   45.5831 H   0  0  0  0  0  0  0  0  0  0  0  0
   43.8625   36.7893   44.5938 H   0  0  0  0  0  0  0  0  0  0  0  0
   42.7866   35.4087   43.8678 H   0  0  0  0  0  0  0  0  0  0  0  0
   47.7350   34.5320   40.2358 C   0  0  0  0  0  0  0  0  0  0  0  0
   48.3720   33.3972   39.9073 N   0  0  0  0  0  0  0  0  0  0  0  0
   48.4331   32.9217   38.6202 C   0  0  0  0  0  0  0  0  0  0  0  0
   47.8468   33.5837   37.6147 N   0  0  0  0  0  0  0  0  0  0  0  0
   47.1775   34.7423   37.8496 C   0  0  0  0  0  0  0  0  0  0  0  0
   46.5693   35.4238   36.8256 C   0  0  0  0  0  0  0  0  0  0  0  0
   45.8875   36.5916   37.0643 C   0  0  0  0  0  0  0  0  0  0  0  0
   45.4531   37.0378   36.1927 H   0  0  0  0  0  0  0  0  0  0  0  0
   45.8464   37.0420   38.3838 C   0  0  0  0  0  0  0  0  0  0  0  0
   45.3054   37.9573   38.5359 H   0  0  0  0  0  0  0  0  0  0  0  0
   46.4736   36.3145   39.3534 C   0  0  0  0  0  0  0  0  0  0  0  0
   47.1660   35.1453   39.1655 C   0  0  0  0  0  0  0  0  0  0  0  0
   48.9852   31.9901   38.5110 H   0  0  0  0  0  0  0  0  0  0  0  0
   46.6586   34.9922   35.8378 H   0  0  0  0  0  0  0  0  0  0  0  0
   46.3773   36.7381   40.3216 H   0  0  0  0  0  0  0  0  0  0  0  0
  1  7  1  0
  1  6  2  0
  2  1  1  0
  3  2  2  0
  3  4  1  0
  4  5  2  0
  5  6  1  0
  8  3  1  0
  9  8  2  0
  2 10  1  0
  5 11  1  0
  7 12  1  0
  7 13  1  0
 14 15  2  0
 15 16  1  0
 16 17  2  0
 17 18  1  0
 18 19  2  0
 19 20  1  0
 20 21  1  0
 20 22  2  0
 22 23  1  0
 22 24  1  0
 24 25  2  0
 25 14  1  0
 25 18  1  0
 16 26  1  0
 19 27  1  0
 24 28  1  0
  8 14  1  0
M  ISO  4  10  14  11  14  21  16  23  16
M  END
>  <DihAtoms>  (1) 
2,7,13,14

>  <DihDeg>  (1) 
172.31374761325276

$$$$
