
     RDKit          3D

 28 30  0  0  0  0  0  0  0  0999 V2000
   44.9123   35.1381   44.0472 C   0  0  0  0  0  0  0  0  0  0  0  0
   45.7380   35.3789   42.9483 C   0  0  0  0  0  0  0  0  0  0  0  0
   46.9609   34.6756   42.8115 C   0  0  0  0  0  0  0  0  0  0  0  0
   47.2439   33.7848   43.8073 N   0  0  0  0  0  0  0  0  0  0  0  0
   46.4286   33.5750   44.8530 C   0  0  0  0  0  0  0  0  0  0  0  0
   45.2804   34.2520   44.9559 N   0  0  0  0  0  0  0  0  0  0  0  0
   43.6971   35.8374   44.1726 N   0  0  0  0  0  0  0  0  0  0  0  0
   47.7214   34.9687   41.6383 C   0  0  0  0  0  0  0  0  0  0  0  0
   48.6844   35.8245   41.6568 O   0  0  0  0  0  0  0  0  0  0  0  0
   45.4396   36.0948   42.2162 H   0  0  0  0  0  0  0  0  0  0  0  0
   46.7616   32.8393   45.5831 H   0  0  0  0  0  0  0  0  0  0  0  0
   43.8625   36.7893   44.5938 H   0  0  0  0  0  0  0  0  0  0  0  0
   42.7866   35.4087   43.8678 H   0  0  0  0  0  0  0  0  0  0  0  0
   47.7350   34.5320   40.2358 C   0  0  0  0  0  0  0  0  0  0  0  0
   48.8843   34.1003   39.6934 N   0  0  0  0  0  0  0  0  0  0  0  0
   48.9817   33.6775   38.3901 C   0  0  0  0  0  0  0  0  0  0  0  0
   47.9108   33.6772   37.5862 N   0  0  0  0  0  0  0  0  0  0  0  0
   46.7032   34.0962   38.0462 C   0  0  0  0  0  0  0  0  0  0  0  0
   45.5998   34.0938   37.2303 C   0  0  0  0  0  0  0  0  0  0  0  0
   44.3780   34.5115   37.6974 C   0  0  0  0  0  0  0  0  0  0  0  0
   43.5883   34.4674   36.9749 H   0  0  0  0  0  0  0  0  0  0  0  0
   44.3185   34.9322   39.0259 C   0  0  0  0  0  0  0  0  0  0  0  0
   43.3488   35.2520   39.3593 H   0  0  0  0  0  0  0  0  0  0  0  0
   45.4550   34.9088   39.7812 C   0  0  0  0  0  0  0  0  0  0  0  0
   46.6959   34.5019   39.3612 C   0  0  0  0  0  0  0  0  0  0  0  0
   49.9791   33.3572   38.0950 H   0  0  0  0  0  0  0  0  0  0  0  0
   45.7497   33.7491   36.2160 H   0  0  0  0  0  0  0  0  0  0  0  0
   45.3016   35.2413   40.7772 H   0  0  0  0  0  0  0  0  0  0  0  0
  1  7  1  0
  1  6  2  0
  2  1  1  0
  3  2  2  0
  3  4  1  0
  4  5  2  0
  5  6  1  0
  8  3  1  0
  9  8  2  0
  2 10  1  0
  5 11  1  0
  7 12  1  0
  7 13  1  0
 14 15  2  0
 15 16  1  0
 16 17  2  0
 17 18  1  0
 18 19  2  0
 19 20  1  0
 20 21  1  0
 20 22  2  0
 22 23  1  0
 22 24  1  0
 24 25  2  0
 25 14  1  0
 25 18  1  0
 16 26  1  0
 19 27  1  0
 24 28  1  0
  8 14  1  0
M  ISO  4  10  14  11  14  21  16  23  16
M  END
>  <DihAtoms>  (1) 
2,7,13,14

>  <DihDeg>  (1) 
172.31374761325276

$$$$
