
     RDKit          3D

 46 49  0  0  0  0  0  0  0  0999 V2000
   47.3640   30.3380   47.8360 C   0  0  0  0  0  0  0  0  0  0  0  0
   46.8820   32.2860   44.8830 C   0  0  0  0  0  0  0  0  0  0  0  0
   47.6180   31.1820   44.3860 C   0  0  0  0  0  0  0  0  0  0  0  0
   47.8770   30.3470   45.4110 C   0  0  0  0  0  0  0  0  0  0  0  0
   47.3260   30.9060   46.4980 N   0  0  0  0  0  0  0  0  0  0  0  0
   46.7310   32.0600   46.1920 N   0  0  0  0  0  0  0  0  0  0  0  0
   45.1800   35.3510   43.8800 C   0  0  0  0  0  0  0  0  0  0  0  0
   45.5300   35.5130   42.5480 C   0  0  0  0  0  0  0  0  0  0  0  0
   46.3690   34.5410   41.9950 C   0  0  0  0  0  0  0  0  0  0  0  0
   46.7740   33.5270   42.7840 N   0  0  0  0  0  0  0  0  0  0  0  0
   46.4280   33.3880   44.0630 C   0  0  0  0  0  0  0  0  0  0  0  0
   45.6160   34.3230   44.6090 N   0  0  0  0  0  0  0  0  0  0  0  0
   48.9030   35.4410   41.0800 N   0  0  0  0  0  0  0  0  0  0  0  0
   48.2020   34.6840   40.2730 C   0  0  0  0  0  0  0  0  0  0  0  0
   46.8100   34.5800   40.6310 N   0  0  0  0  0  0  0  0  0  0  0  0
   48.5970   33.9490   39.0980 N   0  0  0  0  0  0  0  0  0  0  0  0
   49.9320   35.6090   40.9420 H   0  0  0  0  0  0  0  0  0  0  0  0
   45.9830   30.1400   48.3550 C   0  0  0  0  0  0  0  0  0  0  0  0
   45.1270   27.7400   48.0670 C   0  0  0  0  0  0  0  0  0  0  0  0
   45.1970   29.0700   47.7400 C   0  0  0  0  0  0  0  0  0  0  0  0
   44.4050   29.4810   46.6600 C   0  0  0  0  0  0  0  0  0  0  0  0
   43.6110   28.6060   45.9740 C   0  0  0  0  0  0  0  0  0  0  0  0
   42.7660   28.7170   44.9240 N   0  0  0  0  0  0  0  0  0  0  0  0
   42.2130   27.5300   44.6240 C   0  0  0  0  0  0  0  0  0  0  0  0
   42.6980   26.5800   45.5010 C   0  0  0  0  0  0  0  0  0  0  0  0
   43.5530   27.2860   46.3130 C   0  0  0  0  0  0  0  0  0  0  0  0
   44.3270   26.8720   47.3720 C   0  0  0  0  0  0  0  0  0  0  0  0
   44.3000   25.4620   47.7740 C   0  0  0  0  0  0  0  0  0  0  0  0
   44.9710   25.0450   48.7610 O   0  0  0  0  0  0  0  0  0  0  0  0
   47.9080   31.0214   48.5046 H   0  0  0  0  0  0  0  0  0  0  0  0
   47.8732   29.3638   47.7958 H   0  0  0  0  0  0  0  0  0  0  0  0
   47.9257   31.0321   43.3406 H   0  0  0  0  0  0  0  0  0  0  0  0
   48.4297   29.3970   45.3653 H   0  0  0  0  0  0  0  0  0  0  0  0
   44.5208   36.0952   44.3509 H   0  0  0  0  0  0  0  0  0  0  0  0
   45.1652   36.3649   41.9553 H   0  0  0  0  0  0  0  0  0  0  0  0
   46.1065   34.5319   39.8802 H   0  0  0  0  0  0  0  0  0  0  0  0
   49.5762   33.9747   38.7795 H   0  0  0  0  0  0  0  0  0  0  0  0
   47.9001   33.3980   38.5767 H   0  0  0  0  0  0  0  0  0  0  0  0
   46.0592   29.9217   49.4304 H   0  0  0  0  0  0  0  0  0  0  0  0
   45.4467   31.0691   48.1116 H   0  0  0  0  0  0  0  0  0  0  0  0
   45.7275   27.3613   48.9072 H   0  0  0  0  0  0  0  0  0  0  0  0
   44.4229   30.5379   46.3557 H   0  0  0  0  0  0  0  0  0  0  0  0
   42.5722   29.5948   44.4212 H   0  0  0  0  0  0  0  0  0  0  0  0
   41.4927   27.3453   43.8134 H   0  0  0  0  0  0  0  0  0  0  0  0
   42.4563   25.5076   45.5405 H   0  0  0  0  0  0  0  0  0  0  0  0
   43.6826   24.7518   47.2045 H   0  0  0  0  0  0  0  0  0  0  0  0
  1 18  1  0
  2  6  2  0
  3  2  1  0
  3  4  2  0
  4  5  1  0
  5  1  1  0
  6  5  1  0
  7 12  2  0
  8  7  1  0
  9  8  2  0
  9 10  1  0
 10 11  2  0
 11 12  1  0
 11  2  1  0
 14 15  1  0
 14 13  2  0
 15  9  1  0
 16 14  1  0
 17 13  1  0
 20 19  2  0
 20 18  1  0
 21 20  1  0
 22 26  1  0
 22 21  2  0
 23 22  1  0
 24 23  1  0
 24 25  2  0
 25 26  1  0
 26 27  2  0
 27 28  1  0
 27 19  1  0
 28 29  2  0
  1 30  1  0
  1 31  1  0
  3 32  1  0
  4 33  1  0
  7 34  1  0
  8 35  1  0
 15 36  1  0
 16 37  1  0
 16 38  1  0
 18 39  1  0
 18 40  1  0
 19 41  1  0
 21 42  1  0
 23 43  1  0
 24 44  1  0
 25 45  1  0
 28 46  1  0
M  ISO  8  30   8  31   8  32  14  33  14  34  14  35  14  39   8  40   8
M  ISO  6  41  14  42  14  43   9  44  14  45  14  46   6
M  END
>  <minimizedAffinity>  (1) 
-5.73468971

>  <minimizedRMSD>  (1) 
1.1382339

$$$$
