
     RDKit          3D

 37 39  0  0  1  0  0  0  0  0999 V2000
   46.8420   34.5300   42.1680 C   0  0  2  0  0  0  0  0  0  0  0  0
   45.9860   34.3870   40.9380 C   0  0  0  0  0  0  0  0  0  0  0  0
   47.0860   33.9500   39.9490 C   0  0  0  0  0  0  0  0  0  0  0  0
   48.0170   33.0900   40.7690 C   0  0  1  0  0  0  0  0  0  0  0  0
   47.4900   33.1410   42.1610 C   0  0  0  0  0  0  0  0  0  0  0  0
   44.4880   35.9240   44.7670 C   0  0  0  0  0  0  0  0  0  0  0  0
   45.1720   35.8130   43.5410 C   0  0  0  0  0  0  0  0  0  0  0  0
   46.0590   34.7300   43.4100 C   0  0  0  0  0  0  0  0  0  0  0  0
   46.2300   33.8330   44.4590 N   0  0  0  0  0  0  0  0  0  0  0  0
   45.5360   34.0060   45.6100 C   0  0  0  0  0  0  0  0  0  0  0  0
   44.6810   35.0310   45.7630 N   0  0  0  0  0  0  0  0  0  0  0  0
   48.0370   31.6480   40.3770 C   0  0  2  0  0  0  0  0  0  0  0  0
   47.7850   30.6500   41.4060 C   0  0  0  0  0  0  0  0  0  0  0  0
   49.0950   30.7130   40.6470 C   0  0  2  0  0  0  0  0  0  0  0  0
   51.3000   31.7850   39.1620 N   0  0  0  0  0  0  0  0  0  0  0  0
   51.3730   31.6370   40.4600 C   0  0  0  0  0  0  0  0  0  0  0  0
   50.3340   31.0830   41.2930 N   0  0  0  0  0  0  0  0  0  0  0  0
   52.6560   32.1330   40.7970 N   0  0  0  0  0  0  0  0  0  0  0  0
   50.4650   31.5080   38.6030 H   0  0  0  0  0  0  0  0  0  0  0  0
   47.5176   35.3979   42.1514 H   0  0  0  0  0  0  0  0  0  0  0  0
   45.2085   33.6185   41.0603 H   0  0  0  0  0  0  0  0  0  0  0  0
   45.4085   35.2777   40.6497 H   0  0  0  0  0  0  0  0  0  0  0  0
   47.6181   34.8255   39.5486 H   0  0  0  0  0  0  0  0  0  0  0  0
   46.6766   33.4113   39.0817 H   0  0  0  0  0  0  0  0  0  0  0  0
   49.0381   33.4751   40.6312 H   0  0  0  0  0  0  0  0  0  0  0  0
   46.7503   32.3476   42.3438 H   0  0  0  0  0  0  0  0  0  0  0  0
   48.2485   32.9868   42.9426 H   0  0  0  0  0  0  0  0  0  0  0  0
   43.7823   36.7544   44.9171 H   0  0  0  0  0  0  0  0  0  0  0  0
   45.0200   36.5370   42.7270 H   0  0  0  0  0  0  0  0  0  0  0  0
   45.6755   33.2928   46.4357 H   0  0  0  0  0  0  0  0  0  0  0  0
   47.5838   31.9542   39.4226 H   0  0  0  0  0  0  0  0  0  0  0  0
   47.7418   30.9426   42.4655 H   0  0  0  0  0  0  0  0  0  0  0  0
   47.0167   29.8856   41.5943 H   0  0  0  0  0  0  0  0  0  0  0  0
   49.6917   30.0188   40.0370 H   0  0  0  0  0  0  0  0  0  0  0  0
   50.4693   30.9563   42.3062 H   0  0  0  0  0  0  0  0  0  0  0  0
   52.9679   32.1296   41.7786 H   0  0  0  0  0  0  0  0  0  0  0  0
   53.2772   32.4971   40.0605 H   0  0  0  0  0  0  0  0  0  0  0  0
  1  8  1  0
  2  1  1  0
  3  4  1  0
  3  2  1  0
  4  5  1  0
  5  1  1  0
  6 11  2  0
  7  6  1  0
  8  7  2  0
  8  9  1  0
  9 10  2  0
 10 11  1  0
 12 14  1  0
 12  4  1  0
 12 13  1  0
 14 17  1  0
 14 13  1  0
 15 16  2  0
 16 18  1  0
 16 17  1  0
 19 15  1  0
  1 20  1  6
  2 21  1  0
  2 22  1  0
  3 23  1  0
  3 24  1  0
  4 25  1  1
  5 26  1  0
  5 27  1  0
  6 28  1  0
  7 29  1  0
 10 30  1  0
 12 31  1  6
 13 32  1  0
 13 33  1  0
 14 34  1  6
 17 35  1  0
 18 36  1  0
 18 37  1  0
M  ISO  8  20  13  21  13  22  13  23  13  24  13  25  13  26  13  27  13
M  ISO  7  28  14  29  14  30  14  31  13  32  13  33  13  34  13
M  END
>  <minimizedAffinity>  (1) 
-5.02072001

>  <minimizedRMSD>  (1) 
2.25844908

$$$$
