
     RDKit          3D

 37 39  0  0  0  0  0  0  0  0999 V2000
   46.8849   34.9201   42.1542 C   0  0  2  0  0  0  0  0  0  0  0  0
   46.3772   33.9061   41.1640 C   0  0  0  0  0  0  0  0  0  0  0  0
   47.5827   33.9081   40.2018 C   0  0  0  0  0  0  0  0  0  0  0  0
   48.7843   34.0928   41.0971 C   0  0  1  0  0  0  0  0  0  0  0  0
   48.2386   34.2762   42.4712 C   0  0  0  0  0  0  0  0  0  0  0  0
   44.4323   36.0863   44.7740 C   0  0  0  0  0  0  0  0  0  0  0  0
   45.1610   36.0811   43.5689 C   0  0  0  0  0  0  0  0  0  0  0  0
   46.0559   35.0132   43.3789 C   0  0  0  0  0  0  0  0  0  0  0  0
   46.1896   34.0291   44.3524 N   0  0  0  0  0  0  0  0  0  0  0  0
   45.4540   34.1022   45.4873 C   0  0  0  0  0  0  0  0  0  0  0  0
   44.5910   35.1110   45.6960 N   0  0  0  0  0  0  0  0  0  0  0  0
   49.6994   32.9135   41.1586 C   0  0  2  0  0  0  0  0  0  0  0  0
   49.6032   32.0254   42.3089 C   0  0  0  0  0  0  0  0  0  0  0  0
   50.8691   32.7919   41.9857 C   0  0  2  0  0  0  0  0  0  0  0  0
   46.9735   35.8805   41.6542 H   0  0  0  0  0  0  0  0  0  0  0  0
   45.4458   34.1913   40.6529 H   0  0  0  0  0  0  0  0  0  0  0  0
   46.3727   32.9178   41.6314 H   0  0  0  0  0  0  0  0  0  0  0  0
   47.6195   32.9125   39.7053 H   0  0  0  0  0  0  0  0  0  0  0  0
   47.4816   34.7549   39.5057 H   0  0  0  0  0  0  0  0  0  0  0  0
   49.3334   34.9872   40.8015 H   0  0  0  0  0  0  0  0  0  0  0  0
   48.7997   34.9163   43.1483 H   0  0  0  0  0  0  0  0  0  0  0  0
   47.8427   33.3546   42.9387 H   0  0  0  0  0  0  0  0  0  0  0  0
   43.7319   36.8939   44.9565 H   0  0  0  0  0  0  0  0  0  0  0  0
   45.0570   36.8406   42.8190 H   0  0  0  0  0  0  0  0  0  0  0  0
   45.6428   33.2833   46.1692 H   0  0  0  0  0  0  0  0  0  0  0  0
   49.7337   32.4175   40.1486 H   0  0  0  0  0  0  0  0  0  0  0  0
   49.6881   30.9155   42.0824 H   0  0  0  0  0  0  0  0  0  0  0  0
   49.3884   32.1372   43.3404 H   0  0  0  0  0  0  0  0  0  0  0  0
   51.7406   32.2026   41.5707 H   0  0  0  0  0  0  0  0  0  0  0  0
   53.4424   32.6566   43.2400 N   0  0  0  0  0  0  0  0  0  0  0  0
   52.6741   33.7030   43.3977 C   0  0  0  0  0  0  0  0  0  0  0  0
   51.3535   33.8566   42.8348 N   0  0  0  0  0  0  0  0  0  0  0  0
   53.4349   34.5773   44.2108 N   0  0  0  0  0  0  0  0  0  0  0  0
   54.3429   34.9883   43.9620 H   0  0  0  0  0  0  0  0  0  0  0  0
   53.1635   31.8222   42.6815 H   0  0  0  0  0  0  0  0  0  0  0  0
   51.0549   34.7907   43.2167 H   0  0  0  0  0  0  0  0  0  0  0  0
   53.1784   34.9208   45.1672 H   0  0  0  0  0  0  0  0  0  0  0  0
  1  5  1  0
  1  8  1  0
  2  1  1  0
  3  4  1  0
  3  2  1  0
  4 12  1  0
  4  5  1  0
  6 11  2  0
  7  6  1  0
  8  7  2  0
  8  9  1  0
  9 10  2  0
 10 11  1  0
 12 14  1  0
 12 13  1  0
 14 13  1  0
  1 15  1  6
  2 16  1  0
  2 17  1  0
  3 18  1  0
  3 19  1  0
  4 20  1  6
  5 21  1  0
  5 22  1  0
  6 23  1  0
  7 24  1  0
 10 25  1  0
 12 26  1  6
 13 27  1  0
 13 28  1  0
 14 29  1  6
 30 31  2  3
 31 32  1  0
 31 33  1  0
 33 34  1  0
 30 35  1  0
 32 36  1  0
 33 37  1  0
 14 32  1  0
M  ISO  8  15  13  16  13  17  13  18  13  19  13  20  13  21  13  22  13
M  ISO  8  23  14  24  14  25  14  26  13  27  13  28  13  29  13  34   5
M  END
>  <DihAtoms>  (1) 
11,13,31,30

>  <DihDeg>  (1) 
177.26357377240234

$$$$
