
     RDKit          3D

 36 37  0  0  0  0  0  0  0  0999 V2000
   43.6340   34.9660   40.7670 S   0  0  0  0  0  0  0  0  0  0  0  0
   44.9360   34.6730   41.9660 C   0  0  0  0  0  0  0  0  0  0  0  0
   46.2420   34.5640   41.4720 C   0  0  0  0  0  0  0  0  0  0  0  0
   47.2880   34.3360   42.3590 C   0  0  0  0  0  0  0  0  0  0  0  0
   46.9770   34.2310   43.6720 N   0  0  0  0  0  0  0  0  0  0  0  0
   45.7130   34.3380   44.1450 C   0  0  0  0  0  0  0  0  0  0  0  0
   44.7250   34.5540   43.2870 N   0  0  0  0  0  0  0  0  0  0  0  0
   45.5300   34.2020   45.5800 C   0  0  0  0  0  0  0  0  0  0  0  0
   44.5720   34.8280   46.0870 O   0  0  0  0  0  0  0  0  0  0  0  0
   44.6820   32.8060   47.9660 N   0  0  0  0  0  0  0  0  0  0  0  0
   45.8160   32.7960   47.4190 C   0  0  0  0  0  0  0  0  0  0  0  0
   46.4320   33.3860   46.2830 N   0  0  0  0  0  0  0  0  0  0  0  0
   46.5130   31.9170   48.3120 N   0  0  0  0  0  0  0  0  0  0  0  0
   43.8010   33.2650   47.7540 H   0  0  0  0  0  0  0  0  0  0  0  0
   42.0130   35.1040   41.5370 C   0  0  0  0  0  0  0  0  0  0  0  0
   41.0820   36.0230   40.8040 C   0  0  0  0  0  0  0  0  0  0  0  0
   41.8980   36.2370   37.8700 Cl  0  0  0  0  0  0  0  0  0  0  0  0
   40.5480   35.2980   38.4530 C   0  0  0  0  0  0  0  0  0  0  0  0
   40.2670   35.2740   39.8260 C   0  0  0  0  0  0  0  0  0  0  0  0
   39.1880   34.5110   40.2070 C   0  0  0  0  0  0  0  0  0  0  0  0
   38.3650   33.7740   39.3520 C   0  0  0  0  0  0  0  0  0  0  0  0
   38.6670   33.8170   38.0060 C   0  0  0  0  0  0  0  0  0  0  0  0
   37.6830   32.9180   36.8670 Cl  0  0  0  0  0  0  0  0  0  0  0  0
   39.7380   34.5680   37.5810 C   0  0  0  0  0  0  0  0  0  0  0  0
   46.4380   34.6578   40.3937 H   0  0  0  0  0  0  0  0  0  0  0  0
   48.3264   34.2446   42.0078 H   0  0  0  0  0  0  0  0  0  0  0  0
   47.4136   33.2350   46.0099 H   0  0  0  0  0  0  0  0  0  0  0  0
   47.5032   31.6896   48.1423 H   0  0  0  0  0  0  0  0  0  0  0  0
   46.0235   31.5129   49.1232 H   0  0  0  0  0  0  0  0  0  0  0  0
   41.5580   34.1032   41.5736 H   0  0  0  0  0  0  0  0  0  0  0  0
   42.1651   35.5284   42.5404 H   0  0  0  0  0  0  0  0  0  0  0  0
   40.4153   36.5136   41.5284 H   0  0  0  0  0  0  0  0  0  0  0  0
   41.6793   36.7726   40.2643 H   0  0  0  0  0  0  0  0  0  0  0  0
   38.9520   34.4781   41.2809 H   0  0  0  0  0  0  0  0  0  0  0  0
   37.5164   33.1872   39.7335 H   0  0  0  0  0  0  0  0  0  0  0  0
   39.9668   34.5947   36.5054 H   0  0  0  0  0  0  0  0  0  0  0  0
  1 15  1  0
  1  2  1  0
  2  7  1  0
  3  2  2  0
  3  4  1  0
  4  5  2  0
  5  6  1  0
  6  8  1  0
  7  6  2  0
  8  9  2  0
  8 12  1  0
 11 10  2  0
 11 13  1  0
 12 11  1  0
 14 10  1  0
 16 15  1  0
 17 18  1  0
 18 19  2  0
 19 20  1  0
 19 16  1  0
 21 20  2  0
 22 21  1  0
 23 22  1  0
 24 22  2  0
 24 18  1  0
  3 25  1  0
  4 26  1  0
 12 27  1  0
 13 28  1  0
 13 29  1  0
 15 30  1  0
 15 31  1  0
 16 32  1  0
 16 33  1  0
 20 34  1  0
 21 35  1  0
 24 36  1  0
M  ISO  8  25  14  26  14  30   8  31   8  32   8  33   8  34  14  35  14
M  ISO  1  36  14
M  END
>  <minimizedAffinity>  (1) 
-7.27841854

>  <minimizedRMSD>  (1) 
0.235639647

$$$$
