
     RDKit          3D

 43 46  0  0  1  0  0  0  0  0999 V2000
   50.1320   31.6610   42.2600 C   0  0  1  0  0  0  0  0  0  0  0  0
   49.6600   31.9320   40.8510 C   0  0  0  0  0  0  0  0  0  0  0  0
   48.6900   31.8200   42.0600 C   0  0  2  0  0  0  0  0  0  0  0  0
   50.4010   28.0020   42.7220 C   0  0  0  0  0  0  0  0  0  0  0  0
   51.7550   27.8700   43.1960 C   0  0  0  0  0  0  0  0  0  0  0  0
   52.5350   29.0500   43.3440 C   0  0  0  0  0  0  0  0  0  0  0  0
   51.9680   30.2070   43.0330 N   0  0  0  0  0  0  0  0  0  0  0  0
   50.6980   30.3060   42.5900 C   0  0  0  0  0  0  0  0  0  0  0  0
   49.9010   29.2090   42.4290 N   0  0  0  0  0  0  0  0  0  0  0  0
   53.7920   30.5550   45.4590 N   0  0  0  0  0  0  0  0  0  0  0  0
   54.4800   29.9310   44.5690 C   0  0  0  0  0  0  0  0  0  0  0  0
   53.8700   28.9070   43.8080 N   0  0  0  0  0  0  0  0  0  0  0  0
   55.8450   30.2730   44.3600 N   0  0  0  0  0  0  0  0  0  0  0  0
   52.7940   30.3530   45.6640 H   0  0  0  0  0  0  0  0  0  0  0  0
   48.0820   33.0470   42.5010 N   0  0  0  0  0  0  0  0  0  0  0  0
   47.2910   33.0980   43.6580 C   0  0  0  0  0  0  0  0  0  0  0  0
   47.4790   32.1550   44.6460 C   0  0  0  0  0  0  0  0  0  0  0  0
   46.7900   32.1750   45.8470 C   0  0  0  0  0  0  0  0  0  0  0  0
   45.8670   33.1630   46.1110 C   0  0  0  0  0  0  0  0  0  0  0  0
   45.6620   34.1120   45.1410 C   0  0  0  0  0  0  0  0  0  0  0  0
   44.7390   35.1180   45.3890 C   0  0  0  0  0  0  0  0  0  0  0  0
   44.4830   36.0990   44.4730 C   0  0  0  0  0  0  0  0  0  0  0  0
   45.1820   36.0510   43.2800 C   0  0  0  0  0  0  0  0  0  0  0  0
   46.0960   35.0450   43.0470 C   0  0  0  0  0  0  0  0  0  0  0  0
   46.3590   34.0670   43.9540 C   0  0  0  0  0  0  0  0  0  0  0  0
   46.7620   35.0320   41.8430 O   0  0  0  0  0  0  0  0  0  0  0  0
   50.8583   32.1438   42.9304 H   0  0  0  0  0  0  0  0  0  0  0  0
   49.6952   31.1397   40.0887 H   0  0  0  0  0  0  0  0  0  0  0  0
   49.8744   32.6770   40.0706 H   0  0  0  0  0  0  0  0  0  0  0  0
   47.8074   31.2126   42.3091 H   0  0  0  0  0  0  0  0  0  0  0  0
   49.7744   27.1062   42.6001 H   0  0  0  0  0  0  0  0  0  0  0  0
   52.1747   26.8822   43.4372 H   0  0  0  0  0  0  0  0  0  0  0  0
   54.3980   28.0504   43.5883 H   0  0  0  0  0  0  0  0  0  0  0  0
   56.3976   29.7746   43.6479 H   0  0  0  0  0  0  0  0  0  0  0  0
   56.2807   31.0190   44.9208 H   0  0  0  0  0  0  0  0  0  0  0  0
   48.2310   33.9074   41.9547 H   0  0  0  0  0  0  0  0  0  0  0  0
   48.2090   31.3507   44.4725 H   0  0  0  0  0  0  0  0  0  0  0  0
   46.9816   31.3942   46.5977 H   0  0  0  0  0  0  0  0  0  0  0  0
   45.3156   33.1902   47.0624 H   0  0  0  0  0  0  0  0  0  0  0  0
   44.1996   35.1259   46.3476 H   0  0  0  0  0  0  0  0  0  0  0  0
   43.7509   36.8946   44.6758 H   0  0  0  0  0  0  0  0  0  0  0  0
   45.0077   36.8198   42.5128 H   0  0  0  0  0  0  0  0  0  0  0  0
   47.4232   34.3207   41.6507 H   0  0  0  0  0  0  0  0  0  0  0  0
  1  8  1  0
  2  3  1  0
  2  1  1  0
  3  1  1  0
  3 15  1  0
  4  5  2  0
  5  6  1  0
  6 12  1  0
  7  6  2  0
  8  7  1  0
  9  8  2  0
  9  4  1  0
 10 14  1  0
 11 10  2  0
 12 11  1  0
 13 11  1  0
 15 16  1  0
 16 25  1  0
 16 17  2  0
 17 18  1  0
 18 19  2  0
 20 21  2  0
 20 19  1  0
 22 21  1  0
 23 22  2  0
 24 23  1  0
 24 25  2  0
 25 20  1  0
 26 24  1  0
  1 27  1  1
  2 28  1  0
  2 29  1  0
  3 30  1  6
  4 31  1  0
  5 32  1  0
 12 33  1  0
 13 34  1  0
 13 35  1  0
 15 36  1  0
 17 37  1  0
 18 38  1  0
 19 39  1  0
 21 40  1  0
 22 41  1  0
 23 42  1  0
 26 43  1  0
M  ISO  8  27  13  28  13  29  13  30  13  31  14  32  14  37  14  38  14
M  ISO  5  39  14  40  14  41  14  42  14  43   3
M  END
>  <minimizedAffinity>  (1) 
-5.5478406

>  <minimizedRMSD>  (1) 
0.692050755

$$$$
