
     RDKit          3D

 39 40  0  0  0  0  0  0  0  0999 V2000
   46.1891   32.0889   45.4391 C   0  0  0  0  0  0  0  0  0  0  0  0
   45.7522   32.0243   49.1296 C   0  0  0  0  0  0  0  0  0  0  0  0
   46.0482   32.4996   47.8485 C   0  0  0  0  0  0  0  0  0  0  0  0
   45.8856   31.6140   46.7850 C   0  0  0  0  0  0  0  0  0  0  0  0
   45.4498   30.3459   47.0624 N   0  0  0  0  0  0  0  0  0  0  0  0
   45.1740   29.9210   48.3067 C   0  0  0  0  0  0  0  0  0  0  0  0
   45.3301   30.7737   49.3351 N   0  0  0  0  0  0  0  0  0  0  0  0
   46.5510   33.4084   45.4145 O   0  0  0  0  0  0  0  0  0  0  0  0
   44.6373   35.1723   45.2578 O   0  0  0  0  0  0  0  0  0  0  0  0
   45.4528   34.2389   44.4229 P   0  0  2  0  0  0  0  0  0  0  0  0
   44.5260   33.0567   43.6771 O   0  0  0  0  0  0  0  0  0  0  0  0
   46.3524   35.1250   43.3066 O   0  0  0  0  0  0  0  0  0  0  0  0
   47.1044   34.2470   42.5266 C   0  0  1  0  0  0  0  0  0  0  0  0
   46.9593   34.4824   41.0486 C   0  0  0  0  0  0  0  0  0  0  0  0
   48.0966   33.6530   40.5031 C   0  0  0  0  0  0  0  0  0  0  0  0
   49.1666   33.6765   41.5888 C   0  0  0  0  0  0  0  0  0  0  0  0
   48.5974   34.5264   42.7106 C   0  0  1  0  0  0  0  0  0  0  0  0
   47.1219   31.5268   45.1315 H   0  0  0  0  0  0  0  0  0  0  0  0
   45.4188   31.7460   44.7672 H   0  0  0  0  0  0  0  0  0  0  0  0
   45.9024   32.7731   49.9163 H   0  0  0  0  0  0  0  0  0  0  0  0
   46.3910   33.5045   47.6511 H   0  0  0  0  0  0  0  0  0  0  0  0
   44.8304   28.9115   48.4989 H   0  0  0  0  0  0  0  0  0  0  0  0
   44.4695   33.2011   42.7002 H   0  0  0  0  0  0  0  0  0  0  0  0
   46.9358   33.2040   42.8039 H   0  0  0  0  0  0  0  0  0  0  0  0
   45.9855   34.2099   40.6333 H   0  0  0  0  0  0  0  0  0  0  0  0
   47.1334   35.5530   40.8286 H   0  0  0  0  0  0  0  0  0  0  0  0
   47.6968   32.6012   40.4692 H   0  0  0  0  0  0  0  0  0  0  0  0
   48.4735   33.9841   39.5254 H   0  0  0  0  0  0  0  0  0  0  0  0
   50.0163   34.2543   41.1529 H   0  0  0  0  0  0  0  0  0  0  0  0
   49.4542   32.6609   41.9277 H   0  0  0  0  0  0  0  0  0  0  0  0
   48.8873   34.0154   43.6477 H   0  0  0  0  0  0  0  0  0  0  0  0
   50.2515   35.7049   44.6894 N   0  0  0  0  0  0  0  0  0  0  0  0
   49.8449   36.3697   43.6601 C   0  0  0  0  0  0  0  0  0  0  0  0
   48.9424   35.9019   42.6521 N   0  0  0  0  0  0  0  0  0  0  0  0
   50.3721   37.6976   43.5560 N   0  0  0  0  0  0  0  0  0  0  0  0
   50.7685   38.4385   42.9443 H   0  0  0  0  0  0  0  0  0  0  0  0
   49.9017   34.7310   44.8197 H   0  0  0  0  0  0  0  0  0  0  0  0
   48.5647   36.5237   41.9272 H   0  0  0  0  0  0  0  0  0  0  0  0
   50.4515   38.3122   44.3988 H   0  0  0  0  0  0  0  0  0  0  0  0
  1  4  1  0
  2  7  2  0
  3  2  1  0
  4  5  1  0
  4  3  2  0
  5  6  2  0
  6  7  1  0
  8  1  1  0
 10  9  2  0
 10  8  1  1
 11 10  1  0
 12 10  1  0
 13 17  1  0
 13 12  1  0
 14 13  1  0
 15 14  1  0
 15 16  1  0
 16 17  1  0
  1 18  1  0
  1 19  1  0
  2 20  1  0
  3 21  1  0
  6 22  1  0
 11 23  1  0
 13 24  1  6
 14 25  1  0
 14 26  1  0
 15 27  1  0
 15 28  1  0
 16 29  1  0
 16 30  1  0
 17 31  1  1
 32 33  2  3
 33 34  1  0
 33 35  1  0
 35 36  1  0
 32 37  1  0
 34 38  1  0
 35 39  1  0
 17 34  1  0
M  ISO  8  18   8  19   8  20  14  21  14  22  14  23   3  24  13  25  13
M  ISO  7  26  13  27  13  28  13  29  13  30  13  31  13  36   5
M  END
>  <DihAtoms>  (1) 
12,16,33,32

>  <DihDeg>  (1) 
-179.99890551989725

$$$$
