
     RDKit          3D

 42 44  0  0  0  0  0  0  0  0999 V2000
   45.7910   33.8024   45.5743 C   0  0  0  0  0  0  0  0  0  0  0  0
   44.7684   34.7426   45.8333 C   0  0  0  0  0  0  0  0  0  0  0  0
   44.4702   35.6597   44.8143 C   0  0  0  0  0  0  0  0  0  0  0  0
   45.1881   35.5856   43.6340 N   0  0  0  0  0  0  0  0  0  0  0  0
   46.1500   34.6580   43.4633 C   0  0  0  0  0  0  0  0  0  0  0  0
   46.4566   33.7728   44.4143 N   0  0  0  0  0  0  0  0  0  0  0  0
   46.8630   34.6304   42.1800 C   0  0  0  0  0  0  0  0  0  0  0  0
   47.9975   35.3533   41.9899 C   0  0  0  0  0  0  0  0  0  0  0  0
   48.7098   35.3675   40.8059 C   0  0  0  0  0  0  0  0  0  0  0  0
   48.1907   34.5836   39.7953 C   0  0  0  0  0  0  0  0  0  0  0  0
   47.0449   33.8425   39.9605 C   0  0  0  0  0  0  0  0  0  0  0  0
   46.3828   33.8679   41.1549 N   0  0  0  0  0  0  0  0  0  0  0  0
   46.1410   32.7920   46.5940 C   0  0  2  0  0  0  0  0  0  0  0  0
   46.0374   31.3802   46.1055 C   0  0  0  0  0  0  0  0  0  0  0  0
   46.5651   30.4769   47.1994 C   0  0  0  0  0  0  0  0  0  0  0  0
   45.8887   30.7056   48.5233 C   0  0  0  0  0  0  0  0  0  0  0  0
   45.9228   32.1586   48.9119 C   0  0  0  0  0  0  0  0  0  0  0  0
   45.3202   32.9774   47.8218 C   0  0  2  0  0  0  0  0  0  0  0  0
   44.2032   34.8161   46.7234 H   0  0  0  0  0  0  0  0  0  0  0  0
   43.7123   36.4291   44.8837 H   0  0  0  0  0  0  0  0  0  0  0  0
   48.3336   35.9398   42.8351 H   0  0  0  0  0  0  0  0  0  0  0  0
   49.6036   35.9722   40.7416 H   0  0  0  0  0  0  0  0  0  0  0  0
   48.7632   34.6015   38.8594 H   0  0  0  0  0  0  0  0  0  0  0  0
   46.7070   33.2601   39.1276 H   0  0  0  0  0  0  0  0  0  0  0  0
   47.2116   32.9499   46.8350 H   0  0  0  0  0  0  0  0  0  0  0  0
   46.7261   31.2714   45.2372 H   0  0  0  0  0  0  0  0  0  0  0  0
   45.0432   31.0913   45.7462 H   0  0  0  0  0  0  0  0  0  0  0  0
   47.6530   30.5910   47.2911 H   0  0  0  0  0  0  0  0  0  0  0  0
   46.3732   29.4314   46.9042 H   0  0  0  0  0  0  0  0  0  0  0  0
   44.8201   30.4047   48.4216 H   0  0  0  0  0  0  0  0  0  0  0  0
   46.3759   30.0398   49.2465 H   0  0  0  0  0  0  0  0  0  0  0  0
   47.0091   32.4088   49.0558 H   0  0  0  0  0  0  0  0  0  0  0  0
   45.4246   32.2452   49.8939 H   0  0  0  0  0  0  0  0  0  0  0  0
   45.3835   34.0542   48.1180 H   0  0  0  0  0  0  0  0  0  0  0  0
   44.1187   32.0952   45.3857 N   0  0  0  0  0  0  0  0  0  0  0  0
   43.3981   32.4510   46.3957 C   0  0  0  0  0  0  0  0  0  0  0  0
   43.9475   32.6266   47.6994 N   0  0  0  0  0  0  0  0  0  0  0  0
   42.0171   32.6461   46.0720 N   0  0  0  0  0  0  0  0  0  0  0  0
   41.5466   33.4298   45.5572 H   0  0  0  0  0  0  0  0  0  0  0  0
   45.1367   31.9170   45.4645 H   0  0  0  0  0  0  0  0  0  0  0  0
   43.2274   32.4659   48.4624 H   0  0  0  0  0  0  0  0  0  0  0  0
   41.3722   31.8733   46.4081 H   0  0  0  0  0  0  0  0  0  0  0  0
  1  2  2  0
  1 13  1  0
  3  2  1  0
  4  3  2  0
  5  4  1  0
  5  6  2  0
  6  1  1  0
  7  5  1  0
  8  7  2  0
  9  8  1  0
 10 11  1  0
 10  9  2  0
 11 12  2  0
 12  7  1  0
 13 18  1  0
 14 13  1  0
 14 15  1  0
 15 16  1  0
 16 17  1  0
 18 17  1  0
  2 19  1  0
  3 20  1  0
  8 21  1  0
  9 22  1  0
 10 23  1  0
 11 24  1  0
 13 25  1  1
 14 26  1  0
 14 27  1  0
 15 28  1  0
 15 29  1  0
 16 30  1  0
 16 31  1  0
 17 32  1  0
 17 33  1  0
 18 34  1  1
 35 36  2  3
 36 37  1  0
 36 38  1  0
 38 39  1  0
 35 40  1  0
 37 41  1  0
 38 42  1  0
 18 37  1  0
M  ISO  8  19  14  20  14  21  14  22  14  23  14  24  14  25  13  26  13
M  ISO  8  27  13  28  13  29  13  30  13  31  13  32  13  33  13  34  13
M  ISO  1  39   5
M  END
>  <DihAtoms>  (1) 
12,17,36,35

>  <DihDeg>  (1) 
-179.99511352643762

$$$$
