
     RDKit          3D

 24 24  0  0  0  0  0  0  0  0999 V2000
   44.9030   35.7010   44.0410 C   0  0  0  0  0  0  0  0  0  0  0  0
   44.6260   35.3040   42.7190 C   0  0  0  0  0  0  0  0  0  0  0  0
   44.7070   33.9310   42.4360 C   0  0  0  0  0  0  0  0  0  0  0  0
   45.0440   33.0690   43.4400 N   0  0  0  0  0  0  0  0  0  0  0  0
   45.3020   33.4870   44.6940 C   0  0  0  0  0  0  0  0  0  0  0  0
   45.2210   34.7970   44.9550 N   0  0  0  0  0  0  0  0  0  0  0  0
   44.6630   33.8250   47.4890 N   0  0  0  0  0  0  0  0  0  0  0  0
   45.5990   33.0470   47.1010 C   0  0  0  0  0  0  0  0  0  0  0  0
   45.6520   32.6040   45.7490 N   0  0  0  0  0  0  0  0  0  0  0  0
   46.5830   32.6270   48.0390 N   0  0  0  0  0  0  0  0  0  0  0  0
   43.8870   34.2140   46.9560 H   0  0  0  0  0  0  0  0  0  0  0  0
   44.8200   37.1220   44.3520 C   0  0  0  0  0  0  0  0  0  0  0  0
   45.4360   37.9930   43.5790 C   0  0  0  0  0  0  0  0  0  0  0  0
   45.3780   39.4440   43.8570 C   0  0  0  0  0  0  0  0  0  0  0  0
   44.3583   36.0362   41.9430 H   0  0  0  0  0  0  0  0  0  0  0  0
   44.5024   33.5560   41.4223 H   0  0  0  0  0  0  0  0  0  0  0  0
   45.9452   31.6399   45.5357 H   0  0  0  0  0  0  0  0  0  0  0  0
   47.3438   31.9998   47.7412 H   0  0  0  0  0  0  0  0  0  0  0  0
   46.5345   32.9502   49.0158 H   0  0  0  0  0  0  0  0  0  0  0  0
   44.2470   37.4652   45.2261 H   0  0  0  0  0  0  0  0  0  0  0  0
   46.0051   37.6334   42.7090 H   0  0  0  0  0  0  0  0  0  0  0  0
   45.3714   39.6090   44.9445 H   0  0  0  0  0  0  0  0  0  0  0  0
   46.2572   39.9371   43.4166 H   0  0  0  0  0  0  0  0  0  0  0  0
   44.4623   39.8654   43.4166 H   0  0  0  0  0  0  0  0  0  0  0  0
  1 12  1  0
  1  6  2  0
  2  1  1  0
  3  2  2  0
  3  4  1  0
  4  5  2  0
  5  6  1  0
  5  9  1  0
  8  7  2  0
  8 10  1  0
  9  8  1  0
 11  7  1  0
 13 14  1  0
 13 12  2  0
  2 15  1  0
  3 16  1  0
  9 17  1  0
 10 18  1  0
 10 19  1  0
 12 20  1  0
 13 21  1  0
 14 22  1  0
 14 23  1  0
 14 24  1  0
M  ISO  5  15  14  16  14  22   8  23   8  24   8
M  END
>  <minimizedAffinity>  (1) 
-4.3948617

>  <minimizedRMSD>  (1) 
1.23820245

$$$$
