
     RDKit          3D

 43 44  0  0  0  0  0  0  0  0999 V2000
   44.6010   35.6620   44.4520 C   0  0  0  0  0  0  0  0  0  0  0  0
   44.2720   35.7510   43.0910 C   0  0  0  0  0  0  0  0  0  0  0  0
   44.6080   34.6660   42.3210 C   0  0  0  0  0  0  0  0  0  0  0  0
   45.2190   33.5870   42.8640 N   0  0  0  0  0  0  0  0  0  0  0  0
   45.5070   33.5640   44.1790 C   0  0  0  0  0  0  0  0  0  0  0  0
   45.2120   34.5740   44.9770 N   0  0  0  0  0  0  0  0  0  0  0  0
   46.1700   32.3660   44.7240 C   0  0  0  0  0  0  0  0  0  0  0  0
   46.7770   32.7080   46.0600 C   0  0  0  0  0  0  0  0  0  0  0  0
   46.1760   31.9500   47.1360 C   0  0  0  0  0  0  0  0  0  0  0  0
   45.3150   32.3840   48.1330 C   0  0  0  0  0  0  0  0  0  0  0  0
   44.8070   31.5900   49.1010 C   0  0  0  0  0  0  0  0  0  0  0  0
   45.1670   30.2580   49.0980 C   0  0  0  0  0  0  0  0  0  0  0  0
   46.0190   29.8100   48.1200 C   0  0  0  0  0  0  0  0  0  0  0  0
   46.5260   30.6440   47.1400 C   0  0  0  0  0  0  0  0  0  0  0  0
   48.6920   29.6090   46.8170 C   0  0  0  0  0  0  0  0  0  0  0  0
   49.3960   29.9180   47.8610 O   0  0  0  0  0  0  0  0  0  0  0  0
   47.3750   29.8480   46.3020 N   0  0  0  0  0  0  0  0  0  0  0  0
   44.2710   34.7220   40.8630 C   0  0  0  0  0  0  0  0  0  0  0  0
   42.9300   35.4110   40.6440 C   0  0  0  0  0  0  0  0  0  0  0  0
   42.6720   35.6670   37.8170 N   0  0  0  0  0  0  0  0  0  0  0  0
   41.8860   34.8640   38.4760 C   0  0  0  0  0  0  0  0  0  0  0  0
   42.1660   34.4970   39.8180 N   0  0  0  0  0  0  0  0  0  0  0  0
   40.7480   34.4010   37.7530 N   0  0  0  0  0  0  0  0  0  0  0  0
   43.5330   36.0730   38.2300 H   0  0  0  0  0  0  0  0  0  0  0  0
   44.3542   36.5046   45.1147 H   0  0  0  0  0  0  0  0  0  0  0  0
   43.7752   36.6362   42.6672 H   0  0  0  0  0  0  0  0  0  0  0  0
   45.4315   31.5604   44.8495 H   0  0  0  0  0  0  0  0  0  0  0  0
   46.9568   32.0291   44.0330 H   0  0  0  0  0  0  0  0  0  0  0  0
   47.8542   32.4873   46.0281 H   0  0  0  0  0  0  0  0  0  0  0  0
   46.5963   33.7757   46.2531 H   0  0  0  0  0  0  0  0  0  0  0  0
   45.0265   33.4455   48.1358 H   0  0  0  0  0  0  0  0  0  0  0  0
   44.1280   31.9926   49.8671 H   0  0  0  0  0  0  0  0  0  0  0  0
   44.7792   29.5697   49.8634 H   0  0  0  0  0  0  0  0  0  0  0  0
   46.3093   28.7490   48.1153 H   0  0  0  0  0  0  0  0  0  0  0  0
   49.2736   28.9814   46.1257 H   0  0  0  0  0  0  0  0  0  0  0  0
   47.0612   29.4745   45.3948 H   0  0  0  0  0  0  0  0  0  0  0  0
   45.0552   35.2823   40.3328 H   0  0  0  0  0  0  0  0  0  0  0  0
   44.2068   33.6943   40.4761 H   0  0  0  0  0  0  0  0  0  0  0  0
   42.4215   35.5804   41.6046 H   0  0  0  0  0  0  0  0  0  0  0  0
   43.0458   36.3966   40.1695 H   0  0  0  0  0  0  0  0  0  0  0  0
   41.8330   33.5992   40.1975 H   0  0  0  0  0  0  0  0  0  0  0  0
   40.0768   33.7623   38.2030 H   0  0  0  0  0  0  0  0  0  0  0  0
   40.5969   34.7051   36.7806 H   0  0  0  0  0  0  0  0  0  0  0  0
  1  6  2  0
  2  1  1  0
  3  4  1  0
  3  2  2  0
  4  5  2  0
  5  7  1  0
  5  6  1  0
  7  8  1  0
  8  9  1  0
  9 14  1  0
  9 10  2  0
 10 11  1  0
 12 11  2  0
 13 12  1  0
 14 13  2  0
 15 16  2  0
 17 15  1  0
 17 14  1  0
 18  3  1  0
 19 18  1  0
 20 24  1  0
 20 21  2  0
 21 22  1  0
 22 19  1  0
 23 21  1  0
  1 25  1  0
  2 26  1  0
  7 27  1  0
  7 28  1  0
  8 29  1  0
  8 30  1  0
 10 31  1  0
 11 32  1  0
 12 33  1  0
 13 34  1  0
 15 35  1  0
 17 36  1  0
 18 37  1  0
 18 38  1  0
 19 39  1  0
 19 40  1  0
 22 41  1  0
 23 42  1  0
 23 43  1  0
M  ISO  8  25  14  26  14  27   8  28   8  29   8  30   8  31  14  32  14
M  ISO  7  33  14  34  14  35   6  37   8  38   8  39   8  40   8
M  END
>  <minimizedAffinity>  (1) 
-5.51801348

>  <minimizedRMSD>  (1) 
0.987517297

$$$$
