
     RDKit          3D

 44 48  0  0  0  0  0  0  0  0999 V2000
   46.3941   32.6690   45.8617 C   0  0  1  0  0  0  0  0  0  0  0  0
   46.9832   32.8337   47.1998 C   0  0  0  0  0  0  0  0  0  0  0  0
   45.5590   32.2034   46.9467 C   0  0  2  0  0  0  0  0  0  0  0  0
   45.3163   30.8024   47.3035 C   0  0  0  0  0  0  0  0  0  0  0  0
   45.1743   30.2705   48.5445 C   0  0  0  0  0  0  0  0  0  0  0  0
   45.0510   28.9247   48.8370 C   0  0  0  0  0  0  0  0  0  0  0  0
   45.0779   28.0396   47.7484 C   0  0  0  0  0  0  0  0  0  0  0  0
   45.2207   28.5584   46.4613 C   0  0  0  0  0  0  0  0  0  0  0  0
   45.1814   27.6580   45.4141 C   0  0  0  0  0  0  0  0  0  0  0  0
   45.2492   28.1305   44.1130 C   0  0  0  0  0  0  0  0  0  0  0  0
   45.3518   29.4829   43.8617 C   0  0  0  0  0  0  0  0  0  0  0  0
   45.3888   30.3335   44.9412 C   0  0  0  0  0  0  0  0  0  0  0  0
   45.3334   29.9127   46.2571 C   0  0  0  0  0  0  0  0  0  0  0  0
   44.5936   35.7285   44.8436 C   0  0  0  0  0  0  0  0  0  0  0  0
   45.1247   35.9702   43.5315 C   0  0  0  0  0  0  0  0  0  0  0  0
   46.1140   35.0628   43.0343 C   0  0  0  0  0  0  0  0  0  0  0  0
   46.5097   34.0236   43.8047 N   0  0  0  0  0  0  0  0  0  0  0  0
   45.9565   33.8500   45.0580 C   0  0  0  0  0  0  0  0  0  0  0  0
   45.0356   34.6726   45.5539 N   0  0  0  0  0  0  0  0  0  0  0  0
   47.1605   32.0425   45.2793 H   0  0  0  0  0  0  0  0  0  0  0  0
   47.6378   32.0899   47.6839 H   0  0  0  0  0  0  0  0  0  0  0  0
   46.9840   33.7959   47.7316 H   0  0  0  0  0  0  0  0  0  0  0  0
   44.8614   32.8812   47.5426 H   0  0  0  0  0  0  0  0  0  0  0  0
   45.1602   30.9959   49.3565 H   0  0  0  0  0  0  0  0  0  0  0  0
   44.9390   28.5658   49.8524 H   0  0  0  0  0  0  0  0  0  0  0  0
   44.9877   26.9763   47.9292 H   0  0  0  0  0  0  0  0  0  0  0  0
   45.0984   26.6005   45.6373 H   0  0  0  0  0  0  0  0  0  0  0  0
   45.2125   27.3275   43.3599 H   0  0  0  0  0  0  0  0  0  0  0  0
   45.3882   29.6579   42.7999 H   0  0  0  0  0  0  0  0  0  0  0  0
   45.3812   31.2887   44.5006 H   0  0  0  0  0  0  0  0  0  0  0  0
   43.8554   36.3844   45.2452 H   0  0  0  0  0  0  0  0  0  0  0  0
   44.7744   36.8130   42.9596 H   0  0  0  0  0  0  0  0  0  0  0  0
   46.6492   35.2899   41.7362 N   0  0  0  0  0  0  0  0  0  0  0  0
   46.1974   36.2308   40.9196 C   0  0  0  0  0  0  0  0  0  0  0  0
   46.7893   36.3664   39.6790 C   0  0  0  0  0  0  0  0  0  0  0  0
   47.8348   35.5389   39.2900 C   0  0  0  0  0  0  0  0  0  0  0  0
   48.5202   35.5796   38.0502 N   0  0  0  0  0  0  0  0  0  0  0  0
   48.2585   34.5976   40.1555 N   0  0  0  0  0  0  0  0  0  0  0  0
   47.6729   34.4764   41.3608 C   0  0  0  0  0  0  0  0  0  0  0  0
   48.0969   33.5847   42.1421 O   0  0  0  0  0  0  0  0  0  0  0  0
   45.3858   36.8759   41.2168 H   0  0  0  0  0  0  0  0  0  0  0  0
   46.4837   37.1017   38.9595 H   0  0  0  0  0  0  0  0  0  0  0  0
   49.3698   36.0674   37.6680 H   0  0  0  0  0  0  0  0  0  0  0  0
   47.9645   34.9306   37.4290 H   0  0  0  0  0  0  0  0  0  0  0  0
  1  3  1  0
  1  2  1  0
  3  2  1  0
  3  4  1  0
  4  5  2  0
  5  6  1  0
  7  6  2  0
  8  7  1  0
  9  8  2  0
 10  9  1  0
 11 10  2  0
 11 12  1  0
 12 13  2  0
 13  8  1  0
 13  4  1  0
 14 19  2  0
 15 14  1  0
 16 15  2  0
 16 17  1  0
 17 18  2  0
 18 19  1  0
 18  1  1  0
  1 20  1  6
  2 21  1  0
  2 22  1  0
  3 23  1  1
  5 24  1  0
  6 25  1  0
  7 26  1  0
  9 27  1  0
 10 28  1  0
 11 29  1  0
 12 30  1  0
 14 31  1  0
 15 32  1  0
 33 34  1  0
 34 35  2  0
 35 36  1  0
 36 37  1  0
 36 38  2  0
 38 39  1  0
 39 40  2  0
 39 33  1  0
 34 41  1  0
 35 42  1  0
 37 43  1  0
 37 44  1  0
 16 33  1  0
M  ISO  8  20  13  21  13  22  13  23  13  24  14  25  14  26  14  27  14
M  ISO  5  28  14  29  14  30  14  31  14  32  14
M  END
>  <DihAtoms>  (1) 
14,15,32,33

>  <DihDeg>  (1) 
24.064574454102928

$$$$
