
     RDKit          3D

 27 28  0  0  0  0  0  0  0  0999 V2000
   46.3399   35.1866   42.5739 C   0  0  0  0  0  0  0  0  0  0  0  0
   46.8647   34.1010   43.2529 C   0  0  0  0  0  0  0  0  0  0  0  0
   46.3379   33.7810   44.5281 C   0  0  0  0  0  0  0  0  0  0  0  0
   45.3415   34.5554   45.0314 N   0  0  0  0  0  0  0  0  0  0  0  0
   44.8588   35.5993   44.3511 C   0  0  0  0  0  0  0  0  0  0  0  0
   45.3503   35.9235   43.1221 N   0  0  0  0  0  0  0  0  0  0  0  0
   47.8709   33.4266   42.6098 O   0  0  0  0  0  0  0  0  0  0  0  0
   50.3911   33.1830   41.8486 O   0  0  0  0  0  0  0  0  0  0  0  0
   49.3327   34.1975   42.1607 P   0  0  0  0  0  0  0  0  0  0  0  0
   49.0725   35.1000   40.7559 O   0  0  0  0  0  0  0  0  0  0  0  0
   49.8838   35.2439   43.3554 O   0  0  0  0  0  0  0  0  0  0  0  0
   46.8464   32.9227   44.9116 H   0  0  0  0  0  0  0  0  0  0  0  0
   44.0768   36.0260   45.0019 H   0  0  0  0  0  0  0  0  0  0  0  0
   49.5751   35.9509   40.7667 H   0  0  0  0  0  0  0  0  0  0  0  0
   49.5495   36.1761   43.2263 H   0  0  0  0  0  0  0  0  0  0  0  0
   46.4391   35.8865   41.3419 N   0  0  0  0  0  0  0  0  0  0  0  0
   47.1424   37.0451   41.1463 C   0  0  0  0  0  0  0  0  0  0  0  0
   47.0857   37.5972   39.8570 C   0  0  0  0  0  0  0  0  0  0  0  0
   46.3466   36.9667   38.8773 C   0  0  0  0  0  0  0  0  0  0  0  0
   46.3139   37.5597   37.5784 N   0  0  0  0  0  0  0  0  0  0  0  0
   45.6670   35.8280   39.1068 N   0  0  0  0  0  0  0  0  0  0  0  0
   45.7172   35.2906   40.3453 C   0  0  0  0  0  0  0  0  0  0  0  0
   45.0648   34.2349   40.4897 O   0  0  0  0  0  0  0  0  0  0  0  0
   47.6782   37.4300   42.0037 H   0  0  0  0  0  0  0  0  0  0  0  0
   47.6504   38.5129   39.7280 H   0  0  0  0  0  0  0  0  0  0  0  0
   46.6415   37.1016   36.6846 H   0  0  0  0  0  0  0  0  0  0  0  0
   45.9420   38.5210   37.4735 H   0  0  0  0  0  0  0  0  0  0  0  0
  1  6  1  0
  1  2  2  0
  2  3  1  0
  3  4  2  0
  5  4  1  0
  6  5  2  0
  7  2  1  0
  8  9  2  0
  9  7  1  0
  9 11  1  0
 10  9  1  0
  3 12  1  0
  5 13  1  0
 10 14  1  0
 11 15  1  0
 16 17  1  0
 17 18  2  0
 18 19  1  0
 19 20  1  0
 19 21  2  0
 21 22  1  0
 22 23  2  0
 22 16  1  0
 17 24  1  0
 18 25  1  0
 20 26  1  0
 20 27  1  0
  1 16  1  0
M  ISO  4  12  14  13  14  14   3  15   3
M  END
>  <DihAtoms>  (1) 
5,0,15,16

>  <DihDeg>  (1) 
67.55868227017464

$$$$
