
     RDKit          3D

 27 28  0  0  0  0  0  0  0  0999 V2000
   46.3399   35.1866   42.5739 C   0  0  0  0  0  0  0  0  0  0  0  0
   46.8647   34.1010   43.2529 C   0  0  0  0  0  0  0  0  0  0  0  0
   46.3379   33.7810   44.5281 C   0  0  0  0  0  0  0  0  0  0  0  0
   45.3415   34.5554   45.0314 N   0  0  0  0  0  0  0  0  0  0  0  0
   44.8588   35.5993   44.3511 C   0  0  0  0  0  0  0  0  0  0  0  0
   45.3503   35.9235   43.1221 N   0  0  0  0  0  0  0  0  0  0  0  0
   47.8709   33.4266   42.6098 O   0  0  0  0  0  0  0  0  0  0  0  0
   50.3911   33.1830   41.8486 O   0  0  0  0  0  0  0  0  0  0  0  0
   49.3327   34.1975   42.1607 P   0  0  0  0  0  0  0  0  0  0  0  0
   49.0725   35.1000   40.7559 O   0  0  0  0  0  0  0  0  0  0  0  0
   49.8838   35.2439   43.3554 O   0  0  0  0  0  0  0  0  0  0  0  0
   46.8464   32.9227   44.9116 H   0  0  0  0  0  0  0  0  0  0  0  0
   44.0768   36.0260   45.0019 H   0  0  0  0  0  0  0  0  0  0  0  0
   49.5751   35.9509   40.7667 H   0  0  0  0  0  0  0  0  0  0  0  0
   49.5495   36.1761   43.2263 H   0  0  0  0  0  0  0  0  0  0  0  0
   46.4391   35.8865   41.3419 N   0  0  0  0  0  0  0  0  0  0  0  0
   47.4028   35.6792   40.3913 C   0  0  0  0  0  0  0  0  0  0  0  0
   47.3432   36.5016   39.2553 C   0  0  0  0  0  0  0  0  0  0  0  0
   46.3476   37.4513   39.1527 C   0  0  0  0  0  0  0  0  0  0  0  0
   46.3209   38.2684   37.9815 N   0  0  0  0  0  0  0  0  0  0  0  0
   45.4166   37.6268   40.1085 N   0  0  0  0  0  0  0  0  0  0  0  0
   45.4675   36.8387   41.2046 C   0  0  0  0  0  0  0  0  0  0  0  0
   44.5747   37.0540   42.0518 O   0  0  0  0  0  0  0  0  0  0  0  0
   48.1230   34.9001   40.6023 H   0  0  0  0  0  0  0  0  0  0  0  0
   48.1160   36.3177   38.5184 H   0  0  0  0  0  0  0  0  0  0  0  0
   45.5231   38.3288   37.2916 H   0  0  0  0  0  0  0  0  0  0  0  0
   47.1406   38.8637   37.7647 H   0  0  0  0  0  0  0  0  0  0  0  0
  1  6  1  0
  1  2  2  0
  2  3  1  0
  3  4  2  0
  5  4  1  0
  6  5  2  0
  7  2  1  0
  8  9  2  0
  9  7  1  0
  9 11  1  0
 10  9  1  0
  3 12  1  0
  5 13  1  0
 10 14  1  0
 11 15  1  0
 16 17  1  0
 17 18  2  0
 18 19  1  0
 19 20  1  0
 19 21  2  0
 21 22  1  0
 22 23  2  0
 22 16  1  0
 17 24  1  0
 18 25  1  0
 20 26  1  0
 20 27  1  0
  1 16  1  0
M  ISO  4  12  14  13  14  14   3  15   3
M  END
>  <DihAtoms>  (1) 
5,0,15,16

>  <DihDeg>  (1) 
67.55868227017464

$$$$
