
     RDKit          3D

 43 45  0  0  0  0  0  0  0  0999 V2000
   47.9315   34.5118   42.4511 C   0  0  0  0  0  0  0  0  0  0  0  0
   48.0258   33.4825   43.4061 C   0  0  0  0  0  0  0  0  0  0  0  0
   46.9588   33.3533   44.3167 C   0  0  0  0  0  0  0  0  0  0  0  0
   45.9222   34.2278   44.2066 N   0  0  0  0  0  0  0  0  0  0  0  0
   45.8676   35.1924   43.2871 C   0  0  0  0  0  0  0  0  0  0  0  0
   46.8782   35.3348   42.4045 N   0  0  0  0  0  0  0  0  0  0  0  0
   46.9628   32.3233   45.3407 C   0  0  2  0  0  0  0  0  0  0  0  0
   45.9051   31.2901   44.9249 C   0  0  0  0  0  0  0  0  0  0  0  0
   46.2012   30.0968   45.8482 C   0  0  0  0  0  0  0  0  0  0  0  0
   45.6620   30.5478   47.1892 C   0  0  0  0  0  0  0  0  0  0  0  0
   46.4176   31.7190   47.6971 C   0  0  0  0  0  0  0  0  0  0  0  0
   46.6663   32.8205   46.7140 C   0  0  1  0  0  0  0  0  0  0  0  0
   49.0791   34.6263   41.4957 C   0  0  0  0  0  0  0  0  0  0  0  0
   49.1689   33.5136   40.6807 F   0  0  0  0  0  0  0  0  0  0  0  0
   48.9010   35.7883   40.7439 F   0  0  0  0  0  0  0  0  0  0  0  0
   50.2609   34.8150   42.2022 F   0  0  0  0  0  0  0  0  0  0  0  0
   44.7047   36.1240   43.2138 C   0  0  0  0  0  0  0  0  0  0  0  0
   44.0266   35.9913   42.0418 F   0  0  0  0  0  0  0  0  0  0  0  0
   45.1578   37.4510   43.3883 F   0  0  0  0  0  0  0  0  0  0  0  0
   43.8520   35.9364   44.2732 F   0  0  0  0  0  0  0  0  0  0  0  0
   48.8630   32.8011   43.4702 H   0  0  0  0  0  0  0  0  0  0  0  0
   47.9106   31.7378   45.2687 H   0  0  0  0  0  0  0  0  0  0  0  0
   44.8926   31.6538   45.1072 H   0  0  0  0  0  0  0  0  0  0  0  0
   46.1123   30.9678   43.8901 H   0  0  0  0  0  0  0  0  0  0  0  0
   47.3146   30.0100   45.9954 H   0  0  0  0  0  0  0  0  0  0  0  0
   45.7288   29.1750   45.5074 H   0  0  0  0  0  0  0  0  0  0  0  0
   45.7134   29.7549   47.9487 H   0  0  0  0  0  0  0  0  0  0  0  0
   44.5824   30.7731   47.0217 H   0  0  0  0  0  0  0  0  0  0  0  0
   47.3341   31.3896   48.2294 H   0  0  0  0  0  0  0  0  0  0  0  0
   45.7825   32.1659   48.5170 H   0  0  0  0  0  0  0  0  0  0  0  0
   45.7357   33.4243   46.6414 H   0  0  0  0  0  0  0  0  0  0  0  0
   47.6783   33.6733   47.2331 N   0  0  0  0  0  0  0  0  0  0  0  0
   47.7950   34.9872   47.0265 C   0  0  0  0  0  0  0  0  0  0  0  0
   48.7921   35.7855   47.5471 C   0  0  0  0  0  0  0  0  0  0  0  0
   49.7510   35.1676   48.3515 C   0  0  0  0  0  0  0  0  0  0  0  0
   50.8167   35.9250   48.9289 N   0  0  0  0  0  0  0  0  0  0  0  0
   49.6277   33.8448   48.5553 N   0  0  0  0  0  0  0  0  0  0  0  0
   48.6409   33.1161   48.0267 C   0  0  0  0  0  0  0  0  0  0  0  0
   48.6566   31.8786   48.3090 O   0  0  0  0  0  0  0  0  0  0  0  0
   47.0675   35.4621   46.4148 H   0  0  0  0  0  0  0  0  0  0  0  0
   48.8530   36.8445   47.3575 H   0  0  0  0  0  0  0  0  0  0  0  0
   50.8825   36.4584   49.8240 H   0  0  0  0  0  0  0  0  0  0  0  0
   51.6364   35.8786   48.2624 H   0  0  0  0  0  0  0  0  0  0  0  0
  1  2  2  0
  2  3  1  0
  3  7  1  0
  4  3  2  0
  5  4  1  0
  6  1  1  0
  6  5  2  0
  7 12  1  0
  8  7  1  0
  8  9  1  0
  9 10  1  0
 10 11  1  0
 12 11  1  0
 13 16  1  0
 13  1  1  0
 14 13  1  0
 15 13  1  0
 17  5  1  0
 17 19  1  0
 17 20  1  0
 18 17  1  0
  2 21  1  0
  7 22  1  1
  8 23  1  0
  8 24  1  0
  9 25  1  0
  9 26  1  0
 10 27  1  0
 10 28  1  0
 11 29  1  0
 11 30  1  0
 12 31  1  6
 32 33  1  0
 33 34  2  0
 34 35  1  0
 35 36  1  0
 35 37  2  0
 37 38  1  0
 38 39  2  0
 38 32  1  0
 33 40  1  0
 34 41  1  0
 36 42  1  0
 36 43  1  0
 12 32  1  0
M  ISO  8  21  14  22  13  23  13  24  13  25  13  26  13  27  13  28  13
M  ISO  3  29  13  30  13  31  13
M  END
>  <DihAtoms>  (1) 
6,11,31,32

>  <DihDeg>  (1) 
-20.220784932507048

$$$$
