
     RDKit          3D

 37 39  0  0  0  0  0  0  0  0999 V2000
   44.6510   35.3819   45.2036 C   0  0  0  0  0  0  0  0  0  0  0  0
   45.3839   35.2410   44.0182 C   0  0  0  0  0  0  0  0  0  0  0  0
   46.2271   34.1179   43.9331 C   0  0  0  0  0  0  0  0  0  0  0  0
   46.2906   33.2533   44.9623 N   0  0  0  0  0  0  0  0  0  0  0  0
   45.5724   33.4209   46.0842 C   0  0  0  0  0  0  0  0  0  0  0  0
   44.7410   34.4882   46.2233 N   0  0  0  0  0  0  0  0  0  0  0  0
   47.1882   32.1417   47.4814 C   0  0  2  0  0  0  0  0  0  0  0  0
   45.7102   32.4132   47.1224 C   0  0  1  0  0  0  0  0  0  0  0  0
   45.2315   32.7644   48.3538 O   0  0  0  0  0  0  0  0  0  0  0  0
   45.7255   31.8768   49.2613 C   0  0  0  0  0  0  0  0  0  0  0  0
   46.9350   31.1937   48.6577 C   0  0  2  0  0  0  0  0  0  0  0  0
   47.7329   33.2683   48.0040 O   0  0  0  0  0  0  0  0  0  0  0  0
   48.0022   31.1042   49.5137 O   0  0  0  0  0  0  0  0  0  0  0  0
   45.2065   36.2624   42.9871 C   0  0  0  0  0  0  0  0  0  0  0  0
   43.9700   36.2027   45.3880 H   0  0  0  0  0  0  0  0  0  0  0  0
   46.7901   34.0170   43.0143 H   0  0  0  0  0  0  0  0  0  0  0  0
   47.7279   31.6566   46.6685 H   0  0  0  0  0  0  0  0  0  0  0  0
   45.2515   31.4524   46.7725 H   0  0  0  0  0  0  0  0  0  0  0  0
   44.9786   31.1190   49.5779 H   0  0  0  0  0  0  0  0  0  0  0  0
   46.0599   32.4005   50.1849 H   0  0  0  0  0  0  0  0  0  0  0  0
   46.6522   30.2206   48.2287 H   0  0  0  0  0  0  0  0  0  0  0  0
   47.8238   34.0305   47.3850 H   0  0  0  0  0  0  0  0  0  0  0  0
   48.8428   31.1196   49.0067 H   0  0  0  0  0  0  0  0  0  0  0  0
   46.1988   36.3719   42.4584 H   0  0  0  0  0  0  0  0  0  0  0  0
   45.0486   37.2600   43.4459 H   0  0  0  0  0  0  0  0  0  0  0  0
   44.1508   35.9819   42.0384 N   0  0  0  0  0  0  0  0  0  0  0  0
   43.0816   35.2639   42.4326 C   0  0  0  0  0  0  0  0  0  0  0  0
   42.0717   35.0010   41.5078 C   0  0  0  0  0  0  0  0  0  0  0  0
   42.2525   35.5081   40.2372 C   0  0  0  0  0  0  0  0  0  0  0  0
   41.2513   35.2679   39.2569 N   0  0  0  0  0  0  0  0  0  0  0  0
   43.3444   36.2280   39.8765 N   0  0  0  0  0  0  0  0  0  0  0  0
   44.3058   36.4677   40.7894 C   0  0  0  0  0  0  0  0  0  0  0  0
   45.2767   37.1298   40.3999 O   0  0  0  0  0  0  0  0  0  0  0  0
   42.9555   34.8748   43.4295 H   0  0  0  0  0  0  0  0  0  0  0  0
   41.1946   34.4374   41.7520 H   0  0  0  0  0  0  0  0  0  0  0  0
   40.7662   36.2039   39.1386 H   0  0  0  0  0  0  0  0  0  0  0  0
   40.8081   34.5782   38.6250 H   0  0  0  0  0  0  0  0  0  0  0  0
  1  6  2  0
  2  1  1  0
  3  2  2  0
  3  4  1  0
  4  5  2  0
  5  6  1  0
  7 12  1  0
  7 11  1  0
  8  5  1  0
  8  7  1  0
  8  9  1  0
  9 10  1  0
 11 10  1  0
 11 13  1  0
 14  2  1  0
  1 15  1  0
  3 16  1  0
  7 17  1  6
  8 18  1  6
 10 19  1  0
 10 20  1  0
 11 21  1  6
 12 22  1  0
 13 23  1  0
 14 24  1  0
 14 25  1  0
 26 27  1  0
 27 28  2  0
 28 29  1  0
 29 30  1  0
 29 31  2  0
 31 32  1  0
 32 33  2  0
 32 26  1  0
 27 34  1  0
 28 35  1  0
 30 36  1  0
 30 37  1  0
 14 26  1  0
M  ISO  8  15  14  16  14  17  13  18  13  19  13  20  13  21  13  22   3
M  ISO  3  23   3  24   8  25   8
M  END
>  <DihAtoms>  (1) 
1,13,25,26

>  <DihDeg>  (1) 
90.00449889822748

$$$$
