
     RDKit          3D

 44 48  0  0  1  0  0  0  0  0999 V2000
   46.4070   32.3110   46.3200 C   0  0  1  0  0  0  0  0  0  0  0  0
   46.6710   32.5360   47.7500 C   0  0  0  0  0  0  0  0  0  0  0  0
   45.3840   31.8030   47.2070 C   0  0  2  0  0  0  0  0  0  0  0  0
   45.1590   30.3930   47.5420 C   0  0  0  0  0  0  0  0  0  0  0  0
   45.0530   29.8370   48.7750 C   0  0  0  0  0  0  0  0  0  0  0  0
   44.9460   28.4850   49.0450 C   0  0  0  0  0  0  0  0  0  0  0  0
   44.9510   27.6220   47.9390 C   0  0  0  0  0  0  0  0  0  0  0  0
   45.0580   28.1650   46.6590 C   0  0  0  0  0  0  0  0  0  0  0  0
   44.9970   27.2850   45.5960 C   0  0  0  0  0  0  0  0  0  0  0  0
   45.0280   27.7840   44.3030 C   0  0  0  0  0  0  0  0  0  0  0  0
   45.1160   29.1410   44.0760 C   0  0  0  0  0  0  0  0  0  0  0  0
   45.1750   29.9720   45.1700 C   0  0  0  0  0  0  0  0  0  0  0  0
   45.1550   29.5250   46.4790 C   0  0  0  0  0  0  0  0  0  0  0  0
   44.7900   35.3250   44.9310 C   0  0  0  0  0  0  0  0  0  0  0  0
   45.4670   35.4800   43.6740 C   0  0  0  0  0  0  0  0  0  0  0  0
   46.4870   34.5320   43.3430 C   0  0  0  0  0  0  0  0  0  0  0  0
   46.7750   33.5370   44.2130 N   0  0  0  0  0  0  0  0  0  0  0  0
   46.0840   33.4460   45.4050 C   0  0  0  0  0  0  0  0  0  0  0  0
   45.1310   34.3090   45.7460 N   0  0  0  0  0  0  0  0  0  0  0  0
   47.1660   34.6730   42.1010 N   0  0  0  0  0  0  0  0  0  0  0  0
   48.2510   35.4190   41.9490 C   0  0  0  0  0  0  0  0  0  0  0  0
   48.8330   35.4860   40.6970 C   0  0  0  0  0  0  0  0  0  0  0  0
   48.2990   34.7920   39.6210 C   0  0  0  0  0  0  0  0  0  0  0  0
   48.8030   34.7810   38.2960 N   0  0  0  0  0  0  0  0  0  0  0  0
   47.1950   34.0470   39.8270 N   0  0  0  0  0  0  0  0  0  0  0  0
   46.6390   33.9900   41.0500 C   0  0  0  0  0  0  0  0  0  0  0  0
   45.6080   33.2830   41.2040 O   0  0  0  0  0  0  0  0  0  0  0  0
   47.0147   31.8524   45.5260 H   0  0  0  0  0  0  0  0  0  0  0  0
   47.4594   31.9712   48.2690 H   0  0  0  0  0  0  0  0  0  0  0  0
   46.8839   33.4008   48.3955 H   0  0  0  0  0  0  0  0  0  0  0  0
   44.2906   31.9191   47.2395 H   0  0  0  0  0  0  0  0  0  0  0  0
   45.0521   30.5220   49.6357 H   0  0  0  0  0  0  0  0  0  0  0  0
   44.8613   28.1057   50.0741 H   0  0  0  0  0  0  0  0  0  0  0  0
   44.8717   26.5339   48.0793 H   0  0  0  0  0  0  0  0  0  0  0  0
   44.9247   26.2018   45.7733 H   0  0  0  0  0  0  0  0  0  0  0  0
   44.9820   27.0908   43.4502 H   0  0  0  0  0  0  0  0  0  0  0  0
   45.1383   29.5456   43.0534 H   0  0  0  0  0  0  0  0  0  0  0  0
   45.2420   31.0557   44.9939 H   0  0  0  0  0  0  0  0  0  0  0  0
   43.9992   36.0306   45.2256 H   0  0  0  0  0  0  0  0  0  0  0  0
   45.2100   36.3005   42.9879 H   0  0  0  0  0  0  0  0  0  0  0  0
   48.6781   35.9716   42.7989 H   0  0  0  0  0  0  0  0  0  0  0  0
   49.7343   36.0996   40.5515 H   0  0  0  0  0  0  0  0  0  0  0  0
   49.6444   35.3264   38.0605 H   0  0  0  0  0  0  0  0  0  0  0  0
   48.3278   34.2276   37.5688 H   0  0  0  0  0  0  0  0  0  0  0  0
  1  3  1  0
  1  2  1  0
  3  4  1  0
  3  2  1  0
  4  5  2  0
  5  6  1  0
  7  6  2  0
  8  7  1  0
  9  8  2  0
 10  9  1  0
 11 10  2  0
 11 12  1  0
 12 13  2  0
 13  8  1  0
 13  4  1  0
 14 19  2  0
 15 14  1  0
 16 15  2  0
 16 17  1  0
 17 18  2  0
 18 19  1  0
 18  1  1  0
 20 16  1  0
 21 20  1  0
 22 21  2  0
 23 25  2  0
 23 22  1  0
 24 23  1  0
 25 26  1  0
 26 27  2  0
 26 20  1  0
  1 28  1  6
  2 29  1  0
  2 30  1  0
  3 31  1  6
  5 32  1  0
  6 33  1  0
  7 34  1  0
  9 35  1  0
 10 36  1  0
 11 37  1  0
 12 38  1  0
 14 39  1  0
 15 40  1  0
 21 41  1  0
 22 42  1  0
 24 43  1  0
 24 44  1  0
M  ISO  8  28  13  29  13  30  13  31  13  32  14  33  14  34  14  35  14
M  ISO  7  36  14  37  14  38  14  39  14  40  14  41  14  42  14
M  END
>  <minimizedAffinity>  (1) 
-6.29394627

>  <minimizedRMSD>  (1) 
0.711319447

$$$$
