
     RDKit          3D

 48 52  0  0  0  0  0  0  0  0999 V2000
   47.5324   32.6753   44.2732 C   0  0  0  0  0  0  0  0  0  0  0  0
   46.8383   33.6420   43.5573 C   0  0  0  0  0  0  0  0  0  0  0  0
   45.7798   34.3668   44.0889 C   0  0  0  0  0  0  0  0  0  0  0  0
   45.3927   34.1100   45.4138 C   0  0  0  0  0  0  0  0  0  0  0  0
   44.4498   34.5905   46.2451 N   0  0  0  0  0  0  0  0  0  0  0  0
   44.5225   33.9751   47.4339 C   0  0  0  0  0  0  0  0  0  0  0  0
   45.5393   33.0958   47.3198 N   0  0  0  0  0  0  0  0  0  0  0  0
   46.0948   33.1515   46.0960 C   0  0  0  0  0  0  0  0  0  0  0  0
   47.1511   32.4163   45.5914 C   0  0  0  0  0  0  0  0  0  0  0  0
   47.0716   33.4321   39.9091 C   0  0  0  0  0  0  0  0  0  0  0  0
   47.9750   34.4466   39.5913 C   0  0  0  0  0  0  0  0  0  0  0  0
   48.4987   35.1977   40.6386 C   0  0  0  0  0  0  0  0  0  0  0  0
   48.1142   34.9188   41.9292 N   0  0  0  0  0  0  0  0  0  0  0  0
   47.2306   33.9185   42.1793 C   0  0  0  0  0  0  0  0  0  0  0  0
   46.6932   33.1597   41.1952 N   0  0  0  0  0  0  0  0  0  0  0  0
   44.9106   35.5908   43.1633 S   0  0  0  0  0  0  0  0  0  0  0  0
   42.3301   35.6066   42.6945 N   0  0  0  0  0  0  0  0  0  0  0  0
   43.5177   34.9292   42.2075 C   0  0  1  0  0  0  0  0  0  0  0  0
   43.7988   35.2866   40.7555 C   0  0  0  0  0  0  0  0  0  0  0  0
   42.6705   35.2902   39.9598 O   0  0  0  0  0  0  0  0  0  0  0  0
   41.5414   34.7656   40.5419 C   0  0  0  0  0  0  0  0  0  0  0  0
   41.2309   35.5660   41.7826 C   0  0  0  0  0  0  0  0  0  0  0  0
   48.3537   32.1554   43.7686 H   0  0  0  0  0  0  0  0  0  0  0  0
   43.7852   35.3369   45.9479 H   0  0  0  0  0  0  0  0  0  0  0  0
   43.8522   34.2186   48.2373 H   0  0  0  0  0  0  0  0  0  0  0  0
   47.6861   31.6687   46.1484 H   0  0  0  0  0  0  0  0  0  0  0  0
   46.7030   32.8882   39.0576 H   0  0  0  0  0  0  0  0  0  0  0  0
   48.2703   34.6590   38.5865 H   0  0  0  0  0  0  0  0  0  0  0  0
   49.1968   35.9943   40.4878 H   0  0  0  0  0  0  0  0  0  0  0  0
   42.1500   35.2957   43.6524 H   0  0  0  0  0  0  0  0  0  0  0  0
   43.4695   33.8374   42.3582 H   0  0  0  0  0  0  0  0  0  0  0  0
   44.3409   36.2471   40.6638 H   0  0  0  0  0  0  0  0  0  0  0  0
   44.4317   34.5170   40.3163 H   0  0  0  0  0  0  0  0  0  0  0  0
   41.6496   33.7090   40.8530 H   0  0  0  0  0  0  0  0  0  0  0  0
   40.7174   34.8343   39.8389 H   0  0  0  0  0  0  0  0  0  0  0  0
   40.3248   35.1020   42.2375 H   0  0  0  0  0  0  0  0  0  0  0  0
   40.9544   36.9356   41.3910 N   0  0  0  0  0  0  0  0  0  0  0  0
   41.7969   37.9591   41.6209 C   0  0  0  0  0  0  0  0  0  0  0  0
   41.5379   39.2655   41.2497 C   0  0  0  0  0  0  0  0  0  0  0  0
   40.3343   39.5513   40.5973 C   0  0  0  0  0  0  0  0  0  0  0  0
   40.0007   40.8776   40.1853 N   0  0  0  0  0  0  0  0  0  0  0  0
   39.4821   38.5201   40.3639 N   0  0  0  0  0  0  0  0  0  0  0  0
   39.8098   37.2646   40.7599 C   0  0  0  0  0  0  0  0  0  0  0  0
   38.9377   36.3901   40.4876 O   0  0  0  0  0  0  0  0  0  0  0  0
   42.7400   37.7648   42.1266 H   0  0  0  0  0  0  0  0  0  0  0  0
   42.2433   40.0491   41.4558 H   0  0  0  0  0  0  0  0  0  0  0  0
   40.7717   41.1442   39.5221 H   0  0  0  0  0  0  0  0  0  0  0  0
   39.1687   41.4405   40.4885 H   0  0  0  0  0  0  0  0  0  0  0  0
  1  9  2  0
  2  3  2  0
  2  1  1  0
  3  4  1  0
  4  8  2  0
  4  5  1  0
  5  6  1  0
  7  6  2  0
  8  7  1  0
  9  8  1  0
 10 15  2  0
 11 10  1  0
 11 12  2  0
 12 13  1  0
 13 14  2  0
 14  2  1  0
 15 14  1  0
 16  3  1  0
 18 17  1  0
 18 16  1  0
 19 18  1  0
 20 21  1  0
 20 19  1  0
 21 22  1  0
 22 17  1  0
  1 23  1  0
  5 24  1  0
  6 25  1  0
  9 26  1  0
 10 27  1  0
 11 28  1  0
 12 29  1  0
 17 30  1  0
 18 31  1  6
 19 32  1  0
 19 33  1  0
 21 34  1  0
 21 35  1  0
 22 36  1  0
 37 38  1  0
 38 39  2  0
 39 40  1  0
 40 41  1  0
 40 42  2  0
 42 43  1  0
 43 44  2  0
 43 37  1  0
 38 45  1  0
 39 46  1  0
 41 47  1  0
 41 48  1  0
 22 37  1  0
M  ISO  8  23  14  24   9  25  14  26  14  27  14  28  14  29  14  30   5
M  ISO  6  31  13  32  13  33  13  34  13  35  13  36  13
M  END
>  <DihAtoms>  (1) 
20,21,36,37

>  <DihDeg>  (1) 
-107.64039535895452

$$$$
