
     RDKit          3D

 27 28  0  0  0  0  0  0  0  0999 V2000
   46.3399   35.1866   42.5739 C   0  0  0  0  0  0  0  0  0  0  0  0
   46.8647   34.1010   43.2529 C   0  0  0  0  0  0  0  0  0  0  0  0
   46.3379   33.7810   44.5281 C   0  0  0  0  0  0  0  0  0  0  0  0
   45.3415   34.5554   45.0314 N   0  0  0  0  0  0  0  0  0  0  0  0
   44.8588   35.5993   44.3511 C   0  0  0  0  0  0  0  0  0  0  0  0
   45.3503   35.9235   43.1221 N   0  0  0  0  0  0  0  0  0  0  0  0
   47.8709   33.4266   42.6098 O   0  0  0  0  0  0  0  0  0  0  0  0
   50.3911   33.1830   41.8486 O   0  0  0  0  0  0  0  0  0  0  0  0
   49.3327   34.1975   42.1607 P   0  0  0  0  0  0  0  0  0  0  0  0
   49.0725   35.1000   40.7559 O   0  0  0  0  0  0  0  0  0  0  0  0
   49.8838   35.2439   43.3554 O   0  0  0  0  0  0  0  0  0  0  0  0
   46.8464   32.9227   44.9116 H   0  0  0  0  0  0  0  0  0  0  0  0
   44.0768   36.0260   45.0019 H   0  0  0  0  0  0  0  0  0  0  0  0
   49.5751   35.9509   40.7667 H   0  0  0  0  0  0  0  0  0  0  0  0
   49.5495   36.1761   43.2263 H   0  0  0  0  0  0  0  0  0  0  0  0
   46.4391   35.8865   41.3419 N   0  0  0  0  0  0  0  0  0  0  0  0
   47.5950   36.3980   40.8152 C   0  0  0  0  0  0  0  0  0  0  0  0
   47.4727   37.0870   39.5983 C   0  0  0  0  0  0  0  0  0  0  0  0
   46.2319   37.2132   39.0081 C   0  0  0  0  0  0  0  0  0  0  0  0
   46.1489   37.9212   37.7704 N   0  0  0  0  0  0  0  0  0  0  0  0
   45.1164   36.6969   39.5561 N   0  0  0  0  0  0  0  0  0  0  0  0
   45.2266   36.0322   40.7271 C   0  0  0  0  0  0  0  0  0  0  0  0
   44.1539   35.5790   41.1800 O   0  0  0  0  0  0  0  0  0  0  0  0
   48.4981   36.2246   41.3850 H   0  0  0  0  0  0  0  0  0  0  0  0
   48.4010   37.4814   39.2025 H   0  0  0  0  0  0  0  0  0  0  0  0
   45.7999   37.5231   36.8562 H   0  0  0  0  0  0  0  0  0  0  0  0
   46.4501   38.9119   37.7364 H   0  0  0  0  0  0  0  0  0  0  0  0
  1  6  1  0
  1  2  2  0
  2  3  1  0
  3  4  2  0
  5  4  1  0
  6  5  2  0
  7  2  1  0
  8  9  2  0
  9  7  1  0
  9 11  1  0
 10  9  1  0
  3 12  1  0
  5 13  1  0
 10 14  1  0
 11 15  1  0
 16 17  1  0
 17 18  2  0
 18 19  1  0
 19 20  1  0
 19 21  2  0
 21 22  1  0
 22 23  2  0
 22 16  1  0
 17 24  1  0
 18 25  1  0
 20 26  1  0
 20 27  1  0
  1 16  1  0
M  ISO  4  12  14  13  14  14   3  15   3
M  END
>  <DihAtoms>  (1) 
5,0,15,16

>  <DihDeg>  (1) 
67.55868227017464

$$$$
