
     RDKit          3D

 15 15  0  0  0  0  0  0  0  0999 V2000
   44.5180   36.0210   44.5420 C   0  0  0  0  0  0  0  0  0  0  0  0
   45.2650   35.9040   43.3350 C   0  0  0  0  0  0  0  0  0  0  0  0
   46.1510   34.8410   43.2340 C   0  0  0  0  0  0  0  0  0  0  0  0
   46.2720   33.9660   44.2700 N   0  0  0  0  0  0  0  0  0  0  0  0
   45.5470   34.1100   45.3970 C   0  0  0  0  0  0  0  0  0  0  0  0
   44.6730   35.1390   45.5260 N   0  0  0  0  0  0  0  0  0  0  0  0
   45.8200   33.0570   46.4060 C   0  0  0  0  0  0  0  0  0  0  0  0
   44.9830   33.1560   47.4940 F   0  0  0  0  0  0  0  0  0  0  0  0
   47.1280   33.1500   46.8470 F   0  0  0  0  0  0  0  0  0  0  0  0
   45.6950   31.8020   45.8010 F   0  0  0  0  0  0  0  0  0  0  0  0
   46.9480   34.6620   42.0250 C   0  0  0  0  0  0  0  0  0  0  0  0
   47.9550   35.3920   41.8330 O   0  0  0  0  0  0  0  0  0  0  0  0
   43.8049   36.8499   44.6620 H   0  0  0  0  0  0  0  0  0  0  0  0
   45.1443   36.6277   42.5154 H   0  0  0  0  0  0  0  0  0  0  0  0
   46.6708   33.8949   41.2870 H   0  0  0  0  0  0  0  0  0  0  0  0
  1  6  2  0
  2  1  1  0
  3  2  2  0
  3  4  1  0
  4  5  2  0
  5  6  1  0
  5  7  1  0
  7  9  1  0
  7  8  1  0
 10  7  1  0
 11  3  1  0
 12 11  2  0
  1 13  1  0
  2 14  1  0
 11 15  1  0
M  ISO  3  13  14  14  14  15   6
M  END
>  <minimizedAffinity>  (1) 
-4.24337626

>  <minimizedRMSD>  (1) 
0.438246906

$$$$
