
     RDKit          3D

 25 26  0  0  1  0  0  0  0  0999 V2000
   44.7360   34.7390   41.5040 N   0  0  0  0  0  0  0  0  0  0  0  0
   45.7160   34.1620   40.6530 C   0  0  0  0  0  0  0  0  0  0  0  0
   46.9820   34.3900   41.4110 C   0  0  0  0  0  0  0  0  0  0  0  0
   46.6460   35.0360   42.7340 C   0  0  0  0  0  0  0  0  0  0  0  0
   45.1230   34.7670   42.8330 C   0  0  1  0  0  0  0  0  0  0  0  0
   43.6150   35.2730   40.9550 C   0  0  0  0  0  0  0  0  0  0  0  0
   40.0160   34.4420   41.7330 C   0  0  0  0  0  0  0  0  0  0  0  0
   41.1660   35.2460   41.5310 C   0  0  0  0  0  0  0  0  0  0  0  0
   42.3590   34.5940   41.2320 C   0  0  0  0  0  0  0  0  0  0  0  0
   42.3470   33.2430   41.1550 N   0  0  0  0  0  0  0  0  0  0  0  0
   41.2290   32.4850   41.3530 C   0  0  0  0  0  0  0  0  0  0  0  0
   40.0600   33.0900   41.6440 N   0  0  0  0  0  0  0  0  0  0  0  0
   44.6140   35.8010   43.7240 C   0  0  0  0  0  0  0  0  0  0  0  0
   43.5770   35.7840   44.3970 O   0  0  0  0  0  0  0  0  0  0  0  0
   45.5770   33.6701   39.6790 H   0  0  0  0  0  0  0  0  0  0  0  0
   47.9927   34.1303   41.0631 H   0  0  0  0  0  0  0  0  0  0  0  0
   47.1923   34.5618   43.5627 H   0  0  0  0  0  0  0  0  0  0  0  0
   46.9178   36.1002   42.7947 H   0  0  0  0  0  0  0  0  0  0  0  0
   44.7414   33.8360   43.2776 H   0  0  0  0  0  0  0  0  0  0  0  0
   43.7527   35.2849   39.8637 H   0  0  0  0  0  0  0  0  0  0  0  0
   43.5131   36.2651   41.4190 H   0  0  0  0  0  0  0  0  0  0  0  0
   39.0589   34.9300   41.9691 H   0  0  0  0  0  0  0  0  0  0  0  0
   41.1175   36.3423   41.6075 H   0  0  0  0  0  0  0  0  0  0  0  0
   41.2816   31.3890   41.2757 H   0  0  0  0  0  0  0  0  0  0  0  0
   45.2284   36.7095   43.8085 H   0  0  0  0  0  0  0  0  0  0  0  0
  1  5  1  0
  2  3  2  0
  2  1  1  0
  3  4  1  0
  4  5  1  0
  5 13  1  0
  6  9  1  0
  6  1  1  0
  8  7  2  0
  9  8  1  0
 10  9  2  0
 10 11  1  0
 11 12  2  0
 12  7  1  0
 13 14  2  0
  2 15  1  0
  3 16  1  0
  4 17  1  0
  4 18  1  0
  5 19  1  1
  6 20  1  0
  6 21  1  0
  7 22  1  0
  8 23  1  0
 11 24  1  0
 13 25  1  0
M  ISO  8  15  13  16  13  17  13  18  13  19  13  20   8  21   8  22  14
M  ISO  3  23  14  24  14  25   6
M  END
>  <minimizedAffinity>  (1) 
-4.41574383

>  <minimizedRMSD>  (1) 
3.99586749

$$$$
