
     RDKit          3D

 35 37  0  0  0  0  0  0  0  0999 V2000
   43.0380   35.5000   40.9620 C   0  0  0  0  0  0  0  0  0  0  0  0
   46.3620   34.1160   41.8220 C   0  0  0  0  0  0  0  0  0  0  0  0
   46.5940   34.8040   42.9660 C   0  0  0  0  0  0  0  0  0  0  0  0
   45.0680   35.8320   43.1160 S   0  0  0  0  0  0  0  0  0  0  0  0
   44.3710   35.1170   41.5470 C   0  0  0  0  0  0  0  0  0  0  0  0
   45.2290   34.4090   41.2820 N   0  0  0  0  0  0  0  0  0  0  0  0
   49.0740   32.4940   39.7840 C   0  0  0  0  0  0  0  0  0  0  0  0
   48.2120   33.4910   40.2760 C   0  0  0  0  0  0  0  0  0  0  0  0
   47.3100   33.1280   41.2470 C   0  0  0  0  0  0  0  0  0  0  0  0
   47.3180   31.8190   41.6660 N   0  0  0  0  0  0  0  0  0  0  0  0
   48.1600   30.9110   41.1640 C   0  0  0  0  0  0  0  0  0  0  0  0
   49.0320   31.2400   40.2330 N   0  0  0  0  0  0  0  0  0  0  0  0
   48.3430   34.7830   39.7340 N   0  0  0  0  0  0  0  0  0  0  0  0
   42.8550   34.9100   39.6160 C   0  0  0  0  0  0  0  0  0  0  0  0
   41.5050   34.6350   39.1710 C   0  0  0  0  0  0  0  0  0  0  0  0
   40.8490   34.9640   38.0260 C   0  0  0  0  0  0  0  0  0  0  0  0
   39.5600   34.6630   37.6840 C   0  0  0  0  0  0  0  0  0  0  0  0
   38.8610   33.9480   38.6110 C   0  0  0  0  0  0  0  0  0  0  0  0
   39.5160   33.6010   39.7930 C   0  0  0  0  0  0  0  0  0  0  0  0
   40.7880   33.9200   40.0850 N   0  0  0  0  0  0  0  0  0  0  0  0
   38.7290   32.8190   40.7890 C   0  0  0  0  0  0  0  0  0  0  0  0
   39.2990   32.1990   41.7210 O   0  0  0  0  0  0  0  0  0  0  0  0
   42.2380   35.1378   41.6244 H   0  0  0  0  0  0  0  0  0  0  0  0
   42.9993   36.5955   40.8706 H   0  0  0  0  0  0  0  0  0  0  0  0
   47.4671   34.7610   43.6337 H   0  0  0  0  0  0  0  0  0  0  0  0
   49.8047   32.7575   39.0052 H   0  0  0  0  0  0  0  0  0  0  0  0
   48.1246   29.8753   41.5329 H   0  0  0  0  0  0  0  0  0  0  0  0
   47.7329   35.5443   40.0642 H   0  0  0  0  0  0  0  0  0  0  0  0
   49.0490   34.9674   39.0071 H   0  0  0  0  0  0  0  0  0  0  0  0
   43.3030   35.6052   38.8907 H   0  0  0  0  0  0  0  0  0  0  0  0
   43.3284   33.9194   39.6842 H   0  0  0  0  0  0  0  0  0  0  0  0
   41.4241   35.5411   37.2869 H   0  0  0  0  0  0  0  0  0  0  0  0
   39.1173   34.9761   36.7269 H   0  0  0  0  0  0  0  0  0  0  0  0
   37.8159   33.6546   38.4329 H   0  0  0  0  0  0  0  0  0  0  0  0
   37.6326   32.7845   40.7064 H   0  0  0  0  0  0  0  0  0  0  0  0
  1  5  1  0
  2  3  2  0
  3  4  1  0
  5  4  1  0
  6  5  2  0
  6  2  1  0
  7 12  2  0
  7  8  1  0
  8  9  2  0
  9 10  1  0
  9  2  1  0
 11 10  2  0
 12 11  1  0
 13  8  1  0
 14  1  1  0
 15 14  1  0
 15 20  1  0
 16 15  2  0
 17 16  1  0
 17 18  2  0
 18 19  1  0
 19 20  2  0
 19 21  1  0
 21 22  2  0
  1 23  1  0
  1 24  1  0
  3 25  1  0
  7 26  1  0
 11 27  1  0
 13 28  1  0
 13 29  1  0
 14 30  1  0
 14 31  1  0
 16 32  1  0
 17 33  1  0
 18 34  1  0
 21 35  1  0
M  ISO  8  23   8  24   8  25  14  26  14  27  14  30   8  31   8  32  14
M  ISO  3  33  14  34  14  35   6
M  END
>  <minimizedAffinity>  (1) 
-5.36792374

>  <minimizedRMSD>  (1) 
1.73755622

$$$$
