
     RDKit          3D

 32 34  0  0  0  0  0  0  0  0999 V2000
   45.5180   32.3500   40.5400 Cl  0  0  0  0  0  0  0  0  0  0  0  0
   46.8080   33.4630   40.1880 C   0  0  0  0  0  0  0  0  0  0  0  0
   47.3720   34.2030   41.1810 C   0  0  0  0  0  0  0  0  0  0  0  0
   48.4120   35.1090   40.9260 C   0  0  0  0  0  0  0  0  0  0  0  0
   48.8250   35.2000   39.6130 C   0  0  0  0  0  0  0  0  0  0  0  0
   48.2460   34.4470   38.6220 C   0  0  0  0  0  0  0  0  0  0  0  0
   47.2560   33.5880   38.8810 C   0  0  0  0  0  0  0  0  0  0  0  0
   46.8980   32.9110   44.5990 C   0  0  0  0  0  0  0  0  0  0  0  0
   45.9560   33.8190   45.1420 C   0  0  0  0  0  0  0  0  0  0  0  0
   45.5050   34.8520   44.3270 C   0  0  0  0  0  0  0  0  0  0  0  0
   45.9900   34.9400   43.0500 N   0  0  0  0  0  0  0  0  0  0  0  0
   46.8860   34.0600   42.5610 C   0  0  0  0  0  0  0  0  0  0  0  0
   47.3350   33.0510   43.3390 N   0  0  0  0  0  0  0  0  0  0  0  0
   44.5150   35.8680   44.7860 C   0  0  0  0  0  0  0  0  0  0  0  0
   44.9730   37.1330   44.5620 F   0  0  0  0  0  0  0  0  0  0  0  0
   43.3420   35.6870   44.0800 F   0  0  0  0  0  0  0  0  0  0  0  0
   44.3050   35.6370   46.1280 F   0  0  0  0  0  0  0  0  0  0  0  0
   46.6320   32.7830   37.8480 C   0  0  0  0  0  0  0  0  0  0  0  0
   45.5920   33.1900   37.0320 C   0  0  0  0  0  0  0  0  0  0  0  0
   45.2440   32.1890   36.1680 C   0  0  0  0  0  0  0  0  0  0  0  0
   46.1170   31.1680   36.5010 C   0  0  0  0  0  0  0  0  0  0  0  0
   46.9070   31.5590   37.4850 O   0  0  0  0  0  0  0  0  0  0  0  0
   46.2830   29.8220   35.9660 C   0  0  0  0  0  0  0  0  0  0  0  0
   46.7820   29.4940   34.8680 O   0  0  0  0  0  0  0  0  0  0  0  0
   48.8705   35.7105   41.7247 H   0  0  0  0  0  0  0  0  0  0  0  0
   49.6387   35.8933   39.3536 H   0  0  0  0  0  0  0  0  0  0  0  0
   48.6063   34.5536   37.5882 H   0  0  0  0  0  0  0  0  0  0  0  0
   47.2748   32.0828   45.2171 H   0  0  0  0  0  0  0  0  0  0  0  0
   45.5930   33.7107   46.1747 H   0  0  0  0  0  0  0  0  0  0  0  0
   45.1126   34.1792   37.0724 H   0  0  0  0  0  0  0  0  0  0  0  0
   44.4605   32.1940   35.3959 H   0  0  0  0  0  0  0  0  0  0  0  0
   45.9275   28.9988   36.6032 H   0  0  0  0  0  0  0  0  0  0  0  0
  2  1  1  0
  2  3  2  0
  3 12  1  0
  4  3  1  0
  5  4  2  0
  6  7  2  0
  6  5  1  0
  7  2  1  0
  8  9  2  0
 10 14  1  0
 10  9  1  0
 11 10  2  0
 12 11  1  0
 12 13  2  0
 13  8  1  0
 14 17  1  0
 15 14  1  0
 16 14  1  0
 18  7  1  0
 19 18  2  0
 20 21  2  0
 20 19  1  0
 21 22  1  0
 22 18  1  0
 23 21  1  0
 24 23  2  0
  4 25  1  0
  5 26  1  0
  6 27  1  0
  8 28  1  0
  9 29  1  0
 19 30  1  0
 20 31  1  0
 23 32  1  0
M  ISO  8  25  14  26  14  27  14  28  14  29  14  30  14  31  14  32   6
M  END
>  <minimizedAffinity>  (1) 
-5.46439362

>  <minimizedRMSD>  (1) 
0.0884503424

$$$$
