
     RDKit          3D

 23 24  0  0  0  0  0  0  0  0999 V2000
   41.4450   34.1480   40.3520 C   0  0  0  0  0  0  0  0  0  0  0  0
   40.8590   33.3250   41.2780 C   0  0  0  0  0  0  0  0  0  0  0  0
   39.4940   33.1570   41.2530 C   0  0  0  0  0  0  0  0  0  0  0  0
   38.6920   33.7840   40.3330 C   0  0  0  0  0  0  0  0  0  0  0  0
   39.2820   34.6090   39.4060 C   0  0  0  0  0  0  0  0  0  0  0  0
   40.6640   34.7960   39.4090 C   0  0  0  0  0  0  0  0  0  0  0  0
   41.1780   35.7050   38.3640 C   0  0  0  0  0  0  0  0  0  0  0  0
   40.7000   35.7830   37.2100 O   0  0  0  0  0  0  0  0  0  0  0  0
   43.1820   34.5220   40.1840 S   0  0  0  0  0  0  0  0  0  0  0  0
   44.0510   35.6890   42.5280 C   0  0  0  0  0  0  0  0  0  0  0  0
   43.9430   34.4860   41.8100 C   0  0  0  0  0  0  0  0  0  0  0  0
   44.4280   33.3070   42.3790 C   0  0  0  0  0  0  0  0  0  0  0  0
   44.9820   33.4100   43.6150 N   0  0  0  0  0  0  0  0  0  0  0  0
   45.0710   34.5650   44.2740 C   0  0  0  0  0  0  0  0  0  0  0  0
   44.6170   35.7210   43.7630 N   0  0  0  0  0  0  0  0  0  0  0  0
   41.4713   32.8063   42.0303 H   0  0  0  0  0  0  0  0  0  0  0  0
   39.0281   32.4955   41.9982 H   0  0  0  0  0  0  0  0  0  0  0  0
   37.6029   33.6299   40.3375 H   0  0  0  0  0  0  0  0  0  0  0  0
   38.6614   35.1243   38.6581 H   0  0  0  0  0  0  0  0  0  0  0  0
   42.0316   36.3517   38.6151 H   0  0  0  0  0  0  0  0  0  0  0  0
   43.6710   36.6204   42.0829 H   0  0  0  0  0  0  0  0  0  0  0  0
   44.3647   32.3431   41.8529 H   0  0  0  0  0  0  0  0  0  0  0  0
   45.5329   34.5717   45.2723 H   0  0  0  0  0  0  0  0  0  0  0  0
  1  2  2  0
  3  2  1  0
  4  3  2  0
  5  6  2  0
  5  4  1  0
  6  1  1  0
  7  6  1  0
  8  7  2  0
  9  1  1  0
  9 11  1  0
 10 15  2  0
 11 12  2  0
 11 10  1  0
 12 13  1  0
 13 14  2  0
 15 14  1  0
  2 16  1  0
  3 17  1  0
  4 18  1  0
  5 19  1  0
  7 20  1  0
 10 21  1  0
 12 22  1  0
 14 23  1  0
M  ISO  8  16  14  17  14  18  14  19  14  20   6  21  14  22  14  23  14
M  END
>  <minimizedAffinity>  (1) 
-4.47001696

>  <minimizedRMSD>  (1) 
1.74593198

$$$$
