
     RDKit          3D

 31 33  0  0  0  0  0  0  0  0999 V2000
   47.5345   32.8421   43.9068 C   0  0  0  0  0  0  0  0  0  0  0  0
   48.3730   33.3895   43.0152 C   0  0  0  0  0  0  0  0  0  0  0  0
   49.2358   32.4945   42.4155 C   0  0  0  0  0  0  0  0  0  0  0  0
   49.1615   31.1430   42.7843 N   0  0  0  0  0  0  0  0  0  0  0  0
   48.3153   30.6773   43.6701 C   0  0  0  0  0  0  0  0  0  0  0  0
   47.4345   31.5417   44.2896 N   0  0  0  0  0  0  0  0  0  0  0  0
   48.5220   34.7718   42.7349 C   0  0  0  0  0  0  0  0  0  0  0  0
   49.5241   35.3939   42.0567 C   0  0  0  0  0  0  0  0  0  0  0  0
   48.2767   35.2272   41.2332 C   0  0  0  0  0  0  0  0  0  0  0  0
   46.4521   33.5322   44.6228 C   0  0  0  0  0  0  0  0  0  0  0  0
   45.8813   33.8974   45.6201 O   0  0  0  0  0  0  0  0  0  0  0  0
   44.6798   31.6637   42.9286 Cl  0  0  0  0  0  0  0  0  0  0  0  0
   44.6491   33.4206   42.7603 C   0  0  0  0  0  0  0  0  0  0  0  0
   45.5195   34.1217   43.6213 C   0  0  0  0  0  0  0  0  0  0  0  0
   45.4174   35.4876   43.4072 C   0  0  0  0  0  0  0  0  0  0  0  0
   44.6515   36.1682   42.5432 C   0  0  0  0  0  0  0  0  0  0  0  0
   43.8381   35.4136   41.7453 C   0  0  0  0  0  0  0  0  0  0  0  0
   43.8218   34.0679   41.8370 C   0  0  0  0  0  0  0  0  0  0  0  0
   49.9839   32.7605   41.6642 H   0  0  0  0  0  0  0  0  0  0  0  0
   48.3757   29.6096   43.8541 H   0  0  0  0  0  0  0  0  0  0  0  0
   48.0615   35.4336   43.4928 H   0  0  0  0  0  0  0  0  0  0  0  0
   50.3850   34.7786   41.6590 H   0  0  0  0  0  0  0  0  0  0  0  0
   49.8651   36.4564   42.1069 H   0  0  0  0  0  0  0  0  0  0  0  0
   48.2008   34.3825   40.5381 H   0  0  0  0  0  0  0  0  0  0  0  0
   47.5988   36.0799   41.1218 H   0  0  0  0  0  0  0  0  0  0  0  0
   46.0117   36.1916   44.0282 H   0  0  0  0  0  0  0  0  0  0  0  0
   44.6088   37.2318   42.4120 H   0  0  0  0  0  0  0  0  0  0  0  0
   43.1595   35.8027   40.9971 H   0  0  0  0  0  0  0  0  0  0  0  0
   42.9754   33.2013   41.0158 C   0  0  0  0  0  0  0  0  0  0  0  0
   43.1240   32.1481   40.9224 H   0  0  0  0  0  0  0  0  0  0  0  0
   42.0158   33.6283   40.3627 O   0  0  0  0  0  0  0  0  0  0  0  0
  1  6  1  0
  1 10  1  0
  2  1  2  0
  3  4  2  0
  3  2  1  0
  4  5  1  0
  5  6  2  0
  7  2  1  0
  8  7  1  0
  9  8  1  0
  9  7  1  0
 10 11  2  0
 13 12  1  0
 13 14  2  0
 14 10  1  0
 15 14  1  0
 16 15  2  0
 17 18  2  0
 17 16  1  0
 18 13  1  0
  3 19  1  0
  5 20  1  0
  7 21  1  0
  8 22  1  0
  8 23  1  0
  9 24  1  0
  9 25  1  0
 15 26  1  0
 16 27  1  0
 17 28  1  0
 29 30  1  0
 29 31  2  0
 18 29  1  0
M  ISO  8  19  14  20  14  21  13  22  13  23  13  24  13  25  13  26  14
M  ISO  3  27  14  28  14  30   6
M  END
>  <DihAtoms>  (1) 
16,17,28,29

>  <DihDeg>  (1) 
179.99484830058722

$$$$
