
     RDKit          3D

 22 23  0  0  0  0  0  0  0  0999 V2000
   44.6600   33.1350   41.1330 Br  0  0  0  0  0  0  0  0  0  0  0  0
   46.3450   34.0100   40.9100 C   0  0  0  0  0  0  0  0  0  0  0  0
   46.8760   34.7640   41.9360 C   0  0  0  0  0  0  0  0  0  0  0  0
   48.1080   35.4160   41.7990 C   0  0  0  0  0  0  0  0  0  0  0  0
   48.7750   35.2810   40.6110 C   0  0  0  0  0  0  0  0  0  0  0  0
   48.2180   34.5190   39.6060 C   0  0  0  0  0  0  0  0  0  0  0  0
   47.0330   33.8880   39.7280 C   0  0  0  0  0  0  0  0  0  0  0  0
   45.6240   34.0360   45.2950 C   0  0  0  0  0  0  0  0  0  0  0  0
   44.7140   35.0730   45.5520 C   0  0  0  0  0  0  0  0  0  0  0  0
   44.5450   36.0320   44.5320 C   0  0  0  0  0  0  0  0  0  0  0  0
   45.2560   35.9020   43.3820 N   0  0  0  0  0  0  0  0  0  0  0  0
   46.1260   34.8770   43.1820 C   0  0  0  0  0  0  0  0  0  0  0  0
   46.2970   33.9570   44.1460 N   0  0  0  0  0  0  0  0  0  0  0  0
   46.4410   33.0820   38.6670 C   0  0  0  0  0  0  0  0  0  0  0  0
   46.6170   33.3590   37.4630 O   0  0  0  0  0  0  0  0  0  0  0  0
   48.5263   36.0173   42.6196 H   0  0  0  0  0  0  0  0  0  0  0  0
   49.7458   35.7757   40.4598 H   0  0  0  0  0  0  0  0  0  0  0  0
   48.7675   34.4211   38.6581 H   0  0  0  0  0  0  0  0  0  0  0  0
   45.7870   33.2659   46.0634 H   0  0  0  0  0  0  0  0  0  0  0  0
   44.1607   35.1346   46.5007 H   0  0  0  0  0  0  0  0  0  0  0  0
   43.8480   36.8725   44.6656 H   0  0  0  0  0  0  0  0  0  0  0  0
   45.8255   32.2103   38.9338 H   0  0  0  0  0  0  0  0  0  0  0  0
  2  1  1  0
  2  3  2  0
  3 12  1  0
  4  3  1  0
  5  4  2  0
  6  7  2  0
  6  5  1  0
  7  2  1  0
  8  9  2  0
 10  9  1  0
 11 10  2  0
 12 11  1  0
 12 13  2  0
 13  8  1  0
 14  7  1  0
 15 14  2  0
  4 16  1  0
  5 17  1  0
  6 18  1  0
  8 19  1  0
  9 20  1  0
 10 21  1  0
 14 22  1  0
M  ISO  7  16  14  17  14  18  14  19  14  20  14  21  14  22   6
M  END
>  <minimizedAffinity>  (1) 
-5.08008575

>  <minimizedRMSD>  (1) 
0.539367378

$$$$
