
     RDKit          3D

 39 40  0  0  0  0  0  0  0  0999 V2000
   47.1670   34.1500   43.0820 N   0  0  0  0  0  0  0  0  0  0  0  0
   46.6598   35.3618   42.5300 C   0  0  0  0  0  0  0  0  0  0  0  0
   45.1992   35.6088   42.7518 C   0  0  0  0  0  0  0  0  0  0  0  0
   44.6410   35.0358   44.0272 C   0  0  0  0  0  0  0  0  0  0  0  0
   45.7420   34.4683   44.8925 C   0  0  0  0  0  0  0  0  0  0  0  0
   46.4116   33.3942   43.9592 C   0  0  2  0  0  0  0  0  0  0  0  0
   48.1526   33.5004   42.2695 C   0  0  0  0  0  0  0  0  0  0  0  0
   47.4394   32.6501   41.2550 C   0  0  0  0  0  0  0  0  0  0  0  0
   49.3348   32.2864   38.0285 C   0  0  0  0  0  0  0  0  0  0  0  0
   48.8114   32.0147   39.3072 C   0  0  0  0  0  0  0  0  0  0  0  0
   47.9887   32.9438   39.9041 C   0  0  0  0  0  0  0  0  0  0  0  0
   47.7242   34.0755   39.2280 N   0  0  0  0  0  0  0  0  0  0  0  0
   48.2282   34.3248   38.0097 C   0  0  0  0  0  0  0  0  0  0  0  0
   49.0389   33.4332   37.3967 N   0  0  0  0  0  0  0  0  0  0  0  0
   47.2073   32.6991   44.8568 O   0  0  0  0  0  0  0  0  0  0  0  0
   45.9994   30.5443   43.8676 O   0  0  0  0  0  0  0  0  0  0  0  0
   46.6676   31.1275   45.1180 P   0  0  2  0  0  0  0  0  0  0  0  0
   45.4059   31.2436   46.2696 O   0  0  0  0  0  0  0  0  0  0  0  0
   47.8371   30.1257   45.7436 O   0  0  0  0  0  0  0  0  0  0  0  0
   46.8673   35.5264   41.4677 H   0  0  0  0  0  0  0  0  0  0  0  0
   47.2097   36.1972   43.0541 H   0  0  0  0  0  0  0  0  0  0  0  0
   45.0305   36.7163   42.7954 H   0  0  0  0  0  0  0  0  0  0  0  0
   44.6076   35.2838   41.8573 H   0  0  0  0  0  0  0  0  0  0  0  0
   43.9738   35.7425   44.5600 H   0  0  0  0  0  0  0  0  0  0  0  0
   43.9874   34.1774   43.7353 H   0  0  0  0  0  0  0  0  0  0  0  0
   45.3116   33.9755   45.7729 H   0  0  0  0  0  0  0  0  0  0  0  0
   46.5060   35.2374   45.1202 H   0  0  0  0  0  0  0  0  0  0  0  0
   45.5912   32.7796   43.5353 H   0  0  0  0  0  0  0  0  0  0  0  0
   48.7855   32.8450   42.8987 H   0  0  0  0  0  0  0  0  0  0  0  0
   48.7695   34.2819   41.7795 H   0  0  0  0  0  0  0  0  0  0  0  0
   46.3461   32.9166   41.2059 H   0  0  0  0  0  0  0  0  0  0  0  0
   47.4911   31.5709   41.4479 H   0  0  0  0  0  0  0  0  0  0  0  0
   49.9833   31.5475   37.5650 H   0  0  0  0  0  0  0  0  0  0  0  0
   49.0602   31.0910   39.7962 H   0  0  0  0  0  0  0  0  0  0  0  0
   47.9680   35.2603   37.5299 H   0  0  0  0  0  0  0  0  0  0  0  0
   45.7933   31.3962   47.1670 H   0  0  0  0  0  0  0  0  0  0  0  0
   48.6769   29.4319   44.8848 C   0  0  0  0  0  0  0  0  0  0  0  0
   49.4615   28.7615   45.2167 H   0  0  0  0  0  0  0  0  0  0  0  0
   48.3982   29.6913   43.6811 O   0  0  0  0  0  0  0  0  0  0  0  0
  1  6  1  0
  2  3  1  0
  2  1  1  0
  3  4  1  0
  4  5  1  0
  6 15  1  0
  6  5  1  0
  7  1  1  0
  8  7  1  0
  9 10  2  0
 10 11  1  0
 11  8  1  0
 12 11  2  0
 13 12  1  0
 14 13  2  0
 14  9  1  0
 17 15  1  6
 16 17  2  0
 17 19  1  0
 17 18  1  0
  2 20  1  0
  2 21  1  0
  3 22  1  0
  3 23  1  0
  4 24  1  0
  4 25  1  0
  5 26  1  0
  5 27  1  0
  6 28  1  6
  7 29  1  0
  7 30  1  0
  8 31  1  0
  8 32  1  0
  9 33  1  0
 10 34  1  0
 13 35  1  0
 18 36  1  0
 37 38  1  0
 37 39  2  0
 19 37  1  0
M  ISO  8  20  13  21  13  22  13  23  13  24  13  25  13  26  13  27  13
M  ISO  8  28  13  29   8  30   8  31   8  32   8  33  14  34  14  35  14
M  ISO  2  36   3  38   6
M  END
>  <DihAtoms>  (1) 
16,18,36,37

>  <DihDeg>  (1) 
-179.99998377739064

$$$$
