
     RDKit          3D

 33 34  0  0  0  0  0  0  0  0999 V2000
   41.6070   33.9350   39.6420 C   0  0  0  0  0  0  0  0  0  0  0  0
   41.8900   34.6530   40.7940 C   0  0  0  0  0  0  0  0  0  0  0  0
   40.9580   35.5570   41.2610 C   0  0  0  0  0  0  0  0  0  0  0  0
   39.7820   35.7310   40.5910 C   0  0  0  0  0  0  0  0  0  0  0  0
   39.4720   35.0350   39.4490 C   0  0  0  0  0  0  0  0  0  0  0  0
   40.4400   34.1410   39.0220 C   0  0  0  0  0  0  0  0  0  0  0  0
   43.7190   30.8580   39.0910 C   0  0  0  0  0  0  0  0  0  0  0  0
   42.6860   31.6670   39.5800 C   0  0  0  0  0  0  0  0  0  0  0  0
   42.6280   33.0000   39.2020 C   0  0  0  0  0  0  0  0  0  0  0  0
   43.5980   33.4530   38.3610 N   0  0  0  0  0  0  0  0  0  0  0  0
   44.5860   32.6510   37.9020 C   0  0  0  0  0  0  0  0  0  0  0  0
   44.6490   31.3500   38.2660 N   0  0  0  0  0  0  0  0  0  0  0  0
   43.1770   34.4520   41.5110 C   0  0  0  0  0  0  0  0  0  0  0  0
   44.0110   35.6130   41.5940 N   0  0  0  0  0  0  0  0  0  0  0  0
   44.5960   35.9210   43.1730 S   0  0  0  0  0  0  0  0  0  0  0  0
   43.5060   35.6810   44.1880 O   0  0  0  0  0  0  0  0  0  0  0  0
   45.1240   37.2980   43.3160 O   0  0  0  0  0  0  0  0  0  0  0  0
   45.8310   34.8150   43.4690 O   0  0  0  0  0  0  0  0  0  0  0  0
   47.0110   34.9320   42.7480 C   0  0  0  0  0  0  0  0  0  0  0  0
   46.6870   34.6570   41.5490 O   0  0  0  0  0  0  0  0  0  0  0  0
   41.1629   36.1371   42.1729 H   0  0  0  0  0  0  0  0  0  0  0  0
   39.0539   36.4574   40.9812 H   0  0  0  0  0  0  0  0  0  0  0  0
   38.5228   35.1771   38.9115 H   0  0  0  0  0  0  0  0  0  0  0  0
   40.2348   33.5606   38.1104 H   0  0  0  0  0  0  0  0  0  0  0  0
   43.7661   29.8006   39.3904 H   0  0  0  0  0  0  0  0  0  0  0  0
   41.9273   31.2489   40.2579 H   0  0  0  0  0  0  0  0  0  0  0  0
   45.3481   33.0624   37.2238 H   0  0  0  0  0  0  0  0  0  0  0  0
   42.9491   34.1216   42.5352 H   0  0  0  0  0  0  0  0  0  0  0  0
   43.7411   33.7092   40.9279 H   0  0  0  0  0  0  0  0  0  0  0  0
   44.8177   35.4806   40.9674 H   0  0  0  0  0  0  0  0  0  0  0  0
   43.8809   35.7635   45.1006 H   0  0  0  0  0  0  0  0  0  0  0  0
   45.2093   37.5206   44.2769 H   0  0  0  0  0  0  0  0  0  0  0  0
   48.0067   35.2028   43.1292 H   0  0  0  0  0  0  0  0  0  0  0  0
  1  2  2  0
  2  3  1  0
  2 13  1  0
  4  3  2  0
  5  4  1  0
  6  5  2  0
  6  1  1  0
  7  8  2  0
  9  8  1  0
  9  1  1  0
 10  9  2  0
 11 12  2  0
 11 10  1  0
 12  7  1  0
 13 14  1  0
 14 15  1  0
 15 17  1  0
 15 18  1  0
 15 16  1  0
 19 18  1  0
 20 19  2  0
  3 21  1  0
  4 22  1  0
  5 23  1  0
  6 24  1  0
  7 25  1  0
  8 26  1  0
 11 27  1  0
 13 28  1  0
 13 29  1  0
 14 30  1  0
 16 31  1  0
 17 32  1  0
 19 33  1  0
M  ISO  8  21  14  22  14  23  14  24  14  25  14  26  14  27  14  28   8
M  ISO  5  29   8  30   5  31   3  32   3  33   6
M  END
>  <minimizedAffinity>  (1) 
-4.88264179

>  <minimizedRMSD>  (1) 
2.25187469

$$$$
