
     RDKit          3D

 16 16  0  0  0  0  0  0  0  0999 V2000
   44.6930   35.4400   45.0560 C   0  0  0  0  0  0  0  0  0  0  0  0
   45.5400   34.9520   44.0730 C   0  0  0  0  0  0  0  0  0  0  0  0
   46.2490   33.7750   44.3660 C   0  0  0  0  0  0  0  0  0  0  0  0
   46.0740   33.1920   45.5700 N   0  0  0  0  0  0  0  0  0  0  0  0
   45.2360   33.7030   46.5010 C   0  0  0  0  0  0  0  0  0  0  0  0
   44.5380   34.8300   46.2550 N   0  0  0  0  0  0  0  0  0  0  0  0
   45.6330   35.7040   42.7880 C   0  0  0  0  0  0  0  0  0  0  0  0
   45.2240   36.9730   43.0670 F   0  0  0  0  0  0  0  0  0  0  0  0
   44.7570   35.0940   41.9000 F   0  0  0  0  0  0  0  0  0  0  0  0
   46.9310   35.6180   42.3410 F   0  0  0  0  0  0  0  0  0  0  0  0
   45.0540   33.1050   47.7350 O   0  0  0  0  0  0  0  0  0  0  0  0
   45.9990   32.2830   48.3380 C   0  0  0  0  0  0  0  0  0  0  0  0
   45.9130   31.5370   49.3280 O   0  0  0  0  0  0  0  0  0  0  0  0
   44.1241   36.3595   44.8539 H   0  0  0  0  0  0  0  0  0  0  0  0
   46.9350   33.3363   43.6264 H   0  0  0  0  0  0  0  0  0  0  0  0
   46.9889   32.2949   47.8584 H   0  0  0  0  0  0  0  0  0  0  0  0
  1  6  2  0
  2  3  2  0
  2  1  1  0
  3  4  1  0
  4  5  2  0
  5 11  1  0
  6  5  1  0
  7  8  1  0
  7  2  1  0
  9  7  1  0
 10  7  1  0
 11 12  1  0
 12 13  2  0
  1 14  1  0
  3 15  1  0
 12 16  1  0
M  ISO  3  14  14  15  14  16   6
M  END
>  <minimizedAffinity>  (1) 
-4.12765932

>  <minimizedRMSD>  (1) 
0.664763927

$$$$
