
     RDKit          3D

 39 42  0  0  1  0  0  0  0  0999 V2000
   47.4800   32.6180   44.2370 C   0  0  0  0  0  0  0  0  0  0  0  0
   46.7830   33.5750   43.5060 C   0  0  0  0  0  0  0  0  0  0  0  0
   45.7450   34.3140   44.0470 C   0  0  0  0  0  0  0  0  0  0  0  0
   45.3670   34.1060   45.3770 C   0  0  0  0  0  0  0  0  0  0  0  0
   44.4470   34.6150   46.2040 N   0  0  0  0  0  0  0  0  0  0  0  0
   44.5210   34.0390   47.4070 C   0  0  0  0  0  0  0  0  0  0  0  0
   45.5280   33.1430   47.3090 N   0  0  0  0  0  0  0  0  0  0  0  0
   46.0680   33.1600   46.0730 C   0  0  0  0  0  0  0  0  0  0  0  0
   47.1120   32.4000   45.5680 C   0  0  0  0  0  0  0  0  0  0  0  0
   46.9910   33.1890   39.8700 C   0  0  0  0  0  0  0  0  0  0  0  0
   47.8490   34.2260   39.4970 C   0  0  0  0  0  0  0  0  0  0  0  0
   48.3530   35.0550   40.5040 C   0  0  0  0  0  0  0  0  0  0  0  0
   47.9880   34.8200   41.8070 N   0  0  0  0  0  0  0  0  0  0  0  0
   47.1600   33.8090   42.1120 C   0  0  0  0  0  0  0  0  0  0  0  0
   46.6470   32.9800   41.1690 N   0  0  0  0  0  0  0  0  0  0  0  0
   44.8710   35.5320   43.0890 S   0  0  0  0  0  0  0  0  0  0  0  0
   42.3330   35.4300   42.4300 N   0  0  0  0  0  0  0  0  0  0  0  0
   43.5930   34.8340   42.0190 C   0  0  1  0  0  0  0  0  0  0  0  0
   43.9610   35.2630   40.5980 C   0  0  0  0  0  0  0  0  0  0  0  0
   42.8900   35.2310   39.7280 O   0  0  0  0  0  0  0  0  0  0  0  0
   41.7570   34.6100   40.1900 C   0  0  0  0  0  0  0  0  0  0  0  0
   41.3010   35.3060   41.4510 C   0  0  1  0  0  0  0  0  0  0  0  0
   40.1910   34.5110   42.0450 C   0  0  0  0  0  0  0  0  0  0  0  0
   39.5500   33.8410   41.2670 O   0  0  0  0  0  0  0  0  0  0  0  0
   48.3008   32.0467   43.7787 H   0  0  0  0  0  0  0  0  0  0  0  0
   43.7733   35.3509   45.9480 H   0  0  0  0  0  0  0  0  0  0  0  0
   43.8966   34.2488   48.2879 H   0  0  0  0  0  0  0  0  0  0  0  0
   47.6301   31.6551   46.1899 H   0  0  0  0  0  0  0  0  0  0  0  0
   46.5833   32.5248   39.0937 H   0  0  0  0  0  0  0  0  0  0  0  0
   48.1201   34.3858   38.4430 H   0  0  0  0  0  0  0  0  0  0  0  0
   49.0324   35.8838   40.2560 H   0  0  0  0  0  0  0  0  0  0  0  0
   42.0197   34.9671   43.2951 H   0  0  0  0  0  0  0  0  0  0  0  0
   43.5108   33.7385   42.0742 H   0  0  0  0  0  0  0  0  0  0  0  0
   44.3530   36.2902   40.6329 H   0  0  0  0  0  0  0  0  0  0  0  0
   44.7092   34.5490   40.2233 H   0  0  0  0  0  0  0  0  0  0  0  0
   40.9659   34.6694   39.4280 H   0  0  0  0  0  0  0  0  0  0  0  0
   41.9706   33.5522   40.4030 H   0  0  0  0  0  0  0  0  0  0  0  0
   40.9884   36.3228   41.1711 H   0  0  0  0  0  0  0  0  0  0  0  0
   39.9678   34.5313   43.1219 H   0  0  0  0  0  0  0  0  0  0  0  0
  1  9  2  0
  2  3  2  0
  2  1  1  0
  3  4  1  0
  4  8  2  0
  4  5  1  0
  5  6  1  0
  7  6  2  0
  8  7  1  0
  9  8  1  0
 10 15  2  0
 11 10  1  0
 11 12  2  0
 12 13  1  0
 13 14  2  0
 14  2  1  0
 15 14  1  0
 16  3  1  0
 18 17  1  0
 18 16  1  0
 19 18  1  0
 20 21  1  0
 20 19  1  0
 21 22  1  0
 22 23  1  0
 22 17  1  0
 24 23  2  0
  1 25  1  0
  5 26  1  0
  6 27  1  0
  9 28  1  0
 10 29  1  0
 11 30  1  0
 12 31  1  0
 17 32  1  0
 18 33  1  6
 19 34  1  0
 19 35  1  0
 21 36  1  0
 21 37  1  0
 22 38  1  6
 23 39  1  0
M  ISO  8  25  14  26   9  27  14  28  14  29  14  30  14  31  14  32   5
M  ISO  7  33  13  34  13  35  13  36  13  37  13  38  13  39   6
M  END
>  <minimizedAffinity>  (1) 
-5.73850298

>  <minimizedRMSD>  (1) 
0.271105081

$$$$
