
     RDKit          3D

 33 35  0  0  1  0  0  0  0  0999 V2000
   45.9190   33.5210   45.8260 C   0  0  0  0  0  0  0  0  0  0  0  0
   46.6720   33.6280   44.6360 C   0  0  0  0  0  0  0  0  0  0  0  0
   47.2830   32.4470   44.1180 C   0  0  0  0  0  0  0  0  0  0  0  0
   47.1160   31.2670   44.7910 N   0  0  0  0  0  0  0  0  0  0  0  0
   46.3820   31.2260   45.9280 C   0  0  0  0  0  0  0  0  0  0  0  0
   45.7960   32.3400   46.4320 N   0  0  0  0  0  0  0  0  0  0  0  0
   46.2650   29.9770   46.5510 N   0  0  0  0  0  0  0  0  0  0  0  0
   47.4210   29.2700   46.9970 C   0  0  2  0  0  0  0  0  0  0  0  0
   47.1780   27.8570   47.3990 C   0  0  0  0  0  0  0  0  0  0  0  0
   45.8970   27.5450   47.9020 N   0  0  0  0  0  0  0  0  0  0  0  0
   45.0330   28.6570   48.0640 C   0  0  0  0  0  0  0  0  0  0  0  0
   44.9560   29.3900   46.7510 C   0  0  0  0  0  0  0  0  0  0  0  0
   48.1820   30.0370   48.0160 C   0  0  0  0  0  0  0  0  0  0  0  0
   47.7890   30.7970   49.0980 C   0  0  0  0  0  0  0  0  0  0  0  0
   48.8340   31.3050   49.7560 N   0  0  0  0  0  0  0  0  0  0  0  0
   49.9110   30.8690   49.0910 C   0  0  0  0  0  0  0  0  0  0  0  0
   49.5220   30.1160   48.0580 N   0  0  0  0  0  0  0  0  0  0  0  0
   51.2750   31.2020   49.4890 C   0  0  0  0  0  0  0  0  0  0  0  0
   51.6120   32.4000   49.6300 O   0  0  0  0  0  0  0  0  0  0  0  0
   45.4343   34.4116   46.2525 H   0  0  0  0  0  0  0  0  0  0  0  0
   46.7844   34.5945   44.1229 H   0  0  0  0  0  0  0  0  0  0  0  0
   47.8780   32.4844   43.1936 H   0  0  0  0  0  0  0  0  0  0  0  0
   48.0597   29.1826   46.1057 H   0  0  0  0  0  0  0  0  0  0  0  0
   47.3498   27.2262   46.5144 H   0  0  0  0  0  0  0  0  0  0  0  0
   47.8660   27.6765   48.2381 H   0  0  0  0  0  0  0  0  0  0  0  0
   45.4496   26.8843   47.2507 H   0  0  0  0  0  0  0  0  0  0  0  0
   44.0308   28.3101   48.3558 H   0  0  0  0  0  0  0  0  0  0  0  0
   45.4172   29.3247   48.8492 H   0  0  0  0  0  0  0  0  0  0  0  0
   44.1866   30.1749   46.7947 H   0  0  0  0  0  0  0  0  0  0  0  0
   44.6836   28.7158   45.9256 H   0  0  0  0  0  0  0  0  0  0  0  0
   46.7403   30.9645   49.3845 H   0  0  0  0  0  0  0  0  0  0  0  0
   48.8155   31.9032   50.5943 H   0  0  0  0  0  0  0  0  0  0  0  0
   52.0075   30.4005   49.6652 H   0  0  0  0  0  0  0  0  0  0  0  0
  1  6  2  0
  2  1  1  0
  3  2  2  0
  3  4  1  0
  4  5  2  0
  5  6  1  0
  5  7  1  0
  7 12  1  0
  7  8  1  0
  8  9  1  0
  8 13  1  0
  9 10  1  0
 10 11  1  0
 12 11  1  0
 13 17  1  0
 13 14  2  0
 14 15  1  0
 16 18  1  0
 16 15  1  0
 17 16  2  0
 18 19  2  0
  1 20  1  0
  2 21  1  0
  3 22  1  0
  8 23  1  6
  9 24  1  0
  9 25  1  0
 10 26  1  0
 11 27  1  0
 11 28  1  0
 12 29  1  0
 12 30  1  0
 14 31  1  0
 15 32  1  0
 18 33  1  0
M  ISO  8  20  14  21  14  22  14  23  13  24  13  25  13  26   5  27  13
M  ISO  6  28  13  29  13  30  13  31  14  32   9  33   6
M  END
>  <minimizedAffinity>  (1) 
-4.40621424

>  <minimizedRMSD>  (1) 
0.0813328624

$$$$
