
     RDKit          3D

 34 35  0  0  1  0  0  0  0  0999 V2000
   44.6400   35.2590   45.0760 O   0  0  0  0  0  0  0  0  0  0  0  0
   45.4690   34.2100   44.4160 P   0  0  2  0  0  0  0  0  0  0  0  0
   44.5490   32.9570   43.7830 O   0  0  0  0  0  0  0  0  0  0  0  0
   46.4970   33.4950   45.5630 O   0  0  0  0  0  0  0  0  0  0  0  0
   46.2900   32.1500   45.5410 C   0  0  0  0  0  0  0  0  0  0  0  0
   45.6830   31.9290   49.2060 C   0  0  0  0  0  0  0  0  0  0  0  0
   46.0320   32.4500   47.9530 C   0  0  0  0  0  0  0  0  0  0  0  0
   45.9260   31.6140   46.8560 C   0  0  0  0  0  0  0  0  0  0  0  0
   45.4890   30.3310   47.0530 N   0  0  0  0  0  0  0  0  0  0  0  0
   45.1600   29.8600   48.2740 C   0  0  0  0  0  0  0  0  0  0  0  0
   45.2620   30.6680   49.3380 N   0  0  0  0  0  0  0  0  0  0  0  0
   46.4370   34.9290   43.2430 O   0  0  0  0  0  0  0  0  0  0  0  0
   46.6740   34.0160   42.2160 C   0  0  1  0  0  0  0  0  0  0  0  0
   45.9590   34.3530   40.9360 C   0  0  0  0  0  0  0  0  0  0  0  0
   46.6670   33.4360   39.9570 C   0  0  0  0  0  0  0  0  0  0  0  0
   48.0590   33.2210   40.5100 C   0  0  0  0  0  0  0  0  0  0  0  0
   48.1350   34.1030   41.7660 C   0  0  1  0  0  0  0  0  0  0  0  0
   48.5540   35.4760   41.4590 C   0  0  0  0  0  0  0  0  0  0  0  0
   49.5630   35.9240   42.0230 O   0  0  0  0  0  0  0  0  0  0  0  0
   44.1598   32.4269   44.5230 H   0  0  0  0  0  0  0  0  0  0  0  0
   45.4768   31.9302   44.8336 H   0  0  0  0  0  0  0  0  0  0  0  0
   47.2330   31.6728   45.2361 H   0  0  0  0  0  0  0  0  0  0  0  0
   45.7570   32.5698   50.0970 H   0  0  0  0  0  0  0  0  0  0  0  0
   46.3785   33.4884   47.8453 H   0  0  0  0  0  0  0  0  0  0  0  0
   44.8117   28.8236   48.3946 H   0  0  0  0  0  0  0  0  0  0  0  0
   46.3554   33.0510   42.6371 H   0  0  0  0  0  0  0  0  0  0  0  0
   44.8853   34.1227   41.0007 H   0  0  0  0  0  0  0  0  0  0  0  0
   45.9939   35.4185   40.6648 H   0  0  0  0  0  0  0  0  0  0  0  0
   46.7197   33.9063   38.9640 H   0  0  0  0  0  0  0  0  0  0  0  0
   46.1304   32.4828   39.8411 H   0  0  0  0  0  0  0  0  0  0  0  0
   48.2109   32.1634   40.7717 H   0  0  0  0  0  0  0  0  0  0  0  0
   48.8369   33.4816   39.7773 H   0  0  0  0  0  0  0  0  0  0  0  0
   48.8732   33.7900   42.5190 H   0  0  0  0  0  0  0  0  0  0  0  0
   47.9866   36.0922   40.7460 H   0  0  0  0  0  0  0  0  0  0  0  0
  2  1  2  0
  2  4  1  0
  3  2  1  0
  5  4  1  0
  5  8  1  0
  6 11  2  0
  7  6  1  0
  8  9  1  0
  8  7  2  0
  9 10  2  0
 10 11  1  0
 12  2  1  0
 13 12  1  0
 14 13  1  0
 15 16  1  0
 15 14  1  0
 16 17  1  0
 17 13  1  0
 18 17  1  0
 18 19  2  0
  3 20  1  0
  5 21  1  0
  5 22  1  0
  6 23  1  0
  7 24  1  0
 10 25  1  0
 13 26  1  1
 14 27  1  0
 14 28  1  0
 15 29  1  0
 15 30  1  0
 16 31  1  0
 16 32  1  0
 17 33  1  1
 18 34  1  0
M  ISO  8  20   3  21   8  22   8  23  14  24  14  25  14  26  13  27  13
M  ISO  7  28  13  29  13  30  13  31  13  32  13  33  13  34   6
M  END
>  <minimizedAffinity>  (1) 
-4.93419409

>  <minimizedRMSD>  (1) 
0.762485206

$$$$
