
     RDKit          3D

 28 29  0  0  1  0  0  0  0  0999 V2000
   44.0480   34.9880   41.2200 C   0  0  0  0  0  0  0  0  0  0  0  0
   42.8260   34.9200   40.7410 C   0  0  0  0  0  0  0  0  0  0  0  0
   44.2790   35.9030   43.5360 C   0  0  0  0  0  0  0  0  0  0  0  0
   44.4250   34.8410   42.6170 C   0  0  0  0  0  0  0  0  0  0  0  0
   44.9460   33.6340   43.0780 C   0  0  0  0  0  0  0  0  0  0  0  0
   45.2910   33.5410   44.4080 N   0  0  0  0  0  0  0  0  0  0  0  0
   45.1360   34.5730   45.2490 C   0  0  0  0  0  0  0  0  0  0  0  0
   44.6350   35.7340   44.8030 N   0  0  0  0  0  0  0  0  0  0  0  0
   42.5090   35.0810   39.2940 C   0  0  0  0  0  0  0  0  0  0  0  0
   41.1260   35.6620   39.0930 C   0  0  1  0  0  0  0  0  0  0  0  0
   40.6300   35.4580   37.6770 C   0  0  0  0  0  0  0  0  0  0  0  0
   39.6090   34.3510   37.8440 C   0  0  0  0  0  0  0  0  0  0  0  0
   39.9320   33.7450   39.0800 O   0  0  0  0  0  0  0  0  0  0  0  0
   40.1350   34.8660   39.8970 C   0  0  0  0  0  0  0  0  0  0  0  0
   44.8585   35.1727   40.4996 H   0  0  0  0  0  0  0  0  0  0  0  0
   41.9981   34.7355   41.4414 H   0  0  0  0  0  0  0  0  0  0  0  0
   43.8710   36.8685   43.2023 H   0  0  0  0  0  0  0  0  0  0  0  0
   45.0781   32.7791   42.3986 H   0  0  0  0  0  0  0  0  0  0  0  0
   45.4201   34.4674   46.3064 H   0  0  0  0  0  0  0  0  0  0  0  0
   43.2498   35.7543   38.8381 H   0  0  0  0  0  0  0  0  0  0  0  0
   42.5398   34.0887   38.8203 H   0  0  0  0  0  0  0  0  0  0  0  0
   41.1998   36.7253   39.3648 H   0  0  0  0  0  0  0  0  0  0  0  0
   41.4478   35.1473   37.0101 H   0  0  0  0  0  0  0  0  0  0  0  0
   40.2175   36.3701   37.2210 H   0  0  0  0  0  0  0  0  0  0  0  0
   38.5900   34.7644   37.8697 H   0  0  0  0  0  0  0  0  0  0  0  0
   39.6345   33.6335   37.0106 H   0  0  0  0  0  0  0  0  0  0  0  0
   40.5513   34.5788   40.8738 H   0  0  0  0  0  0  0  0  0  0  0  0
   39.2121   35.4156   40.1341 H   0  0  0  0  0  0  0  0  0  0  0  0
  1  4  1  0
  2  1  2  0
  3  8  2  0
  4  5  2  0
  4  3  1  0
  5  6  1  0
  6  7  2  0
  8  7  1  0
  9  2  1  0
 10  9  1  0
 10 14  1  0
 11 12  1  0
 11 10  1  0
 12 13  1  0
 13 14  1  0
  1 15  1  0
  2 16  1  0
  3 17  1  0
  5 18  1  0
  7 19  1  0
  9 20  1  0
  9 21  1  0
 10 22  1  1
 11 23  1  0
 11 24  1  0
 12 25  1  0
 12 26  1  0
 14 27  1  0
 14 28  1  0
M  ISO  8  17  14  18  14  19  14  20   8  21   8  22  13  23  13  24  13
M  ISO  4  25  13  26  13  27  13  28  13
M  END
>  <minimizedAffinity>  (1) 
-4.40178394

>  <minimizedRMSD>  (1) 
2.45577025

$$$$
