
     RDKit          3D

 25 26  0  0  0  0  0  0  0  0999 V2000
   44.9098   35.1357   44.0456 C   0  0  0  0  0  0  0  0  0  0  0  0
   45.7442   35.3874   42.9289 C   0  0  0  0  0  0  0  0  0  0  0  0
   46.9413   34.6821   42.8263 C   0  0  0  0  0  0  0  0  0  0  0  0
   47.2547   33.7968   43.7850 N   0  0  0  0  0  0  0  0  0  0  0  0
   46.4349   33.5707   44.8524 C   0  0  0  0  0  0  0  0  0  0  0  0
   45.2745   34.2427   44.9681 N   0  0  0  0  0  0  0  0  0  0  0  0
   43.6948   35.8357   44.1724 N   0  0  0  0  0  0  0  0  0  0  0  0
   47.7301   34.9878   41.6740 C   0  0  0  0  0  0  0  0  0  0  0  0
   48.6827   35.7961   41.6385 O   0  0  0  0  0  0  0  0  0  0  0  0
   45.4209   36.1183   42.1965 H   0  0  0  0  0  0  0  0  0  0  0  0
   46.8118   32.8339   45.5439 H   0  0  0  0  0  0  0  0  0  0  0  0
   43.3776   36.3793   45.0076 H   0  0  0  0  0  0  0  0  0  0  0  0
   43.1322   35.7319   43.2799 H   0  0  0  0  0  0  0  0  0  0  0  0
   47.2759   34.2065   40.4676 C   0  0  2  0  0  0  0  0  0  0  0  0
   47.5232   34.9477   39.1920 C   0  0  1  0  0  0  0  0  0  0  0  0
   48.2030   35.8075   39.3567 H   0  0  0  0  0  0  0  0  0  0  0  0
   46.1261   35.3610   38.7764 C   0  0  2  0  0  0  0  0  0  0  0  0
   46.0779   35.5733   37.6914 H   0  0  0  0  0  0  0  0  0  0  0  0
   45.3587   34.2786   39.1567 O   0  0  0  0  0  0  0  0  0  0  0  0
   45.7506   34.0887   40.4807 C   0  0  1  0  0  0  0  0  0  0  0  0
   45.4149   33.1256   40.9121 H   0  0  0  0  0  0  0  0  0  0  0  0
   47.7047   33.1837   40.4846 H   0  0  0  0  0  0  0  0  0  0  0  0
   47.9133   34.2648   38.3929 H   0  0  0  0  0  0  0  0  0  0  0  0
   45.7577   36.2545   39.3055 H   0  0  0  0  0  0  0  0  0  0  0  0
   45.2957   34.9419   41.0608 H   0  0  0  0  0  0  0  0  0  0  0  0
  1  7  1  0
  1  6  2  0
  2  1  1  0
  3  2  2  0
  3  4  1  0
  4  5  2  0
  5  6  1  0
  8  3  1  0
  9  8  2  0
  2 10  1  0
  5 11  1  0
  7 12  1  0
  7 13  1  0
 14 15  1  0
 15 16  1  1
 15 17  1  0
 17 18  1  6
 17 19  1  0
 19 20  1  0
 20 21  1  1
 20 14  1  0
 14 22  1  6
 15 23  1  0
 17 24  1  0
 20 25  1  0
  8 14  1  0
M  ISO  5  10  14  11  14  16  15  18  15  21  15
M  END
>  <DihAtoms>  (1) 
2,7,13,14

>  <DihDeg>  (1) 
-59.994839097030095

$$$$
