
     RDKit          3D

 31 33  0  0  0  0  0  0  0  0999 V2000
   46.0805   34.1600   41.0125 C   0  0  0  0  0  0  0  0  0  0  0  0
   46.6139   34.8300   42.1077 C   0  0  0  0  0  0  0  0  0  0  0  0
   47.9352   35.2702   41.9846 C   0  0  0  0  0  0  0  0  0  0  0  0
   48.6138   35.0284   40.8330 N   0  0  0  0  0  0  0  0  0  0  0  0
   48.0525   34.3741   39.7984 C   0  0  0  0  0  0  0  0  0  0  0  0
   46.7803   33.9385   39.8896 N   0  0  0  0  0  0  0  0  0  0  0  0
   45.8092   35.0409   43.2967 C   0  0  0  0  0  0  0  0  0  0  0  0
   45.0498   36.1934   43.4877 C   0  0  0  0  0  0  0  0  0  0  0  0
   44.4639   35.9672   44.7253 C   0  0  0  0  0  0  0  0  0  0  0  0
   44.8440   34.7663   45.2397 N   0  0  0  0  0  0  0  0  0  0  0  0
   45.6553   34.2379   44.3485 N   0  0  0  0  0  0  0  0  0  0  0  0
   44.7767   33.7089   41.0955 O   0  0  0  0  0  0  0  0  0  0  0  0
   43.6931   34.1907   40.4189 C   0  0  0  0  0  0  0  0  0  0  0  0
   43.2418   35.3827   40.4249 O   0  0  0  0  0  0  0  0  0  0  0  0
   48.3471   35.7911   42.8386 H   0  0  0  0  0  0  0  0  0  0  0  0
   48.6592   34.2212   38.9159 H   0  0  0  0  0  0  0  0  0  0  0  0
   44.9037   37.0737   42.8807 H   0  0  0  0  0  0  0  0  0  0  0  0
   43.7804   36.6802   45.2144 H   0  0  0  0  0  0  0  0  0  0  0  0
   44.5072   34.4162   46.1661 H   0  0  0  0  0  0  0  0  0  0  0  0
   42.6761   33.5958   39.4813 C   0  0  2  0  0  0  0  0  0  0  0  0
   43.3060   33.0385   38.2567 C   0  0  1  0  0  0  0  0  0  0  0  0
   44.2393   33.4876   37.9287 H   0  0  0  0  0  0  0  0  0  0  0  0
   42.1753   33.2647   37.2418 C   0  0  1  0  0  0  0  0  0  0  0  0
   42.5187   33.2017   36.2116 H   0  0  0  0  0  0  0  0  0  0  0  0
   41.8361   34.5958   37.5718 O   0  0  0  0  0  0  0  0  0  0  0  0
   41.7116   34.6209   38.9446 C   0  0  2  0  0  0  0  0  0  0  0  0
   41.9366   35.6212   39.3650 H   0  0  0  0  0  0  0  0  0  0  0  0
   42.1592   32.7877   40.0367 H   0  0  0  0  0  0  0  0  0  0  0  0
   43.4036   31.9337   38.3252 H   0  0  0  0  0  0  0  0  0  0  0  0
   41.3295   32.6352   37.5197 H   0  0  0  0  0  0  0  0  0  0  0  0
   40.6923   34.3056   39.2493 H   0  0  0  0  0  0  0  0  0  0  0  0
  1 12  1  0
  1  2  1  0
  2  7  1  0
  3  2  2  0
  4  3  1  0
  5  6  1  0
  5  4  2  0
  6  1  2  0
  7  8  1  0
  7 11  2  0
  8  9  2  0
  9 10  1  0
 11 10  1  0
 13 14  2  0
 13 12  1  0
  3 15  1  0
  5 16  1  0
  8 17  1  0
  9 18  1  0
 10 19  1  0
 20 21  1  0
 21 22  1  6
 21 23  1  0
 23 24  1  6
 23 25  1  0
 25 26  1  0
 26 27  1  1
 26 20  1  0
 20 28  1  1
 21 29  1  0
 23 30  1  0
 26 31  1  0
 13 20  1  0
M  ISO  8  15  14  16  14  17  14  18  14  19   9  22  15  24  15  27  15
M  END
>  <DihAtoms>  (1) 
13,12,19,20

>  <DihDeg>  (1) 
-0.3256647708476707

$$$$
