
     RDKit          3D

 25 26  0  0  0  0  0  0  0  0999 V2000
   44.9007   35.0638   44.3433 C   0  0  0  0  0  0  0  0  0  0  0  0
   45.7951   35.0073   43.2702 C   0  0  0  0  0  0  0  0  0  0  0  0
   46.9103   34.1658   43.3779 C   0  0  0  0  0  0  0  0  0  0  0  0
   47.0459   33.4613   44.5202 N   0  0  0  0  0  0  0  0  0  0  0  0
   46.1912   33.5214   45.5343 C   0  0  0  0  0  0  0  0  0  0  0  0
   45.1117   34.3351   45.4317 N   0  0  0  0  0  0  0  0  0  0  0  0
   43.7716   35.9140   44.2379 N   0  0  0  0  0  0  0  0  0  0  0  0
   46.3478   32.7591   46.7574 C   0  0  0  0  0  0  0  0  0  0  0  0
   45.4007   32.6202   47.5901 O   0  0  0  0  0  0  0  0  0  0  0  0
   45.5831   35.6148   42.4106 H   0  0  0  0  0  0  0  0  0  0  0  0
   47.6063   34.1189   42.5483 H   0  0  0  0  0  0  0  0  0  0  0  0
   43.4921   36.3282   43.3173 H   0  0  0  0  0  0  0  0  0  0  0  0
   43.2088   36.1291   45.1006 H   0  0  0  0  0  0  0  0  0  0  0  0
   47.6346   32.1167   47.0660 C   0  0  1  0  0  0  0  0  0  0  0  0
   48.7151   33.0400   47.5237 C   0  0  1  0  0  0  0  0  0  0  0  0
   49.3584   33.3326   46.6550 H   0  0  0  0  0  0  0  0  0  0  0  0
   49.5014   32.1731   48.4933 C   0  0  2  0  0  0  0  0  0  0  0  0
   49.5170   32.6405   49.4989 H   0  0  0  0  0  0  0  0  0  0  0  0
   48.9084   30.9086   48.4815 O   0  0  0  0  0  0  0  0  0  0  0  0
   47.5471   31.1336   48.2086 C   0  0  2  0  0  0  0  0  0  0  0  0
   47.0981   30.2013   47.8236 H   0  0  0  0  0  0  0  0  0  0  0  0
   48.0332   31.5455   46.2111 H   0  0  0  0  0  0  0  0  0  0  0  0
   48.3648   33.9856   47.9608 H   0  0  0  0  0  0  0  0  0  0  0  0
   50.5242   32.0193   48.0694 H   0  0  0  0  0  0  0  0  0  0  0  0
   47.0930   31.5189   49.1191 H   0  0  0  0  0  0  0  0  0  0  0  0
  1  6  2  0
  2  3  2  0
  2  1  1  0
  3  4  1  0
  4  5  2  0
  5  8  1  0
  6  5  1  0
  7  1  1  0
  8  9  2  0
  2 10  1  0
  3 11  1  0
  7 12  1  0
  7 13  1  0
 14 15  1  0
 15 16  1  6
 15 17  1  0
 17 18  1  1
 17 19  1  0
 19 20  1  0
 20 21  1  6
 20 14  1  0
 14 22  1  6
 15 23  1  0
 17 24  1  0
 20 25  1  0
  8 14  1  0
M  ISO  5  10  14  11  14  16  15  18  15  21  15
M  END
>  <DihAtoms>  (1) 
4,7,13,14

>  <DihDeg>  (1) 
-59.99907389210264

$$$$
