
     RDKit          3D

 25 26  0  0  0  0  0  0  0  0999 V2000
   44.9007   35.0638   44.3433 C   0  0  0  0  0  0  0  0  0  0  0  0
   45.7951   35.0073   43.2702 C   0  0  0  0  0  0  0  0  0  0  0  0
   46.9103   34.1658   43.3779 C   0  0  0  0  0  0  0  0  0  0  0  0
   47.0459   33.4613   44.5202 N   0  0  0  0  0  0  0  0  0  0  0  0
   46.1912   33.5214   45.5343 C   0  0  0  0  0  0  0  0  0  0  0  0
   45.1117   34.3351   45.4317 N   0  0  0  0  0  0  0  0  0  0  0  0
   43.7716   35.9140   44.2379 N   0  0  0  0  0  0  0  0  0  0  0  0
   46.3478   32.7591   46.7574 C   0  0  0  0  0  0  0  0  0  0  0  0
   45.4007   32.6202   47.5901 O   0  0  0  0  0  0  0  0  0  0  0  0
   45.5831   35.6148   42.4106 H   0  0  0  0  0  0  0  0  0  0  0  0
   47.6063   34.1189   42.5483 H   0  0  0  0  0  0  0  0  0  0  0  0
   43.4921   36.3282   43.3173 H   0  0  0  0  0  0  0  0  0  0  0  0
   43.2088   36.1291   45.1006 H   0  0  0  0  0  0  0  0  0  0  0  0
   47.6346   32.1167   47.0660 C   0  0  1  0  0  0  0  0  0  0  0  0
   47.9477   31.9813   48.5197 C   0  0  1  0  0  0  0  0  0  0  0  0
   48.5853   32.8397   48.8527 H   0  0  0  0  0  0  0  0  0  0  0  0
   48.7413   30.6860   48.5672 C   0  0  2  0  0  0  0  0  0  0  0  0
   48.2397   29.9538   49.2322 H   0  0  0  0  0  0  0  0  0  0  0  0
   48.8691   30.2385   47.2504 O   0  0  0  0  0  0  0  0  0  0  0  0
   47.7133   30.6872   46.5862 C   0  0  2  0  0  0  0  0  0  0  0  0
   47.9054   30.7018   45.4991 H   0  0  0  0  0  0  0  0  0  0  0  0
   48.4857   32.6365   46.5954 H   0  0  0  0  0  0  0  0  0  0  0  0
   47.0740   31.9890   49.1864 H   0  0  0  0  0  0  0  0  0  0  0  0
   49.7820   30.9290   48.8948 H   0  0  0  0  0  0  0  0  0  0  0  0
   46.8909   30.0468   46.8977 H   0  0  0  0  0  0  0  0  0  0  0  0
  1  6  2  0
  2  3  2  0
  2  1  1  0
  3  4  1  0
  4  5  2  0
  5  8  1  0
  6  5  1  0
  7  1  1  0
  8  9  2  0
  2 10  1  0
  3 11  1  0
  7 12  1  0
  7 13  1  0
 14 15  1  0
 15 16  1  1
 15 17  1  0
 17 18  1  1
 17 19  1  0
 19 20  1  0
 20 21  1  6
 20 14  1  0
 14 22  1  6
 15 23  1  0
 17 24  1  0
 20 25  1  0
  8 14  1  0
M  ISO  5  10  14  11  14  16  15  18  15  21  15
M  END
>  <DihAtoms>  (1) 
4,7,13,14

>  <DihDeg>  (1) 
-59.99907389210264

$$$$
