
     RDKit          3D

 40 42  0  0  1  0  0  0  0  0999 V2000
   45.6220   29.9590   44.8660 Br  0  0  0  0  0  0  0  0  0  0  0  0
   45.6560   30.6360   46.6670 C   0  0  0  0  0  0  0  0  0  0  0  0
   46.3340   31.8160   46.8490 C   0  0  0  0  0  0  0  0  0  0  0  0
   46.3370   32.2740   48.1680 C   0  0  0  0  0  0  0  0  0  0  0  0
   45.7210   31.6180   49.2130 C   0  0  0  0  0  0  0  0  0  0  0  0
   45.0670   30.4490   48.9470 C   0  0  0  0  0  0  0  0  0  0  0  0
   45.0180   29.9270   47.6690 C   0  0  0  0  0  0  0  0  0  0  0  0
   47.0230   32.6020   45.8340 C   0  0  0  0  0  0  0  0  0  0  0  0
   44.5220   35.3260   45.3900 C   0  0  0  0  0  0  0  0  0  0  0  0
   44.7500   35.7040   44.0670 C   0  0  0  0  0  0  0  0  0  0  0  0
   45.7370   35.0410   43.3450 C   0  0  0  0  0  0  0  0  0  0  0  0
   46.4410   34.0530   43.9510 N   0  0  0  0  0  0  0  0  0  0  0  0
   46.2000   33.6980   45.2540 C   0  0  0  0  0  0  0  0  0  0  0  0
   45.2310   34.3610   45.9360 N   0  0  0  0  0  0  0  0  0  0  0  0
   44.3490   28.7380   47.4140 O   0  0  0  0  0  0  0  0  0  0  0  0
   44.4280   26.7470   49.1000 O   0  0  0  0  0  0  0  0  0  0  0  0
   45.0070   27.2160   47.7720 P   0  0  2  0  0  0  0  0  0  0  0  0
   46.6710   27.4010   47.9230 O   0  0  0  0  0  0  0  0  0  0  0  0
   44.6390   26.0570   46.6130 O   0  0  0  0  0  0  0  0  0  0  0  0
   43.6500   25.1940   47.0620 C   0  0  1  0  0  0  0  0  0  0  0  0
   42.3040   25.7720   46.8040 C   0  0  0  0  0  0  0  0  0  0  0  0
   41.6730   24.8540   45.7980 C   0  0  0  0  0  0  0  0  0  0  0  0
   42.4300   23.7240   45.6940 O   0  0  0  0  0  0  0  0  0  0  0  0
   43.6430   23.9090   46.2850 C   0  0  0  0  0  0  0  0  0  0  0  0
   46.8626   33.2152   48.3869 H   0  0  0  0  0  0  0  0  0  0  0  0
   45.7555   32.0257   50.2341 H   0  0  0  0  0  0  0  0  0  0  0  0
   44.5688   29.9119   49.7676 H   0  0  0  0  0  0  0  0  0  0  0  0
   47.9192   33.0472   46.2908 H   0  0  0  0  0  0  0  0  0  0  0  0
   47.2641   31.9150   45.0094 H   0  0  0  0  0  0  0  0  0  0  0  0
   43.7463   35.8366   45.9796 H   0  0  0  0  0  0  0  0  0  0  0  0
   44.1615   36.5098   43.6040 H   0  0  0  0  0  0  0  0  0  0  0  0
   45.9431   35.3137   42.2995 H   0  0  0  0  0  0  0  0  0  0  0  0
   46.9143   27.4281   48.8823 H   0  0  0  0  0  0  0  0  0  0  0  0
   43.8570   25.0309   48.1300 H   0  0  0  0  0  0  0  0  0  0  0  0
   41.7104   25.7976   47.7297 H   0  0  0  0  0  0  0  0  0  0  0  0
   42.3624   26.8078   46.4384 H   0  0  0  0  0  0  0  0  0  0  0  0
   40.6572   24.5888   46.1264 H   0  0  0  0  0  0  0  0  0  0  0  0
   41.6162   25.3554   44.8206 H   0  0  0  0  0  0  0  0  0  0  0  0
   43.8465   23.0706   46.9673 H   0  0  0  0  0  0  0  0  0  0  0  0
   44.4185   23.9559   45.5063 H   0  0  0  0  0  0  0  0  0  0  0  0
  1  2  1  0
  2  3  2  0
  2  7  1  0
  3  4  1  0
  4  5  2  0
  6  5  1  0
  7  6  2  0
  8  3  1  0
  9 14  2  0
 10  9  1  0
 11 12  1  0
 11 10  2  0
 12 13  2  0
 13  8  1  0
 13 14  1  0
 15  7  1  0
 15 17  1  0
 17 18  1  0
 17 16  2  0
 19 17  1  0
 20 19  1  0
 21 20  1  0
 22 21  1  0
 23 22  1  0
 23 24  1  0
 24 20  1  0
  4 25  1  0
  5 26  1  0
  6 27  1  0
  8 28  1  0
  8 29  1  0
  9 30  1  0
 10 31  1  0
 11 32  1  0
 18 33  1  0
 20 34  1  1
 21 35  1  0
 21 36  1  0
 22 37  1  0
 22 38  1  0
 24 39  1  0
 24 40  1  0
M  ISO  8  25  14  26  14  27  14  28   8  29   8  30  14  31  14  32  14
M  ISO  8  33   3  34  13  35  13  36  13  37  13  38  13  39  13  40  13
M  END
>  <minimizedAffinity>  (1) 
-5.34407377

>  <minimizedRMSD>  (1) 
2.17866445

$$$$
