
     RDKit          3D

 44 47  0  0  1  0  0  0  0  0999 V2000
   45.6450   33.9720   40.9250 C   0  0  1  0  0  0  0  0  0  0  0  0
   45.2120   33.2090   39.5930 C   0  0  0  0  0  0  0  0  0  0  0  0
   43.8790   33.6970   39.1330 C   0  0  0  0  0  0  0  0  0  0  0  0
   42.7740   33.2500   40.0580 C   0  0  0  0  0  0  0  0  0  0  0  0
   43.3240   33.1970   41.4680 C   0  0  0  0  0  0  0  0  0  0  0  0
   44.4250   34.2360   41.6570 C   0  0  1  0  0  0  0  0  0  0  0  0
   46.6680   33.0880   41.5530 C   0  0  0  0  0  0  0  0  0  0  0  0
   48.0350   33.2750   41.7050 C   0  0  0  0  0  0  0  0  0  0  0  0
   48.7370   32.2750   42.3280 C   0  0  0  0  0  0  0  0  0  0  0  0
   48.0630   31.1520   42.7690 N   0  0  0  0  0  0  0  0  0  0  0  0
   46.7360   31.0110   42.6010 C   0  0  0  0  0  0  0  0  0  0  0  0
   46.0120   32.0050   41.9760 N   0  0  0  0  0  0  0  0  0  0  0  0
   48.7410   34.5220   41.2910 C   0  0  0  0  0  0  0  0  0  0  0  0
   48.5420   35.7690   41.8940 C   0  0  0  0  0  0  0  0  0  0  0  0
   49.7450   35.1160   42.4090 C   0  0  0  0  0  0  0  0  0  0  0  0
   44.4400   34.8810   42.9630 C   0  0  1  0  0  0  0  0  0  0  0  0
   45.0180   34.2950   44.1670 C   0  0  0  0  0  0  0  0  0  0  0  0
   44.7430   35.4910   45.1080 C   0  0  0  0  0  0  0  0  0  0  0  0
   44.8740   36.6210   44.3220 O   0  0  0  0  0  0  0  0  0  0  0  0
   45.0940   36.2490   43.0110 C   0  0  0  0  0  0  0  0  0  0  0  0
   46.1205   34.9587   40.8229 H   0  0  0  0  0  0  0  0  0  0  0  0
   45.9589   33.3960   38.8074 H   0  0  0  0  0  0  0  0  0  0  0  0
   45.1488   32.1305   39.8001 H   0  0  0  0  0  0  0  0  0  0  0  0
   43.8935   34.7964   39.0995 H   0  0  0  0  0  0  0  0  0  0  0  0
   43.6840   33.2759   38.1357 H   0  0  0  0  0  0  0  0  0  0  0  0
   41.9387   33.9643   40.0115 H   0  0  0  0  0  0  0  0  0  0  0  0
   42.4075   32.2574   39.7574 H   0  0  0  0  0  0  0  0  0  0  0  0
   42.5107   33.3990   42.1806 H   0  0  0  0  0  0  0  0  0  0  0  0
   43.7472   32.1972   41.6451 H   0  0  0  0  0  0  0  0  0  0  0  0
   44.1438   35.1341   41.0874 H   0  0  0  0  0  0  0  0  0  0  0  0
   49.8234   32.3657   42.4749 H   0  0  0  0  0  0  0  0  0  0  0  0
   46.2286   30.1041   42.9616 H   0  0  0  0  0  0  0  0  0  0  0  0
   48.7366   34.2041   40.2379 H   0  0  0  0  0  0  0  0  0  0  0  0
   48.6589   36.6734   41.2789 H   0  0  0  0  0  0  0  0  0  0  0  0
   47.6686   36.1893   42.4142 H   0  0  0  0  0  0  0  0  0  0  0  0
   49.7712   34.6980   43.4261 H   0  0  0  0  0  0  0  0  0  0  0  0
   50.8175   35.3434   42.4992 H   0  0  0  0  0  0  0  0  0  0  0  0
   43.3439   34.8043   43.0158 H   0  0  0  0  0  0  0  0  0  0  0  0
   44.4941   33.3811   44.4836 H   0  0  0  0  0  0  0  0  0  0  0  0
   46.0611   33.9531   44.0967 H   0  0  0  0  0  0  0  0  0  0  0  0
   43.7260   35.4274   45.5224 H   0  0  0  0  0  0  0  0  0  0  0  0
   45.4377   35.5058   45.9607 H   0  0  0  0  0  0  0  0  0  0  0  0
   46.1692   36.1870   42.7872 H   0  0  0  0  0  0  0  0  0  0  0  0
   44.6944   36.9601   42.2730 H   0  0  0  0  0  0  0  0  0  0  0  0
  1  7  1  0
  1  6  1  0
  2  1  1  0
  3  2  1  0
  3  4  1  0
  4  5  1  0
  5  6  1  0
  6 16  1  0
  7  8  1  0
  7 12  2  0
  8  9  2  0
  9 10  1  0
 11 10  2  0
 12 11  1  0
 13  8  1  0
 13 14  1  0
 13 15  1  0
 14 15  1  0
 16 20  1  0
 16 17  1  0
 17 18  1  0
 19 18  1  0
 20 19  1  0
  1 21  1  6
  2 22  1  0
  2 23  1  0
  3 24  1  0
  3 25  1  0
  4 26  1  0
  4 27  1  0
  5 28  1  0
  5 29  1  0
  6 30  1  6
  9 31  1  0
 11 32  1  0
 13 33  1  0
 14 34  1  0
 14 35  1  0
 15 36  1  0
 15 37  1  0
 16 38  1  1
 17 39  1  0
 17 40  1  0
 18 41  1  0
 18 42  1  0
 20 43  1  0
 20 44  1  0
M  ISO  8  21  13  22  13  23  13  24  13  25  13  26  13  27  13  28  13
M  ISO  8  29  13  30  13  31  14  32  14  33  13  34  13  35  13  36  13
M  ISO  8  37  13  38  13  39  13  40  13  41  13  42  13  43  13  44  13
M  END
>  <minimizedAffinity>  (1) 
-4.9463582

>  <minimizedRMSD>  (1) 
2.3982203

$$$$
