
     RDKit          3D

 35 37  0  0  1  0  0  0  0  0999 V2000
   47.5000   34.3210   42.2950 N   0  0  0  0  0  0  0  0  0  0  0  0
   47.9860   35.1640   41.2250 C   0  0  0  0  0  0  0  0  0  0  0  0
   47.9190   34.1790   40.0980 C   0  0  2  0  0  0  0  0  0  0  0  0
   48.6770   33.0170   40.7160 C   0  0  0  0  0  0  0  0  0  0  0  0
   48.1990   33.0600   42.1550 C   0  0  0  0  0  0  0  0  0  0  0  0
   44.7090   35.6820   44.3500 C   0  0  0  0  0  0  0  0  0  0  0  0
   45.5820   35.5620   43.2650 C   0  0  0  0  0  0  0  0  0  0  0  0
   46.5600   34.5590   43.3100 C   0  0  0  0  0  0  0  0  0  0  0  0
   46.5920   33.7610   44.4250 N   0  0  0  0  0  0  0  0  0  0  0  0
   45.7400   33.8980   45.4580 C   0  0  0  0  0  0  0  0  0  0  0  0
   44.7930   34.8690   45.4150 N   0  0  0  0  0  0  0  0  0  0  0  0
   48.6770   34.5670   38.9650 N   0  0  0  0  0  0  0  0  0  0  0  0
   48.1850   34.1900   37.6920 C   0  0  2  0  0  0  0  0  0  0  0  0
   46.8730   33.5070   37.6530 C   0  0  0  0  0  0  0  0  0  0  0  0
   47.0210   32.6480   36.4030 C   0  0  0  0  0  0  0  0  0  0  0  0
   48.3490   32.2560   36.3690 O   0  0  0  0  0  0  0  0  0  0  0  0
   49.0960   33.2640   36.9560 C   0  0  0  0  0  0  0  0  0  0  0  0
   47.3312   36.0311   41.0538 H   0  0  0  0  0  0  0  0  0  0  0  0
   48.9722   35.6207   41.3947 H   0  0  0  0  0  0  0  0  0  0  0  0
   46.8865   34.0200   39.7537 H   0  0  0  0  0  0  0  0  0  0  0  0
   48.4107   32.0645   40.2345 H   0  0  0  0  0  0  0  0  0  0  0  0
   49.7692   33.0919   40.6085 H   0  0  0  0  0  0  0  0  0  0  0  0
   47.5195   32.2194   42.3593 H   0  0  0  0  0  0  0  0  0  0  0  0
   49.0353   32.9769   42.8647 H   0  0  0  0  0  0  0  0  0  0  0  0
   43.9337   36.4621   44.3307 H   0  0  0  0  0  0  0  0  0  0  0  0
   45.5036   36.2363   42.3995 H   0  0  0  0  0  0  0  0  0  0  0  0
   45.8107   33.2294   46.3286 H   0  0  0  0  0  0  0  0  0  0  0  0
   48.7471   35.5945   38.9773 H   0  0  0  0  0  0  0  0  0  0  0  0
   48.0985   35.1841   37.2291 H   0  0  0  0  0  0  0  0  0  0  0  0
   46.7135   32.8897   38.5494 H   0  0  0  0  0  0  0  0  0  0  0  0
   46.0103   34.1892   37.6314 H   0  0  0  0  0  0  0  0  0  0  0  0
   46.3634   31.7682   36.4629 H   0  0  0  0  0  0  0  0  0  0  0  0
   46.7393   33.2022   35.4955 H   0  0  0  0  0  0  0  0  0  0  0  0
   49.8185   32.8238   37.6591 H   0  0  0  0  0  0  0  0  0  0  0  0
   49.6374   33.8218   36.1777 H   0  0  0  0  0  0  0  0  0  0  0  0
  1  8  1  0
  2  1  1  0
  3  4  1  0
  3  2  1  0
  4  5  1  0
  5  1  1  0
  6 11  2  0
  7  8  2  0
  7  6  1  0
  8  9  1  0
  9 10  2  0
 11 10  1  0
 12  3  1  0
 13 12  1  0
 14 13  1  0
 15 14  1  0
 16 15  1  0
 16 17  1  0
 17 13  1  0
  2 18  1  0
  2 19  1  0
  3 20  1  6
  4 21  1  0
  4 22  1  0
  5 23  1  0
  5 24  1  0
  6 25  1  0
  7 26  1  0
 10 27  1  0
 12 28  1  0
 13 29  1  6
 14 30  1  0
 14 31  1  0
 15 32  1  0
 15 33  1  0
 17 34  1  0
 17 35  1  0
M  ISO  8  18  13  19  13  20  13  21  13  22  13  23  13  24  13  25  14
M  ISO  8  26  14  27  14  28   5  29  13  30  13  31  13  32  13  33  13
M  ISO  2  34  13  35  13
M  END
>  <minimizedAffinity>  (1) 
-4.69936609

>  <minimizedRMSD>  (1) 
2.90378189

$$$$
