
     RDKit          3D

 42 45  0  0  1  0  0  0  0  0999 V2000
   47.9720   33.0220   41.9630 C   0  0  0  0  0  0  0  0  0  0  0  0
   48.2740   32.5970   40.6050 C   0  0  0  0  0  0  0  0  0  0  0  0
   49.4820   32.3030   40.2580 C   0  0  0  0  0  0  0  0  0  0  0  0
   49.7980   31.8860   38.9510 N   0  0  0  0  0  0  0  0  0  0  0  0
   50.4880   30.9500   38.1040 C   0  0  0  0  0  0  0  0  0  0  0  0
   51.5280   30.2330   38.2100 O   0  0  0  0  0  0  0  0  0  0  0  0
   49.4070   31.2470   37.0890 C   0  0  0  0  0  0  0  0  0  0  0  0
   49.2860   32.5950   37.7550 C   0  0  1  0  0  0  0  0  0  0  0  0
   47.6370   33.2060   38.0770 S   0  0  0  0  0  0  0  0  0  0  0  0
   47.1110   32.5320   39.6770 C   0  0  0  0  0  0  0  0  0  0  0  0
   50.5690   32.4030   41.2460 C   0  0  0  0  0  0  0  0  0  0  0  0
   51.7620   32.0090   41.0510 O   0  0  0  0  0  0  0  0  0  0  0  0
   51.3380   32.6340   42.3490 O   0  0  0  0  0  0  0  0  0  0  0  0
   47.0420   34.6130   41.9470 S   0  0  0  0  0  0  0  0  0  0  0  0
   44.5360   35.7880   44.9110 C   0  0  0  0  0  0  0  0  0  0  0  0
   45.2440   35.7560   43.6850 C   0  0  0  0  0  0  0  0  0  0  0  0
   46.1360   34.6880   43.4730 C   0  0  0  0  0  0  0  0  0  0  0  0
   46.2660   33.7580   44.4490 N   0  0  0  0  0  0  0  0  0  0  0  0
   45.5780   33.8290   45.5910 C   0  0  0  0  0  0  0  0  0  0  0  0
   44.7180   34.8230   45.8410 N   0  0  0  0  0  0  0  0  0  0  0  0
   45.8050   32.7640   46.5660 C   0  0  2  0  0  0  0  0  0  0  0  0
   45.0440   32.9760   47.8810 C   0  0  0  0  0  0  0  0  0  0  0  0
   45.8050   31.9330   48.7110 C   0  0  0  0  0  0  0  0  0  0  0  0
   47.1180   32.0100   48.3120 O   0  0  0  0  0  0  0  0  0  0  0  0
   47.2000   32.6540   47.0920 C   0  0  0  0  0  0  0  0  0  0  0  0
   47.3625   32.2509   42.4569 H   0  0  0  0  0  0  0  0  0  0  0  0
   48.9156   33.1659   42.5098 H   0  0  0  0  0  0  0  0  0  0  0  0
   48.5128   30.6109   37.1652 H   0  0  0  0  0  0  0  0  0  0  0  0
   49.5703   31.1381   36.0067 H   0  0  0  0  0  0  0  0  0  0  0  0
   49.7170   33.4893   37.2813 H   0  0  0  0  0  0  0  0  0  0  0  0
   46.2785   33.1285   40.0785 H   0  0  0  0  0  0  0  0  0  0  0  0
   46.7700   31.4926   39.5618 H   0  0  0  0  0  0  0  0  0  0  0  0
   52.2941   32.3771   42.3485 H   0  0  0  0  0  0  0  0  0  0  0  0
   43.8296   36.6075   45.1093 H   0  0  0  0  0  0  0  0  0  0  0  0
   45.1018   36.5384   42.9250 H   0  0  0  0  0  0  0  0  0  0  0  0
   45.4954   31.8925   45.9705 H   0  0  0  0  0  0  0  0  0  0  0  0
   45.1630   33.9957   48.2759 H   0  0  0  0  0  0  0  0  0  0  0  0
   43.9502   32.8673   47.8387 H   0  0  0  0  0  0  0  0  0  0  0  0
   45.7182   32.1618   49.7834 H   0  0  0  0  0  0  0  0  0  0  0  0
   45.3976   30.9229   48.5570 H   0  0  0  0  0  0  0  0  0  0  0  0
   47.8217   32.0705   46.3970 H   0  0  0  0  0  0  0  0  0  0  0  0
   47.6599   33.6473   47.2006 H   0  0  0  0  0  0  0  0  0  0  0  0
  2  1  1  0
  3  2  2  0
  3 11  1  0
  4  3  1  0
  5  6  2  0
  5  4  1  0
  7  8  1  0
  7  5  1  0
  8  9  1  0
  8  4  1  0
  9 10  1  0
 10  2  1  0
 11 13  1  0
 12 11  2  0
 14  1  1  0
 14 17  1  0
 15 20  2  0
 16 15  1  0
 17 16  2  0
 17 18  1  0
 18 19  2  0
 19 20  1  0
 21 19  1  0
 21 25  1  0
 21 22  1  0
 22 23  1  0
 24 23  1  0
 25 24  1  0
  1 26  1  0
  1 27  1  0
  7 28  1  0
  7 29  1  0
  8 30  1  6
 10 31  1  0
 10 32  1  0
 13 33  1  0
 15 34  1  0
 16 35  1  0
 21 36  1  6
 22 37  1  0
 22 38  1  0
 23 39  1  0
 23 40  1  0
 25 41  1  0
 25 42  1  0
M  ISO  8  26   8  27   8  28  13  29  13  30  13  31  13  32  13  33   3
M  ISO  8  34  14  35  14  36  13  37  13  38  13  39  13  40  13  41  13
M  ISO  1  42  13
M  END
>  <minimizedAffinity>  (1) 
-5.48795748

>  <minimizedRMSD>  (1) 
0.547514558

$$$$
