
     RDKit          3D

 41 43  0  0  1  0  0  0  0  0999 V2000
   45.5020   34.3560   45.0010 C   0  0  0  0  0  0  0  0  0  0  0  0
   46.3660   34.1230   43.8990 C   0  0  0  0  0  0  0  0  0  0  0  0
   47.2730   33.0670   44.0060 C   0  0  0  0  0  0  0  0  0  0  0  0
   47.2650   32.3330   45.1640 N   0  0  0  0  0  0  0  0  0  0  0  0
   46.4260   32.5990   46.1710 C   0  0  0  0  0  0  0  0  0  0  0  0
   45.5530   33.6010   46.0930 N   0  0  0  0  0  0  0  0  0  0  0  0
   46.5110   31.7540   47.3460 N   0  0  0  0  0  0  0  0  0  0  0  0
   46.1320   32.2910   48.6040 C   0  0  0  0  0  0  0  0  0  0  0  0
   45.4260   31.3050   49.4400 C   0  0  0  0  0  0  0  0  0  0  0  0
   45.0910   29.9920   48.8340 C   0  0  0  0  0  0  0  0  0  0  0  0
   46.0710   29.4360   47.8760 C   0  0  0  0  0  0  0  0  0  0  0  0
   46.9780   30.3960   47.1870 C   0  0  2  0  0  0  0  0  0  0  0  0
   48.3140   30.3300   47.8810 C   0  0  1  0  0  0  0  0  0  0  0  0
   48.3440   31.0350   49.2140 C   0  0  0  0  0  0  0  0  0  0  0  0
   49.4240   30.2410   49.9430 C   0  0  0  0  0  0  0  0  0  0  0  0
   49.8620   29.2610   49.0610 O   0  0  0  0  0  0  0  0  0  0  0  0
   48.7170   28.9340   48.3010 C   0  0  0  0  0  0  0  0  0  0  0  0
   44.6360   35.4010   44.8410 O   0  0  0  0  0  0  0  0  0  0  0  0
   44.3820   36.0620   43.6600 C   0  0  0  0  0  0  0  0  0  0  0  0
   45.0790   37.0110   43.1730 O   0  0  0  0  0  0  0  0  0  0  0  0
   43.2770   35.7370   42.8430 N   0  0  0  0  0  0  0  0  0  0  0  0
   46.3226   34.7499   42.9962 H   0  0  0  0  0  0  0  0  0  0  0  0
   47.9706   32.8318   43.1887 H   0  0  0  0  0  0  0  0  0  0  0  0
   47.0367   32.6224   49.1348 H   0  0  0  0  0  0  0  0  0  0  0  0
   45.4457   33.1307   48.4198 H   0  0  0  0  0  0  0  0  0  0  0  0
   46.0580   31.1084   50.3186 H   0  0  0  0  0  0  0  0  0  0  0  0
   44.4507   31.7689   49.6486 H   0  0  0  0  0  0  0  0  0  0  0  0
   44.9756   29.2663   49.6525 H   0  0  0  0  0  0  0  0  0  0  0  0
   44.1782   30.1681   48.2460 H   0  0  0  0  0  0  0  0  0  0  0  0
   46.7023   28.7230   48.4265 H   0  0  0  0  0  0  0  0  0  0  0  0
   45.4608   28.9994   47.0716 H   0  0  0  0  0  0  0  0  0  0  0  0
   47.0251   30.1359   46.1192 H   0  0  0  0  0  0  0  0  0  0  0  0
   48.9674   30.7782   47.1180 H   0  0  0  0  0  0  0  0  0  0  0  0
   48.6255   32.0927   49.1047 H   0  0  0  0  0  0  0  0  0  0  0  0
   47.3746   31.0619   49.7331 H   0  0  0  0  0  0  0  0  0  0  0  0
   50.2584   30.9019   50.2204 H   0  0  0  0  0  0  0  0  0  0  0  0
   49.0305   29.7941   50.8679 H   0  0  0  0  0  0  0  0  0  0  0  0
   47.9421   28.4454   48.9099 H   0  0  0  0  0  0  0  0  0  0  0  0
   48.8785   28.2186   47.4812 H   0  0  0  0  0  0  0  0  0  0  0  0
   43.1163   36.2518   41.9654 H   0  0  0  0  0  0  0  0  0  0  0  0
   42.6317   34.9852   43.1246 H   0  0  0  0  0  0  0  0  0  0  0  0
  1  6  2  0
  2  3  2  0
  2  1  1  0
  3  4  1  0
  4  5  2  0
  5  7  1  0
  6  5  1  0
  7  8  1  0
  8  9  1  0
 10  9  1  0
 11 10  1  0
 12  7  1  0
 12 11  1  0
 12 13  1  0
 13 17  1  0
 13 14  1  0
 14 15  1  0
 16 15  1  0
 17 16  1  0
 18  1  1  0
 19 18  1  0
 20 19  2  0
 21 19  1  0
  2 22  1  0
  3 23  1  0
  8 24  1  0
  8 25  1  0
  9 26  1  0
  9 27  1  0
 10 28  1  0
 10 29  1  0
 11 30  1  0
 11 31  1  0
 12 32  1  6
 13 33  1  6
 14 34  1  0
 14 35  1  0
 15 36  1  0
 15 37  1  0
 17 38  1  0
 17 39  1  0
 21 40  1  0
 21 41  1  0
M  ISO  8  22  14  23  14  24  13  25  13  26  13  27  13  28  13  29  13
M  ISO  8  30  13  31  13  32  13  33  13  34  13  35  13  36  13  37  13
M  ISO  2  38  13  39  13
M  END
>  <minimizedAffinity>  (1) 
-6.12650013

>  <minimizedRMSD>  (1) 
0.344873607

$$$$
