
     RDKit          3D

 49 53  0  0  1  0  0  0  0  0999 V2000
   49.9120   30.4870   49.6990 C   0  0  0  0  0  0  0  0  0  0  0  0
   50.0990   31.7800   50.1180 N   0  0  0  0  0  0  0  0  0  0  0  0
   50.8330   32.1090   51.1670 C   0  0  0  0  0  0  0  0  0  0  0  0
   51.4200   31.1170   51.8450 N   0  0  0  0  0  0  0  0  0  0  0  0
   51.2890   29.8290   51.5060 C   0  0  0  0  0  0  0  0  0  0  0  0
   51.8980   28.8030   52.2260 C   0  0  0  0  0  0  0  0  0  0  0  0
   51.7290   27.4880   51.8580 C   0  0  0  0  0  0  0  0  0  0  0  0
   50.9500   27.1840   50.7650 C   0  0  0  0  0  0  0  0  0  0  0  0
   50.3370   28.1750   50.0280 C   0  0  0  0  0  0  0  0  0  0  0  0
   50.5110   29.4840   50.3990 C   0  0  0  0  0  0  0  0  0  0  0  0
   49.5380   27.7150   48.8880 C   0  0  0  0  0  0  0  0  0  0  0  0
   49.6120   26.1780   48.7260 C   0  0  1  0  0  0  0  0  0  0  0  0
   48.1250   25.7730   48.6860 C   0  0  0  0  0  0  0  0  0  0  0  0
   47.8290   25.7890   47.2250 C   0  0  0  0  0  0  0  0  0  0  0  0
   48.9520   25.2480   46.6680 O   0  0  0  0  0  0  0  0  0  0  0  0
   50.0420   25.7540   47.3670 C   0  0  0  0  0  0  0  0  0  0  0  0
   48.9880   30.1160   48.2890 S   0  0  0  0  0  0  0  0  0  0  0  0
   46.1380   32.6190   47.0050 C   0  0  0  0  0  0  0  0  0  0  0  0
   47.2960   31.8620   47.1090 C   0  0  0  0  0  0  0  0  0  0  0  0
   47.4960   31.0310   48.1950 C   0  0  0  0  0  0  0  0  0  0  0  0
   46.5500   30.9360   49.1910 C   0  0  0  0  0  0  0  0  0  0  0  0
   45.4020   31.6620   49.1240 C   0  0  0  0  0  0  0  0  0  0  0  0
   45.2160   32.4860   48.0380 C   0  0  0  0  0  0  0  0  0  0  0  0
   44.7300   35.2920   44.9720 C   0  0  0  0  0  0  0  0  0  0  0  0
   45.4580   35.2120   43.7740 C   0  0  0  0  0  0  0  0  0  0  0  0
   46.4480   34.2300   43.6540 C   0  0  0  0  0  0  0  0  0  0  0  0
   46.6760   33.3750   44.7110 N   0  0  0  0  0  0  0  0  0  0  0  0
   45.9360   33.5000   45.8520 C   0  0  0  0  0  0  0  0  0  0  0  0
   44.9680   34.4490   45.9880 N   0  0  0  0  0  0  0  0  0  0  0  0
   50.9563   33.1590   51.4707 H   0  0  0  0  0  0  0  0  0  0  0  0
   52.5212   29.0473   53.0989 H   0  0  0  0  0  0  0  0  0  0  0  0
   52.2132   26.6853   52.4335 H   0  0  0  0  0  0  0  0  0  0  0  0
   50.8140   26.1319   50.4742 H   0  0  0  0  0  0  0  0  0  0  0  0
   48.4894   28.0076   49.0454 H   0  0  0  0  0  0  0  0  0  0  0  0
   49.9413   28.1777   47.9752 H   0  0  0  0  0  0  0  0  0  0  0  0
   50.2798   25.7666   49.4972 H   0  0  0  0  0  0  0  0  0  0  0  0
   47.9740   24.7701   49.1118 H   0  0  0  0  0  0  0  0  0  0  0  0
   47.4728   26.4353   49.2742 H   0  0  0  0  0  0  0  0  0  0  0  0
   46.9430   25.1784   46.9963 H   0  0  0  0  0  0  0  0  0  0  0  0
   47.6033   26.7959   46.8439 H   0  0  0  0  0  0  0  0  0  0  0  0
   50.8142   24.9754   47.4540 H   0  0  0  0  0  0  0  0  0  0  0  0
   50.4510   26.6207   46.8270 H   0  0  0  0  0  0  0  0  0  0  0  0
   48.0609   31.9237   46.3209 H   0  0  0  0  0  0  0  0  0  0  0  0
   46.7241   30.2679   50.0473 H   0  0  0  0  0  0  0  0  0  0  0  0
   44.6426   31.5923   49.9167 H   0  0  0  0  0  0  0  0  0  0  0  0
   44.2867   33.0721   47.9836 H   0  0  0  0  0  0  0  0  0  0  0  0
   43.9500   36.0602   45.0794 H   0  0  0  0  0  0  0  0  0  0  0  0
   45.2543   35.9073   42.9463 H   0  0  0  0  0  0  0  0  0  0  0  0
   47.0362   34.1417   42.7287 H   0  0  0  0  0  0  0  0  0  0  0  0
  1  2  2  0
  1 10  1  0
  2  3  1  0
  3  4  2  0
  5  4  1  0
  5  6  2  0
  7  6  1  0
  8  7  2  0
  9 10  2  0
  9  8  1  0
 10  5  1  0
 11  9  1  0
 12 11  1  0
 13 12  1  0
 14 13  1  0
 15 14  1  0
 15 16  1  0
 16 12  1  0
 17  1  1  0
 18 19  2  0
 18 23  1  0
 19 20  1  0
 20 17  1  0
 20 21  2  0
 22 21  1  0
 23 22  2  0
 24 29  2  0
 25 24  1  0
 26 25  2  0
 26 27  1  0
 27 28  2  0
 28 29  1  0
 28 18  1  0
  3 30  1  0
  6 31  1  0
  7 32  1  0
  8 33  1  0
 11 34  1  0
 11 35  1  0
 12 36  1  1
 13 37  1  0
 13 38  1  0
 14 39  1  0
 14 40  1  0
 16 41  1  0
 16 42  1  0
 19 43  1  0
 21 44  1  0
 22 45  1  0
 23 46  1  0
 24 47  1  0
 25 48  1  0
 26 49  1  0
M  ISO  8  30  14  31  14  32  14  33  14  34   8  35   8  36  13  37  13
M  ISO  8  38  13  39  13  40  13  41  13  42  13  43  14  44  14  45  14
M  ISO  4  46  14  47  14  48  14  49  14
M  END
>  <minimizedAffinity>  (1) 
-6.42715263

>  <minimizedRMSD>  (1) 
0.762076676

$$$$
