
     RDKit          3D

 30 31  0  0  1  0  0  0  0  0999 V2000
   46.6690   31.5550   48.8070 O   0  0  0  0  0  0  0  0  0  0  0  0
   45.7730   31.9100   47.6140 P   0  0  1  0  0  0  0  0  0  0  0  0
   44.3580   32.6560   48.1170 O   0  0  0  0  0  0  0  0  0  0  0  0
   46.6660   32.9280   46.6030 O   0  0  0  0  0  0  0  0  0  0  0  0
   44.5980   35.3140   45.0020 C   0  0  0  0  0  0  0  0  0  0  0  0
   45.0830   35.3860   43.6820 C   0  0  0  0  0  0  0  0  0  0  0  0
   46.1880   34.5460   43.3700 C   0  0  0  0  0  0  0  0  0  0  0  0
   46.6860   33.7440   44.3630 N   0  0  0  0  0  0  0  0  0  0  0  0
   46.1750   33.7270   45.5980 C   0  0  0  0  0  0  0  0  0  0  0  0
   45.1400   34.5040   45.9210 N   0  0  0  0  0  0  0  0  0  0  0  0
   45.3700   30.4550   46.8800 O   0  0  0  0  0  0  0  0  0  0  0  0
   45.3030   29.4730   47.8230 C   0  0  0  0  0  0  0  0  0  0  0  0
   45.1120   28.0900   47.2550 C   0  0  2  0  0  0  0  0  0  0  0  0
   43.9600   28.0040   46.2700 C   0  0  0  0  0  0  0  0  0  0  0  0
   43.6380   26.5110   46.4120 C   0  0  0  0  0  0  0  0  0  0  0  0
   43.7020   26.3110   47.7650 O   0  0  0  0  0  0  0  0  0  0  0  0
   44.6340   27.1490   48.3270 C   0  0  0  0  0  0  0  0  0  0  0  0
   44.3272   32.6722   49.1064 H   0  0  0  0  0  0  0  0  0  0  0  0
   43.7439   35.9452   45.2886 H   0  0  0  0  0  0  0  0  0  0  0  0
   44.6325   36.0546   42.9336 H   0  0  0  0  0  0  0  0  0  0  0  0
   46.6291   34.5406   42.3623 H   0  0  0  0  0  0  0  0  0  0  0  0
   46.2391   29.4835   48.4006 H   0  0  0  0  0  0  0  0  0  0  0  0
   44.4202   29.6871   48.4434 H   0  0  0  0  0  0  0  0  0  0  0  0
   46.0856   27.8487   46.8034 H   0  0  0  0  0  0  0  0  0  0  0  0
   44.2708   28.2640   45.2473 H   0  0  0  0  0  0  0  0  0  0  0  0
   43.1215   28.6901   46.4599 H   0  0  0  0  0  0  0  0  0  0  0  0
   42.6333   26.2845   46.0257 H   0  0  0  0  0  0  0  0  0  0  0  0
   44.3225   25.8634   45.8446 H   0  0  0  0  0  0  0  0  0  0  0  0
   45.4799   26.5620   48.7140 H   0  0  0  0  0  0  0  0  0  0  0  0
   44.1911   27.7113   49.1623 H   0  0  0  0  0  0  0  0  0  0  0  0
  2  3  1  0
  2  1  2  0
  4  2  1  0
  5 10  2  0
  6  5  1  0
  7  6  2  0
  7  8  1  0
  8  9  2  0
  9 10  1  0
  9  4  1  0
 11  2  1  0
 11 12  1  0
 13 12  1  0
 13 17  1  0
 14 15  1  0
 14 13  1  0
 15 16  1  0
 16 17  1  0
  3 18  1  0
  5 19  1  0
  6 20  1  0
  7 21  1  0
 12 22  1  0
 12 23  1  0
 13 24  1  6
 14 25  1  0
 14 26  1  0
 15 27  1  0
 15 28  1  0
 17 29  1  0
 17 30  1  0
M  ISO  8  18   3  19  14  20  14  21  14  22   8  23   8  24  13  25  13
M  ISO  5  26  13  27  13  28  13  29  13  30  13
M  END
>  <minimizedAffinity>  (1) 
-4.44964504

>  <minimizedRMSD>  (1) 
1.0315578

$$$$
