
     RDKit          3D

 40 42  0  0  1  0  0  0  0  0999 V2000
   49.1180   33.3560   42.5300 C   0  0  0  0  0  0  0  0  0  0  0  0
   47.9070   32.9710   42.9150 C   0  0  0  0  0  0  0  0  0  0  0  0
   49.6850   32.7310   41.3360 C   0  0  0  0  0  0  0  0  0  0  0  0
   50.9730   32.1790   41.4550 C   0  0  0  0  0  0  0  0  0  0  0  0
   51.5870   31.5630   40.3660 C   0  0  0  0  0  0  0  0  0  0  0  0
   50.8790   31.5330   39.2080 N   0  0  0  0  0  0  0  0  0  0  0  0
   49.6470   32.0690   39.1180 C   0  0  0  0  0  0  0  0  0  0  0  0
   49.0530   32.6610   40.1640 N   0  0  0  0  0  0  0  0  0  0  0  0
   48.9260   32.0040   37.8260 C   0  0  2  0  0  0  0  0  0  0  0  0
   49.7290   31.3410   36.7240 C   0  0  0  0  0  0  0  0  0  0  0  0
   49.0460   31.9480   35.5140 C   0  0  0  0  0  0  0  0  0  0  0  0
   48.6060   33.1980   35.8560 O   0  0  0  0  0  0  0  0  0  0  0  0
   48.7290   33.3810   37.2210 C   0  0  0  0  0  0  0  0  0  0  0  0
   47.2390   33.5310   44.0990 C   0  0  0  0  0  0  0  0  0  0  0  0
   44.6390   36.0170   43.8110 C   0  0  1  0  0  0  0  0  0  0  0  0
   45.8010   35.3230   43.0840 C   0  0  0  0  0  0  0  0  0  0  0  0
   45.8200   34.0050   43.7920 C   0  0  2  0  0  0  0  0  0  0  0  0
   45.0300   34.0800   44.9010 O   0  0  0  0  0  0  0  0  0  0  0  0
   44.7500   35.4020   45.1870 C   0  0  0  0  0  0  0  0  0  0  0  0
   44.8220   37.3910   43.8180 O   0  0  0  0  0  0  0  0  0  0  0  0
   49.6763   34.1200   43.0909 H   0  0  0  0  0  0  0  0  0  0  0  0
   47.3835   32.2038   42.3256 H   0  0  0  0  0  0  0  0  0  0  0  0
   51.5016   32.2340   42.4181 H   0  0  0  0  0  0  0  0  0  0  0  0
   52.5928   31.1240   40.4408 H   0  0  0  0  0  0  0  0  0  0  0  0
   48.0023   31.4681   38.0899 H   0  0  0  0  0  0  0  0  0  0  0  0
   50.7939   31.6122   36.7727 H   0  0  0  0  0  0  0  0  0  0  0  0
   49.7411   30.2414   36.7513 H   0  0  0  0  0  0  0  0  0  0  0  0
   48.1929   31.3216   35.2142 H   0  0  0  0  0  0  0  0  0  0  0  0
   49.7494   32.0094   34.6705 H   0  0  0  0  0  0  0  0  0  0  0  0
   49.5965   34.0203   37.4417 H   0  0  0  0  0  0  0  0  0  0  0  0
   47.8381   33.8739   37.6374 H   0  0  0  0  0  0  0  0  0  0  0  0
   47.1926   32.7565   44.8788 H   0  0  0  0  0  0  0  0  0  0  0  0
   47.8207   34.4026   44.4337 H   0  0  0  0  0  0  0  0  0  0  0  0
   43.6474   35.8803   43.3549 H   0  0  0  0  0  0  0  0  0  0  0  0
   46.7467   35.8688   43.2171 H   0  0  0  0  0  0  0  0  0  0  0  0
   45.6823   35.2545   41.9926 H   0  0  0  0  0  0  0  0  0  0  0  0
   45.4048   33.2346   43.1256 H   0  0  0  0  0  0  0  0  0  0  0  0
   45.5635   35.8648   45.7650 H   0  0  0  0  0  0  0  0  0  0  0  0
   43.8478   35.5364   45.8018 H   0  0  0  0  0  0  0  0  0  0  0  0
   44.8649   37.7134   44.7530 H   0  0  0  0  0  0  0  0  0  0  0  0
  1  2  2  0
  2 14  1  0
  3  4  2  0
  3  1  1  0
  5  4  1  0
  6  5  2  0
  7  6  1  0
  7  8  2  0
  8  3  1  0
  9  7  1  0
 10  9  1  0
 11 12  1  0
 11 10  1  0
 12 13  1  0
 13  9  1  0
 15 20  1  0
 15 19  1  0
 16 17  1  0
 16 15  1  0
 17 14  1  0
 17 18  1  0
 18 19  1  0
  1 21  1  0
  2 22  1  0
  4 23  1  0
  5 24  1  0
  9 25  1  1
 10 26  1  0
 10 27  1  0
 11 28  1  0
 11 29  1  0
 13 30  1  0
 13 31  1  0
 14 32  1  0
 14 33  1  0
 15 34  1  6
 16 35  1  0
 16 36  1  0
 17 37  1  6
 19 38  1  0
 19 39  1  0
 20 40  1  0
M  ISO  8  23  14  24  14  25  13  26  13  27  13  28  13  29  13  30  13
M  ISO  8  31  13  32   8  33   8  34  13  35  13  36  13  37  13  38  13
M  ISO  2  39  13  40   3
M  END
>  <minimizedAffinity>  (1) 
-4.96031141

>  <minimizedRMSD>  (1) 
0.948228717

$$$$
