
     RDKit          3D

 28 29  0  0  1  0  0  0  0  0999 V2000
   44.9560   37.1700   43.2220 C   0  0  0  0  0  0  0  0  0  0  0  0
   45.4590   38.1660   43.9190 C   0  0  0  0  0  0  0  0  0  0  0  0
   45.2930   35.8110   43.6260 C   0  0  0  0  0  0  0  0  0  0  0  0
   46.0000   35.0060   42.7150 C   0  0  0  0  0  0  0  0  0  0  0  0
   46.3410   33.6900   43.0760 C   0  0  0  0  0  0  0  0  0  0  0  0
   45.9590   33.2620   44.3060 N   0  0  0  0  0  0  0  0  0  0  0  0
   45.2810   34.0630   45.1560 C   0  0  0  0  0  0  0  0  0  0  0  0
   44.9530   35.3110   44.8250 N   0  0  0  0  0  0  0  0  0  0  0  0
   45.2000   39.5910   43.6240 C   0  0  0  0  0  0  0  0  0  0  0  0
   45.5290   40.4880   44.7950 C   0  0  2  0  0  0  0  0  0  0  0  0
   45.2260   39.8050   46.1140 C   0  0  0  0  0  0  0  0  0  0  0  0
   44.6070   40.9050   46.9420 C   0  0  0  0  0  0  0  0  0  0  0  0
   43.8580   41.5900   45.9960 O   0  0  0  0  0  0  0  0  0  0  0  0
   44.6110   41.6840   44.8450 C   0  0  0  0  0  0  0  0  0  0  0  0
   44.3000   37.3576   42.3592 H   0  0  0  0  0  0  0  0  0  0  0  0
   46.1107   37.9240   44.7715 H   0  0  0  0  0  0  0  0  0  0  0  0
   46.2838   35.4020   41.7288 H   0  0  0  0  0  0  0  0  0  0  0  0
   46.8952   33.0338   42.3888 H   0  0  0  0  0  0  0  0  0  0  0  0
   44.9929   33.6760   46.1445 H   0  0  0  0  0  0  0  0  0  0  0  0
   45.8161   39.8919   42.7638 H   0  0  0  0  0  0  0  0  0  0  0  0
   44.1271   39.7003   43.4074 H   0  0  0  0  0  0  0  0  0  0  0  0
   46.5896   40.7477   44.6623 H   0  0  0  0  0  0  0  0  0  0  0  0
   44.5202   38.9730   45.9737 H   0  0  0  0  0  0  0  0  0  0  0  0
   46.1169   39.3627   46.5838 H   0  0  0  0  0  0  0  0  0  0  0  0
   43.9677   40.4950   47.7378 H   0  0  0  0  0  0  0  0  0  0  0  0
   45.3421   41.5334   47.4661 H   0  0  0  0  0  0  0  0  0  0  0  0
   45.2040   42.6104   44.8605 H   0  0  0  0  0  0  0  0  0  0  0  0
   43.9584   41.7045   43.9597 H   0  0  0  0  0  0  0  0  0  0  0  0
  1  3  1  0
  1  2  2  0
  3  8  2  0
  4  5  2  0
  4  3  1  0
  5  6  1  0
  6  7  2  0
  8  7  1  0
  9  2  1  0
 10  9  1  0
 10 14  1  0
 10 11  1  0
 11 12  1  0
 13 12  1  0
 14 13  1  0
  1 15  1  0
  2 16  1  0
  4 17  1  0
  5 18  1  0
  7 19  1  0
  9 20  1  0
  9 21  1  0
 10 22  1  1
 11 23  1  0
 11 24  1  0
 12 25  1  0
 12 26  1  0
 14 27  1  0
 14 28  1  0
M  ISO  8  17  14  18  14  19  14  20   8  21   8  22  13  23  13  24  13
M  ISO  4  25  13  26  13  27  13  28  13
M  END
>  <minimizedAffinity>  (1) 
-2.78387976

>  <minimizedRMSD>  (1) 
2.92350602

$$$$
