
     RDKit          3D

 36 37  0  0  0  0  0  0  0  0999 V2000
   43.3625   35.4371   41.7063 C   0  0  0  0  0  0  0  0  0  0  0  0
   43.2239   35.5369   43.1514 N   0  0  0  0  0  0  0  0  0  0  0  0
   44.7247   35.8291   43.9426 S   0  0  0  0  0  0  0  0  0  0  0  0
   45.8687   35.2564   43.1816 O   0  0  0  0  0  0  0  0  0  0  0  0
   44.8494   37.3433   44.0277 O   0  0  0  0  0  0  0  0  0  0  0  0
   44.6607   35.2536   45.5038 O   0  0  0  0  0  0  0  0  0  0  0  0
   45.4028   34.0860   45.6559 C   0  0  0  0  0  0  0  0  0  0  0  0
   42.8107   33.7936   41.2237 S   0  0  0  0  0  0  0  0  0  0  0  0
   40.1248   33.1053   41.3339 C   0  0  0  0  0  0  0  0  0  0  0  0
   41.0858   33.8601   40.6951 C   0  0  0  0  0  0  0  0  0  0  0  0
   40.7653   34.6935   39.6292 C   0  0  0  0  0  0  0  0  0  0  0  0
   39.4524   34.7323   39.2409 N   0  0  0  0  0  0  0  0  0  0  0  0
   38.5397   33.9787   39.8909 C   0  0  0  0  0  0  0  0  0  0  0  0
   38.8406   33.1900   40.8989 N   0  0  0  0  0  0  0  0  0  0  0  0
   44.3702   35.6914   41.3454 H   0  0  0  0  0  0  0  0  0  0  0  0
   42.6581   36.1882   41.2892 H   0  0  0  0  0  0  0  0  0  0  0  0
   42.8551   34.6500   43.5884 H   0  0  0  0  0  0  0  0  0  0  0  0
   46.6047   35.7511   42.7534 H   0  0  0  0  0  0  0  0  0  0  0  0
   44.5130   37.9199   44.7606 H   0  0  0  0  0  0  0  0  0  0  0  0
   44.7479   33.2337   45.4089 H   0  0  0  0  0  0  0  0  0  0  0  0
   45.6982   33.9701   46.7351 H   0  0  0  0  0  0  0  0  0  0  0  0
   46.2988   34.1273   44.9805 H   0  0  0  0  0  0  0  0  0  0  0  0
   40.3936   32.4643   42.1596 H   0  0  0  0  0  0  0  0  0  0  0  0
   41.4821   35.3105   39.0891 H   0  0  0  0  0  0  0  0  0  0  0  0
   37.0873   33.9594   39.5346 C   0  0  1  0  0  0  0  0  0  0  0  0
   36.8597   34.3960   38.1008 C   0  0  2  0  0  0  0  0  0  0  0  0
   37.6617   35.1566   37.8792 H   0  0  0  0  0  0  0  0  0  0  0  0
   37.0567   33.1217   37.3515 C   0  0  2  0  0  0  0  0  0  0  0  0
   38.1015   33.0682   36.9539 H   0  0  0  0  0  0  0  0  0  0  0  0
   36.8656   32.0512   38.1936 O   0  0  0  0  0  0  0  0  0  0  0  0
   36.5850   32.5162   39.4520 C   0  0  2  0  0  0  0  0  0  0  0  0
   35.4803   32.5832   39.5627 H   0  0  0  0  0  0  0  0  0  0  0  0
   36.4683   34.5269   40.2648 H   0  0  0  0  0  0  0  0  0  0  0  0
   35.8556   34.8524   37.9858 H   0  0  0  0  0  0  0  0  0  0  0  0
   36.3953   33.1096   36.4641 H   0  0  0  0  0  0  0  0  0  0  0  0
   36.9969   31.9078   40.2826 H   0  0  0  0  0  0  0  0  0  0  0  0
  1  2  1  0
  2  3  1  0
  3  5  1  0
  3  6  1  0
  4  3  1  0
  6  7  1  0
  8  1  1  0
 10  8  1  0
 10  9  2  0
 11 10  1  0
 12 11  2  0
 12 13  1  0
 13 14  2  0
 14  9  1  0
  1 15  1  0
  1 16  1  0
  2 17  1  0
  4 18  1  0
  5 19  1  0
  7 20  1  0
  7 21  1  0
  7 22  1  0
  9 23  1  0
 11 24  1  0
 25 26  1  0
 26 27  1  6
 26 28  1  0
 28 29  1  6
 28 30  1  0
 30 31  1  0
 31 32  1  1
 31 25  1  0
 25 33  1  1
 26 34  1  0
 28 35  1  0
 31 36  1  0
 13 25  1  0
M  ISO  8  15   8  16   8  17   5  18   3  19   3  20   8  21   8  22   8
M  ISO  5  23  14  24  14  27  15  29  15  32  15
M  END
>  <DihAtoms>  (1) 
11,12,24,25

>  <DihDeg>  (1) 
127.89531922865955

$$$$
