
     RDKit          3D

 44 47  0  0  1  0  0  0  0  0999 V2000
   48.3540   33.0860   41.4410 C   0  0  0  0  0  0  0  0  0  0  0  0
   47.9270   34.3030   41.8950 C   0  0  0  0  0  0  0  0  0  0  0  0
   48.8260   35.1480   42.4800 C   0  0  0  0  0  0  0  0  0  0  0  0
   50.1580   34.7660   42.6080 C   0  0  0  0  0  0  0  0  0  0  0  0
   50.5560   33.5290   42.1390 C   0  0  0  0  0  0  0  0  0  0  0  0
   49.6440   32.6610   41.5410 C   0  0  0  0  0  0  0  0  0  0  0  0
   46.5010   34.6280   41.7190 C   0  0  0  0  0  0  0  0  0  0  0  0
   45.8500   34.8630   43.0690 C   0  0  0  0  0  0  0  0  0  0  0  0
   45.9690   33.8450   44.0380 C   0  0  0  0  0  0  0  0  0  0  0  0
   45.3710   34.0840   45.2570 C   0  0  0  0  0  0  0  0  0  0  0  0
   44.7270   35.2450   45.4460 N   0  0  0  0  0  0  0  0  0  0  0  0
   44.6250   36.2100   44.4980 C   0  0  0  0  0  0  0  0  0  0  0  0
   45.1940   35.9960   43.3190 N   0  0  0  0  0  0  0  0  0  0  0  0
   47.5090   32.1460   40.8250 O   0  0  0  0  0  0  0  0  0  0  0  0
   50.1550   31.4360   41.1020 O   0  0  0  0  0  0  0  0  0  0  0  0
   50.5550   31.4290   39.7660 C   0  0  0  0  0  0  0  0  0  0  0  0
   51.9030   31.4420   39.4800 C   0  0  0  0  0  0  0  0  0  0  0  0
   52.4060   31.4360   38.1830 C   0  0  0  0  0  0  0  0  0  0  0  0
   51.5440   31.4190   37.1710 N   0  0  0  0  0  0  0  0  0  0  0  0
   50.2190   31.4060   37.4370 C   0  0  0  0  0  0  0  0  0  0  0  0
   49.7450   31.4110   38.7000 N   0  0  0  0  0  0  0  0  0  0  0  0
   49.1880   31.3850   36.3830 C   0  0  2  0  0  0  0  0  0  0  0  0
   49.6590   30.9040   35.0510 C   0  0  0  0  0  0  0  0  0  0  0  0
   49.2910   32.0580   34.1110 C   0  0  0  0  0  0  0  0  0  0  0  0
   48.2190   32.6650   34.7830 O   0  0  0  0  0  0  0  0  0  0  0  0
   48.7310   32.7970   36.0660 C   0  0  0  0  0  0  0  0  0  0  0  0
   48.4974   36.1304   42.8500 H   0  0  0  0  0  0  0  0  0  0  0  0
   50.8870   35.4425   43.0781 H   0  0  0  0  0  0  0  0  0  0  0  0
   51.6083   33.2245   42.2390 H   0  0  0  0  0  0  0  0  0  0  0  0
   46.4078   35.5372   41.1068 H   0  0  0  0  0  0  0  0  0  0  0  0
   45.9989   33.7870   41.2184 H   0  0  0  0  0  0  0  0  0  0  0  0
   46.5103   32.9098   43.8320 H   0  0  0  0  0  0  0  0  0  0  0  0
   45.4213   33.3350   46.0610 H   0  0  0  0  0  0  0  0  0  0  0  0
   44.0843   37.1460   44.7018 H   0  0  0  0  0  0  0  0  0  0  0  0
   46.5485   32.3508   40.7001 H   0  0  0  0  0  0  0  0  0  0  0  0
   52.6157   31.4579   40.3177 H   0  0  0  0  0  0  0  0  0  0  0  0
   53.4905   31.4451   37.9992 H   0  0  0  0  0  0  0  0  0  0  0  0
   48.4205   30.7156   36.7988 H   0  0  0  0  0  0  0  0  0  0  0  0
   50.7452   30.7304   35.0559 H   0  0  0  0  0  0  0  0  0  0  0  0
   49.2078   29.9457   34.7544 H   0  0  0  0  0  0  0  0  0  0  0  0
   48.9812   31.6838   33.1241 H   0  0  0  0  0  0  0  0  0  0  0  0
   50.1272   32.7434   33.9088 H   0  0  0  0  0  0  0  0  0  0  0  0
   49.5749   33.5022   36.0868 H   0  0  0  0  0  0  0  0  0  0  0  0
   48.0048   33.1961   36.7895 H   0  0  0  0  0  0  0  0  0  0  0  0
  1  6  2  0
  1  2  1  0
  2  3  2  0
  3  4  1  0
  5  4  2  0
  6  5  1  0
  7  2  1  0
  7  8  1  0
  8 13  1  0
  8  9  2  0
  9 10  1  0
 10 11  2  0
 12 11  1  0
 13 12  2  0
 14  1  1  0
 15  6  1  0
 16 15  1  0
 17 16  2  0
 18 17  1  0
 19 20  1  0
 19 18  2  0
 20 21  2  0
 21 16  1  0
 22 20  1  0
 23 22  1  0
 24 25  1  0
 24 23  1  0
 25 26  1  0
 26 22  1  0
  3 27  1  0
  4 28  1  0
  5 29  1  0
  7 30  1  0
  7 31  1  0
  9 32  1  0
 10 33  1  0
 12 34  1  0
 14 35  1  0
 17 36  1  0
 18 37  1  0
 22 38  1  1
 23 39  1  0
 23 40  1  0
 24 41  1  0
 24 42  1  0
 26 43  1  0
 26 44  1  0
M  ISO  8  27  14  28  14  29  14  30   8  31   8  32  14  33  14  34  14
M  ISO  8  35   3  36  14  37  14  38  13  39  13  40  13  41  13  42  13
M  ISO  2  43  13  44  13
M  END
>  <minimizedAffinity>  (1) 
-5.86616325

>  <minimizedRMSD>  (1) 
1.11677635

$$$$
