
     RDKit          3D

 27 28  0  0  0  0  0  0  0  0999 V2000
   44.5808   35.9894   44.5201 C   0  0  0  0  0  0  0  0  0  0  0  0
   45.2230   35.9913   43.2566 C   0  0  0  0  0  0  0  0  0  0  0  0
   46.0984   34.9540   42.9613 C   0  0  0  0  0  0  0  0  0  0  0  0
   46.2929   33.9871   43.9063 N   0  0  0  0  0  0  0  0  0  0  0  0
   45.6741   34.0071   45.0939 C   0  0  0  0  0  0  0  0  0  0  0  0
   44.8146   35.0098   45.4054 N   0  0  0  0  0  0  0  0  0  0  0  0
   46.7162   34.9680   41.7290 O   0  0  0  0  0  0  0  0  0  0  0  0
   48.6455   33.3271   40.9703 O   0  0  0  0  0  0  0  0  0  0  0  0
   48.4078   34.6910   41.6279 P   0  0  0  0  0  0  0  0  0  0  0  0
   49.1270   35.9302   40.7859 O   0  0  0  0  0  0  0  0  0  0  0  0
   48.9947   34.5861   43.2244 O   0  0  0  0  0  0  0  0  0  0  0  0
   43.9194   36.8465   44.6425 H   0  0  0  0  0  0  0  0  0  0  0  0
   45.0569   36.7664   42.5189 H   0  0  0  0  0  0  0  0  0  0  0  0
   49.9476   36.2334   41.2738 H   0  0  0  0  0  0  0  0  0  0  0  0
   48.8797   33.6588   43.5117 H   0  0  0  0  0  0  0  0  0  0  0  0
   45.8825   32.9669   46.1121 C   0  0  0  0  0  0  0  0  0  0  0  0
   45.4870   31.5766   45.5967 C   0  0  0  0  0  0  0  0  0  0  0  0
   44.3800   31.5017   45.6346 H   0  0  0  0  0  0  0  0  0  0  0  0
   46.1639   30.7710   46.6881 C   0  0  0  0  0  0  0  0  0  0  0  0
   46.3117   29.7136   46.4309 H   0  0  0  0  0  0  0  0  0  0  0  0
   47.3094   31.4543   47.0487 O   0  0  0  0  0  0  0  0  0  0  0  0
   47.3047   32.6986   46.4715 C   0  0  0  0  0  0  0  0  0  0  0  0
   47.9386   32.6237   45.5417 H   0  0  0  0  0  0  0  0  0  0  0  0
   45.3017   33.1285   47.0307 H   0  0  0  0  0  0  0  0  0  0  0  0
   45.9307   31.3521   44.6137 H   0  0  0  0  0  0  0  0  0  0  0  0
   45.4643   30.8111   47.5735 H   0  0  0  0  0  0  0  0  0  0  0  0
   47.7645   33.4900   47.1250 H   0  0  0  0  0  0  0  0  0  0  0  0
  1  6  2  0
  2  1  1  0
  3  2  2  0
  3  4  1  0
  4  5  2  0
  5  6  1  0
  7  3  1  0
  8  9  2  0
  9  7  1  0
  9 11  1  0
 10  9  1  0
  1 12  1  0
  2 13  1  0
 10 14  1  0
 11 15  1  0
 16 17  1  0
 17 18  1  0
 17 19  1  0
 19 20  1  0
 19 21  1  0
 21 22  1  0
 22 23  1  0
 22 16  1  0
 16 24  1  0
 17 25  1  0
 19 26  1  0
 22 27  1  0
  5 16  1  0
M  ISO  7  12  14  13  14  14   3  15   3  18  15  20  15  23  15
M  END
>  <DihAtoms>  (1) 
3,4,15,16

>  <DihDeg>  (1) 
-59.916135288936154

$$$$
