
     RDKit          3D

 43 45  0  0  0  0  0  0  0  0999 V2000
   45.3461   34.6843   42.3522 C   0  0  0  0  0  0  0  0  0  0  0  0
   46.4686   35.2172   41.6514 C   0  0  0  0  0  0  0  0  0  0  0  0
   47.7334   34.9217   42.2000 C   0  0  0  0  0  0  0  0  0  0  0  0
   47.7833   34.1752   43.3194 N   0  0  0  0  0  0  0  0  0  0  0  0
   46.6849   33.6960   43.9419 C   0  0  0  0  0  0  0  0  0  0  0  0
   45.4584   33.9570   43.4480 N   0  0  0  0  0  0  0  0  0  0  0  0
   43.7398   34.1462   40.7305 C   0  0  0  0  0  0  0  0  0  0  0  0
   44.6471   33.3710   40.2720 O   0  0  0  0  0  0  0  0  0  0  0  0
   44.0218   34.9399   41.8592 N   0  0  0  0  0  0  0  0  0  0  0  0
   42.4923   34.1492   40.0569 N   0  0  0  0  0  0  0  0  0  0  0  0
   42.3876   33.5395   38.7179 C   0  0  0  0  0  0  0  0  0  0  0  0
   41.3185   34.3660   38.0744 C   0  0  0  0  0  0  0  0  0  0  0  0
   40.8219   35.3091   39.1314 C   0  0  0  0  0  0  0  0  0  0  0  0
   41.1956   34.6349   40.4296 C   0  0  1  0  0  0  0  0  0  0  0  0
   38.9025   33.5126   40.7322 C   0  0  0  0  0  0  0  0  0  0  0  0
   38.4992   34.5131   40.1188 O   0  0  0  0  0  0  0  0  0  0  0  0
   40.3487   33.5104   40.8044 N   0  0  0  0  0  0  0  0  0  0  0  0
   48.8637   35.4801   41.4617 C   0  0  0  0  0  0  0  0  0  0  0  0
   49.9975   34.7390   41.7663 F   0  0  0  0  0  0  0  0  0  0  0  0
   49.1095   36.7536   41.9961 F   0  0  0  0  0  0  0  0  0  0  0  0
   48.6914   35.4941   40.1097 F   0  0  0  0  0  0  0  0  0  0  0  0
   46.2955   35.7960   40.7718 H   0  0  0  0  0  0  0  0  0  0  0  0
   46.8126   33.0969   44.8477 H   0  0  0  0  0  0  0  0  0  0  0  0
   43.3053   35.6024   42.2251 H   0  0  0  0  0  0  0  0  0  0  0  0
   43.3354   33.5307   38.1829 H   0  0  0  0  0  0  0  0  0  0  0  0
   41.9658   32.5087   38.9033 H   0  0  0  0  0  0  0  0  0  0  0  0
   40.4659   33.7462   37.7453 H   0  0  0  0  0  0  0  0  0  0  0  0
   41.6994   34.8815   37.1716 H   0  0  0  0  0  0  0  0  0  0  0  0
   41.6277   36.1248   39.0919 H   0  0  0  0  0  0  0  0  0  0  0  0
   39.9422   35.8469   38.9906 H   0  0  0  0  0  0  0  0  0  0  0  0
   41.1083   35.4060   41.1862 H   0  0  0  0  0  0  0  0  0  0  0  0
   40.8455   32.6324   41.1547 H   0  0  0  0  0  0  0  0  0  0  0  0
   38.8884   33.5795   43.7278 Cl  0  0  0  0  0  0  0  0  0  0  0  0
   38.1017   32.3727   42.7280 C   0  0  0  0  0  0  0  0  0  0  0  0
   38.1742   32.4401   41.3331 C   0  0  0  0  0  0  0  0  0  0  0  0
   37.5552   31.4904   40.5431 C   0  0  0  0  0  0  0  0  0  0  0  0
   37.6183   31.5525   39.4446 H   0  0  0  0  0  0  0  0  0  0  0  0
   36.8471   30.4482   41.1507 C   0  0  0  0  0  0  0  0  0  0  0  0
   36.3579   29.6978   40.5175 H   0  0  0  0  0  0  0  0  0  0  0  0
   36.7847   30.3959   42.5447 C   0  0  0  0  0  0  0  0  0  0  0  0
   36.2352   29.5867   43.0014 H   0  0  0  0  0  0  0  0  0  0  0  0
   37.4140   31.3608   43.3233 C   0  0  0  0  0  0  0  0  0  0  0  0
   37.2645   31.1885   45.0740 Cl  0  0  0  0  0  0  0  0  0  0  0  0
  1  6  2  0
  2  3  2  0
  2  1  1  0
  3  4  1  0
  4  5  2  0
  6  5  1  0
  7  9  1  0
  8  7  2  0
  9  1  1  0
 10 14  1  0
 10  7  1  0
 11 10  1  0
 12 11  1  0
 12 13  1  0
 13 14  1  0
 14 17  1  0
 15 17  1  0
 16 15  2  0
 18 19  1  0
 18 20  1  0
 18  3  1  0
 21 18  1  0
  2 22  1  0
  5 23  1  0
  9 24  1  0
 11 25  1  0
 11 26  1  0
 12 27  1  0
 12 28  1  0
 13 29  1  0
 13 30  1  0
 14 31  1  1
 17 32  1  0
 33 34  1  0
 34 35  2  0
 35 36  1  0
 36 37  1  0
 36 38  2  0
 38 39  1  0
 38 40  1  0
 40 41  1  0
 40 42  2  0
 42 43  1  0
 42 34  1  0
 15 35  1  0
M  ISO  8  22  14  23  14  25  13  26  13  27  13  28  13  29  13  30  13
M  ISO  4  31  13  37  15  39  15  41  15
M  END
>  <DihAtoms>  (1) 
16,14,34,33

>  <DihDeg>  (1) 
117.28885703641917

$$$$
