
     RDKit          3D

 24 25  0  0  0  0  0  0  0  0999 V2000
   44.9138   35.1076   44.9444 C   0  0  0  0  0  0  0  0  0  0  0  0
   45.8110   34.7602   43.9482 C   0  0  0  0  0  0  0  0  0  0  0  0
   46.6719   33.6938   44.2158 C   0  0  0  0  0  0  0  0  0  0  0  0
   46.5971   33.0636   45.3995 N   0  0  0  0  0  0  0  0  0  0  0  0
   45.7087   33.4347   46.3409 C   0  0  0  0  0  0  0  0  0  0  0  0
   44.8693   34.4486   46.1228 N   0  0  0  0  0  0  0  0  0  0  0  0
   45.7877   35.5432   42.6870 C   0  0  0  0  0  0  0  0  0  0  0  0
   45.3527   36.8091   43.0375 F   0  0  0  0  0  0  0  0  0  0  0  0
   44.9225   34.9368   41.8183 F   0  0  0  0  0  0  0  0  0  0  0  0
   47.0821   35.5550   42.1634 F   0  0  0  0  0  0  0  0  0  0  0  0
   45.6293   32.7825   47.5703 O   0  0  0  0  0  0  0  0  0  0  0  0
   44.1984   35.9302   44.8277 H   0  0  0  0  0  0  0  0  0  0  0  0
   47.3705   33.4272   43.4335 H   0  0  0  0  0  0  0  0  0  0  0  0
   45.2678   30.7298   49.7619 Cl  0  0  0  0  0  0  0  0  0  0  0  0
   44.4798   32.2854   49.5993 C   0  0  0  0  0  0  0  0  0  0  0  0
   44.7144   33.1551   48.5559 C   0  0  0  0  0  0  0  0  0  0  0  0
   44.1378   34.3716   48.3729 C   0  0  0  0  0  0  0  0  0  0  0  0
   44.3616   35.0159   47.5292 H   0  0  0  0  0  0  0  0  0  0  0  0
   43.2162   34.7808   49.3379 C   0  0  0  0  0  0  0  0  0  0  0  0
   42.7131   35.7217   49.2770 H   0  0  0  0  0  0  0  0  0  0  0  0
   42.9185   33.9611   50.4295 C   0  0  0  0  0  0  0  0  0  0  0  0
   42.2095   34.2866   51.1631 H   0  0  0  0  0  0  0  0  0  0  0  0
   43.5541   32.7304   50.5409 C   0  0  0  0  0  0  0  0  0  0  0  0
   43.2096   31.6761   51.8908 Cl  0  0  0  0  0  0  0  0  0  0  0  0
  1  6  2  0
  2  3  2  0
  2  1  1  0
  3  4  1  0
  4  5  2  0
  5 11  1  0
  6  5  1  0
  7  8  1  0
  7  2  1  0
  9  7  1  0
 10  7  1  0
  1 12  1  0
  3 13  1  0
 14 15  1  0
 15 16  2  0
 16 17  1  0
 17 18  1  0
 17 19  2  0
 19 20  1  0
 19 21  1  0
 21 22  1  0
 21 23  2  0
 23 24  1  0
 23 15  1  0
 11 16  1  0
M  ISO  5  12  14  13  14  18  15  20  15  22  15
M  END
>  <DihAtoms>  (1) 
4,10,15,14

>  <DihDeg>  (1) 
-59.99990672632087

$$$$
