
     RDKit          3D

 43 45  0  0  1  0  0  0  0  0999 V2000
   45.4530   34.4300   42.2100 C   0  0  0  0  0  0  0  0  0  0  0  0
   46.5380   35.1990   41.6930 C   0  0  0  0  0  0  0  0  0  0  0  0
   47.8240   34.8110   42.1180 C   0  0  0  0  0  0  0  0  0  0  0  0
   47.9290   33.7660   42.9610 N   0  0  0  0  0  0  0  0  0  0  0  0
   46.8650   33.0730   43.4200 C   0  0  0  0  0  0  0  0  0  0  0  0
   45.6180   33.4140   43.0360 N   0  0  0  0  0  0  0  0  0  0  0  0
   43.8370   34.3300   40.5140 C   0  0  0  0  0  0  0  0  0  0  0  0
   44.7650   33.7700   39.8370 O   0  0  0  0  0  0  0  0  0  0  0  0
   44.1090   34.7610   41.8270 N   0  0  0  0  0  0  0  0  0  0  0  0
   42.5760   34.4770   39.8820 N   0  0  0  0  0  0  0  0  0  0  0  0
   42.4690   34.2920   38.4230 C   0  0  0  0  0  0  0  0  0  0  0  0
   41.3530   35.2250   38.0650 C   0  0  0  0  0  0  0  0  0  0  0  0
   40.8400   35.7840   39.3600 C   0  0  0  0  0  0  0  0  0  0  0  0
   41.2690   34.7700   40.3940 C   0  0  1  0  0  0  0  0  0  0  0  0
   39.7900   33.0390   41.5890 C   0  0  0  0  0  0  0  0  0  0  0  0
   39.7940   33.8840   42.4970 O   0  0  0  0  0  0  0  0  0  0  0  0
   40.4770   33.5470   40.4200 N   0  0  0  0  0  0  0  0  0  0  0  0
   41.6140   30.9170   42.6610 Cl  0  0  0  0  0  0  0  0  0  0  0  0
   39.9990   30.6540   42.0290 C   0  0  0  0  0  0  0  0  0  0  0  0
   39.2340   31.7230   41.5520 C   0  0  0  0  0  0  0  0  0  0  0  0
   37.9620   31.5190   41.0530 C   0  0  0  0  0  0  0  0  0  0  0  0
   37.4360   30.2220   41.0270 C   0  0  0  0  0  0  0  0  0  0  0  0
   38.2130   29.1660   41.5070 C   0  0  0  0  0  0  0  0  0  0  0  0
   39.4920   29.3920   42.0050 C   0  0  0  0  0  0  0  0  0  0  0  0
   40.3780   27.9790   42.5840 Cl  0  0  0  0  0  0  0  0  0  0  0  0
   48.9160   35.6150   41.5730 C   0  0  0  0  0  0  0  0  0  0  0  0
   50.1200   35.0380   41.9500 F   0  0  0  0  0  0  0  0  0  0  0  0
   48.8820   36.8500   42.2380 F   0  0  0  0  0  0  0  0  0  0  0  0
   48.8880   35.7410   40.2160 F   0  0  0  0  0  0  0  0  0  0  0  0
   46.3802   36.0427   41.0051 H   0  0  0  0  0  0  0  0  0  0  0  0
   47.0156   32.2285   44.1086 H   0  0  0  0  0  0  0  0  0  0  0  0
   43.4335   35.2490   42.4324 H   0  0  0  0  0  0  0  0  0  0  0  0
   43.4032   34.5749   37.9158 H   0  0  0  0  0  0  0  0  0  0  0  0
   42.2857   33.2497   38.1230 H   0  0  0  0  0  0  0  0  0  0  0  0
   41.7257   36.0354   37.4213 H   0  0  0  0  0  0  0  0  0  0  0  0
   40.5580   34.7039   37.5115 H   0  0  0  0  0  0  0  0  0  0  0  0
   41.2894   36.7665   39.5666 H   0  0  0  0  0  0  0  0  0  0  0  0
   39.7515   35.9424   39.3500 H   0  0  0  0  0  0  0  0  0  0  0  0
   41.1845   35.1448   41.4247 H   0  0  0  0  0  0  0  0  0  0  0  0
   40.4006   33.0066   39.5465 H   0  0  0  0  0  0  0  0  0  0  0  0
   37.3687   32.3669   40.6800 H   0  0  0  0  0  0  0  0  0  0  0  0
   36.4253   30.0375   40.6341 H   0  0  0  0  0  0  0  0  0  0  0  0
   37.8089   28.1430   41.4912 H   0  0  0  0  0  0  0  0  0  0  0  0
  1  6  2  0
  2  3  2  0
  2  1  1  0
  3  4  1  0
  4  5  2  0
  6  5  1  0
  7  9  1  0
  8  7  2  0
  9  1  1  0
 10 14  1  0
 10  7  1  0
 11 10  1  0
 12 11  1  0
 12 13  1  0
 13 14  1  0
 14 17  1  0
 15 16  2  0
 17 15  1  0
 19 18  1  0
 20 15  1  0
 20 19  2  0
 21 20  1  0
 22 21  2  0
 22 23  1  0
 23 24  2  0
 24 19  1  0
 24 25  1  0
 26 27  1  0
 26  3  1  0
 26 28  1  0
 29 26  1  0
  2 30  1  0
  5 31  1  0
  9 32  1  0
 11 33  1  0
 11 34  1  0
 12 35  1  0
 12 36  1  0
 13 37  1  0
 13 38  1  0
 14 39  1  1
 17 40  1  0
 21 41  1  0
 22 42  1  0
 23 43  1  0
M  ISO  8  30  14  31  14  33  13  34  13  35  13  36  13  37  13  38  13
M  ISO  4  39  13  41  14  42  14  43  14
M  END
>  <minimizedAffinity>  (1) 
-7.2864666

>  <minimizedRMSD>  (1) 
1.13469076

$$$$
