
     RDKit          3D

 24 25  0  0  0  0  0  0  0  0999 V2000
   44.6772   36.0788   44.2895 C   0  0  0  0  0  0  0  0  0  0  0  0
   45.4824   35.5876   43.2359 C   0  0  0  0  0  0  0  0  0  0  0  0
   46.1699   34.3847   43.4660 C   0  0  0  0  0  0  0  0  0  0  0  0
   46.0321   33.7568   44.6734 N   0  0  0  0  0  0  0  0  0  0  0  0
   45.2560   34.2609   45.6449 C   0  0  0  0  0  0  0  0  0  0  0  0
   44.5721   35.4290   45.4568 N   0  0  0  0  0  0  0  0  0  0  0  0
   46.1684   32.5820   47.1275 C   0  0  0  0  0  0  0  0  0  0  0  0
   47.1130   32.3012   46.3677 O   0  0  0  0  0  0  0  0  0  0  0  0
   45.1561   33.5600   46.8753 N   0  0  0  0  0  0  0  0  0  0  0  0
   44.1506   37.0014   44.1104 H   0  0  0  0  0  0  0  0  0  0  0  0
   45.5756   36.1012   42.2923 H   0  0  0  0  0  0  0  0  0  0  0  0
   46.7836   34.0150   42.6558 H   0  0  0  0  0  0  0  0  0  0  0  0
   44.3841   33.7582   47.5455 H   0  0  0  0  0  0  0  0  0  0  0  0
   45.1374   29.7195   47.0881 Cl  0  0  0  0  0  0  0  0  0  0  0  0
   45.6100   30.5639   48.5400 C   0  0  0  0  0  0  0  0  0  0  0  0
   46.0587   31.8561   48.4103 C   0  0  0  0  0  0  0  0  0  0  0  0
   46.4440   32.5621   49.5351 C   0  0  0  0  0  0  0  0  0  0  0  0
   46.8070   33.5946   49.4735 H   0  0  0  0  0  0  0  0  0  0  0  0
   46.4012   32.0280   50.8067 C   0  0  0  0  0  0  0  0  0  0  0  0
   46.7056   32.5944   51.6700 H   0  0  0  0  0  0  0  0  0  0  0  0
   45.9470   30.7249   50.9223 C   0  0  0  0  0  0  0  0  0  0  0  0
   45.9096   30.2962   51.9182 H   0  0  0  0  0  0  0  0  0  0  0  0
   45.5538   29.9974   49.7960 C   0  0  0  0  0  0  0  0  0  0  0  0
   44.9820   28.3495   49.9611 Cl  0  0  0  0  0  0  0  0  0  0  0  0
  1  6  2  0
  2  3  2  0
  2  1  1  0
  3  4  1  0
  4  5  2  0
  5  9  1  0
  6  5  1  0
  8  7  2  0
  9  7  1  0
  1 10  1  0
  2 11  1  0
  3 12  1  0
  9 13  1  0
 14 15  1  0
 15 16  2  0
 16 17  1  0
 17 18  1  0
 17 19  2  0
 19 20  1  0
 19 21  1  0
 21 22  1  0
 21 23  2  0
 23 24  1  0
 23 15  1  0
  7 16  1  0
M  ISO  6  10  14  11  14  12  14  18  15  20  15  22  15
M  END
>  <DihAtoms>  (1) 
7,6,15,14

>  <DihDeg>  (1) 
119.13088414944971

$$$$
