
     RDKit          3D

 40 42  0  0  0  0  0  0  0  0999 V2000
   44.5235   35.8236   44.8580 C   0  0  0  0  0  0  0  0  0  0  0  0
   45.1315   35.7714   43.5860 C   0  0  0  0  0  0  0  0  0  0  0  0
   46.0061   34.7238   43.3607 C   0  0  0  0  0  0  0  0  0  0  0  0
   46.2426   33.7966   44.3623 N   0  0  0  0  0  0  0  0  0  0  0  0
   45.6237   33.9096   45.5583 C   0  0  0  0  0  0  0  0  0  0  0  0
   44.7613   34.9160   45.8244 N   0  0  0  0  0  0  0  0  0  0  0  0
   46.6371   34.6413   42.0874 N   0  0  0  0  0  0  0  0  0  0  0  0
   47.8832   35.1526   41.9565 C   0  0  0  0  0  0  0  0  0  0  0  0
   48.5072   35.0767   40.7181 C   0  0  0  0  0  0  0  0  0  0  0  0
   47.8428   34.4919   39.6855 C   0  0  0  0  0  0  0  0  0  0  0  0
   48.4388   34.4360   38.5613 O   0  0  0  0  0  0  0  0  0  0  0  0
   46.6114   33.9851   39.8096 N   0  0  0  0  0  0  0  0  0  0  0  0
   46.0418   34.0808   41.0330 C   0  0  0  0  0  0  0  0  0  0  0  0
   44.8922   33.6354   41.2465 O   0  0  0  0  0  0  0  0  0  0  0  0
   46.0393   32.7999   46.4610 C   0  0  0  0  0  0  0  0  0  0  0  0
   45.2344   32.8220   47.7432 C   0  0  0  0  0  0  0  0  0  0  0  0
   45.1338   30.6672   48.8784 C   0  0  0  0  0  0  0  0  0  0  0  0
   46.1872   30.9983   49.4600 O   0  0  0  0  0  0  0  0  0  0  0  0
   44.6101   31.5330   47.9158 N   0  0  0  0  0  0  0  0  0  0  0  0
   43.8319   36.6280   45.0751 H   0  0  0  0  0  0  0  0  0  0  0  0
   44.9276   36.4993   42.8398 H   0  0  0  0  0  0  0  0  0  0  0  0
   48.4190   35.6201   42.7746 H   0  0  0  0  0  0  0  0  0  0  0  0
   49.4974   35.4731   40.5788 H   0  0  0  0  0  0  0  0  0  0  0  0
   46.0883   33.5353   39.0335 H   0  0  0  0  0  0  0  0  0  0  0  0
   47.1109   33.0190   46.7145 H   0  0  0  0  0  0  0  0  0  0  0  0
   46.0467   31.8177   45.9617 H   0  0  0  0  0  0  0  0  0  0  0  0
   45.8636   33.0821   48.5934 H   0  0  0  0  0  0  0  0  0  0  0  0
   44.3894   33.5587   47.6199 H   0  0  0  0  0  0  0  0  0  0  0  0
   43.7886   31.2343   47.3480 H   0  0  0  0  0  0  0  0  0  0  0  0
   43.2384   30.9287   51.1408 Cl  0  0  0  0  0  0  0  0  0  0  0  0
   43.6149   29.4260   50.3045 C   0  0  0  0  0  0  0  0  0  0  0  0
   44.5221   29.3944   49.2469 C   0  0  0  0  0  0  0  0  0  0  0  0
   44.7873   28.1959   48.6204 C   0  0  0  0  0  0  0  0  0  0  0  0
   45.4926   28.1856   47.8018 H   0  0  0  0  0  0  0  0  0  0  0  0
   44.1376   27.0701   49.0716 C   0  0  0  0  0  0  0  0  0  0  0  0
   44.3783   26.1400   48.5447 H   0  0  0  0  0  0  0  0  0  0  0  0
   43.2312   27.0341   50.1103 C   0  0  0  0  0  0  0  0  0  0  0  0
   42.7416   26.1243   50.4344 H   0  0  0  0  0  0  0  0  0  0  0  0
   42.9874   28.2675   50.7214 C   0  0  0  0  0  0  0  0  0  0  0  0
   41.8457   28.3389   52.0618 Cl  0  0  0  0  0  0  0  0  0  0  0  0
  1  6  2  0
  2  1  1  0
  3  2  2  0
  3  4  1  0
  4  5  2  0
  5  6  1  0
  5 15  1  0
  7  3  1  0
  8  7  1  0
  9  8  2  0
 10 12  1  0
 10  9  1  0
 11 10  2  0
 12 13  1  0
 13 14  2  0
 13  7  1  0
 15 16  1  0
 16 19  1  0
 17 18  2  0
 19 17  1  0
  1 20  1  0
  2 21  1  0
  8 22  1  0
  9 23  1  0
 12 24  1  0
 15 25  1  0
 15 26  1  0
 16 27  1  0
 16 28  1  0
 19 29  1  0
 30 31  1  0
 31 32  2  0
 32 33  1  0
 33 34  1  0
 33 35  2  0
 35 36  1  0
 35 37  1  0
 37 38  1  0
 37 39  2  0
 39 40  1  0
 39 31  1  0
 17 32  1  0
M  ISO  8  20  14  21  14  22  14  23  14  24   9  25   8  26   8  27   8
M  ISO  4  28   8  34  15  36  15  38  15
M  END
>  <DihAtoms>  (1) 
17,16,31,30

>  <DihDeg>  (1) 
118.68873674578766

$$$$
