
     RDKit          3D

 24 25  0  0  0  0  0  0  0  0999 V2000
   44.9138   35.1076   44.9444 C   0  0  0  0  0  0  0  0  0  0  0  0
   45.8110   34.7602   43.9482 C   0  0  0  0  0  0  0  0  0  0  0  0
   46.6719   33.6938   44.2158 C   0  0  0  0  0  0  0  0  0  0  0  0
   46.5971   33.0636   45.3995 N   0  0  0  0  0  0  0  0  0  0  0  0
   45.7087   33.4347   46.3409 C   0  0  0  0  0  0  0  0  0  0  0  0
   44.8693   34.4486   46.1228 N   0  0  0  0  0  0  0  0  0  0  0  0
   45.7877   35.5432   42.6870 C   0  0  0  0  0  0  0  0  0  0  0  0
   45.3527   36.8091   43.0375 F   0  0  0  0  0  0  0  0  0  0  0  0
   44.9225   34.9368   41.8183 F   0  0  0  0  0  0  0  0  0  0  0  0
   47.0821   35.5550   42.1634 F   0  0  0  0  0  0  0  0  0  0  0  0
   45.6293   32.7825   47.5703 O   0  0  0  0  0  0  0  0  0  0  0  0
   44.1984   35.9302   44.8277 H   0  0  0  0  0  0  0  0  0  0  0  0
   47.3705   33.4272   43.4335 H   0  0  0  0  0  0  0  0  0  0  0  0
   44.3690   35.4957   47.1258 Cl  0  0  0  0  0  0  0  0  0  0  0  0
   44.0855   34.3765   48.4427 C   0  0  0  0  0  0  0  0  0  0  0  0
   44.7144   33.1551   48.5559 C   0  0  0  0  0  0  0  0  0  0  0  0
   44.5389   32.2449   49.5492 C   0  0  0  0  0  0  0  0  0  0  0  0
   45.0633   31.2959   49.5868 H   0  0  0  0  0  0  0  0  0  0  0  0
   43.6312   32.5807   50.5548 C   0  0  0  0  0  0  0  0  0  0  0  0
   43.4287   31.9271   51.3758 H   0  0  0  0  0  0  0  0  0  0  0  0
   42.9490   33.7995   50.5189 C   0  0  0  0  0  0  0  0  0  0  0  0
   42.2551   34.0453   51.2966 H   0  0  0  0  0  0  0  0  0  0  0  0
   43.1875   34.6742   49.4658 C   0  0  0  0  0  0  0  0  0  0  0  0
   42.3548   36.2080   49.3841 Cl  0  0  0  0  0  0  0  0  0  0  0  0
  1  6  2  0
  2  3  2  0
  2  1  1  0
  3  4  1  0
  4  5  2  0
  5 11  1  0
  6  5  1  0
  7  8  1  0
  7  2  1  0
  9  7  1  0
 10  7  1  0
  1 12  1  0
  3 13  1  0
 14 15  1  0
 15 16  2  0
 16 17  1  0
 17 18  1  0
 17 19  2  0
 19 20  1  0
 19 21  1  0
 21 22  1  0
 21 23  2  0
 23 24  1  0
 23 15  1  0
 11 16  1  0
M  ISO  5  12  14  13  14  18  15  20  15  22  15
M  END
>  <DihAtoms>  (1) 
4,10,15,14

>  <DihDeg>  (1) 
-59.99990672632087

$$$$
