
     RDKit          3D

 38 40  0  0  0  0  0  0  0  0999 V2000
   44.5706   35.5907   44.7528 C   0  0  0  0  0  0  0  0  0  0  0  0
   45.1485   35.7374   43.4763 C   0  0  0  0  0  0  0  0  0  0  0  0
   46.1978   34.8774   43.1613 C   0  0  0  0  0  0  0  0  0  0  0  0
   46.6052   33.9676   44.0639 N   0  0  0  0  0  0  0  0  0  0  0  0
   46.0424   33.8448   45.2708 C   0  0  0  0  0  0  0  0  0  0  0  0
   45.0155   34.6649   45.6165 N   0  0  0  0  0  0  0  0  0  0  0  0
   45.4099   32.5487   47.3235 C   0  0  1  0  0  0  0  0  0  0  0  0
   46.4548   32.8764   46.3003 C   0  0  1  0  0  0  0  0  0  0  0  0
   46.5889   31.4736   45.6546 C   0  0  0  0  0  0  0  0  0  0  0  0
   46.3527   30.5655   46.6411 O   0  0  0  0  0  0  0  0  0  0  0  0
   45.9715   31.2170   47.8091 C   0  0  0  0  0  0  0  0  0  0  0  0
   45.2445   33.4875   48.2978 O   0  0  0  0  0  0  0  0  0  0  0  0
   46.7594   35.0285   41.9028 O   0  0  0  0  0  0  0  0  0  0  0  0
   48.5864   33.2491   41.1372 O   0  0  0  0  0  0  0  0  0  0  0  0
   48.4243   34.6762   41.6619 P   0  0  1  0  0  0  0  0  0  0  0  0
   49.0343   35.7912   40.5828 O   0  0  0  0  0  0  0  0  0  0  0  0
   49.1581   34.7805   43.1804 O   0  0  0  0  0  0  0  0  0  0  0  0
   43.7509   36.2262   45.0635 H   0  0  0  0  0  0  0  0  0  0  0  0
   44.7340   36.5062   42.8380 H   0  0  0  0  0  0  0  0  0  0  0  0
   44.4628   32.3185   46.7843 H   0  0  0  0  0  0  0  0  0  0  0  0
   47.4115   33.1363   46.7858 H   0  0  0  0  0  0  0  0  0  0  0  0
   47.6506   31.3956   45.3354 H   0  0  0  0  0  0  0  0  0  0  0  0
   45.9649   31.3973   44.7629 H   0  0  0  0  0  0  0  0  0  0  0  0
   46.8111   31.4288   48.4776 H   0  0  0  0  0  0  0  0  0  0  0  0
   45.1754   30.6011   48.2826 H   0  0  0  0  0  0  0  0  0  0  0  0
   44.2715   33.5151   48.5570 H   0  0  0  0  0  0  0  0  0  0  0  0
   48.7506   35.5234   39.6613 H   0  0  0  0  0  0  0  0  0  0  0  0
   48.4406   32.5602   44.9114 Cl  0  0  0  0  0  0  0  0  0  0  0  0
   50.0494   33.0698   44.4096 C   0  0  0  0  0  0  0  0  0  0  0  0
   50.3209   34.1533   43.5705 C   0  0  0  0  0  0  0  0  0  0  0  0
   51.6291   34.4508   43.2509 C   0  0  0  0  0  0  0  0  0  0  0  0
   51.7282   35.3060   42.5970 H   0  0  0  0  0  0  0  0  0  0  0  0
   52.6749   33.7209   43.7272 C   0  0  0  0  0  0  0  0  0  0  0  0
   53.6799   33.9786   43.4595 H   0  0  0  0  0  0  0  0  0  0  0  0
   52.3650   32.6584   44.5531 C   0  0  0  0  0  0  0  0  0  0  0  0
   53.1925   32.0679   44.9397 H   0  0  0  0  0  0  0  0  0  0  0  0
   51.0904   32.2938   44.9211 C   0  0  0  0  0  0  0  0  0  0  0  0
   50.8164   30.9248   45.9762 Cl  0  0  0  0  0  0  0  0  0  0  0  0
  1  6  2  0
  2  1  1  0
  3  2  2  0
  3  4  1  0
  4  5  2  0
  5  6  1  0
  7 11  1  0
  7 12  1  0
  8  5  1  0
  8  7  1  0
  9  8  1  0
  9 10  1  0
 10 11  1  0
 13  3  1  0
 14 15  2  0
 15 13  1  1
 15 17  1  0
 16 15  1  0
  1 18  1  0
  2 19  1  0
  7 20  1  6
  8 21  1  1
  9 22  1  0
  9 23  1  0
 11 24  1  0
 11 25  1  0
 12 26  1  0
 16 27  1  0
 28 29  1  0
 29 30  2  0
 30 31  1  0
 31 32  1  0
 31 33  2  0
 33 34  1  0
 33 35  1  0
 35 36  1  0
 35 37  2  0
 37 38  1  0
 37 29  1  0
 17 30  1  0
M  ISO  8  18  14  19  14  20  13  21  13  22  13  23  13  24  13  25  13
M  ISO  5  26   3  27   3  32  15  34  15  36  15
M  END
>  <DihAtoms>  (1) 
14,16,29,28

>  <DihDeg>  (1) 
179.998866098947

$$$$
