
     RDKit          3D

 40 43  0  0  0  0  0  0  0  0999 V2000
   46.3176   32.1361   44.5494 C   0  0  1  0  0  0  0  0  0  0  0  0
   46.4495   31.3576   43.3977 C   0  0  0  0  0  0  0  0  0  0  0  0
   47.6804   32.1281   43.9655 C   0  0  1  0  0  0  0  0  0  0  0  0
   45.0616   33.9693   43.1972 C   0  0  0  0  0  0  0  0  0  0  0  0
   45.5570   33.4641   44.4451 C   0  0  0  0  0  0  0  0  0  0  0  0
   45.3434   34.2330   45.5710 C   0  0  0  0  0  0  0  0  0  0  0  0
   44.6887   35.4087   45.4487 N   0  0  0  0  0  0  0  0  0  0  0  0
   44.2272   35.8737   44.2623 C   0  0  0  0  0  0  0  0  0  0  0  0
   44.4253   35.1196   43.0976 N   0  0  0  0  0  0  0  0  0  0  0  0
   48.0374   33.2500   43.1715 N   0  0  0  0  0  0  0  0  0  0  0  0
   49.1859   33.2891   42.3861 C   0  0  0  0  0  0  0  0  0  0  0  0
   50.3567   32.8941   42.6267 O   0  0  0  0  0  0  0  0  0  0  0  0
   49.1137   33.8840   40.9925 C   0  0  2  0  0  0  0  0  0  0  0  0
   48.6075   35.3697   40.8959 C   0  0  0  0  0  0  0  0  0  0  0  0
   47.8244   34.2132   40.3712 C   0  0  1  0  0  0  0  0  0  0  0  0
   47.7182   34.0610   38.8705 C   0  0  0  0  0  0  0  0  0  0  0  0
   48.4585   34.7136   38.1481 O   0  0  0  0  0  0  0  0  0  0  0  0
   46.1696   31.6980   45.5748 H   0  0  0  0  0  0  0  0  0  0  0  0
   46.4815   30.2289   43.5104 H   0  0  0  0  0  0  0  0  0  0  0  0
   46.1409   31.6114   42.3685 H   0  0  0  0  0  0  0  0  0  0  0  0
   48.4680   31.4065   44.2723 H   0  0  0  0  0  0  0  0  0  0  0  0
   45.2061   33.3648   42.3233 H   0  0  0  0  0  0  0  0  0  0  0  0
   45.6891   33.9105   46.5372 H   0  0  0  0  0  0  0  0  0  0  0  0
   43.7024   36.8174   44.1659 H   0  0  0  0  0  0  0  0  0  0  0  0
   47.4862   34.1337   43.1044 H   0  0  0  0  0  0  0  0  0  0  0  0
   49.9999   33.7664   40.3379 H   0  0  0  0  0  0  0  0  0  0  0  0
   48.2969   35.7913   41.8820 H   0  0  0  0  0  0  0  0  0  0  0  0
   49.0588   36.0199   40.1553 H   0  0  0  0  0  0  0  0  0  0  0  0
   46.9158   33.8491   40.8943 H   0  0  0  0  0  0  0  0  0  0  0  0
   45.0047   34.2429   40.0813 Cl  0  0  0  0  0  0  0  0  0  0  0  0
   45.4743   33.1806   38.7583 C   0  0  0  0  0  0  0  0  0  0  0  0
   46.7558   33.1557   38.2527 C   0  0  0  0  0  0  0  0  0  0  0  0
   46.9915   32.2800   37.2187 C   0  0  0  0  0  0  0  0  0  0  0  0
   47.9936   32.2607   36.8232 H   0  0  0  0  0  0  0  0  0  0  0  0
   46.0026   31.4652   36.7079 C   0  0  0  0  0  0  0  0  0  0  0  0
   46.3055   30.8050   35.8816 H   0  0  0  0  0  0  0  0  0  0  0  0
   44.7179   31.4854   37.2095 C   0  0  0  0  0  0  0  0  0  0  0  0
   43.9706   30.8360   36.7870 H   0  0  0  0  0  0  0  0  0  0  0  0
   44.4625   32.3575   38.2471 C   0  0  0  0  0  0  0  0  0  0  0  0
   42.8405   32.4089   38.9082 Cl  0  0  0  0  0  0  0  0  0  0  0  0
  2  3  1  0
  2  1  1  0
  3  1  1  0
  4  5  2  0
  5  1  1  0
  5  6  1  0
  7  6  2  0
  8  7  1  0
  9  4  1  0
  9  8  2  0
 10  3  1  0
 11 12  2  0
 11 10  1  0
 13 11  1  0
 14 13  1  0
 15 14  1  0
 15 13  1  0
 16 15  1  0
 17 16  2  0
  1 18  1  1
  2 19  1  0
  2 20  1  0
  3 21  1  1
  4 22  1  0
  6 23  1  0
  8 24  1  0
 10 25  1  0
 13 26  1  6
 14 27  1  0
 14 28  1  0
 15 29  1  1
 30 31  1  0
 31 32  2  0
 32 33  1  0
 33 34  1  0
 33 35  2  0
 35 36  1  0
 35 37  1  0
 37 38  1  0
 37 39  2  0
 39 40  1  0
 39 31  1  0
 16 32  1  0
M  ISO  8  18  13  19  13  20  13  21  13  22  14  23  14  24  14  26  13
M  ISO  6  27  13  28  13  29  13  34  15  36  15  38  15
M  END
>  <DihAtoms>  (1) 
14,15,31,30

>  <DihDeg>  (1) 
179.94476417539337

$$$$
