
     RDKit          3D

 45 48  0  0  0  0  0  0  0  0999 V2000
   47.9221   35.0109   41.9690 C   0  0  0  0  0  0  0  0  0  0  0  0
   48.2019   34.1258   40.8404 C   0  0  0  0  0  0  0  0  0  0  0  0
   48.1053   34.5481   39.5310 C   0  0  0  0  0  0  0  0  0  0  0  0
   48.3625   33.6962   38.4532 C   0  0  0  0  0  0  0  0  0  0  0  0
   48.7154   32.4187   38.7743 N   0  0  0  0  0  0  0  0  0  0  0  0
   48.8022   32.0346   40.0429 C   0  0  0  0  0  0  0  0  0  0  0  0
   48.5503   32.8737   41.0524 N   0  0  0  0  0  0  0  0  0  0  0  0
   49.1566   30.6216   40.4025 C   0  0  2  0  0  0  0  0  0  0  0  0
   49.6676   30.3128   41.7503 C   0  0  0  0  0  0  0  0  0  0  0  0
   50.6171   30.3121   40.5503 C   0  0  2  0  0  0  0  0  0  0  0  0
   51.8556   31.5774   40.5375 S   0  0  0  0  0  0  0  0  0  0  0  0
   46.4826   34.9212   42.3340 C   0  0  0  0  0  0  0  0  0  0  0  0
   44.5564   36.4089   44.0361 Cl  0  0  0  0  0  0  0  0  0  0  0  0
   45.3716   34.9699   44.5798 C   0  0  0  0  0  0  0  0  0  0  0  0
   46.2397   34.3689   43.6889 C   0  0  0  0  0  0  0  0  0  0  0  0
   46.8808   33.2373   44.0955 C   0  0  0  0  0  0  0  0  0  0  0  0
   46.6806   32.6959   45.3539 C   0  0  0  0  0  0  0  0  0  0  0  0
   45.7929   33.3258   46.2425 C   0  0  0  0  0  0  0  0  0  0  0  0
   45.1414   34.4825   45.8189 C   0  0  0  0  0  0  0  0  0  0  0  0
   44.2513   35.1598   46.6416 O   0  0  0  0  0  0  0  0  0  0  0  0
   48.2379   36.0312   41.6645 H   0  0  0  0  0  0  0  0  0  0  0  0
   48.5977   34.7438   42.8158 H   0  0  0  0  0  0  0  0  0  0  0  0
   47.8238   35.5655   39.2877 H   0  0  0  0  0  0  0  0  0  0  0  0
   48.2846   34.0344   37.4429 H   0  0  0  0  0  0  0  0  0  0  0  0
   48.6012   29.8340   39.8454 H   0  0  0  0  0  0  0  0  0  0  0  0
   49.7557   31.1336   42.4939 H   0  0  0  0  0  0  0  0  0  0  0  0
   49.4341   29.3476   42.2442 H   0  0  0  0  0  0  0  0  0  0  0  0
   50.9580   29.2965   40.2737 H   0  0  0  0  0  0  0  0  0  0  0  0
   52.6013   31.6676   41.7236 H   0  0  0  0  0  0  0  0  0  0  0  0
   45.8530   34.3826   41.5749 H   0  0  0  0  0  0  0  0  0  0  0  0
   46.0887   35.9590   42.3397 H   0  0  0  0  0  0  0  0  0  0  0  0
   47.5795   32.6366   43.5602 H   0  0  0  0  0  0  0  0  0  0  0  0
   47.1329   31.8141   45.7694 H   0  0  0  0  0  0  0  0  0  0  0  0
   45.6035   32.9401   47.2374 H   0  0  0  0  0  0  0  0  0  0  0  0
   46.7845   36.2710   45.4423 Cl  0  0  0  0  0  0  0  0  0  0  0  0
   45.6189   37.0737   46.4969 C   0  0  0  0  0  0  0  0  0  0  0  0
   44.4710   36.4783   47.0053 C   0  0  0  0  0  0  0  0  0  0  0  0
   43.6782   37.2656   47.8148 C   0  0  0  0  0  0  0  0  0  0  0  0
   42.7915   36.7935   48.2046 H   0  0  0  0  0  0  0  0  0  0  0  0
   43.9992   38.5679   48.1071 C   0  0  0  0  0  0  0  0  0  0  0  0
   43.2790   39.0785   48.7642 H   0  0  0  0  0  0  0  0  0  0  0  0
   45.1336   39.1638   47.6074 C   0  0  0  0  0  0  0  0  0  0  0  0
   45.3056   40.1911   47.8899 H   0  0  0  0  0  0  0  0  0  0  0  0
   45.9343   38.3896   46.7979 C   0  0  0  0  0  0  0  0  0  0  0  0
   47.3793   39.1912   46.1777 Cl  0  0  0  0  0  0  0  0  0  0  0  0
  1 12  1  0
  2  7  1  0
  2  1  1  0
  3  2  2  0
  4  5  2  0
  4  3  1  0
  5  6  1  0
  6  8  1  0
  6  7  2  0
  8 10  1  0
  8  9  1  0
 10 11  1  0
 10  9  1  0
 12 15  1  0
 13 14  1  0
 14 19  2  0
 15 16  2  0
 15 14  1  0
 16 17  1  0
 17 18  2  0
 19 18  1  0
 19 20  1  0
  1 21  1  0
  1 22  1  0
  3 23  1  0
  4 24  1  0
  8 25  1  6
  9 26  1  0
  9 27  1  0
 10 28  1  6
 11 29  1  0
 12 30  1  0
 12 31  1  0
 16 32  1  0
 17 33  1  0
 18 34  1  0
 35 36  1  0
 36 37  2  0
 37 38  1  0
 38 39  1  0
 38 40  2  0
 40 41  1  0
 40 42  1  0
 42 43  1  0
 42 44  2  0
 44 45  1  0
 44 36  1  0
 20 37  1  0
M  ISO  8  21   8  22   8  23  14  24  14  25  13  26  13  27  13  28  13
M  ISO  8  29  11  30   8  31   8  32  14  33  14  34  14  39  15  41  15
M  ISO  1  43  15
M  END
>  <DihAtoms>  (1) 
18,19,36,35

>  <DihDeg>  (1) 
-59.71324572363398

$$$$
