
     RDKit          3D

 42 45  0  0  0  0  0  0  0  0999 V2000
   46.2323   35.2142   42.7352 C   0  0  0  0  0  0  0  0  0  0  0  0
   46.8353   34.0368   43.1805 C   0  0  0  0  0  0  0  0  0  0  0  0
   46.4133   33.4857   44.3802 C   0  0  0  0  0  0  0  0  0  0  0  0
   45.4155   34.1144   45.0760 N   0  0  0  0  0  0  0  0  0  0  0  0
   44.8525   35.2422   44.6249 C   0  0  0  0  0  0  0  0  0  0  0  0
   45.2659   35.7814   43.4623 N   0  0  0  0  0  0  0  0  0  0  0  0
   46.9455   32.2825   44.9284 C   0  0  0  0  0  0  0  0  0  0  0  0
   47.6519   31.3175   44.2300 C   0  0  0  0  0  0  0  0  0  0  0  0
   48.0688   30.1257   44.7587 C   0  0  0  0  0  0  0  0  0  0  0  0
   47.7844   29.8228   46.0786 C   0  0  0  0  0  0  0  0  0  0  0  0
   47.0636   30.7982   46.8098 C   0  0  0  0  0  0  0  0  0  0  0  0
   46.7654   30.5025   48.1148 C   0  0  0  0  0  0  0  0  0  0  0  0
   46.0546   31.4081   48.8944 C   0  0  0  0  0  0  0  0  0  0  0  0
   45.6515   32.6222   48.3352 C   0  0  0  0  0  0  0  0  0  0  0  0
   45.9721   32.8949   46.9958 C   0  0  0  0  0  0  0  0  0  0  0  0
   46.6737   31.9705   46.2431 C   0  0  0  0  0  0  0  0  0  0  0  0
   47.8066   33.4931   42.3883 O   0  0  0  0  0  0  0  0  0  0  0  0
   50.3142   33.2861   41.6184 O   0  0  0  0  0  0  0  0  0  0  0  0
   49.2818   34.2793   42.0475 P   0  0  1  0  0  0  0  0  0  0  0  0
   49.0747   35.3745   40.7529 O   0  0  0  0  0  0  0  0  0  0  0  0
   49.7673   35.1144   43.3970 O   0  0  0  0  0  0  0  0  0  0  0  0
   46.5301   35.6968   41.7932 H   0  0  0  0  0  0  0  0  0  0  0  0
   44.0712   35.6823   45.2278 H   0  0  0  0  0  0  0  0  0  0  0  0
   47.9107   31.4549   43.2033 H   0  0  0  0  0  0  0  0  0  0  0  0
   48.6209   29.3870   44.1943 H   0  0  0  0  0  0  0  0  0  0  0  0
   48.1015   28.8898   46.5123 H   0  0  0  0  0  0  0  0  0  0  0  0
   47.1005   29.5375   48.5262 H   0  0  0  0  0  0  0  0  0  0  0  0
   45.8755   31.0618   49.9102 H   0  0  0  0  0  0  0  0  0  0  0  0
   45.1264   33.1825   49.0779 H   0  0  0  0  0  0  0  0  0  0  0  0
   45.5965   33.8554   46.8591 H   0  0  0  0  0  0  0  0  0  0  0  0
   48.8007   36.2700   41.0799 H   0  0  0  0  0  0  0  0  0  0  0  0
   49.6053   38.1183   44.1386 Cl  0  0  0  0  0  0  0  0  0  0  0  0
   51.0763   37.2116   43.8893 C   0  0  0  0  0  0  0  0  0  0  0  0
   50.8677   35.8939   43.5685 C   0  0  0  0  0  0  0  0  0  0  0  0
   52.0166   35.1263   43.3583 C   0  0  0  0  0  0  0  0  0  0  0  0
   52.0846   34.0744   43.0981 H   0  0  0  0  0  0  0  0  0  0  0  0
   53.3025   35.6635   43.4669 C   0  0  0  0  0  0  0  0  0  0  0  0
   54.2190   35.1297   43.3187 H   0  0  0  0  0  0  0  0  0  0  0  0
   53.4809   36.9930   43.7912 C   0  0  0  0  0  0  0  0  0  0  0  0
   54.4073   37.5208   43.9041 H   0  0  0  0  0  0  0  0  0  0  0  0
   52.3365   37.7563   44.0002 C   0  0  0  0  0  0  0  0  0  0  0  0
   52.3734   39.4423   44.4148 Cl  0  0  0  0  0  0  0  0  0  0  0  0
  1  2  2  0
  1  6  1  0
  2  3  1  0
  3  7  1  0
  3  4  2  0
  5  4  1  0
  6  5  2  0
  7 16  2  0
  8  9  2  0
  8  7  1  0
  9 10  1  0
 10 11  2  0
 11 12  1  0
 12 13  2  0
 14 13  1  0
 15 14  2  0
 16 11  1  0
 16 15  1  0
 17  2  1  0
 18 19  2  0
 19 17  1  1
 19 21  1  0
 20 19  1  0
  1 22  1  0
  5 23  1  0
  8 24  1  0
  9 25  1  0
 10 26  1  0
 12 27  1  0
 13 28  1  0
 14 29  1  0
 15 30  1  0
 20 31  1  0
 32 33  1  0
 33 34  2  0
 34 35  1  0
 35 36  1  0
 35 37  2  0
 37 38  1  0
 37 39  1  0
 39 40  1  0
 39 41  2  0
 41 42  1  0
 41 33  1  0
 21 34  1  0
M  ISO  8  22  14  23  14  24  14  25  14  26  14  27  14  28  14  29  14
M  ISO  5  30  14  31   3  36  15  38  15  40  15
M  END
>  <DihAtoms>  (1) 
18,20,33,32

>  <DihDeg>  (1) 
-0.052293992633264896

$$$$
