
     RDKit          3D

 41 43  0  0  0  0  0  0  0  0999 V2000
   46.3333   34.9243   41.8035 C   0  0  0  0  0  0  0  0  0  0  0  0
   44.4567   35.9698   44.8905 C   0  0  0  0  0  0  0  0  0  0  0  0
   44.9792   35.9607   43.5851 C   0  0  0  0  0  0  0  0  0  0  0  0
   45.7921   34.9310   43.1808 C   0  0  0  0  0  0  0  0  0  0  0  0
   46.0481   33.9660   44.0803 N   0  0  0  0  0  0  0  0  0  0  0  0
   45.5493   33.9748   45.3266 C   0  0  0  0  0  0  0  0  0  0  0  0
   44.7484   34.9759   45.7457 N   0  0  0  0  0  0  0  0  0  0  0  0
   47.8246   34.9027   41.8576 C   0  0  0  0  0  0  0  0  0  0  0  0
   48.3624   34.1922   40.7445 N   0  0  0  0  0  0  0  0  0  0  0  0
   49.2456   33.1310   41.0958 C   0  0  0  0  0  0  0  0  0  0  0  0
   49.1566   31.8605   40.3354 C   0  0  0  0  0  0  0  0  0  0  0  0
   48.6801   31.9956   38.9221 C   0  0  0  0  0  0  0  0  0  0  0  0
   48.4628   33.4212   38.5158 C   0  0  0  0  0  0  0  0  0  0  0  0
   47.5596   34.0213   39.6123 C   0  0  2  0  0  0  0  0  0  0  0  0
   45.8631   34.0311   41.3361 H   0  0  0  0  0  0  0  0  0  0  0  0
   45.9309   35.7948   41.2496 H   0  0  0  0  0  0  0  0  0  0  0  0
   43.8091   36.7989   45.1982 H   0  0  0  0  0  0  0  0  0  0  0  0
   44.7349   36.7760   42.8966 H   0  0  0  0  0  0  0  0  0  0  0  0
   45.7975   33.1570   46.0100 H   0  0  0  0  0  0  0  0  0  0  0  0
   48.2130   35.9356   41.8661 H   0  0  0  0  0  0  0  0  0  0  0  0
   48.2110   34.4573   42.8162 H   0  0  0  0  0  0  0  0  0  0  0  0
   49.1386   32.9257   42.1736 H   0  0  0  0  0  0  0  0  0  0  0  0
   50.2961   33.5227   40.9788 H   0  0  0  0  0  0  0  0  0  0  0  0
   50.1561   31.3468   40.4004 H   0  0  0  0  0  0  0  0  0  0  0  0
   48.4595   31.1423   40.8465 H   0  0  0  0  0  0  0  0  0  0  0  0
   47.7665   31.3837   38.6984 H   0  0  0  0  0  0  0  0  0  0  0  0
   49.4801   31.5791   38.2502 H   0  0  0  0  0  0  0  0  0  0  0  0
   47.9139   33.4020   37.5549 H   0  0  0  0  0  0  0  0  0  0  0  0
   49.4104   33.9691   38.4658 H   0  0  0  0  0  0  0  0  0  0  0  0
   46.7417   33.2802   39.6871 H   0  0  0  0  0  0  0  0  0  0  0  0
   45.3694   35.4948   41.1277 Cl  0  0  0  0  0  0  0  0  0  0  0  0
   46.1162   36.0907   39.6566 C   0  0  0  0  0  0  0  0  0  0  0  0
   47.1179   35.3132   39.0614 C   0  0  0  0  0  0  0  0  0  0  0  0
   47.6246   35.8846   37.9168 C   0  0  0  0  0  0  0  0  0  0  0  0
   48.3968   35.3830   37.3609 H   0  0  0  0  0  0  0  0  0  0  0  0
   47.2259   37.0855   37.3749 C   0  0  0  0  0  0  0  0  0  0  0  0
   47.6551   37.4916   36.4739 H   0  0  0  0  0  0  0  0  0  0  0  0
   46.2344   37.8020   38.0107 C   0  0  0  0  0  0  0  0  0  0  0  0
   45.8914   38.7385   37.6289 H   0  0  0  0  0  0  0  0  0  0  0  0
   45.6712   37.3005   39.1657 C   0  0  0  0  0  0  0  0  0  0  0  0
   44.4104   38.1958   39.9877 Cl  0  0  0  0  0  0  0  0  0  0  0  0
  1  8  1  0
  1  4  1  0
  2  7  2  0
  3  2  1  0
  4  3  2  0
  4  5  1  0
  5  6  2  0
  6  7  1  0
  9 10  1  0
  9  8  1  0
 11 10  1  0
 12 11  1  0
 13 12  1  0
 13 14  1  0
 14  9  1  0
  1 15  1  0
  1 16  1  0
  2 17  1  0
  3 18  1  0
  6 19  1  0
  8 20  1  0
  8 21  1  0
 10 22  1  0
 10 23  1  0
 11 24  1  0
 11 25  1  0
 12 26  1  0
 12 27  1  0
 13 28  1  0
 13 29  1  0
 14 30  1  1
 31 32  1  0
 32 33  2  0
 33 34  1  0
 34 35  1  0
 34 36  2  0
 36 37  1  0
 36 38  1  0
 38 39  1  0
 38 40  2  0
 40 41  1  0
 40 32  1  0
 14 33  1  0
M  ISO  8  15   8  16   8  17  14  18  14  19  14  20   8  21   8  22  13
M  ISO  8  23  13  24  13  25  13  26  13  27  13  28  13  29  13  30  13
M  ISO  3  35  15  37  15  39  15
M  END
>  <DihAtoms>  (1) 
12,13,32,31

>  <DihDeg>  (1) 
94.97695205599328

$$$$
