
     RDKit          3D

 48 52  0  0  1  0  0  0  0  0999 V2000
   46.5700   32.1890   45.6920 C   0  0  0  0  0  0  0  0  0  0  0  0
   46.7190   32.8020   44.4270 C   0  0  0  0  0  0  0  0  0  0  0  0
   47.5700   32.0810   43.6230 C   0  0  0  0  0  0  0  0  0  0  0  0
   48.2090   30.9270   43.9590 C   0  0  0  0  0  0  0  0  0  0  0  0
   48.0110   30.3900   45.2290 C   0  0  0  0  0  0  0  0  0  0  0  0
   47.1780   31.0340   46.1040 C   0  0  0  0  0  0  0  0  0  0  0  0
   48.7850   29.2470   45.2620 O   0  0  0  0  0  0  0  0  0  0  0  0
   49.4320   29.0490   44.0120 C   0  0  2  0  0  0  0  0  0  0  0  0
   49.0680   30.1690   43.1890 O   0  0  0  0  0  0  0  0  0  0  0  0
   45.0900   36.0430   43.5000 C   0  0  0  0  0  0  0  0  0  0  0  0
   45.8920   34.9180   43.2970 C   0  0  0  0  0  0  0  0  0  0  0  0
   46.0230   34.0050   44.2990 C   0  0  0  0  0  0  0  0  0  0  0  0
   45.3500   34.2530   45.4650 N   0  0  0  0  0  0  0  0  0  0  0  0
   44.5830   35.3330   45.6550 C   0  0  0  0  0  0  0  0  0  0  0  0
   44.4590   36.2070   44.6880 N   0  0  0  0  0  0  0  0  0  0  0  0
   46.5420   34.8100   42.0690 N   0  0  0  0  0  0  0  0  0  0  0  0
   47.8730   35.2850   41.8730 C   0  0  0  0  0  0  0  0  0  0  0  0
   48.4820   34.9360   40.5500 C   0  0  0  0  0  0  0  0  0  0  0  0
   48.1870   33.6460   40.0810 N   0  0  0  0  0  0  0  0  0  0  0  0
   46.8870   33.2070   40.2400 C   0  0  0  0  0  0  0  0  0  0  0  0
   46.0040   34.2480   40.8930 C   0  0  0  0  0  0  0  0  0  0  0  0
   48.9170   27.9110   43.4480 O   0  0  0  0  0  0  0  0  0  0  0  0
   45.7860   28.5120   43.1460 Cl  0  0  0  0  0  0  0  0  0  0  0  0
   46.5070   27.1350   43.9120 C   0  0  0  0  0  0  0  0  0  0  0  0
   47.8790   27.1670   43.8770 C   0  0  0  0  0  0  0  0  0  0  0  0
   48.4840   26.0520   44.4960 C   0  0  0  0  0  0  0  0  0  0  0  0
   47.7520   25.0100   45.0900 C   0  0  0  0  0  0  0  0  0  0  0  0
   46.3610   25.0620   45.0770 C   0  0  0  0  0  0  0  0  0  0  0  0
   45.7640   26.1350   44.4820 C   0  0  0  0  0  0  0  0  0  0  0  0
   44.0300   26.3420   44.3860 Cl  0  0  0  0  0  0  0  0  0  0  0  0
   45.9036   32.6864   46.4121 H   0  0  0  0  0  0  0  0  0  0  0  0
   47.7518   32.4742   42.6119 H   0  0  0  0  0  0  0  0  0  0  0  0
   47.0017   30.6332   47.1131 H   0  0  0  0  0  0  0  0  0  0  0  0
   50.5233   28.9599   44.1176 H   0  0  0  0  0  0  0  0  0  0  0  0
   44.9714   36.7904   42.7017 H   0  0  0  0  0  0  0  0  0  0  0  0
   44.0628   35.4847   46.6123 H   0  0  0  0  0  0  0  0  0  0  0  0
   47.8609   36.3811   41.9644 H   0  0  0  0  0  0  0  0  0  0  0  0
   48.4914   34.7895   42.6360 H   0  0  0  0  0  0  0  0  0  0  0  0
   48.1192   35.6605   39.8060 H   0  0  0  0  0  0  0  0  0  0  0  0
   49.5718   34.9673   40.6963 H   0  0  0  0  0  0  0  0  0  0  0  0
   48.8017   32.9857   40.5781 H   0  0  0  0  0  0  0  0  0  0  0  0
   46.4729   32.9624   39.2507 H   0  0  0  0  0  0  0  0  0  0  0  0
   46.9082   32.3247   40.8965 H   0  0  0  0  0  0  0  0  0  0  0  0
   45.8350   35.0592   40.1696 H   0  0  0  0  0  0  0  0  0  0  0  0
   45.0756   33.7353   41.1850 H   0  0  0  0  0  0  0  0  0  0  0  0
   49.5824   25.9961   44.5143 H   0  0  0  0  0  0  0  0  0  0  0  0
   48.2724   24.1625   45.5601 H   0  0  0  0  0  0  0  0  0  0  0  0
   45.7605   24.2612   45.5332 H   0  0  0  0  0  0  0  0  0  0  0  0
  1  6  2  0
  2  1  1  0
  3  4  1  0
  3  2  2  0
  4  5  2  0
  5  7  1  0
  5  6  1  0
  8  7  1  0
  9  4  1  0
  9  8  1  0
 10 15  2  0
 11 10  1  0
 11 12  2  0
 12  2  1  0
 12 13  1  0
 13 14  2  0
 15 14  1  0
 16 11  1  0
 17 16  1  0
 18 17  1  0
 19 20  1  0
 19 18  1  0
 20 21  1  0
 21 16  1  0
 22 25  1  0
 22  8  1  0
 23 24  1  0
 24 29  2  0
 25 24  1  0
 25 26  2  0
 26 27  1  0
 28 27  2  0
 29 28  1  0
 30 29  1  0
  1 31  1  0
  3 32  1  0
  6 33  1  0
  8 34  1  1
 10 35  1  0
 14 36  1  0
 17 37  1  0
 17 38  1  0
 18 39  1  0
 18 40  1  0
 19 41  1  0
 20 42  1  0
 20 43  1  0
 21 44  1  0
 21 45  1  0
 26 46  1  0
 27 47  1  0
 28 48  1  0
M  ISO  8  31  14  32  14  33  14  34  13  35  14  36  14  37  13  38  13
M  ISO  8  39  13  40  13  41   5  42  13  43  13  44  13  45  13  46  14
M  ISO  2  47  14  48  14
M  END
>  <minimizedAffinity>  (1) 
-4.88083315

>  <minimizedRMSD>  (1) 
2.94246602

$$$$
