
     RDKit          3D

 42 44  0  0  0  0  0  0  0  0999 V2000
   46.1850   32.0905   45.4350 C   0  0  0  0  0  0  0  0  0  0  0  0
   45.7637   32.0338   49.1335 C   0  0  0  0  0  0  0  0  0  0  0  0
   46.0528   32.5002   47.8461 C   0  0  0  0  0  0  0  0  0  0  0  0
   45.8805   31.6073   46.7850 C   0  0  0  0  0  0  0  0  0  0  0  0
   45.4439   30.3397   47.0545 N   0  0  0  0  0  0  0  0  0  0  0  0
   45.1753   29.9281   48.3165 C   0  0  0  0  0  0  0  0  0  0  0  0
   45.3376   30.7750   49.3337 N   0  0  0  0  0  0  0  0  0  0  0  0
   46.5406   33.4044   45.4111 O   0  0  0  0  0  0  0  0  0  0  0  0
   44.6294   35.1669   45.2491 O   0  0  0  0  0  0  0  0  0  0  0  0
   45.4528   34.2349   44.4217 P   0  0  2  0  0  0  0  0  0  0  0  0
   44.5210   33.0572   43.6753 O   0  0  0  0  0  0  0  0  0  0  0  0
   46.3556   35.1240   43.3080 O   0  0  0  0  0  0  0  0  0  0  0  0
   47.1034   34.2537   42.5459 C   0  0  1  0  0  0  0  0  0  0  0  0
   46.9633   34.4847   41.0515 C   0  0  0  0  0  0  0  0  0  0  0  0
   48.1039   33.6750   40.5004 C   0  0  0  0  0  0  0  0  0  0  0  0
   49.1675   33.6624   41.5933 C   0  0  0  0  0  0  0  0  0  0  0  0
   48.5968   34.5162   42.7025 C   0  0  2  0  0  0  0  0  0  0  0  0
   45.4000   31.7459   44.7684 H   0  0  0  0  0  0  0  0  0  0  0  0
   47.0992   31.5023   45.1191 H   0  0  0  0  0  0  0  0  0  0  0  0
   45.8845   32.6964   49.9861 H   0  0  0  0  0  0  0  0  0  0  0  0
   46.3969   33.5197   47.6939 H   0  0  0  0  0  0  0  0  0  0  0  0
   44.8428   28.8994   48.3341 H   0  0  0  0  0  0  0  0  0  0  0  0
   43.5725   33.2066   43.8465 H   0  0  0  0  0  0  0  0  0  0  0  0
   46.9499   33.1840   42.7706 H   0  0  0  0  0  0  0  0  0  0  0  0
   46.9989   35.5524   40.8094 H   0  0  0  0  0  0  0  0  0  0  0  0
   45.9624   34.0396   40.7786 H   0  0  0  0  0  0  0  0  0  0  0  0
   47.7302   32.6173   40.4114 H   0  0  0  0  0  0  0  0  0  0  0  0
   48.4853   34.0182   39.5389 H   0  0  0  0  0  0  0  0  0  0  0  0
   50.0400   34.2333   41.1576 H   0  0  0  0  0  0  0  0  0  0  0  0
   49.4730   32.6624   41.8663 H   0  0  0  0  0  0  0  0  0  0  0  0
   48.8179   35.6005   42.5200 H   0  0  0  0  0  0  0  0  0  0  0  0
   50.9422   32.7926   42.2847 Cl  0  0  0  0  0  0  0  0  0  0  0  0
   50.2727   33.2347   43.8580 C   0  0  0  0  0  0  0  0  0  0  0  0
   49.1474   34.0630   43.9902 C   0  0  0  0  0  0  0  0  0  0  0  0
   48.7784   34.2924   45.2908 C   0  0  0  0  0  0  0  0  0  0  0  0
   47.9204   34.9312   45.4163 H   0  0  0  0  0  0  0  0  0  0  0  0
   49.4423   33.7645   46.3750 C   0  0  0  0  0  0  0  0  0  0  0  0
   49.0371   34.0315   47.3461 H   0  0  0  0  0  0  0  0  0  0  0  0
   50.5451   32.9534   46.2158 C   0  0  0  0  0  0  0  0  0  0  0  0
   50.9711   32.6068   47.1435 H   0  0  0  0  0  0  0  0  0  0  0  0
   50.9541   32.6945   44.9267 C   0  0  0  0  0  0  0  0  0  0  0  0
   52.3564   31.6625   44.7574 Cl  0  0  0  0  0  0  0  0  0  0  0  0
  1  4  1  0
  2  7  2  0
  3  2  1  0
  4  5  1  0
  4  3  2  0
  5  6  2  0
  6  7  1  0
  8  1  1  0
 10  9  2  0
 10  8  1  1
 11 10  1  0
 12 10  1  0
 13 17  1  0
 13 12  1  0
 14 13  1  0
 15 14  1  0
 15 16  1  0
 16 17  1  0
  1 18  1  0
  1 19  1  0
  2 20  1  0
  3 21  1  0
  6 22  1  0
 11 23  1  0
 13 24  1  6
 14 25  1  0
 14 26  1  0
 15 27  1  0
 15 28  1  0
 16 29  1  0
 16 30  1  0
 17 31  1  6
 32 33  1  0
 33 34  2  0
 34 35  1  0
 35 36  1  0
 35 37  2  0
 37 38  1  0
 37 39  1  0
 39 40  1  0
 39 41  2  0
 41 42  1  0
 41 33  1  0
 17 34  1  0
M  ISO  8  18   8  19   8  20  14  21  14  22  14  23   3  24  13  25  13
M  ISO  8  26  13  27  13  28  13  29  13  30  13  31  13  36  15  38  15
M  ISO  1  40  15
M  END
>  <DihAtoms>  (1) 
12,16,33,32

>  <DihDeg>  (1) 
-97.28956311552147

$$$$
