
     RDKit          3D

 47 51  0  0  0  0  0  0  0  0999 V2000
   47.5281   32.6749   44.2739 C   0  0  0  0  0  0  0  0  0  0  0  0
   46.8386   33.6445   43.5512 C   0  0  0  0  0  0  0  0  0  0  0  0
   45.7796   34.3701   44.0881 C   0  0  0  0  0  0  0  0  0  0  0  0
   45.3918   34.1112   45.4161 C   0  0  0  0  0  0  0  0  0  0  0  0
   44.4502   34.5942   46.2432 N   0  0  0  0  0  0  0  0  0  0  0  0
   44.5296   33.9660   47.4405 C   0  0  0  0  0  0  0  0  0  0  0  0
   45.5352   33.0967   47.3194 N   0  0  0  0  0  0  0  0  0  0  0  0
   46.0862   33.1547   46.1006 C   0  0  0  0  0  0  0  0  0  0  0  0
   47.1470   32.4159   45.5888 C   0  0  0  0  0  0  0  0  0  0  0  0
   47.0682   33.4261   39.9064 C   0  0  0  0  0  0  0  0  0  0  0  0
   47.9754   34.4395   39.5902 C   0  0  0  0  0  0  0  0  0  0  0  0
   48.5025   35.1920   40.6354 C   0  0  0  0  0  0  0  0  0  0  0  0
   48.1177   34.9166   41.9292 N   0  0  0  0  0  0  0  0  0  0  0  0
   47.2326   33.9197   42.1759 C   0  0  0  0  0  0  0  0  0  0  0  0
   46.6917   33.1596   41.1942 N   0  0  0  0  0  0  0  0  0  0  0  0
   44.9113   35.5978   43.1636 S   0  0  0  0  0  0  0  0  0  0  0  0
   42.3317   35.6247   42.6941 N   0  0  0  0  0  0  0  0  0  0  0  0
   43.5204   34.9449   42.2159 C   0  0  1  0  0  0  0  0  0  0  0  0
   43.8033   35.3024   40.7552 C   0  0  0  0  0  0  0  0  0  0  0  0
   42.6748   35.3064   39.9622 O   0  0  0  0  0  0  0  0  0  0  0  0
   41.5448   34.7659   40.5272 C   0  0  0  0  0  0  0  0  0  0  0  0
   41.2232   35.5082   41.7958 C   0  0  2  0  0  0  0  0  0  0  0  0
   48.3479   32.1164   43.8514 H   0  0  0  0  0  0  0  0  0  0  0  0
   43.8010   35.3508   45.8999 H   0  0  0  0  0  0  0  0  0  0  0  0
   43.8343   34.2436   48.2218 H   0  0  0  0  0  0  0  0  0  0  0  0
   47.6621   31.6676   46.1802 H   0  0  0  0  0  0  0  0  0  0  0  0
   46.6898   32.8735   39.0634 H   0  0  0  0  0  0  0  0  0  0  0  0
   48.2539   34.6266   38.5618 H   0  0  0  0  0  0  0  0  0  0  0  0
   49.2097   35.9904   40.4524 H   0  0  0  0  0  0  0  0  0  0  0  0
   42.5327   36.6217   42.9192 H   0  0  0  0  0  0  0  0  0  0  0  0
   43.4664   33.8637   42.3552 H   0  0  0  0  0  0  0  0  0  0  0  0
   44.3125   36.2934   40.7296 H   0  0  0  0  0  0  0  0  0  0  0  0
   44.4388   34.5361   40.3173 H   0  0  0  0  0  0  0  0  0  0  0  0
   40.7179   34.8911   39.8310 H   0  0  0  0  0  0  0  0  0  0  0  0
   41.7035   33.6928   40.7559 H   0  0  0  0  0  0  0  0  0  0  0  0
   40.4762   34.8494   42.3295 H   0  0  0  0  0  0  0  0  0  0  0  0
   42.2435   37.8322   43.3733 Cl  0  0  0  0  0  0  0  0  0  0  0  0
   40.9027   37.9580   42.2301 C   0  0  0  0  0  0  0  0  0  0  0  0
   40.5246   36.7932   41.5567 C   0  0  0  0  0  0  0  0  0  0  0  0
   39.4721   36.8631   40.6509 C   0  0  0  0  0  0  0  0  0  0  0  0
   39.1267   36.0071   40.0965 H   0  0  0  0  0  0  0  0  0  0  0  0
   38.8017   38.0642   40.4120 C   0  0  0  0  0  0  0  0  0  0  0  0
   37.9852   38.1334   39.7135 H   0  0  0  0  0  0  0  0  0  0  0  0
   39.2211   39.1965   41.1122 C   0  0  0  0  0  0  0  0  0  0  0  0
   38.7471   40.1642   40.9779 H   0  0  0  0  0  0  0  0  0  0  0  0
   40.2623   39.1622   42.0185 C   0  0  0  0  0  0  0  0  0  0  0  0
   40.7848   40.5831   42.8940 Cl  0  0  0  0  0  0  0  0  0  0  0  0
  1  9  2  0
  2  3  2  0
  2  1  1  0
  3  4  1  0
  4  8  2  0
  4  5  1  0
  5  6  1  0
  7  6  2  0
  8  7  1  0
  9  8  1  0
 10 15  2  0
 11 10  1  0
 11 12  2  0
 12 13  1  0
 13 14  2  0
 14  2  1  0
 15 14  1  0
 16  3  1  0
 18 17  1  0
 18 16  1  0
 19 18  1  0
 20 21  1  0
 20 19  1  0
 21 22  1  0
 22 17  1  0
  1 23  1  0
  5 24  1  0
  6 25  1  0
  9 26  1  0
 10 27  1  0
 11 28  1  0
 12 29  1  0
 17 30  1  0
 18 31  1  6
 19 32  1  0
 19 33  1  0
 21 34  1  0
 21 35  1  0
 22 36  1  1
 37 38  1  0
 38 39  2  0
 39 40  1  0
 40 41  1  0
 40 42  2  0
 42 43  1  0
 42 44  1  0
 44 45  1  0
 44 46  2  0
 46 47  1  0
 46 38  1  0
 22 39  1  0
M  ISO  8  23  14  24   9  25  14  26  14  27  14  28  14  29  14  30   5
M  ISO  8  31  13  32  13  33  13  34  13  35  13  36  13  41  15  43  15
M  ISO  1  45  15
M  END
>  <DihAtoms>  (1) 
20,21,38,37

>  <DihDeg>  (1) 
90.00015819900138

$$$$
