
     RDKit          3D

 35 37  0  0  1  0  0  0  0  0999 V2000
   46.7310   34.5330   42.3110 N   0  0  0  0  0  0  0  0  0  0  0  0
   48.1890   34.5180   42.3180 C   0  0  0  0  0  0  0  0  0  0  0  0
   48.5920   35.2930   41.0450 C   0  0  0  0  0  0  0  0  0  0  0  0
   48.1680   34.5360   39.8310 C   0  0  0  0  0  0  0  0  0  0  0  0
   46.8290   33.9040   39.9380 C   0  0  0  0  0  0  0  0  0  0  0  0
   45.9990   34.3090   41.1030 C   0  0  1  0  0  0  0  0  0  0  0  0
   43.2410   35.3900   40.6820 Cl  0  0  0  0  0  0  0  0  0  0  0  0
   43.5650   33.7170   41.0510 C   0  0  0  0  0  0  0  0  0  0  0  0
   44.8870   33.3370   41.2240 C   0  0  0  0  0  0  0  0  0  0  0  0
   45.0980   32.0060   41.5150 C   0  0  0  0  0  0  0  0  0  0  0  0
   44.0600   31.0860   41.6310 C   0  0  0  0  0  0  0  0  0  0  0  0
   42.7520   31.5430   41.4440 C   0  0  0  0  0  0  0  0  0  0  0  0
   42.4910   32.8590   41.1520 C   0  0  0  0  0  0  0  0  0  0  0  0
   40.8420   33.4160   40.9190 Cl  0  0  0  0  0  0  0  0  0  0  0  0
   44.4670   36.0540   44.8660 C   0  0  0  0  0  0  0  0  0  0  0  0
   45.1590   35.8820   43.6700 C   0  0  0  0  0  0  0  0  0  0  0  0
   45.9960   34.7710   43.5000 C   0  0  0  0  0  0  0  0  0  0  0  0
   46.0830   33.9040   44.5430 N   0  0  0  0  0  0  0  0  0  0  0  0
   45.4020   34.0860   45.7020 C   0  0  0  0  0  0  0  0  0  0  0  0
   44.5970   35.1570   45.8610 N   0  0  0  0  0  0  0  0  0  0  0  0
   48.5783   35.0184   43.2169 H   0  0  0  0  0  0  0  0  0  0  0  0
   48.5958   33.4961   42.3308 H   0  0  0  0  0  0  0  0  0  0  0  0
   48.1037   36.2787   41.0487 H   0  0  0  0  0  0  0  0  0  0  0  0
   49.6847   35.4181   41.0292 H   0  0  0  0  0  0  0  0  0  0  0  0
   48.9081   33.7440   39.6437 H   0  0  0  0  0  0  0  0  0  0  0  0
   48.1050   35.2672   39.0116 H   0  0  0  0  0  0  0  0  0  0  0  0
   46.2679   34.1517   39.0249 H   0  0  0  0  0  0  0  0  0  0  0  0
   47.0226   32.8300   40.0759 H   0  0  0  0  0  0  0  0  0  0  0  0
   45.5840   35.3107   40.9178 H   0  0  0  0  0  0  0  0  0  0  0  0
   46.1305   31.6563   41.6617 H   0  0  0  0  0  0  0  0  0  0  0  0
   44.2629   30.0301   41.8631 H   0  0  0  0  0  0  0  0  0  0  0  0
   41.9154   30.8342   41.5326 H   0  0  0  0  0  0  0  0  0  0  0  0
   43.8110   36.9270   44.9982 H   0  0  0  0  0  0  0  0  0  0  0  0
   45.0488   36.6174   42.8595 H   0  0  0  0  0  0  0  0  0  0  0  0
   45.5068   33.3555   46.5177 H   0  0  0  0  0  0  0  0  0  0  0  0
  1  2  1  0
  1 17  1  0
  3  2  1  0
  4  5  1  0
  4  3  1  0
  5  6  1  0
  6  9  1  0
  6  1  1  0
  7  8  1  0
  8 13  2  0
  8  9  1  0
  9 10  2  0
 10 11  1  0
 12 11  2  0
 13 12  1  0
 14 13  1  0
 15 20  2  0
 16 15  1  0
 17 16  2  0
 17 18  1  0
 18 19  2  0
 19 20  1  0
  2 21  1  0
  2 22  1  0
  3 23  1  0
  3 24  1  0
  4 25  1  0
  4 26  1  0
  5 27  1  0
  5 28  1  0
  6 29  1  6
 10 30  1  0
 11 31  1  0
 12 32  1  0
 15 33  1  0
 16 34  1  0
 19 35  1  0
M  ISO  8  21  13  22  13  23  13  24  13  25  13  26  13  27  13  28  13
M  ISO  7  29  13  30  14  31  14  32  14  33  14  34  14  35  14
M  END
>  <minimizedAffinity>  (1) 
-5.76996374

>  <minimizedRMSD>  (1) 
1.30924439

$$$$
