
     RDKit          3D

 37 40  0  0  0  0  0  0  0  0999 V2000
   44.6332   35.1316   44.2159 C   0  0  0  0  0  0  0  0  0  0  0  0
   44.7651   34.1069   43.2699 C   0  0  0  0  0  0  0  0  0  0  0  0
   45.3304   32.9184   43.6920 C   0  0  0  0  0  0  0  0  0  0  0  0
   45.7443   32.7474   44.9768 N   0  0  0  0  0  0  0  0  0  0  0  0
   45.5987   33.7718   45.8721 C   0  0  0  0  0  0  0  0  0  0  0  0
   45.0488   34.9389   45.4781 N   0  0  0  0  0  0  0  0  0  0  0  0
   44.3053   34.3952   41.9659 N   0  0  0  0  0  0  0  0  0  0  0  0
   44.4771   33.4294   40.9500 C   0  0  1  0  0  0  0  0  0  0  0  0
   43.7816   33.7019   39.6670 C   0  0  0  0  0  0  0  0  0  0  0  0
   42.5565   34.3807   39.7319 N   0  0  0  0  0  0  0  0  0  0  0  0
   42.3765   35.3243   40.7597 C   0  0  0  0  0  0  0  0  0  0  0  0
   43.6617   35.5935   41.5188 C   0  0  0  0  0  0  0  0  0  0  0  0
   44.2268   36.1228   44.0983 H   0  0  0  0  0  0  0  0  0  0  0  0
   45.4313   32.1228   42.9766 H   0  0  0  0  0  0  0  0  0  0  0  0
   45.9348   33.6143   46.8896 H   0  0  0  0  0  0  0  0  0  0  0  0
   44.0988   32.4432   41.3415 H   0  0  0  0  0  0  0  0  0  0  0  0
   43.6737   32.7606   39.0904 H   0  0  0  0  0  0  0  0  0  0  0  0
   44.4794   34.3336   39.0414 H   0  0  0  0  0  0  0  0  0  0  0  0
   41.7890   33.6527   39.8444 H   0  0  0  0  0  0  0  0  0  0  0  0
   41.5763   35.1147   41.4909 H   0  0  0  0  0  0  0  0  0  0  0  0
   42.1065   36.2987   40.2787 H   0  0  0  0  0  0  0  0  0  0  0  0
   44.3643   36.1667   40.8457 H   0  0  0  0  0  0  0  0  0  0  0  0
   43.3770   36.3095   42.3114 H   0  0  0  0  0  0  0  0  0  0  0  0
   46.5993   32.0451   40.9160 C   0  0  0  0  0  0  0  0  0  0  0  0
   45.9230   33.2000   40.5961 C   0  0  0  0  0  0  0  0  0  0  0  0
   46.7062   34.1467   39.9265 C   0  0  0  0  0  0  0  0  0  0  0  0
   46.2362   35.0814   39.6440 H   0  0  0  0  0  0  0  0  0  0  0  0
   48.0317   33.9574   39.6090 C   0  0  0  0  0  0  0  0  0  0  0  0
   48.6382   32.7730   39.9636 C   0  0  0  0  0  0  0  0  0  0  0  0
   47.9155   31.8022   40.6257 C   0  0  0  0  0  0  0  0  0  0  0  0
   49.9676   32.8620   39.5181 O   0  0  0  0  0  0  0  0  0  0  0  0
   50.2616   34.2143   39.1955 C   0  0  1  0  0  0  0  0  0  0  0  0
   50.7732   34.6650   40.0707 H   0  0  0  0  0  0  0  0  0  0  0  0
   48.9707   34.7449   38.9643 O   0  0  0  0  0  0  0  0  0  0  0  0
   46.1004   31.2532   41.4277 H   0  0  0  0  0  0  0  0  0  0  0  0
   48.4119   30.8795   40.8947 H   0  0  0  0  0  0  0  0  0  0  0  0
   50.8926   34.2210   38.2968 H   0  0  0  0  0  0  0  0  0  0  0  0
  1  6  2  0
  2  3  2  0
  2  1  1  0
  3  4  1  0
  4  5  2  0
  6  5  1  0
  7  2  1  0
  8  7  1  0
  9 10  1  0
  9  8  1  0
 10 11  1  0
 11 12  1  0
 12  7  1  0
  1 13  1  0
  3 14  1  0
  5 15  1  0
  8 16  1  1
  9 17  1  0
  9 18  1  0
 10 19  1  0
 11 20  1  0
 11 21  1  0
 12 22  1  0
 12 23  1  0
 24 25  2  0
 25 26  1  0
 26 27  1  0
 26 28  2  0
 28 29  1  0
 29 30  2  0
 29 31  1  0
 31 32  1  0
 32 33  1  1
 32 34  1  0
 30 24  1  0
 34 28  1  0
 24 35  1  0
 30 36  1  0
 32 37  1  0
  8 25  1  0
M  ISO  8  13  14  14  14  15  14  16  13  17  13  18  13  19   5  20  13
M  ISO  5  21  13  22  13  23  13  27  16  33   8
M  END
>  <DihAtoms>  (1) 
6,7,24,23

>  <DihDeg>  (1) 
-40.792955505028594

$$$$
