
     RDKit          3D

 33 36  0  0  0  0  0  0  0  0999 V2000
   45.7130   34.1440   41.1360 C   0  0  0  0  0  0  0  0  0  0  0  0
   46.3570   34.7540   42.2060 C   0  0  0  0  0  0  0  0  0  0  0  0
   47.7130   35.0510   42.0250 C   0  0  0  0  0  0  0  0  0  0  0  0
   48.3080   34.7300   40.8320 N   0  0  0  0  0  0  0  0  0  0  0  0
   47.6400   34.1470   39.8450 C   0  0  0  0  0  0  0  0  0  0  0  0
   46.3400   33.8460   39.9760 N   0  0  0  0  0  0  0  0  0  0  0  0
   45.6310   35.0480   43.4230 C   0  0  0  0  0  0  0  0  0  0  0  0
   45.0290   36.2590   43.6690 C   0  0  0  0  0  0  0  0  0  0  0  0
   44.4700   36.0950   44.9190 C   0  0  0  0  0  0  0  0  0  0  0  0
   44.7180   34.8570   45.4040 N   0  0  0  0  0  0  0  0  0  0  0  0
   45.4220   34.2420   44.4810 N   0  0  0  0  0  0  0  0  0  0  0  0
   44.3710   33.8340   41.2720 O   0  0  0  0  0  0  0  0  0  0  0  0
   43.3030   34.6020   40.9030 C   0  0  0  0  0  0  0  0  0  0  0  0
   43.3180   35.8440   40.5700 O   0  0  0  0  0  0  0  0  0  0  0  0
   40.8350   34.8280   40.3660 C   0  0  0  0  0  0  0  0  0  0  0  0
   41.9060   34.0780   40.8380 C   0  0  0  0  0  0  0  0  0  0  0  0
   41.5360   32.8150   41.2340 C   0  0  0  0  0  0  0  0  0  0  0  0
   40.2600   32.3240   41.1810 C   0  0  0  0  0  0  0  0  0  0  0  0
   39.2640   33.1390   40.6980 C   0  0  0  0  0  0  0  0  0  0  0  0
   39.5260   34.4170   40.2770 C   0  0  0  0  0  0  0  0  0  0  0  0
   38.0940   32.4050   40.7530 O   0  0  0  0  0  0  0  0  0  0  0  0
   38.3250   31.1150   41.3020 C   0  0  0  0  0  0  0  0  0  0  0  0
   39.7160   31.0960   41.5320 O   0  0  0  0  0  0  0  0  0  0  0  0
   48.2915   35.5338   42.8264 H   0  0  0  0  0  0  0  0  0  0  0  0
   48.1601   33.9072   38.9059 H   0  0  0  0  0  0  0  0  0  0  0  0
   45.0000   37.1482   43.0221 H   0  0  0  0  0  0  0  0  0  0  0  0
   43.8978   36.8690   45.4514 H   0  0  0  0  0  0  0  0  0  0  0  0
   44.4165   34.4746   46.3116 H   0  0  0  0  0  0  0  0  0  0  0  0
   41.0568   35.8518   40.0304 H   0  0  0  0  0  0  0  0  0  0  0  0
   42.3226   32.1509   41.6216 H   0  0  0  0  0  0  0  0  0  0  0  0
   38.7345   35.0758   39.8902 H   0  0  0  0  0  0  0  0  0  0  0  0
   37.7697   30.9833   42.2424 H   0  0  0  0  0  0  0  0  0  0  0  0
   37.9904   30.3028   40.6398 H   0  0  0  0  0  0  0  0  0  0  0  0
  1 12  1  0
  1  2  1  0
  2  7  1  0
  3  2  2  0
  4  3  1  0
  5  6  1  0
  5  4  2  0
  6  1  2  0
  7  8  1  0
  7 11  2  0
  8  9  2  0
  9 10  1  0
 11 10  1  0
 13 12  1  0
 14 13  2  0
 15 16  2  0
 16 13  1  0
 16 17  1  0
 18 17  2  0
 18 23  1  0
 19 21  1  0
 19 18  1  0
 20 15  1  0
 20 19  2  0
 21 22  1  0
 22 23  1  0
  3 24  1  0
  5 25  1  0
  8 26  1  0
  9 27  1  0
 10 28  1  0
 15 29  1  0
 17 30  1  0
 20 31  1  0
 22 32  1  0
 22 33  1  0
M  ISO  8  24  14  25  14  26  14  27  14  28   9  29  14  30  14  31  14
M  ISO  2  32  13  33  13
M  END
>  <minimizedAffinity>  (1) 
-6.12337446

>  <minimizedRMSD>  (1) 
1.99593163

$$$$
