
     RDKit          3D

 33 36  0  0  0  0  0  0  0  0999 V2000
   44.3920   33.3390   41.1690 Br  0  0  0  0  0  0  0  0  0  0  0  0
   46.1500   34.0940   41.0070 C   0  0  0  0  0  0  0  0  0  0  0  0
   46.7790   34.7650   42.0420 C   0  0  0  0  0  0  0  0  0  0  0  0
   48.0410   35.2610   41.8230 C   0  0  0  0  0  0  0  0  0  0  0  0
   48.7010   35.1160   40.6200 C   0  0  0  0  0  0  0  0  0  0  0  0
   48.0780   34.4460   39.5760 C   0  0  0  0  0  0  0  0  0  0  0  0
   46.8030   33.9460   39.8010 C   0  0  0  0  0  0  0  0  0  0  0  0
   45.0460   32.5510   38.8060 C   0  0  0  0  0  0  0  0  0  0  0  0
   46.2420   33.2610   38.6390 C   0  0  0  0  0  0  0  0  0  0  0  0
   46.7570   33.2240   37.3600 C   0  0  0  0  0  0  0  0  0  0  0  0
   46.1240   32.5370   36.3560 C   0  0  0  0  0  0  0  0  0  0  0  0
   44.9590   31.8530   36.5470 C   0  0  0  0  0  0  0  0  0  0  0  0
   44.4100   31.8600   37.7950 C   0  0  0  0  0  0  0  0  0  0  0  0
   44.5510   31.2580   35.3600 O   0  0  0  0  0  0  0  0  0  0  0  0
   45.5730   31.5150   34.4010 C   0  0  0  0  0  0  0  0  0  0  0  0
   46.4880   32.3860   35.0140 O   0  0  0  0  0  0  0  0  0  0  0  0
   44.4730   36.0660   44.7550 C   0  0  0  0  0  0  0  0  0  0  0  0
   45.1740   35.9620   43.5460 C   0  0  0  0  0  0  0  0  0  0  0  0
   46.0440   34.8910   43.2870 C   0  0  0  0  0  0  0  0  0  0  0  0
   46.1430   33.9860   44.2890 N   0  0  0  0  0  0  0  0  0  0  0  0
   45.4670   34.0940   45.4480 C   0  0  0  0  0  0  0  0  0  0  0  0
   44.6410   35.1200   45.6820 N   0  0  0  0  0  0  0  0  0  0  0  0
   48.5464   35.7960   42.6405 H   0  0  0  0  0  0  0  0  0  0  0  0
   49.7125   35.5279   40.4893 H   0  0  0  0  0  0  0  0  0  0  0  0
   48.5773   34.3159   38.6045 H   0  0  0  0  0  0  0  0  0  0  0  0
   44.5854   32.5439   39.8049 H   0  0  0  0  0  0  0  0  0  0  0  0
   47.6944   33.7563   37.1409 H   0  0  0  0  0  0  0  0  0  0  0  0
   43.4716   31.3214   37.9935 H   0  0  0  0  0  0  0  0  0  0  0  0
   45.1428   31.9857   33.5047 H   0  0  0  0  0  0  0  0  0  0  0  0
   46.0636   30.5828   34.0843 H   0  0  0  0  0  0  0  0  0  0  0  0
   43.7954   36.9132   44.9372 H   0  0  0  0  0  0  0  0  0  0  0  0
   45.0391   36.7398   42.7800 H   0  0  0  0  0  0  0  0  0  0  0  0
   45.5967   33.3213   46.2201 H   0  0  0  0  0  0  0  0  0  0  0  0
  2  1  1  0
  2  3  2  0
  3 19  1  0
  4  3  1  0
  5  4  2  0
  6  7  2  0
  6  5  1  0
  7  2  1  0
  9  8  2  0
  9  7  1  0
 10  9  1  0
 11 12  1  0
 11 10  2  0
 12 13  2  0
 13  8  1  0
 14 12  1  0
 15 16  1  0
 15 14  1  0
 16 11  1  0
 17 22  2  0
 18 17  1  0
 19 18  2  0
 19 20  1  0
 20 21  2  0
 21 22  1  0
  4 23  1  0
  5 24  1  0
  6 25  1  0
  8 26  1  0
 10 27  1  0
 13 28  1  0
 15 29  1  0
 15 30  1  0
 17 31  1  0
 18 32  1  0
 21 33  1  0
M  ISO  8  23  14  24  14  25  14  26  14  27  14  28  14  29  13  30  13
M  ISO  3  31  14  32  14  33  14
M  END
>  <minimizedAffinity>  (1) 
-6.22679806

>  <minimizedRMSD>  (1) 
0.299853861

$$$$
