
     RDKit          3D

 41 45  0  0  1  0  0  0  0  0999 V2000
   47.9210   33.1430   43.1430 N   0  0  0  0  0  0  0  0  0  0  0  0
   49.0430   33.1140   42.3330 C   0  0  0  0  0  0  0  0  0  0  0  0
   50.2360   32.7980   42.5960 O   0  0  0  0  0  0  0  0  0  0  0  0
   46.2600   32.2300   44.7390 C   0  0  1  0  0  0  0  0  0  0  0  0
   46.3410   31.2920   43.6820 C   0  0  0  0  0  0  0  0  0  0  0  0
   47.5890   32.1050   44.0690 C   0  0  1  0  0  0  0  0  0  0  0  0
   44.9820   33.8860   43.2230 C   0  0  0  0  0  0  0  0  0  0  0  0
   45.4870   33.5260   44.4940 C   0  0  0  0  0  0  0  0  0  0  0  0
   45.2820   34.3990   45.5320 C   0  0  0  0  0  0  0  0  0  0  0  0
   44.6110   35.5530   45.3010 N   0  0  0  0  0  0  0  0  0  0  0  0
   44.1320   35.8900   44.0850 C   0  0  0  0  0  0  0  0  0  0  0  0
   44.3260   35.0210   43.0060 N   0  0  0  0  0  0  0  0  0  0  0  0
   48.9240   33.5010   40.8660 C   0  0  2  0  0  0  0  0  0  0  0  0
   48.3750   34.9360   40.5730 C   0  0  0  0  0  0  0  0  0  0  0  0
   47.6330   33.6590   40.2170 C   0  0  1  0  0  0  0  0  0  0  0  0
   48.6830   33.2210   38.0090 C   0  0  0  0  0  0  0  0  0  0  0  0
   47.5220   33.3220   38.7510 C   0  0  0  0  0  0  0  0  0  0  0  0
   46.3490   33.0990   38.0620 C   0  0  0  0  0  0  0  0  0  0  0  0
   46.3630   32.7940   36.7180 C   0  0  0  0  0  0  0  0  0  0  0  0
   47.5400   32.7010   36.0060 C   0  0  0  0  0  0  0  0  0  0  0  0
   48.7430   32.9150   36.6440 C   0  0  0  0  0  0  0  0  0  0  0  0
   47.2070   32.3850   34.6960 O   0  0  0  0  0  0  0  0  0  0  0  0
   45.8370   32.0430   34.5950 C   0  0  0  0  0  0  0  0  0  0  0  0
   45.3320   32.5330   35.8240 O   0  0  0  0  0  0  0  0  0  0  0  0
   47.2916   33.9555   43.0752 H   0  0  0  0  0  0  0  0  0  0  0  0
   45.9203   32.1520   45.7823 H   0  0  0  0  0  0  0  0  0  0  0  0
   45.8289   31.4934   42.7296 H   0  0  0  0  0  0  0  0  0  0  0  0
   46.1162   30.2202   43.5788 H   0  0  0  0  0  0  0  0  0  0  0  0
   48.6235   31.9069   44.3863 H   0  0  0  0  0  0  0  0  0  0  0  0
   45.1387   33.1980   42.3792 H   0  0  0  0  0  0  0  0  0  0  0  0
   45.6576   34.1651   46.5391 H   0  0  0  0  0  0  0  0  0  0  0  0
   43.5941   36.8391   43.9437 H   0  0  0  0  0  0  0  0  0  0  0  0
   49.8154   32.9084   40.6125 H   0  0  0  0  0  0  0  0  0  0  0  0
   48.0221   35.5789   41.3928 H   0  0  0  0  0  0  0  0  0  0  0  0
   48.7250   35.8322   40.0397 H   0  0  0  0  0  0  0  0  0  0  0  0
   46.6298   33.2675   40.4412 H   0  0  0  0  0  0  0  0  0  0  0  0
   49.6352   33.3946   38.5317 H   0  0  0  0  0  0  0  0  0  0  0  0
   45.3878   33.1655   38.5927 H   0  0  0  0  0  0  0  0  0  0  0  0
   49.7013   32.8487   36.1081 H   0  0  0  0  0  0  0  0  0  0  0  0
   45.3607   32.5412   33.7377 H   0  0  0  0  0  0  0  0  0  0  0  0
   45.6535   30.9710   34.4303 H   0  0  0  0  0  0  0  0  0  0  0  0
  1  6  1  0
  2  3  2  0
  2  1  1  0
  5  6  1  0
  5  4  1  0
  6  4  1  0
  7  8  2  0
  8  4  1  0
  8  9  1  0
 10  9  2  0
 11 10  1  0
 12  7  1  0
 12 11  2  0
 13  2  1  0
 14 13  1  0
 15 14  1  0
 15 13  1  0
 16 17  2  0
 17 15  1  0
 18 17  1  0
 19 18  2  0
 20 21  2  0
 20 19  1  0
 21 16  1  0
 22 20  1  0
 23 22  1  0
 23 24  1  0
 24 19  1  0
  1 25  1  0
  4 26  1  1
  5 27  1  0
  5 28  1  0
  6 29  1  1
  7 30  1  0
  9 31  1  0
 11 32  1  0
 13 33  1  6
 14 34  1  0
 14 35  1  0
 15 36  1  1
 16 37  1  0
 18 38  1  0
 21 39  1  0
 23 40  1  0
 23 41  1  0
M  ISO  8  26  13  27  13  28  13  29  13  30  14  31  14  32  14  33  13
M  ISO  8  34  13  35  13  36  13  37  14  38  14  39  14  40  13  41  13
M  END
>  <minimizedAffinity>  (1) 
-5.1641798

>  <minimizedRMSD>  (1) 
2.56612968

$$$$
