
     RDKit          3D

 44 48  0  0  0  0  0  0  0  0999 V2000
   45.6339   34.6074   42.0359 C   0  0  0  0  0  0  0  0  0  0  0  0
   44.9051   35.6538   42.6144 C   0  0  0  0  0  0  0  0  0  0  0  0
   43.5605   35.5122   42.3383 C   0  0  0  0  0  0  0  0  0  0  0  0
   43.4872   34.3881   41.5956 N   0  0  0  0  0  0  0  0  0  0  0  0
   44.7013   33.8724   41.4295 N   0  0  0  0  0  0  0  0  0  0  0  0
   49.3567   35.1598   41.9708 C   0  0  0  0  0  0  0  0  0  0  0  0
   47.9720   35.4528   41.8176 C   0  0  0  0  0  0  0  0  0  0  0  0
   47.0789   34.4350   42.1328 C   0  0  0  0  0  0  0  0  0  0  0  0
   47.5401   33.2402   42.5596 N   0  0  0  0  0  0  0  0  0  0  0  0
   48.8673   32.9893   42.6959 C   0  0  0  0  0  0  0  0  0  0  0  0
   49.7395   33.9446   42.4018 N   0  0  0  0  0  0  0  0  0  0  0  0
   42.3784   33.7782   39.6436 N   0  0  0  0  0  0  0  0  0  0  0  0
   42.2219   33.9293   41.0907 C   0  0  2  0  0  0  0  0  0  0  0  0
   41.1593   34.8841   41.4457 C   0  0  0  0  0  0  0  0  0  0  0  0
   40.3357   35.3127   40.3357 N   0  0  0  0  0  0  0  0  0  0  0  0
   41.0331   35.6543   39.1420 C   0  0  0  0  0  0  0  0  0  0  0  0
   42.4331   35.0598   39.0651 C   0  0  1  0  0  0  0  0  0  0  0  0
   45.4508   36.4116   43.1803 H   0  0  0  0  0  0  0  0  0  0  0  0
   42.9834   36.3134   42.7850 H   0  0  0  0  0  0  0  0  0  0  0  0
   50.0531   35.9459   41.7281 H   0  0  0  0  0  0  0  0  0  0  0  0
   47.5895   36.3937   41.4802 H   0  0  0  0  0  0  0  0  0  0  0  0
   49.1394   32.0054   43.0432 H   0  0  0  0  0  0  0  0  0  0  0  0
   43.2266   33.1704   39.5157 H   0  0  0  0  0  0  0  0  0  0  0  0
   42.0723   32.8930   41.4944 H   0  0  0  0  0  0  0  0  0  0  0  0
   41.3957   35.8080   41.9469 H   0  0  0  0  0  0  0  0  0  0  0  0
   40.4426   34.3396   42.1312 H   0  0  0  0  0  0  0  0  0  0  0  0
   39.7185   36.0745   40.6228 H   0  0  0  0  0  0  0  0  0  0  0  0
   40.3886   35.1941   38.3264 H   0  0  0  0  0  0  0  0  0  0  0  0
   41.0030   36.7306   38.8739 H   0  0  0  0  0  0  0  0  0  0  0  0
   42.4493   34.7623   37.9230 H   0  0  0  0  0  0  0  0  0  0  0  0
   44.6372   35.8041   39.9608 C   0  0  0  0  0  0  0  0  0  0  0  0
   43.5262   35.9784   39.1478 C   0  0  0  0  0  0  0  0  0  0  0  0
   43.5787   37.1705   38.4545 C   0  0  0  0  0  0  0  0  0  0  0  0
   42.7602   37.4335   37.7734 H   0  0  0  0  0  0  0  0  0  0  0  0
   44.5905   38.0855   38.5403 C   0  0  0  0  0  0  0  0  0  0  0  0
   45.6671   37.8696   39.3569 C   0  0  0  0  0  0  0  0  0  0  0  0
   45.6780   36.7007   40.0764 C   0  0  0  0  0  0  0  0  0  0  0  0
   46.5078   38.9644   39.2243 O   0  0  0  0  0  0  0  0  0  0  0  0
   45.7883   40.0463   38.6699 C   0  0  1  0  0  0  0  0  0  0  0  0
   45.2469   40.5400   39.5125 H   0  0  0  0  0  0  0  0  0  0  0  0
   44.8044   39.3304   37.9175 O   0  0  0  0  0  0  0  0  0  0  0  0
   44.7550   34.9196   40.5711 H   0  0  0  0  0  0  0  0  0  0  0  0
   46.5281   36.5274   40.7228 H   0  0  0  0  0  0  0  0  0  0  0  0
   46.3887   40.7262   38.0584 H   0  0  0  0  0  0  0  0  0  0  0  0
  1  8  1  0
  1  2  1  0
  3  2  2  0
  4  3  1  0
  5  4  1  0
  5  1  2  0
  6 11  2  0
  7  6  1  0
  7  8  2  0
  8  9  1  0
  9 10  2  0
 11 10  1  0
 12 13  1  0
 13 14  1  0
 13  4  1  0
 15 14  1  0
 16 15  1  0
 17 16  1  0
 17 12  1  0
  2 18  1  0
  3 19  1  0
  6 20  1  0
  7 21  1  0
 10 22  1  0
 12 23  1  0
 13 24  1  1
 14 25  1  0
 14 26  1  0
 15 27  1  0
 16 28  1  0
 16 29  1  0
 17 30  1  6
 31 32  2  0
 32 33  1  0
 33 34  1  0
 33 35  2  0
 35 36  1  0
 36 37  2  0
 36 38  1  0
 38 39  1  0
 39 40  1  1
 39 41  1  0
 37 31  1  0
 41 35  1  0
 31 42  1  0
 37 43  1  0
 39 44  1  0
 17 32  1  0
M  ISO  8  18  14  19  14  20  14  21  14  22  14  23   5  24  13  25  13
M  ISO  7  26  13  27   5  28  13  29  13  30  13  34  16  40   8
M  END
>  <DihAtoms>  (1) 
15,16,31,30

>  <DihDeg>  (1) 
12.889047445266883

$$$$
