
     RDKit          3D

 53 57  0  0  0  0  0  0  0  0999 V2000
   45.6882   33.6836   40.6640 C   0  0  0  0  0  0  0  0  0  0  0  0
   46.1744   33.3395   39.4212 C   0  0  0  0  0  0  0  0  0  0  0  0
   47.4032   33.6980   38.9386 C   0  0  0  0  0  0  0  0  0  0  0  0
   48.1952   34.4699   39.8004 C   0  0  0  0  0  0  0  0  0  0  0  0
   47.7646   34.8402   41.0450 C   0  0  0  0  0  0  0  0  0  0  0  0
   46.5260   34.4565   41.4824 C   0  0  0  0  0  0  0  0  0  0  0  0
   46.1791   34.8828   42.7815 N   0  0  0  0  0  0  0  0  0  0  0  0
   45.3236   35.9984   43.0616 C   0  0  0  0  0  0  0  0  0  0  0  0
   44.7565   35.9061   44.4696 C   0  0  0  0  0  0  0  0  0  0  0  0
   44.4199   34.5905   44.8939 N   0  0  0  0  0  0  0  0  0  0  0  0
   45.4668   33.6414   44.7667 C   0  0  0  0  0  0  0  0  0  0  0  0
   46.6389   34.2529   44.0284 C   0  0  0  0  0  0  0  0  0  0  0  0
   44.3666   33.3048   41.1710 C   0  0  0  0  0  0  0  0  0  0  0  0
   43.3959   33.0284   40.0445 C   0  0  0  0  0  0  0  0  0  0  0  0
   40.7956   35.6936   39.4270 C   0  0  0  0  0  0  0  0  0  0  0  0
   41.9465   34.8893   39.2533 C   0  0  0  0  0  0  0  0  0  0  0  0
   42.2022   33.8947   40.1962 C   0  0  0  0  0  0  0  0  0  0  0  0
   41.3226   33.7539   41.2383 N   0  0  0  0  0  0  0  0  0  0  0  0
   40.2464   34.5272   41.3755 C   0  0  0  0  0  0  0  0  0  0  0  0
   39.9808   35.4952   40.4740 N   0  0  0  0  0  0  0  0  0  0  0  0
   45.6314   32.7398   38.7078 H   0  0  0  0  0  0  0  0  0  0  0  0
   47.8025   33.4396   37.9689 H   0  0  0  0  0  0  0  0  0  0  0  0
   49.1907   34.7887   39.4707 H   0  0  0  0  0  0  0  0  0  0  0  0
   48.4404   35.4408   41.6553 H   0  0  0  0  0  0  0  0  0  0  0  0
   46.0246   36.8854   43.1202 H   0  0  0  0  0  0  0  0  0  0  0  0
   44.5983   36.2812   42.3080 H   0  0  0  0  0  0  0  0  0  0  0  0
   45.4436   36.3420   45.2299 H   0  0  0  0  0  0  0  0  0  0  0  0
   43.8298   36.5206   44.5231 H   0  0  0  0  0  0  0  0  0  0  0  0
   43.5478   34.2879   44.3888 H   0  0  0  0  0  0  0  0  0  0  0  0
   45.1842   32.7190   44.2262 H   0  0  0  0  0  0  0  0  0  0  0  0
   45.8904   33.3221   45.7629 H   0  0  0  0  0  0  0  0  0  0  0  0
   47.1599   35.0273   44.6239 H   0  0  0  0  0  0  0  0  0  0  0  0
   47.3227   33.4047   43.7668 H   0  0  0  0  0  0  0  0  0  0  0  0
   44.5057   32.3481   41.7522 H   0  0  0  0  0  0  0  0  0  0  0  0
   43.9276   34.0176   41.8759 H   0  0  0  0  0  0  0  0  0  0  0  0
   42.9948   31.9739   40.1123 H   0  0  0  0  0  0  0  0  0  0  0  0
   43.7726   33.1525   39.0447 H   0  0  0  0  0  0  0  0  0  0  0  0
   40.6704   36.4307   38.6642 H   0  0  0  0  0  0  0  0  0  0  0  0
   42.6417   34.9960   38.4354 H   0  0  0  0  0  0  0  0  0  0  0  0
   38.8745   33.1230   42.8586 C   0  0  0  0  0  0  0  0  0  0  0  0
   39.3067   34.3799   42.4852 C   0  0  0  0  0  0  0  0  0  0  0  0
   38.8165   35.4560   43.1970 C   0  0  0  0  0  0  0  0  0  0  0  0
   39.1423   36.4330   42.9191 H   0  0  0  0  0  0  0  0  0  0  0  0
   37.9295   35.2899   44.2415 C   0  0  0  0  0  0  0  0  0  0  0  0
   37.4971   34.0306   44.6147 C   0  0  0  0  0  0  0  0  0  0  0  0
   37.9900   32.9579   43.9000 C   0  0  0  0  0  0  0  0  0  0  0  0
   36.6168   34.2373   45.6939 O   0  0  0  0  0  0  0  0  0  0  0  0
   36.8342   35.5283   46.2483 C   0  0  2  0  0  0  0  0  0  0  0  0
   37.6914   35.5425   46.9657 H   0  0  0  0  0  0  0  0  0  0  0  0
   37.3117   36.2285   45.0904 O   0  0  0  0  0  0  0  0  0  0  0  0
   39.2091   32.2138   42.3524 H   0  0  0  0  0  0  0  0  0  0  0  0
   37.6285   31.9892   44.2217 H   0  0  0  0  0  0  0  0  0  0  0  0
   35.9100   35.9383   46.6502 H   0  0  0  0  0  0  0  0  0  0  0  0
  1 13  1  0
  1  6  1  0
  2  1  2  0
  3  2  1  0
  3  4  2  0
  4  5  1  0
  5  6  2  0
  6  7  1  0
  7  8  1  0
  7 12  1  0
  8  9  1  0
  9 10  1  0
 11 10  1  0
 12 11  1  0
 14 17  1  0
 14 13  1  0
 15 20  2  0
 16 15  1  0
 16 17  2  0
 17 18  1  0
 18 19  2  0
 20 19  1  0
  2 21  1  0
  3 22  1  0
  4 23  1  0
  5 24  1  0
  8 25  1  0
  8 26  1  0
  9 27  1  0
  9 28  1  0
 10 29  1  0
 11 30  1  0
 11 31  1  0
 12 32  1  0
 12 33  1  0
 13 34  1  0
 13 35  1  0
 14 36  1  0
 14 37  1  0
 15 38  1  0
 16 39  1  0
 40 41  2  0
 41 42  1  0
 42 43  1  0
 42 44  2  0
 44 45  1  0
 45 46  2  0
 45 47  1  0
 47 48  1  0
 48 49  1  1
 48 50  1  0
 46 40  1  0
 50 44  1  0
 40 51  1  0
 46 52  1  0
 48 53  1  0
 19 41  1  0
M  ISO  8  21  14  22  14  23  14  24  14  25  13  26  13  27  13  28  13
M  ISO  8  29   5  30  13  31  13  32  13  33  13  34   8  35   8  36   8
M  ISO  5  37   8  38  14  39  14  43  16  49   8
M  END
>  <DihAtoms>  (1) 
17,18,40,39

>  <DihDeg>  (1) 
-0.0013455595603937363

$$$$
