
     RDKit          3D

 44 47  0  0  0  0  0  0  0  0999 V2000
   46.3319   34.9421   41.7992 C   0  0  0  0  0  0  0  0  0  0  0  0
   44.4578   35.9688   44.8944 C   0  0  0  0  0  0  0  0  0  0  0  0
   44.9798   35.9645   43.5884 C   0  0  0  0  0  0  0  0  0  0  0  0
   45.7935   34.9294   43.1857 C   0  0  0  0  0  0  0  0  0  0  0  0
   46.0534   33.9577   44.0752 N   0  0  0  0  0  0  0  0  0  0  0  0
   45.5459   33.9735   45.3266 C   0  0  0  0  0  0  0  0  0  0  0  0
   44.7507   34.9702   45.7436 N   0  0  0  0  0  0  0  0  0  0  0  0
   47.8242   34.9115   41.8492 C   0  0  0  0  0  0  0  0  0  0  0  0
   48.3486   34.1820   40.7407 N   0  0  0  0  0  0  0  0  0  0  0  0
   49.2501   33.1389   41.1058 C   0  0  0  0  0  0  0  0  0  0  0  0
   49.1625   31.8600   40.3402 C   0  0  0  0  0  0  0  0  0  0  0  0
   48.6649   31.9893   38.9208 C   0  0  0  0  0  0  0  0  0  0  0  0
   48.4799   33.4229   38.5221 C   0  0  0  0  0  0  0  0  0  0  0  0
   47.5558   34.0163   39.6041 C   0  0  2  0  0  0  0  0  0  0  0  0
   45.8541   34.0704   41.3102 H   0  0  0  0  0  0  0  0  0  0  0  0
   45.9381   35.8503   41.2931 H   0  0  0  0  0  0  0  0  0  0  0  0
   43.8183   36.7833   45.2091 H   0  0  0  0  0  0  0  0  0  0  0  0
   44.7020   36.8060   42.9507 H   0  0  0  0  0  0  0  0  0  0  0  0
   45.8453   33.1195   45.9297 H   0  0  0  0  0  0  0  0  0  0  0  0
   48.2274   34.6003   42.8193 H   0  0  0  0  0  0  0  0  0  0  0  0
   48.1632   35.9799   41.7077 H   0  0  0  0  0  0  0  0  0  0  0  0
   49.1142   32.9053   42.1833 H   0  0  0  0  0  0  0  0  0  0  0  0
   50.2841   33.5750   41.0210 H   0  0  0  0  0  0  0  0  0  0  0  0
   48.5977   31.0922   40.9167 H   0  0  0  0  0  0  0  0  0  0  0  0
   50.2079   31.4510   40.2663 H   0  0  0  0  0  0  0  0  0  0  0  0
   47.6474   31.5188   38.9068 H   0  0  0  0  0  0  0  0  0  0  0  0
   49.2689   31.4001   38.2160 H   0  0  0  0  0  0  0  0  0  0  0  0
   49.4535   33.9224   38.5061 H   0  0  0  0  0  0  0  0  0  0  0  0
   47.9711   33.4552   37.5373 H   0  0  0  0  0  0  0  0  0  0  0  0
   46.7218   33.2928   39.6407 H   0  0  0  0  0  0  0  0  0  0  0  0
   47.8576   35.8089   37.9577 C   0  0  0  0  0  0  0  0  0  0  0  0
   47.1432   35.3272   39.0350 C   0  0  0  0  0  0  0  0  0  0  0  0
   46.0705   36.1034   39.4943 C   0  0  0  0  0  0  0  0  0  0  0  0
   45.5288   35.7007   40.3401 H   0  0  0  0  0  0  0  0  0  0  0  0
   45.7968   37.2827   38.8534 C   0  0  0  0  0  0  0  0  0  0  0  0
   46.5239   37.7472   37.7769 C   0  0  0  0  0  0  0  0  0  0  0  0
   47.5895   36.9900   37.3100 C   0  0  0  0  0  0  0  0  0  0  0  0
   45.9773   38.9600   37.3796 O   0  0  0  0  0  0  0  0  0  0  0  0
   45.0417   39.4008   38.3470 C   0  0  2  0  0  0  0  0  0  0  0  0
   44.1309   39.7388   37.8138 H   0  0  0  0  0  0  0  0  0  0  0  0
   44.8131   38.2241   39.0972 O   0  0  0  0  0  0  0  0  0  0  0  0
   48.6983   35.2322   37.5735 H   0  0  0  0  0  0  0  0  0  0  0  0
   48.1913   37.3086   36.4699 H   0  0  0  0  0  0  0  0  0  0  0  0
   45.5476   40.2007   38.9142 H   0  0  0  0  0  0  0  0  0  0  0  0
  1  8  1  0
  1  4  1  0
  2  7  2  0
  3  2  1  0
  4  3  2  0
  4  5  1  0
  5  6  2  0
  6  7  1  0
  9 10  1  0
  9  8  1  0
 11 10  1  0
 12 11  1  0
 13 12  1  0
 13 14  1  0
 14  9  1  0
  1 15  1  0
  1 16  1  0
  2 17  1  0
  3 18  1  0
  6 19  1  0
  8 20  1  0
  8 21  1  0
 10 22  1  0
 10 23  1  0
 11 24  1  0
 11 25  1  0
 12 26  1  0
 12 27  1  0
 13 28  1  0
 13 29  1  0
 14 30  1  1
 31 32  2  0
 32 33  1  0
 33 34  1  0
 33 35  2  0
 35 36  1  0
 36 37  2  0
 36 38  1  0
 38 39  1  0
 39 40  1  6
 39 41  1  0
 37 31  1  0
 41 35  1  0
 31 42  1  0
 37 43  1  0
 39 44  1  0
 14 32  1  0
M  ISO  8  15   8  16   8  17  14  18  14  19  14  20   8  21   8  22  13
M  ISO  8  23  13  24  13  25  13  26  13  27  13  28  13  29  13  30  13
M  ISO  2  34  16  40   8
M  END
>  <DihAtoms>  (1) 
12,13,31,30

>  <DihDeg>  (1) 
-74.49060015202234

$$$$
