
     RDKit          3D

 41 44  0  0  0  0  0  0  0  0999 V2000
   46.2157   34.8318   43.2915 C   0  0  0  0  0  0  0  0  0  0  0  0
   46.3624   33.8453   44.2692 C   0  0  0  0  0  0  0  0  0  0  0  0
   45.6029   33.9122   45.4233 C   0  0  0  0  0  0  0  0  0  0  0  0
   44.7491   34.9324   45.5562 N   0  0  0  0  0  0  0  0  0  0  0  0
   44.6051   35.8946   44.6045 C   0  0  0  0  0  0  0  0  0  0  0  0
   45.3451   35.8305   43.4781 N   0  0  0  0  0  0  0  0  0  0  0  0
   45.6956   32.9449   46.4354 N   0  0  0  0  0  0  0  0  0  0  0  0
   45.1853   33.1782   47.7597 C   0  0  0  0  0  0  0  0  0  0  0  0
   45.8648   32.2338   48.7055 C   0  0  0  0  0  0  0  0  0  0  0  0
   45.4409   30.8177   48.3968 C   0  0  0  0  0  0  0  0  0  0  0  0
   45.6934   30.5612   46.9507 C   0  0  0  0  0  0  0  0  0  0  0  0
   46.2864   31.6761   46.1881 C   0  0  2  0  0  0  0  0  0  0  0  0
   47.0605   34.7131   42.0560 C   0  0  0  0  0  0  0  0  0  0  0  0
   46.2753   34.5633   40.9205 F   0  0  0  0  0  0  0  0  0  0  0  0
   47.8799   35.8259   41.9931 F   0  0  0  0  0  0  0  0  0  0  0  0
   47.9076   33.6170   42.1825 F   0  0  0  0  0  0  0  0  0  0  0  0
   47.0558   33.0683   44.0981 H   0  0  0  0  0  0  0  0  0  0  0  0
   43.8946   36.6749   44.7995 H   0  0  0  0  0  0  0  0  0  0  0  0
   44.1005   32.8991   47.7236 H   0  0  0  0  0  0  0  0  0  0  0  0
   45.2814   34.2366   48.0766 H   0  0  0  0  0  0  0  0  0  0  0  0
   45.3722   32.4407   49.7147 H   0  0  0  0  0  0  0  0  0  0  0  0
   46.9271   32.3561   48.8492 H   0  0  0  0  0  0  0  0  0  0  0  0
   46.0820   30.1681   49.0540 H   0  0  0  0  0  0  0  0  0  0  0  0
   44.3994   30.6658   48.7169 H   0  0  0  0  0  0  0  0  0  0  0  0
   44.6853   30.2951   46.5111 H   0  0  0  0  0  0  0  0  0  0  0  0
   46.3454   29.6523   46.8112 H   0  0  0  0  0  0  0  0  0  0  0  0
   45.9164   31.4435   45.1076 H   0  0  0  0  0  0  0  0  0  0  0  0
   48.5019   31.8397   44.8615 C   0  0  0  0  0  0  0  0  0  0  0  0
   47.7551   31.6527   46.0039 C   0  0  0  0  0  0  0  0  0  0  0  0
   48.5713   31.4347   47.1266 C   0  0  0  0  0  0  0  0  0  0  0  0
   48.1296   31.2682   48.1137 H   0  0  0  0  0  0  0  0  0  0  0  0
   49.9474   31.4130   47.0796 C   0  0  0  0  0  0  0  0  0  0  0  0
   50.6007   31.6121   45.8835 C   0  0  0  0  0  0  0  0  0  0  0  0
   49.8526   31.8259   44.7743 C   0  0  0  0  0  0  0  0  0  0  0  0
   51.9599   31.5457   46.0904 O   0  0  0  0  0  0  0  0  0  0  0  0
   52.1879   30.9999   47.3819 C   0  0  2  0  0  0  0  0  0  0  0  0
   53.0082   31.5734   47.8683 H   0  0  0  0  0  0  0  0  0  0  0  0
   50.9489   31.2228   48.0230 O   0  0  0  0  0  0  0  0  0  0  0  0
   47.9441   32.0006   43.9525 H   0  0  0  0  0  0  0  0  0  0  0  0
   50.3397   31.9839   43.8289 H   0  0  0  0  0  0  0  0  0  0  0  0
   52.4486   29.9272   47.3264 H   0  0  0  0  0  0  0  0  0  0  0  0
  1  6  2  0
  1  2  1  0
  2  3  2  0
  3  4  1  0
  3  7  1  0
  5  4  2  0
  6  5  1  0
  7  8  1  0
  8  9  1  0
 10  9  1  0
 11 10  1  0
 12  7  1  0
 12 11  1  0
 13 16  1  0
 13  1  1  0
 14 13  1  0
 15 13  1  0
  2 17  1  0
  5 18  1  0
  8 19  1  0
  8 20  1  0
  9 21  1  0
  9 22  1  0
 10 23  1  0
 10 24  1  0
 11 25  1  0
 11 26  1  0
 12 27  1  6
 28 29  2  0
 29 30  1  0
 30 31  1  0
 30 32  2  0
 32 33  1  0
 33 34  2  0
 33 35  1  0
 35 36  1  0
 36 37  1  1
 36 38  1  0
 34 28  1  0
 38 32  1  0
 28 39  1  0
 34 40  1  0
 36 41  1  0
 12 29  1  0
M  ISO  8  17  14  18  14  19  13  20  13  21  13  22  13  23  13  24  13
M  ISO  5  25  13  26  13  27  13  31  16  37   8
M  END
>  <DihAtoms>  (1) 
6,11,28,27

>  <DihDeg>  (1) 
33.15410401301794

$$$$
