
     RDKit          3D

 48 52  0  0  0  0  0  0  0  0999 V2000
   48.0491   34.5651   41.7260 C   0  0  0  0  0  0  0  0  0  0  0  0
   48.7879   35.8482   41.3596 C   0  0  0  0  0  0  0  0  0  0  0  0
   49.4246   34.7533   42.0700 C   0  0  0  0  0  0  0  0  0  0  0  0
   47.6826   33.7584   40.5292 C   0  0  0  0  0  0  0  0  0  0  0  0
   48.1503   34.3165   39.2001 C   0  0  0  0  0  0  0  0  0  0  0  0
   47.7612   33.2785   38.1584 C   0  0  0  0  0  0  0  0  0  0  0  0
   46.3694   33.4191   37.9726 O   0  0  0  0  0  0  0  0  0  0  0  0
   45.8405   32.8354   39.1540 C   0  0  0  0  0  0  0  0  0  0  0  0
   46.1421   33.7244   40.3474 C   0  0  0  0  0  0  0  0  0  0  0  0
   46.1300   35.7888   42.7933 C   0  0  0  0  0  0  0  0  0  0  0  0
   47.0137   34.7040   42.8027 C   0  0  0  0  0  0  0  0  0  0  0  0
   46.9031   33.7776   43.8436 C   0  0  0  0  0  0  0  0  0  0  0  0
   45.9446   33.9805   44.7900 N   0  0  0  0  0  0  0  0  0  0  0  0
   45.1308   35.0359   44.7273 C   0  0  0  0  0  0  0  0  0  0  0  0
   45.2068   35.9242   43.7644 N   0  0  0  0  0  0  0  0  0  0  0  0
   44.1178   35.2692   45.7122 N   0  0  0  0  0  0  0  0  0  0  0  0
   47.7583   32.6435   43.9695 C   0  0  0  0  0  0  0  0  0  0  0  0
   47.3952   31.4605   44.3628 O   0  0  0  0  0  0  0  0  0  0  0  0
   49.0698   36.0371   40.3013 H   0  0  0  0  0  0  0  0  0  0  0  0
   48.3733   36.7737   41.8160 H   0  0  0  0  0  0  0  0  0  0  0  0
   50.1942   34.1678   41.4879 H   0  0  0  0  0  0  0  0  0  0  0  0
   49.8922   35.2009   42.9629 H   0  0  0  0  0  0  0  0  0  0  0  0
   48.0334   32.7297   40.6158 H   0  0  0  0  0  0  0  0  0  0  0  0
   49.2744   34.3410   39.1773 H   0  0  0  0  0  0  0  0  0  0  0  0
   47.6897   35.2929   38.9519 H   0  0  0  0  0  0  0  0  0  0  0  0
   48.2544   33.4801   37.1720 H   0  0  0  0  0  0  0  0  0  0  0  0
   47.9581   32.2574   38.5138 H   0  0  0  0  0  0  0  0  0  0  0  0
   44.7534   32.8079   38.9958 H   0  0  0  0  0  0  0  0  0  0  0  0
   46.3058   31.8577   39.3498 H   0  0  0  0  0  0  0  0  0  0  0  0
   45.7315   33.1726   41.2253 H   0  0  0  0  0  0  0  0  0  0  0  0
   45.7358   34.7351   40.2604 H   0  0  0  0  0  0  0  0  0  0  0  0
   46.2165   36.5066   41.9832 H   0  0  0  0  0  0  0  0  0  0  0  0
   44.2170   36.1862   46.2211 H   0  0  0  0  0  0  0  0  0  0  0  0
   43.3765   34.5223   45.8433 H   0  0  0  0  0  0  0  0  0  0  0  0
   49.6975   31.5946   42.7322 C   0  0  0  0  0  0  0  0  0  0  0  0
   49.0969   32.1422   43.8324 C   0  0  0  0  0  0  0  0  0  0  0  0
   49.8774   32.1117   44.9962 C   0  0  0  0  0  0  0  0  0  0  0  0
   49.4854   32.5226   45.9180 H   0  0  0  0  0  0  0  0  0  0  0  0
   51.1378   31.5991   45.1092 C   0  0  0  0  0  0  0  0  0  0  0  0
   51.7040   31.0611   43.9821 C   0  0  0  0  0  0  0  0  0  0  0  0
   50.9915   31.0610   42.8136 C   0  0  0  0  0  0  0  0  0  0  0  0
   52.9837   30.6030   44.3299 O   0  0  0  0  0  0  0  0  0  0  0  0
   53.0276   30.4726   45.7474 C   0  0  2  0  0  0  0  0  0  0  0  0
   54.0341   30.6571   46.1181 H   0  0  0  0  0  0  0  0  0  0  0  0
   52.0743   31.4686   46.1515 O   0  0  0  0  0  0  0  0  0  0  0  0
   49.1146   31.6045   41.8169 H   0  0  0  0  0  0  0  0  0  0  0  0
   51.3836   30.6497   41.8913 H   0  0  0  0  0  0  0  0  0  0  0  0
   52.6483   29.4596   45.9820 H   0  0  0  0  0  0  0  0  0  0  0  0
  1  3  1  0
  1 11  1  0
  2  1  1  0
  2  3  1  0
  4  1  1  0
  5  4  1  0
  6  5  1  0
  7  6  1  0
  7  8  1  0
  8  9  1  0
  9  4  1  0
 10 11  2  0
 10 15  1  0
 11 12  1  0
 12 17  1  0
 12 13  2  0
 14 13  1  0
 14 16  1  0
 15 14  2  0
 17 18  2  0
  2 19  1  0
  2 20  1  0
  3 21  1  0
  3 22  1  0
  4 23  1  0
  5 24  1  0
  5 25  1  0
  6 26  1  0
  6 27  1  0
  8 28  1  0
  8 29  1  0
  9 30  1  0
  9 31  1  0
 10 32  1  0
 16 33  1  0
 16 34  1  0
 35 36  2  0
 36 37  1  0
 37 38  1  0
 37 39  2  0
 39 40  1  0
 40 41  2  0
 40 42  1  0
 42 43  1  0
 43 44  1  1
 43 45  1  0
 41 35  1  0
 45 39  1  0
 35 46  1  0
 41 47  1  0
 43 48  1  0
 17 36  1  0
M  ISO  8  19  13  20  13  21  13  22  13  23  13  24  13  25  13  26  13
M  ISO  8  27  13  28  13  29  13  30  13  31  13  32  14  38  16  44   8
M  END
>  <DihAtoms>  (1) 
11,16,35,34

>  <DihDeg>  (1) 
-133.99197213226023

$$$$
