
     RDKit          3D

 48 53  0  0  0  0  0  0  0  0999 V2000
   49.7720   30.1800   49.4140 C   0  0  0  0  0  0  0  0  0  0  0  0
   50.0080   31.3500   50.0630 N   0  0  0  0  0  0  0  0  0  0  0  0
   50.6700   31.4180   51.2260 C   0  0  0  0  0  0  0  0  0  0  0  0
   51.1130   30.2670   51.7610 N   0  0  0  0  0  0  0  0  0  0  0  0
   50.9270   29.0760   51.1940 C   0  0  0  0  0  0  0  0  0  0  0  0
   51.3760   27.8800   51.7430 C   0  0  0  0  0  0  0  0  0  0  0  0
   51.1490   26.6770   51.1130 C   0  0  0  0  0  0  0  0  0  0  0  0
   50.4590   26.6020   49.8970 C   0  0  0  0  0  0  0  0  0  0  0  0
   50.0280   27.8130   49.3820 C   0  0  0  0  0  0  0  0  0  0  0  0
   50.2430   29.0210   49.9940 C   0  0  0  0  0  0  0  0  0  0  0  0
   50.1130   27.5950   46.9240 C   0  0  0  0  0  0  0  0  0  0  0  0
   49.3650   27.5820   48.1060 C   0  0  0  0  0  0  0  0  0  0  0  0
   47.9920   27.3750   47.9060 C   0  0  0  0  0  0  0  0  0  0  0  0
   47.4770   27.2040   46.6420 C   0  0  0  0  0  0  0  0  0  0  0  0
   48.2650   27.2260   45.5250 C   0  0  0  0  0  0  0  0  0  0  0  0
   49.6160   27.4240   45.6490 C   0  0  0  0  0  0  0  0  0  0  0  0
   47.4230   27.0220   44.4290 O   0  0  0  0  0  0  0  0  0  0  0  0
   46.0850   27.3430   44.8360 C   0  0  0  0  0  0  0  0  0  0  0  0
   46.1650   26.9880   46.2240 O   0  0  0  0  0  0  0  0  0  0  0  0
   48.8830   30.0580   47.8880 S   0  0  0  0  0  0  0  0  0  0  0  0
   46.0360   32.7200   46.9090 C   0  0  0  0  0  0  0  0  0  0  0  0
   47.1500   31.9270   46.9210 C   0  0  0  0  0  0  0  0  0  0  0  0
   47.4090   31.0500   47.9550 C   0  0  0  0  0  0  0  0  0  0  0  0
   46.5240   30.9580   49.0240 C   0  0  0  0  0  0  0  0  0  0  0  0
   45.4170   31.7320   49.0350 C   0  0  0  0  0  0  0  0  0  0  0  0
   45.1880   32.5960   47.9870 C   0  0  0  0  0  0  0  0  0  0  0  0
   44.5600   35.5070   45.0470 C   0  0  0  0  0  0  0  0  0  0  0  0
   45.2110   35.4350   43.8080 C   0  0  0  0  0  0  0  0  0  0  0  0
   46.1590   34.4370   43.5950 C   0  0  0  0  0  0  0  0  0  0  0  0
   46.4320   33.5520   44.5940 N   0  0  0  0  0  0  0  0  0  0  0  0
   45.7750   33.6470   45.8030 C   0  0  0  0  0  0  0  0  0  0  0  0
   44.8540   34.6150   46.0160 N   0  0  0  0  0  0  0  0  0  0  0  0
   50.8449   32.3822   51.7257 H   0  0  0  0  0  0  0  0  0  0  0  0
   51.9223   27.8952   52.6976 H   0  0  0  0  0  0  0  0  0  0  0  0
   51.5193   25.7509   51.5770 H   0  0  0  0  0  0  0  0  0  0  0  0
   50.2720   25.6462   49.3856 H   0  0  0  0  0  0  0  0  0  0  0  0
   51.1968   27.7564   47.0203 H   0  0  0  0  0  0  0  0  0  0  0  0
   47.3165   27.3490   48.7738 H   0  0  0  0  0  0  0  0  0  0  0  0
   50.2755   27.4455   44.7689 H   0  0  0  0  0  0  0  0  0  0  0  0
   45.8598   28.4109   44.6984 H   0  0  0  0  0  0  0  0  0  0  0  0
   45.2901   26.8360   44.2693 H   0  0  0  0  0  0  0  0  0  0  0  0
   47.8598   31.9898   46.0830 H   0  0  0  0  0  0  0  0  0  0  0  0
   46.7235   30.2620   49.8521 H   0  0  0  0  0  0  0  0  0  0  0  0
   44.7059   31.6729   49.8721 H   0  0  0  0  0  0  0  0  0  0  0  0
   44.2816   33.2187   48.0124 H   0  0  0  0  0  0  0  0  0  0  0  0
   43.8096   36.2903   45.2296 H   0  0  0  0  0  0  0  0  0  0  0  0
   44.9761   36.1581   43.0131 H   0  0  0  0  0  0  0  0  0  0  0  0
   46.6819   34.3642   42.6300 H   0  0  0  0  0  0  0  0  0  0  0  0
  1 10  1  0
  1  2  2  0
  2  3  1  0
  3  4  2  0
  5  6  2  0
  5  4  1  0
  7  6  1  0
  8  7  2  0
  9  8  1  0
  9 10  2  0
 10  5  1  0
 11 12  2  0
 12  9  1  0
 13 12  1  0
 14 13  2  0
 15 16  2  0
 15 14  1  0
 16 11  1  0
 17 18  1  0
 17 15  1  0
 18 19  1  0
 19 14  1  0
 20 23  1  0
 20  1  1  0
 21 22  2  0
 21 26  1  0
 22 23  1  0
 23 24  2  0
 24 25  1  0
 26 25  2  0
 27 32  2  0
 28 27  1  0
 29 28  2  0
 29 30  1  0
 30 31  2  0
 31 32  1  0
 31 21  1  0
  3 33  1  0
  6 34  1  0
  7 35  1  0
  8 36  1  0
 11 37  1  0
 13 38  1  0
 16 39  1  0
 18 40  1  0
 18 41  1  0
 22 42  1  0
 24 43  1  0
 25 44  1  0
 26 45  1  0
 27 46  1  0
 28 47  1  0
 29 48  1  0
M  ISO  8  33  14  34  14  35  14  36  14  37  14  38  14  39  14  40  13
M  ISO  8  41  13  42  14  43  14  44  14  45  14  46  14  47  14  48  14
M  END
>  <minimizedAffinity>  (1) 
-6.65797281

>  <minimizedRMSD>  (1) 
0.851836681

$$$$
