
     RDKit          3D

 29 31  0  0  0  0  0  0  0  0999 V2000
   44.5519   36.0430   44.4898 C   0  0  0  0  0  0  0  0  0  0  0  0
   45.2172   35.9414   43.2380 C   0  0  0  0  0  0  0  0  0  0  0  0
   46.0796   34.8774   43.0197 C   0  0  0  0  0  0  0  0  0  0  0  0
   46.2403   33.9778   44.0354 N   0  0  0  0  0  0  0  0  0  0  0  0
   45.6038   34.0963   45.2014 C   0  0  0  0  0  0  0  0  0  0  0  0
   44.7589   35.1182   45.4460 N   0  0  0  0  0  0  0  0  0  0  0  0
   46.7778   34.7661   41.7166 C   0  0  0  0  0  0  0  0  0  0  0  0
   48.1886   35.3047   41.8941 C   0  0  0  0  0  0  0  0  0  0  0  0
   43.8799   36.8747   44.6556 H   0  0  0  0  0  0  0  0  0  0  0  0
   45.0244   36.7067   42.4920 H   0  0  0  0  0  0  0  0  0  0  0  0
   45.8576   33.2899   45.8805 H   0  0  0  0  0  0  0  0  0  0  0  0
   46.2835   35.4104   40.9889 H   0  0  0  0  0  0  0  0  0  0  0  0
   46.7709   33.7524   41.2991 H   0  0  0  0  0  0  0  0  0  0  0  0
   48.1733   36.3760   42.1790 H   0  0  0  0  0  0  0  0  0  0  0  0
   48.7597   35.2609   40.9404 H   0  0  0  0  0  0  0  0  0  0  0  0
   50.3640   34.6826   43.0245 C   0  0  0  0  0  0  0  0  0  0  0  0
   48.9748   34.5762   42.9011 C   0  0  0  0  0  0  0  0  0  0  0  0
   48.2974   33.7407   43.7720 C   0  0  0  0  0  0  0  0  0  0  0  0
   47.2215   33.6239   43.7173 H   0  0  0  0  0  0  0  0  0  0  0  0
   48.9110   33.0002   44.7623 C   0  0  0  0  0  0  0  0  0  0  0  0
   50.2997   33.1099   44.8817 C   0  0  0  0  0  0  0  0  0  0  0  0
   50.9779   33.9398   44.0176 C   0  0  0  0  0  0  0  0  0  0  0  0
   50.6989   32.2836   45.9355 O   0  0  0  0  0  0  0  0  0  0  0  0
   49.5373   31.9688   46.7113 C   0  0  1  0  0  0  0  0  0  0  0  0
   49.6068   30.9403   47.0658 H   0  0  0  0  0  0  0  0  0  0  0  0
   48.5101   32.1115   45.7462 O   0  0  0  0  0  0  0  0  0  0  0  0
   50.8879   35.3339   42.3448 H   0  0  0  0  0  0  0  0  0  0  0  0
   52.0487   34.0388   44.0927 H   0  0  0  0  0  0  0  0  0  0  0  0
   49.4245   32.7347   47.5243 H   0  0  0  0  0  0  0  0  0  0  0  0
  1  6  2  0
  2  1  1  0
  3  2  2  0
  3  4  1  0
  4  5  2  0
  5  6  1  0
  7  8  1  0
  7  3  1  0
  1  9  1  0
  2 10  1  0
  5 11  1  0
  7 12  1  0
  7 13  1  0
  8 14  1  0
  8 15  1  0
 16 17  2  0
 17 18  1  0
 18 19  1  0
 18 20  2  0
 20 21  1  0
 21 22  2  0
 21 23  1  0
 23 24  1  0
 24 25  1  1
 24 26  1  0
 22 16  1  0
 26 20  1  0
 16 27  1  0
 22 28  1  0
 24 29  1  0
  8 17  1  0
M  ISO  8   9  14  10  14  11  14  12   8  13   8  14   8  15   8  19  16
M  ISO  1  25   8
M  END
>  <DihAtoms>  (1) 
6,7,16,15

>  <DihDeg>  (1) 
90.00073098705121

$$$$
