
     RDKit          3D

 43 46  0  0  0  0  0  0  0  0999 V2000
   46.7898   35.0650   41.9090 C   0  0  2  0  0  0  0  0  0  0  0  0
   45.1954   36.0741   43.4946 C   0  0  0  0  0  0  0  0  0  0  0  0
   46.0789   35.0507   43.1490 C   0  0  0  0  0  0  0  0  0  0  0  0
   46.2446   34.0276   44.0556 C   0  0  0  0  0  0  0  0  0  0  0  0
   45.5651   34.0278   45.2416 N   0  0  0  0  0  0  0  0  0  0  0  0
   44.7075   35.0497   45.5441 C   0  0  0  0  0  0  0  0  0  0  0  0
   44.5198   36.0761   44.6715 N   0  0  0  0  0  0  0  0  0  0  0  0
   46.4209   34.0590   40.9360 N   0  0  0  0  0  0  0  0  0  0  0  0
   45.0462   34.1326   40.5637 C   0  0  0  0  0  0  0  0  0  0  0  0
   44.7646   32.7582   39.9097 C   0  0  0  0  0  0  0  0  0  0  0  0
   45.4417   32.8356   38.6519 N   0  0  0  0  0  0  0  0  0  0  0  0
   46.8249   33.1233   38.7063 C   0  0  0  0  0  0  0  0  0  0  0  0
   47.3243   33.9516   39.8539 C   0  0  0  0  0  0  0  0  0  0  0  0
   48.2954   34.9755   42.1663 C   0  0  0  0  0  0  0  0  0  0  0  0
   46.5931   36.0475   41.3902 H   0  0  0  0  0  0  0  0  0  0  0  0
   44.9966   36.9164   42.8566 H   0  0  0  0  0  0  0  0  0  0  0  0
   46.9166   33.1955   43.8551 H   0  0  0  0  0  0  0  0  0  0  0  0
   44.1671   35.0574   46.4785 H   0  0  0  0  0  0  0  0  0  0  0  0
   44.8693   34.8748   39.7587 H   0  0  0  0  0  0  0  0  0  0  0  0
   44.4016   34.2989   41.4247 H   0  0  0  0  0  0  0  0  0  0  0  0
   45.2169   32.0148   40.5692 H   0  0  0  0  0  0  0  0  0  0  0  0
   43.6852   32.6263   39.7142 H   0  0  0  0  0  0  0  0  0  0  0  0
   44.9290   33.4473   38.0070 H   0  0  0  0  0  0  0  0  0  0  0  0
   47.3809   32.1700   38.5941 H   0  0  0  0  0  0  0  0  0  0  0  0
   47.0739   33.6917   37.7619 H   0  0  0  0  0  0  0  0  0  0  0  0
   47.6456   34.9628   39.5301 H   0  0  0  0  0  0  0  0  0  0  0  0
   48.2602   33.4368   40.2183 H   0  0  0  0  0  0  0  0  0  0  0  0
   48.5484   34.0337   42.6515 H   0  0  0  0  0  0  0  0  0  0  0  0
   48.7851   35.1051   41.1734 H   0  0  0  0  0  0  0  0  0  0  0  0
   47.9925   36.6948   43.9643 C   0  0  0  0  0  0  0  0  0  0  0  0
   48.7990   36.1052   42.9834 C   0  0  0  0  0  0  0  0  0  0  0  0
   50.0341   36.6983   42.8946 C   0  0  0  0  0  0  0  0  0  0  0  0
   50.7336   36.3246   42.1639 H   0  0  0  0  0  0  0  0  0  0  0  0
   50.4160   37.7551   43.6929 C   0  0  0  0  0  0  0  0  0  0  0  0
   49.5809   38.2796   44.6274 C   0  0  0  0  0  0  0  0  0  0  0  0
   48.3378   37.7510   44.7810 C   0  0  0  0  0  0  0  0  0  0  0  0
   50.2590   39.3251   45.2595 O   0  0  0  0  0  0  0  0  0  0  0  0
   51.3698   39.6909   44.4560 C   0  0  1  0  0  0  0  0  0  0  0  0
   51.1471   40.5331   43.7702 H   0  0  0  0  0  0  0  0  0  0  0  0
   51.6141   38.4868   43.7550 O   0  0  0  0  0  0  0  0  0  0  0  0
   46.9823   36.2779   44.1011 H   0  0  0  0  0  0  0  0  0  0  0  0
   47.6271   38.1179   45.5013 H   0  0  0  0  0  0  0  0  0  0  0  0
   52.2700   39.9040   45.0632 H   0  0  0  0  0  0  0  0  0  0  0  0
  1 14  1  0
  1  3  1  0
  2  7  2  0
  3  2  1  0
  3  4  2  0
  4  5  1  0
  5  6  2  0
  7  6  1  0
  8  1  1  0
  9  8  1  0
 10  9  1  0
 11 12  1  0
 11 10  1  0
 12 13  1  0
 13  8  1  0
  1 15  1  6
  2 16  1  0
  4 17  1  0
  6 18  1  0
  9 19  1  0
  9 20  1  0
 10 21  1  0
 10 22  1  0
 11 23  1  0
 12 24  1  0
 12 25  1  0
 13 26  1  0
 13 27  1  0
 14 28  1  0
 14 29  1  0
 30 31  2  0
 31 32  1  0
 32 33  1  0
 32 34  2  0
 34 35  1  0
 35 36  2  0
 35 37  1  0
 37 38  1  0
 38 39  1  6
 38 40  1  0
 36 30  1  0
 40 34  1  0
 30 41  1  0
 36 42  1  0
 38 43  1  0
 14 31  1  0
M  ISO  8  15   8  16  14  17  14  18  14  19  13  20  13  21  13  22  13
M  ISO  8  23   5  24  13  25  13  26  13  27  13  28   8  29   8  33  16
M  ISO  1  39   8
M  END
>  <DihAtoms>  (1) 
0,13,30,29

>  <DihDeg>  (1) 
-87.43593921753313

$$$$
