
     RDKit          3D

 44 48  0  0  0  0  0  0  0  0999 V2000
   45.2147   36.1562   43.4523 C   0  0  0  0  0  0  0  0  0  0  0  0
   45.8665   34.9505   43.1298 C   0  0  0  0  0  0  0  0  0  0  0  0
   45.8125   33.9909   44.1314 C   0  0  0  0  0  0  0  0  0  0  0  0
   45.2011   34.1823   45.2982 N   0  0  0  0  0  0  0  0  0  0  0  0
   44.5873   35.3716   45.5522 C   0  0  0  0  0  0  0  0  0  0  0  0
   44.6000   36.3399   44.6336 N   0  0  0  0  0  0  0  0  0  0  0  0
   46.4517   32.7378   43.8866 C   0  0  0  0  0  0  0  0  0  0  0  0
   47.7150   32.2546   43.9820 C   0  0  0  0  0  0  0  0  0  0  0  0
   48.0333   31.0183   43.6825 C   0  0  0  0  0  0  0  0  0  0  0  0
   47.0257   30.2390   43.2683 C   0  0  0  0  0  0  0  0  0  0  0  0
   45.5556   31.3060   43.3037 S   0  0  0  0  0  0  0  0  0  0  0  0
   46.5024   34.7988   41.8723 C   0  0  0  0  0  0  0  0  0  0  0  0
   47.6873   35.2417   41.8076 O   0  0  0  0  0  0  0  0  0  0  0  0
   45.7657   34.1500   40.7402 C   0  0  0  0  0  0  0  0  0  0  0  0
   44.4185   34.1275   40.5362 C   0  0  0  0  0  0  0  0  0  0  0  0
   44.2255   33.4300   39.3939 N   0  0  0  0  0  0  0  0  0  0  0  0
   45.4114   33.0428   38.9210 C   0  0  0  0  0  0  0  0  0  0  0  0
   46.3611   33.4859   39.7498 N   0  0  0  0  0  0  0  0  0  0  0  0
   45.7434   32.2952   37.7640 N   0  0  0  0  0  0  0  0  0  0  0  0
   42.9702   33.1161   38.7345 C   0  0  0  0  0  0  0  0  0  0  0  0
   45.1871   36.9833   42.7518 H   0  0  0  0  0  0  0  0  0  0  0  0
   44.1076   35.4603   46.5242 H   0  0  0  0  0  0  0  0  0  0  0  0
   48.4428   33.0133   44.3380 H   0  0  0  0  0  0  0  0  0  0  0  0
   49.0203   30.5770   43.7386 H   0  0  0  0  0  0  0  0  0  0  0  0
   47.0354   29.1259   42.9470 H   0  0  0  0  0  0  0  0  0  0  0  0
   43.6516   34.5731   41.1548 H   0  0  0  0  0  0  0  0  0  0  0  0
   45.7260   31.2585   37.5589 H   0  0  0  0  0  0  0  0  0  0  0  0
   46.0850   32.6672   36.8558 H   0  0  0  0  0  0  0  0  0  0  0  0
   43.0705   32.1964   38.1284 H   0  0  0  0  0  0  0  0  0  0  0  0
   42.1394   33.0013   39.4430 H   0  0  0  0  0  0  0  0  0  0  0  0
   41.8989   35.2570   38.2759 C   0  0  0  0  0  0  0  0  0  0  0  0
   42.6506   34.2070   37.7730 C   0  0  0  0  0  0  0  0  0  0  0  0
   43.0171   34.2884   36.4463 C   0  0  0  0  0  0  0  0  0  0  0  0
   43.6024   33.4548   36.0840 H   0  0  0  0  0  0  0  0  0  0  0  0
   42.6287   35.3825   35.7006 C   0  0  0  0  0  0  0  0  0  0  0  0
   41.8815   36.4171   36.2168 C   0  0  0  0  0  0  0  0  0  0  0  0
   41.5091   36.3494   37.5376 C   0  0  0  0  0  0  0  0  0  0  0  0
   41.6821   37.3405   35.1745 O   0  0  0  0  0  0  0  0  0  0  0  0
   42.5570   37.0424   34.1141 C   0  0  1  0  0  0  0  0  0  0  0  0
   42.0939   37.1906   33.1201 H   0  0  0  0  0  0  0  0  0  0  0  0
   42.8719   35.6854   34.3664 O   0  0  0  0  0  0  0  0  0  0  0  0
   41.5708   35.2696   39.3074 H   0  0  0  0  0  0  0  0  0  0  0  0
   40.9194   37.1563   37.9620 H   0  0  0  0  0  0  0  0  0  0  0  0
   43.4749   37.6366   34.1638 H   0  0  0  0  0  0  0  0  0  0  0  0
  1  6  2  0
  2  1  1  0
  2  3  2  0
  3  4  1  0
  4  5  2  0
  6  5  1  0
  7  8  2  0
  7  3  1  0
  9  8  1  0
 10 11  1  0
 10  9  2  0
 11  7  1  0
 12  2  1  0
 13 12  2  0
 14 12  1  0
 15 14  2  0
 16 15  1  0
 17 16  1  0
 17 18  2  0
 18 14  1  0
 19 17  1  0
 20 16  1  0
  1 21  1  0
  5 22  1  0
  8 23  1  0
  9 24  1  0
 10 25  1  0
 15 26  1  0
 19 27  1  0
 19 28  1  0
 20 29  1  0
 20 30  1  0
 31 32  2  0
 32 33  1  0
 33 34  1  0
 33 35  2  0
 35 36  1  0
 36 37  2  0
 36 38  1  0
 38 39  1  0
 39 40  1  6
 39 41  1  0
 37 31  1  0
 41 35  1  0
 31 42  1  0
 37 43  1  0
 39 44  1  0
 20 32  1  0
M  ISO  8  21  14  22  14  23  14  24  14  25  14  26  14  29   8  30   8
M  ISO  2  34  16  40   8
M  END
>  <DihAtoms>  (1) 
15,19,31,30

>  <DihDeg>  (1) 
-90.01619664799792

$$$$
