
     RDKit          3D

 34 37  0  0  0  0  0  0  0  0999 V2000
   46.0166   32.7501   47.0567 C   0  0  0  0  0  0  0  0  0  0  0  0
   47.2679   32.4071   47.5218 C   0  0  0  0  0  0  0  0  0  0  0  0
   47.4321   31.6179   48.6395 C   0  0  0  0  0  0  0  0  0  0  0  0
   46.3293   31.1459   49.3292 C   0  0  0  0  0  0  0  0  0  0  0  0
   45.0705   31.4745   48.8847 C   0  0  0  0  0  0  0  0  0  0  0  0
   44.9265   32.2714   47.7556 C   0  0  0  0  0  0  0  0  0  0  0  0
   44.7144   35.3652   44.8531 C   0  0  0  0  0  0  0  0  0  0  0  0
   45.4827   35.2183   43.6851 C   0  0  0  0  0  0  0  0  0  0  0  0
   46.4612   34.2083   43.6530 C   0  0  0  0  0  0  0  0  0  0  0  0
   46.6193   33.4198   44.7535 N   0  0  0  0  0  0  0  0  0  0  0  0
   45.8582   33.5908   45.8654 C   0  0  0  0  0  0  0  0  0  0  0  0
   44.9140   34.5589   45.9080 N   0  0  0  0  0  0  0  0  0  0  0  0
   49.0683   31.2169   49.1835 S   0  0  0  0  0  0  0  0  0  0  0  0
   48.1226   32.7860   46.9686 H   0  0  0  0  0  0  0  0  0  0  0  0
   46.4897   30.5387   50.1886 H   0  0  0  0  0  0  0  0  0  0  0  0
   44.2098   31.0978   49.4348 H   0  0  0  0  0  0  0  0  0  0  0  0
   43.9173   32.5037   47.4435 H   0  0  0  0  0  0  0  0  0  0  0  0
   43.9492   36.1279   44.9259 H   0  0  0  0  0  0  0  0  0  0  0  0
   45.3014   35.8756   42.8597 H   0  0  0  0  0  0  0  0  0  0  0  0
   47.0646   34.0767   42.7647 H   0  0  0  0  0  0  0  0  0  0  0  0
   49.6128   28.4537   48.9604 C   0  0  0  0  0  0  0  0  0  0  0  0
   49.7177   29.7353   48.4752 C   0  0  0  0  0  0  0  0  0  0  0  0
   50.4097   29.9393   47.2859 C   0  0  0  0  0  0  0  0  0  0  0  0
   50.5571   30.8952   46.8103 H   0  0  0  0  0  0  0  0  0  0  0  0
   50.9815   28.8703   46.6052 C   0  0  0  0  0  0  0  0  0  0  0  0
   50.8557   27.5884   47.1248 C   0  0  0  0  0  0  0  0  0  0  0  0
   50.1712   27.3746   48.3040 C   0  0  0  0  0  0  0  0  0  0  0  0
   51.5217   26.7256   46.2384 O   0  0  0  0  0  0  0  0  0  0  0  0
   52.4641   27.5180   45.5091 C   0  0  1  0  0  0  0  0  0  0  0  0
   53.3690   27.7527   46.1205 H   0  0  0  0  0  0  0  0  0  0  0  0
   51.7198   28.7422   45.4207 O   0  0  0  0  0  0  0  0  0  0  0  0
   49.0682   28.3651   49.8788 H   0  0  0  0  0  0  0  0  0  0  0  0
   50.0719   26.3816   48.7097 H   0  0  0  0  0  0  0  0  0  0  0  0
   52.6723   27.0919   44.5261 H   0  0  0  0  0  0  0  0  0  0  0  0
  1  2  2  0
  1  6  1  0
  2  3  1  0
  3 13  1  0
  3  4  2  0
  5  4  1  0
  6  5  2  0
  7 12  2  0
  8  7  1  0
  9  8  2  0
  9 10  1  0
 10 11  2  0
 11 12  1  0
 11  1  1  0
  2 14  1  0
  4 15  1  0
  5 16  1  0
  6 17  1  0
  7 18  1  0
  8 19  1  0
  9 20  1  0
 21 22  2  0
 22 23  1  0
 23 24  1  0
 23 25  2  0
 25 26  1  0
 26 27  2  0
 26 28  1  0
 28 29  1  0
 29 30  1  1
 29 31  1  0
 27 21  1  0
 31 25  1  0
 21 32  1  0
 27 33  1  0
 29 34  1  0
 13 22  1  0
M  ISO  8  14  14  15  14  16  14  17  14  18  14  19  14  20  14  24  16
M  ISO  1  30   8
M  END
>  <DihAtoms>  (1) 
2,12,21,20

>  <DihDeg>  (1) 
0.00011199007278785641

$$$$
