
     RDKit          3D

 45 49  0  0  0  0  0  0  0  0999 V2000
   46.1550   31.8987   45.7091 C   0  0  0  0  0  0  0  0  0  0  0  0
   46.4006   32.8814   44.7103 C   0  0  0  0  0  0  0  0  0  0  0  0
   47.3594   32.6011   43.7667 C   0  0  0  0  0  0  0  0  0  0  0  0
   48.0101   31.4153   43.8446 N   0  0  0  0  0  0  0  0  0  0  0  0
   47.7495   30.5073   44.8101 C   0  0  0  0  0  0  0  0  0  0  0  0
   46.8148   30.7551   45.7456 N   0  0  0  0  0  0  0  0  0  0  0  0
   48.4642   29.2693   44.8669 N   0  0  0  0  0  0  0  0  0  0  0  0
   47.7067   33.4769   42.7040 C   0  0  0  0  0  0  0  0  0  0  0  0
   48.6820   34.4334   42.9284 C   0  0  0  0  0  0  0  0  0  0  0  0
   49.1027   35.3441   41.9625 C   0  0  0  0  0  0  0  0  0  0  0  0
   48.5224   35.2976   40.7139 C   0  0  0  0  0  0  0  0  0  0  0  0
   47.5647   34.3680   40.4728 C   0  0  0  0  0  0  0  0  0  0  0  0
   47.1477   33.4606   41.4404 C   0  0  0  0  0  0  0  0  0  0  0  0
   46.1008   32.4607   41.1597 C   0  0  0  0  0  0  0  0  0  0  0  0
   45.8115   32.5143   39.8017 F   0  0  0  0  0  0  0  0  0  0  0  0
   44.9680   32.7541   41.9000 F   0  0  0  0  0  0  0  0  0  0  0  0
   46.4408   31.1750   41.4912 F   0  0  0  0  0  0  0  0  0  0  0  0
   45.6384   34.0936   44.7941 C   0  0  0  0  0  0  0  0  0  0  0  0
   45.2049   35.1506   44.0403 C   0  0  0  0  0  0  0  0  0  0  0  0
   44.4768   35.9908   44.8474 C   0  0  0  0  0  0  0  0  0  0  0  0
   44.4641   35.4526   46.0873 N   0  0  0  0  0  0  0  0  0  0  0  0
   45.1560   34.3275   46.0450 N   0  0  0  0  0  0  0  0  0  0  0  0
   45.4346   31.9609   46.5136 H   0  0  0  0  0  0  0  0  0  0  0  0
   48.2342   28.6012   44.1030 H   0  0  0  0  0  0  0  0  0  0  0  0
   49.1557   29.1012   45.6417 H   0  0  0  0  0  0  0  0  0  0  0  0
   49.1683   34.5002   43.9153 H   0  0  0  0  0  0  0  0  0  0  0  0
   49.8756   36.0598   42.2306 H   0  0  0  0  0  0  0  0  0  0  0  0
   48.8461   35.9976   39.9723 H   0  0  0  0  0  0  0  0  0  0  0  0
   47.1045   34.3179   39.5108 H   0  0  0  0  0  0  0  0  0  0  0  0
   45.4781   35.1591   43.0170 H   0  0  0  0  0  0  0  0  0  0  0  0
   44.0387   36.9029   44.4320 H   0  0  0  0  0  0  0  0  0  0  0  0
   42.5338   35.6336   47.5383 C   0  0  0  0  0  0  0  0  0  0  0  0
   43.7849   36.0895   47.1649 C   0  0  0  0  0  0  0  0  0  0  0  0
   44.4262   37.1570   47.7984 C   0  0  0  0  0  0  0  0  0  0  0  0
   45.4075   37.4867   47.4779 H   0  0  0  0  0  0  0  0  0  0  0  0
   43.7699   37.7845   48.8514 C   0  0  0  0  0  0  0  0  0  0  0  0
   42.5071   37.3374   49.2413 C   0  0  0  0  0  0  0  0  0  0  0  0
   41.8881   36.2655   48.5888 C   0  0  0  0  0  0  0  0  0  0  0  0
   42.0789   38.1246   50.3021 O   0  0  0  0  0  0  0  0  0  0  0  0
   43.2327   38.8003   50.8248 C   0  0  2  0  0  0  0  0  0  0  0  0
   43.6559   38.1734   51.6391 H   0  0  0  0  0  0  0  0  0  0  0  0
   44.1083   38.8576   49.6900 O   0  0  0  0  0  0  0  0  0  0  0  0
   42.0717   34.7982   47.0163 H   0  0  0  0  0  0  0  0  0  0  0  0
   40.9115   35.8972   48.8679 H   0  0  0  0  0  0  0  0  0  0  0  0
   42.8850   39.7934   51.1438 H   0  0  0  0  0  0  0  0  0  0  0  0
  1  6  2  0
  2 18  1  0
  2  1  1  0
  3  4  1  0
  3  2  2  0
  4  5  2  0
  5  7  1  0
  5  6  1  0
  8  9  2  0
  8  3  1  0
 10  9  1  0
 11 10  2  0
 12 11  1  0
 12 13  2  0
 13  8  1  0
 14 13  1  0
 14 17  1  0
 14 16  1  0
 15 14  1  0
 18 22  2  0
 19 18  1  0
 19 20  2  0
 20 21  1  0
 22 21  1  0
  1 23  1  0
  7 24  1  0
  7 25  1  0
  9 26  1  0
 10 27  1  0
 11 28  1  0
 12 29  1  0
 19 30  1  0
 20 31  1  0
 32 33  2  0
 33 34  1  0
 34 35  1  0
 34 36  2  0
 36 37  1  0
 37 38  2  0
 37 39  1  0
 39 40  1  0
 40 41  1  1
 40 42  1  0
 38 32  1  0
 42 36  1  0
 32 43  1  0
 38 44  1  0
 40 45  1  0
 21 33  1  0
M  ISO  8  23  14  26  14  27  14  28  14  29  14  30  14  31  14  35  16
M  ISO  1  41   8
M  END
>  <DihAtoms>  (1) 
19,20,32,31

>  <DihDeg>  (1) 
70.29981311225458

$$$$
