
     RDKit          3D

 52 56  0  0  0  0  0  0  0  0999 V2000
   46.0832   33.8401   43.1352 C   0  0  2  0  0  0  0  0  0  0  0  0
   45.3459   34.9574   42.4821 C   0  0  2  0  0  0  0  0  0  0  0  0
   45.1865   36.1402   43.3634 C   0  0  0  0  0  0  0  0  0  0  0  0
   44.6136   35.8378   44.7233 C   0  0  0  0  0  0  0  0  0  0  0  0
   45.0386   34.5114   45.2826 C   0  0  0  0  0  0  0  0  0  0  0  0
   46.2998   33.9965   44.6128 C   0  0  0  0  0  0  0  0  0  0  0  0
   47.3877   33.5774   42.5002 C   0  0  0  0  0  0  0  0  0  0  0  0
   48.4330   34.3922   42.9358 C   0  0  0  0  0  0  0  0  0  0  0  0
   49.7215   34.2330   42.4036 C   0  0  0  0  0  0  0  0  0  0  0  0
   49.8585   33.2351   41.4444 N   0  0  0  0  0  0  0  0  0  0  0  0
   48.8190   32.4668   41.0488 C   0  0  0  0  0  0  0  0  0  0  0  0
   47.5810   32.6316   41.5717 N   0  0  0  0  0  0  0  0  0  0  0  0
   43.2556   35.4520   41.1540 C   0  0  1  0  0  0  0  0  0  0  0  0
   44.0046   34.4708   41.9781 C   0  0  1  0  0  0  0  0  0  0  0  0
   44.2216   33.3267   41.2186 O   0  0  0  0  0  0  0  0  0  0  0  0
   44.0687   33.6555   39.8839 C   0  0  0  0  0  0  0  0  0  0  0  0
   42.8667   34.5877   39.9459 C   0  0  2  0  0  0  0  0  0  0  0  0
   42.0998   35.9179   41.7431 O   0  0  0  0  0  0  0  0  0  0  0  0
   42.7748   35.3858   38.8156 O   0  0  0  0  0  0  0  0  0  0  0  0
   45.4907   32.8880   42.9841 H   0  0  0  0  0  0  0  0  0  0  0  0
   45.9217   35.2841   41.5924 H   0  0  0  0  0  0  0  0  0  0  0  0
   44.4363   36.8249   42.8689 H   0  0  0  0  0  0  0  0  0  0  0  0
   46.1161   36.7612   43.4299 H   0  0  0  0  0  0  0  0  0  0  0  0
   45.0173   36.6164   45.4105 H   0  0  0  0  0  0  0  0  0  0  0  0
   43.5063   35.9544   44.7389 H   0  0  0  0  0  0  0  0  0  0  0  0
   44.2497   33.7517   45.1341 H   0  0  0  0  0  0  0  0  0  0  0  0
   45.2421   34.5776   46.3746 H   0  0  0  0  0  0  0  0  0  0  0  0
   47.1055   34.6454   44.9270 H   0  0  0  0  0  0  0  0  0  0  0  0
   46.4879   32.9847   45.0492 H   0  0  0  0  0  0  0  0  0  0  0  0
   48.4764   35.1967   43.6508 H   0  0  0  0  0  0  0  0  0  0  0  0
   50.6010   34.7851   42.6483 H   0  0  0  0  0  0  0  0  0  0  0  0
   49.0575   31.7282   40.2973 H   0  0  0  0  0  0  0  0  0  0  0  0
   43.9256   36.2465   40.7985 H   0  0  0  0  0  0  0  0  0  0  0  0
   43.4082   34.1246   42.8713 H   0  0  0  0  0  0  0  0  0  0  0  0
   43.8640   32.7400   39.3192 H   0  0  0  0  0  0  0  0  0  0  0  0
   44.9686   34.2168   39.5745 H   0  0  0  0  0  0  0  0  0  0  0  0
   41.9855   33.9747   40.1854 H   0  0  0  0  0  0  0  0  0  0  0  0
   41.2835   35.8412   41.2071 H   0  0  0  0  0  0  0  0  0  0  0  0
   41.8709   34.7654   36.7983 C   0  0  0  0  0  0  0  0  0  0  0  0
   41.6768   35.4507   38.0033 C   0  0  0  0  0  0  0  0  0  0  0  0
   40.4597   36.0695   38.1972 C   0  0  0  0  0  0  0  0  0  0  0  0
   40.3808   36.5714   39.1343 H   0  0  0  0  0  0  0  0  0  0  0  0
   39.4642   36.0223   37.2486 C   0  0  0  0  0  0  0  0  0  0  0  0
   39.6352   35.3444   36.0388 C   0  0  0  0  0  0  0  0  0  0  0  0
   40.8578   34.7233   35.8447 C   0  0  0  0  0  0  0  0  0  0  0  0
   38.4530   35.4934   35.3222 O   0  0  0  0  0  0  0  0  0  0  0  0
   37.4165   35.8834   36.2160 C   0  0  1  0  0  0  0  0  0  0  0  0
   36.7996   36.6273   35.6883 H   0  0  0  0  0  0  0  0  0  0  0  0
   38.1834   36.5595   37.2249 O   0  0  0  0  0  0  0  0  0  0  0  0
   42.7603   34.2432   36.5163 H   0  0  0  0  0  0  0  0  0  0  0  0
   40.9803   34.1967   34.8958 H   0  0  0  0  0  0  0  0  0  0  0  0
   36.8547   35.0233   36.6298 H   0  0  0  0  0  0  0  0  0  0  0  0
  1  6  1  0
  2  1  1  0
  2  3  1  0
  3  4  1  0
  4  5  1  0
  6  5  1  0
  7  8  2  0
  7  1  1  0
  9  8  1  0
 10  9  2  0
 11 10  1  0
 11 12  2  0
 12  7  1  0
 13 18  1  0
 13 14  1  0
 14 15  1  0
 14  2  1  0
 16 17  1  0
 16 15  1  0
 17 19  1  0
 17 13  1  0
  1 20  1  1
  2 21  1  6
  3 22  1  0
  3 23  1  0
  4 24  1  0
  4 25  1  0
  5 26  1  0
  5 27  1  0
  6 28  1  0
  6 29  1  0
  8 30  1  0
  9 31  1  0
 11 32  1  0
 13 33  1  6
 14 34  1  1
 16 35  1  0
 16 36  1  0
 17 37  1  1
 18 38  1  0
 39 40  2  0
 40 41  1  0
 41 42  1  0
 41 43  2  0
 43 44  1  0
 44 45  2  0
 44 46  1  0
 46 47  1  0
 47 48  1  6
 47 49  1  0
 45 39  1  0
 49 43  1  0
 39 50  1  0
 45 51  1  0
 47 52  1  0
 19 40  1  0
M  ISO  8  20  13  21  13  22  13  23  13  24  13  25  13  26  13  27  13
M  ISO  8  28  13  29  13  30  14  31  14  32  14  33  13  34  13  35  13
M  ISO  5  36  13  37  13  38   3  42  16  48   8
M  END
>  <DihAtoms>  (1) 
16,18,39,38

>  <DihDeg>  (1) 
179.9961044818153

$$$$
