
     RDKit          3D

 37 41  0  0  0  0  0  0  0  0999 V2000
   47.4531   31.6698   44.8189 C   0  0  0  0  0  0  0  0  0  0  0  0
   46.7816   32.8478   44.5337 C   0  0  0  0  0  0  0  0  0  0  0  0
   45.9141   33.4433   45.4235 C   0  0  0  0  0  0  0  0  0  0  0  0
   45.6869   32.8563   46.6664 C   0  0  0  0  0  0  0  0  0  0  0  0
   44.9333   33.1376   47.7659 N   0  0  0  0  0  0  0  0  0  0  0  0
   45.1235   32.1824   48.6941 C   0  0  0  0  0  0  0  0  0  0  0  0
   45.9930   31.3187   48.1603 N   0  0  0  0  0  0  0  0  0  0  0  0
   46.3559   31.6980   46.9295 C   0  0  0  0  0  0  0  0  0  0  0  0
   47.2325   31.0759   46.0575 C   0  0  0  0  0  0  0  0  0  0  0  0
   46.3931   33.8151   41.0231 C   0  0  0  0  0  0  0  0  0  0  0  0
   47.4229   34.7255   40.8244 C   0  0  0  0  0  0  0  0  0  0  0  0
   48.2574   35.0095   41.9045 C   0  0  0  0  0  0  0  0  0  0  0  0
   48.0233   34.3813   43.1015 N   0  0  0  0  0  0  0  0  0  0  0  0
   46.9952   33.4934   43.2425 C   0  0  0  0  0  0  0  0  0  0  0  0
   46.1798   33.2045   42.2183 N   0  0  0  0  0  0  0  0  0  0  0  0
   45.0464   34.9578   45.0529 S   0  0  0  0  0  0  0  0  0  0  0  0
   48.1358   31.1995   44.1209 H   0  0  0  0  0  0  0  0  0  0  0  0
   44.3335   34.0110   47.7554 H   0  0  0  0  0  0  0  0  0  0  0  0
   44.5854   32.2737   49.6289 H   0  0  0  0  0  0  0  0  0  0  0  0
   47.7439   30.1473   46.3172 H   0  0  0  0  0  0  0  0  0  0  0  0
   45.6837   33.5244   40.2396 H   0  0  0  0  0  0  0  0  0  0  0  0
   47.5425   35.1728   39.8674 H   0  0  0  0  0  0  0  0  0  0  0  0
   49.0722   35.7116   41.7971 H   0  0  0  0  0  0  0  0  0  0  0  0
   46.2369   37.2725   44.4863 C   0  0  0  0  0  0  0  0  0  0  0  0
   45.9426   36.4093   45.5246 C   0  0  0  0  0  0  0  0  0  0  0  0
   46.3629   36.7503   46.7949 C   0  0  0  0  0  0  0  0  0  0  0  0
   46.1129   36.0543   47.5617 H   0  0  0  0  0  0  0  0  0  0  0  0
   47.0553   37.9309   46.9769 C   0  0  0  0  0  0  0  0  0  0  0  0
   47.3601   38.8055   45.9610 C   0  0  0  0  0  0  0  0  0  0  0  0
   46.9338   38.4501   44.7019 C   0  0  0  0  0  0  0  0  0  0  0  0
   48.0635   39.9026   46.4607 O   0  0  0  0  0  0  0  0  0  0  0  0
   47.9244   39.8532   47.8691 C   0  0  1  0  0  0  0  0  0  0  0  0
   48.8840   40.1556   48.3456 H   0  0  0  0  0  0  0  0  0  0  0  0
   47.5834   38.4950   48.1533 O   0  0  0  0  0  0  0  0  0  0  0  0
   45.9570   37.1069   43.4506 H   0  0  0  0  0  0  0  0  0  0  0  0
   47.1691   39.1363   43.8834 H   0  0  0  0  0  0  0  0  0  0  0  0
   47.1235   40.5526   48.1412 H   0  0  0  0  0  0  0  0  0  0  0  0
  1  9  2  0
  2  1  1  0
  2  3  2  0
  3  4  1  0
  4  8  2  0
  4  5  1  0
  5  6  1  0
  7  6  2  0
  8  7  1  0
  9  8  1  0
 10 15  2  0
 11 10  1  0
 11 12  2  0
 12 13  1  0
 13 14  2  0
 14  2  1  0
 15 14  1  0
 16  3  1  0
  1 17  1  0
  5 18  1  0
  6 19  1  0
  9 20  1  0
 10 21  1  0
 11 22  1  0
 12 23  1  0
 24 25  2  0
 25 26  1  0
 26 27  1  0
 26 28  2  0
 28 29  1  0
 29 30  2  0
 29 31  1  0
 31 32  1  0
 32 33  1  1
 32 34  1  0
 30 24  1  0
 34 28  1  0
 24 35  1  0
 30 36  1  0
 32 37  1  0
 16 25  1  0
M  ISO  8  17  14  18   9  19  14  20  14  21  14  22  14  23  14  27  16
M  ISO  1  33   8
M  END
>  <DihAtoms>  (1) 
2,15,24,23

>  <DihDeg>  (1) 
-179.99848780843536

$$$$
