
     RDKit          3D

 56 60  0  0  1  0  0  0  0  0999 V2000
   42.8130   34.3430   38.9700 C   0  0  1  0  0  0  0  0  0  0  0  0
   43.0610   35.1950   40.2090 C   0  0  1  0  0  0  0  0  0  0  0  0
   41.8230   35.6900   40.6590 O   0  0  0  0  0  0  0  0  0  0  0  0
   40.9580   36.0030   39.6100 C   0  0  0  0  0  0  0  0  0  0  0  0
   40.4690   34.7590   38.8920 C   0  0  2  0  0  0  0  0  0  0  0  0
   41.5180   33.6320   39.2000 C   0  0  1  0  0  0  0  0  0  0  0  0
   42.7410   35.1440   37.8230 O   0  0  0  0  0  0  0  0  0  0  0  0
   40.5420   34.9600   37.5200 O   0  0  0  0  0  0  0  0  0  0  0  0
   43.4430   34.2810   41.2100 O   0  0  0  0  0  0  0  0  0  0  0  0
   44.5910   34.3400   41.8930 C   0  0  0  0  0  0  0  0  0  0  0  0
   45.8220   34.4830   41.2350 C   0  0  0  0  0  0  0  0  0  0  0  0
   46.9780   34.5400   41.9960 C   0  0  0  0  0  0  0  0  0  0  0  0
   46.8880   34.4530   43.3730 N   0  0  0  0  0  0  0  0  0  0  0  0
   45.6830   34.3140   43.9750 C   0  0  0  0  0  0  0  0  0  0  0  0
   44.5430   34.2580   43.2390 N   0  0  0  0  0  0  0  0  0  0  0  0
   48.3270   34.6720   41.3680 C   0  0  0  0  0  0  0  0  0  0  0  0
   49.0370   36.0150   41.5430 C   0  0  0  0  0  0  0  0  0  0  0  0
   49.5160   34.6820   42.1560 C   0  0  0  0  0  0  0  0  0  0  0  0
   41.2440   32.5920   38.3880 O   0  0  0  0  0  0  0  0  0  0  0  0
   41.6390   31.3030   38.5100 C   0  0  0  0  0  0  0  0  0  0  0  0
   41.9650   30.5840   37.4660 O   0  0  0  0  0  0  0  0  0  0  0  0
   38.6370   31.0470   40.7800 C   0  0  0  0  0  0  0  0  0  0  0  0
   39.7090   30.7340   41.7800 C   0  0  0  0  0  0  0  0  0  0  0  0
   40.9070   30.4170   41.0770 N   0  0  0  0  0  0  0  0  0  0  0  0
   42.2890   30.4320   40.7530 C   0  0  0  0  0  0  0  0  0  0  0  0
   43.3840   30.6300   41.3550 O   0  0  0  0  0  0  0  0  0  0  0  0
   41.9400   30.1070   39.3490 C   0  0  1  0  0  0  0  0  0  0  0  0
   40.7060   29.5200   39.9880 C   0  0  2  0  0  0  0  0  0  0  0  0
   39.1490   30.1710   39.2750 S   0  0  0  0  0  0  0  0  0  0  0  0
   38.3570   32.4930   40.5690 C   0  0  0  0  0  0  0  0  0  0  0  0
   37.3880   30.3060   41.2760 C   0  0  0  0  0  0  0  0  0  0  0  0
   43.6347   33.6296   38.8088 H   0  0  0  0  0  0  0  0  0  0  0  0
   43.7844   35.9982   40.0049 H   0  0  0  0  0  0  0  0  0  0  0  0
   40.0903   36.5452   40.0138 H   0  0  0  0  0  0  0  0  0  0  0  0
   41.5088   36.6213   38.8858 H   0  0  0  0  0  0  0  0  0  0  0  0
   39.4430   34.5161   39.2055 H   0  0  0  0  0  0  0  0  0  0  0  0
   41.5236   33.1868   40.2059 H   0  0  0  0  0  0  0  0  0  0  0  0
   42.6556   36.0939   38.0887 H   0  0  0  0  0  0  0  0  0  0  0  0
   40.8742   35.8746   37.3377 H   0  0  0  0  0  0  0  0  0  0  0  0
   45.8681   34.5485   40.1379 H   0  0  0  0  0  0  0  0  0  0  0  0
   45.6269   34.2457   45.0714 H   0  0  0  0  0  0  0  0  0  0  0  0
   48.0178   34.0479   40.5166 H   0  0  0  0  0  0  0  0  0  0  0  0
   49.5811   36.4769   40.7060 H   0  0  0  0  0  0  0  0  0  0  0  0
   48.7779   37.0203   41.9066 H   0  0  0  0  0  0  0  0  0  0  0  0
   49.4505   34.5275   43.2431 H   0  0  0  0  0  0  0  0  0  0  0  0
   50.4609   34.1196   42.1256 H   0  0  0  0  0  0  0  0  0  0  0  0
   39.8789   31.6073   42.4269 H   0  0  0  0  0  0  0  0  0  0  0  0
   39.4031   29.8821   42.4050 H   0  0  0  0  0  0  0  0  0  0  0  0
   42.6082   29.5687   38.6607 H   0  0  0  0  0  0  0  0  0  0  0  0
   40.6189   28.4241   40.0268 H   0  0  0  0  0  0  0  0  0  0  0  0
   38.2600   32.9937   41.5436 H   0  0  0  0  0  0  0  0  0  0  0  0
   39.1837   32.9479   40.0037 H   0  0  0  0  0  0  0  0  0  0  0  0
   37.4202   32.6064   40.0037 H   0  0  0  0  0  0  0  0  0  0  0  0
   37.3779   30.3000   42.3759 H   0  0  0  0  0  0  0  0  0  0  0  0
   36.4872   30.8159   40.9038 H   0  0  0  0  0  0  0  0  0  0  0  0
   37.4037   29.2710   40.9038 H   0  0  0  0  0  0  0  0  0  0  0  0
  1  6  1  0
  1  2  1  0
  2  3  1  0
  2  9  1  0
  4  3  1  0
  5  6  1  0
  5  4  1  0
  7  1  1  0
  8  5  1  0
  9 10  1  0
 10 15  1  0
 11 10  2  0
 11 12  1  0
 12 13  2  0
 13 14  1  0
 15 14  2  0
 16 17  1  0
 16 12  1  0
 16 18  1  0
 17 18  1  0
 19 20  1  0
 19  6  1  0
 21 20  2  0
 22 31  1  0
 22 23  1  0
 24 23  1  0
 25 24  1  0
 25 26  2  0
 27 20  1  0
 27 28  1  0
 27 25  1  0
 28 29  1  0
 28 24  1  0
 29 22  1  0
 30 22  1  0
  1 32  1  6
  2 33  1  6
  4 34  1  0
  4 35  1  0
  5 36  1  1
  6 37  1  1
  7 38  1  0
  8 39  1  0
 11 40  1  0
 14 41  1  0
 16 42  1  0
 17 43  1  0
 17 44  1  0
 18 45  1  0
 18 46  1  0
 23 47  1  0
 23 48  1  0
 27 49  1  6
 28 50  1  1
 30 51  1  0
 30 52  1  0
 30 53  1  0
 31 54  1  0
 31 55  1  0
 31 56  1  0
M  ISO  8  32  13  33  13  34  13  35  13  36  13  37  13  38   3  39   3
M  ISO  8  40  14  41  14  42  13  43  13  44  13  45  13  46  13  47  13
M  ISO  8  48  13  49  13  50  13  51   8  52   8  53   8  54   8  55   8
M  ISO  1  56   8
M  END
>  <minimizedAffinity>  (1) 
-6.60177183

>  <minimizedRMSD>  (1) 
0.868385971

$$$$
