
     RDKit          3D

 59 63  0  0  0  0  0  0  0  0999 V2000
   45.6885   33.6875   40.6617 C   0  0  0  0  0  0  0  0  0  0  0  0
   46.1721   33.3389   39.4187 C   0  0  0  0  0  0  0  0  0  0  0  0
   47.4065   33.6954   38.9380 C   0  0  0  0  0  0  0  0  0  0  0  0
   48.1976   34.4657   39.8021 C   0  0  0  0  0  0  0  0  0  0  0  0
   47.7615   34.8377   41.0494 C   0  0  0  0  0  0  0  0  0  0  0  0
   46.5293   34.4593   41.4801 C   0  0  0  0  0  0  0  0  0  0  0  0
   46.1780   34.8847   42.7783 N   0  0  0  0  0  0  0  0  0  0  0  0
   45.3212   35.9966   43.0658 C   0  0  0  0  0  0  0  0  0  0  0  0
   44.7533   35.9070   44.4669 C   0  0  0  0  0  0  0  0  0  0  0  0
   44.4201   34.5892   44.8911 N   0  0  0  0  0  0  0  0  0  0  0  0
   45.4700   33.6437   44.7641 C   0  0  0  0  0  0  0  0  0  0  0  0
   46.6366   34.2564   44.0274 C   0  0  0  0  0  0  0  0  0  0  0  0
   44.3676   33.3090   41.1666 C   0  0  0  0  0  0  0  0  0  0  0  0
   43.3953   33.0264   40.0427 C   0  0  0  0  0  0  0  0  0  0  0  0
   40.7991   35.6992   39.4321 C   0  0  0  0  0  0  0  0  0  0  0  0
   41.9462   34.8927   39.2639 C   0  0  0  0  0  0  0  0  0  0  0  0
   42.2027   33.8901   40.2019 C   0  0  0  0  0  0  0  0  0  0  0  0
   41.3233   33.7371   41.2465 N   0  0  0  0  0  0  0  0  0  0  0  0
   40.2436   34.5292   41.3657 C   0  0  0  0  0  0  0  0  0  0  0  0
   39.9805   35.5013   40.4699 N   0  0  0  0  0  0  0  0  0  0  0  0
   45.6318   32.7407   38.7014 H   0  0  0  0  0  0  0  0  0  0  0  0
   47.8124   33.4432   37.9811 H   0  0  0  0  0  0  0  0  0  0  0  0
   49.1950   34.7807   39.4717 H   0  0  0  0  0  0  0  0  0  0  0  0
   48.4415   35.4358   41.6540 H   0  0  0  0  0  0  0  0  0  0  0  0
   44.6054   36.2848   42.2936 H   0  0  0  0  0  0  0  0  0  0  0  0
   46.0227   36.8834   43.1236 H   0  0  0  0  0  0  0  0  0  0  0  0
   43.8027   36.5072   44.4696 H   0  0  0  0  0  0  0  0  0  0  0  0
   45.4566   36.3283   45.2364 H   0  0  0  0  0  0  0  0  0  0  0  0
   44.0343   34.6555   45.8362 H   0  0  0  0  0  0  0  0  0  0  0  0
   45.8099   33.3821   45.7876 H   0  0  0  0  0  0  0  0  0  0  0  0
   45.1692   32.7171   44.2003 H   0  0  0  0  0  0  0  0  0  0  0  0
   47.2636   33.3975   43.6900 H   0  0  0  0  0  0  0  0  0  0  0  0
   47.1865   34.9914   44.6304 H   0  0  0  0  0  0  0  0  0  0  0  0
   44.5134   32.3592   41.7539 H   0  0  0  0  0  0  0  0  0  0  0  0
   43.9305   34.0196   41.8759 H   0  0  0  0  0  0  0  0  0  0  0  0
   42.9982   31.9714   40.1244 H   0  0  0  0  0  0  0  0  0  0  0  0
   43.7716   33.1558   39.0428 H   0  0  0  0  0  0  0  0  0  0  0  0
   40.5878   36.4756   38.7179 H   0  0  0  0  0  0  0  0  0  0  0  0
   42.5918   35.0786   38.4101 H   0  0  0  0  0  0  0  0  0  0  0  0
   39.4514   34.1651   42.5752 C   0  0  0  0  0  0  0  0  0  0  0  0
   40.3639   33.2794   43.4309 C   0  0  2  0  0  0  0  0  0  0  0  0
   41.5997   34.0687   43.7954 C   0  0  0  0  0  0  0  0  0  0  0  0
   42.5019   33.7755   43.2539 H   0  0  0  0  0  0  0  0  0  0  0  0
   40.6484   32.0409   42.6721 C   0  0  0  0  0  0  0  0  0  0  0  0
   40.0175   30.9065   43.2449 N   0  0  0  0  0  0  0  0  0  0  0  0
   39.8214   29.5168   43.4526 C   0  0  0  0  0  0  0  0  0  0  0  0
   39.9294   28.4530   42.7578 O   0  0  0  0  0  0  0  0  0  0  0  0
   39.4299   29.8800   44.8627 C   0  0  1  0  0  0  0  0  0  0  0  0
   38.6694   29.2066   45.2918 H   0  0  0  0  0  0  0  0  0  0  0  0
   38.9171   31.1021   44.1857 C   0  0  1  0  0  0  0  0  0  0  0  0
   39.4872   32.6958   44.9043 S   0  0  0  0  0  0  0  0  0  0  0  0
   38.5964   33.5001   42.3017 H   0  0  0  0  0  0  0  0  0  0  0  0
   39.0757   35.0421   43.1172 H   0  0  0  0  0  0  0  0  0  0  0  0
   41.4346   35.1565   43.6151 H   0  0  0  0  0  0  0  0  0  0  0  0
   41.7543   33.9648   44.8878 H   0  0  0  0  0  0  0  0  0  0  0  0
   41.7517   31.8973   42.6347 H   0  0  0  0  0  0  0  0  0  0  0  0
   40.3313   32.1444   41.5985 H   0  0  0  0  0  0  0  0  0  0  0  0
   40.3426   30.0707   45.4379 H   0  0  0  0  0  0  0  0  0  0  0  0
   37.9122   31.1045   43.7779 H   0  0  0  0  0  0  0  0  0  0  0  0
  1 13  1  0
  1  6  1  0
  2  1  2  0
  3  2  1  0
  3  4  2  0
  4  5  1  0
  5  6  2  0
  6  7  1  0
  7  8  1  0
  7 12  1  0
  8  9  1  0
  9 10  1  0
 11 10  1  0
 12 11  1  0
 14 17  1  0
 14 13  1  0
 15 20  2  0
 16 15  1  0
 16 17  2  0
 17 18  1  0
 18 19  2  0
 20 19  1  0
  2 21  1  0
  3 22  1  0
  4 23  1  0
  5 24  1  0
  8 25  1  0
  8 26  1  0
  9 27  1  0
  9 28  1  0
 10 29  1  0
 11 30  1  0
 11 31  1  0
 12 32  1  0
 12 33  1  0
 13 34  1  0
 13 35  1  0
 14 36  1  0
 14 37  1  0
 15 38  1  0
 16 39  1  0
 41 40  1  6
 41 42  1  0
 42 43  1  0
 41 44  1  0
 44 45  1  0
 45 46  1  0
 46 47  2  0
 46 48  1  0
 48 49  1  1
 48 50  1  0
 50 51  1  0
 51 41  1  0
 50 45  1  0
 40 52  1  0
 40 53  1  0
 42 54  1  0
 42 55  1  0
 44 56  1  0
 44 57  1  0
 48 58  1  0
 50 59  1  6
 19 40  1  0
M  ISO  8  21  14  22  14  23  14  24  14  25  13  26  13  27  13  28  13
M  ISO  8  29   5  30  13  31  13  32  13  33  13  34   8  35   8  36   8
M  ISO  5  37   8  38  14  39  14  43   8  49  15
M  END
>  <DihAtoms>  (1) 
17,18,39,40

>  <DihDeg>  (1) 
179.99825411799102

$$$$
