
     RDKit          3D

 59 64  0  0  1  0  0  0  0  0999 V2000
   44.9760   33.3500   40.7840 C   0  0  0  0  0  0  0  0  0  0  0  0
   46.2880   33.9100   40.4590 C   0  0  0  0  0  0  0  0  0  0  0  0
   46.9170   33.7550   39.2420 C   0  0  0  0  0  0  0  0  0  0  0  0
   48.1450   34.2820   38.9300 C   0  0  0  0  0  0  0  0  0  0  0  0
   48.7680   35.0200   39.9470 C   0  0  0  0  0  0  0  0  0  0  0  0
   48.1830   35.2010   41.1750 C   0  0  0  0  0  0  0  0  0  0  0  0
   46.9650   34.6580   41.4360 C   0  0  0  0  0  0  0  0  0  0  0  0
   46.4540   34.8950   42.7290 N   0  0  0  0  0  0  0  0  0  0  0  0
   45.5410   35.9470   43.0640 C   0  0  0  0  0  0  0  0  0  0  0  0
   44.8170   35.6570   44.3620 C   0  0  0  0  0  0  0  0  0  0  0  0
   44.4710   34.2890   44.5580 N   0  0  0  0  0  0  0  0  0  0  0  0
   45.5530   33.3810   44.4270 C   0  0  0  0  0  0  0  0  0  0  0  0
   46.7810   34.1020   43.9250 C   0  0  0  0  0  0  0  0  0  0  0  0
   43.9650   33.6120   39.6900 C   0  0  0  0  0  0  0  0  0  0  0  0
   41.4310   35.5000   41.7560 C   0  0  0  0  0  0  0  0  0  0  0  0
   42.6650   35.1100   41.1920 C   0  0  0  0  0  0  0  0  0  0  0  0
   42.6840   34.0350   40.3010 C   0  0  0  0  0  0  0  0  0  0  0  0
   41.4950   33.4070   40.0160 N   0  0  0  0  0  0  0  0  0  0  0  0
   40.3440   33.8120   40.5780 C   0  0  0  0  0  0  0  0  0  0  0  0
   40.3070   34.8490   41.4400 N   0  0  0  0  0  0  0  0  0  0  0  0
   39.2020   32.9750   40.1110 C   0  0  0  0  0  0  0  0  0  0  0  0
   39.3400   31.6290   40.8330 C   0  0  2  0  0  0  0  0  0  0  0  0
   39.9940   30.6760   39.9090 C   0  0  0  0  0  0  0  0  0  0  0  0
   39.1040   29.6640   39.4670 N   0  0  0  0  0  0  0  0  0  0  0  0
   38.7720   28.4090   38.8940 C   0  0  1  0  0  0  0  0  0  0  0  0
   39.2550   27.6450   37.9950 O   0  0  0  0  0  0  0  0  0  0  0  0
   37.5920   28.4000   39.8340 C   0  0  0  0  0  0  0  0  0  0  0  0
   37.6650   29.8700   39.6080 C   0  0  2  0  0  0  0  0  0  0  0  0
   37.7110   30.8970   41.1320 S   0  0  0  0  0  0  0  0  0  0  0  0
   40.0970   31.8470   42.1220 C   0  0  0  0  0  0  0  0  0  0  0  0
   45.0773   32.2634   40.9220 H   0  0  0  0  0  0  0  0  0  0  0  0
   44.6166   33.8344   41.7039 H   0  0  0  0  0  0  0  0  0  0  0  0
   46.3992   33.1690   38.4684 H   0  0  0  0  0  0  0  0  0  0  0  0
   48.6112   34.1349   37.9446 H   0  0  0  0  0  0  0  0  0  0  0  0
   49.7546   35.4669   39.7546 H   0  0  0  0  0  0  0  0  0  0  0  0
   48.7007   35.7864   41.9491 H   0  0  0  0  0  0  0  0  0  0  0  0
   46.1016   36.8876   43.1692 H   0  0  0  0  0  0  0  0  0  0  0  0
   44.7937   36.0261   42.2607 H   0  0  0  0  0  0  0  0  0  0  0  0
   45.4662   35.9687   45.1935 H   0  0  0  0  0  0  0  0  0  0  0  0
   43.8695   36.2142   44.3203 H   0  0  0  0  0  0  0  0  0  0  0  0
   44.0808   34.1891   45.5060 H   0  0  0  0  0  0  0  0  0  0  0  0
   45.7708   32.9315   45.4071 H   0  0  0  0  0  0  0  0  0  0  0  0
   45.2779   32.5964   43.7067 H   0  0  0  0  0  0  0  0  0  0  0  0
   47.5564   33.3644   43.6706 H   0  0  0  0  0  0  0  0  0  0  0  0
   47.1471   34.7767   44.7128 H   0  0  0  0  0  0  0  0  0  0  0  0
   43.8083   32.6929   39.1062 H   0  0  0  0  0  0  0  0  0  0  0  0
   44.3372   34.4058   39.0256 H   0  0  0  0  0  0  0  0  0  0  0  0
   41.3942   36.3446   42.4597 H   0  0  0  0  0  0  0  0  0  0  0  0
   43.5927   35.6421   41.4492 H   0  0  0  0  0  0  0  0  0  0  0  0
   38.2462   33.4526   40.3726 H   0  0  0  0  0  0  0  0  0  0  0  0
   39.2158   32.8489   39.0183 H   0  0  0  0  0  0  0  0  0  0  0  0
   40.3650   31.2290   39.0335 H   0  0  0  0  0  0  0  0  0  0  0  0
   40.8172   30.1889   40.4522 H   0  0  0  0  0  0  0  0  0  0  0  0
   39.7318   26.8909   38.4241 H   0  0  0  0  0  0  0  0  0  0  0  0
   36.6852   27.9021   39.4601 H   0  0  0  0  0  0  0  0  0  0  0  0
   37.5859   27.9201   40.8238 H   0  0  0  0  0  0  0  0  0  0  0  0
   39.4304   31.6550   42.9757 H   0  0  0  0  0  0  0  0  0  0  0  0
   40.9545   31.1593   42.1645 H   0  0  0  0  0  0  0  0  0  0  0  0
   40.4574   32.8854   42.1645 H   0  0  0  0  0  0  0  0  0  0  0  0
  2  1  1  0
  2  7  1  0
  3  2  2  0
  4  3  1  0
  4  5  2  0
  5  6  1  0
  6  7  2  0
  7  8  1  0
  8  9  1  0
  8 13  1  0
  9 10  1  0
 10 11  1  0
 12 11  1  0
 13 12  1  0
 14 17  1  0
 14  1  1  0
 16 15  2  0
 17 16  1  0
 18 17  2  0
 18 19  1  0
 19 20  2  0
 20 15  1  0
 21 19  1  0
 22 21  1  6
 22 29  1  0
 22 30  1  0
 23 22  1  0
 24 28  1  0
 24 23  1  0
 25 26  1  6
 25 24  1  0
 25 28  1  0
 25 27  1  0
 28 27  1  0
 28 29  1  6
  1 31  1  0
  1 32  1  0
  3 33  1  0
  4 34  1  0
  5 35  1  0
  6 36  1  0
  9 37  1  0
  9 38  1  0
 10 39  1  0
 10 40  1  0
 11 41  1  0
 12 42  1  0
 12 43  1  0
 13 44  1  0
 13 45  1  0
 14 46  1  0
 14 47  1  0
 15 48  1  0
 16 49  1  0
 21 50  1  0
 21 51  1  0
 23 52  1  0
 23 53  1  0
 26 54  1  0
 27 55  1  0
 27 56  1  0
 30 57  1  0
 30 58  1  0
 30 59  1  0
M  ISO  8  31   8  32   8  33  14  34  14  35  14  36  14  37  13  38  13
M  ISO  8  39  13  40  13  41   5  42  13  43  13  44  13  45  13  46   8
M  ISO  8  47   8  48  14  49  14  50   8  51   8  52  13  53  13  54   3
M  ISO  5  55  13  56  13  57   8  58   8  59   8
M  END
>  <minimizedAffinity>  (1) 
-6.26776171

>  <minimizedRMSD>  (1) 
3.29025173

$$$$
