
     RDKit          3D

 50 54  0  0  0  0  0  0  0  0999 V2000
   47.9069   33.1801   38.1929 C   0  0  2  0  0  0  0  0  0  0  0  0
   48.9062   32.3144   38.8635 C   0  0  0  0  0  0  0  0  0  0  0  0
   49.0769   32.6701   40.2230 N   0  0  0  0  0  0  0  0  0  0  0  0
   49.5050   33.0536   41.5208 C   0  0  0  0  0  0  0  0  0  0  0  0
   50.7047   33.1758   41.9271 O   0  0  0  0  0  0  0  0  0  0  0  0
   48.1592   33.2094   42.0561 C   0  0  2  0  0  0  0  0  0  0  0  0
   47.7654   32.5792   40.7410 C   0  0  1  0  0  0  0  0  0  0  0  0
   46.8599   33.6622   39.6014 S   0  0  0  0  0  0  0  0  0  0  0  0
   47.8121   34.6208   42.2687 C   0  0  0  0  0  0  0  0  0  0  0  0
   48.3217   35.6166   41.7003 O   0  0  0  0  0  0  0  0  0  0  0  0
   44.7738   35.7859   43.9952 C   0  0  0  0  0  0  0  0  0  0  0  0
   45.8138   35.6821   43.0570 C   0  0  0  0  0  0  0  0  0  0  0  0
   46.7782   34.6864   43.2542 C   0  0  0  0  0  0  0  0  0  0  0  0
   46.6759   33.8638   44.3345 N   0  0  0  0  0  0  0  0  0  0  0  0
   45.6489   33.9983   45.2231 C   0  0  0  0  0  0  0  0  0  0  0  0
   44.6905   34.9601   45.0600 N   0  0  0  0  0  0  0  0  0  0  0  0
   47.0575   32.3156   37.2965 C   0  0  0  0  0  0  0  0  0  0  0  0
   48.4894   34.3494   37.4756 C   0  0  0  0  0  0  0  0  0  0  0  0
   48.6151   31.2492   38.8139 H   0  0  0  0  0  0  0  0  0  0  0  0
   49.8985   32.4235   38.3398 H   0  0  0  0  0  0  0  0  0  0  0  0
   48.0029   32.5382   42.9200 H   0  0  0  0  0  0  0  0  0  0  0  0
   47.3273   31.5715   40.8806 H   0  0  0  0  0  0  0  0  0  0  0  0
   44.0049   36.5456   43.8784 H   0  0  0  0  0  0  0  0  0  0  0  0
   45.8300   36.3738   42.2197 H   0  0  0  0  0  0  0  0  0  0  0  0
   45.6928   33.2790   46.0321 H   0  0  0  0  0  0  0  0  0  0  0  0
   46.9285   31.3234   37.8002 H   0  0  0  0  0  0  0  0  0  0  0  0
   46.0467   32.7603   37.2584 H   0  0  0  0  0  0  0  0  0  0  0  0
   47.5190   32.1758   36.3030 H   0  0  0  0  0  0  0  0  0  0  0  0
   49.1400   33.9202   36.6576 H   0  0  0  0  0  0  0  0  0  0  0  0
   49.2006   34.9075   38.1151 H   0  0  0  0  0  0  0  0  0  0  0  0
   44.9133   36.2494   32.9658 C   0  0  0  0  0  0  0  0  0  0  0  0
   43.8048   36.0974   32.8343 H   0  0  0  0  0  0  0  0  0  0  0  0
   45.4918   34.9778   33.4820 C   0  0  0  0  0  0  0  0  0  0  0  0
   44.8967   33.7711   32.7885 C   0  0  0  0  0  0  0  0  0  0  0  0
   44.8421   32.8742   33.4460 H   0  0  0  0  0  0  0  0  0  0  0  0
   46.9816   34.9393   33.5054 C   0  0  0  0  0  0  0  0  0  0  0  0
   47.4893   35.5273   34.6984 N   0  0  0  0  0  0  0  0  0  0  0  0
   48.0390   36.1996   35.7861 C   0  0  0  0  0  0  0  0  0  0  0  0
   48.7298   37.2707   35.6619 O   0  0  0  0  0  0  0  0  0  0  0  0
   47.5092   35.2441   36.7766 C   0  0  1  0  0  0  0  0  0  0  0  0
   46.9672   34.5548   35.5784 C   0  0  1  0  0  0  0  0  0  0  0  0
   45.1647   34.7656   35.2805 S   0  0  0  0  0  0  0  0  0  0  0  0
   45.0188   37.1041   33.6346 H   0  0  0  0  0  0  0  0  0  0  0  0
   45.3025   36.4201   31.9551 H   0  0  0  0  0  0  0  0  0  0  0  0
   45.5843   33.5128   31.9405 H   0  0  0  0  0  0  0  0  0  0  0  0
   43.9265   34.0292   32.3282 H   0  0  0  0  0  0  0  0  0  0  0  0
   47.3145   33.8851   33.4198 H   0  0  0  0  0  0  0  0  0  0  0  0
   47.3360   35.4327   32.5722 H   0  0  0  0  0  0  0  0  0  0  0  0
   46.7531   35.7096   37.4550 H   0  0  0  0  0  0  0  0  0  0  0  0
   47.3024   33.5068   35.4283 H   0  0  0  0  0  0  0  0  0  0  0  0
  1  2  1  0
  1  8  1  0
  2  3  1  0
  3  7  1  0
  3  4  1  0
  4  5  2  0
  4  6  1  0
  6  9  1  0
  7  8  1  0
  7  6  1  0
  9 13  1  0
 10  9  2  0
 11 16  2  0
 12 13  2  0
 12 11  1  0
 13 14  1  0
 14 15  2  0
 16 15  1  0
  1 17  1  6
 18  1  1  0
  2 19  1  0
  2 20  1  0
  6 21  1  1
  7 22  1  1
 11 23  1  0
 12 24  1  0
 15 25  1  0
 17 26  1  0
 17 27  1  0
 17 28  1  0
 18 29  1  0
 18 30  1  0
 31 32  1  0
 31 33  1  0
 33 34  1  0
 34 35  1  0
 33 36  1  0
 36 37  1  0
 37 38  1  0
 38 39  2  0
 38 40  1  0
 40 41  1  0
 41 42  1  0
 42 33  1  0
 41 37  1  0
 31 43  1  0
 31 44  1  0
 34 45  1  0
 34 46  1  0
 36 47  1  0
 36 48  1  0
 40 49  1  1
 41 50  1  6
 18 40  1  0
M  ISO  8  19  13  20  13  21  13  22  13  23  14  24  14  25  14  26   8
M  ISO  6  27   8  28   8  29   8  30   8  32   8  35   8
M  END
>  <DihAtoms>  (1) 
0,17,39,37

>  <DihDeg>  (1) 
60.090521946855254

$$$$
