
     RDKit          3D

 52 55  0  0  0  0  0  0  0  0999 V2000
   45.3463   34.6860   42.3519 C   0  0  0  0  0  0  0  0  0  0  0  0
   46.4697   35.2147   41.6500 C   0  0  0  0  0  0  0  0  0  0  0  0
   47.7329   34.9248   42.1990 C   0  0  0  0  0  0  0  0  0  0  0  0
   47.7823   34.1861   43.3208 N   0  0  0  0  0  0  0  0  0  0  0  0
   46.6848   33.7091   43.9468 C   0  0  0  0  0  0  0  0  0  0  0  0
   45.4577   33.9664   43.4505 N   0  0  0  0  0  0  0  0  0  0  0  0
   43.7412   34.1457   40.7313 C   0  0  0  0  0  0  0  0  0  0  0  0
   44.6479   33.3735   40.2687 O   0  0  0  0  0  0  0  0  0  0  0  0
   44.0214   34.9338   41.8614 N   0  0  0  0  0  0  0  0  0  0  0  0
   42.4921   34.1492   40.0559 N   0  0  0  0  0  0  0  0  0  0  0  0
   42.3915   33.5562   38.7077 C   0  0  0  0  0  0  0  0  0  0  0  0
   41.3168   34.3852   38.0743 C   0  0  0  0  0  0  0  0  0  0  0  0
   40.8209   35.3127   39.1449 C   0  0  0  0  0  0  0  0  0  0  0  0
   41.1947   34.6207   40.4332 C   0  0  1  0  0  0  0  0  0  0  0  0
   38.8985   33.5062   40.7401 C   0  0  0  0  0  0  0  0  0  0  0  0
   38.4982   34.5068   40.1109 O   0  0  0  0  0  0  0  0  0  0  0  0
   40.3472   33.4965   40.7959 N   0  0  0  0  0  0  0  0  0  0  0  0
   48.8633   35.4764   41.4631 C   0  0  0  0  0  0  0  0  0  0  0  0
   49.9978   34.7287   41.7680 F   0  0  0  0  0  0  0  0  0  0  0  0
   49.1125   36.7518   41.9871 F   0  0  0  0  0  0  0  0  0  0  0  0
   48.6942   35.4794   40.1125 F   0  0  0  0  0  0  0  0  0  0  0  0
   46.2404   35.7839   40.7688 H   0  0  0  0  0  0  0  0  0  0  0  0
   46.7953   33.1103   44.8625 H   0  0  0  0  0  0  0  0  0  0  0  0
   43.2753   35.5583   42.1773 H   0  0  0  0  0  0  0  0  0  0  0  0
   42.0910   32.5020   38.9017 H   0  0  0  0  0  0  0  0  0  0  0  0
   43.3428   33.5786   38.1754 H   0  0  0  0  0  0  0  0  0  0  0  0
   41.7295   34.9260   37.1965 H   0  0  0  0  0  0  0  0  0  0  0  0
   40.4935   33.6808   37.7855 H   0  0  0  0  0  0  0  0  0  0  0  0
   39.9490   35.8643   39.0174 H   0  0  0  0  0  0  0  0  0  0  0  0
   41.6273   36.1281   39.1208 H   0  0  0  0  0  0  0  0  0  0  0  0
   41.2003   35.3412   41.2472 H   0  0  0  0  0  0  0  0  0  0  0  0
   40.8442   32.6113   41.1239 H   0  0  0  0  0  0  0  0  0  0  0  0
   35.7721   28.1480   39.7873 C   0  0  0  0  0  0  0  0  0  0  0  0
   34.7747   27.6605   39.9518 H   0  0  0  0  0  0  0  0  0  0  0  0
   35.9395   29.3170   40.6893 C   0  0  0  0  0  0  0  0  0  0  0  0
   35.1003   29.3151   41.9241 C   0  0  0  0  0  0  0  0  0  0  0  0
   35.7994   29.4618   42.7952 H   0  0  0  0  0  0  0  0  0  0  0  0
   35.6457   30.6413   39.9670 C   0  0  0  0  0  0  0  0  0  0  0  0
   36.3305   31.6726   40.7435 N   0  0  0  0  0  0  0  0  0  0  0  0
   36.7814   32.7469   41.5637 C   0  0  0  0  0  0  0  0  0  0  0  0
   36.0325   33.6072   42.1379 O   0  0  0  0  0  0  0  0  0  0  0  0
   38.2148   32.3858   41.4057 C   0  0  1  0  0  0  0  0  0  0  0  0
   37.7256   31.3681   40.4454 C   0  0  1  0  0  0  0  0  0  0  0  0
   37.7157   29.6339   41.0550 S   0  0  0  0  0  0  0  0  0  0  0  0
   36.5087   27.3279   39.9593 H   0  0  0  0  0  0  0  0  0  0  0  0
   35.8033   28.4194   38.7040 H   0  0  0  0  0  0  0  0  0  0  0  0
   34.4077   30.2024   42.0050 H   0  0  0  0  0  0  0  0  0  0  0  0
   34.4633   28.4235   42.0307 H   0  0  0  0  0  0  0  0  0  0  0  0
   34.5730   30.8485   39.8833 H   0  0  0  0  0  0  0  0  0  0  0  0
   36.1259   30.6586   38.9573 H   0  0  0  0  0  0  0  0  0  0  0  0
   38.7183   32.0394   42.3187 H   0  0  0  0  0  0  0  0  0  0  0  0
   38.0242   31.4720   39.3899 H   0  0  0  0  0  0  0  0  0  0  0  0
  1  6  2  0
  2  3  2  0
  2  1  1  0
  3  4  1  0
  4  5  2  0
  6  5  1  0
  7  9  1  0
  8  7  2  0
  9  1  1  0
 10 14  1  0
 10  7  1  0
 11 10  1  0
 12 11  1  0
 12 13  1  0
 13 14  1  0
 14 17  1  0
 15 17  1  0
 16 15  2  0
 18 19  1  0
 18 20  1  0
 18  3  1  0
 21 18  1  0
  2 22  1  0
  5 23  1  0
  9 24  1  0
 11 25  1  0
 11 26  1  0
 12 27  1  0
 12 28  1  0
 13 29  1  0
 13 30  1  0
 14 31  1  1
 17 32  1  0
 33 34  1  0
 33 35  1  0
 35 36  1  0
 36 37  1  0
 35 38  1  0
 38 39  1  0
 39 40  1  0
 40 41  2  0
 40 42  1  0
 42 43  1  0
 43 44  1  0
 44 35  1  0
 43 39  1  0
 33 45  1  0
 33 46  1  0
 36 47  1  0
 36 48  1  0
 38 49  1  0
 38 50  1  0
 42 51  1  1
 43 52  1  6
 15 42  1  0
M  ISO  8  22  14  23  14  25  13  26  13  27  13  28  13  29  13  30  13
M  ISO  3  31  13  34   8  37   8
M  END
>  <DihAtoms>  (1) 
16,14,41,39

>  <DihDeg>  (1) 
-59.998187052008035

$$$$
