
     RDKit          3D

 50 53  0  0  1  0  0  0  0  0999 V2000
   44.3700   34.5860   41.9720 C   0  0  0  0  0  0  0  0  0  0  0  0
   45.3220   33.7500   41.3830 C   0  0  0  0  0  0  0  0  0  0  0  0
   46.2790   33.1370   42.1970 C   0  0  0  0  0  0  0  0  0  0  0  0
   46.2190   33.3960   43.5220 N   0  0  0  0  0  0  0  0  0  0  0  0
   45.2970   34.2020   44.0770 C   0  0  0  0  0  0  0  0  0  0  0  0
   44.3890   34.7850   43.2970 N   0  0  0  0  0  0  0  0  0  0  0  0
   45.3660   34.3810   45.5120 C   0  0  0  0  0  0  0  0  0  0  0  0
   44.5310   35.1690   46.0390 O   0  0  0  0  0  0  0  0  0  0  0  0
   46.3620   33.6630   46.2410 N   0  0  0  0  0  0  0  0  0  0  0  0
   43.1740   35.3430   40.8820 S   0  0  0  0  0  0  0  0  0  0  0  0
   41.5200   35.4150   41.5910 C   0  0  0  0  0  0  0  0  0  0  0  0
   40.5310   36.1370   40.7400 C   0  0  0  0  0  0  0  0  0  0  0  0
   41.4220   36.3750   37.8430 Cl  0  0  0  0  0  0  0  0  0  0  0  0
   40.2310   35.2400   38.4090 C   0  0  0  0  0  0  0  0  0  0  0  0
   39.8950   35.2160   39.7590 C   0  0  0  0  0  0  0  0  0  0  0  0
   38.9530   34.2990   40.1310 C   0  0  0  0  0  0  0  0  0  0  0  0
   38.3010   33.3940   39.2910 C   0  0  0  0  0  0  0  0  0  0  0  0
   38.6550   33.4450   37.9680 C   0  0  0  0  0  0  0  0  0  0  0  0
   37.8800   32.3370   36.8420 Cl  0  0  0  0  0  0  0  0  0  0  0  0
   39.5970   34.3480   37.5400 C   0  0  0  0  0  0  0  0  0  0  0  0
   47.2750   32.2590   41.5490 C   0  0  0  0  0  0  0  0  0  0  0  0
   48.1960   33.1060   40.7250 C   0  0  2  0  0  0  0  0  0  0  0  0
   47.5490   34.1250   39.8640 C   0  0  0  0  0  0  0  0  0  0  0  0
   47.4310   33.5940   38.5260 N   0  0  0  0  0  0  0  0  0  0  0  0
   46.9250   33.1830   37.2520 C   0  0  0  0  0  0  0  0  0  0  0  0
   45.8700   33.5100   36.6400 O   0  0  0  0  0  0  0  0  0  0  0  0
   48.0760   32.2810   36.9790 C   0  0  0  0  0  0  0  0  0  0  0  0
   48.7220   33.0950   38.0650 C   0  0  2  0  0  0  0  0  0  0  0  0
   49.1700   32.1200   39.5520 S   0  0  0  0  0  0  0  0  0  0  0  0
   49.1810   33.7850   41.6680 C   0  0  0  0  0  0  0  0  0  0  0  0
   45.3185   33.5770   40.2967 H   0  0  0  0  0  0  0  0  0  0  0  0
   46.4318   33.7730   47.2627 H   0  0  0  0  0  0  0  0  0  0  0  0
   47.0106   33.0351   45.7451 H   0  0  0  0  0  0  0  0  0  0  0  0
   41.1621   34.3858   41.7414 H   0  0  0  0  0  0  0  0  0  0  0  0
   41.6000   35.9751   42.5343 H   0  0  0  0  0  0  0  0  0  0  0  0
   39.7514   36.5701   41.3839 H   0  0  0  0  0  0  0  0  0  0  0  0
   41.0581   36.9277   40.1860 H   0  0  0  0  0  0  0  0  0  0  0  0
   38.6816   34.2709   41.1966 H   0  0  0  0  0  0  0  0  0  0  0  0
   37.5499   32.6842   39.6678 H   0  0  0  0  0  0  0  0  0  0  0  0
   39.8625   34.3700   36.4728 H   0  0  0  0  0  0  0  0  0  0  0  0
   47.8522   31.7235   42.3172 H   0  0  0  0  0  0  0  0  0  0  0  0
   46.7666   31.5239   40.9077 H   0  0  0  0  0  0  0  0  0  0  0  0
   46.5495   34.3615   40.2578 H   0  0  0  0  0  0  0  0  0  0  0  0
   48.1546   35.0432   39.8506 H   0  0  0  0  0  0  0  0  0  0  0  0
   47.9147   31.2180   37.2115 H   0  0  0  0  0  0  0  0  0  0  0  0
   48.5134   32.1191   35.9828 H   0  0  0  0  0  0  0  0  0  0  0  0
   49.5891   33.6873   37.7374 H   0  0  0  0  0  0  0  0  0  0  0  0
   48.8895   33.5841   42.7095 H   0  0  0  0  0  0  0  0  0  0  0  0
   50.1921   33.3912   41.4877 H   0  0  0  0  0  0  0  0  0  0  0  0
   49.1726   34.8701   41.4877 H   0  0  0  0  0  0  0  0  0  0  0  0
  1  6  1  0
  2  1  2  0
  2  3  1  0
  3  4  2  0
  4  5  1  0
  5  7  1  0
  6  5  2  0
  7  8  2  0
  7  9  1  0
 10 11  1  0
 10  1  1  0
 12 11  1  0
 13 14  1  0
 14 15  2  0
 15 16  1  0
 15 12  1  0
 17 16  2  0
 18 17  1  0
 19 18  1  0
 20 18  2  0
 20 14  1  0
 21  3  1  0
 22 21  1  1
 22 30  1  0
 23 22  1  0
 24 23  1  0
 25 24  1  0
 26 25  2  0
 27 25  1  0
 28 27  1  0
 28 24  1  0
 28 29  1  0
 29 22  1  0
  2 31  1  0
  9 32  1  0
  9 33  1  0
 11 34  1  0
 11 35  1  0
 12 36  1  0
 12 37  1  0
 16 38  1  0
 17 39  1  0
 20 40  1  0
 21 41  1  0
 21 42  1  0
 23 43  1  0
 23 44  1  0
 27 45  1  0
 27 46  1  0
 28 47  1  6
 30 48  1  0
 30 49  1  0
 30 50  1  0
M  ISO  8  31  14  34   8  35   8  36   8  37   8  38  14  39  14  40  14
M  ISO  8  41   8  42   8  43  13  44  13  45  13  46  13  47  13  48   8
M  ISO  2  49   8  50   8
M  END
>  <minimizedAffinity>  (1) 
-6.99958277

>  <minimizedRMSD>  (1) 
1.8111186

$$$$
