
     RDKit          3D

 50 54  0  0  0  0  0  0  0  0999 V2000
   47.9069   33.1801   38.1929 C   0  0  2  0  0  0  0  0  0  0  0  0
   48.9062   32.3144   38.8635 C   0  0  0  0  0  0  0  0  0  0  0  0
   49.0769   32.6701   40.2230 N   0  0  0  0  0  0  0  0  0  0  0  0
   49.5050   33.0536   41.5208 C   0  0  0  0  0  0  0  0  0  0  0  0
   50.7047   33.1758   41.9271 O   0  0  0  0  0  0  0  0  0  0  0  0
   48.1592   33.2094   42.0561 C   0  0  2  0  0  0  0  0  0  0  0  0
   47.7654   32.5792   40.7410 C   0  0  1  0  0  0  0  0  0  0  0  0
   46.8599   33.6622   39.6014 S   0  0  0  0  0  0  0  0  0  0  0  0
   47.8121   34.6208   42.2687 C   0  0  0  0  0  0  0  0  0  0  0  0
   48.3217   35.6166   41.7003 O   0  0  0  0  0  0  0  0  0  0  0  0
   44.7738   35.7859   43.9952 C   0  0  0  0  0  0  0  0  0  0  0  0
   45.8138   35.6821   43.0570 C   0  0  0  0  0  0  0  0  0  0  0  0
   46.7782   34.6864   43.2542 C   0  0  0  0  0  0  0  0  0  0  0  0
   46.6759   33.8638   44.3345 N   0  0  0  0  0  0  0  0  0  0  0  0
   45.6489   33.9983   45.2231 C   0  0  0  0  0  0  0  0  0  0  0  0
   44.6905   34.9601   45.0600 N   0  0  0  0  0  0  0  0  0  0  0  0
   47.0575   32.3156   37.2965 C   0  0  0  0  0  0  0  0  0  0  0  0
   48.4894   34.3494   37.4756 C   0  0  0  0  0  0  0  0  0  0  0  0
   48.6151   31.2492   38.8139 H   0  0  0  0  0  0  0  0  0  0  0  0
   49.8985   32.4235   38.3398 H   0  0  0  0  0  0  0  0  0  0  0  0
   48.0029   32.5382   42.9200 H   0  0  0  0  0  0  0  0  0  0  0  0
   47.3273   31.5715   40.8806 H   0  0  0  0  0  0  0  0  0  0  0  0
   44.0049   36.5456   43.8784 H   0  0  0  0  0  0  0  0  0  0  0  0
   45.8300   36.3738   42.2197 H   0  0  0  0  0  0  0  0  0  0  0  0
   45.6928   33.2790   46.0321 H   0  0  0  0  0  0  0  0  0  0  0  0
   46.9285   31.3234   37.8002 H   0  0  0  0  0  0  0  0  0  0  0  0
   46.0467   32.7603   37.2584 H   0  0  0  0  0  0  0  0  0  0  0  0
   47.5190   32.1758   36.3030 H   0  0  0  0  0  0  0  0  0  0  0  0
   49.1400   33.9202   36.6576 H   0  0  0  0  0  0  0  0  0  0  0  0
   49.2006   34.9075   38.1151 H   0  0  0  0  0  0  0  0  0  0  0  0
   43.6182   35.7608   34.1565 C   0  0  0  0  0  0  0  0  0  0  0  0
   42.5958   36.0794   34.5065 H   0  0  0  0  0  0  0  0  0  0  0  0
   44.0895   34.6690   35.0531 C   0  0  0  0  0  0  0  0  0  0  0  0
   42.9801   33.6900   35.3724 C   0  0  0  0  0  0  0  0  0  0  0  0
   43.0775   33.2368   36.3847 H   0  0  0  0  0  0  0  0  0  0  0  0
   45.3330   33.9857   34.5965 C   0  0  0  0  0  0  0  0  0  0  0  0
   46.4917   34.6916   35.0276 N   0  0  0  0  0  0  0  0  0  0  0  0
   47.6498   35.4072   35.3177 C   0  0  0  0  0  0  0  0  0  0  0  0
   48.3919   35.9224   34.4101 O   0  0  0  0  0  0  0  0  0  0  0  0
   47.5092   35.2441   36.7766 C   0  0  1  0  0  0  0  0  0  0  0  0
   46.2975   34.4693   36.4080 C   0  0  1  0  0  0  0  0  0  0  0  0
   44.6906   35.3266   36.6634 S   0  0  0  0  0  0  0  0  0  0  0  0
   44.2318   36.6621   34.1724 H   0  0  0  0  0  0  0  0  0  0  0  0
   43.4624   35.3419   33.1553 H   0  0  0  0  0  0  0  0  0  0  0  0
   43.0634   32.8526   34.6305 H   0  0  0  0  0  0  0  0  0  0  0  0
   41.9931   34.1547   35.2000 H   0  0  0  0  0  0  0  0  0  0  0  0
   45.3393   32.9501   34.9928 H   0  0  0  0  0  0  0  0  0  0  0  0
   45.2573   33.8735   33.4913 H   0  0  0  0  0  0  0  0  0  0  0  0
   47.3269   36.2155   37.2980 H   0  0  0  0  0  0  0  0  0  0  0  0
   46.2740   33.4131   36.7505 H   0  0  0  0  0  0  0  0  0  0  0  0
  1  2  1  0
  1  8  1  0
  2  3  1  0
  3  7  1  0
  3  4  1  0
  4  5  2  0
  4  6  1  0
  6  9  1  0
  7  8  1  0
  7  6  1  0
  9 13  1  0
 10  9  2  0
 11 16  2  0
 12 13  2  0
 12 11  1  0
 13 14  1  0
 14 15  2  0
 16 15  1  0
  1 17  1  6
 18  1  1  0
  2 19  1  0
  2 20  1  0
  6 21  1  1
  7 22  1  1
 11 23  1  0
 12 24  1  0
 15 25  1  0
 17 26  1  0
 17 27  1  0
 17 28  1  0
 18 29  1  0
 18 30  1  0
 31 32  1  0
 31 33  1  0
 33 34  1  0
 34 35  1  0
 33 36  1  0
 36 37  1  0
 37 38  1  0
 38 39  2  0
 38 40  1  0
 40 41  1  0
 41 42  1  0
 42 33  1  0
 41 37  1  0
 31 43  1  0
 31 44  1  0
 34 45  1  0
 34 46  1  0
 36 47  1  0
 36 48  1  0
 40 49  1  1
 41 50  1  6
 18 40  1  0
M  ISO  8  19  13  20  13  21  13  22  13  23  14  24  14  25  14  26   8
M  ISO  6  27   8  28   8  29   8  30   8  32   8  35   8
M  END
>  <DihAtoms>  (1) 
0,17,39,37

>  <DihDeg>  (1) 
60.090521946855254

$$$$
