
     RDKit          3D

 39 42  0  0  0  0  0  0  0  0999 V2000
   46.0790   34.1564   41.0064 C   0  0  0  0  0  0  0  0  0  0  0  0
   46.6209   34.8304   42.0992 C   0  0  0  0  0  0  0  0  0  0  0  0
   47.9411   35.2762   41.9850 C   0  0  0  0  0  0  0  0  0  0  0  0
   48.6090   35.0264   40.8239 N   0  0  0  0  0  0  0  0  0  0  0  0
   48.0507   34.3744   39.7966 C   0  0  0  0  0  0  0  0  0  0  0  0
   46.7768   33.9379   39.8920 N   0  0  0  0  0  0  0  0  0  0  0  0
   45.8081   35.0422   43.2979 C   0  0  0  0  0  0  0  0  0  0  0  0
   45.0471   36.1849   43.4968 C   0  0  0  0  0  0  0  0  0  0  0  0
   44.4599   35.9662   44.7263 C   0  0  0  0  0  0  0  0  0  0  0  0
   44.8387   34.7708   45.2400 N   0  0  0  0  0  0  0  0  0  0  0  0
   45.6521   34.2357   44.3563 N   0  0  0  0  0  0  0  0  0  0  0  0
   44.7812   33.7101   41.0997 O   0  0  0  0  0  0  0  0  0  0  0  0
   43.6944   34.1917   40.4274 C   0  0  0  0  0  0  0  0  0  0  0  0
   43.2510   35.3856   40.4154 O   0  0  0  0  0  0  0  0  0  0  0  0
   48.3567   35.7908   42.8178 H   0  0  0  0  0  0  0  0  0  0  0  0
   48.5651   34.1669   38.8673 H   0  0  0  0  0  0  0  0  0  0  0  0
   44.9154   37.0680   42.8611 H   0  0  0  0  0  0  0  0  0  0  0  0
   43.7785   36.6481   45.2381 H   0  0  0  0  0  0  0  0  0  0  0  0
   44.5146   34.4006   46.1625 H   0  0  0  0  0  0  0  0  0  0  0  0
   42.1379   30.3837   35.5432 C   0  0  0  0  0  0  0  0  0  0  0  0
   41.8689   29.3308   35.7679 H   0  0  0  0  0  0  0  0  0  0  0  0
   41.7355   31.3001   36.6767 C   0  0  0  0  0  0  0  0  0  0  0  0
   40.3603   31.8378   36.4262 C   0  0  0  0  0  0  0  0  0  0  0  0
   40.1505   32.8118   36.9112 H   0  0  0  0  0  0  0  0  0  0  0  0
   41.8720   30.5915   38.0086 C   0  0  0  0  0  0  0  0  0  0  0  0
   42.0664   31.6199   39.0151 N   0  0  0  0  0  0  0  0  0  0  0  0
   41.9222   32.4617   40.1787 C   0  0  0  0  0  0  0  0  0  0  0  0
   41.3291   32.1853   41.2767 O   0  0  0  0  0  0  0  0  0  0  0  0
   42.6763   33.5523   39.5118 C   0  0  2  0  0  0  0  0  0  0  0  0
   43.2236   32.4323   38.6864 C   0  0  2  0  0  0  0  0  0  0  0  0
   42.9780   32.6347   36.8886 S   0  0  0  0  0  0  0  0  0  0  0  0
   41.6246   30.6494   34.5956 H   0  0  0  0  0  0  0  0  0  0  0  0
   43.2313   30.4043   35.3563 H   0  0  0  0  0  0  0  0  0  0  0  0
   40.2678   32.0019   35.3145 H   0  0  0  0  0  0  0  0  0  0  0  0
   39.6193   31.0685   36.6846 H   0  0  0  0  0  0  0  0  0  0  0  0
   40.9430   30.0677   38.2431 H   0  0  0  0  0  0  0  0  0  0  0  0
   42.7207   29.8803   37.9717 H   0  0  0  0  0  0  0  0  0  0  0  0
   42.0492   34.2453   38.9627 H   0  0  0  0  0  0  0  0  0  0  0  0
   44.2071   32.0302   38.9881 H   0  0  0  0  0  0  0  0  0  0  0  0
  1 12  1  0
  1  2  1  0
  2  7  1  0
  3  2  2  0
  4  3  1  0
  5  6  1  0
  5  4  2  0
  6  1  2  0
  7  8  1  0
  7 11  2  0
  8  9  2  0
  9 10  1  0
 11 10  1  0
 13 14  2  0
 13 12  1  0
  3 15  1  0
  5 16  1  0
  8 17  1  0
  9 18  1  0
 10 19  1  0
 20 21  1  0
 20 22  1  0
 22 23  1  0
 23 24  1  0
 22 25  1  0
 25 26  1  0
 26 27  1  0
 27 28  2  0
 27 29  1  0
 29 30  1  0
 30 31  1  0
 31 22  1  0
 30 26  1  0
 20 32  1  0
 20 33  1  0
 23 34  1  0
 23 35  1  0
 25 36  1  0
 25 37  1  0
 29 38  1  6
 30 39  1  6
 13 29  1  0
M  ISO  7  15  14  16  14  17  14  18  14  19   9  21   8  24   8
M  END
>  <DihAtoms>  (1) 
13,12,28,26

>  <DihDeg>  (1) 
0.0019852218101720624

$$$$
