
     RDKit          3D

 45 48  0  0  0  0  0  0  0  0999 V2000
   46.0462   34.3347   41.5269 N   0  0  0  0  0  0  0  0  0  0  0  0
   45.1064   34.1012   40.4755 C   0  0  0  0  0  0  0  0  0  0  0  0
   45.6684   33.2639   39.3657 C   0  0  0  0  0  0  0  0  0  0  0  0
   46.9471   33.6525   38.8876 N   0  0  0  0  0  0  0  0  0  0  0  0
   47.8147   34.2538   39.8117 C   0  0  0  0  0  0  0  0  0  0  0  0
   47.4529   34.2386   41.2328 C   0  0  1  0  0  0  0  0  0  0  0  0
   44.5964   36.0628   44.4929 C   0  0  0  0  0  0  0  0  0  0  0  0
   44.9819   35.8347   43.1739 C   0  0  0  0  0  0  0  0  0  0  0  0
   45.6162   34.6531   42.8365 C   0  0  0  0  0  0  0  0  0  0  0  0
   45.8367   33.7411   43.8569 N   0  0  0  0  0  0  0  0  0  0  0  0
   45.4489   33.9946   45.1285 C   0  0  0  0  0  0  0  0  0  0  0  0
   44.8299   35.1517   45.4498 N   0  0  0  0  0  0  0  0  0  0  0  0
   48.1618   35.3113   41.9591 C   0  0  0  0  0  0  0  0  0  0  0  0
   48.9505   36.0578   41.3832 O   0  0  0  0  0  0  0  0  0  0  0  0
   44.2397   33.5311   40.9027 H   0  0  0  0  0  0  0  0  0  0  0  0
   44.6503   35.0260   40.0462 H   0  0  0  0  0  0  0  0  0  0  0  0
   45.6122   32.1850   39.6383 H   0  0  0  0  0  0  0  0  0  0  0  0
   44.9496   33.3731   38.5053 H   0  0  0  0  0  0  0  0  0  0  0  0
   46.9588   34.1235   37.9541 H   0  0  0  0  0  0  0  0  0  0  0  0
   47.9952   35.3046   39.4855 H   0  0  0  0  0  0  0  0  0  0  0  0
   48.8323   33.7730   39.7164 H   0  0  0  0  0  0  0  0  0  0  0  0
   47.7577   33.2212   41.6332 H   0  0  0  0  0  0  0  0  0  0  0  0
   44.1114   37.0274   44.6127 H   0  0  0  0  0  0  0  0  0  0  0  0
   44.8363   36.5080   42.3372 H   0  0  0  0  0  0  0  0  0  0  0  0
   45.6438   33.2505   45.8897 H   0  0  0  0  0  0  0  0  0  0  0  0
   49.4209   39.6163   45.9769 C   0  0  0  0  0  0  0  0  0  0  0  0
   49.4479   38.7413   46.6634 H   0  0  0  0  0  0  0  0  0  0  0  0
   48.3012   39.5251   44.9709 C   0  0  0  0  0  0  0  0  0  0  0  0
   47.2231   40.5571   45.2066 C   0  0  0  0  0  0  0  0  0  0  0  0
   47.1442   40.8539   46.2707 H   0  0  0  0  0  0  0  0  0  0  0  0
   48.7757   39.6585   43.5562 C   0  0  0  0  0  0  0  0  0  0  0  0
   49.0640   38.3411   43.0357 N   0  0  0  0  0  0  0  0  0  0  0  0
   49.7086   37.2204   42.4415 C   0  0  0  0  0  0  0  0  0  0  0  0
   50.7704   37.1854   41.7363 O   0  0  0  0  0  0  0  0  0  0  0  0
   48.6803   36.2502   42.9729 C   0  0  0  0  0  0  0  0  0  0  0  0
   47.8844   37.4743   43.2114 C   0  0  0  0  0  0  0  0  0  0  0  0
   47.5491   37.8706   44.9571 S   0  0  0  0  0  0  0  0  0  0  0  0
   49.2737   40.5457   46.5689 H   0  0  0  0  0  0  0  0  0  0  0  0
   50.4118   39.6981   45.4819 H   0  0  0  0  0  0  0  0  0  0  0  0
   46.2384   40.1915   44.8557 H   0  0  0  0  0  0  0  0  0  0  0  0
   47.4498   41.4717   44.5937 H   0  0  0  0  0  0  0  0  0  0  0  0
   49.6773   40.2640   43.5567 H   0  0  0  0  0  0  0  0  0  0  0  0
   48.0255   40.1475   42.9053 H   0  0  0  0  0  0  0  0  0  0  0  0
   49.1701   35.7869   43.8551 H   0  0  0  0  0  0  0  0  0  0  0  0
   47.0718   37.6951   42.5122 H   0  0  0  0  0  0  0  0  0  0  0  0
  1  9  1  0
  2  1  1  0
  3  2  1  0
  4  3  1  0
  4  5  1  0
  5  6  1  0
  6  1  1  0
  6 13  1  0
  7 12  2  0
  8  7  1  0
  9  8  2  0
  9 10  1  0
 10 11  2  0
 11 12  1  0
 14 13  2  0
  2 15  1  0
  2 16  1  0
  3 17  1  0
  3 18  1  0
  4 19  1  0
  5 20  1  0
  5 21  1  0
  6 22  1  1
  7 23  1  0
  8 24  1  0
 11 25  1  0
 26 27  1  0
 26 28  1  0
 28 29  1  0
 29 30  1  0
 28 31  1  0
 31 32  1  0
 32 33  1  0
 33 34  2  0
 33 35  1  0
 35 36  1  0
 36 37  1  0
 37 28  1  0
 36 32  1  0
 26 38  1  0
 26 39  1  0
 29 40  1  0
 29 41  1  0
 31 42  1  0
 31 43  1  0
 35 44  1  0
 36 45  1  0
 13 35  1  0
M  ISO  8  15  13  16  13  17  13  18  13  19   5  20  13  21  13  22  13
M  ISO  5  23  14  24  14  25  14  27   8  30   8
M  END
>  <DihAtoms>  (1) 
5,12,34,32

>  <DihDeg>  (1) 
177.9175932600947

$$$$
