
     RDKit          3D

 52 55  0  0  0  0  0  0  0  0999 V2000
   45.3463   34.6860   42.3519 C   0  0  0  0  0  0  0  0  0  0  0  0
   46.4697   35.2147   41.6500 C   0  0  0  0  0  0  0  0  0  0  0  0
   47.7329   34.9248   42.1990 C   0  0  0  0  0  0  0  0  0  0  0  0
   47.7823   34.1861   43.3208 N   0  0  0  0  0  0  0  0  0  0  0  0
   46.6848   33.7091   43.9468 C   0  0  0  0  0  0  0  0  0  0  0  0
   45.4577   33.9664   43.4505 N   0  0  0  0  0  0  0  0  0  0  0  0
   43.7412   34.1457   40.7313 C   0  0  0  0  0  0  0  0  0  0  0  0
   44.6479   33.3735   40.2687 O   0  0  0  0  0  0  0  0  0  0  0  0
   44.0214   34.9338   41.8614 N   0  0  0  0  0  0  0  0  0  0  0  0
   42.4921   34.1492   40.0559 N   0  0  0  0  0  0  0  0  0  0  0  0
   42.3915   33.5562   38.7077 C   0  0  0  0  0  0  0  0  0  0  0  0
   41.3168   34.3852   38.0743 C   0  0  0  0  0  0  0  0  0  0  0  0
   40.8209   35.3127   39.1449 C   0  0  0  0  0  0  0  0  0  0  0  0
   41.1947   34.6207   40.4332 C   0  0  1  0  0  0  0  0  0  0  0  0
   38.8985   33.5062   40.7401 C   0  0  0  0  0  0  0  0  0  0  0  0
   38.4982   34.5068   40.1109 O   0  0  0  0  0  0  0  0  0  0  0  0
   40.3472   33.4965   40.7959 N   0  0  0  0  0  0  0  0  0  0  0  0
   48.8633   35.4764   41.4631 C   0  0  0  0  0  0  0  0  0  0  0  0
   49.9978   34.7287   41.7680 F   0  0  0  0  0  0  0  0  0  0  0  0
   49.1125   36.7518   41.9871 F   0  0  0  0  0  0  0  0  0  0  0  0
   48.6942   35.4794   40.1125 F   0  0  0  0  0  0  0  0  0  0  0  0
   46.2404   35.7839   40.7688 H   0  0  0  0  0  0  0  0  0  0  0  0
   46.7953   33.1103   44.8625 H   0  0  0  0  0  0  0  0  0  0  0  0
   43.2753   35.5583   42.1773 H   0  0  0  0  0  0  0  0  0  0  0  0
   42.0910   32.5020   38.9017 H   0  0  0  0  0  0  0  0  0  0  0  0
   43.3428   33.5786   38.1754 H   0  0  0  0  0  0  0  0  0  0  0  0
   41.7295   34.9260   37.1965 H   0  0  0  0  0  0  0  0  0  0  0  0
   40.4935   33.6808   37.7855 H   0  0  0  0  0  0  0  0  0  0  0  0
   39.9490   35.8643   39.0174 H   0  0  0  0  0  0  0  0  0  0  0  0
   41.6273   36.1281   39.1208 H   0  0  0  0  0  0  0  0  0  0  0  0
   41.2003   35.3412   41.2472 H   0  0  0  0  0  0  0  0  0  0  0  0
   40.8442   32.6113   41.1239 H   0  0  0  0  0  0  0  0  0  0  0  0
   33.3800   31.4795   42.9380 C   0  0  0  0  0  0  0  0  0  0  0  0
   32.8625   31.1622   43.8820 H   0  0  0  0  0  0  0  0  0  0  0  0
   34.8555   31.4109   43.1004 C   0  0  0  0  0  0  0  0  0  0  0  0
   35.3534   30.4937   44.1680 C   0  0  0  0  0  0  0  0  0  0  0  0
   36.1027   29.8052   43.6848 H   0  0  0  0  0  0  0  0  0  0  0  0
   35.4613   32.7917   43.3974 C   0  0  0  0  0  0  0  0  0  0  0  0
   36.8683   32.6939   43.0149 N   0  0  0  0  0  0  0  0  0  0  0  0
   38.2836   32.6086   42.8739 C   0  0  0  0  0  0  0  0  0  0  0  0
   39.1318   32.7166   43.8224 O   0  0  0  0  0  0  0  0  0  0  0  0
   38.2148   32.3858   41.4057 C   0  0  1  0  0  0  0  0  0  0  0  0
   36.7597   32.6210   41.5621 C   0  0  1  0  0  0  0  0  0  0  0  0
   35.6958   31.1237   41.4879 S   0  0  0  0  0  0  0  0  0  0  0  0
   32.9727   30.7924   42.1590 H   0  0  0  0  0  0  0  0  0  0  0  0
   33.0083   32.5100   42.7187 H   0  0  0  0  0  0  0  0  0  0  0  0
   35.9637   31.0108   44.9642 H   0  0  0  0  0  0  0  0  0  0  0  0
   34.5561   29.9535   44.7014 H   0  0  0  0  0  0  0  0  0  0  0  0
   35.3506   33.0853   44.4472 H   0  0  0  0  0  0  0  0  0  0  0  0
   35.0223   33.5711   42.7264 H   0  0  0  0  0  0  0  0  0  0  0  0
   38.5476   31.3968   41.0617 H   0  0  0  0  0  0  0  0  0  0  0  0
   36.3261   33.5055   41.0686 H   0  0  0  0  0  0  0  0  0  0  0  0
  1  6  2  0
  2  3  2  0
  2  1  1  0
  3  4  1  0
  4  5  2  0
  6  5  1  0
  7  9  1  0
  8  7  2  0
  9  1  1  0
 10 14  1  0
 10  7  1  0
 11 10  1  0
 12 11  1  0
 12 13  1  0
 13 14  1  0
 14 17  1  0
 15 17  1  0
 16 15  2  0
 18 19  1  0
 18 20  1  0
 18  3  1  0
 21 18  1  0
  2 22  1  0
  5 23  1  0
  9 24  1  0
 11 25  1  0
 11 26  1  0
 12 27  1  0
 12 28  1  0
 13 29  1  0
 13 30  1  0
 14 31  1  1
 17 32  1  0
 33 34  1  0
 33 35  1  0
 35 36  1  0
 36 37  1  0
 35 38  1  0
 38 39  1  0
 39 40  1  0
 40 41  2  0
 40 42  1  0
 42 43  1  0
 43 44  1  0
 44 35  1  0
 43 39  1  0
 33 45  1  0
 33 46  1  0
 36 47  1  0
 36 48  1  0
 38 49  1  0
 38 50  1  0
 42 51  1  1
 43 52  1  6
 15 42  1  0
M  ISO  8  22  14  23  14  25  13  26  13  27  13  28  13  29  13  30  13
M  ISO  3  31  13  34   8  37   8
M  END
>  <DihAtoms>  (1) 
16,14,41,39

>  <DihDeg>  (1) 
-59.998187052008035

$$$$
