
     RDKit          3D

 39 42  0  0  0  0  0  0  0  0999 V2000
   46.0790   34.1564   41.0064 C   0  0  0  0  0  0  0  0  0  0  0  0
   46.6209   34.8304   42.0992 C   0  0  0  0  0  0  0  0  0  0  0  0
   47.9411   35.2762   41.9850 C   0  0  0  0  0  0  0  0  0  0  0  0
   48.6090   35.0264   40.8239 N   0  0  0  0  0  0  0  0  0  0  0  0
   48.0507   34.3744   39.7966 C   0  0  0  0  0  0  0  0  0  0  0  0
   46.7768   33.9379   39.8920 N   0  0  0  0  0  0  0  0  0  0  0  0
   45.8081   35.0422   43.2979 C   0  0  0  0  0  0  0  0  0  0  0  0
   45.0471   36.1849   43.4968 C   0  0  0  0  0  0  0  0  0  0  0  0
   44.4599   35.9662   44.7263 C   0  0  0  0  0  0  0  0  0  0  0  0
   44.8387   34.7708   45.2400 N   0  0  0  0  0  0  0  0  0  0  0  0
   45.6521   34.2357   44.3563 N   0  0  0  0  0  0  0  0  0  0  0  0
   44.7812   33.7101   41.0997 O   0  0  0  0  0  0  0  0  0  0  0  0
   43.6944   34.1917   40.4274 C   0  0  0  0  0  0  0  0  0  0  0  0
   43.2510   35.3856   40.4154 O   0  0  0  0  0  0  0  0  0  0  0  0
   48.3567   35.7908   42.8178 H   0  0  0  0  0  0  0  0  0  0  0  0
   48.5651   34.1669   38.8673 H   0  0  0  0  0  0  0  0  0  0  0  0
   44.9154   37.0680   42.8611 H   0  0  0  0  0  0  0  0  0  0  0  0
   43.7785   36.6481   45.2381 H   0  0  0  0  0  0  0  0  0  0  0  0
   44.5146   34.4006   46.1625 H   0  0  0  0  0  0  0  0  0  0  0  0
   40.7181   33.7115   34.7980 C   0  0  0  0  0  0  0  0  0  0  0  0
   41.1116   32.9814   34.0606 H   0  0  0  0  0  0  0  0  0  0  0  0
   40.9421   33.2275   36.2129 C   0  0  0  0  0  0  0  0  0  0  0  0
   39.7443   32.4580   36.6781 C   0  0  0  0  0  0  0  0  0  0  0  0
   39.6002   32.4487   37.7767 H   0  0  0  0  0  0  0  0  0  0  0  0
   42.2357   32.4451   36.3098 C   0  0  0  0  0  0  0  0  0  0  0  0
   42.6827   32.5388   37.6882 N   0  0  0  0  0  0  0  0  0  0  0  0
   43.1096   32.2174   39.0290 C   0  0  0  0  0  0  0  0  0  0  0  0
   43.6409   31.1309   39.4425 O   0  0  0  0  0  0  0  0  0  0  0  0
   42.6763   33.5523   39.5118 C   0  0  2  0  0  0  0  0  0  0  0  0
   42.8338   33.9300   38.0738 C   0  0  2  0  0  0  0  0  0  0  0  0
   41.3333   34.6420   37.3156 S   0  0  0  0  0  0  0  0  0  0  0  0
   39.6393   33.8432   34.5728 H   0  0  0  0  0  0  0  0  0  0  0  0
   41.2284   34.6765   34.6001 H   0  0  0  0  0  0  0  0  0  0  0  0
   38.8372   32.9608   36.2356 H   0  0  0  0  0  0  0  0  0  0  0  0
   39.7748   31.4475   36.2470 H   0  0  0  0  0  0  0  0  0  0  0  0
   42.0453   31.3920   36.0925 H   0  0  0  0  0  0  0  0  0  0  0  0
   42.9805   32.8596   35.6022 H   0  0  0  0  0  0  0  0  0  0  0  0
   41.6534   33.5770   39.8695 H   0  0  0  0  0  0  0  0  0  0  0  0
   43.7842   34.4170   37.7915 H   0  0  0  0  0  0  0  0  0  0  0  0
  1 12  1  0
  1  2  1  0
  2  7  1  0
  3  2  2  0
  4  3  1  0
  5  6  1  0
  5  4  2  0
  6  1  2  0
  7  8  1  0
  7 11  2  0
  8  9  2  0
  9 10  1  0
 11 10  1  0
 13 14  2  0
 13 12  1  0
  3 15  1  0
  5 16  1  0
  8 17  1  0
  9 18  1  0
 10 19  1  0
 20 21  1  0
 20 22  1  0
 22 23  1  0
 23 24  1  0
 22 25  1  0
 25 26  1  0
 26 27  1  0
 27 28  2  0
 27 29  1  0
 29 30  1  0
 30 31  1  0
 31 22  1  0
 30 26  1  0
 20 32  1  0
 20 33  1  0
 23 34  1  0
 23 35  1  0
 25 36  1  0
 25 37  1  0
 29 38  1  1
 30 39  1  1
 13 29  1  0
M  ISO  7  15  14  16  14  17  14  18  14  19   9  21   8  24   8
M  END
>  <DihAtoms>  (1) 
13,12,28,26

>  <DihDeg>  (1) 
0.0019852218101720624

$$$$
