
     RDKit          3D

 54 57  0  0  1  0  0  0  0  0999 V2000
   51.1710   32.1010   51.1360 C   0  0  0  0  0  0  0  0  0  0  0  0
   51.3130   30.9260   51.8740 C   0  0  0  0  0  0  0  0  0  0  0  0
   50.5180   29.8210   51.4990 C   0  0  0  0  0  0  0  0  0  0  0  0
   49.6720   29.9780   50.4590 N   0  0  0  0  0  0  0  0  0  0  0  0
   49.5640   31.1340   49.7760 C   0  0  0  0  0  0  0  0  0  0  0  0
   50.3210   32.2160   50.1120 N   0  0  0  0  0  0  0  0  0  0  0  0
   48.6110   31.2600   48.6800 C   0  0  0  0  0  0  0  0  0  0  0  0
   47.5500   32.0450   48.7500 C   0  0  0  0  0  0  0  0  0  0  0  0
   46.6080   32.1230   47.5930 C   0  0  0  0  0  0  0  0  0  0  0  0
   46.6310   32.7330   45.3450 C   0  0  0  0  0  0  0  0  0  0  0  0
   45.9940   31.7680   44.8340 O   0  0  0  0  0  0  0  0  0  0  0  0
   47.0130   33.0880   46.6340 N   0  0  0  0  0  0  0  0  0  0  0  0
   44.8970   35.0840   44.4770 Cl  0  0  0  0  0  0  0  0  0  0  0  0
   46.2920   34.5750   43.5660 C   0  0  0  0  0  0  0  0  0  0  0  0
   46.9280   33.5010   44.1250 C   0  0  0  0  0  0  0  0  0  0  0  0
   48.0690   32.9610   43.5120 C   0  0  0  0  0  0  0  0  0  0  0  0
   48.5750   33.4910   42.3430 C   0  0  0  0  0  0  0  0  0  0  0  0
   47.9190   34.5790   41.7910 C   0  0  0  0  0  0  0  0  0  0  0  0
   48.4740   35.3390   40.3170 Cl  0  0  0  0  0  0  0  0  0  0  0  0
   46.8030   35.1010   42.3980 C   0  0  0  0  0  0  0  0  0  0  0  0
   50.5660   28.6040   52.1220 O   0  0  0  0  0  0  0  0  0  0  0  0
   51.4820   27.6370   51.5510 C   0  0  0  0  0  0  0  0  0  0  0  0
   52.1330   28.2000   50.4480 F   0  0  0  0  0  0  0  0  0  0  0  0
   52.4610   27.3520   52.5010 F   0  0  0  0  0  0  0  0  0  0  0  0
   50.8500   26.4490   51.1990 F   0  0  0  0  0  0  0  0  0  0  0  0
   52.1070   30.8440   53.0880 C   0  0  0  0  0  0  0  0  0  0  0  0
   53.5550   31.1540   53.1190 C   0  0  1  0  0  0  0  0  0  0  0  0
   53.9940   32.5610   53.0140 C   0  0  0  0  0  0  0  0  0  0  0  0
   54.3700   33.0860   54.2990 N   0  0  0  0  0  0  0  0  0  0  0  0
   54.5050   33.9490   55.4240 C   0  0  0  0  0  0  0  0  0  0  0  0
   54.3420   35.1840   55.6430 O   0  0  0  0  0  0  0  0  0  0  0  0
   54.9390   32.8640   56.3450 C   0  0  0  0  0  0  0  0  0  0  0  0
   55.2080   32.1400   55.0590 C   0  0  1  0  0  0  0  0  0  0  0  0
   54.1720   30.6480   54.7770 S   0  0  0  0  0  0  0  0  0  0  0  0
   54.2900   30.2550   52.1180 C   0  0  0  0  0  0  0  0  0  0  0  0
   51.7860   32.9712   51.4092 H   0  0  0  0  0  0  0  0  0  0  0  0
   48.7813   30.6803   47.7608 H   0  0  0  0  0  0  0  0  0  0  0  0
   47.3612   32.6386   49.6566 H   0  0  0  0  0  0  0  0  0  0  0  0
   46.5629   31.1376   47.1063 H   0  0  0  0  0  0  0  0  0  0  0  0
   45.6235   32.4249   47.9798 H   0  0  0  0  0  0  0  0  0  0  0  0
   47.5287   33.9490   46.8655 H   0  0  0  0  0  0  0  0  0  0  0  0
   48.5703   32.0973   43.9731 H   0  0  0  0  0  0  0  0  0  0  0  0
   49.4692   33.0640   41.8654 H   0  0  0  0  0  0  0  0  0  0  0  0
   46.3013   35.9653   41.9384 H   0  0  0  0  0  0  0  0  0  0  0  0
   51.6337   31.5275   53.8083 H   0  0  0  0  0  0  0  0  0  0  0  0
   52.1060   29.7614   53.2831 H   0  0  0  0  0  0  0  0  0  0  0  0
   54.8587   32.6174   52.3364 H   0  0  0  0  0  0  0  0  0  0  0  0
   53.1566   33.1589   52.6250 H   0  0  0  0  0  0  0  0  0  0  0  0
   55.8230   33.0866   56.9606 H   0  0  0  0  0  0  0  0  0  0  0  0
   54.3221   32.4634   57.1629 H   0  0  0  0  0  0  0  0  0  0  0  0
   56.2677   31.8875   54.9066 H   0  0  0  0  0  0  0  0  0  0  0  0
   54.8944   29.5158   52.6641 H   0  0  0  0  0  0  0  0  0  0  0  0
   53.5562   29.7336   51.4858 H   0  0  0  0  0  0  0  0  0  0  0  0
   54.9468   30.8706   51.4858 H   0  0  0  0  0  0  0  0  0  0  0  0
  1  2  2  0
  2 26  1  0
  3  2  1  0
  3 21  1  0
  4  3  2  0
  5  6  2  0
  5  4  1  0
  6  1  1  0
  7  8  2  0
  7  5  1  0
  9  8  1  0
 10 12  1  0
 11 10  2  0
 12  9  1  0
 14 15  2  0
 14 13  1  0
 15 10  1  0
 16 15  1  0
 17 16  2  0
 18 17  1  0
 18 20  2  0
 19 18  1  0
 20 14  1  0
 22 21  1  0
 22 24  1  0
 23 22  1  0
 25 22  1  0
 27 26  1  1
 27 35  1  0
 27 34  1  0
 28 27  1  0
 28 29  1  0
 29 33  1  0
 29 30  1  0
 30 31  2  0
 30 32  1  0
 33 34  1  0
 33 32  1  0
  1 36  1  0
  7 37  1  0
  8 38  1  0
  9 39  1  0
  9 40  1  0
 12 41  1  0
 16 42  1  0
 17 43  1  0
 20 44  1  0
 26 45  1  0
 26 46  1  0
 28 47  1  0
 28 48  1  0
 32 49  1  0
 32 50  1  0
 33 51  1  6
 35 52  1  0
 35 53  1  0
 35 54  1  0
M  END
>  <minimizedAffinity>  (1) 
-7.09601593

>  <minimizedRMSD>  (1) 
1.26161218

$$$$
