
     RDKit          3D

 47 50  0  0  0  0  0  0  0  0999 V2000
   45.4032   31.3295   47.7223 C   0  0  0  0  0  0  0  0  0  0  0  0
   46.5878   30.4902   47.8582 C   0  0  0  0  0  0  0  0  0  0  0  0
   46.8303   29.2163   47.3715 C   0  0  0  0  0  0  0  0  0  0  0  0
   48.0365   28.6463   47.6372 C   0  0  0  0  0  0  0  0  0  0  0  0
   48.9757   29.2711   48.3424 N   0  0  0  0  0  0  0  0  0  0  0  0
   48.7337   30.5019   48.8098 C   0  0  0  0  0  0  0  0  0  0  0  0
   47.5503   31.1290   48.5803 N   0  0  0  0  0  0  0  0  0  0  0  0
   49.8503   31.1115   49.5838 C   0  0  0  0  0  0  0  0  0  0  0  0
   49.8337   32.4789   49.4892 F   0  0  0  0  0  0  0  0  0  0  0  0
   51.0843   30.6412   49.1072 F   0  0  0  0  0  0  0  0  0  0  0  0
   49.7904   30.7927   50.9246 F   0  0  0  0  0  0  0  0  0  0  0  0
   45.8225   32.6531   47.6143 O   0  0  0  0  0  0  0  0  0  0  0  0
   44.9141   35.0045   45.0994 C   0  0  0  0  0  0  0  0  0  0  0  0
   45.7886   34.6962   44.0387 C   0  0  0  0  0  0  0  0  0  0  0  0
   46.7104   33.6404   44.2183 C   0  0  0  0  0  0  0  0  0  0  0  0
   46.6809   32.9974   45.4093 N   0  0  0  0  0  0  0  0  0  0  0  0
   45.8442   33.3128   46.3924 C   0  0  0  0  0  0  0  0  0  0  0  0
   44.9580   34.3134   46.2475 N   0  0  0  0  0  0  0  0  0  0  0  0
   45.7002   35.4478   42.7687 C   0  0  0  0  0  0  0  0  0  0  0  0
   45.3053   36.7149   43.1536 F   0  0  0  0  0  0  0  0  0  0  0  0
   44.6286   34.8925   42.0395 F   0  0  0  0  0  0  0  0  0  0  0  0
   46.8334   35.4386   42.0979 F   0  0  0  0  0  0  0  0  0  0  0  0
   44.8478   31.0413   46.7817 H   0  0  0  0  0  0  0  0  0  0  0  0
   44.7200   31.1651   48.5932 H   0  0  0  0  0  0  0  0  0  0  0  0
   46.0004   28.8027   46.8111 H   0  0  0  0  0  0  0  0  0  0  0  0
   48.1965   27.6375   47.2393 H   0  0  0  0  0  0  0  0  0  0  0  0
   44.1950   35.7991   45.0142 H   0  0  0  0  0  0  0  0  0  0  0  0
   47.7554   33.2482   43.3167 C   0  0  0  0  0  0  0  0  0  0  0  0
   48.8412   34.2513   43.1936 C   0  0  1  0  0  0  0  0  0  0  0  0
   48.4675   35.6443   42.7629 C   0  0  0  0  0  0  0  0  0  0  0  0
   48.4505   35.7692   41.6638 H   0  0  0  0  0  0  0  0  0  0  0  0
   49.7230   34.4047   44.4131 C   0  0  0  0  0  0  0  0  0  0  0  0
   50.9212   33.6479   44.2611 N   0  0  0  0  0  0  0  0  0  0  0  0
   52.0140   32.7532   44.4168 C   0  0  0  0  0  0  0  0  0  0  0  0
   52.5072   31.9504   45.2497 O   0  0  0  0  0  0  0  0  0  0  0  0
   52.5955   33.0236   43.0756 C   0  0  1  0  0  0  0  0  0  0  0  0
   53.6066   33.4620   43.0613 H   0  0  0  0  0  0  0  0  0  0  0  0
   51.5491   34.0778   43.0001 C   0  0  1  0  0  0  0  0  0  0  0  0
   50.1029   33.6270   41.9547 S   0  0  0  0  0  0  0  0  0  0  0  0
   47.4443   32.7738   42.3662 H   0  0  0  0  0  0  0  0  0  0  0  0
   48.2789   32.3464   43.7804 H   0  0  0  0  0  0  0  0  0  0  0  0
   47.5365   36.0014   43.2065 H   0  0  0  0  0  0  0  0  0  0  0  0
   49.3003   36.3224   43.0897 H   0  0  0  0  0  0  0  0  0  0  0  0
   50.0267   35.4735   44.5940 H   0  0  0  0  0  0  0  0  0  0  0  0
   49.2096   34.0154   45.3266 H   0  0  0  0  0  0  0  0  0  0  0  0
   52.5014   32.1864   42.3501 H   0  0  0  0  0  0  0  0  0  0  0  0
   51.8298   35.1243   42.9380 H   0  0  0  0  0  0  0  0  0  0  0  0
  1  2  1  0
  2  7  2  0
  3  4  2  0
  3  2  1  0
  4  5  1  0
  5  6  2  0
  6  8  1  0
  7  6  1  0
  8 11  1  0
  9  8  1  0
 10  8  1  0
 12  1  1  0
 13 18  2  0
 14 15  2  0
 14 13  1  0
 15 16  1  0
 16 17  2  0
 17 12  1  0
 18 17  1  0
 19 20  1  0
 19 14  1  0
 21 19  1  0
 22 19  1  0
  1 23  1  0
  1 24  1  0
  3 25  1  0
  4 26  1  0
 13 27  1  0
 29 28  1  1
 29 30  1  0
 30 31  1  0
 29 32  1  0
 32 33  1  0
 33 34  1  0
 34 35  2  0
 34 36  1  0
 36 37  1  1
 36 38  1  0
 38 39  1  0
 39 29  1  0
 38 33  1  0
 28 40  1  0
 28 41  1  0
 30 42  1  0
 30 43  1  0
 32 44  1  0
 32 45  1  0
 36 46  1  0
 38 47  1  1
 15 28  1  0
M  ISO  7  23   8  24   8  25  14  26  14  27  14  31   8  37  15
M  END
>  <DihAtoms>  (1) 
13,14,27,28

>  <DihDeg>  (1) 
97.69516448224746

$$$$
