
     RDKit          3D

 36 38  0  0  0  0  0  0  0  0999 V2000
   44.6893   35.5253   43.6156 C   0  0  0  0  0  0  0  0  0  0  0  0
   43.9386   35.4264   42.4181 C   0  0  0  0  0  0  0  0  0  0  0  0
   43.7871   34.1628   41.8375 C   0  0  0  0  0  0  0  0  0  0  0  0
   44.3581   33.1027   42.4390 N   0  0  0  0  0  0  0  0  0  0  0  0
   45.0738   33.2191   43.5869 C   0  0  0  0  0  0  0  0  0  0  0  0
   45.2150   34.4250   44.1356 N   0  0  0  0  0  0  0  0  0  0  0  0
   44.8425   36.8448   44.2140 C   0  0  0  0  0  0  0  0  0  0  0  0
   45.2477   37.8451   43.4555 C   0  0  0  0  0  0  0  0  0  0  0  0
   45.4288   39.2147   43.9839 C   0  0  0  0  0  0  0  0  0  0  0  0
   43.4858   36.2898   41.9471 H   0  0  0  0  0  0  0  0  0  0  0  0
   43.2113   34.1060   40.9241 H   0  0  0  0  0  0  0  0  0  0  0  0
   45.4741   32.3019   43.9612 H   0  0  0  0  0  0  0  0  0  0  0  0
   44.6262   37.0099   45.2763 H   0  0  0  0  0  0  0  0  0  0  0  0
   45.4853   37.7692   42.3874 H   0  0  0  0  0  0  0  0  0  0  0  0
   45.1904   39.2435   45.0673 H   0  0  0  0  0  0  0  0  0  0  0  0
   44.7144   39.9444   43.5214 H   0  0  0  0  0  0  0  0  0  0  0  0
   50.4283   42.3381   42.9813 C   0  0  0  0  0  0  0  0  0  0  0  0
   50.7330   41.2783   43.0327 H   0  0  0  0  0  0  0  0  0  0  0  0
   49.0329   42.5069   42.4522 C   0  0  0  0  0  0  0  0  0  0  0  0
   48.8209   43.8601   41.8060 C   0  0  0  0  0  0  0  0  0  0  0  0
   47.7272   43.8787   41.5348 H   0  0  0  0  0  0  0  0  0  0  0  0
   48.6175   41.4667   41.4531 C   0  0  0  0  0  0  0  0  0  0  0  0
   47.9477   40.4131   42.1527 N   0  0  0  0  0  0  0  0  0  0  0  0
   47.5645   39.1174   42.6508 C   0  0  0  0  0  0  0  0  0  0  0  0
   47.8034   37.9562   42.1730 O   0  0  0  0  0  0  0  0  0  0  0  0
   46.8575   39.6896   43.8211 C   0  0  1  0  0  0  0  0  0  0  0  0
   46.8636   40.9295   42.9714 C   0  0  1  0  0  0  0  0  0  0  0  0
   47.7582   42.3363   43.7387 S   0  0  0  0  0  0  0  0  0  0  0  0
   50.5150   42.7437   44.0210 H   0  0  0  0  0  0  0  0  0  0  0  0
   51.1185   42.9567   42.3590 H   0  0  0  0  0  0  0  0  0  0  0  0
   49.3573   43.9542   40.8457 H   0  0  0  0  0  0  0  0  0  0  0  0
   48.9897   44.7084   42.5027 H   0  0  0  0  0  0  0  0  0  0  0  0
   49.5251   41.0762   40.9913 H   0  0  0  0  0  0  0  0  0  0  0  0
   47.9995   41.8730   40.6184 H   0  0  0  0  0  0  0  0  0  0  0  0
   47.4336   39.7197   44.7455 H   0  0  0  0  0  0  0  0  0  0  0  0
   45.9497   41.1973   42.4436 H   0  0  0  0  0  0  0  0  0  0  0  0
  1  6  1  0
  1  7  1  0
  2  1  2  0
  3  2  1  0
  3  4  2  0
  4  5  1  0
  5  6  2  0
  8  9  1  0
  8  7  2  0
  2 10  1  0
  3 11  1  0
  5 12  1  0
  7 13  1  0
  8 14  1  0
  9 15  1  0
  9 16  1  0
 17 18  1  0
 17 19  1  0
 19 20  1  0
 20 21  1  0
 19 22  1  0
 22 23  1  0
 23 24  1  0
 24 25  2  0
 24 26  1  0
 26 27  1  0
 27 28  1  0
 28 19  1  0
 27 23  1  0
 17 29  1  0
 17 30  1  0
 20 31  1  0
 20 32  1  0
 22 33  1  0
 22 34  1  0
 26 35  1  1
 27 36  1  6
  9 26  1  0
M  ISO  7  10  14  11  14  12  14  15   8  16   8  18   8  21   8
M  END
>  <DihAtoms>  (1) 
7,8,25,23

>  <DihDeg>  (1) 
60.000318622206336

$$$$
