
     RDKit          3D

 50 54  0  0  0  0  0  0  0  0999 V2000
   45.2086   36.1541   43.4561 C   0  0  0  0  0  0  0  0  0  0  0  0
   45.8640   34.9477   43.1324 C   0  0  0  0  0  0  0  0  0  0  0  0
   45.8123   33.9914   44.1285 C   0  0  0  0  0  0  0  0  0  0  0  0
   45.2001   34.1863   45.2911 N   0  0  0  0  0  0  0  0  0  0  0  0
   44.5809   35.3740   45.5526 C   0  0  0  0  0  0  0  0  0  0  0  0
   44.5932   36.3412   44.6330 N   0  0  0  0  0  0  0  0  0  0  0  0
   46.4523   32.7393   43.8849 C   0  0  0  0  0  0  0  0  0  0  0  0
   47.7208   32.2682   43.9845 C   0  0  0  0  0  0  0  0  0  0  0  0
   48.0244   31.0203   43.6793 C   0  0  0  0  0  0  0  0  0  0  0  0
   47.0254   30.2275   43.2636 C   0  0  0  0  0  0  0  0  0  0  0  0
   45.5616   31.3060   43.3037 S   0  0  0  0  0  0  0  0  0  0  0  0
   46.5032   34.7935   41.8728 C   0  0  0  0  0  0  0  0  0  0  0  0
   47.6853   35.2350   41.8004 O   0  0  0  0  0  0  0  0  0  0  0  0
   45.7800   34.1435   40.7370 C   0  0  0  0  0  0  0  0  0  0  0  0
   44.4226   34.1282   40.5433 C   0  0  0  0  0  0  0  0  0  0  0  0
   44.2176   33.4367   39.4057 N   0  0  0  0  0  0  0  0  0  0  0  0
   45.4108   33.0466   38.9269 C   0  0  0  0  0  0  0  0  0  0  0  0
   46.3809   33.4785   39.7423 N   0  0  0  0  0  0  0  0  0  0  0  0
   45.7385   32.2975   37.7639 N   0  0  0  0  0  0  0  0  0  0  0  0
   42.9666   33.1195   38.7380 C   0  0  0  0  0  0  0  0  0  0  0  0
   45.2357   36.9279   42.6825 H   0  0  0  0  0  0  0  0  0  0  0  0
   44.0783   35.5450   46.4967 H   0  0  0  0  0  0  0  0  0  0  0  0
   48.4516   33.0240   44.3396 H   0  0  0  0  0  0  0  0  0  0  0  0
   49.0130   30.5790   43.7353 H   0  0  0  0  0  0  0  0  0  0  0  0
   46.9907   29.1705   42.9508 H   0  0  0  0  0  0  0  0  0  0  0  0
   43.6709   34.5644   41.1511 H   0  0  0  0  0  0  0  0  0  0  0  0
   46.4928   32.5244   37.0971 H   0  0  0  0  0  0  0  0  0  0  0  0
   45.2824   31.4224   37.4068 H   0  0  0  0  0  0  0  0  0  0  0  0
   43.0584   32.1396   38.2068 H   0  0  0  0  0  0  0  0  0  0  0  0
   42.1751   33.0012   39.5051 H   0  0  0  0  0  0  0  0  0  0  0  0
   41.9480   38.5783   36.4272 C   0  0  0  0  0  0  0  0  0  0  0  0
   42.9770   39.0373   36.4259 H   0  0  0  0  0  0  0  0  0  0  0  0
   41.5949   37.9803   37.7511 C   0  0  0  0  0  0  0  0  0  0  0  0
   40.7286   38.8530   38.6178 C   0  0  0  0  0  0  0  0  0  0  0  0
   39.7316   38.4122   38.8375 H   0  0  0  0  0  0  0  0  0  0  0  0
   42.8097   37.5578   38.5463 C   0  0  0  0  0  0  0  0  0  0  0  0
   43.1862   36.2419   38.0538 N   0  0  0  0  0  0  0  0  0  0  0  0
   43.7660   35.0632   37.4846 C   0  0  0  0  0  0  0  0  0  0  0  0
   44.9445   35.0293   36.9904 O   0  0  0  0  0  0  0  0  0  0  0  0
   42.5825   34.2106   37.7324 C   0  0  2  0  0  0  0  0  0  0  0  0
   42.0545   35.3927   38.4600 C   0  0  2  0  0  0  0  0  0  0  0  0
   40.7551   36.3533   37.5825 S   0  0  0  0  0  0  0  0  0  0  0  0
   41.2509   39.4410   36.2494 H   0  0  0  0  0  0  0  0  0  0  0  0
   41.8728   37.8744   35.5713 H   0  0  0  0  0  0  0  0  0  0  0  0
   40.5619   39.8625   38.1611 H   0  0  0  0  0  0  0  0  0  0  0  0
   41.2071   39.0203   39.6225 H   0  0  0  0  0  0  0  0  0  0  0  0
   43.6084   38.2724   38.3629 H   0  0  0  0  0  0  0  0  0  0  0  0
   42.6202   37.4806   39.6169 H   0  0  0  0  0  0  0  0  0  0  0  0
   42.0492   33.8471   36.8563 H   0  0  0  0  0  0  0  0  0  0  0  0
   41.9010   35.3222   39.5449 H   0  0  0  0  0  0  0  0  0  0  0  0
  1  6  2  0
  2  1  1  0
  2  3  2  0
  3  4  1  0
  4  5  2  0
  6  5  1  0
  7  8  2  0
  7  3  1  0
  9  8  1  0
 10 11  1  0
 10  9  2  0
 11  7  1  0
 12  2  1  0
 13 12  2  0
 14 12  1  0
 15 14  2  0
 16 15  1  0
 17 16  1  0
 17 18  2  0
 18 14  1  0
 19 17  1  0
 20 16  1  0
  1 21  1  0
  5 22  1  0
  8 23  1  0
  9 24  1  0
 10 25  1  0
 15 26  1  0
 19 27  1  0
 19 28  1  0
 20 29  1  0
 20 30  1  0
 31 32  1  0
 31 33  1  0
 33 34  1  0
 34 35  1  0
 33 36  1  0
 36 37  1  0
 37 38  1  0
 38 39  2  0
 38 40  1  0
 40 41  1  0
 41 42  1  0
 42 33  1  0
 41 37  1  0
 31 43  1  0
 31 44  1  0
 34 45  1  0
 34 46  1  0
 36 47  1  0
 36 48  1  0
 40 49  1  6
 41 50  1  1
 20 40  1  0
M  ISO  8  21  14  22  14  23  14  24  14  25  14  26  14  29   8  30   8
M  ISO  2  32   8  35   8
M  END
>  <DihAtoms>  (1) 
15,19,39,37

>  <DihDeg>  (1) 
-59.981381705864734

$$$$
