
     RDKit          3D

 36 38  0  0  0  0  0  0  0  0999 V2000
   44.6893   35.5253   43.6156 C   0  0  0  0  0  0  0  0  0  0  0  0
   43.9386   35.4264   42.4181 C   0  0  0  0  0  0  0  0  0  0  0  0
   43.7871   34.1628   41.8375 C   0  0  0  0  0  0  0  0  0  0  0  0
   44.3581   33.1027   42.4390 N   0  0  0  0  0  0  0  0  0  0  0  0
   45.0738   33.2191   43.5869 C   0  0  0  0  0  0  0  0  0  0  0  0
   45.2150   34.4250   44.1356 N   0  0  0  0  0  0  0  0  0  0  0  0
   44.8425   36.8448   44.2140 C   0  0  0  0  0  0  0  0  0  0  0  0
   45.2477   37.8451   43.4555 C   0  0  0  0  0  0  0  0  0  0  0  0
   45.4288   39.2147   43.9839 C   0  0  0  0  0  0  0  0  0  0  0  0
   43.4858   36.2898   41.9471 H   0  0  0  0  0  0  0  0  0  0  0  0
   43.2113   34.1060   40.9241 H   0  0  0  0  0  0  0  0  0  0  0  0
   45.4741   32.3019   43.9612 H   0  0  0  0  0  0  0  0  0  0  0  0
   44.6262   37.0099   45.2763 H   0  0  0  0  0  0  0  0  0  0  0  0
   45.4853   37.7692   42.3874 H   0  0  0  0  0  0  0  0  0  0  0  0
   45.1904   39.2435   45.0673 H   0  0  0  0  0  0  0  0  0  0  0  0
   44.7144   39.9444   43.5214 H   0  0  0  0  0  0  0  0  0  0  0  0
   51.2264   39.8245   42.6526 C   0  0  0  0  0  0  0  0  0  0  0  0
   50.9989   40.6044   43.4001 H   0  0  0  0  0  0  0  0  0  0  0  0
   50.3741   38.6001   42.8262 C   0  0  0  0  0  0  0  0  0  0  0  0
   51.0377   37.3534   42.2794 C   0  0  0  0  0  0  0  0  0  0  0  0
   50.2642   36.5425   42.3992 H   0  0  0  0  0  0  0  0  0  0  0  0
   49.9849   38.3106   44.2466 C   0  0  0  0  0  0  0  0  0  0  0  0
   48.7125   38.9160   44.4966 N   0  0  0  0  0  0  0  0  0  0  0  0
   47.6484   39.6956   45.0745 C   0  0  0  0  0  0  0  0  0  0  0  0
   47.5330   40.1693   46.2561 O   0  0  0  0  0  0  0  0  0  0  0  0
   46.8575   39.6896   43.8211 C   0  0  1  0  0  0  0  0  0  0  0  0
   47.7300   38.5066   43.5070 C   0  0  1  0  0  0  0  0  0  0  0  0
   48.7573   38.7356   42.0035 S   0  0  0  0  0  0  0  0  0  0  0  0
   51.0602   40.2900   41.6483 H   0  0  0  0  0  0  0  0  0  0  0  0
   52.2982   39.5127   42.6656 H   0  0  0  0  0  0  0  0  0  0  0  0
   51.8931   37.0290   42.8973 H   0  0  0  0  0  0  0  0  0  0  0  0
   51.2636   37.4187   41.1940 H   0  0  0  0  0  0  0  0  0  0  0  0
   50.7370   38.7671   44.8910 H   0  0  0  0  0  0  0  0  0  0  0  0
   49.9868   37.2236   44.4958 H   0  0  0  0  0  0  0  0  0  0  0  0
   46.9734   40.5716   43.1918 H   0  0  0  0  0  0  0  0  0  0  0  0
   47.3109   37.5094   43.6313 H   0  0  0  0  0  0  0  0  0  0  0  0
  1  6  1  0
  1  7  1  0
  2  1  2  0
  3  2  1  0
  3  4  2  0
  4  5  1  0
  5  6  2  0
  8  9  1  0
  8  7  2  0
  2 10  1  0
  3 11  1  0
  5 12  1  0
  7 13  1  0
  8 14  1  0
  9 15  1  0
  9 16  1  0
 17 18  1  0
 17 19  1  0
 19 20  1  0
 20 21  1  0
 19 22  1  0
 22 23  1  0
 23 24  1  0
 24 25  2  0
 24 26  1  0
 26 27  1  0
 27 28  1  0
 28 19  1  0
 27 23  1  0
 17 29  1  0
 17 30  1  0
 20 31  1  0
 20 32  1  0
 22 33  1  0
 22 34  1  0
 26 35  1  6
 27 36  1  1
  9 26  1  0
M  ISO  7  10  14  11  14  12  14  15   8  16   8  18   8  21   8
M  END
>  <DihAtoms>  (1) 
7,8,25,23

>  <DihDeg>  (1) 
60.000318622206336

$$$$
