
     RDKit          3D

 56 60  0  0  0  0  0  0  0  0999 V2000
   43.4232   35.2619   42.0822 C   0  0  0  0  0  0  0  0  0  0  0  0
   46.6355   33.5283   42.7176 C   0  0  0  0  0  0  0  0  0  0  0  0
   46.7562   33.7777   44.0431 C   0  0  0  0  0  0  0  0  0  0  0  0
   45.2255   34.7593   44.3825 S   0  0  0  0  0  0  0  0  0  0  0  0
   44.6765   34.6545   42.6139 C   0  0  0  0  0  0  0  0  0  0  0  0
   45.5588   34.0374   42.2062 N   0  0  0  0  0  0  0  0  0  0  0  0
   49.3676   32.5585   40.3221 C   0  0  0  0  0  0  0  0  0  0  0  0
   48.4585   33.3625   41.0287 C   0  0  0  0  0  0  0  0  0  0  0  0
   47.6207   32.7615   41.9363 C   0  0  0  0  0  0  0  0  0  0  0  0
   47.7315   31.3861   42.0949 N   0  0  0  0  0  0  0  0  0  0  0  0
   48.6186   30.6606   41.3945 C   0  0  0  0  0  0  0  0  0  0  0  0
   49.4435   31.2428   40.5022 N   0  0  0  0  0  0  0  0  0  0  0  0
   48.4710   34.7501   40.7498 N   0  0  0  0  0  0  0  0  0  0  0  0
   43.4899   35.4405   40.6068 C   0  0  0  0  0  0  0  0  0  0  0  0
   42.3194   35.0579   39.8572 C   0  0  0  0  0  0  0  0  0  0  0  0
   41.9939   35.3183   38.5493 C   0  0  0  0  0  0  0  0  0  0  0  0
   40.8447   34.9129   37.9004 C   0  0  0  0  0  0  0  0  0  0  0  0
   39.9598   34.1893   38.6330 C   0  0  0  0  0  0  0  0  0  0  0  0
   40.2891   33.9292   39.9460 C   0  0  0  0  0  0  0  0  0  0  0  0
   41.4138   34.3338   40.5579 N   0  0  0  0  0  0  0  0  0  0  0  0
   39.2691   33.1245   40.7040 C   0  0  0  0  0  0  0  0  0  0  0  0
   38.0031   33.6519   40.4611 F   0  0  0  0  0  0  0  0  0  0  0  0
   39.5457   32.9850   42.0283 F   0  0  0  0  0  0  0  0  0  0  0  0
   39.2254   31.8310   40.1727 F   0  0  0  0  0  0  0  0  0  0  0  0
   38.4509   33.6006   37.8980 S   0  0  0  0  0  0  0  0  0  0  0  0
   43.1971   36.1698   42.6490 H   0  0  0  0  0  0  0  0  0  0  0  0
   42.6010   34.5355   42.3132 H   0  0  0  0  0  0  0  0  0  0  0  0
   47.5108   33.5091   44.7612 H   0  0  0  0  0  0  0  0  0  0  0  0
   50.0271   33.0230   39.6076 H   0  0  0  0  0  0  0  0  0  0  0  0
   48.6773   29.5954   41.5424 H   0  0  0  0  0  0  0  0  0  0  0  0
   48.7062   35.3574   41.5610 H   0  0  0  0  0  0  0  0  0  0  0  0
   48.2711   35.2130   39.8278 H   0  0  0  0  0  0  0  0  0  0  0  0
   44.3695   34.8575   40.2325 H   0  0  0  0  0  0  0  0  0  0  0  0
   43.7486   36.5088   40.3595 H   0  0  0  0  0  0  0  0  0  0  0  0
   42.7557   35.9072   38.0176 H   0  0  0  0  0  0  0  0  0  0  0  0
   40.7163   35.1876   36.8781 H   0  0  0  0  0  0  0  0  0  0  0  0
   38.4200   33.5827   36.1151 C   0  0  0  0  0  0  0  0  0  0  0  0
   39.6685   33.9535   35.4042 C   0  0  2  0  0  0  0  0  0  0  0  0
   40.7915   32.9460   35.8391 C   0  0  0  0  0  0  0  0  0  0  0  0
   40.3770   31.9756   35.4991 H   0  0  0  0  0  0  0  0  0  0  0  0
   40.1777   35.3196   35.4052 C   0  0  0  0  0  0  0  0  0  0  0  0
   40.2351   35.8751   34.0474 N   0  0  0  0  0  0  0  0  0  0  0  0
   40.1567   36.8154   32.9838 C   0  0  0  0  0  0  0  0  0  0  0  0
   40.1615   38.0879   32.9674 O   0  0  0  0  0  0  0  0  0  0  0  0
   40.0705   35.7642   31.9373 C   0  0  1  0  0  0  0  0  0  0  0  0
   39.0572   35.5425   31.5795 H   0  0  0  0  0  0  0  0  0  0  0  0
   40.6235   34.8866   33.0307 C   0  0  2  0  0  0  0  0  0  0  0  0
   39.4985   33.5655   33.6014 S   0  0  0  0  0  0  0  0  0  0  0  0
   38.1865   32.5166   35.8039 H   0  0  0  0  0  0  0  0  0  0  0  0
   37.5812   34.1989   35.6907 H   0  0  0  0  0  0  0  0  0  0  0  0
   40.9121   32.9683   36.9224 H   0  0  0  0  0  0  0  0  0  0  0  0
   41.6863   33.1620   35.2536 H   0  0  0  0  0  0  0  0  0  0  0  0
   41.2902   35.3054   35.7103 H   0  0  0  0  0  0  0  0  0  0  0  0
   39.6914   36.0521   36.0438 H   0  0  0  0  0  0  0  0  0  0  0  0
   40.8397   35.8756   31.1246 H   0  0  0  0  0  0  0  0  0  0  0  0
   41.6856   34.6314   32.9946 H   0  0  0  0  0  0  0  0  0  0  0  0
  1  5  1  0
  2  3  2  0
  3  4  1  0
  5  4  1  0
  6  5  2  0
  6  2  1  0
  7 12  2  0
  7  8  1  0
  8  9  2  0
  9 10  1  0
  9  2  1  0
 11 10  2  0
 12 11  1  0
 13  8  1  0
 14  1  1  0
 15 20  1  0
 15 14  1  0
 16 15  2  0
 17 16  1  0
 17 18  2  0
 18 19  1  0
 19 20  2  0
 19 21  1  0
 21 23  1  0
 22 21  1  0
 24 21  1  0
 25 18  1  0
  1 26  1  0
  1 27  1  0
  3 28  1  0
  7 29  1  0
 11 30  1  0
 13 31  1  0
 13 32  1  0
 14 33  1  0
 14 34  1  0
 16 35  1  0
 17 36  1  0
 38 37  1  1
 38 39  1  0
 39 40  1  0
 38 41  1  0
 41 42  1  0
 42 43  1  0
 43 44  2  0
 43 45  1  0
 45 46  1  6
 45 47  1  0
 47 48  1  0
 48 38  1  0
 47 42  1  0
 37 49  1  0
 37 50  1  0
 39 51  1  0
 39 52  1  0
 41 53  1  0
 41 54  1  0
 45 55  1  0
 47 56  1  6
 25 37  1  0
M  ISO  8  26   8  27   8  28  14  29  14  30  14  33   8  34   8  35  14
M  ISO  3  36  14  40   8  46  15
M  END
>  <DihAtoms>  (1) 
17,24,36,37

>  <DihDeg>  (1) 
79.54947117942363

$$$$
