
     RDKit          3D

 56 60  0  0  1  0  0  0  0  0999 V2000
   42.3560   35.0210   40.0290 C   0  0  0  0  0  0  0  0  0  0  0  0
   41.8520   35.3010   38.7830 C   0  0  0  0  0  0  0  0  0  0  0  0
   40.6400   34.8740   38.2800 C   0  0  0  0  0  0  0  0  0  0  0  0
   39.8820   34.1040   39.1030 C   0  0  0  0  0  0  0  0  0  0  0  0
   40.3900   33.8240   40.3540 C   0  0  0  0  0  0  0  0  0  0  0  0
   41.5740   34.2510   40.8230 N   0  0  0  0  0  0  0  0  0  0  0  0
   39.5040   32.9670   41.2170 C   0  0  0  0  0  0  0  0  0  0  0  0
   38.1750   33.1890   40.8630 F   0  0  0  0  0  0  0  0  0  0  0  0
   39.7330   33.1030   42.5510 F   0  0  0  0  0  0  0  0  0  0  0  0
   39.7360   31.6220   40.9120 F   0  0  0  0  0  0  0  0  0  0  0  0
   43.6040   35.4250   40.6280 C   0  0  0  0  0  0  0  0  0  0  0  0
   43.6590   35.4250   42.1140 C   0  0  0  0  0  0  0  0  0  0  0  0
   46.7910   33.5180   42.6550 C   0  0  0  0  0  0  0  0  0  0  0  0
   46.8920   33.6490   43.9990 C   0  0  0  0  0  0  0  0  0  0  0  0
   45.3920   34.6560   44.3950 S   0  0  0  0  0  0  0  0  0  0  0  0
   44.8770   34.7250   42.6140 C   0  0  0  0  0  0  0  0  0  0  0  0
   45.7450   34.1110   42.1700 N   0  0  0  0  0  0  0  0  0  0  0  0
   49.4120   32.6300   40.1080 C   0  0  0  0  0  0  0  0  0  0  0  0
   48.5090   33.4030   40.8560 C   0  0  0  0  0  0  0  0  0  0  0  0
   47.7620   32.7830   41.8270 C   0  0  0  0  0  0  0  0  0  0  0  0
   47.9530   31.4190   42.0080 N   0  0  0  0  0  0  0  0  0  0  0  0
   48.8320   30.7230   41.2670 C   0  0  0  0  0  0  0  0  0  0  0  0
   49.5670   31.3240   40.3110 N   0  0  0  0  0  0  0  0  0  0  0  0
   48.4310   34.7830   40.5480 N   0  0  0  0  0  0  0  0  0  0  0  0
   38.3070   33.4830   38.5580 S   0  0  0  0  0  0  0  0  0  0  0  0
   38.3640   32.3290   37.2000 C   0  0  0  0  0  0  0  0  0  0  0  0
   39.0800   31.0470   37.4180 C   0  0  2  0  0  0  0  0  0  0  0  0
   40.5120   31.0040   37.6900 C   0  0  0  0  0  0  0  0  0  0  0  0
   41.2360   30.2610   36.6510 N   0  0  0  0  0  0  0  0  0  0  0  0
   42.2650   29.8960   35.7410 C   0  0  0  0  0  0  0  0  0  0  0  0
   43.5020   30.1950   35.6850 O   0  0  0  0  0  0  0  0  0  0  0  0
   41.3630   29.0570   34.9120 C   0  0  0  0  0  0  0  0  0  0  0  0
   40.4910   29.1010   36.1400 C   0  0  2  0  0  0  0  0  0  0  0  0
   38.8980   29.9690   35.9240 S   0  0  0  0  0  0  0  0  0  0  0  0
   38.2880   30.2280   38.4970 C   0  0  0  0  0  0  0  0  0  0  0  0
   42.4731   35.9247   38.1232 H   0  0  0  0  0  0  0  0  0  0  0  0
   40.3058   35.1428   37.2671 H   0  0  0  0  0  0  0  0  0  0  0  0
   44.3854   34.7412   40.2649 H   0  0  0  0  0  0  0  0  0  0  0  0
   43.7415   36.4755   40.3322 H   0  0  0  0  0  0  0  0  0  0  0  0
   43.6720   36.4652   42.4715 H   0  0  0  0  0  0  0  0  0  0  0  0
   42.7741   34.8927   42.4929 H   0  0  0  0  0  0  0  0  0  0  0  0
   47.6644   33.2585   44.6779 H   0  0  0  0  0  0  0  0  0  0  0  0
   50.0118   33.1210   39.3275 H   0  0  0  0  0  0  0  0  0  0  0  0
   48.9535   29.6442   41.4440 H   0  0  0  0  0  0  0  0  0  0  0  0
   47.7834   35.3912   41.0692 H   0  0  0  0  0  0  0  0  0  0  0  0
   49.0219   35.1786   39.8028 H   0  0  0  0  0  0  0  0  0  0  0  0
   37.3256   32.0847   36.9318 H   0  0  0  0  0  0  0  0  0  0  0  0
   38.9436   32.8439   36.4196 H   0  0  0  0  0  0  0  0  0  0  0  0
   40.8993   32.0328   37.7290 H   0  0  0  0  0  0  0  0  0  0  0  0
   40.6651   30.4907   38.6508 H   0  0  0  0  0  0  0  0  0  0  0  0
   40.9489   29.5450   34.0174 H   0  0  0  0  0  0  0  0  0  0  0  0
   41.6740   28.1284   34.4110 H   0  0  0  0  0  0  0  0  0  0  0  0
   40.3212   28.1190   36.6057 H   0  0  0  0  0  0  0  0  0  0  0  0
   38.5987   30.5493   39.5021 H   0  0  0  0  0  0  0  0  0  0  0  0
   37.2094   30.4047   38.3726 H   0  0  0  0  0  0  0  0  0  0  0  0
   38.5007   29.1559   38.3726 H   0  0  0  0  0  0  0  0  0  0  0  0
  1 11  1  0
  1  6  1  0
  2  1  2  0
  3  2  1  0
  3  4  2  0
  4  5  1  0
  5  6  2  0
  5  7  1  0
  7  9  1  0
  8  7  1  0
 10  7  1  0
 11 12  1  0
 12 16  1  0
 13 14  2  0
 14 15  1  0
 16 15  1  0
 17 16  2  0
 17 13  1  0
 18 23  2  0
 18 19  1  0
 19 20  2  0
 20 21  1  0
 20 13  1  0
 22 21  2  0
 23 22  1  0
 24 19  1  0
 25  4  1  0
 26 25  1  0
 27 26  1  6
 27 28  1  0
 27 35  1  0
 29 28  1  0
 30 29  1  0
 31 30  2  0
 32 30  1  0
 33 32  1  0
 33 29  1  0
 34 33  1  0
 34 27  1  0
  2 36  1  0
  3 37  1  0
 11 38  1  0
 11 39  1  0
 12 40  1  0
 12 41  1  0
 14 42  1  0
 18 43  1  0
 22 44  1  0
 24 45  1  0
 24 46  1  0
 26 47  1  0
 26 48  1  0
 28 49  1  0
 28 50  1  0
 32 51  1  0
 32 52  1  0
 33 53  1  1
 35 54  1  0
 35 55  1  0
 35 56  1  0
M  ISO  8  36  14  37  14  38   8  39   8  40   8  41   8  42  14  43  14
M  ISO  8  44  14  47   8  48   8  49  13  50  13  51  13  52  13  53  13
M  ISO  3  54   8  55   8  56   8
M  END
>  <minimizedAffinity>  (1) 
-5.95263815

>  <minimizedRMSD>  (1) 
1.66966105

$$$$
