
     RDKit          3D

 30 32  0  0  0  0  0  0  0  0999 V2000
   44.5422   36.0278   44.5277 C   0  0  0  0  0  0  0  0  0  0  0  0
   45.2604   35.8936   43.3185 C   0  0  0  0  0  0  0  0  0  0  0  0
   46.1344   34.7880   43.2093 C   0  0  0  0  0  0  0  0  0  0  0  0
   46.2305   33.9337   44.2566 N   0  0  0  0  0  0  0  0  0  0  0  0
   45.5285   34.0987   45.3899 C   0  0  0  0  0  0  0  0  0  0  0  0
   44.6827   35.1440   45.5311 N   0  0  0  0  0  0  0  0  0  0  0  0
   47.0723   34.5672   41.6959 S   0  0  0  0  0  0  0  0  0  0  0  0
   43.9017   36.8926   44.5289 H   0  0  0  0  0  0  0  0  0  0  0  0
   45.1595   36.5962   42.4998 H   0  0  0  0  0  0  0  0  0  0  0  0
   45.5985   33.4229   46.2300 H   0  0  0  0  0  0  0  0  0  0  0  0
   48.0964   33.0857   41.8367 C   0  0  0  0  0  0  0  0  0  0  0  0
   47.2399   31.9913   42.4221 C   0  0  1  0  0  0  0  0  0  0  0  0
   46.0488   31.6696   41.5826 C   0  0  0  0  0  0  0  0  0  0  0  0
   45.5236   30.8255   42.1191 H   0  0  0  0  0  0  0  0  0  0  0  0
   48.0136   30.7323   42.6886 C   0  0  0  0  0  0  0  0  0  0  0  0
   48.5866   30.8475   44.0195 N   0  0  0  0  0  0  0  0  0  0  0  0
   49.4140   30.9404   45.1775 C   0  0  0  0  0  0  0  0  0  0  0  0
   50.6523   30.7847   45.3687 O   0  0  0  0  0  0  0  0  0  0  0  0
   48.3002   31.2884   46.0953 C   0  0  1  0  0  0  0  0  0  0  0  0
   48.1351   30.5348   46.9181 H   0  0  0  0  0  0  0  0  0  0  0  0
   47.4384   30.9621   44.9323 C   0  0  1  0  0  0  0  0  0  0  0  0
   46.6622   32.4034   44.0949 S   0  0  0  0  0  0  0  0  0  0  0  0
   48.4199   32.7157   40.8376 H   0  0  0  0  0  0  0  0  0  0  0  0
   48.9985   33.2800   42.4125 H   0  0  0  0  0  0  0  0  0  0  0  0
   45.2888   32.4801   41.5633 H   0  0  0  0  0  0  0  0  0  0  0  0
   46.3133   31.2670   40.5957 H   0  0  0  0  0  0  0  0  0  0  0  0
   48.8291   30.6737   41.9384 H   0  0  0  0  0  0  0  0  0  0  0  0
   47.3638   29.8420   42.6935 H   0  0  0  0  0  0  0  0  0  0  0  0
   48.2764   32.3431   46.4356 H   0  0  0  0  0  0  0  0  0  0  0  0
   46.7929   30.0844   44.9764 H   0  0  0  0  0  0  0  0  0  0  0  0
  1  6  2  0
  2  1  1  0
  3  2  2  0
  3  4  1  0
  4  5  2  0
  5  6  1  0
  7  3  1  0
  1  8  1  0
  2  9  1  0
  5 10  1  0
 12 11  1  6
 12 13  1  0
 13 14  1  0
 12 15  1  0
 15 16  1  0
 16 17  1  0
 17 18  2  0
 17 19  1  0
 19 20  1  1
 19 21  1  0
 21 22  1  0
 22 12  1  0
 21 16  1  0
 11 23  1  0
 11 24  1  0
 13 25  1  0
 13 26  1  0
 15 27  1  0
 15 28  1  0
 19 29  1  0
 21 30  1  1
  7 11  1  0
M  ISO  5   8  14   9  14  10  14  14   8  20  15
M  END
>  <DihAtoms>  (1) 
2,6,10,11

>  <DihDeg>  (1) 
179.99985870743572

$$$$
