
     RDKit          3D

 30 32  0  0  0  0  0  0  0  0999 V2000
   44.5422   36.0278   44.5277 C   0  0  0  0  0  0  0  0  0  0  0  0
   45.2604   35.8936   43.3185 C   0  0  0  0  0  0  0  0  0  0  0  0
   46.1344   34.7880   43.2093 C   0  0  0  0  0  0  0  0  0  0  0  0
   46.2305   33.9337   44.2566 N   0  0  0  0  0  0  0  0  0  0  0  0
   45.5285   34.0987   45.3899 C   0  0  0  0  0  0  0  0  0  0  0  0
   44.6827   35.1440   45.5311 N   0  0  0  0  0  0  0  0  0  0  0  0
   47.0723   34.5672   41.6959 S   0  0  0  0  0  0  0  0  0  0  0  0
   43.9017   36.8926   44.5289 H   0  0  0  0  0  0  0  0  0  0  0  0
   45.1595   36.5962   42.4998 H   0  0  0  0  0  0  0  0  0  0  0  0
   45.5985   33.4229   46.2300 H   0  0  0  0  0  0  0  0  0  0  0  0
   48.0964   33.0857   41.8367 C   0  0  0  0  0  0  0  0  0  0  0  0
   47.4560   32.0056   41.0016 C   0  0  1  0  0  0  0  0  0  0  0  0
   47.3432   32.3720   39.5594 C   0  0  0  0  0  0  0  0  0  0  0  0
   46.8802   31.4723   39.0573 H   0  0  0  0  0  0  0  0  0  0  0  0
   48.1614   30.6857   41.1244 C   0  0  0  0  0  0  0  0  0  0  0  0
   47.5896   29.9917   42.2664 N   0  0  0  0  0  0  0  0  0  0  0  0
   47.3115   29.3273   43.4975 C   0  0  0  0  0  0  0  0  0  0  0  0
   48.0448   28.8929   44.4290 O   0  0  0  0  0  0  0  0  0  0  0  0
   45.8397   29.3221   43.3033 C   0  0  1  0  0  0  0  0  0  0  0  0
   45.3905   28.2890   43.2503 H   0  0  0  0  0  0  0  0  0  0  0  0
   46.1685   29.7996   41.9373 C   0  0  1  0  0  0  0  0  0  0  0  0
   45.7996   31.5708   41.6092 S   0  0  0  0  0  0  0  0  0  0  0  0
   49.1087   33.2453   41.4012 H   0  0  0  0  0  0  0  0  0  0  0  0
   48.2379   32.7983   42.8762 H   0  0  0  0  0  0  0  0  0  0  0  0
   46.6113   33.1853   39.3651 H   0  0  0  0  0  0  0  0  0  0  0  0
   48.3179   32.5078   39.0719 H   0  0  0  0  0  0  0  0  0  0  0  0
   49.2340   30.8945   41.3173 H   0  0  0  0  0  0  0  0  0  0  0  0
   47.9958   30.0459   40.2424 H   0  0  0  0  0  0  0  0  0  0  0  0
   45.2735   30.0302   43.9411 H   0  0  0  0  0  0  0  0  0  0  0  0
   45.9749   29.1490   41.0840 H   0  0  0  0  0  0  0  0  0  0  0  0
  1  6  2  0
  2  1  1  0
  3  2  2  0
  3  4  1  0
  4  5  2  0
  5  6  1  0
  7  3  1  0
  1  8  1  0
  2  9  1  0
  5 10  1  0
 12 11  1  1
 12 13  1  0
 13 14  1  0
 12 15  1  0
 15 16  1  0
 16 17  1  0
 17 18  2  0
 17 19  1  0
 19 20  1  6
 19 21  1  0
 21 22  1  0
 22 12  1  0
 21 16  1  0
 11 23  1  0
 11 24  1  0
 13 25  1  0
 13 26  1  0
 15 27  1  0
 15 28  1  0
 19 29  1  0
 21 30  1  6
  7 11  1  0
M  ISO  5   8  14   9  14  10  14  14   8  20  15
M  END
>  <DihAtoms>  (1) 
2,6,10,11

>  <DihDeg>  (1) 
179.99985870743572

$$$$
