
     RDKit          3D

 30 32  0  0  0  0  0  0  0  0999 V2000
   44.5422   36.0278   44.5277 C   0  0  0  0  0  0  0  0  0  0  0  0
   45.2604   35.8936   43.3185 C   0  0  0  0  0  0  0  0  0  0  0  0
   46.1344   34.7880   43.2093 C   0  0  0  0  0  0  0  0  0  0  0  0
   46.2305   33.9337   44.2566 N   0  0  0  0  0  0  0  0  0  0  0  0
   45.5285   34.0987   45.3899 C   0  0  0  0  0  0  0  0  0  0  0  0
   44.6827   35.1440   45.5311 N   0  0  0  0  0  0  0  0  0  0  0  0
   47.0723   34.5672   41.6959 S   0  0  0  0  0  0  0  0  0  0  0  0
   43.9017   36.8926   44.5289 H   0  0  0  0  0  0  0  0  0  0  0  0
   45.1595   36.5962   42.4998 H   0  0  0  0  0  0  0  0  0  0  0  0
   45.5985   33.4229   46.2300 H   0  0  0  0  0  0  0  0  0  0  0  0
   48.0964   33.0857   41.8367 C   0  0  0  0  0  0  0  0  0  0  0  0
   48.4483   32.9093   43.2924 C   0  0  1  0  0  0  0  0  0  0  0  0
   47.2505   32.7459   44.1673 C   0  0  0  0  0  0  0  0  0  0  0  0
   47.6593   32.5956   45.2096 H   0  0  0  0  0  0  0  0  0  0  0  0
   49.3918   31.7643   43.5241 C   0  0  0  0  0  0  0  0  0  0  0  0
   50.7433   32.2768   43.3708 N   0  0  0  0  0  0  0  0  0  0  0  0
   52.0848   32.5789   42.9922 C   0  0  0  0  0  0  0  0  0  0  0  0
   52.8999   32.0367   42.1948 O   0  0  0  0  0  0  0  0  0  0  0  0
   52.1947   33.7692   43.8726 C   0  0  1  0  0  0  0  0  0  0  0  0
   52.9942   33.6794   44.6630 H   0  0  0  0  0  0  0  0  0  0  0  0
   50.8948   33.3022   44.4150 C   0  0  1  0  0  0  0  0  0  0  0  0
   49.4302   34.3007   43.9264 S   0  0  0  0  0  0  0  0  0  0  0  0
   47.5327   32.1699   41.5481 H   0  0  0  0  0  0  0  0  0  0  0  0
   48.9674   33.1421   41.1877 H   0  0  0  0  0  0  0  0  0  0  0  0
   46.6385   33.6691   44.2571 H   0  0  0  0  0  0  0  0  0  0  0  0
   46.6762   31.8363   43.9460 H   0  0  0  0  0  0  0  0  0  0  0  0
   49.1940   31.0023   42.7421 H   0  0  0  0  0  0  0  0  0  0  0  0
   49.3126   31.3654   44.5485 H   0  0  0  0  0  0  0  0  0  0  0  0
   52.1795   34.7481   43.3528 H   0  0  0  0  0  0  0  0  0  0  0  0
   50.8467   32.9306   45.4390 H   0  0  0  0  0  0  0  0  0  0  0  0
  1  6  2  0
  2  1  1  0
  3  2  2  0
  3  4  1  0
  4  5  2  0
  5  6  1  0
  7  3  1  0
  1  8  1  0
  2  9  1  0
  5 10  1  0
 12 11  1  6
 12 13  1  0
 13 14  1  0
 12 15  1  0
 15 16  1  0
 16 17  1  0
 17 18  2  0
 17 19  1  0
 19 20  1  1
 19 21  1  0
 21 22  1  0
 22 12  1  0
 21 16  1  0
 11 23  1  0
 11 24  1  0
 13 25  1  0
 13 26  1  0
 15 27  1  0
 15 28  1  0
 19 29  1  0
 21 30  1  1
  7 11  1  0
M  ISO  5   8  14   9  14  10  14  14   8  20  15
M  END
>  <DihAtoms>  (1) 
2,6,10,11

>  <DihDeg>  (1) 
179.99985870743572

$$$$
