
     RDKit          3D

 30 32  0  0  0  0  0  0  0  0999 V2000
   44.5422   36.0278   44.5277 C   0  0  0  0  0  0  0  0  0  0  0  0
   45.2604   35.8936   43.3185 C   0  0  0  0  0  0  0  0  0  0  0  0
   46.1344   34.7880   43.2093 C   0  0  0  0  0  0  0  0  0  0  0  0
   46.2305   33.9337   44.2566 N   0  0  0  0  0  0  0  0  0  0  0  0
   45.5285   34.0987   45.3899 C   0  0  0  0  0  0  0  0  0  0  0  0
   44.6827   35.1440   45.5311 N   0  0  0  0  0  0  0  0  0  0  0  0
   47.0723   34.5672   41.6959 S   0  0  0  0  0  0  0  0  0  0  0  0
   43.9017   36.8926   44.5289 H   0  0  0  0  0  0  0  0  0  0  0  0
   45.1595   36.5962   42.4998 H   0  0  0  0  0  0  0  0  0  0  0  0
   45.5985   33.4229   46.2300 H   0  0  0  0  0  0  0  0  0  0  0  0
   48.0964   33.0857   41.8367 C   0  0  0  0  0  0  0  0  0  0  0  0
   49.5359   33.5082   41.6838 C   0  0  1  0  0  0  0  0  0  0  0  0
   49.9703   34.4886   42.7216 C   0  0  0  0  0  0  0  0  0  0  0  0
   51.0607   34.6898   42.5055 H   0  0  0  0  0  0  0  0  0  0  0  0
   50.4824   32.3425   41.6754 C   0  0  0  0  0  0  0  0  0  0  0  0
   50.5860   31.8764   40.3025 N   0  0  0  0  0  0  0  0  0  0  0  0
   50.5730   31.1609   39.0687 C   0  0  0  0  0  0  0  0  0  0  0  0
   50.3555   29.9527   38.7735 O   0  0  0  0  0  0  0  0  0  0  0  0
   50.9086   32.3447   38.2381 C   0  0  1  0  0  0  0  0  0  0  0  0
   51.8834   32.2478   37.6791 H   0  0  0  0  0  0  0  0  0  0  0  0
   51.1403   33.0090   39.5445 C   0  0  1  0  0  0  0  0  0  0  0  0
   49.8609   34.2299   40.0481 S   0  0  0  0  0  0  0  0  0  0  0  0
   48.0202   32.6306   42.8501 H   0  0  0  0  0  0  0  0  0  0  0  0
   47.7935   32.3244   41.1213 H   0  0  0  0  0  0  0  0  0  0  0  0
   49.4941   35.4869   42.6145 H   0  0  0  0  0  0  0  0  0  0  0  0
   49.9465   34.0773   43.7396 H   0  0  0  0  0  0  0  0  0  0  0  0
   50.0379   31.5441   42.3048 H   0  0  0  0  0  0  0  0  0  0  0  0
   51.4967   32.6324   41.9947 H   0  0  0  0  0  0  0  0  0  0  0  0
   50.0756   32.7498   37.6291 H   0  0  0  0  0  0  0  0  0  0  0  0
   52.1537   33.3003   39.8224 H   0  0  0  0  0  0  0  0  0  0  0  0
  1  6  2  0
  2  1  1  0
  3  2  2  0
  3  4  1  0
  4  5  2  0
  5  6  1  0
  7  3  1  0
  1  8  1  0
  2  9  1  0
  5 10  1  0
 12 11  1  6
 12 13  1  0
 13 14  1  0
 12 15  1  0
 15 16  1  0
 16 17  1  0
 17 18  2  0
 17 19  1  0
 19 20  1  6
 19 21  1  0
 21 22  1  0
 22 12  1  0
 21 16  1  0
 11 23  1  0
 11 24  1  0
 13 25  1  0
 13 26  1  0
 15 27  1  0
 15 28  1  0
 19 29  1  0
 21 30  1  1
  7 11  1  0
M  ISO  5   8  14   9  14  10  14  14   8  20  15
M  END
>  <DihAtoms>  (1) 
2,6,10,11

>  <DihDeg>  (1) 
179.99985870743572

$$$$
