
     RDKit          3D

 30 32  0  0  0  0  0  0  0  0999 V2000
   44.5422   36.0278   44.5277 C   0  0  0  0  0  0  0  0  0  0  0  0
   45.2604   35.8936   43.3185 C   0  0  0  0  0  0  0  0  0  0  0  0
   46.1344   34.7880   43.2093 C   0  0  0  0  0  0  0  0  0  0  0  0
   46.2305   33.9337   44.2566 N   0  0  0  0  0  0  0  0  0  0  0  0
   45.5285   34.0987   45.3899 C   0  0  0  0  0  0  0  0  0  0  0  0
   44.6827   35.1440   45.5311 N   0  0  0  0  0  0  0  0  0  0  0  0
   47.0723   34.5672   41.6959 S   0  0  0  0  0  0  0  0  0  0  0  0
   43.9017   36.8926   44.5289 H   0  0  0  0  0  0  0  0  0  0  0  0
   45.1595   36.5962   42.4998 H   0  0  0  0  0  0  0  0  0  0  0  0
   45.5985   33.4229   46.2300 H   0  0  0  0  0  0  0  0  0  0  0  0
   48.0964   33.0857   41.8367 C   0  0  0  0  0  0  0  0  0  0  0  0
   47.8459   32.4838   43.1965 C   0  0  1  0  0  0  0  0  0  0  0  0
   46.4200   32.1000   43.4117 C   0  0  0  0  0  0  0  0  0  0  0  0
   46.3856   31.6424   44.4439 H   0  0  0  0  0  0  0  0  0  0  0  0
   48.7259   31.2994   43.4750 C   0  0  0  0  0  0  0  0  0  0  0  0
   49.9646   31.8025   44.0452 N   0  0  0  0  0  0  0  0  0  0  0  0
   51.3066   32.1707   44.3581 C   0  0  0  0  0  0  0  0  0  0  0  0
   52.4247   31.8662   43.8568 O   0  0  0  0  0  0  0  0  0  0  0  0
   50.9301   33.0491   45.4941 C   0  0  1  0  0  0  0  0  0  0  0  0
   51.3466   32.7139   46.4872 H   0  0  0  0  0  0  0  0  0  0  0  0
   49.5765   32.4746   45.2952 C   0  0  1  0  0  0  0  0  0  0  0  0
   48.3414   33.6061   44.5369 S   0  0  0  0  0  0  0  0  0  0  0  0
   47.7933   32.3075   41.1003 H   0  0  0  0  0  0  0  0  0  0  0  0
   49.1448   33.3089   41.6519 H   0  0  0  0  0  0  0  0  0  0  0  0
   45.7339   32.9707   43.4888 H   0  0  0  0  0  0  0  0  0  0  0  0
   46.0794   31.3083   42.7310 H   0  0  0  0  0  0  0  0  0  0  0  0
   48.9393   30.8037   42.5055 H   0  0  0  0  0  0  0  0  0  0  0  0
   48.2803   30.6206   44.2204 H   0  0  0  0  0  0  0  0  0  0  0  0
   51.0272   34.1373   45.3063 H   0  0  0  0  0  0  0  0  0  0  0  0
   49.1566   31.8214   46.0607 H   0  0  0  0  0  0  0  0  0  0  0  0
  1  6  2  0
  2  1  1  0
  3  2  2  0
  3  4  1  0
  4  5  2  0
  5  6  1  0
  7  3  1  0
  1  8  1  0
  2  9  1  0
  5 10  1  0
 12 11  1  6
 12 13  1  0
 13 14  1  0
 12 15  1  0
 15 16  1  0
 16 17  1  0
 17 18  2  0
 17 19  1  0
 19 20  1  1
 19 21  1  0
 21 22  1  0
 22 12  1  0
 21 16  1  0
 11 23  1  0
 11 24  1  0
 13 25  1  0
 13 26  1  0
 15 27  1  0
 15 28  1  0
 19 29  1  0
 21 30  1  1
  7 11  1  0
M  ISO  5   8  14   9  14  10  14  14   8  20  15
M  END
>  <DihAtoms>  (1) 
2,6,10,11

>  <DihDeg>  (1) 
179.99985870743572

$$$$
