
     RDKit          3D

 30 32  0  0  0  0  0  0  0  0999 V2000
   44.5422   36.0278   44.5277 C   0  0  0  0  0  0  0  0  0  0  0  0
   45.2604   35.8936   43.3185 C   0  0  0  0  0  0  0  0  0  0  0  0
   46.1344   34.7880   43.2093 C   0  0  0  0  0  0  0  0  0  0  0  0
   46.2305   33.9337   44.2566 N   0  0  0  0  0  0  0  0  0  0  0  0
   45.5285   34.0987   45.3899 C   0  0  0  0  0  0  0  0  0  0  0  0
   44.6827   35.1440   45.5311 N   0  0  0  0  0  0  0  0  0  0  0  0
   47.0723   34.5672   41.6959 S   0  0  0  0  0  0  0  0  0  0  0  0
   43.9017   36.8926   44.5289 H   0  0  0  0  0  0  0  0  0  0  0  0
   45.1595   36.5962   42.4998 H   0  0  0  0  0  0  0  0  0  0  0  0
   45.5985   33.4229   46.2300 H   0  0  0  0  0  0  0  0  0  0  0  0
   48.0964   33.0857   41.8367 C   0  0  0  0  0  0  0  0  0  0  0  0
   47.1920   31.8883   41.6870 C   0  0  1  0  0  0  0  0  0  0  0  0
   46.4810   31.8536   40.3755 C   0  0  0  0  0  0  0  0  0  0  0  0
   45.8722   30.9022   40.3900 H   0  0  0  0  0  0  0  0  0  0  0  0
   47.9152   30.5887   41.8938 C   0  0  0  0  0  0  0  0  0  0  0  0
   47.8865   30.2969   43.3175 N   0  0  0  0  0  0  0  0  0  0  0  0
   48.1613   30.0282   44.6910 C   0  0  0  0  0  0  0  0  0  0  0  0
   49.2256   29.7947   45.3290 O   0  0  0  0  0  0  0  0  0  0  0  0
   46.7427   30.1189   45.1190 C   0  0  1  0  0  0  0  0  0  0  0  0
   46.3363   29.1620   45.5563 H   0  0  0  0  0  0  0  0  0  0  0  0
   46.4622   30.1666   43.6627 C   0  0  1  0  0  0  0  0  0  0  0  0
   45.9491   31.8073   43.0101 S   0  0  0  0  0  0  0  0  0  0  0  0
   48.8317   33.0161   41.0035 H   0  0  0  0  0  0  0  0  0  0  0  0
   48.6641   33.0823   42.7645 H   0  0  0  0  0  0  0  0  0  0  0  0
   45.7159   32.6519   40.2653 H   0  0  0  0  0  0  0  0  0  0  0  0
   47.1611   31.7508   39.5193 H   0  0  0  0  0  0  0  0  0  0  0  0
   48.9656   30.7327   41.5666 H   0  0  0  0  0  0  0  0  0  0  0  0
   47.4126   29.7512   41.3830 H   0  0  0  0  0  0  0  0  0  0  0  0
   46.4767   31.0285   45.6939 H   0  0  0  0  0  0  0  0  0  0  0  0
   45.9464   29.3296   43.1911 H   0  0  0  0  0  0  0  0  0  0  0  0
  1  6  2  0
  2  1  1  0
  3  2  2  0
  3  4  1  0
  4  5  2  0
  5  6  1  0
  7  3  1  0
  1  8  1  0
  2  9  1  0
  5 10  1  0
 12 11  1  1
 12 13  1  0
 13 14  1  0
 12 15  1  0
 15 16  1  0
 16 17  1  0
 17 18  2  0
 17 19  1  0
 19 20  1  1
 19 21  1  0
 21 22  1  0
 22 12  1  0
 21 16  1  0
 11 23  1  0
 11 24  1  0
 13 25  1  0
 13 26  1  0
 15 27  1  0
 15 28  1  0
 19 29  1  0
 21 30  1  6
  7 11  1  0
M  ISO  5   8  14   9  14  10  14  14   8  20  15
M  END
>  <DihAtoms>  (1) 
2,6,10,11

>  <DihDeg>  (1) 
179.99985870743572

$$$$
