
     RDKit          3D

 44 47  0  0  1  0  0  0  0  0999 V2000
   44.5120   35.5400   45.1040 C   0  0  0  0  0  0  0  0  0  0  0  0
   45.1970   35.4930   43.8610 C   0  0  0  0  0  0  0  0  0  0  0  0
   46.1260   34.5100   43.6470 C   0  0  0  0  0  0  0  0  0  0  0  0
   46.3190   33.6410   44.6670 N   0  0  0  0  0  0  0  0  0  0  0  0
   45.6850   33.6780   45.8290 C   0  0  0  0  0  0  0  0  0  0  0  0
   44.7700   34.6270   46.0710 N   0  0  0  0  0  0  0  0  0  0  0  0
   46.0020   32.6930   46.7950 N   0  0  0  0  0  0  0  0  0  0  0  0
   45.1750   32.4050   47.9770 C   0  0  0  0  0  0  0  0  0  0  0  0
   46.2270   32.1180   49.0220 C   0  0  0  0  0  0  0  0  0  0  0  0
   47.5390   31.9970   48.3070 C   0  0  0  0  0  0  0  0  0  0  0  0
   47.1260   31.7880   46.8640 C   0  0  1  0  0  0  0  0  0  0  0  0
   44.8270   36.5190   42.9270 N   0  0  0  0  0  0  0  0  0  0  0  0
   46.6160   30.0690   46.6490 S   0  0  0  0  0  0  0  0  0  0  0  0
   46.4170   29.7660   44.8730 C   0  0  0  0  0  0  0  0  0  0  0  0
   45.0300   29.2770   44.5400 C   0  0  2  0  0  0  0  0  0  0  0  0
   44.2130   29.2250   45.8070 C   0  0  0  0  0  0  0  0  0  0  0  0
   43.2970   28.1120   45.6790 N   0  0  0  0  0  0  0  0  0  0  0  0
   42.1680   27.2520   45.5780 C   0  0  0  0  0  0  0  0  0  0  0  0
   40.9320   27.3570   45.7480 O   0  0  0  0  0  0  0  0  0  0  0  0
   42.9710   26.0710   45.1680 C   0  0  0  0  0  0  0  0  0  0  0  0
   44.1380   26.9110   45.5500 C   0  0  1  0  0  0  0  0  0  0  0  0
   45.1730   27.4990   44.1480 S   0  0  0  0  0  0  0  0  0  0  0  0
   44.3840   30.0600   43.4440 C   0  0  0  0  0  0  0  0  0  0  0  0
   43.7639   36.3262   45.2836 H   0  0  0  0  0  0  0  0  0  0  0  0
   46.6829   34.4311   42.7017 H   0  0  0  0  0  0  0  0  0  0  0  0
   44.5582   33.2720   48.2561 H   0  0  0  0  0  0  0  0  0  0  0  0
   44.4552   31.5862   47.8304 H   0  0  0  0  0  0  0  0  0  0  0  0
   46.2691   32.9410   49.7506 H   0  0  0  0  0  0  0  0  0  0  0  0
   45.9928   31.1926   49.5686 H   0  0  0  0  0  0  0  0  0  0  0  0
   48.1354   32.9146   48.4181 H   0  0  0  0  0  0  0  0  0  0  0  0
   48.1711   31.1860   48.6976 H   0  0  0  0  0  0  0  0  0  0  0  0
   47.8942   31.9709   46.0982 H   0  0  0  0  0  0  0  0  0  0  0  0
   45.2756   36.5583   42.0006 H   0  0  0  0  0  0  0  0  0  0  0  0
   44.1130   37.2157   43.1834 H   0  0  0  0  0  0  0  0  0  0  0  0
   46.6042   30.7034   44.3288 H   0  0  0  0  0  0  0  0  0  0  0  0
   47.1345   28.9866   44.5768 H   0  0  0  0  0  0  0  0  0  0  0  0
   44.8720   29.0731   46.6746 H   0  0  0  0  0  0  0  0  0  0  0  0
   43.6651   30.1668   45.9577 H   0  0  0  0  0  0  0  0  0  0  0  0
   42.9099   25.8083   44.1016 H   0  0  0  0  0  0  0  0  0  0  0  0
   42.8007   25.0584   45.5626 H   0  0  0  0  0  0  0  0  0  0  0  0
   44.7842   26.4457   46.3089 H   0  0  0  0  0  0  0  0  0  0  0  0
   43.7412   30.8391   43.8797 H   0  0  0  0  0  0  0  0  0  0  0  0
   45.1603   30.5303   42.8226 H   0  0  0  0  0  0  0  0  0  0  0  0
   43.7748   29.3872   42.8226 H   0  0  0  0  0  0  0  0  0  0  0  0
  1  6  2  0
  2  1  1  0
  3  2  2  0
  3  4  1  0
  4  5  2  0
  5  6  1  0
  5  7  1  0
  7 11  1  0
  7  8  1  0
  8  9  1  0
 10  9  1  0
 11 10  1  0
 12  2  1  0
 13 11  1  0
 14 13  1  0
 15 23  1  6
 15 14  1  0
 15 16  1  0
 17 16  1  0
 18 17  1  0
 18 19  2  0
 20 21  1  0
 20 18  1  0
 21 22  1  0
 21 17  1  0
 22 15  1  0
  1 24  1  0
  3 25  1  0
  8 26  1  0
  8 27  1  0
  9 28  1  0
  9 29  1  0
 10 30  1  0
 10 31  1  0
 11 32  1  6
 12 33  1  0
 12 34  1  0
 14 35  1  0
 14 36  1  0
 16 37  1  0
 16 38  1  0
 20 39  1  0
 20 40  1  0
 21 41  1  1
 23 42  1  0
 23 43  1  0
 23 44  1  0
M  ISO  8  24  14  25  14  26  13  27  13  28  13  29  13  30  13  31  13
M  ISO  8  32  13  35   8  36   8  37  13  38  13  39  13  40  13  41  13
M  ISO  3  42   8  43   8  44   8
M  END
>  <minimizedAffinity>  (1) 
-5.24340534

>  <minimizedRMSD>  (1) 
2.39107633

$$$$
