
     RDKit          3D

 44 47  0  0  0  0  0  0  0  0999 V2000
   44.4875   35.7567   45.0066 C   0  0  0  0  0  0  0  0  0  0  0  0
   45.1250   35.7102   43.7392 C   0  0  0  0  0  0  0  0  0  0  0  0
   46.0162   34.7038   43.4775 C   0  0  0  0  0  0  0  0  0  0  0  0
   46.2198   33.8136   44.4762 N   0  0  0  0  0  0  0  0  0  0  0  0
   45.6291   33.8505   45.6607 C   0  0  0  0  0  0  0  0  0  0  0  0
   44.7519   34.8215   45.9501 N   0  0  0  0  0  0  0  0  0  0  0  0
   45.9510   32.8409   46.5999 N   0  0  0  0  0  0  0  0  0  0  0  0
   45.1589   32.5586   47.8074 C   0  0  0  0  0  0  0  0  0  0  0  0
   46.2389   32.2236   48.8083 C   0  0  0  0  0  0  0  0  0  0  0  0
   47.5197   32.0759   48.0436 C   0  0  0  0  0  0  0  0  0  0  0  0
   47.0497   31.9034   46.6144 C   0  0  1  0  0  0  0  0  0  0  0  0
   44.7532   36.7622   42.8347 N   0  0  0  0  0  0  0  0  0  0  0  0
   46.4811   30.2031   46.3924 S   0  0  0  0  0  0  0  0  0  0  0  0
   43.7710   36.5164   45.2982 H   0  0  0  0  0  0  0  0  0  0  0  0
   46.4761   34.6965   42.5204 H   0  0  0  0  0  0  0  0  0  0  0  0
   44.4680   31.7172   47.5971 H   0  0  0  0  0  0  0  0  0  0  0  0
   44.6174   33.4701   48.1022 H   0  0  0  0  0  0  0  0  0  0  0  0
   46.3023   33.0294   49.5711 H   0  0  0  0  0  0  0  0  0  0  0  0
   45.9501   31.2416   49.2654 H   0  0  0  0  0  0  0  0  0  0  0  0
   48.0390   31.1429   48.3292 H   0  0  0  0  0  0  0  0  0  0  0  0
   48.1842   32.9649   48.1337 H   0  0  0  0  0  0  0  0  0  0  0  0
   47.8358   32.1847   45.8840 H   0  0  0  0  0  0  0  0  0  0  0  0
   43.7411   37.0625   42.7912 H   0  0  0  0  0  0  0  0  0  0  0  0
   45.5497   37.1617   42.2687 H   0  0  0  0  0  0  0  0  0  0  0  0
   45.8030   30.0584   44.7167 C   0  0  0  0  0  0  0  0  0  0  0  0
   45.2927   28.6670   44.4374 C   0  0  0  0  0  0  0  0  0  0  0  0
   44.2043   28.2480   45.3703 C   0  0  0  0  0  0  0  0  0  0  0  0
   43.4726   27.5432   44.9576 H   0  0  0  0  0  0  0  0  0  0  0  0
   46.4623   27.7135   44.4083 C   0  0  0  0  0  0  0  0  0  0  0  0
   46.1521   26.6883   43.4365 N   0  0  0  0  0  0  0  0  0  0  0  0
   45.8670   25.4795   42.7403 C   0  0  0  0  0  0  0  0  0  0  0  0
   45.9187   24.2550   42.9963 O   0  0  0  0  0  0  0  0  0  0  0  0
   45.4476   26.1704   41.4952 C   0  0  0  0  0  0  0  0  0  0  0  0
   44.3740   26.1633   41.2685 H   0  0  0  0  0  0  0  0  0  0  0  0
   46.0124   27.3829   42.1471 C   0  0  0  0  0  0  0  0  0  0  0  0
   44.7757   28.6325   42.6859 S   0  0  0  0  0  0  0  0  0  0  0  0
   44.9689   30.7754   44.5435 H   0  0  0  0  0  0  0  0  0  0  0  0
   46.6152   30.3040   43.9973 H   0  0  0  0  0  0  0  0  0  0  0  0
   44.6444   27.8943   46.3246 H   0  0  0  0  0  0  0  0  0  0  0  0
   43.6325   29.1841   45.6314 H   0  0  0  0  0  0  0  0  0  0  0  0
   47.4048   28.2180   44.1419 H   0  0  0  0  0  0  0  0  0  0  0  0
   46.5398   27.2503   45.3938 H   0  0  0  0  0  0  0  0  0  0  0  0
   46.0759   25.8717   40.6072 H   0  0  0  0  0  0  0  0  0  0  0  0
   46.9272   27.8131   41.7402 H   0  0  0  0  0  0  0  0  0  0  0  0
  1  6  2  0
  2  1  1  0
  3  2  2  0
  3  4  1  0
  4  5  2  0
  5  6  1  0
  5  7  1  0
  7 11  1  0
  7  8  1  0
  8  9  1  0
 10  9  1  0
 11 10  1  0
 12  2  1  0
 13 11  1  0
  1 14  1  0
  3 15  1  0
  8 16  1  0
  8 17  1  0
  9 18  1  0
  9 19  1  0
 10 20  1  0
 10 21  1  0
 11 22  1  6
 12 23  1  0
 12 24  1  0
 25 26  1  0
 26 27  1  0
 27 28  1  0
 26 29  1  0
 29 30  1  0
 30 31  1  0
 31 32  2  0
 31 33  1  0
 33 34  1  0
 33 35  1  0
 35 36  1  0
 36 26  1  0
 35 30  1  0
 25 37  1  0
 25 38  1  0
 27 39  1  0
 27 40  1  0
 29 41  1  0
 29 42  1  0
 33 43  1  0
 35 44  1  0
 13 25  1  0
M  ISO  8  14  14  15  14  16  13  17  13  18  13  19  13  20  13  21  13
M  ISO  3  22  13  28   8  34  15
M  END
>  <DihAtoms>  (1) 
10,12,24,25

>  <DihDeg>  (1) 
-179.7067622155192

$$$$
