
     RDKit          3D

 44 47  0  0  0  0  0  0  0  0999 V2000
   44.4875   35.7567   45.0066 C   0  0  0  0  0  0  0  0  0  0  0  0
   45.1250   35.7102   43.7392 C   0  0  0  0  0  0  0  0  0  0  0  0
   46.0162   34.7038   43.4775 C   0  0  0  0  0  0  0  0  0  0  0  0
   46.2198   33.8136   44.4762 N   0  0  0  0  0  0  0  0  0  0  0  0
   45.6291   33.8505   45.6607 C   0  0  0  0  0  0  0  0  0  0  0  0
   44.7519   34.8215   45.9501 N   0  0  0  0  0  0  0  0  0  0  0  0
   45.9510   32.8409   46.5999 N   0  0  0  0  0  0  0  0  0  0  0  0
   45.1589   32.5586   47.8074 C   0  0  0  0  0  0  0  0  0  0  0  0
   46.2389   32.2236   48.8083 C   0  0  0  0  0  0  0  0  0  0  0  0
   47.5197   32.0759   48.0436 C   0  0  0  0  0  0  0  0  0  0  0  0
   47.0497   31.9034   46.6144 C   0  0  1  0  0  0  0  0  0  0  0  0
   44.7532   36.7622   42.8347 N   0  0  0  0  0  0  0  0  0  0  0  0
   46.4811   30.2031   46.3924 S   0  0  0  0  0  0  0  0  0  0  0  0
   43.7710   36.5164   45.2982 H   0  0  0  0  0  0  0  0  0  0  0  0
   46.4761   34.6965   42.5204 H   0  0  0  0  0  0  0  0  0  0  0  0
   44.4680   31.7172   47.5971 H   0  0  0  0  0  0  0  0  0  0  0  0
   44.6174   33.4701   48.1022 H   0  0  0  0  0  0  0  0  0  0  0  0
   46.3023   33.0294   49.5711 H   0  0  0  0  0  0  0  0  0  0  0  0
   45.9501   31.2416   49.2654 H   0  0  0  0  0  0  0  0  0  0  0  0
   48.0390   31.1429   48.3292 H   0  0  0  0  0  0  0  0  0  0  0  0
   48.1842   32.9649   48.1337 H   0  0  0  0  0  0  0  0  0  0  0  0
   47.8358   32.1847   45.8840 H   0  0  0  0  0  0  0  0  0  0  0  0
   43.7411   37.0625   42.7912 H   0  0  0  0  0  0  0  0  0  0  0  0
   45.5497   37.1617   42.2687 H   0  0  0  0  0  0  0  0  0  0  0  0
   45.8030   30.0584   44.7167 C   0  0  0  0  0  0  0  0  0  0  0  0
   45.2226   31.3636   44.2329 C   0  0  2  0  0  0  0  0  0  0  0  0
   46.2286   32.4665   44.1869 C   0  0  0  0  0  0  0  0  0  0  0  0
   46.0569   33.2318   43.4206 H   0  0  0  0  0  0  0  0  0  0  0  0
   44.0036   31.6933   45.0596 C   0  0  0  0  0  0  0  0  0  0  0  0
   43.0728   32.3797   44.1911 N   0  0  0  0  0  0  0  0  0  0  0  0
   42.1985   33.3021   43.5493 C   0  0  0  0  0  0  0  0  0  0  0  0
   41.6882   34.4101   43.8313 O   0  0  0  0  0  0  0  0  0  0  0  0
   42.0569   32.4783   42.3226 C   0  0  2  0  0  0  0  0  0  0  0  0
   42.5658   32.8470   41.4231 H   0  0  0  0  0  0  0  0  0  0  0  0
   42.7371   31.4247   43.1235 C   0  0  1  0  0  0  0  0  0  0  0  0
   44.4582   31.0347   42.6069 S   0  0  0  0  0  0  0  0  0  0  0  0
   46.5741   29.7287   43.9843 H   0  0  0  0  0  0  0  0  0  0  0  0
   45.0035   29.2851   44.7375 H   0  0  0  0  0  0  0  0  0  0  0  0
   46.3564   32.8995   45.1996 H   0  0  0  0  0  0  0  0  0  0  0  0
   47.2171   31.9839   43.9391 H   0  0  0  0  0  0  0  0  0  0  0  0
   43.5333   30.7930   45.4862 H   0  0  0  0  0  0  0  0  0  0  0  0
   44.3130   32.3773   45.8522 H   0  0  0  0  0  0  0  0  0  0  0  0
   40.9850   32.1900   42.1217 H   0  0  0  0  0  0  0  0  0  0  0  0
   42.1601   30.5535   43.4327 H   0  0  0  0  0  0  0  0  0  0  0  0
  1  6  2  0
  2  1  1  0
  3  2  2  0
  3  4  1  0
  4  5  2  0
  5  6  1  0
  5  7  1  0
  7 11  1  0
  7  8  1  0
  8  9  1  0
 10  9  1  0
 11 10  1  0
 12  2  1  0
 13 11  1  0
  1 14  1  0
  3 15  1  0
  8 16  1  0
  8 17  1  0
  9 18  1  0
  9 19  1  0
 10 20  1  0
 10 21  1  0
 11 22  1  6
 12 23  1  0
 12 24  1  0
 26 25  1  1
 26 27  1  0
 27 28  1  0
 26 29  1  0
 29 30  1  0
 30 31  1  0
 31 32  2  0
 31 33  1  0
 33 34  1  6
 33 35  1  0
 35 36  1  0
 36 26  1  0
 35 30  1  0
 25 37  1  0
 25 38  1  0
 27 39  1  0
 27 40  1  0
 29 41  1  0
 29 42  1  0
 33 43  1  0
 35 44  1  1
 13 25  1  0
M  ISO  8  14  14  15  14  16  13  17  13  18  13  19  13  20  13  21  13
M  ISO  3  22  13  28   8  34  15
M  END
>  <DihAtoms>  (1) 
10,12,24,25

>  <DihDeg>  (1) 
-179.7067622155192

$$$$
