
     RDKit          3D

 55 59  0  0  0  0  0  0  0  0999 V2000
   45.1302   36.0150   42.9157 C   0  0  0  0  0  0  0  0  0  0  0  0
   45.3716   34.6504   42.9083 C   0  0  0  0  0  0  0  0  0  0  0  0
   45.2145   33.9201   44.0605 C   0  0  0  0  0  0  0  0  0  0  0  0
   44.8123   34.6077   45.1877 N   0  0  0  0  0  0  0  0  0  0  0  0
   44.5815   35.9198   45.1878 C   0  0  0  0  0  0  0  0  0  0  0  0
   44.7455   36.6124   44.0408 N   0  0  0  0  0  0  0  0  0  0  0  0
   45.4187   32.5298   44.2192 C   0  0  0  0  0  0  0  0  0  0  0  0
   44.9403   31.5611   43.3319 C   0  0  0  0  0  0  0  0  0  0  0  0
   45.0788   30.2108   43.5185 C   0  0  0  0  0  0  0  0  0  0  0  0
   45.7226   29.7404   44.6371 C   0  0  0  0  0  0  0  0  0  0  0  0
   46.2218   30.7108   45.5580 C   0  0  0  0  0  0  0  0  0  0  0  0
   46.8637   30.2488   46.6751 C   0  0  0  0  0  0  0  0  0  0  0  0
   47.3714   31.1350   47.6022 C   0  0  0  0  0  0  0  0  0  0  0  0
   47.2257   32.5153   47.3898 C   0  0  0  0  0  0  0  0  0  0  0  0
   46.5573   32.9368   46.2262 C   0  0  0  0  0  0  0  0  0  0  0  0
   46.0602   32.0353   45.3251 C   0  0  0  0  0  0  0  0  0  0  0  0
   45.7605   34.0901   41.7235 O   0  0  0  0  0  0  0  0  0  0  0  0
   47.6825   32.4292   41.0876 O   0  0  0  0  0  0  0  0  0  0  0  0
   47.3702   33.8744   41.2421 P   0  0  1  0  0  0  0  0  0  0  0  0
   47.6481   34.6102   39.7444 O   0  0  0  0  0  0  0  0  0  0  0  0
   48.3629   34.5940   42.3890 O   0  0  0  0  0  0  0  0  0  0  0  0
   49.5360   35.2919   42.1497 C   0  0  0  0  0  0  0  0  0  0  0  0
   49.2051   36.2114   41.3787 O   0  0  0  0  0  0  0  0  0  0  0  0
   50.6396   34.6992   42.8629 N   0  0  0  0  0  0  0  0  0  0  0  0
   45.2436   36.6235   42.0297 H   0  0  0  0  0  0  0  0  0  0  0  0
   44.2690   36.4608   46.0601 H   0  0  0  0  0  0  0  0  0  0  0  0
   44.4303   31.9119   42.4455 H   0  0  0  0  0  0  0  0  0  0  0  0
   44.6913   29.5029   42.8024 H   0  0  0  0  0  0  0  0  0  0  0  0
   45.8576   28.7036   44.8342 H   0  0  0  0  0  0  0  0  0  0  0  0
   46.9778   29.1887   46.8398 H   0  0  0  0  0  0  0  0  0  0  0  0
   47.8721   30.7130   48.4738 H   0  0  0  0  0  0  0  0  0  0  0  0
   47.6529   33.1060   48.1610 H   0  0  0  0  0  0  0  0  0  0  0  0
   46.5686   34.0056   46.2342 H   0  0  0  0  0  0  0  0  0  0  0  0
   50.6604   34.7925   43.9176 H   0  0  0  0  0  0  0  0  0  0  0  0
   51.4631   34.1665   42.4939 H   0  0  0  0  0  0  0  0  0  0  0  0
   47.2582   33.8292   38.6750 C   0  0  0  0  0  0  0  0  0  0  0  0
   45.9604   34.4456   38.1553 C   0  0  2  0  0  0  0  0  0  0  0  0
   44.8957   34.4554   39.1985 C   0  0  0  0  0  0  0  0  0  0  0  0
   45.0302   33.5556   39.8453 H   0  0  0  0  0  0  0  0  0  0  0  0
   45.5519   33.8560   36.8368 C   0  0  0  0  0  0  0  0  0  0  0  0
   45.0030   34.9037   36.0106 N   0  0  0  0  0  0  0  0  0  0  0  0
   44.1659   35.7211   35.1984 C   0  0  0  0  0  0  0  0  0  0  0  0
   43.0585   35.5772   34.5825 O   0  0  0  0  0  0  0  0  0  0  0  0
   45.0648   36.9082   35.2975 C   0  0  1  0  0  0  0  0  0  0  0  0
   45.3736   37.3711   34.3570 H   0  0  0  0  0  0  0  0  0  0  0  0
   46.0537   35.9224   35.8568 C   0  0  1  0  0  0  0  0  0  0  0  0
   46.4327   36.1436   37.6356 S   0  0  0  0  0  0  0  0  0  0  0  0
   47.1087   32.7788   38.9998 H   0  0  0  0  0  0  0  0  0  0  0  0
   47.9562   33.7956   37.8342 H   0  0  0  0  0  0  0  0  0  0  0  0
   44.9496   35.3310   39.8836 H   0  0  0  0  0  0  0  0  0  0  0  0
   43.8647   34.3676   38.7804 H   0  0  0  0  0  0  0  0  0  0  0  0
   44.7988   33.0601   36.9781 H   0  0  0  0  0  0  0  0  0  0  0  0
   46.4361   33.4255   36.3230 H   0  0  0  0  0  0  0  0  0  0  0  0
   44.7568   37.6284   36.0831 H   0  0  0  0  0  0  0  0  0  0  0  0
   46.9011   35.6320   35.2271 H   0  0  0  0  0  0  0  0  0  0  0  0
  1  6  2  0
  2  1  1  0
  2  3  2  0
  3  7  1  0
  3  4  1  0
  5  4  2  0
  6  5  1  0
  7 16  2  0
  8  9  2  0
  8  7  1  0
  9 10  1  0
 10 11  2  0
 11 12  1  0
 12 13  2  0
 14 13  1  0
 15 14  2  0
 16 11  1  0
 16 15  1  0
 17  2  1  0
 19 18  2  0
 19 17  1  1
 19 21  1  0
 20 19  1  0
 22 21  1  0
 22 24  1  0
 23 22  2  0
  1 25  1  0
  5 26  1  0
  8 27  1  0
  9 28  1  0
 10 29  1  0
 12 30  1  0
 13 31  1  0
 14 32  1  0
 15 33  1  0
 24 34  1  0
 24 35  1  0
 37 36  1  1
 37 38  1  0
 38 39  1  0
 37 40  1  0
 40 41  1  0
 41 42  1  0
 42 43  2  0
 42 44  1  0
 44 45  1  6
 44 46  1  0
 46 47  1  0
 47 37  1  0
 46 41  1  0
 36 48  1  0
 36 49  1  0
 38 50  1  0
 38 51  1  0
 40 52  1  0
 40 53  1  0
 44 54  1  0
 46 55  1  6
 20 36  1  0
M  ISO  8  25  14  26  14  27  14  28  14  29  14  30  14  31  14  32  14
M  ISO  3  33  14  39   8  45  15
M  END
>  <DihAtoms>  (1) 
18,19,35,36

>  <DihDeg>  (1) 
-179.99541069467253

$$$$
