
     RDKit          3D

 49 52  0  0  0  0  0  0  0  0999 V2000
   45.2021   35.8183   43.3738 C   0  0  0  0  0  0  0  0  0  0  0  0
   45.9082   34.5919   43.4083 C   0  0  0  0  0  0  0  0  0  0  0  0
   45.8898   33.8514   44.5859 C   0  0  0  0  0  0  0  0  0  0  0  0
   45.1983   34.3306   45.6535 N   0  0  0  0  0  0  0  0  0  0  0  0
   44.5321   35.5017   45.5999 C   0  0  0  0  0  0  0  0  0  0  0  0
   44.5309   36.2380   44.4796 N   0  0  0  0  0  0  0  0  0  0  0  0
   46.5791   34.2358   42.2062 N   0  0  0  0  0  0  0  0  0  0  0  0
   47.8276   34.8392   41.7817 C   0  0  0  0  0  0  0  0  0  0  0  0
   48.3218   34.1616   40.5483 C   0  0  0  0  0  0  0  0  0  0  0  0
   47.3479   34.0736   39.5080 N   0  0  0  0  0  0  0  0  0  0  0  0
   46.0710   33.5809   39.9166 C   0  0  0  0  0  0  0  0  0  0  0  0
   45.9759   33.2139   41.3658 C   0  0  0  0  0  0  0  0  0  0  0  0
   46.5955   32.6585   44.5703 O   0  0  0  0  0  0  0  0  0  0  0  0
   45.5443   31.2214   46.5278 O   0  0  0  0  0  0  0  0  0  0  0  0
   46.8767   31.8399   46.0602 P   0  0  1  0  0  0  0  0  0  0  0  0
   48.0457   30.6898   45.8280 O   0  0  0  0  0  0  0  0  0  0  0  0
   47.3222   33.0096   47.1933 O   0  0  0  0  0  0  0  0  0  0  0  0
   45.2000   36.4098   42.4768 H   0  0  0  0  0  0  0  0  0  0  0  0
   44.0016   35.8268   46.4839 H   0  0  0  0  0  0  0  0  0  0  0  0
   47.6410   35.9189   41.5294 H   0  0  0  0  0  0  0  0  0  0  0  0
   48.6243   34.7493   42.5643 H   0  0  0  0  0  0  0  0  0  0  0  0
   48.7071   33.1462   40.7486 H   0  0  0  0  0  0  0  0  0  0  0  0
   49.1848   34.7543   40.1654 H   0  0  0  0  0  0  0  0  0  0  0  0
   47.7423   33.4438   38.7559 H   0  0  0  0  0  0  0  0  0  0  0  0
   45.7725   32.6917   39.3156 H   0  0  0  0  0  0  0  0  0  0  0  0
   45.3166   34.3828   39.7199 H   0  0  0  0  0  0  0  0  0  0  0  0
   46.3988   32.1999   41.5504 H   0  0  0  0  0  0  0  0  0  0  0  0
   44.8875   33.1096   41.6117 H   0  0  0  0  0  0  0  0  0  0  0  0
   48.1371   30.3705   44.8972 H   0  0  0  0  0  0  0  0  0  0  0  0
   48.6364   32.8524   47.6189 C   0  0  0  0  0  0  0  0  0  0  0  0
   49.0217   31.3918   47.5634 C   0  0  1  0  0  0  0  0  0  0  0  0
   48.9101   30.8445   46.1658 C   0  0  0  0  0  0  0  0  0  0  0  0
   49.4383   31.5816   45.4928 H   0  0  0  0  0  0  0  0  0  0  0  0
   50.3461   31.1168   48.1969 C   0  0  0  0  0  0  0  0  0  0  0  0
   50.1425   30.8098   49.5975 N   0  0  0  0  0  0  0  0  0  0  0  0
   50.1798   30.7926   51.0217 C   0  0  0  0  0  0  0  0  0  0  0  0
   50.8966   31.3079   51.9271 O   0  0  0  0  0  0  0  0  0  0  0  0
   49.0002   29.8936   51.1411 C   0  0  1  0  0  0  0  0  0  0  0  0
   49.1887   28.9550   51.7091 H   0  0  0  0  0  0  0  0  0  0  0  0
   49.2086   29.6771   49.6825 C   0  0  1  0  0  0  0  0  0  0  0  0
   47.9063   30.3813   48.5958 S   0  0  0  0  0  0  0  0  0  0  0  0
   48.8342   33.3051   48.5872 H   0  0  0  0  0  0  0  0  0  0  0  0
   49.2872   33.3630   46.8680 H   0  0  0  0  0  0  0  0  0  0  0  0
   47.8301   30.8040   45.8868 H   0  0  0  0  0  0  0  0  0  0  0  0
   49.4348   29.8914   46.0585 H   0  0  0  0  0  0  0  0  0  0  0  0
   50.9450   30.3252   47.7158 H   0  0  0  0  0  0  0  0  0  0  0  0
   50.9491   32.0371   48.1279 H   0  0  0  0  0  0  0  0  0  0  0  0
   48.0660   30.3862   51.4495 H   0  0  0  0  0  0  0  0  0  0  0  0
   49.6153   28.7182   49.3424 H   0  0  0  0  0  0  0  0  0  0  0  0
  1  2  2  0
  1  6  1  0
  2  3  1  0
  3  4  2  0
  5  4  1  0
  6  5  2  0
  7  2  1  0
  8  7  1  0
  9  8  1  0
 10 11  1  0
 10  9  1  0
 11 12  1  0
 12  7  1  0
 13  3  1  0
 15 13  1  6
 15 14  2  0
 15 17  1  0
 16 15  1  0
  1 18  1  0
  5 19  1  0
  8 20  1  0
  8 21  1  0
  9 22  1  0
  9 23  1  0
 10 24  1  0
 11 25  1  0
 11 26  1  0
 12 27  1  0
 12 28  1  0
 16 29  1  0
 31 30  1  6
 31 32  1  0
 32 33  1  0
 31 34  1  0
 34 35  1  0
 35 36  1  0
 36 37  2  0
 36 38  1  0
 38 39  1  1
 38 40  1  0
 40 41  1  0
 41 31  1  0
 40 35  1  0
 30 42  1  0
 30 43  1  0
 32 44  1  0
 32 45  1  0
 34 46  1  0
 34 47  1  0
 38 48  1  0
 40 49  1  1
 17 30  1  0
M  ISO  8  18  14  19  14  20  13  21  13  22  13  23  13  24   5  25  13
M  ISO  6  26  13  27  13  28  13  29   3  33   8  39  15
M  END
>  <DihAtoms>  (1) 
14,16,29,30

>  <DihDeg>  (1) 
179.95467600282623

$$$$
