
     RDKit          3D

 49 52  0  0  0  0  0  0  0  0999 V2000
   45.2021   35.8183   43.3738 C   0  0  0  0  0  0  0  0  0  0  0  0
   45.9082   34.5919   43.4083 C   0  0  0  0  0  0  0  0  0  0  0  0
   45.8898   33.8514   44.5859 C   0  0  0  0  0  0  0  0  0  0  0  0
   45.1983   34.3306   45.6535 N   0  0  0  0  0  0  0  0  0  0  0  0
   44.5321   35.5017   45.5999 C   0  0  0  0  0  0  0  0  0  0  0  0
   44.5309   36.2380   44.4796 N   0  0  0  0  0  0  0  0  0  0  0  0
   46.5791   34.2358   42.2062 N   0  0  0  0  0  0  0  0  0  0  0  0
   47.8276   34.8392   41.7817 C   0  0  0  0  0  0  0  0  0  0  0  0
   48.3218   34.1616   40.5483 C   0  0  0  0  0  0  0  0  0  0  0  0
   47.3479   34.0736   39.5080 N   0  0  0  0  0  0  0  0  0  0  0  0
   46.0710   33.5809   39.9166 C   0  0  0  0  0  0  0  0  0  0  0  0
   45.9759   33.2139   41.3658 C   0  0  0  0  0  0  0  0  0  0  0  0
   46.5955   32.6585   44.5703 O   0  0  0  0  0  0  0  0  0  0  0  0
   45.5443   31.2214   46.5278 O   0  0  0  0  0  0  0  0  0  0  0  0
   46.8767   31.8399   46.0602 P   0  0  1  0  0  0  0  0  0  0  0  0
   48.0457   30.6898   45.8280 O   0  0  0  0  0  0  0  0  0  0  0  0
   47.3222   33.0096   47.1933 O   0  0  0  0  0  0  0  0  0  0  0  0
   45.2000   36.4098   42.4768 H   0  0  0  0  0  0  0  0  0  0  0  0
   44.0016   35.8268   46.4839 H   0  0  0  0  0  0  0  0  0  0  0  0
   47.6410   35.9189   41.5294 H   0  0  0  0  0  0  0  0  0  0  0  0
   48.6243   34.7493   42.5643 H   0  0  0  0  0  0  0  0  0  0  0  0
   48.7071   33.1462   40.7486 H   0  0  0  0  0  0  0  0  0  0  0  0
   49.1848   34.7543   40.1654 H   0  0  0  0  0  0  0  0  0  0  0  0
   47.7423   33.4438   38.7559 H   0  0  0  0  0  0  0  0  0  0  0  0
   45.7725   32.6917   39.3156 H   0  0  0  0  0  0  0  0  0  0  0  0
   45.3166   34.3828   39.7199 H   0  0  0  0  0  0  0  0  0  0  0  0
   46.3988   32.1999   41.5504 H   0  0  0  0  0  0  0  0  0  0  0  0
   44.8875   33.1096   41.6117 H   0  0  0  0  0  0  0  0  0  0  0  0
   48.1371   30.3705   44.8972 H   0  0  0  0  0  0  0  0  0  0  0  0
   48.6364   32.8524   47.6189 C   0  0  0  0  0  0  0  0  0  0  0  0
   49.3713   31.9232   46.6801 C   0  0  1  0  0  0  0  0  0  0  0  0
   49.3921   32.4617   45.2749 C   0  0  0  0  0  0  0  0  0  0  0  0
   49.7179   33.5401   45.3528 H   0  0  0  0  0  0  0  0  0  0  0  0
   50.7255   31.5430   47.1826 C   0  0  0  0  0  0  0  0  0  0  0  0
   50.6112   30.3367   47.9758 N   0  0  0  0  0  0  0  0  0  0  0  0
   50.6583   29.3651   49.0168 C   0  0  0  0  0  0  0  0  0  0  0  0
   51.2295   29.2497   50.1391 O   0  0  0  0  0  0  0  0  0  0  0  0
   49.7389   28.4265   48.3184 C   0  0  1  0  0  0  0  0  0  0  0  0
   50.1568   27.4088   48.1489 H   0  0  0  0  0  0  0  0  0  0  0  0
   49.9874   29.3009   47.1388 C   0  0  1  0  0  0  0  0  0  0  0  0
   48.5460   30.2977   46.5896 S   0  0  0  0  0  0  0  0  0  0  0  0
   48.7206   32.5538   48.6607 H   0  0  0  0  0  0  0  0  0  0  0  0
   49.1368   33.8454   47.5106 H   0  0  0  0  0  0  0  0  0  0  0  0
   48.3545   32.4223   44.8655 H   0  0  0  0  0  0  0  0  0  0  0  0
   50.1361   31.9542   44.6551 H   0  0  0  0  0  0  0  0  0  0  0  0
   51.4996   31.4176   46.4067 H   0  0  0  0  0  0  0  0  0  0  0  0
   51.0815   32.3557   47.8370 H   0  0  0  0  0  0  0  0  0  0  0  0
   48.7132   28.3945   48.7153 H   0  0  0  0  0  0  0  0  0  0  0  0
   50.6173   28.9254   46.3247 H   0  0  0  0  0  0  0  0  0  0  0  0
  1  2  2  0
  1  6  1  0
  2  3  1  0
  3  4  2  0
  5  4  1  0
  6  5  2  0
  7  2  1  0
  8  7  1  0
  9  8  1  0
 10 11  1  0
 10  9  1  0
 11 12  1  0
 12  7  1  0
 13  3  1  0
 15 13  1  6
 15 14  2  0
 15 17  1  0
 16 15  1  0
  1 18  1  0
  5 19  1  0
  8 20  1  0
  8 21  1  0
  9 22  1  0
  9 23  1  0
 10 24  1  0
 11 25  1  0
 11 26  1  0
 12 27  1  0
 12 28  1  0
 16 29  1  0
 31 30  1  1
 31 32  1  0
 32 33  1  0
 31 34  1  0
 34 35  1  0
 35 36  1  0
 36 37  2  0
 36 38  1  0
 38 39  1  6
 38 40  1  0
 40 41  1  0
 41 31  1  0
 40 35  1  0
 30 42  1  0
 30 43  1  0
 32 44  1  0
 32 45  1  0
 34 46  1  0
 34 47  1  0
 38 48  1  0
 40 49  1  6
 17 30  1  0
M  ISO  8  18  14  19  14  20  13  21  13  22  13  23  13  24   5  25  13
M  ISO  6  26  13  27  13  28  13  29   3  33   8  39  15
M  END
>  <DihAtoms>  (1) 
14,16,29,30

>  <DihDeg>  (1) 
179.95467600282623

$$$$
