
     RDKit          3D

 27 29  0  0  0  0  0  0  0  0999 V2000
   44.5246   36.0041   44.5198 C   0  0  0  0  0  0  0  0  0  0  0  0
   45.2120   35.8845   43.3229 C   0  0  0  0  0  0  0  0  0  0  0  0
   46.1032   34.8309   43.1828 C   0  0  0  0  0  0  0  0  0  0  0  0
   46.2908   33.9406   44.2038 N   0  0  0  0  0  0  0  0  0  0  0  0
   45.5986   34.0903   45.3629 C   0  0  0  0  0  0  0  0  0  0  0  0
   44.7291   35.1089   45.5141 N   0  0  0  0  0  0  0  0  0  0  0  0
   45.8397   33.1004   46.4324 C   0  0  0  0  0  0  0  0  0  0  0  0
   46.5251   31.6204   45.6064 S   0  0  0  0  0  0  0  0  0  0  0  0
   43.8185   36.8049   44.6839 H   0  0  0  0  0  0  0  0  0  0  0  0
   45.0497   36.5987   42.5276 H   0  0  0  0  0  0  0  0  0  0  0  0
   46.6671   34.6811   42.2823 H   0  0  0  0  0  0  0  0  0  0  0  0
   44.9579   32.8709   47.0457 H   0  0  0  0  0  0  0  0  0  0  0  0
   46.6745   33.4640   47.0875 H   0  0  0  0  0  0  0  0  0  0  0  0
   47.9257   30.7798   47.6980 C   0  0  0  0  0  0  0  0  0  0  0  0
   46.8043   30.4403   46.9428 C   0  0  0  0  0  0  0  0  0  0  0  0
   46.0497   29.3261   47.2390 C   0  0  0  0  0  0  0  0  0  0  0  0
   45.2173   29.1875   46.5755 H   0  0  0  0  0  0  0  0  0  0  0  0
   46.4343   28.5466   48.3117 C   0  0  0  0  0  0  0  0  0  0  0  0
   45.8395   27.4254   48.7658 N   0  0  0  0  0  0  0  0  0  0  0  0
   44.9957   26.9466   48.4002 H   0  0  0  0  0  0  0  0  0  0  0  0
   46.5597   27.0210   49.8159 N   0  0  0  0  0  0  0  0  0  0  0  0
   47.5883   27.8626   50.0273 C   0  0  0  0  0  0  0  0  0  0  0  0
   48.3659   27.8358   50.7890 H   0  0  0  0  0  0  0  0  0  0  0  0
   47.5440   28.8761   49.0648 C   0  0  0  0  0  0  0  0  0  0  0  0
   48.3007   29.9834   48.7771 C   0  0  0  0  0  0  0  0  0  0  0  0
   48.5734   31.6280   47.5422 H   0  0  0  0  0  0  0  0  0  0  0  0
   49.1636   30.2113   49.3885 H   0  0  0  0  0  0  0  0  0  0  0  0
  1  6  2  0
  2  1  1  0
  3  2  2  0
  3  4  1  0
  4  5  2  0
  5  6  1  0
  5  7  1  0
  8  7  1  0
  1  9  1  0
  2 10  1  0
  3 11  1  0
  7 12  1  0
  7 13  1  0
 14 15  2  0
 15 16  1  0
 16 17  1  0
 16 18  2  0
 18 19  1  0
 19 20  1  0
 19 21  1  0
 21 22  2  0
 22 23  1  0
 22 24  1  0
 24 25  2  0
 25 14  1  0
 24 18  1  0
 14 26  1  0
 25 27  1  0
  8 15  1  0
M  ISO  8   9  14  10  14  11  14  12   8  13   8  17  16  20   5  23  15
M  END
>  <DihAtoms>  (1) 
6,7,14,13

>  <DihDeg>  (1) 
89.99890188028452

$$$$
