
     RDKit          3D

 36 40  0  0  0  0  0  0  0  0999 V2000
   48.6771   33.9433   42.8937 C   0  0  1  0  0  0  0  0  0  0  0  0
   49.0756   33.5029   41.5456 C   0  0  2  0  0  0  0  0  0  0  0  0
   49.5232   34.8084   42.0163 C   0  0  0  0  0  0  0  0  0  0  0  0
   46.6243   33.7017   44.2765 C   0  0  0  0  0  0  0  0  0  0  0  0
   47.2927   34.3426   43.2204 C   0  0  0  0  0  0  0  0  0  0  0  0
   46.6032   35.3354   42.5419 C   0  0  0  0  0  0  0  0  0  0  0  0
   45.3365   35.6228   42.9377 N   0  0  0  0  0  0  0  0  0  0  0  0
   44.7259   34.9956   43.9467 C   0  0  0  0  0  0  0  0  0  0  0  0
   45.3809   34.0234   44.6226 N   0  0  0  0  0  0  0  0  0  0  0  0
   48.2057   33.5039   40.3519 C   0  0  0  0  0  0  0  0  0  0  0  0
   47.2570   32.6153   39.9589 N   0  0  0  0  0  0  0  0  0  0  0  0
   46.7144   32.9843   38.8000 C   0  0  0  0  0  0  0  0  0  0  0  0
   47.3311   34.1320   38.4479 N   0  0  0  0  0  0  0  0  0  0  0  0
   48.2225   34.4577   39.3599 N   0  0  0  0  0  0  0  0  0  0  0  0
   49.1449   33.3483   43.7172 H   0  0  0  0  0  0  0  0  0  0  0  0
   49.8188   32.6767   41.4948 H   0  0  0  0  0  0  0  0  0  0  0  0
   50.5827   34.9259   42.3923 H   0  0  0  0  0  0  0  0  0  0  0  0
   49.1514   35.7829   41.6583 H   0  0  0  0  0  0  0  0  0  0  0  0
   47.1430   32.9209   44.8235 H   0  0  0  0  0  0  0  0  0  0  0  0
   47.0861   35.8450   41.7292 H   0  0  0  0  0  0  0  0  0  0  0  0
   43.7183   35.2707   44.2116 H   0  0  0  0  0  0  0  0  0  0  0  0
   45.9447   32.5534   38.1727 H   0  0  0  0  0  0  0  0  0  0  0  0
   48.1460   36.0258   37.1194 C   0  0  0  0  0  0  0  0  0  0  0  0
   47.2055   35.0132   37.3313 C   0  0  0  0  0  0  0  0  0  0  0  0
   46.1761   34.9259   36.4131 C   0  0  0  0  0  0  0  0  0  0  0  0
   45.4212   34.1593   36.5311 H   0  0  0  0  0  0  0  0  0  0  0  0
   46.0862   35.7918   35.3490 C   0  0  0  0  0  0  0  0  0  0  0  0
   45.2505   35.9817   34.3099 N   0  0  0  0  0  0  0  0  0  0  0  0
   44.4045   35.3593   34.1757 H   0  0  0  0  0  0  0  0  0  0  0  0
   45.6396   36.9941   33.5537 N   0  0  0  0  0  0  0  0  0  0  0  0
   46.7706   37.5269   34.0704 C   0  0  0  0  0  0  0  0  0  0  0  0
   47.2564   38.3690   33.6015 H   0  0  0  0  0  0  0  0  0  0  0  0
   47.0392   36.7633   35.1958 C   0  0  0  0  0  0  0  0  0  0  0  0
   48.0995   36.9210   36.0652 C   0  0  0  0  0  0  0  0  0  0  0  0
   48.9379   36.0708   37.8507 H   0  0  0  0  0  0  0  0  0  0  0  0
   48.8616   37.6832   35.9590 H   0  0  0  0  0  0  0  0  0  0  0  0
  1  5  1  0
  2  3  1  0
  2  1  1  0
  3  1  1  0
  4  9  2  0
  5  4  1  0
  6  7  1  0
  6  5  2  0
  7  8  2  0
  8  9  1  0
 10  2  1  0
 11 10  1  0
 12 11  2  0
 13 12  1  0
 13 14  1  0
 14 10  2  0
  1 15  1  1
  2 16  1  1
  3 17  1  0
  3 18  1  0
  4 19  1  0
  6 20  1  0
  8 21  1  0
 12 22  1  0
 23 24  2  0
 24 25  1  0
 25 26  1  0
 25 27  2  0
 27 28  1  0
 28 29  1  0
 28 30  1  0
 30 31  2  0
 31 32  1  0
 31 33  1  0
 33 34  2  0
 34 23  1  0
 33 27  1  0
 23 35  1  0
 34 36  1  0
 13 24  1  0
M  ISO  8  15  13  16  13  17  13  18  13  19  14  20  14  21  14  22  14
M  ISO  3  26  16  29   5  32  15
M  END
>  <DihAtoms>  (1) 
11,12,23,22

>  <DihDeg>  (1) 
85.8467282340992

$$$$
