
     RDKit          3D

 48 52  0  0  1  0  0  0  0  0999 V2000
   46.5570   33.2370   44.6650 F   0  0  0  0  0  0  0  0  0  0  0  0
   47.2910   32.0890   44.5420 C   0  0  0  0  0  0  0  0  0  0  0  0
   48.1410   31.9860   43.4580 C   0  0  0  0  0  0  0  0  0  0  0  0
   48.8720   30.8280   43.3460 C   0  0  0  0  0  0  0  0  0  0  0  0
   48.7410   29.8300   44.2910 C   0  0  0  0  0  0  0  0  0  0  0  0
   47.8930   29.9420   45.3660 C   0  0  0  0  0  0  0  0  0  0  0  0
   47.1500   31.1240   45.4750 C   0  0  0  0  0  0  0  0  0  0  0  0
   46.2950   31.1780   46.6040 N   0  0  0  0  0  0  0  0  0  0  0  0
   45.1980   30.3630   47.0160 C   0  0  0  0  0  0  0  0  0  0  0  0
   45.5090   30.0600   48.4880 C   0  0  0  0  0  0  0  0  0  0  0  0
   46.4380   31.1620   48.8950 C   0  0  0  0  0  0  0  0  0  0  0  0
   46.2880   32.1280   47.7260 C   0  0  2  0  0  0  0  0  0  0  0  0
   45.1120   33.0060   47.7900 C   0  0  0  0  0  0  0  0  0  0  0  0
   48.6740   35.2880   41.9720 C   0  0  0  0  0  0  0  0  0  0  0  0
   48.4090   35.0550   40.6010 C   0  0  0  0  0  0  0  0  0  0  0  0
   48.0550   33.7600   40.2440 C   0  0  0  0  0  0  0  0  0  0  0  0
   47.9860   32.8220   41.2060 N   0  0  0  0  0  0  0  0  0  0  0  0
   48.2410   33.0650   42.4920 C   0  0  0  0  0  0  0  0  0  0  0  0
   48.5840   34.2870   42.8860 N   0  0  0  0  0  0  0  0  0  0  0  0
   46.4530   33.0400   38.5580 C   0  0  0  0  0  0  0  0  0  0  0  0
   47.7520   33.3680   38.8750 C   0  0  0  0  0  0  0  0  0  0  0  0
   48.6860   33.3040   37.8670 C   0  0  0  0  0  0  0  0  0  0  0  0
   48.4010   32.9320   36.5680 C   0  0  0  0  0  0  0  0  0  0  0  0
   49.1180   32.7970   35.4390 N   0  0  0  0  0  0  0  0  0  0  0  0
   48.2870   32.3990   34.4690 N   0  0  0  0  0  0  0  0  0  0  0  0
   47.0290   32.2760   34.9610 C   0  0  0  0  0  0  0  0  0  0  0  0
   47.0680   32.6090   36.3000 C   0  0  0  0  0  0  0  0  0  0  0  0
   46.0730   32.6530   37.2730 C   0  0  0  0  0  0  0  0  0  0  0  0
   49.5636   30.6957   42.5009 H   0  0  0  0  0  0  0  0  0  0  0  0
   49.3370   28.9123   44.1791 H   0  0  0  0  0  0  0  0  0  0  0  0
   47.8015   29.1369   46.1100 H   0  0  0  0  0  0  0  0  0  0  0  0
   44.2465   30.9063   46.9191 H   0  0  0  0  0  0  0  0  0  0  0  0
   45.0868   29.4544   46.4060 H   0  0  0  0  0  0  0  0  0  0  0  0
   44.5909   30.0786   49.0937 H   0  0  0  0  0  0  0  0  0  0  0  0
   45.9473   29.0614   48.6318 H   0  0  0  0  0  0  0  0  0  0  0  0
   46.1233   31.6245   49.8421 H   0  0  0  0  0  0  0  0  0  0  0  0
   47.4720   30.8342   49.0780 H   0  0  0  0  0  0  0  0  0  0  0  0
   47.0733   32.8964   47.6725 H   0  0  0  0  0  0  0  0  0  0  0  0
   44.8547   33.1981   48.8421 H   0  0  0  0  0  0  0  0  0  0  0  0
   45.3377   33.9584   47.2879 H   0  0  0  0  0  0  0  0  0  0  0  0
   44.2630   32.5190   47.2879 H   0  0  0  0  0  0  0  0  0  0  0  0
   48.9579   36.2978   42.3032 H   0  0  0  0  0  0  0  0  0  0  0  0
   48.4799   35.8601   39.8548 H   0  0  0  0  0  0  0  0  0  0  0  0
   45.6873   33.0848   39.3465 H   0  0  0  0  0  0  0  0  0  0  0  0
   49.7261   33.5658   38.1113 H   0  0  0  0  0  0  0  0  0  0  0  0
   50.1285   32.9695   35.3385 H   0  0  0  0  0  0  0  0  0  0  0  0
   46.1381   31.9666   34.3949 H   0  0  0  0  0  0  0  0  0  0  0  0
   45.0303   32.3933   37.0380 H   0  0  0  0  0  0  0  0  0  0  0  0
  2  1  1  0
  2  7  2  0
  3  2  1  0
  4  3  2  0
  4  5  1  0
  5  6  2  0
  6  7  1  0
  7  8  1  0
  8  9  1  0
  8 12  1  0
  9 10  1  0
 10 11  1  0
 12 13  1  0
 12 11  1  0
 14 19  2  0
 15 14  1  0
 16 15  2  0
 16 17  1  0
 17 18  2  0
 18 19  1  0
 18  3  1  0
 20 21  2  0
 21 16  1  0
 22 21  1  0
 23 22  2  0
 24 23  1  0
 25 26  2  0
 25 24  1  0
 26 27  1  0
 27 23  1  0
 27 28  2  0
 28 20  1  0
  4 29  1  0
  5 30  1  0
  6 31  1  0
  9 32  1  0
  9 33  1  0
 10 34  1  0
 10 35  1  0
 11 36  1  0
 11 37  1  0
 12 38  1  6
 13 39  1  0
 13 40  1  0
 13 41  1  0
 14 42  1  0
 15 43  1  0
 20 44  1  0
 22 45  1  0
 24 46  1  0
 26 47  1  0
 28 48  1  0
M  ISO  8  29  14  30  14  31  14  32  13  33  13  34  13  35  13  36  13
M  ISO  8  37  13  38  13  39   8  40   8  41   8  42  14  43  14  44  14
M  ISO  4  45  14  46   9  47  14  48  14
M  END
>  <minimizedAffinity>  (1) 
-6.25111055

>  <minimizedRMSD>  (1) 
1.76752043

$$$$
