
     RDKit          3D

 49 52  0  0  0  0  0  0  0  0999 V2000
   46.5762   34.9078   43.2506 O   0  0  0  0  0  0  0  0  0  0  0  0
   46.8026   33.9752   42.2284 C   0  0  1  0  0  0  0  0  0  0  0  0
   46.0754   34.4215   40.9562 C   0  0  0  0  0  0  0  0  0  0  0  0
   46.6791   33.4835   39.9458 C   0  0  0  0  0  0  0  0  0  0  0  0
   48.0673   33.1435   40.4668 C   0  0  0  0  0  0  0  0  0  0  0  0
   48.2181   33.9566   41.7433 C   0  0  1  0  0  0  0  0  0  0  0  0
   48.7645   35.3277   41.4628 C   0  0  0  0  0  0  0  0  0  0  0  0
   49.6587   35.7534   42.4214 O   0  0  0  0  0  0  0  0  0  0  0  0
   44.7244   35.3462   44.9923 O   0  0  0  0  0  0  0  0  0  0  0  0
   45.5790   34.2368   44.4114 P   0  0  1  0  0  0  0  0  0  0  0  0
   44.6104   33.0342   43.7159 O   0  0  0  0  0  0  0  0  0  0  0  0
   46.4769   33.4945   45.6055 O   0  0  0  0  0  0  0  0  0  0  0  0
   46.2419   32.1545   45.5708 C   0  0  0  0  0  0  0  0  0  0  0  0
   45.6385   31.9126   49.2411 C   0  0  0  0  0  0  0  0  0  0  0  0
   45.9784   32.4593   47.9958 C   0  0  0  0  0  0  0  0  0  0  0  0
   45.8880   31.6058   46.8923 C   0  0  0  0  0  0  0  0  0  0  0  0
   45.4817   30.3082   47.0754 N   0  0  0  0  0  0  0  0  0  0  0  0
   45.1617   29.8132   48.2882 C   0  0  0  0  0  0  0  0  0  0  0  0
   45.2414   30.6111   49.3529 N   0  0  0  0  0  0  0  0  0  0  0  0
   46.4405   32.9749   42.4542 H   0  0  0  0  0  0  0  0  0  0  0  0
   44.9870   34.2034   41.1217 H   0  0  0  0  0  0  0  0  0  0  0  0
   46.1745   35.4796   40.7384 H   0  0  0  0  0  0  0  0  0  0  0  0
   46.0245   32.5910   39.8943 H   0  0  0  0  0  0  0  0  0  0  0  0
   46.8324   33.9693   38.9592 H   0  0  0  0  0  0  0  0  0  0  0  0
   48.8700   33.3959   39.7523 H   0  0  0  0  0  0  0  0  0  0  0  0
   48.1577   32.0507   40.6644 H   0  0  0  0  0  0  0  0  0  0  0  0
   48.8685   33.3984   42.4572 H   0  0  0  0  0  0  0  0  0  0  0  0
   49.3048   35.2904   40.4850 H   0  0  0  0  0  0  0  0  0  0  0  0
   48.0113   36.1187   41.3549 H   0  0  0  0  0  0  0  0  0  0  0  0
   50.3212   35.0249   42.5641 H   0  0  0  0  0  0  0  0  0  0  0  0
   43.7265   33.4494   43.5350 H   0  0  0  0  0  0  0  0  0  0  0  0
   47.2253   31.6697   45.3049 H   0  0  0  0  0  0  0  0  0  0  0  0
   45.5323   31.7750   44.8416 H   0  0  0  0  0  0  0  0  0  0  0  0
   45.6726   32.4759   50.1453 H   0  0  0  0  0  0  0  0  0  0  0  0
   46.2892   33.4934   47.9389 H   0  0  0  0  0  0  0  0  0  0  0  0
   43.4049   28.0918   48.3062 C   0  0  0  0  0  0  0  0  0  0  0  0
   44.7372   28.4233   48.4109 C   0  0  0  0  0  0  0  0  0  0  0  0
   45.7111   27.4458   48.6357 C   0  0  0  0  0  0  0  0  0  0  0  0
   46.7695   27.6525   48.7259 H   0  0  0  0  0  0  0  0  0  0  0  0
   45.2768   26.1283   48.7486 C   0  0  0  0  0  0  0  0  0  0  0  0
   45.8789   24.9407   48.9584 N   0  0  0  0  0  0  0  0  0  0  0  0
   46.9233   24.9060   49.0763 H   0  0  0  0  0  0  0  0  0  0  0  0
   44.9879   23.9589   48.9808 N   0  0  0  0  0  0  0  0  0  0  0  0
   43.7461   24.4441   48.7866 C   0  0  0  0  0  0  0  0  0  0  0  0
   42.8411   23.8899   48.7554 H   0  0  0  0  0  0  0  0  0  0  0  0
   43.9280   25.8083   48.6407 C   0  0  0  0  0  0  0  0  0  0  0  0
   42.9689   26.7888   48.4171 C   0  0  0  0  0  0  0  0  0  0  0  0
   42.6665   28.8815   48.1298 H   0  0  0  0  0  0  0  0  0  0  0  0
   41.9269   26.5103   48.3375 H   0  0  0  0  0  0  0  0  0  0  0  0
 10  1  1  6
  2  1  1  0
  3  2  1  0
  4  5  1  0
  4  3  1  0
  5  6  1  0
  6  2  1  0
  7  6  1  0
  7  8  1  0
 10  9  2  0
 10 12  1  0
 11 10  1  0
 13 12  1  0
 13 16  1  0
 14 19  2  0
 15 14  1  0
 16 17  1  0
 16 15  2  0
 17 18  2  0
 18 19  1  0
  2 20  1  1
  3 21  1  0
  3 22  1  0
  4 23  1  0
  4 24  1  0
  5 25  1  0
  5 26  1  0
  6 27  1  1
  7 28  1  0
  7 29  1  0
  8 30  1  0
 11 31  1  0
 13 32  1  0
 13 33  1  0
 14 34  1  0
 15 35  1  0
 36 37  2  0
 37 38  1  0
 38 39  1  0
 38 40  2  0
 40 41  1  0
 41 42  1  0
 41 43  1  0
 43 44  2  0
 44 45  1  0
 44 46  1  0
 46 47  2  0
 47 36  1  0
 46 40  1  0
 36 48  1  0
 47 49  1  0
 18 37  1  0
M  ISO  8  20  13  21  13  22  13  23  13  24  13  25  13  26  13  27  13
M  ISO  8  28   8  29   8  30   3  31   3  32   8  33   8  34  14  35  14
M  ISO  3  39  16  42   5  45  15
M  END
>  <DihAtoms>  (1) 
16,17,36,35

>  <DihDeg>  (1) 
-0.0017455225351655176

$$$$
