
     RDKit          3D

 27 29  0  0  0  0  0  0  0  0999 V2000
   44.5246   36.0041   44.5198 C   0  0  0  0  0  0  0  0  0  0  0  0
   45.2120   35.8845   43.3229 C   0  0  0  0  0  0  0  0  0  0  0  0
   46.1032   34.8309   43.1828 C   0  0  0  0  0  0  0  0  0  0  0  0
   46.2908   33.9406   44.2038 N   0  0  0  0  0  0  0  0  0  0  0  0
   45.5986   34.0903   45.3629 C   0  0  0  0  0  0  0  0  0  0  0  0
   44.7291   35.1089   45.5141 N   0  0  0  0  0  0  0  0  0  0  0  0
   45.8397   33.1004   46.4324 C   0  0  0  0  0  0  0  0  0  0  0  0
   46.5251   31.6204   45.6064 S   0  0  0  0  0  0  0  0  0  0  0  0
   43.8185   36.8049   44.6839 H   0  0  0  0  0  0  0  0  0  0  0  0
   45.0497   36.5987   42.5276 H   0  0  0  0  0  0  0  0  0  0  0  0
   46.6671   34.6811   42.2823 H   0  0  0  0  0  0  0  0  0  0  0  0
   44.9579   32.8709   47.0457 H   0  0  0  0  0  0  0  0  0  0  0  0
   46.6745   33.4640   47.0875 H   0  0  0  0  0  0  0  0  0  0  0  0
   45.6836   29.6404   47.1603 C   0  0  0  0  0  0  0  0  0  0  0  0
   46.8043   30.4403   46.9428 C   0  0  0  0  0  0  0  0  0  0  0  0
   47.9494   30.2914   47.6945 C   0  0  0  0  0  0  0  0  0  0  0  0
   48.7313   30.9731   47.4181 H   0  0  0  0  0  0  0  0  0  0  0  0
   47.9606   29.3220   48.6776 C   0  0  0  0  0  0  0  0  0  0  0  0
   48.9704   29.0162   49.5165 N   0  0  0  0  0  0  0  0  0  0  0  0
   49.9123   29.4450   49.5792 H   0  0  0  0  0  0  0  0  0  0  0  0
   48.5254   28.0198   50.2872 N   0  0  0  0  0  0  0  0  0  0  0  0
   47.2634   27.6973   49.9492 C   0  0  0  0  0  0  0  0  0  0  0  0
   46.6020   26.9393   50.3658 H   0  0  0  0  0  0  0  0  0  0  0  0
   46.8544   28.5256   48.8993 C   0  0  0  0  0  0  0  0  0  0  0  0
   45.7105   28.6669   48.1557 C   0  0  0  0  0  0  0  0  0  0  0  0
   44.7484   29.6841   46.6248 H   0  0  0  0  0  0  0  0  0  0  0  0
   44.8628   28.0255   48.3569 H   0  0  0  0  0  0  0  0  0  0  0  0
  1  6  2  0
  2  1  1  0
  3  2  2  0
  3  4  1  0
  4  5  2  0
  5  6  1  0
  5  7  1  0
  8  7  1  0
  1  9  1  0
  2 10  1  0
  3 11  1  0
  7 12  1  0
  7 13  1  0
 14 15  2  0
 15 16  1  0
 16 17  1  0
 16 18  2  0
 18 19  1  0
 19 20  1  0
 19 21  1  0
 21 22  2  0
 22 23  1  0
 22 24  1  0
 24 25  2  0
 25 14  1  0
 24 18  1  0
 14 26  1  0
 25 27  1  0
  8 15  1  0
M  ISO  8   9  14  10  14  11  14  12   8  13   8  17  16  20   5  23  15
M  END
>  <DihAtoms>  (1) 
6,7,14,13

>  <DihDeg>  (1) 
89.99890188028452

$$$$
