
     RDKit          3D

 27 29  0  0  0  0  0  0  0  0999 V2000
   44.5246   36.0041   44.5198 C   0  0  0  0  0  0  0  0  0  0  0  0
   45.2120   35.8845   43.3229 C   0  0  0  0  0  0  0  0  0  0  0  0
   46.1032   34.8309   43.1828 C   0  0  0  0  0  0  0  0  0  0  0  0
   46.2908   33.9406   44.2038 N   0  0  0  0  0  0  0  0  0  0  0  0
   45.5986   34.0903   45.3629 C   0  0  0  0  0  0  0  0  0  0  0  0
   44.7291   35.1089   45.5141 N   0  0  0  0  0  0  0  0  0  0  0  0
   45.8397   33.1004   46.4324 C   0  0  0  0  0  0  0  0  0  0  0  0
   46.5251   31.6204   45.6064 S   0  0  0  0  0  0  0  0  0  0  0  0
   43.8185   36.8049   44.6839 H   0  0  0  0  0  0  0  0  0  0  0  0
   45.0497   36.5987   42.5276 H   0  0  0  0  0  0  0  0  0  0  0  0
   46.6671   34.6811   42.2823 H   0  0  0  0  0  0  0  0  0  0  0  0
   44.9579   32.8709   47.0457 H   0  0  0  0  0  0  0  0  0  0  0  0
   46.6745   33.4640   47.0875 H   0  0  0  0  0  0  0  0  0  0  0  0
   47.8730   29.5913   46.6596 C   0  0  0  0  0  0  0  0  0  0  0  0
   46.8043   30.4403   46.9428 C   0  0  0  0  0  0  0  0  0  0  0  0
   46.0945   30.3331   48.1189 C   0  0  0  0  0  0  0  0  0  0  0  0
   45.3000   31.0502   48.2030 H   0  0  0  0  0  0  0  0  0  0  0  0
   46.4703   29.3556   49.0186 C   0  0  0  0  0  0  0  0  0  0  0  0
   45.9133   29.0849   50.2159 N   0  0  0  0  0  0  0  0  0  0  0  0
   45.1113   29.5528   50.6774 H   0  0  0  0  0  0  0  0  0  0  0  0
   46.6060   28.0630   50.7263 N   0  0  0  0  0  0  0  0  0  0  0  0
   47.5808   27.6903   49.8767 C   0  0  0  0  0  0  0  0  0  0  0  0
   48.3246   26.9008   49.9719 H   0  0  0  0  0  0  0  0  0  0  0  0
   47.5278   28.5106   48.7453 C   0  0  0  0  0  0  0  0  0  0  0  0
   48.2399   28.6103   47.5773 C   0  0  0  0  0  0  0  0  0  0  0  0
   48.4836   29.6004   45.7705 H   0  0  0  0  0  0  0  0  0  0  0  0
   49.0627   27.9314   47.3964 H   0  0  0  0  0  0  0  0  0  0  0  0
  1  6  2  0
  2  1  1  0
  3  2  2  0
  3  4  1  0
  4  5  2  0
  5  6  1  0
  5  7  1  0
  8  7  1  0
  1  9  1  0
  2 10  1  0
  3 11  1  0
  7 12  1  0
  7 13  1  0
 14 15  2  0
 15 16  1  0
 16 17  1  0
 16 18  2  0
 18 19  1  0
 19 20  1  0
 19 21  1  0
 21 22  2  0
 22 23  1  0
 22 24  1  0
 24 25  2  0
 25 14  1  0
 24 18  1  0
 14 26  1  0
 25 27  1  0
  8 15  1  0
M  ISO  8   9  14  10  14  11  14  12   8  13   8  17  16  20   5  23  15
M  END
>  <DihAtoms>  (1) 
6,7,14,13

>  <DihDeg>  (1) 
89.99890188028452

$$$$
