
     RDKit          3D

 36 39  0  0  0  0  0  0  0  0999 V2000
   46.2294   32.9536   45.9007 C   0  0  0  0  0  0  0  0  0  0  0  0
   46.9903   31.8343   45.5098 C   0  0  0  0  0  0  0  0  0  0  0  0
   47.1888   31.0487   46.5892 C   0  0  0  0  0  0  0  0  0  0  0  0
   46.5684   31.6638   47.6201 N   0  0  0  0  0  0  0  0  0  0  0  0
   45.9929   32.8076   47.2041 N   0  0  0  0  0  0  0  0  0  0  0  0
   44.4680   35.9006   44.6087 C   0  0  0  0  0  0  0  0  0  0  0  0
   45.0424   36.0565   43.3287 C   0  0  0  0  0  0  0  0  0  0  0  0
   46.0249   35.1449   42.9335 C   0  0  0  0  0  0  0  0  0  0  0  0
   46.3708   34.1655   43.7971 N   0  0  0  0  0  0  0  0  0  0  0  0
   45.8071   34.0353   45.0186 C   0  0  0  0  0  0  0  0  0  0  0  0
   44.8607   34.8986   45.4218 N   0  0  0  0  0  0  0  0  0  0  0  0
   46.5296   31.1608   48.9828 C   0  0  0  0  0  0  0  0  0  0  0  0
   45.1129   31.2419   49.4709 C   0  0  0  0  0  0  0  0  0  0  0  0
   47.3730   31.6054   44.5136 H   0  0  0  0  0  0  0  0  0  0  0  0
   47.7349   30.1095   46.6336 H   0  0  0  0  0  0  0  0  0  0  0  0
   43.7035   36.5475   45.0111 H   0  0  0  0  0  0  0  0  0  0  0  0
   44.7016   36.8627   42.7196 H   0  0  0  0  0  0  0  0  0  0  0  0
   46.4769   35.2480   41.9562 H   0  0  0  0  0  0  0  0  0  0  0  0
   47.1464   31.8844   49.5850 H   0  0  0  0  0  0  0  0  0  0  0  0
   46.9431   30.1586   49.0296 H   0  0  0  0  0  0  0  0  0  0  0  0
   44.7873   32.3096   49.3544 H   0  0  0  0  0  0  0  0  0  0  0  0
   44.4986   30.6777   48.7212 H   0  0  0  0  0  0  0  0  0  0  0  0
   43.5758   30.5249   51.2050 C   0  0  0  0  0  0  0  0  0  0  0  0
   44.9057   30.7668   50.8429 C   0  0  0  0  0  0  0  0  0  0  0  0
   45.9051   30.5502   51.7688 C   0  0  0  0  0  0  0  0  0  0  0  0
   46.9079   30.7358   51.4860 H   0  0  0  0  0  0  0  0  0  0  0  0
   45.5181   30.0984   53.0214 C   0  0  0  0  0  0  0  0  0  0  0  0
   46.2317   29.7980   54.1210 N   0  0  0  0  0  0  0  0  0  0  0  0
   47.2855   29.8607   54.2219 H   0  0  0  0  0  0  0  0  0  0  0  0
   45.4309   29.3979   55.1042 N   0  0  0  0  0  0  0  0  0  0  0  0
   44.1523   29.4202   54.6860 C   0  0  0  0  0  0  0  0  0  0  0  0
   43.2171   29.1719   55.1762 H   0  0  0  0  0  0  0  0  0  0  0  0
   44.1924   29.8625   53.3667 C   0  0  0  0  0  0  0  0  0  0  0  0
   43.1962   30.0801   52.4386 C   0  0  0  0  0  0  0  0  0  0  0  0
   42.7563   30.6875   50.4912 H   0  0  0  0  0  0  0  0  0  0  0  0
   42.1583   29.9049   52.6807 H   0  0  0  0  0  0  0  0  0  0  0  0
  1  5  2  0
  2  1  1  0
  2  3  2  0
  3  4  1  0
  4 12  1  0
  5  4  1  0
  6 11  2  0
  7  6  1  0
  8  7  2  0
  8  9  1  0
  9 10  2  0
 10 11  1  0
 10  1  1  0
 12 13  1  0
  2 14  1  0
  3 15  1  0
  6 16  1  0
  7 17  1  0
  8 18  1  0
 12 19  1  0
 12 20  1  0
 13 21  1  0
 13 22  1  0
 23 24  2  0
 24 25  1  0
 25 26  1  0
 25 27  2  0
 27 28  1  0
 28 29  1  0
 28 30  1  0
 30 31  2  0
 31 32  1  0
 31 33  1  0
 33 34  2  0
 34 23  1  0
 33 27  1  0
 23 35  1  0
 34 36  1  0
 13 24  1  0
M  ISO  8  14  14  15  14  16  14  17  14  18  14  19   8  20   8  21   8
M  ISO  4  22   8  26  16  29   5  32  15
M  END
>  <DihAtoms>  (1) 
11,12,23,22

>  <DihDeg>  (1) 
89.99845194245646

$$$$
