
     RDKit          3D

 27 29  0  0  0  0  0  0  0  0999 V2000
   44.5246   36.0041   44.5198 C   0  0  0  0  0  0  0  0  0  0  0  0
   45.2120   35.8845   43.3229 C   0  0  0  0  0  0  0  0  0  0  0  0
   46.1032   34.8309   43.1828 C   0  0  0  0  0  0  0  0  0  0  0  0
   46.2908   33.9406   44.2038 N   0  0  0  0  0  0  0  0  0  0  0  0
   45.5986   34.0903   45.3629 C   0  0  0  0  0  0  0  0  0  0  0  0
   44.7291   35.1089   45.5141 N   0  0  0  0  0  0  0  0  0  0  0  0
   45.8397   33.1004   46.4324 C   0  0  0  0  0  0  0  0  0  0  0  0
   46.5251   31.6204   45.6064 S   0  0  0  0  0  0  0  0  0  0  0  0
   43.8185   36.8049   44.6839 H   0  0  0  0  0  0  0  0  0  0  0  0
   45.0497   36.5987   42.5276 H   0  0  0  0  0  0  0  0  0  0  0  0
   46.6671   34.6811   42.2823 H   0  0  0  0  0  0  0  0  0  0  0  0
   44.9579   32.8709   47.0457 H   0  0  0  0  0  0  0  0  0  0  0  0
   46.6745   33.4640   47.0875 H   0  0  0  0  0  0  0  0  0  0  0  0
   45.8410   29.4328   46.9441 C   0  0  0  0  0  0  0  0  0  0  0  0
   46.8043   30.4403   46.9428 C   0  0  0  0  0  0  0  0  0  0  0  0
   47.8161   30.4673   47.8777 C   0  0  0  0  0  0  0  0  0  0  0  0
   48.4847   31.2985   47.7570 H   0  0  0  0  0  0  0  0  0  0  0  0
   47.8535   29.4633   48.8248 C   0  0  0  0  0  0  0  0  0  0  0  0
   48.7507   29.3061   49.8184 N   0  0  0  0  0  0  0  0  0  0  0  0
   49.5672   29.9003   50.0533 H   0  0  0  0  0  0  0  0  0  0  0  0
   48.3875   28.2018   50.4768 N   0  0  0  0  0  0  0  0  0  0  0  0
   47.2862   27.6672   49.9179 C   0  0  0  0  0  0  0  0  0  0  0  0
   46.7258   26.7760   50.1957 H   0  0  0  0  0  0  0  0  0  0  0  0
   46.9028   28.4617   48.8328 C   0  0  0  0  0  0  0  0  0  0  0  0
   45.8923   28.4270   47.9059 C   0  0  0  0  0  0  0  0  0  0  0  0
   45.0169   29.3299   46.2559 H   0  0  0  0  0  0  0  0  0  0  0  0
   45.1647   27.6272   47.9421 H   0  0  0  0  0  0  0  0  0  0  0  0
  1  6  2  0
  2  1  1  0
  3  2  2  0
  3  4  1  0
  4  5  2  0
  5  6  1  0
  5  7  1  0
  8  7  1  0
  1  9  1  0
  2 10  1  0
  3 11  1  0
  7 12  1  0
  7 13  1  0
 14 15  2  0
 15 16  1  0
 16 17  1  0
 16 18  2  0
 18 19  1  0
 19 20  1  0
 19 21  1  0
 21 22  2  0
 22 23  1  0
 22 24  1  0
 24 25  2  0
 25 14  1  0
 24 18  1  0
 14 26  1  0
 25 27  1  0
  8 15  1  0
M  ISO  8   9  14  10  14  11  14  12   8  13   8  17  16  20   5  23  15
M  END
>  <DihAtoms>  (1) 
6,7,14,13

>  <DihDeg>  (1) 
89.99890188028452

$$$$
