
     RDKit          3D

 50 54  0  0  0  0  0  0  0  0999 V2000
   42.1930   34.8150   39.8690 C   0  0  0  0  0  0  0  0  0  0  0  0
   41.7410   34.9570   38.5880 C   0  0  0  0  0  0  0  0  0  0  0  0
   40.5880   34.4100   38.0490 C   0  0  0  0  0  0  0  0  0  0  0  0
   39.8500   33.6530   38.9240 C   0  0  0  0  0  0  0  0  0  0  0  0
   40.2940   33.5050   40.2140 C   0  0  0  0  0  0  0  0  0  0  0  0
   41.4120   34.0490   40.6930 N   0  0  0  0  0  0  0  0  0  0  0  0
   39.4130   32.6650   41.0690 C   0  0  0  0  0  0  0  0  0  0  0  0
   38.0660   33.0230   40.8390 F   0  0  0  0  0  0  0  0  0  0  0  0
   39.7400   32.7020   42.3950 F   0  0  0  0  0  0  0  0  0  0  0  0
   39.4880   31.3370   40.6830 F   0  0  0  0  0  0  0  0  0  0  0  0
   43.3760   35.3480   40.5070 C   0  0  0  0  0  0  0  0  0  0  0  0
   43.3740   35.3900   42.0020 C   0  0  0  0  0  0  0  0  0  0  0  0
   46.6060   33.7270   42.7190 C   0  0  0  0  0  0  0  0  0  0  0  0
   46.6610   33.9390   44.0570 C   0  0  0  0  0  0  0  0  0  0  0  0
   45.0960   34.8620   44.3550 S   0  0  0  0  0  0  0  0  0  0  0  0
   44.6230   34.7980   42.5580 C   0  0  0  0  0  0  0  0  0  0  0  0
   45.5390   34.2180   42.1630 N   0  0  0  0  0  0  0  0  0  0  0  0
   48.9860   32.6080   40.0250 C   0  0  0  0  0  0  0  0  0  0  0  0
   47.9850   33.3440   40.6830 C   0  0  0  0  0  0  0  0  0  0  0  0
   47.6420   33.0130   41.9550 C   0  0  0  0  0  0  0  0  0  0  0  0
   48.3290   31.9350   42.5320 N   0  0  0  0  0  0  0  0  0  0  0  0
   49.2780   31.2660   41.8590 C   0  0  0  0  0  0  0  0  0  0  0  0
   49.6090   31.5980   40.6110 N   0  0  0  0  0  0  0  0  0  0  0  0
   47.3850   34.4120   39.9510 N   0  0  0  0  0  0  0  0  0  0  0  0
   38.3370   32.9040   38.3100 S   0  0  0  0  0  0  0  0  0  0  0  0
   39.7320   30.7990   37.4320 C   0  0  0  0  0  0  0  0  0  0  0  0
   38.6420   31.6220   37.1200 C   0  0  0  0  0  0  0  0  0  0  0  0
   37.9290   31.3720   35.9600 C   0  0  0  0  0  0  0  0  0  0  0  0
   38.2810   30.3350   35.1210 C   0  0  0  0  0  0  0  0  0  0  0  0
   37.7120   29.9480   33.9650 N   0  0  0  0  0  0  0  0  0  0  0  0
   38.3740   28.9020   33.4930 N   0  0  0  0  0  0  0  0  0  0  0  0
   39.3820   28.6150   34.3590 C   0  0  0  0  0  0  0  0  0  0  0  0
   39.3490   29.5050   35.3990 C   0  0  0  0  0  0  0  0  0  0  0  0
   40.0400   29.7710   36.5540 C   0  0  0  0  0  0  0  0  0  0  0  0
   42.3570   35.5699   37.9136 H   0  0  0  0  0  0  0  0  0  0  0  0
   40.2879   34.5697   37.0029 H   0  0  0  0  0  0  0  0  0  0  0  0
   44.2306   34.7310   40.1924 H   0  0  0  0  0  0  0  0  0  0  0  0
   43.4257   36.3999   40.1892 H   0  0  0  0  0  0  0  0  0  0  0  0
   43.2950   36.4365   42.3317 H   0  0  0  0  0  0  0  0  0  0  0  0
   42.5177   34.8035   42.3663 H   0  0  0  0  0  0  0  0  0  0  0  0
   47.4372   33.6383   44.7761 H   0  0  0  0  0  0  0  0  0  0  0  0
   49.2590   32.8791   38.9945 H   0  0  0  0  0  0  0  0  0  0  0  0
   49.7936   30.4260   42.3474 H   0  0  0  0  0  0  0  0  0  0  0  0
   46.6464   34.9832   40.3858 H   0  0  0  0  0  0  0  0  0  0  0  0
   47.6905   34.6116   38.9878 H   0  0  0  0  0  0  0  0  0  0  0  0
   40.3244   30.9631   38.3442 H   0  0  0  0  0  0  0  0  0  0  0  0
   37.0697   32.0091   35.7037 H   0  0  0  0  0  0  0  0  0  0  0  0
   36.8960   30.3919   33.5201 H   0  0  0  0  0  0  0  0  0  0  0  0
   40.1088   27.7975   34.2426 H   0  0  0  0  0  0  0  0  0  0  0  0
   40.8959   29.1253   36.8000 H   0  0  0  0  0  0  0  0  0  0  0  0
  1 11  1  0
  1  6  1  0
  2  1  2  0
  3  2  1  0
  3  4  2  0
  4  5  1  0
  5  6  2  0
  5  7  1  0
  7  9  1  0
  8  7  1  0
 10  7  1  0
 11 12  1  0
 12 16  1  0
 13 14  2  0
 14 15  1  0
 16 15  1  0
 17 16  2  0
 17 13  1  0
 18 23  2  0
 18 19  1  0
 19 20  2  0
 20 21  1  0
 20 13  1  0
 22 21  2  0
 23 22  1  0
 24 19  1  0
 25  4  1  0
 27 26  2  0
 27 25  1  0
 28 27  1  0
 29 33  1  0
 29 28  2  0
 30 29  1  0
 31 30  1  0
 31 32  2  0
 32 33  1  0
 33 34  2  0
 34 26  1  0
  2 35  1  0
  3 36  1  0
 11 37  1  0
 11 38  1  0
 12 39  1  0
 12 40  1  0
 14 41  1  0
 18 42  1  0
 22 43  1  0
 24 44  1  0
 24 45  1  0
 26 46  1  0
 28 47  1  0
 30 48  1  0
 32 49  1  0
 34 50  1  0
M  ISO  8  35  14  36  14  37   8  38   8  39   8  40   8  41  14  42  14
M  ISO  6  43  14  46  14  47  14  48   9  49  14  50  14
M  END
>  <minimizedAffinity>  (1) 
-6.05891132

>  <minimizedRMSD>  (1) 
0.712801695

$$$$
