
     RDKit          3D

 27 29  0  0  0  0  0  0  0  0999 V2000
   44.5246   36.0041   44.5198 C   0  0  0  0  0  0  0  0  0  0  0  0
   45.2120   35.8845   43.3229 C   0  0  0  0  0  0  0  0  0  0  0  0
   46.1032   34.8309   43.1828 C   0  0  0  0  0  0  0  0  0  0  0  0
   46.2908   33.9406   44.2038 N   0  0  0  0  0  0  0  0  0  0  0  0
   45.5986   34.0903   45.3629 C   0  0  0  0  0  0  0  0  0  0  0  0
   44.7291   35.1089   45.5141 N   0  0  0  0  0  0  0  0  0  0  0  0
   45.8397   33.1004   46.4324 C   0  0  0  0  0  0  0  0  0  0  0  0
   46.5251   31.6204   45.6064 S   0  0  0  0  0  0  0  0  0  0  0  0
   43.8185   36.8049   44.6839 H   0  0  0  0  0  0  0  0  0  0  0  0
   45.0497   36.5987   42.5276 H   0  0  0  0  0  0  0  0  0  0  0  0
   46.6671   34.6811   42.2823 H   0  0  0  0  0  0  0  0  0  0  0  0
   44.9579   32.8709   47.0457 H   0  0  0  0  0  0  0  0  0  0  0  0
   46.6745   33.4640   47.0875 H   0  0  0  0  0  0  0  0  0  0  0  0
   45.6193   30.1346   47.6102 C   0  0  0  0  0  0  0  0  0  0  0  0
   46.8043   30.4403   46.9428 C   0  0  0  0  0  0  0  0  0  0  0  0
   48.0039   29.8727   47.3134 C   0  0  0  0  0  0  0  0  0  0  0  0
   48.8321   30.1985   46.7130 H   0  0  0  0  0  0  0  0  0  0  0  0
   48.0043   28.9856   48.3714 C   0  0  0  0  0  0  0  0  0  0  0  0
   49.0602   28.3261   48.8883 N   0  0  0  0  0  0  0  0  0  0  0  0
   50.0533   28.3612   48.5927 H   0  0  0  0  0  0  0  0  0  0  0  0
   48.5817   27.5865   49.8928 N   0  0  0  0  0  0  0  0  0  0  0  0
   47.2540   27.7689   50.0144 C   0  0  0  0  0  0  0  0  0  0  0  0
   46.5513   27.3281   50.7197 H   0  0  0  0  0  0  0  0  0  0  0  0
   46.8346   28.6776   49.0377 C   0  0  0  0  0  0  0  0  0  0  0  0
   45.6361   29.2379   48.6754 C   0  0  0  0  0  0  0  0  0  0  0  0
   44.6386   30.5273   47.3923 H   0  0  0  0  0  0  0  0  0  0  0  0
   44.7394   28.9736   49.2199 H   0  0  0  0  0  0  0  0  0  0  0  0
  1  6  2  0
  2  1  1  0
  3  2  2  0
  3  4  1  0
  4  5  2  0
  5  6  1  0
  5  7  1  0
  8  7  1  0
  1  9  1  0
  2 10  1  0
  3 11  1  0
  7 12  1  0
  7 13  1  0
 14 15  2  0
 15 16  1  0
 16 17  1  0
 16 18  2  0
 18 19  1  0
 19 20  1  0
 19 21  1  0
 21 22  2  0
 22 23  1  0
 22 24  1  0
 24 25  2  0
 25 14  1  0
 24 18  1  0
 14 26  1  0
 25 27  1  0
  8 15  1  0
M  ISO  8   9  14  10  14  11  14  12   8  13   8  17  16  20   5  23  15
M  END
>  <DihAtoms>  (1) 
6,7,14,13

>  <DihDeg>  (1) 
89.99890188028452

$$$$
