
     RDKit          3D

 41 45  0  0  0  0  0  0  0  0999 V2000
   45.9854   33.5686   45.5570 C   0  0  0  0  0  0  0  0  0  0  0  0
   45.0089   34.4828   45.8250 C   0  0  0  0  0  0  0  0  0  0  0  0
   44.6252   35.4771   44.9526 C   0  0  0  0  0  0  0  0  0  0  0  0
   45.2877   35.5039   43.7753 N   0  0  0  0  0  0  0  0  0  0  0  0
   46.2416   34.6178   43.5030 C   0  0  0  0  0  0  0  0  0  0  0  0
   46.6205   33.6327   44.3692 N   0  0  0  0  0  0  0  0  0  0  0  0
   46.1023   30.3303   47.2749 C   0  0  0  0  0  0  0  0  0  0  0  0
   47.0044   30.5878   48.3095 C   0  0  0  0  0  0  0  0  0  0  0  0
   47.5715   31.8574   48.4234 C   0  0  0  0  0  0  0  0  0  0  0  0
   47.2119   32.8084   47.5007 N   0  0  0  0  0  0  0  0  0  0  0  0
   46.3485   32.5363   46.5230 C   0  0  0  0  0  0  0  0  0  0  0  0
   45.8042   31.3192   46.4129 N   0  0  0  0  0  0  0  0  0  0  0  0
   46.9530   34.6622   42.2120 C   0  0  0  0  0  0  0  0  0  0  0  0
   46.4578   33.9456   41.1330 C   0  0  0  0  0  0  0  0  0  0  0  0
   47.0633   33.9324   39.8933 C   0  0  0  0  0  0  0  0  0  0  0  0
   48.2206   34.6718   39.7244 C   0  0  0  0  0  0  0  0  0  0  0  0
   48.7047   35.3735   40.7827 C   0  0  0  0  0  0  0  0  0  0  0  0
   48.1116   35.4012   42.0392 C   0  0  0  0  0  0  0  0  0  0  0  0
   44.5178   34.4056   46.7860 H   0  0  0  0  0  0  0  0  0  0  0  0
   43.8439   36.1950   45.1879 H   0  0  0  0  0  0  0  0  0  0  0  0
   45.6952   29.3373   47.2321 H   0  0  0  0  0  0  0  0  0  0  0  0
   47.3292   29.8819   49.0686 H   0  0  0  0  0  0  0  0  0  0  0  0
   48.2855   32.1311   49.2084 H   0  0  0  0  0  0  0  0  0  0  0  0
   45.5525   33.3522   41.2218 H   0  0  0  0  0  0  0  0  0  0  0  0
   46.6501   33.3620   39.0722 H   0  0  0  0  0  0  0  0  0  0  0  0
   48.7059   34.6702   38.7573 H   0  0  0  0  0  0  0  0  0  0  0  0
   49.6126   35.9524   40.6440 H   0  0  0  0  0  0  0  0  0  0  0  0
   48.2776   36.1197   44.4601 C   0  0  0  0  0  0  0  0  0  0  0  0
   48.6763   36.1763   43.1403 C   0  0  0  0  0  0  0  0  0  0  0  0
   49.7168   37.0445   42.7875 C   0  0  0  0  0  0  0  0  0  0  0  0
   50.0619   37.1198   41.7569 H   0  0  0  0  0  0  0  0  0  0  0  0
   50.3327   37.8302   43.7448 C   0  0  0  0  0  0  0  0  0  0  0  0
   51.3288   38.7338   43.7183 N   0  0  0  0  0  0  0  0  0  0  0  0
   51.8815   39.0449   42.8854 H   0  0  0  0  0  0  0  0  0  0  0  0
   51.5399   39.2131   44.9478 N   0  0  0  0  0  0  0  0  0  0  0  0
   50.6749   38.6205   45.7947 C   0  0  0  0  0  0  0  0  0  0  0  0
   50.5672   38.7738   46.8748 H   0  0  0  0  0  0  0  0  0  0  0  0
   49.9014   37.7410   45.0530 C   0  0  0  0  0  0  0  0  0  0  0  0
   48.8731   36.8914   45.4380 C   0  0  0  0  0  0  0  0  0  0  0  0
   47.4708   35.4400   44.6967 H   0  0  0  0  0  0  0  0  0  0  0  0
   48.5165   36.8008   46.4479 H   0  0  0  0  0  0  0  0  0  0  0  0
  1  2  2  0
  1 11  1  0
  3  2  1  0
  4  3  2  0
  5  4  1  0
  5  6  2  0
  6  1  1  0
  7  8  2  0
  8  9  1  0
 10  9  2  0
 11 10  1  0
 12 11  2  0
 12  7  1  0
 13  5  1  0
 14 13  2  0
 15 14  1  0
 16 15  2  0
 16 17  1  0
 17 18  2  0
 18 13  1  0
  2 19  1  0
  3 20  1  0
  7 21  1  0
  8 22  1  0
  9 23  1  0
 14 24  1  0
 15 25  1  0
 16 26  1  0
 17 27  1  0
 28 29  2  0
 29 30  1  0
 30 31  1  0
 30 32  2  0
 32 33  1  0
 33 34  1  0
 33 35  1  0
 35 36  2  0
 36 37  1  0
 36 38  1  0
 38 39  2  0
 39 28  1  0
 38 32  1  0
 28 40  1  0
 39 41  1  0
 18 29  1  0
M  ISO  8  19  14  20  14  21  14  22  14  23  14  24  14  25  14  26  14
M  ISO  4  27  14  31  16  34   5  37  15
M  END
>  <DihAtoms>  (1) 
16,17,28,27

>  <DihDeg>  (1) 
114.8215296561277

$$$$
