
     RDKit          3D

 35 37  0  0  0  0  0  0  0  0999 V2000
   46.6425   34.3133   42.9151 C   0  0  0  0  0  0  0  0  0  0  0  0
   45.4256   34.7723   43.4034 C   0  0  0  0  0  0  0  0  0  0  0  0
   45.0658   34.4229   44.7174 C   0  0  0  0  0  0  0  0  0  0  0  0
   45.9442   33.6575   45.4117 N   0  0  0  0  0  0  0  0  0  0  0  0
   47.1159   33.2277   44.9122 C   0  0  0  0  0  0  0  0  0  0  0  0
   47.4483   33.5597   43.6758 N   0  0  0  0  0  0  0  0  0  0  0  0
   47.0756   34.6413   41.5563 C   0  0  0  0  0  0  0  0  0  0  0  0
   48.4167   35.3436   41.6122 C   0  0  0  0  0  0  0  0  0  0  0  0
   44.6600   35.5461   42.5409 O   0  0  0  0  0  0  0  0  0  0  0  0
   43.2410   35.4573   40.3263 O   0  0  0  0  0  0  0  0  0  0  0  0
   43.2010   35.0994   41.8094 P   0  0  1  0  0  0  0  0  0  0  0  0
   43.0453   33.4041   41.9366 O   0  0  0  0  0  0  0  0  0  0  0  0
   41.8411   35.7828   42.5517 O   0  0  0  0  0  0  0  0  0  0  0  0
   44.1326   34.7864   45.0641 H   0  0  0  0  0  0  0  0  0  0  0  0
   47.8018   32.6177   45.4841 H   0  0  0  0  0  0  0  0  0  0  0  0
   46.3560   35.3894   41.1098 H   0  0  0  0  0  0  0  0  0  0  0  0
   47.1145   33.7683   40.8973 H   0  0  0  0  0  0  0  0  0  0  0  0
   48.7761   35.4213   40.5448 H   0  0  0  0  0  0  0  0  0  0  0  0
   49.1093   34.6188   42.0887 H   0  0  0  0  0  0  0  0  0  0  0  0
   48.3457   36.3107   42.1098 H   0  0  0  0  0  0  0  0  0  0  0  0
   42.3545   33.1515   42.5688 H   0  0  0  0  0  0  0  0  0  0  0  0
   41.4662   37.4082   40.7466 C   0  0  0  0  0  0  0  0  0  0  0  0
   41.0184   36.6448   41.8062 C   0  0  0  0  0  0  0  0  0  0  0  0
   39.6770   36.7225   42.1692 C   0  0  0  0  0  0  0  0  0  0  0  0
   39.2164   36.1776   42.9735 H   0  0  0  0  0  0  0  0  0  0  0  0
   38.7832   37.5476   41.4918 C   0  0  0  0  0  0  0  0  0  0  0  0
   37.4654   37.8250   41.6093 N   0  0  0  0  0  0  0  0  0  0  0  0
   36.8223   37.4012   42.3315 H   0  0  0  0  0  0  0  0  0  0  0  0
   37.0983   38.7084   40.6838 N   0  0  0  0  0  0  0  0  0  0  0  0
   38.1855   39.0311   39.9311 C   0  0  0  0  0  0  0  0  0  0  0  0
   38.1696   39.7298   39.1057 H   0  0  0  0  0  0  0  0  0  0  0  0
   39.2333   38.3192   40.4216 C   0  0  0  0  0  0  0  0  0  0  0  0
   40.5781   38.2263   40.0754 C   0  0  0  0  0  0  0  0  0  0  0  0
   42.5133   37.3279   40.4865 H   0  0  0  0  0  0  0  0  0  0  0  0
   40.9492   38.8296   39.2322 H   0  0  0  0  0  0  0  0  0  0  0  0
  1  2  2  0
  1  6  1  0
  2  3  1  0
  3  4  2  0
  5  4  1  0
  6  5  2  0
  7  8  1  0
  7  1  1  0
  9  2  1  0
 10 11  2  0
 11 12  1  6
 11  9  1  0
 11 13  1  0
  3 14  1  0
  5 15  1  0
  7 16  1  0
  7 17  1  0
  8 18  1  0
  8 19  1  0
  8 20  1  0
 12 21  1  0
 22 23  2  0
 23 24  1  0
 24 25  1  0
 24 26  2  0
 26 27  1  0
 27 28  1  0
 27 29  1  0
 29 30  2  0
 30 31  1  0
 30 32  1  0
 32 33  2  0
 33 22  1  0
 32 26  1  0
 22 34  1  0
 33 35  1  0
 13 23  1  0
M  ISO  8  14  14  15  14  16   8  17   8  18   8  19   8  20   8  21   3
M  ISO  3  25  16  28   5  31  15
M  END
>  <DihAtoms>  (1) 
10,12,22,21

>  <DihDeg>  (1) 
-132.65899758850807

$$$$
