
     RDKit          3D

 36 39  0  0  0  0  0  0  0  0999 V2000
   43.9502   34.6704   41.4558 C   0  0  0  0  0  0  0  0  0  0  0  0
   42.7357   35.2904   41.1105 C   0  0  0  0  0  0  0  0  0  0  0  0
   42.1709   35.0191   39.8675 C   0  0  0  0  0  0  0  0  0  0  0  0
   42.8287   34.1566   39.0362 N   0  0  0  0  0  0  0  0  0  0  0  0
   44.0065   33.5771   39.4137 C   0  0  0  0  0  0  0  0  0  0  0  0
   44.5644   33.8245   40.6012 N   0  0  0  0  0  0  0  0  0  0  0  0
   44.5287   34.9779   42.7958 C   0  0  0  0  0  0  0  0  0  0  0  0
   46.0351   35.2464   42.7299 C   0  0  0  0  0  0  0  0  0  0  0  0
   45.0495   36.3082   43.0981 C   0  0  0  0  0  0  0  0  0  0  0  0
   40.8970   35.6553   39.4770 C   0  0  0  0  0  0  0  0  0  0  0  0
   40.2212   36.3440   40.6383 C   0  0  0  0  0  0  0  0  0  0  0  0
   42.2957   35.9548   41.8387 H   0  0  0  0  0  0  0  0  0  0  0  0
   44.5084   32.8977   38.7386 H   0  0  0  0  0  0  0  0  0  0  0  0
   44.0944   34.4029   43.6121 H   0  0  0  0  0  0  0  0  0  0  0  0
   46.6032   34.7224   43.5516 H   0  0  0  0  0  0  0  0  0  0  0  0
   46.5291   35.3038   41.7624 H   0  0  0  0  0  0  0  0  0  0  0  0
   44.9833   37.1594   42.3900 H   0  0  0  0  0  0  0  0  0  0  0  0
   45.0654   36.6228   44.1595 H   0  0  0  0  0  0  0  0  0  0  0  0
   40.2478   34.9505   38.9618 H   0  0  0  0  0  0  0  0  0  0  0  0
   41.1574   36.4752   38.7456 H   0  0  0  0  0  0  0  0  0  0  0  0
   40.8539   37.1412   41.0767 H   0  0  0  0  0  0  0  0  0  0  0  0
   39.9169   35.6500   41.4431 H   0  0  0  0  0  0  0  0  0  0  0  0
   38.1589   36.1345   39.2562 C   0  0  0  0  0  0  0  0  0  0  0  0
   38.9455   36.9298   40.0910 C   0  0  0  0  0  0  0  0  0  0  0  0
   38.5219   38.2050   40.3741 C   0  0  0  0  0  0  0  0  0  0  0  0
   39.1498   38.7992   41.0231 H   0  0  0  0  0  0  0  0  0  0  0  0
   37.3513   38.7269   39.8652 C   0  0  0  0  0  0  0  0  0  0  0  0
   36.7604   39.9309   40.0128 N   0  0  0  0  0  0  0  0  0  0  0  0
   37.0669   40.7595   40.5611 H   0  0  0  0  0  0  0  0  0  0  0  0
   35.6238   39.9718   39.3183 N   0  0  0  0  0  0  0  0  0  0  0  0
   35.4947   38.7640   38.7179 C   0  0  0  0  0  0  0  0  0  0  0  0
   34.6872   38.4565   38.0799 H   0  0  0  0  0  0  0  0  0  0  0  0
   36.5550   37.9455   39.0303 C   0  0  0  0  0  0  0  0  0  0  0  0
   36.9946   36.6864   38.7641 C   0  0  0  0  0  0  0  0  0  0  0  0
   38.4434   35.1161   38.9965 H   0  0  0  0  0  0  0  0  0  0  0  0
   36.3673   36.0696   38.1059 H   0  0  0  0  0  0  0  0  0  0  0  0
  1  7  1  0
  2  1  2  0
  3  2  1  0
  4  5  1  0
  4  3  2  0
  5  6  2  0
  6  1  1  0
  7  9  1  0
  8  7  1  0
  8  9  1  0
 10  3  1  0
 10 11  1  0
  2 12  1  0
  5 13  1  0
  7 14  1  0
  8 15  1  0
  8 16  1  0
  9 17  1  0
  9 18  1  0
 10 19  1  0
 10 20  1  0
 11 21  1  0
 11 22  1  0
 23 24  2  0
 24 25  1  0
 25 26  1  0
 25 27  2  0
 27 28  1  0
 28 29  1  0
 28 30  1  0
 30 31  2  0
 31 32  1  0
 31 33  1  0
 33 34  2  0
 34 23  1  0
 33 27  1  0
 23 35  1  0
 34 36  1  0
 11 24  1  0
M  ISO  8  12  14  13  14  14  13  15  13  16  13  17  13  18  13  19   8
M  ISO  6  20   8  21   8  22   8  26  16  29   5  32  15
M  END
>  <DihAtoms>  (1) 
9,10,23,22

>  <DihDeg>  (1) 
90.00351037094649

$$$$
