
     RDKit          3D

 42 45  0  0  0  0  0  0  0  0999 V2000
   46.3530   31.5940   45.7860 C   0  0  0  0  0  0  0  0  0  0  0  0
   47.4840   32.3080   47.8780 C   0  0  0  0  0  0  0  0  0  0  0  0
   47.2590   31.3330   46.8940 C   0  0  0  0  0  0  0  0  0  0  0  0
   47.9510   30.1190   47.0420 C   0  0  0  0  0  0  0  0  0  0  0  0
   48.7710   29.9660   48.0980 N   0  0  0  0  0  0  0  0  0  0  0  0
   48.9680   30.9150   49.0260 C   0  0  0  0  0  0  0  0  0  0  0  0
   48.3260   32.0730   48.9080 N   0  0  0  0  0  0  0  0  0  0  0  0
   50.0280   29.4810   50.7090 C   0  0  0  0  0  0  0  0  0  0  0  0
   49.8600   30.7410   50.1690 C   0  0  0  0  0  0  0  0  0  0  0  0
   50.5510   31.7890   50.7440 C   0  0  0  0  0  0  0  0  0  0  0  0
   51.3830   31.5750   51.8270 C   0  0  0  0  0  0  0  0  0  0  0  0
   52.1530   32.4040   52.5560 N   0  0  0  0  0  0  0  0  0  0  0  0
   52.7780   31.7280   53.5050 N   0  0  0  0  0  0  0  0  0  0  0  0
   52.4330   30.4300   53.4210 C   0  0  0  0  0  0  0  0  0  0  0  0
   51.5370   30.2870   52.3550 C   0  0  0  0  0  0  0  0  0  0  0  0
   50.8470   29.2120   51.7880 C   0  0  0  0  0  0  0  0  0  0  0  0
   47.0210   32.6050   44.8780 C   0  0  0  0  0  0  0  0  0  0  0  0
   46.3680   34.4540   43.3960 C   0  0  0  0  0  0  0  0  0  0  0  0
   46.2200   33.8030   44.6030 C   0  0  0  0  0  0  0  0  0  0  0  0
   45.3520   34.2200   45.5760 C   0  0  0  0  0  0  0  0  0  0  0  0
   44.5880   35.3420   45.3390 C   0  0  0  0  0  0  0  0  0  0  0  0
   44.6690   36.0490   44.1710 C   0  0  0  0  0  0  0  0  0  0  0  0
   45.5730   35.5690   43.2260 C   0  0  0  0  0  0  0  0  0  0  0  0
   47.4680   33.9590   42.1270 S   0  0  0  0  0  0  0  0  0  0  0  0
   48.8370   34.5860   42.2790 O   0  0  0  0  0  0  0  0  0  0  0  0
   46.9500   34.4860   40.8090 O   0  0  0  0  0  0  0  0  0  0  0  0
   46.1589   30.6633   45.2327 H   0  0  0  0  0  0  0  0  0  0  0  0
   45.3920   31.9815   46.1553 H   0  0  0  0  0  0  0  0  0  0  0  0
   46.9677   33.2769   47.8097 H   0  0  0  0  0  0  0  0  0  0  0  0
   47.8248   29.3090   46.3085 H   0  0  0  0  0  0  0  0  0  0  0  0
   49.4782   28.6441   50.2538 H   0  0  0  0  0  0  0  0  0  0  0  0
   50.4383   32.8044   50.3362 H   0  0  0  0  0  0  0  0  0  0  0  0
   52.2424   33.4178   52.3976 H   0  0  0  0  0  0  0  0  0  0  0  0
   52.7923   29.6224   54.0757 H   0  0  0  0  0  0  0  0  0  0  0  0
   50.9521   28.1917   52.1855 H   0  0  0  0  0  0  0  0  0  0  0  0
   47.9616   32.9226   45.3517 H   0  0  0  0  0  0  0  0  0  0  0  0
   47.1725   32.1029   43.9111 H   0  0  0  0  0  0  0  0  0  0  0  0
   45.2663   33.6717   46.5257 H   0  0  0  0  0  0  0  0  0  0  0  0
   43.8881   35.6811   46.1169 H   0  0  0  0  0  0  0  0  0  0  0  0
   44.0563   36.9441   43.9885 H   0  0  0  0  0  0  0  0  0  0  0  0
   45.6592   36.1179   42.2767 H   0  0  0  0  0  0  0  0  0  0  0  0
   47.5549   32.5931   42.1884 H   0  0  0  0  0  0  0  0  0  0  0  0
  1  3  1  0
  2  7  2  0
  3  4  2  0
  3  2  1  0
  4  5  1  0
  5  6  2  0
  6  9  1  0
  7  6  1  0
  8 16  2  0
  9  8  1  0
  9 10  2  0
 10 11  1  0
 11 15  2  0
 11 12  1  0
 12 13  1  0
 14 13  2  0
 15 14  1  0
 16 15  1  0
 17  1  1  0
 18 19  2  0
 19 17  1  0
 19 20  1  0
 21 20  2  0
 22 21  1  0
 23 18  1  0
 23 22  2  0
 24 25  2  0
 24 18  1  0
 26 24  2  0
  1 27  1  0
  1 28  1  0
  2 29  1  0
  4 30  1  0
  8 31  1  0
 10 32  1  0
 12 33  1  0
 14 34  1  0
 16 35  1  0
 17 36  1  0
 17 37  1  0
 20 38  1  0
 21 39  1  0
 22 40  1  0
 23 41  1  0
 24 42  1  0
M  ISO  8  27   8  28   8  29  14  30  14  31  14  32  14  33   9  34  14
M  ISO  8  35  14  36   8  37   8  38  14  39  14  40  14  41  14  42  11
M  END
>  <minimizedAffinity>  (1) 
-6.5710144

>  <minimizedRMSD>  (1) 
1.11813211

$$$$
