
     RDKit          3D

 43 48  0  0  0  0  0  0  0  0999 V2000
   45.4947   34.8350   43.5393 C   0  0  0  0  0  0  0  0  0  0  0  0
   46.2149   33.7605   44.1199 C   0  0  0  0  0  0  0  0  0  0  0  0
   46.0279   33.5226   45.4673 C   0  0  0  0  0  0  0  0  0  0  0  0
   45.1792   34.3128   46.1631 N   0  0  0  0  0  0  0  0  0  0  0  0
   44.5011   35.3352   45.5850 C   0  0  0  0  0  0  0  0  0  0  0  0
   44.6662   35.5818   44.2891 N   0  0  0  0  0  0  0  0  0  0  0  0
   47.0166   32.6970   47.5350 C   0  0  0  0  0  0  0  0  0  0  0  0
   46.6910   32.4572   46.2091 C   0  0  0  0  0  0  0  0  0  0  0  0
   47.0085   31.2368   45.6817 C   0  0  0  0  0  0  0  0  0  0  0  0
   47.6341   30.2338   46.3973 C   0  0  0  0  0  0  0  0  0  0  0  0
   48.0317   28.9878   46.0944 N   0  0  0  0  0  0  0  0  0  0  0  0
   48.6058   28.4439   47.2253 C   0  0  0  0  0  0  0  0  0  0  0  0
   48.5483   29.3639   48.1928 N   0  0  0  0  0  0  0  0  0  0  0  0
   47.9571   30.4718   47.7130 C   0  0  0  0  0  0  0  0  0  0  0  0
   47.6492   31.6974   48.2768 C   0  0  0  0  0  0  0  0  0  0  0  0
   45.6818   35.0771   42.1796 O   0  0  0  0  0  0  0  0  0  0  0  0
   44.6233   34.9189   41.2929 C   0  0  0  0  0  0  0  0  0  0  0  0
   45.0166   33.8193   40.6130 C   0  0  0  0  0  0  0  0  0  0  0  0
   43.5655   33.5874   39.3889 S   0  0  0  0  0  0  0  0  0  0  0  0
   42.7340   35.1110   40.1285 C   0  0  0  0  0  0  0  0  0  0  0  0
   43.4674   35.3997   40.8961 N   0  0  0  0  0  0  0  0  0  0  0  0
   46.8954   33.1241   43.5708 H   0  0  0  0  0  0  0  0  0  0  0  0
   43.8421   35.9072   46.2455 H   0  0  0  0  0  0  0  0  0  0  0  0
   46.7922   33.6442   48.0132 H   0  0  0  0  0  0  0  0  0  0  0  0
   46.7382   31.0806   44.6341 H   0  0  0  0  0  0  0  0  0  0  0  0
   47.8965   28.5593   45.1329 H   0  0  0  0  0  0  0  0  0  0  0  0
   49.0137   27.4430   47.2611 H   0  0  0  0  0  0  0  0  0  0  0  0
   47.9084   31.8747   49.3152 H   0  0  0  0  0  0  0  0  0  0  0  0
   45.7227   32.9195   40.3273 H   0  0  0  0  0  0  0  0  0  0  0  0
   40.7897   36.5625   40.5041 C   0  0  0  0  0  0  0  0  0  0  0  0
   41.3955   35.6561   39.6598 C   0  0  0  0  0  0  0  0  0  0  0  0
   40.9530   35.1825   38.4579 C   0  0  0  0  0  0  0  0  0  0  0  0
   41.5021   34.4763   37.8773 H   0  0  0  0  0  0  0  0  0  0  0  0
   39.7353   35.6652   38.0104 C   0  0  0  0  0  0  0  0  0  0  0  0
   38.9709   35.4645   36.9231 N   0  0  0  0  0  0  0  0  0  0  0  0
   39.2104   34.8223   36.1348 H   0  0  0  0  0  0  0  0  0  0  0  0
   37.8610   36.2147   37.0119 N   0  0  0  0  0  0  0  0  0  0  0  0
   37.8697   36.9232   38.1551 C   0  0  0  0  0  0  0  0  0  0  0  0
   37.1230   37.6203   38.5232 H   0  0  0  0  0  0  0  0  0  0  0  0
   39.0613   36.5835   38.8055 C   0  0  0  0  0  0  0  0  0  0  0  0
   39.5829   37.0073   40.0070 C   0  0  0  0  0  0  0  0  0  0  0  0
   41.2790   36.8226   41.4111 H   0  0  0  0  0  0  0  0  0  0  0  0
   39.0574   37.7309   40.6390 H   0  0  0  0  0  0  0  0  0  0  0  0
  1  2  2  0
  1  6  1  0
  2  3  1  0
  3  4  2  0
  3  8  1  0
  5  4  1  0
  6  5  2  0
  7 15  2  0
  8  7  1  0
  9  8  2  0
  9 10  1  0
 10 14  2  0
 11 10  1  0
 11 12  1  0
 12 13  2  0
 14 13  1  0
 14 15  1  0
 16  1  1  0
 17 16  1  0
 18 17  2  0
 19 20  1  0
 19 18  1  0
 20 21  2  0
 21 17  1  0
  2 22  1  0
  5 23  1  0
  7 24  1  0
  9 25  1  0
 11 26  1  0
 12 27  1  0
 15 28  1  0
 18 29  1  0
 30 31  2  0
 31 32  1  0
 32 33  1  0
 32 34  2  0
 34 35  1  0
 35 36  1  0
 35 37  1  0
 37 38  2  0
 38 39  1  0
 38 40  1  0
 40 41  2  0
 41 30  1  0
 40 34  1  0
 30 42  1  0
 41 43  1  0
 20 31  1  0
M  ISO  8  22  14  23  14  24  14  25  14  26   9  27  14  28  14  29  14
M  ISO  3  33  16  36   5  39  15
M  END
>  <DihAtoms>  (1) 
18,19,30,29

>  <DihDeg>  (1) 
-179.99991032185414

$$$$
