
     RDKit          3D

 48 53  0  0  0  0  0  0  0  0999 V2000
   44.8310   36.0020   43.3300 Cl  0  0  0  0  0  0  0  0  0  0  0  0
   45.5770   34.7470   44.2730 C   0  0  0  0  0  0  0  0  0  0  0  0
   46.7070   34.0990   43.8010 C   0  0  0  0  0  0  0  0  0  0  0  0
   47.2160   33.1250   44.6220 C   0  0  0  0  0  0  0  0  0  0  0  0
   46.6900   32.7620   45.8470 C   0  0  0  0  0  0  0  0  0  0  0  0
   45.5690   33.4270   46.2820 C   0  0  0  0  0  0  0  0  0  0  0  0
   44.9290   32.9400   47.8410 Cl  0  0  0  0  0  0  0  0  0  0  0  0
   45.0190   34.4080   45.5010 C   0  0  0  0  0  0  0  0  0  0  0  0
   47.3790   31.6960   46.5730 C   0  0  0  0  0  0  0  0  0  0  0  0
   47.4970   30.4100   46.0850 C   0  0  0  0  0  0  0  0  0  0  0  0
   48.1470   29.3840   46.7560 C   0  0  0  0  0  0  0  0  0  0  0  0
   48.7130   29.6560   47.9880 C   0  0  0  0  0  0  0  0  0  0  0  0
   49.3340   28.6360   48.6080 N   0  0  0  0  0  0  0  0  0  0  0  0
   49.9210   28.8060   49.8230 C   0  0  0  0  0  0  0  0  0  0  0  0
   49.8430   30.0710   50.3750 C   0  0  0  0  0  0  0  0  0  0  0  0
   49.2070   31.0920   49.7280 C   0  0  0  0  0  0  0  0  0  0  0  0
   48.6180   30.9140   48.5040 C   0  0  0  0  0  0  0  0  0  0  0  0
   47.9660   31.9180   47.8150 C   0  0  0  0  0  0  0  0  0  0  0  0
   48.9250   35.5770   41.3260 C   0  0  0  0  0  0  0  0  0  0  0  0
   48.4570   35.0480   40.1160 C   0  0  0  0  0  0  0  0  0  0  0  0
   47.3590   34.1650   40.1530 C   0  0  0  0  0  0  0  0  0  0  0  0
   46.8390   33.8990   41.3650 N   0  0  0  0  0  0  0  0  0  0  0  0
   47.3140   34.4280   42.5240 C   0  0  0  0  0  0  0  0  0  0  0  0
   48.3550   35.2670   42.5100 N   0  0  0  0  0  0  0  0  0  0  0  0
   45.5400   32.9620   39.1450 C   0  0  0  0  0  0  0  0  0  0  0  0
   46.7690   33.5400   38.9770 C   0  0  0  0  0  0  0  0  0  0  0  0
   47.3940   33.5180   37.7500 C   0  0  0  0  0  0  0  0  0  0  0  0
   46.8100   32.9180   36.6540 C   0  0  0  0  0  0  0  0  0  0  0  0
   47.1850   32.7540   35.3720 N   0  0  0  0  0  0  0  0  0  0  0  0
   46.2310   32.0940   34.7370 N   0  0  0  0  0  0  0  0  0  0  0  0
   45.2210   31.8130   35.5770 C   0  0  0  0  0  0  0  0  0  0  0  0
   45.5570   32.3300   36.8300 C   0  0  0  0  0  0  0  0  0  0  0  0
   44.9050   32.3410   38.0640 C   0  0  0  0  0  0  0  0  0  0  0  0
   48.1139   32.5908   44.2779 H   0  0  0  0  0  0  0  0  0  0  0  0
   44.1203   34.9371   45.8509 H   0  0  0  0  0  0  0  0  0  0  0  0
   47.0490   30.1853   45.1058 H   0  0  0  0  0  0  0  0  0  0  0  0
   48.2106   28.3771   46.3178 H   0  0  0  0  0  0  0  0  0  0  0  0
   50.4313   27.9798   50.3396 H   0  0  0  0  0  0  0  0  0  0  0  0
   50.3030   30.2593   51.3563 H   0  0  0  0  0  0  0  0  0  0  0  0
   49.1667   32.0836   50.2024 H   0  0  0  0  0  0  0  0  0  0  0  0
   47.9091   32.9220   48.2609 H   0  0  0  0  0  0  0  0  0  0  0  0
   49.7827   36.2656   41.3109 H   0  0  0  0  0  0  0  0  0  0  0  0
   48.9343   35.3150   39.1616 H   0  0  0  0  0  0  0  0  0  0  0  0
   45.0513   32.9857   40.1302 H   0  0  0  0  0  0  0  0  0  0  0  0
   48.3817   33.9898   37.6416 H   0  0  0  0  0  0  0  0  0  0  0  0
   48.0664   33.0865   34.9556 H   0  0  0  0  0  0  0  0  0  0  0  0
   44.2966   31.2733   35.3237 H   0  0  0  0  0  0  0  0  0  0  0  0
   43.9167   31.8732   38.1836 H   0  0  0  0  0  0  0  0  0  0  0  0
  1  2  1  0
  2  8  2  0
  3  2  1  0
  3  4  2  0
  4  5  1  0
  5  6  2  0
  5  9  1  0
  6  7  1  0
  8  6  1  0
  9 18  1  0
 10  9  2  0
 10 11  1  0
 11 12  2  0
 12 17  1  0
 12 13  1  0
 13 14  2  0
 14 15  1  0
 16 15  2  0
 17 16  1  0
 18 17  2  0
 19 24  2  0
 20 21  2  0
 20 19  1  0
 21 22  1  0
 22 23  2  0
 23  3  1  0
 24 23  1  0
 26 25  2  0
 26 21  1  0
 27 26  1  0
 28 32  1  0
 28 27  2  0
 29 28  1  0
 30 29  1  0
 30 31  2  0
 31 32  1  0
 32 33  2  0
 33 25  1  0
  4 34  1  0
  8 35  1  0
 10 36  1  0
 11 37  1  0
 14 38  1  0
 15 39  1  0
 16 40  1  0
 18 41  1  0
 19 42  1  0
 20 43  1  0
 25 44  1  0
 27 45  1  0
 29 46  1  0
 31 47  1  0
 33 48  1  0
M  ISO  8  34  14  35  14  36  14  37  14  38  14  39  14  40  14  41  14
M  ISO  7  42  14  43  14  44  14  45  14  46   9  47  14  48  14
M  END
>  <minimizedAffinity>  (1) 
-7.90474939

>  <minimizedRMSD>  (1) 
0.579740584

$$$$
