
     RDKit          3D

 48 51  0  0  0  0  0  0  0  0999 V2000
   44.6748   35.2946   45.0735 O   0  0  0  0  0  0  0  0  0  0  0  0
   45.4827   34.2519   44.3361 P   0  0  2  0  0  0  0  0  0  0  0  0
   44.5250   33.0559   43.6463 O   0  0  0  0  0  0  0  0  0  0  0  0
   46.5126   33.4610   45.4059 O   0  0  0  0  0  0  0  0  0  0  0  0
   46.2035   32.1404   45.4215 C   0  0  0  0  0  0  0  0  0  0  0  0
   45.7524   32.0398   49.1155 C   0  0  0  0  0  0  0  0  0  0  0  0
   46.0501   32.5244   47.8333 C   0  0  0  0  0  0  0  0  0  0  0  0
   45.8943   31.6461   46.7742 C   0  0  0  0  0  0  0  0  0  0  0  0
   45.4666   30.3773   47.0291 N   0  0  0  0  0  0  0  0  0  0  0  0
   45.1885   29.9407   48.2701 C   0  0  0  0  0  0  0  0  0  0  0  0
   45.3305   30.7629   49.2968 N   0  0  0  0  0  0  0  0  0  0  0  0
   46.4131   35.0246   43.1621 O   0  0  0  0  0  0  0  0  0  0  0  0
   46.9270   34.0860   42.2792 C   0  0  1  0  0  0  0  0  0  0  0  0
   46.3925   34.2720   40.8723 C   0  0  0  0  0  0  0  0  0  0  0  0
   47.3384   33.3754   40.0919 C   0  0  0  0  0  0  0  0  0  0  0  0
   48.6340   33.3434   40.8795 C   0  0  0  0  0  0  0  0  0  0  0  0
   48.4054   34.3101   42.0568 C   0  0  1  0  0  0  0  0  0  0  0  0
   48.7827   35.6964   41.7109 C   0  0  0  0  0  0  0  0  0  0  0  0
   44.7707   32.7689   42.7570 H   0  0  0  0  0  0  0  0  0  0  0  0
   45.4229   31.7730   44.7651 H   0  0  0  0  0  0  0  0  0  0  0  0
   47.1372   31.5825   45.1160 H   0  0  0  0  0  0  0  0  0  0  0  0
   45.8647   32.7035   49.9633 H   0  0  0  0  0  0  0  0  0  0  0  0
   46.3829   33.5523   47.7474 H   0  0  0  0  0  0  0  0  0  0  0  0
   44.8715   28.9220   48.2422 H   0  0  0  0  0  0  0  0  0  0  0  0
   46.7801   33.0369   42.5827 H   0  0  0  0  0  0  0  0  0  0  0  0
   45.3778   33.8737   40.7205 H   0  0  0  0  0  0  0  0  0  0  0  0
   46.4084   35.3127   40.5667 H   0  0  0  0  0  0  0  0  0  0  0  0
   46.9215   32.3471   40.0024 H   0  0  0  0  0  0  0  0  0  0  0  0
   47.4821   33.8304   39.0919 H   0  0  0  0  0  0  0  0  0  0  0  0
   48.7898   32.3071   41.2675 H   0  0  0  0  0  0  0  0  0  0  0  0
   49.4509   33.6768   40.2306 H   0  0  0  0  0  0  0  0  0  0  0  0
   49.0133   33.8757   42.8863 H   0  0  0  0  0  0  0  0  0  0  0  0
   48.3434   35.9040   40.6889 H   0  0  0  0  0  0  0  0  0  0  0  0
   49.8931   35.6781   41.4874 H   0  0  0  0  0  0  0  0  0  0  0  0
   48.7785   36.8757   44.0063 C   0  0  0  0  0  0  0  0  0  0  0  0
   48.4529   36.7449   42.6735 C   0  0  0  0  0  0  0  0  0  0  0  0
   47.6898   37.7814   42.1228 C   0  0  0  0  0  0  0  0  0  0  0  0
   47.3474   37.8355   41.0903 H   0  0  0  0  0  0  0  0  0  0  0  0
   47.2949   38.8669   42.8878 C   0  0  0  0  0  0  0  0  0  0  0  0
   46.5710   39.9901   42.6330 N   0  0  0  0  0  0  0  0  0  0  0  0
   46.1422   40.2536   41.7140 H   0  0  0  0  0  0  0  0  0  0  0  0
   46.4834   40.7243   43.7458 N   0  0  0  0  0  0  0  0  0  0  0  0
   47.1325   40.1227   44.7501 C   0  0  0  0  0  0  0  0  0  0  0  0
   47.2644   40.4342   45.7834 H   0  0  0  0  0  0  0  0  0  0  0  0
   47.6445   38.9566   44.2201 C   0  0  0  0  0  0  0  0  0  0  0  0
   48.4027   37.9306   44.7751 C   0  0  0  0  0  0  0  0  0  0  0  0
   49.3593   36.0511   44.3958 H   0  0  0  0  0  0  0  0  0  0  0  0
   48.7143   37.9316   45.8115 H   0  0  0  0  0  0  0  0  0  0  0  0
  2  1  2  0
  2  4  1  1
  3  2  1  0
  4  5  1  0
  5  8  1  0
  6 11  2  0
  7  6  1  0
  8  9  1  0
  8  7  2  0
  9 10  2  0
 10 11  1  0
 12  2  1  0
 13 12  1  0
 14 13  1  0
 15 16  1  0
 15 14  1  0
 16 17  1  0
 17 13  1  0
 18 17  1  0
  3 19  1  0
  5 20  1  0
  5 21  1  0
  6 22  1  0
  7 23  1  0
 10 24  1  0
 13 25  1  1
 14 26  1  0
 14 27  1  0
 15 28  1  0
 15 29  1  0
 16 30  1  0
 16 31  1  0
 17 32  1  1
 18 33  1  0
 18 34  1  0
 35 36  2  0
 36 37  1  0
 37 38  1  0
 37 39  2  0
 39 40  1  0
 40 41  1  0
 40 42  1  0
 42 43  2  0
 43 44  1  0
 43 45  1  0
 45 46  2  0
 46 35  1  0
 45 39  1  0
 35 47  1  0
 46 48  1  0
 18 36  1  0
M  ISO  8  19   3  20   8  21   8  22  14  23  14  24  14  25  13  26  13
M  ISO  8  27  13  28  13  29  13  30  13  31  13  32  13  33   8  34   8
M  ISO  3  38  16  41   5  44  15
M  END
>  <DihAtoms>  (1) 
16,17,35,34

>  <DihDeg>  (1) 
-94.1568309244699

$$$$
