
     RDKit          3D

 33 36  0  0  0  0  0  0  0  0999 V2000
   44.9400   33.1630   40.9990 Cl  0  0  0  0  0  0  0  0  0  0  0  0
   46.4560   34.0240   40.8620 C   0  0  0  0  0  0  0  0  0  0  0  0
   46.9300   34.7890   41.8770 C   0  0  0  0  0  0  0  0  0  0  0  0
   48.1320   35.4220   41.6630 C   0  0  0  0  0  0  0  0  0  0  0  0
   48.8360   35.3120   40.5140 C   0  0  0  0  0  0  0  0  0  0  0  0
   48.3570   34.5380   39.4890 C   0  0  0  0  0  0  0  0  0  0  0  0
   47.1510   33.8910   39.6760 C   0  0  0  0  0  0  0  0  0  0  0  0
   46.8640   31.6970   38.6780 C   0  0  0  0  0  0  0  0  0  0  0  0
   46.6890   33.0810   38.5510 C   0  0  0  0  0  0  0  0  0  0  0  0
   46.1130   33.5690   37.4110 C   0  0  0  0  0  0  0  0  0  0  0  0
   45.6910   32.7680   36.3700 C   0  0  0  0  0  0  0  0  0  0  0  0
   45.1080   33.0380   35.1790 N   0  0  0  0  0  0  0  0  0  0  0  0
   44.9100   31.8780   34.5510 N   0  0  0  0  0  0  0  0  0  0  0  0
   45.3590   30.8640   35.3280 C   0  0  0  0  0  0  0  0  0  0  0  0
   45.8640   31.3940   36.4980 C   0  0  0  0  0  0  0  0  0  0  0  0
   46.4440   30.8640   37.6370 C   0  0  0  0  0  0  0  0  0  0  0  0
   44.4890   35.9680   44.5250 C   0  0  0  0  0  0  0  0  0  0  0  0
   45.2250   35.9010   43.3300 C   0  0  0  0  0  0  0  0  0  0  0  0
   46.1530   34.8890   43.0990 C   0  0  0  0  0  0  0  0  0  0  0  0
   46.2950   33.9770   44.1040 N   0  0  0  0  0  0  0  0  0  0  0  0
   45.5820   34.0540   45.2430 C   0  0  0  0  0  0  0  0  0  0  0  0
   44.6840   35.0370   45.4610 N   0  0  0  0  0  0  0  0  0  0  0  0
   48.5416   36.0500   42.4679 H   0  0  0  0  0  0  0  0  0  0  0  0
   49.7926   35.8433   40.4017 H   0  0  0  0  0  0  0  0  0  0  0  0
   48.9156   34.4353   38.5470 H   0  0  0  0  0  0  0  0  0  0  0  0
   47.3245   31.2725   39.5823 H   0  0  0  0  0  0  0  0  0  0  0  0
   45.9791   34.6569   37.3191 H   0  0  0  0  0  0  0  0  0  0  0  0
   44.8613   33.9719   34.8215 H   0  0  0  0  0  0  0  0  0  0  0  0
   45.3266   29.7953   35.0696 H   0  0  0  0  0  0  0  0  0  0  0  0
   46.5760   29.7754   37.7242 H   0  0  0  0  0  0  0  0  0  0  0  0
   43.7617   36.7772   44.6869 H   0  0  0  0  0  0  0  0  0  0  0  0
   45.0640   36.6674   42.5575 H   0  0  0  0  0  0  0  0  0  0  0  0
   45.7363   33.2914   46.0206 H   0  0  0  0  0  0  0  0  0  0  0  0
  2  1  1  0
  2  3  2  0
  3 19  1  0
  4  3  1  0
  5  4  2  0
  6  7  2  0
  6  5  1  0
  7  2  1  0
  9  8  2  0
  9  7  1  0
 10  9  1  0
 11 15  1  0
 11 10  2  0
 12 11  1  0
 13 12  1  0
 13 14  2  0
 14 15  1  0
 15 16  2  0
 16  8  1  0
 17 22  2  0
 18 17  1  0
 19 18  2  0
 19 20  1  0
 20 21  2  0
 21 22  1  0
  4 23  1  0
  5 24  1  0
  6 25  1  0
  8 26  1  0
 10 27  1  0
 12 28  1  0
 14 29  1  0
 16 30  1  0
 17 31  1  0
 18 32  1  0
 21 33  1  0
M  ISO  8  23  14  24  14  25  14  26  14  27  14  28   9  29  14  30  14
M  ISO  3  31  14  32  14  33  14
M  END
>  <minimizedAffinity>  (1) 
-6.49563408

>  <minimizedRMSD>  (1) 
0.902717233

$$$$
