
     RDKit          3D

 31 33  0  0  0  0  0  0  0  0999 V2000
   44.2694   35.7300   44.2660 C   0  0  0  0  0  0  0  0  0  0  0  0
   44.4224   34.9133   43.1276 C   0  0  0  0  0  0  0  0  0  0  0  0
   45.0600   33.6870   43.2703 C   0  0  0  0  0  0  0  0  0  0  0  0
   45.5069   33.3409   44.5230 N   0  0  0  0  0  0  0  0  0  0  0  0
   45.3392   34.1491   45.5759 C   0  0  0  0  0  0  0  0  0  0  0  0
   44.7308   35.3349   45.4748 N   0  0  0  0  0  0  0  0  0  0  0  0
   43.8092   35.4438   41.5333 S   0  0  0  0  0  0  0  0  0  0  0  0
   45.1700   33.0710   42.3868 H   0  0  0  0  0  0  0  0  0  0  0  0
   45.7270   33.7928   46.5372 H   0  0  0  0  0  0  0  0  0  0  0  0
   42.3991   35.4812   41.4841 H   0  0  0  0  0  0  0  0  0  0  0  0
   43.5702   37.0390   44.0291 C   0  0  0  0  0  0  0  0  0  0  0  0
   44.5176   38.0990   43.6810 C   0  0  0  0  0  0  0  0  0  0  0  0
   44.7204   39.2160   44.3567 C   0  0  0  0  0  0  0  0  0  0  0  0
   43.9823   39.5232   45.5880 C   0  0  0  0  0  0  0  0  0  0  0  0
   43.0976   38.9280   46.2455 O   0  0  0  0  0  0  0  0  0  0  0  0
   44.0959   40.6360   46.3837 O   0  0  0  0  0  0  0  0  0  0  0  0
   45.6598   40.1528   43.8795 N   0  0  0  0  0  0  0  0  0  0  0  0
   46.7834   40.9861   44.1575 C   0  0  0  0  0  0  0  0  0  0  0  0
   47.2873   41.5020   45.2163 O   0  0  0  0  0  0  0  0  0  0  0  0
   47.1700   41.0372   42.7037 C   0  0  1  0  0  0  0  0  0  0  0  0
   47.4198   42.0299   42.3136 H   0  0  0  0  0  0  0  0  0  0  0  0
   45.7163   40.6738   42.5117 C   0  0  1  0  0  0  0  0  0  0  0  0
   45.5325   39.2635   41.3998 S   0  0  0  0  0  0  0  0  0  0  0  0
   45.3104   37.8185   42.4451 C   0  0  1  0  0  0  0  0  0  0  0  0
   46.2953   37.4093   42.8055 H   0  0  0  0  0  0  0  0  0  0  0  0
   42.9871   36.8404   43.0741 H   0  0  0  0  0  0  0  0  0  0  0  0
   42.8466   37.2265   44.8028 H   0  0  0  0  0  0  0  0  0  0  0  0
   44.3646   40.6163   47.3416 H   0  0  0  0  0  0  0  0  0  0  0  0
   47.8928   40.2540   42.4958 H   0  0  0  0  0  0  0  0  0  0  0  0
   45.0428   41.5106   42.2910 H   0  0  0  0  0  0  0  0  0  0  0  0
   44.8268   37.0362   41.8268 H   0  0  0  0  0  0  0  0  0  0  0  0
  1  6  2  0
  2  3  2  0
  2  1  1  0
  3  4  1  0
  4  5  2  0
  6  5  1  0
  7  2  1  0
  3  8  1  0
  5  9  1  0
  7 10  1  0
 11 12  1  0
 12 13  2  0
 13 14  1  0
 14 15  2  0
 14 16  1  0
 13 17  1  0
 17 18  1  0
 18 19  2  0
 18 20  1  0
 20 21  1  6
 20 22  1  0
 22 23  1  0
 23 24  1  0
 24 25  1  1
 24 12  1  0
 22 17  1  0
 11 26  1  0
 11 27  1  0
 16 28  1  0
 20 29  1  0
 22 30  1  1
 24 31  1  0
  1 11  1  0
M  ISO  5   8  14   9  14  10  11  21  15  25  15
M  END
>  <DihAtoms>  (1) 
5,0,10,11

>  <DihDeg>  (1) 
-0.00761103932899591

$$$$
