
     RDKit          3D

 45 48  0  0  0  0  0  0  0  0999 V2000
   44.8219   35.1606   45.0954 C   0  0  0  0  0  0  0  0  0  0  0  0
   45.7078   34.7837   44.0807 C   0  0  0  0  0  0  0  0  0  0  0  0
   46.5430   33.6846   44.3286 C   0  0  0  0  0  0  0  0  0  0  0  0
   46.4532   33.0526   45.5171 N   0  0  0  0  0  0  0  0  0  0  0  0
   45.5829   33.4544   46.4629 C   0  0  0  0  0  0  0  0  0  0  0  0
   44.7709   34.4966   46.2643 N   0  0  0  0  0  0  0  0  0  0  0  0
   45.7056   35.5700   42.8113 C   0  0  0  0  0  0  0  0  0  0  0  0
   45.2137   36.8051   43.1491 F   0  0  0  0  0  0  0  0  0  0  0  0
   44.8049   34.9202   41.9567 F   0  0  0  0  0  0  0  0  0  0  0  0
   46.9661   35.5999   42.3019 F   0  0  0  0  0  0  0  0  0  0  0  0
   45.4766   32.8174   47.6895 O   0  0  0  0  0  0  0  0  0  0  0  0
   45.2267   31.4358   47.7781 C   0  0  0  0  0  0  0  0  0  0  0  0
   46.5226   30.7647   48.0068 C   0  0  0  0  0  0  0  0  0  0  0  0
   47.0980   29.6533   47.4083 C   0  0  0  0  0  0  0  0  0  0  0  0
   48.3232   29.2394   47.8143 C   0  0  0  0  0  0  0  0  0  0  0  0
   48.9897   29.8681   48.7702 N   0  0  0  0  0  0  0  0  0  0  0  0
   48.4450   30.9437   49.3570 C   0  0  0  0  0  0  0  0  0  0  0  0
   47.2143   31.4090   48.9918 N   0  0  0  0  0  0  0  0  0  0  0  0
   44.1759   36.0125   44.9006 H   0  0  0  0  0  0  0  0  0  0  0  0
   47.2247   33.4061   43.5291 H   0  0  0  0  0  0  0  0  0  0  0  0
   44.7701   31.0472   46.8632 H   0  0  0  0  0  0  0  0  0  0  0  0
   44.5899   31.1979   48.6457 H   0  0  0  0  0  0  0  0  0  0  0  0
   46.4432   29.2472   46.6513 H   0  0  0  0  0  0  0  0  0  0  0  0
   48.6973   28.3716   47.3002 H   0  0  0  0  0  0  0  0  0  0  0  0
   49.2447   31.6241   50.4403 C   0  0  0  0  0  0  0  0  0  0  0  0
   48.8999   31.0135   51.7359 C   0  0  0  0  0  0  0  0  0  0  0  0
   49.8467   30.4330   52.4528 C   0  0  0  0  0  0  0  0  0  0  0  0
   51.2224   30.3756   52.0015 C   0  0  0  0  0  0  0  0  0  0  0  0
   52.1910   29.8302   52.6341 O   0  0  0  0  0  0  0  0  0  0  0  0
   52.3622   30.5222   51.2623 O   0  0  0  0  0  0  0  0  0  0  0  0
   49.5082   29.8565   53.7077 N   0  0  0  0  0  0  0  0  0  0  0  0
   49.6029   28.7116   54.5587 C   0  0  0  0  0  0  0  0  0  0  0  0
   50.3965   27.7172   54.6757 O   0  0  0  0  0  0  0  0  0  0  0  0
   48.3626   29.1747   55.2662 C   0  0  0  0  0  0  0  0  0  0  0  0
   48.5417   29.1415   56.3619 H   0  0  0  0  0  0  0  0  0  0  0  0
   48.7281   30.5493   54.7471 C   0  0  0  0  0  0  0  0  0  0  0  0
   47.4139   31.4595   53.9161 S   0  0  0  0  0  0  0  0  0  0  0  0
   47.4803   31.0820   52.1494 C   0  0  0  0  0  0  0  0  0  0  0  0
   47.0102   30.0939   51.9205 H   0  0  0  0  0  0  0  0  0  0  0  0
   50.3008   31.6576   50.1916 H   0  0  0  0  0  0  0  0  0  0  0  0
   48.9101   32.6981   50.5061 H   0  0  0  0  0  0  0  0  0  0  0  0
   52.5811   31.4422   50.8470 H   0  0  0  0  0  0  0  0  0  0  0  0
   47.4328   28.7562   54.8817 H   0  0  0  0  0  0  0  0  0  0  0  0
   49.3531   31.1514   55.4335 H   0  0  0  0  0  0  0  0  0  0  0  0
   46.9563   31.8974   51.6127 H   0  0  0  0  0  0  0  0  0  0  0  0
  1  6  2  0
  2  3  2  0
  2  1  1  0
  3  4  1  0
  4  5  2  0
  5 11  1  0
  6  5  1  0
  7  8  1  0
  7  2  1  0
  9  7  1  0
 10  7  1  0
 11 12  1  0
 12 13  1  0
 13 18  2  0
 14 15  2  0
 14 13  1  0
 15 16  1  0
 16 17  2  0
 18 17  1  0
  1 19  1  0
  3 20  1  0
 12 21  1  0
 12 22  1  0
 14 23  1  0
 15 24  1  0
 25 26  1  0
 26 27  2  0
 27 28  1  0
 28 29  2  0
 28 30  1  0
 27 31  1  0
 31 32  1  0
 32 33  2  0
 32 34  1  0
 34 35  1  0
 34 36  1  0
 36 37  1  0
 37 38  1  0
 38 39  1  0
 38 26  1  0
 36 31  1  0
 25 40  1  0
 25 41  1  0
 30 42  1  0
 34 43  1  0
 36 44  1  0
 38 45  1  0
 17 25  1  0
M  ISO  8  19  14  20  14  21   8  22   8  23  14  24  14  35  15  39  15
M  END
>  <DihAtoms>  (1) 
15,16,24,25

>  <DihDeg>  (1) 
-89.99047214165019

$$$$
