
     RDKit          3D

 41 44  0  0  0  0  0  0  0  0999 V2000
   45.2686   36.1657   43.1700 C   0  0  0  0  0  0  0  0  0  0  0  0
   45.8686   34.9122   42.9084 C   0  0  0  0  0  0  0  0  0  0  0  0
   45.8297   33.9501   43.8921 C   0  0  0  0  0  0  0  0  0  0  0  0
   45.2246   34.2244   45.0732 N   0  0  0  0  0  0  0  0  0  0  0  0
   44.6484   35.4419   45.3116 C   0  0  0  0  0  0  0  0  0  0  0  0
   44.6836   36.3687   44.3695 N   0  0  0  0  0  0  0  0  0  0  0  0
   46.4460   32.6572   43.6282 C   0  0  0  0  0  0  0  0  0  0  0  0
   45.6673   31.5748   43.2964 C   0  0  0  0  0  0  0  0  0  0  0  0
   46.2828   30.3680   43.0535 C   0  0  0  0  0  0  0  0  0  0  0  0
   47.6553   30.1834   43.1259 C   0  0  0  0  0  0  0  0  0  0  0  0
   48.3753   31.3048   43.4623 C   0  0  0  0  0  0  0  0  0  0  0  0
   47.7637   32.4864   43.6993 N   0  0  0  0  0  0  0  0  0  0  0  0
   46.4930   34.6838   41.6389 C   0  0  0  0  0  0  0  0  0  0  0  0
   47.6631   35.1368   41.4796 O   0  0  0  0  0  0  0  0  0  0  0  0
   45.2790   36.9478   42.4206 H   0  0  0  0  0  0  0  0  0  0  0  0
   44.1785   35.6106   46.2698 H   0  0  0  0  0  0  0  0  0  0  0  0
   44.6118   31.6584   43.2264 H   0  0  0  0  0  0  0  0  0  0  0  0
   45.6691   29.4934   42.7867 H   0  0  0  0  0  0  0  0  0  0  0  0
   48.1566   29.2590   42.9424 H   0  0  0  0  0  0  0  0  0  0  0  0
   49.4480   31.2476   43.5402 H   0  0  0  0  0  0  0  0  0  0  0  0
   41.4869   36.6527   38.2252 C   0  0  0  0  0  0  0  0  0  0  0  0
   41.3004   36.1795   37.2161 H   0  0  0  0  0  0  0  0  0  0  0  0
   42.7237   36.1896   38.8600 C   0  0  0  0  0  0  0  0  0  0  0  0
   42.7766   34.9169   39.1686 C   0  0  0  0  0  0  0  0  0  0  0  0
   41.6613   34.0182   38.8922 C   0  0  0  0  0  0  0  0  0  0  0  0
   40.5573   34.2865   38.3578 O   0  0  0  0  0  0  0  0  0  0  0  0
   41.6724   32.6671   39.2012 O   0  0  0  0  0  0  0  0  0  0  0  0
   43.9289   34.3594   39.7873 N   0  0  0  0  0  0  0  0  0  0  0  0
   44.5264   33.4406   40.6939 C   0  0  0  0  0  0  0  0  0  0  0  0
   44.1092   32.4939   41.4303 O   0  0  0  0  0  0  0  0  0  0  0  0
   45.8797   33.9623   40.5034 C   0  0  1  0  0  0  0  0  0  0  0  0
   45.2818   34.8377   39.4613 C   0  0  2  0  0  0  0  0  0  0  0  0
   45.2974   36.5945   39.7669 S   0  0  0  0  0  0  0  0  0  0  0  0
   43.7611   37.1919   39.0816 C   0  0  2  0  0  0  0  0  0  0  0  0
   43.3468   37.9266   39.8333 H   0  0  0  0  0  0  0  0  0  0  0  0
   41.4785   37.7489   37.9814 H   0  0  0  0  0  0  0  0  0  0  0  0
   40.5800   36.5564   38.8930 H   0  0  0  0  0  0  0  0  0  0  0  0
   40.8800   32.1218   39.4996 H   0  0  0  0  0  0  0  0  0  0  0  0
   46.5917   33.2062   40.0635 H   0  0  0  0  0  0  0  0  0  0  0  0
   45.5990   34.5617   38.4275 H   0  0  0  0  0  0  0  0  0  0  0  0
   43.9598   37.7997   38.1746 H   0  0  0  0  0  0  0  0  0  0  0  0
  1  6  2  0
  2  1  1  0
  2  3  2  0
  3  4  1  0
  4  5  2  0
  6  5  1  0
  7 12  1  0
  7  3  1  0
  8  7  2  0
  9 10  2  0
  9  8  1  0
 10 11  1  0
 11 12  2  0
 13  2  1  0
 14 13  2  0
  1 15  1  0
  5 16  1  0
  8 17  1  0
  9 18  1  0
 10 19  1  0
 11 20  1  0
 21 22  1  0
 21 23  1  0
 23 24  2  0
 24 25  1  0
 25 26  2  0
 25 27  1  0
 24 28  1  0
 28 29  1  0
 29 30  2  0
 29 31  1  0
 31 32  1  0
 32 33  1  0
 33 34  1  0
 34 35  1  1
 34 23  1  0
 32 28  1  0
 21 36  1  0
 21 37  1  0
 27 38  1  0
 31 39  1  6
 32 40  1  6
 34 41  1  0
 13 31  1  0
M  ISO  8  15  14  16  14  17  14  18  14  19  14  20  14  22   8  35  15
M  END
>  <DihAtoms>  (1) 
1,12,30,28

>  <DihDeg>  (1) 
59.99719830353079

$$$$
