
     RDKit          3D

 34 36  0  0  0  0  0  0  0  0999 V2000
   44.5385   36.0457   44.5663 C   0  0  0  0  0  0  0  0  0  0  0  0
   45.2559   36.0070   43.3605 C   0  0  0  0  0  0  0  0  0  0  0  0
   46.1366   34.9535   43.1527 C   0  0  0  0  0  0  0  0  0  0  0  0
   46.2764   34.0102   44.1011 N   0  0  0  0  0  0  0  0  0  0  0  0
   45.5678   34.0659   45.2697 C   0  0  0  0  0  0  0  0  0  0  0  0
   44.7116   35.0838   45.4799 N   0  0  0  0  0  0  0  0  0  0  0  0
   46.3775   34.2014   40.7893 C   0  0  0  0  0  0  0  0  0  0  0  0
   45.2270   33.7164   40.9342 O   0  0  0  0  0  0  0  0  0  0  0  0
   46.8926   34.8572   41.9524 N   0  0  0  0  0  0  0  0  0  0  0  0
   43.8772   36.9041   44.6372 H   0  0  0  0  0  0  0  0  0  0  0  0
   45.1767   36.7422   42.5694 H   0  0  0  0  0  0  0  0  0  0  0  0
   45.6902   33.2885   46.0388 H   0  0  0  0  0  0  0  0  0  0  0  0
   47.8373   35.3079   42.0211 H   0  0  0  0  0  0  0  0  0  0  0  0
   49.8936   39.1814   38.9933 C   0  0  0  0  0  0  0  0  0  0  0  0
   50.5989   38.8850   38.1620 H   0  0  0  0  0  0  0  0  0  0  0  0
   49.2591   37.9152   39.4362 C   0  0  0  0  0  0  0  0  0  0  0  0
   48.5777   37.2735   38.5023 C   0  0  0  0  0  0  0  0  0  0  0  0
   48.4677   37.7899   37.1378 C   0  0  0  0  0  0  0  0  0  0  0  0
   47.8271   37.2046   36.2294 O   0  0  0  0  0  0  0  0  0  0  0  0
   48.9595   38.9174   36.5067 O   0  0  0  0  0  0  0  0  0  0  0  0
   47.9256   36.0476   38.7949 N   0  0  0  0  0  0  0  0  0  0  0  0
   46.8263   35.1851   38.6109 C   0  0  0  0  0  0  0  0  0  0  0  0
   45.7878   35.1618   37.8709 O   0  0  0  0  0  0  0  0  0  0  0  0
   47.2772   34.2097   39.6371 C   0  0  1  0  0  0  0  0  0  0  0  0
   48.4938   35.0607   39.6992 C   0  0  2  0  0  0  0  0  0  0  0  0
   48.7682   35.9179   41.2697 S   0  0  0  0  0  0  0  0  0  0  0  0
   49.4526   37.5206   40.8513 C   0  0  2  0  0  0  0  0  0  0  0  0
   49.0783   38.3375   41.5191 H   0  0  0  0  0  0  0  0  0  0  0  0
   50.5449   39.5976   39.7722 H   0  0  0  0  0  0  0  0  0  0  0  0
   49.1599   39.9179   38.6026 H   0  0  0  0  0  0  0  0  0  0  0  0
   48.3000   39.6128   36.1948 H   0  0  0  0  0  0  0  0  0  0  0  0
   47.4495   33.1860   39.2401 H   0  0  0  0  0  0  0  0  0  0  0  0
   49.3896   34.5854   39.2697 H   0  0  0  0  0  0  0  0  0  0  0  0
   50.5717   37.4384   40.9785 H   0  0  0  0  0  0  0  0  0  0  0  0
  1  6  2  0
  2  1  1  0
  3  2  2  0
  3  4  1  0
  4  5  2  0
  5  6  1  0
  7  8  2  0
  7  9  1  0
  9  3  1  0
  1 10  1  0
  2 11  1  0
  5 12  1  0
  9 13  1  0
 14 15  1  0
 14 16  1  0
 16 17  2  0
 17 18  1  0
 18 19  2  0
 18 20  1  0
 17 21  1  0
 21 22  1  0
 22 23  2  0
 22 24  1  0
 24 25  1  0
 25 26  1  0
 26 27  1  0
 27 28  1  1
 27 16  1  0
 25 21  1  0
 14 29  1  0
 14 30  1  0
 20 31  1  0
 24 32  1  6
 25 33  1  6
 27 34  1  0
  7 24  1  0
M  ISO  5  10  14  11  14  12  14  15   8  28  15
M  END
>  <DihAtoms>  (1) 
7,6,23,21

>  <DihDeg>  (1) 
-119.99373654688416

$$$$
