
     RDKit          3D

 52 55  0  0  0  0  0  0  0  0999 V2000
   47.9330   34.5103   42.4482 C   0  0  0  0  0  0  0  0  0  0  0  0
   48.0198   33.4850   43.4020 C   0  0  0  0  0  0  0  0  0  0  0  0
   46.9580   33.3423   44.3179 C   0  0  0  0  0  0  0  0  0  0  0  0
   45.9179   34.2228   44.2031 N   0  0  0  0  0  0  0  0  0  0  0  0
   45.8710   35.1850   43.2832 C   0  0  0  0  0  0  0  0  0  0  0  0
   46.8797   35.3291   42.4043 N   0  0  0  0  0  0  0  0  0  0  0  0
   46.9518   32.3214   45.3482 C   0  0  2  0  0  0  0  0  0  0  0  0
   45.9192   31.2725   44.9132 C   0  0  0  0  0  0  0  0  0  0  0  0
   46.1877   30.0936   45.8570 C   0  0  0  0  0  0  0  0  0  0  0  0
   45.6435   30.5727   47.1954 C   0  0  0  0  0  0  0  0  0  0  0  0
   46.4886   31.7138   47.6868 C   0  0  0  0  0  0  0  0  0  0  0  0
   46.6080   32.8243   46.7252 C   0  0  1  0  0  0  0  0  0  0  0  0
   49.0734   34.6316   41.4924 C   0  0  0  0  0  0  0  0  0  0  0  0
   49.1725   33.5177   40.6804 F   0  0  0  0  0  0  0  0  0  0  0  0
   48.9047   35.8024   40.7520 F   0  0  0  0  0  0  0  0  0  0  0  0
   50.2553   34.8202   42.1991 F   0  0  0  0  0  0  0  0  0  0  0  0
   44.7156   36.1200   43.2090 C   0  0  0  0  0  0  0  0  0  0  0  0
   44.0311   35.9912   42.0419 F   0  0  0  0  0  0  0  0  0  0  0  0
   45.1631   37.4491   43.3899 F   0  0  0  0  0  0  0  0  0  0  0  0
   43.8561   35.9411   44.2768 F   0  0  0  0  0  0  0  0  0  0  0  0
   48.8320   32.8044   43.4849 H   0  0  0  0  0  0  0  0  0  0  0  0
   47.9173   31.8051   45.4020 H   0  0  0  0  0  0  0  0  0  0  0  0
   44.9191   31.6608   45.1193 H   0  0  0  0  0  0  0  0  0  0  0  0
   46.1105   31.0134   43.8632 H   0  0  0  0  0  0  0  0  0  0  0  0
   47.2596   29.9126   45.9323 H   0  0  0  0  0  0  0  0  0  0  0  0
   45.5947   29.2146   45.5384 H   0  0  0  0  0  0  0  0  0  0  0  0
   44.6135   30.9402   46.9867 H   0  0  0  0  0  0  0  0  0  0  0  0
   45.6296   29.7830   47.9485 H   0  0  0  0  0  0  0  0  0  0  0  0
   46.1144   32.0006   48.6768 H   0  0  0  0  0  0  0  0  0  0  0  0
   47.5170   31.2743   47.8373 H   0  0  0  0  0  0  0  0  0  0  0  0
   45.5715   33.2660   46.6208 H   0  0  0  0  0  0  0  0  0  0  0  0
   47.5453   33.9243   47.0185 C   0  0  0  0  0  0  0  0  0  0  0  0
   47.0846   35.2940   46.9559 C   0  0  0  0  0  0  0  0  0  0  0  0
   47.5184   36.2097   46.0864 C   0  0  0  0  0  0  0  0  0  0  0  0
   48.5428   35.9031   45.0662 C   0  0  0  0  0  0  0  0  0  0  0  0
   49.2131   34.9101   44.7362 O   0  0  0  0  0  0  0  0  0  0  0  0
   49.0935   36.7023   44.1071 O   0  0  0  0  0  0  0  0  0  0  0  0
   47.0033   37.5575   46.1350 N   0  0  0  0  0  0  0  0  0  0  0  0
   46.3671   38.5771   45.3677 C   0  0  0  0  0  0  0  0  0  0  0  0
   46.2456   38.8840   44.1396 O   0  0  0  0  0  0  0  0  0  0  0  0
   45.9026   39.1262   46.6944 C   0  0  2  0  0  0  0  0  0  0  0  0
   44.9286   38.7529   47.0173 H   0  0  0  0  0  0  0  0  0  0  0  0
   47.0509   38.3993   47.3504 C   0  0  1  0  0  0  0  0  0  0  0  0
   46.6334   37.3033   48.7227 S   0  0  0  0  0  0  0  0  0  0  0  0
   46.0489   35.7516   47.9209 C   0  0  1  0  0  0  0  0  0  0  0  0
   45.0651   35.9342   47.4396 H   0  0  0  0  0  0  0  0  0  0  0  0
   48.4925   33.6891   46.4686 H   0  0  0  0  0  0  0  0  0  0  0  0
   47.8999   33.7753   48.1053 H   0  0  0  0  0  0  0  0  0  0  0  0
   48.9570   36.6189   43.1207 H   0  0  0  0  0  0  0  0  0  0  0  0
   46.0847   40.2155   46.7034 H   0  0  0  0  0  0  0  0  0  0  0  0
   47.9670   38.9716   47.4886 H   0  0  0  0  0  0  0  0  0  0  0  0
   45.9112   35.0399   48.7539 H   0  0  0  0  0  0  0  0  0  0  0  0
  1  2  2  0
  2  3  1  0
  3  7  1  0
  4  3  2  0
  5  4  1  0
  6  1  1  0
  6  5  2  0
  7 12  1  0
  8  7  1  0
  8  9  1  0
  9 10  1  0
 10 11  1  0
 12 11  1  0
 13 16  1  0
 13  1  1  0
 14 13  1  0
 15 13  1  0
 17  5  1  0
 17 19  1  0
 17 20  1  0
 18 17  1  0
  2 21  1  0
  7 22  1  1
  8 23  1  0
  8 24  1  0
  9 25  1  0
  9 26  1  0
 10 27  1  0
 10 28  1  0
 11 29  1  0
 11 30  1  0
 12 31  1  6
 32 33  1  0
 33 34  2  0
 34 35  1  0
 35 36  2  0
 35 37  1  0
 34 38  1  0
 38 39  1  0
 39 40  2  0
 39 41  1  0
 41 42  1  1
 41 43  1  0
 43 44  1  0
 44 45  1  0
 45 46  1  6
 45 33  1  0
 43 38  1  0
 32 47  1  0
 32 48  1  0
 37 49  1  0
 41 50  1  0
 43 51  1  1
 45 52  1  0
 12 32  1  0
M  ISO  8  21  14  22  13  23  13  24  13  25  13  26  13  27  13  28  13
M  ISO  5  29  13  30  13  31  13  42  15  46  15
M  END
>  <DihAtoms>  (1) 
6,11,31,32

>  <DihDeg>  (1) 
179.45553027747255

$$$$
