
     RDKit          3D

 47 50  0  0  1  0  0  0  0  0999 V2000
   41.7290   35.3380   38.4140 C   0  0  0  0  0  0  0  0  0  0  0  0
   39.6360   34.8840   39.5920 C   0  0  0  0  0  0  0  0  0  0  0  0
   39.7940   35.8450   40.4010 O   0  0  0  0  0  0  0  0  0  0  0  0
   40.5170   34.5570   38.5160 N   0  0  0  0  0  0  0  0  0  0  0  0
   39.1740   30.1830   41.1990 C   0  0  0  0  0  0  0  0  0  0  0  0
   38.4500   30.5250   40.1710 C   0  0  0  0  0  0  0  0  0  0  0  0
   38.4130   31.8940   39.7850 N   0  0  0  0  0  0  0  0  0  0  0  0
   38.3320   32.9130   38.8020 C   0  0  0  0  0  0  0  0  0  0  0  0
   38.2140   32.9110   37.5280 O   0  0  0  0  0  0  0  0  0  0  0  0
   38.4350   34.0190   39.7670 C   0  0  1  0  0  0  0  0  0  0  0  0
   38.4880   32.9710   40.7880 C   0  0  2  0  0  0  0  0  0  0  0  0
   40.0720   32.6810   41.6130 S   0  0  0  0  0  0  0  0  0  0  0  0
   40.0270   30.9490   42.1200 C   0  0  0  0  0  0  0  0  0  0  0  0
   39.1200   28.7060   41.4960 C   0  0  0  0  0  0  0  0  0  0  0  0
   37.6680   29.5770   39.3850 C   0  0  0  0  0  0  0  0  0  0  0  0
   36.5520   29.0850   39.5850 O   0  0  0  0  0  0  0  0  0  0  0  0
   38.1320   29.0580   38.1880 O   0  0  0  0  0  0  0  0  0  0  0  0
   42.9670   34.4630   38.3350 C   0  0  0  0  0  0  0  0  0  0  0  0
   43.9380   34.3020   41.9850 C   0  0  0  0  0  0  0  0  0  0  0  0
   43.6050   34.8240   40.7120 C   0  0  0  0  0  0  0  0  0  0  0  0
   43.3270   33.9450   39.6790 C   0  0  0  0  0  0  0  0  0  0  0  0
   43.3930   32.6010   39.9660 N   0  0  0  0  0  0  0  0  0  0  0  0
   43.7150   32.1530   41.2010 C   0  0  0  0  0  0  0  0  0  0  0  0
   43.9850   32.9900   42.2000 N   0  0  0  0  0  0  0  0  0  0  0  0
   44.2460   35.2490   43.0870 C   0  0  0  0  0  0  0  0  0  0  0  0
   45.7460   35.1620   43.5360 C   0  0  0  0  0  0  0  0  0  0  0  0
   45.1150   36.3630   42.9740 C   0  0  0  0  0  0  0  0  0  0  0  0
   41.6754   35.9594   37.5079 H   0  0  0  0  0  0  0  0  0  0  0  0
   41.8096   35.9582   39.3189 H   0  0  0  0  0  0  0  0  0  0  0  0
   40.2999   33.8039   37.8477 H   0  0  0  0  0  0  0  0  0  0  0  0
   37.7143   34.8470   39.8378 H   0  0  0  0  0  0  0  0  0  0  0  0
   37.7805   33.1283   41.6155 H   0  0  0  0  0  0  0  0  0  0  0  0
   39.6204   30.8773   43.1396 H   0  0  0  0  0  0  0  0  0  0  0  0
   41.0468   30.5373   42.0982 H   0  0  0  0  0  0  0  0  0  0  0  0
   39.1143   28.5509   42.5850 H   0  0  0  0  0  0  0  0  0  0  0  0
   38.2056   28.2775   41.0599 H   0  0  0  0  0  0  0  0  0  0  0  0
   40.0007   28.2119   41.0599 H   0  0  0  0  0  0  0  0  0  0  0  0
   39.0195   29.3280   37.8423 H   0  0  0  0  0  0  0  0  0  0  0  0
   42.7686   33.6157   37.6622 H   0  0  0  0  0  0  0  0  0  0  0  0
   43.8035   35.0656   37.9513 H   0  0  0  0  0  0  0  0  0  0  0  0
   43.5677   35.9108   40.5461 H   0  0  0  0  0  0  0  0  0  0  0  0
   43.7547   31.0691   41.3844 H   0  0  0  0  0  0  0  0  0  0  0  0
   43.2243   35.1793   43.4885 H   0  0  0  0  0  0  0  0  0  0  0  0
   46.0115   35.1134   44.6024 H   0  0  0  0  0  0  0  0  0  0  0  0
   46.6174   34.5309   43.3073 H   0  0  0  0  0  0  0  0  0  0  0  0
   45.4163   36.7048   41.9728 H   0  0  0  0  0  0  0  0  0  0  0  0
   45.0424   37.4002   43.3331 H   0  0  0  0  0  0  0  0  0  0  0  0
  1  4  1  0
  2  3  2  0
  4  2  1  0
  5 14  1  0
  5 13  1  0
  6  5  2  0
  7  6  1  0
  7 11  1  0
  8 10  1  0
  8  7  1  0
  9  8  2  0
 10  2  1  0
 10 11  1  0
 11 12  1  0
 12 13  1  0
 15 16  2  0
 15  6  1  0
 17 15  1  0
 18  1  1  0
 18 21  1  0
 19 24  1  0
 19 25  1  0
 20 19  2  0
 21 22  2  0
 21 20  1  0
 22 23  1  0
 23 24  2  0
 25 26  1  0
 27 25  1  0
 27 26  1  0
  1 28  1  0
  1 29  1  0
  4 30  1  0
 10 31  1  1
 11 32  1  1
 13 33  1  0
 13 34  1  0
 14 35  1  0
 14 36  1  0
 14 37  1  0
 17 38  1  0
 18 39  1  0
 18 40  1  0
 20 41  1  0
 23 42  1  0
 25 43  1  0
 26 44  1  0
 26 45  1  0
 27 46  1  0
 27 47  1  0
M  ISO  8  28   8  29   8  31  13  32  13  33  13  34  13  35   8  36   8
M  ISO  8  37   8  38   3  39   8  40   8  41  14  42  14  43  13  44  13
M  ISO  3  45  13  46  13  47  13
M  END
>  <minimizedAffinity>  (1) 
-5.60674572

>  <minimizedRMSD>  (1) 
1.91714525

$$$$
