
     RDKit          3D

 31 33  0  0  0  0  0  0  0  0999 V2000
   44.2694   35.7300   44.2660 C   0  0  0  0  0  0  0  0  0  0  0  0
   44.4224   34.9133   43.1276 C   0  0  0  0  0  0  0  0  0  0  0  0
   45.0600   33.6870   43.2703 C   0  0  0  0  0  0  0  0  0  0  0  0
   45.5069   33.3409   44.5230 N   0  0  0  0  0  0  0  0  0  0  0  0
   45.3392   34.1491   45.5759 C   0  0  0  0  0  0  0  0  0  0  0  0
   44.7308   35.3349   45.4748 N   0  0  0  0  0  0  0  0  0  0  0  0
   43.8092   35.4438   41.5333 S   0  0  0  0  0  0  0  0  0  0  0  0
   45.1700   33.0710   42.3868 H   0  0  0  0  0  0  0  0  0  0  0  0
   45.7270   33.7928   46.5372 H   0  0  0  0  0  0  0  0  0  0  0  0
   42.3991   35.4812   41.4841 H   0  0  0  0  0  0  0  0  0  0  0  0
   43.5702   37.0390   44.0291 C   0  0  0  0  0  0  0  0  0  0  0  0
   42.1283   36.8547   43.8576 C   0  0  0  0  0  0  0  0  0  0  0  0
   41.4242   37.1709   42.7855 C   0  0  0  0  0  0  0  0  0  0  0  0
   42.0459   37.7665   41.5963 C   0  0  0  0  0  0  0  0  0  0  0  0
   43.2169   38.0963   41.2975 O   0  0  0  0  0  0  0  0  0  0  0  0
   41.4375   38.1372   40.4230 O   0  0  0  0  0  0  0  0  0  0  0  0
   40.0321   36.9479   42.7810 N   0  0  0  0  0  0  0  0  0  0  0  0
   38.8978   36.4033   42.1095 C   0  0  0  0  0  0  0  0  0  0  0  0
   38.6269   36.0942   40.8962 O   0  0  0  0  0  0  0  0  0  0  0  0
   38.1128   36.3238   43.3914 C   0  0  1  0  0  0  0  0  0  0  0  0
   37.0833   36.6946   43.3413 H   0  0  0  0  0  0  0  0  0  0  0  0
   39.1021   37.3789   43.8275 C   0  0  1  0  0  0  0  0  0  0  0  0
   39.8565   36.9579   45.4126 S   0  0  0  0  0  0  0  0  0  0  0  0
   41.4551   36.2281   45.0360 C   0  0  1  0  0  0  0  0  0  0  0  0
   41.3654   35.1343   44.7852 H   0  0  0  0  0  0  0  0  0  0  0  0
   43.6825   37.5657   45.0298 H   0  0  0  0  0  0  0  0  0  0  0  0
   44.1055   37.6279   43.3051 H   0  0  0  0  0  0  0  0  0  0  0  0
   41.6612   37.7587   39.5303 H   0  0  0  0  0  0  0  0  0  0  0  0
   38.2374   35.3379   43.8291 H   0  0  0  0  0  0  0  0  0  0  0  0
   38.7519   38.4158   43.7579 H   0  0  0  0  0  0  0  0  0  0  0  0
   42.0793   36.3144   45.9478 H   0  0  0  0  0  0  0  0  0  0  0  0
  1  6  2  0
  2  3  2  0
  2  1  1  0
  3  4  1  0
  4  5  2  0
  6  5  1  0
  7  2  1  0
  3  8  1  0
  5  9  1  0
  7 10  1  0
 11 12  1  0
 12 13  2  0
 13 14  1  0
 14 15  2  0
 14 16  1  0
 13 17  1  0
 17 18  1  0
 18 19  2  0
 18 20  1  0
 20 21  1  6
 20 22  1  0
 22 23  1  0
 23 24  1  0
 24 25  1  6
 24 12  1  0
 22 17  1  0
 11 26  1  0
 11 27  1  0
 16 28  1  0
 20 29  1  0
 22 30  1  1
 24 31  1  0
  1 11  1  0
M  ISO  5   8  14   9  14  10  11  21  15  25  15
M  END
>  <DihAtoms>  (1) 
5,0,10,11

>  <DihDeg>  (1) 
-0.00761103932899591

$$$$
