
     RDKit          3D

 31 33  0  0  0  0  0  0  0  0999 V2000
   44.2694   35.7300   44.2660 C   0  0  0  0  0  0  0  0  0  0  0  0
   44.4224   34.9133   43.1276 C   0  0  0  0  0  0  0  0  0  0  0  0
   45.0600   33.6870   43.2703 C   0  0  0  0  0  0  0  0  0  0  0  0
   45.5069   33.3409   44.5230 N   0  0  0  0  0  0  0  0  0  0  0  0
   45.3392   34.1491   45.5759 C   0  0  0  0  0  0  0  0  0  0  0  0
   44.7308   35.3349   45.4748 N   0  0  0  0  0  0  0  0  0  0  0  0
   43.8092   35.4438   41.5333 S   0  0  0  0  0  0  0  0  0  0  0  0
   45.1700   33.0710   42.3868 H   0  0  0  0  0  0  0  0  0  0  0  0
   45.7270   33.7928   46.5372 H   0  0  0  0  0  0  0  0  0  0  0  0
   42.3991   35.4812   41.4841 H   0  0  0  0  0  0  0  0  0  0  0  0
   43.5702   37.0390   44.0291 C   0  0  0  0  0  0  0  0  0  0  0  0
   43.4563   37.8184   45.2628 C   0  0  0  0  0  0  0  0  0  0  0  0
   42.3325   38.2084   45.8374 C   0  0  0  0  0  0  0  0  0  0  0  0
   41.0176   37.8823   45.2717 C   0  0  0  0  0  0  0  0  0  0  0  0
   40.6366   37.2537   44.2574 O   0  0  0  0  0  0  0  0  0  0  0  0
   39.7811   38.2190   45.7637 O   0  0  0  0  0  0  0  0  0  0  0  0
   42.3891   38.9741   47.0199 N   0  0  0  0  0  0  0  0  0  0  0  0
   41.9416   39.1606   48.3612 C   0  0  0  0  0  0  0  0  0  0  0  0
   40.9156   38.7892   49.0325 O   0  0  0  0  0  0  0  0  0  0  0  0
   43.1561   39.9797   48.7070 C   0  0  1  0  0  0  0  0  0  0  0  0
   42.9626   40.9060   49.2587 H   0  0  0  0  0  0  0  0  0  0  0  0
   43.1992   40.1796   47.2102 C   0  0  1  0  0  0  0  0  0  0  0  0
   44.8401   39.8251   46.5464 S   0  0  0  0  0  0  0  0  0  0  0  0
   44.7716   38.1540   45.8888 C   0  0  1  0  0  0  0  0  0  0  0  0
   44.9277   37.3824   46.6937 H   0  0  0  0  0  0  0  0  0  0  0  0
   44.3175   37.6081   43.3896 H   0  0  0  0  0  0  0  0  0  0  0  0
   42.6908   36.8942   43.4265 H   0  0  0  0  0  0  0  0  0  0  0  0
   39.0862   37.5604   46.0348 H   0  0  0  0  0  0  0  0  0  0  0  0
   43.9193   39.3318   49.1275 H   0  0  0  0  0  0  0  0  0  0  0  0
   42.7584   41.1142   46.8431 H   0  0  0  0  0  0  0  0  0  0  0  0
   45.6005   38.0528   45.1601 H   0  0  0  0  0  0  0  0  0  0  0  0
  1  6  2  0
  2  3  2  0
  2  1  1  0
  3  4  1  0
  4  5  2  0
  6  5  1  0
  7  2  1  0
  3  8  1  0
  5  9  1  0
  7 10  1  0
 11 12  1  0
 12 13  2  0
 13 14  1  0
 14 15  2  0
 14 16  1  0
 13 17  1  0
 17 18  1  0
 18 19  2  0
 18 20  1  0
 20 21  1  1
 20 22  1  0
 22 23  1  0
 23 24  1  0
 24 25  1  1
 24 12  1  0
 22 17  1  0
 11 26  1  0
 11 27  1  0
 16 28  1  0
 20 29  1  0
 22 30  1  1
 24 31  1  0
  1 11  1  0
M  ISO  5   8  14   9  14  10  11  21  15  25  15
M  END
>  <DihAtoms>  (1) 
5,0,10,11

>  <DihDeg>  (1) 
-0.00761103932899591

$$$$
