
     RDKit          3D

 31 33  0  0  0  0  0  0  0  0999 V2000
   45.5263   34.7133   44.2392 C   0  0  0  0  0  0  0  0  0  0  0  0
   46.5754   33.9107   43.7489 C   0  0  0  0  0  0  0  0  0  0  0  0
   47.1135   32.9281   44.6005 C   0  0  0  0  0  0  0  0  0  0  0  0
   46.5886   32.8168   45.8369 N   0  0  0  0  0  0  0  0  0  0  0  0
   45.5884   33.5963   46.2768 C   0  0  0  0  0  0  0  0  0  0  0  0
   45.0551   34.5425   45.4859 N   0  0  0  0  0  0  0  0  0  0  0  0
   44.9227   35.9304   43.0618 S   0  0  0  0  0  0  0  0  0  0  0  0
   46.9814   34.0220   42.7440 H   0  0  0  0  0  0  0  0  0  0  0  0
   47.9089   32.2840   44.2977 H   0  0  0  0  0  0  0  0  0  0  0  0
   44.5479   37.0501   43.8298 H   0  0  0  0  0  0  0  0  0  0  0  0
   44.9627   33.5171   47.6471 C   0  0  0  0  0  0  0  0  0  0  0  0
   45.9573   33.7195   48.7290 C   0  0  0  0  0  0  0  0  0  0  0  0
   46.2231   32.8288   49.6511 C   0  0  0  0  0  0  0  0  0  0  0  0
   45.5809   31.5227   49.7382 C   0  0  0  0  0  0  0  0  0  0  0  0
   44.7081   30.8814   49.1048 O   0  0  0  0  0  0  0  0  0  0  0  0
   45.8840   30.6034   50.7150 O   0  0  0  0  0  0  0  0  0  0  0  0
   47.1948   33.1560   50.6362 N   0  0  0  0  0  0  0  0  0  0  0  0
   48.2677   32.6891   51.4448 C   0  0  0  0  0  0  0  0  0  0  0  0
   48.8805   31.6014   51.7151 O   0  0  0  0  0  0  0  0  0  0  0  0
   48.5270   34.0462   51.9827 C   0  0  2  0  0  0  0  0  0  0  0  0
   49.5029   34.4884   51.7401 H   0  0  0  0  0  0  0  0  0  0  0  0
   47.3357   34.5025   51.2135 C   0  0  1  0  0  0  0  0  0  0  0  0
   47.7115   35.5529   49.7694 S   0  0  0  0  0  0  0  0  0  0  0  0
   46.5176   35.0711   48.4949 C   0  0  2  0  0  0  0  0  0  0  0  0
   45.6542   35.7948   48.6099 H   0  0  0  0  0  0  0  0  0  0  0  0
   44.3482   32.6073   47.7426 H   0  0  0  0  0  0  0  0  0  0  0  0
   44.1822   34.3444   47.6939 H   0  0  0  0  0  0  0  0  0  0  0  0
   46.0725   29.6216   50.5661 H   0  0  0  0  0  0  0  0  0  0  0  0
   48.2770   34.0504   53.0815 H   0  0  0  0  0  0  0  0  0  0  0  0
   46.4515   34.7895   51.7776 H   0  0  0  0  0  0  0  0  0  0  0  0
   46.9589   35.1713   47.4728 H   0  0  0  0  0  0  0  0  0  0  0  0
  1  6  2  0
  2  1  1  0
  2  3  2  0
  3  4  1  0
  4  5  2  0
  6  5  1  0
  7  1  1  0
  2  8  1  0
  3  9  1  0
  7 10  1  0
 11 12  1  0
 12 13  2  0
 13 14  1  0
 14 15  2  0
 14 16  1  0
 13 17  1  0
 17 18  1  0
 18 19  2  0
 18 20  1  0
 20 21  1  1
 20 22  1  0
 22 23  1  0
 23 24  1  0
 24 25  1  6
 24 12  1  0
 22 17  1  0
 11 26  1  0
 11 27  1  0
 16 28  1  0
 20 29  1  0
 22 30  1  1
 24 31  1  0
  5 11  1  0
M  ISO  5   8  14   9  14  10  11  21  15  25  15
M  END
>  <DihAtoms>  (1) 
3,4,10,11

>  <DihDeg>  (1) 
-91.79386910926105

$$$$
