
     RDKit          3D

 31 33  0  0  0  0  0  0  0  0999 V2000
   44.2694   35.7300   44.2660 C   0  0  0  0  0  0  0  0  0  0  0  0
   44.4224   34.9133   43.1276 C   0  0  0  0  0  0  0  0  0  0  0  0
   45.0600   33.6870   43.2703 C   0  0  0  0  0  0  0  0  0  0  0  0
   45.5069   33.3409   44.5230 N   0  0  0  0  0  0  0  0  0  0  0  0
   45.3392   34.1491   45.5759 C   0  0  0  0  0  0  0  0  0  0  0  0
   44.7308   35.3349   45.4748 N   0  0  0  0  0  0  0  0  0  0  0  0
   43.8092   35.4438   41.5333 S   0  0  0  0  0  0  0  0  0  0  0  0
   45.1700   33.0710   42.3868 H   0  0  0  0  0  0  0  0  0  0  0  0
   45.7270   33.7928   46.5372 H   0  0  0  0  0  0  0  0  0  0  0  0
   42.3991   35.4812   41.4841 H   0  0  0  0  0  0  0  0  0  0  0  0
   43.5702   37.0390   44.0291 C   0  0  0  0  0  0  0  0  0  0  0  0
   44.0368   38.0726   44.9545 C   0  0  0  0  0  0  0  0  0  0  0  0
   43.2964   38.7228   45.8344 C   0  0  0  0  0  0  0  0  0  0  0  0
   41.8596   38.4611   45.9843 C   0  0  0  0  0  0  0  0  0  0  0  0
   41.0515   37.6861   45.4225 O   0  0  0  0  0  0  0  0  0  0  0  0
   40.9803   39.0569   46.8539 O   0  0  0  0  0  0  0  0  0  0  0  0
   43.8925   39.7095   46.6462 N   0  0  0  0  0  0  0  0  0  0  0  0
   44.0938   40.2368   47.9559 C   0  0  0  0  0  0  0  0  0  0  0  0
   43.4654   40.1579   49.0695 O   0  0  0  0  0  0  0  0  0  0  0  0
   45.3550   40.9419   47.5339 C   0  0  1  0  0  0  0  0  0  0  0  0
   45.4502   41.9822   47.8634 H   0  0  0  0  0  0  0  0  0  0  0  0
   44.7318   40.8089   46.1641 C   0  0  1  0  0  0  0  0  0  0  0  0
   45.8962   40.1053   44.9776 S   0  0  0  0  0  0  0  0  0  0  0  0
   45.5010   38.3564   44.8545 C   0  0  1  0  0  0  0  0  0  0  0  0
   45.9802   37.7615   45.6815 H   0  0  0  0  0  0  0  0  0  0  0  0
   43.9682   37.3532   43.0121 H   0  0  0  0  0  0  0  0  0  0  0  0
   42.5112   36.8868   43.9159 H   0  0  0  0  0  0  0  0  0  0  0  0
   40.4629   38.5701   47.5507 H   0  0  0  0  0  0  0  0  0  0  0  0
   46.2094   40.3034   47.7372 H   0  0  0  0  0  0  0  0  0  0  0  0
   44.1968   41.6934   45.7980 H   0  0  0  0  0  0  0  0  0  0  0  0
   45.9160   37.9921   43.8936 H   0  0  0  0  0  0  0  0  0  0  0  0
  1  6  2  0
  2  3  2  0
  2  1  1  0
  3  4  1  0
  4  5  2  0
  6  5  1  0
  7  2  1  0
  3  8  1  0
  5  9  1  0
  7 10  1  0
 11 12  1  0
 12 13  2  0
 13 14  1  0
 14 15  2  0
 14 16  1  0
 13 17  1  0
 17 18  1  0
 18 19  2  0
 18 20  1  0
 20 21  1  1
 20 22  1  0
 22 23  1  0
 23 24  1  0
 24 25  1  1
 24 12  1  0
 22 17  1  0
 11 26  1  0
 11 27  1  0
 16 28  1  0
 20 29  1  0
 22 30  1  6
 24 31  1  0
  1 11  1  0
M  ISO  5   8  14   9  14  10  11  21  15  25  15
M  END
>  <DihAtoms>  (1) 
5,0,10,11

>  <DihDeg>  (1) 
-0.00761103932899591

$$$$
