
     RDKit          3D

 50 53  0  0  1  0  0  0  0  0999 V2000
   45.6520   32.3880   47.4500 C   0  0  0  0  0  0  0  0  0  0  0  0
   44.9390   30.0230   47.5780 C   0  0  0  0  0  0  0  0  0  0  0  0
   45.2990   30.1170   48.7840 O   0  0  0  0  0  0  0  0  0  0  0  0
   45.0830   31.2030   46.8290 N   0  0  0  0  0  0  0  0  0  0  0  0
   43.9770   24.9210   46.4060 C   0  0  0  0  0  0  0  0  0  0  0  0
   44.6890   25.7110   45.6240 C   0  0  0  0  0  0  0  0  0  0  0  0
   44.8460   27.0820   45.9660 N   0  0  0  0  0  0  0  0  0  0  0  0
   44.8390   28.4610   45.6090 C   0  0  0  0  0  0  0  0  0  0  0  0
   45.1050   29.0600   44.5260 O   0  0  0  0  0  0  0  0  0  0  0  0
   44.4110   28.7890   46.9930 C   0  0  1  0  0  0  0  0  0  0  0  0
   45.1970   27.5410   47.3200 C   0  0  1  0  0  0  0  0  0  0  0  0
   44.4510   26.4500   48.5320 S   0  0  0  0  0  0  0  0  0  0  0  0
   43.2990   25.3670   47.6470 C   0  0  0  0  0  0  0  0  0  0  0  0
   43.8670   23.5210   45.9890 C   0  0  0  0  0  0  0  0  0  0  0  0
   45.3290   25.2210   44.4090 C   0  0  0  0  0  0  0  0  0  0  0  0
   46.4980   24.7840   44.2990 O   0  0  0  0  0  0  0  0  0  0  0  0
   44.8110   25.1250   43.1300 O   0  0  0  0  0  0  0  0  0  0  0  0
   46.6740   32.9590   46.4930 C   0  0  0  0  0  0  0  0  0  0  0  0
   44.5590   35.5430   44.7840 C   0  0  0  0  0  0  0  0  0  0  0  0
   45.1490   35.5200   43.5030 C   0  0  0  0  0  0  0  0  0  0  0  0
   46.2170   34.6380   43.3030 C   0  0  0  0  0  0  0  0  0  0  0  0
   46.6300   33.8500   44.3520 N   0  0  0  0  0  0  0  0  0  0  0  0
   46.0240   33.9200   45.5510 C   0  0  0  0  0  0  0  0  0  0  0  0
   44.9920   34.7530   45.7890 N   0  0  0  0  0  0  0  0  0  0  0  0
   46.8180   34.6110   42.0120 N   0  0  0  0  0  0  0  0  0  0  0  0
   47.9900   35.2390   41.8430 C   0  0  0  0  0  0  0  0  0  0  0  0
   48.5830   35.2190   40.5930 C   0  0  0  0  0  0  0  0  0  0  0  0
   47.9350   34.5530   39.5820 C   0  0  0  0  0  0  0  0  0  0  0  0
   48.4950   34.5420   38.4300 O   0  0  0  0  0  0  0  0  0  0  0  0
   46.7550   33.9140   39.7340 N   0  0  0  0  0  0  0  0  0  0  0  0
   46.2470   33.9830   40.9830 C   0  0  0  0  0  0  0  0  0  0  0  0
   45.1470   33.4220   41.2370 O   0  0  0  0  0  0  0  0  0  0  0  0
   44.8611   33.1285   47.6400 H   0  0  0  0  0  0  0  0  0  0  0  0
   46.1226   32.1327   48.4109 H   0  0  0  0  0  0  0  0  0  0  0  0
   44.7863   31.2284   45.8430 H   0  0  0  0  0  0  0  0  0  0  0  0
   43.3638   28.9718   47.2759 H   0  0  0  0  0  0  0  0  0  0  0  0
   46.2183   27.6228   47.7202 H   0  0  0  0  0  0  0  0  0  0  0  0
   42.3808   25.9186   47.3967 H   0  0  0  0  0  0  0  0  0  0  0  0
   43.0198   24.5041   48.2695 H   0  0  0  0  0  0  0  0  0  0  0  0
   43.8163   22.8763   46.8788 H   0  0  0  0  0  0  0  0  0  0  0  0
   42.9556   23.3881   45.3875 H   0  0  0  0  0  0  0  0  0  0  0  0
   44.7464   23.2474   45.3875 H   0  0  0  0  0  0  0  0  0  0  0  0
   45.3700   24.7680   42.3950 H   0  0  0  0  0  0  0  0  0  0  0  0
   47.4535   33.4832   47.0653 H   0  0  0  0  0  0  0  0  0  0  0  0
   47.1196   32.1369   45.9137 H   0  0  0  0  0  0  0  0  0  0  0  0
   43.7182   36.2274   44.9700 H   0  0  0  0  0  0  0  0  0  0  0  0
   44.7842   36.1694   42.6935 H   0  0  0  0  0  0  0  0  0  0  0  0
   48.4718   35.7609   42.6829 H   0  0  0  0  0  0  0  0  0  0  0  0
   49.5450   35.7217   40.4144 H   0  0  0  0  0  0  0  0  0  0  0  0
   46.2838   33.4174   38.9644 H   0  0  0  0  0  0  0  0  0  0  0  0
  2  3  2  0
  4  1  1  0
  4  2  1  0
  5 13  1  0
  6  7  1  0
  6  5  2  0
  7 11  1  0
  8  7  1  0
  8 10  1  0
  9  8  2  0
 10 11  1  0
 10  2  1  0
 11 12  1  0
 13 12  1  0
 14  5  1  0
 15  6  1  0
 16 15  2  0
 17 15  1  0
 18  1  1  0
 19 24  2  0
 20 19  1  0
 21 20  2  0
 21 22  1  0
 22 23  2  0
 23 24  1  0
 23 18  1  0
 25 21  1  0
 26 25  1  0
 27 26  2  0
 28 30  1  0
 28 27  1  0
 29 28  2  0
 30 31  1  0
 31 32  2  0
 31 25  1  0
  1 33  1  0
  1 34  1  0
  4 35  1  0
 10 36  1  6
 11 37  1  6
 13 38  1  0
 13 39  1  0
 14 40  1  0
 14 41  1  0
 14 42  1  0
 17 43  1  0
 18 44  1  0
 18 45  1  0
 19 46  1  0
 20 47  1  0
 26 48  1  0
 27 49  1  0
 30 50  1  0
M  ISO  8  33   8  34   8  36  13  37  13  38  13  39  13  40   8  41   8
M  ISO  8  42   8  43   3  44   8  45   8  46  14  47  14  48  14  49  14
M  ISO  1  50   9
M  END
>  <minimizedAffinity>  (1) 
-6.41757298

>  <minimizedRMSD>  (1) 
2.40167546

$$$$
