
     RDKit          3D

 31 33  0  0  0  0  0  0  0  0999 V2000
   45.5263   34.7133   44.2392 C   0  0  0  0  0  0  0  0  0  0  0  0
   46.5754   33.9107   43.7489 C   0  0  0  0  0  0  0  0  0  0  0  0
   47.1135   32.9281   44.6005 C   0  0  0  0  0  0  0  0  0  0  0  0
   46.5886   32.8168   45.8369 N   0  0  0  0  0  0  0  0  0  0  0  0
   45.5884   33.5963   46.2768 C   0  0  0  0  0  0  0  0  0  0  0  0
   45.0551   34.5425   45.4859 N   0  0  0  0  0  0  0  0  0  0  0  0
   44.9227   35.9304   43.0618 S   0  0  0  0  0  0  0  0  0  0  0  0
   46.9814   34.0220   42.7440 H   0  0  0  0  0  0  0  0  0  0  0  0
   47.9089   32.2840   44.2977 H   0  0  0  0  0  0  0  0  0  0  0  0
   44.5479   37.0501   43.8298 H   0  0  0  0  0  0  0  0  0  0  0  0
   44.9627   33.5171   47.6471 C   0  0  0  0  0  0  0  0  0  0  0  0
   43.5479   33.9631   47.6428 C   0  0  0  0  0  0  0  0  0  0  0  0
   43.0988   34.9706   48.3483 C   0  0  0  0  0  0  0  0  0  0  0  0
   43.9255   35.7875   49.2287 C   0  0  0  0  0  0  0  0  0  0  0  0
   45.1282   35.8328   49.5828 O   0  0  0  0  0  0  0  0  0  0  0  0
   43.4280   36.8446   49.9543 O   0  0  0  0  0  0  0  0  0  0  0  0
   41.7155   35.2864   48.2574 N   0  0  0  0  0  0  0  0  0  0  0  0
   40.7341   36.3150   48.2144 C   0  0  0  0  0  0  0  0  0  0  0  0
   40.6528   37.5866   48.3041 O   0  0  0  0  0  0  0  0  0  0  0  0
   39.6392   35.3386   47.9991 C   0  0  2  0  0  0  0  0  0  0  0  0
   39.1015   35.4122   47.0441 H   0  0  0  0  0  0  0  0  0  0  0  0
   40.6607   34.2653   48.1519 C   0  0  1  0  0  0  0  0  0  0  0  0
   41.0748   33.3760   46.6132 S   0  0  0  0  0  0  0  0  0  0  0  0
   42.8542   33.0491   46.7053 C   0  0  2  0  0  0  0  0  0  0  0  0
   42.9416   32.0125   47.1527 H   0  0  0  0  0  0  0  0  0  0  0  0
   45.6042   34.0076   48.3970 H   0  0  0  0  0  0  0  0  0  0  0  0
   45.0118   32.4242   47.9616 H   0  0  0  0  0  0  0  0  0  0  0  0
   43.8399   37.7654   50.0174 H   0  0  0  0  0  0  0  0  0  0  0  0
   38.9723   35.3415   48.9075 H   0  0  0  0  0  0  0  0  0  0  0  0
   40.6125   33.6475   49.0454 H   0  0  0  0  0  0  0  0  0  0  0  0
   43.3178   33.0602   45.6882 H   0  0  0  0  0  0  0  0  0  0  0  0
  1  6  2  0
  2  1  1  0
  2  3  2  0
  3  4  1  0
  4  5  2  0
  6  5  1  0
  7  1  1  0
  2  8  1  0
  3  9  1  0
  7 10  1  0
 11 12  1  0
 12 13  2  0
 13 14  1  0
 14 15  2  0
 14 16  1  0
 13 17  1  0
 17 18  1  0
 18 19  2  0
 18 20  1  0
 20 21  1  6
 20 22  1  0
 22 23  1  0
 23 24  1  0
 24 25  1  1
 24 12  1  0
 22 17  1  0
 11 26  1  0
 11 27  1  0
 16 28  1  0
 20 29  1  0
 22 30  1  1
 24 31  1  0
  5 11  1  0
M  ISO  5   8  14   9  14  10  11  21  15  25  15
M  END
>  <DihAtoms>  (1) 
3,4,10,11

>  <DihDeg>  (1) 
-91.79386910926105

$$$$
