
     RDKit          3D

 41 44  0  0  0  0  0  0  0  0999 V2000
   45.2686   36.1657   43.1700 C   0  0  0  0  0  0  0  0  0  0  0  0
   45.8686   34.9122   42.9084 C   0  0  0  0  0  0  0  0  0  0  0  0
   45.8297   33.9501   43.8921 C   0  0  0  0  0  0  0  0  0  0  0  0
   45.2246   34.2244   45.0732 N   0  0  0  0  0  0  0  0  0  0  0  0
   44.6484   35.4419   45.3116 C   0  0  0  0  0  0  0  0  0  0  0  0
   44.6836   36.3687   44.3695 N   0  0  0  0  0  0  0  0  0  0  0  0
   46.4460   32.6572   43.6282 C   0  0  0  0  0  0  0  0  0  0  0  0
   45.6673   31.5748   43.2964 C   0  0  0  0  0  0  0  0  0  0  0  0
   46.2828   30.3680   43.0535 C   0  0  0  0  0  0  0  0  0  0  0  0
   47.6553   30.1834   43.1259 C   0  0  0  0  0  0  0  0  0  0  0  0
   48.3753   31.3048   43.4623 C   0  0  0  0  0  0  0  0  0  0  0  0
   47.7637   32.4864   43.6993 N   0  0  0  0  0  0  0  0  0  0  0  0
   46.4930   34.6838   41.6389 C   0  0  0  0  0  0  0  0  0  0  0  0
   47.6631   35.1368   41.4796 O   0  0  0  0  0  0  0  0  0  0  0  0
   45.2790   36.9478   42.4206 H   0  0  0  0  0  0  0  0  0  0  0  0
   44.1785   35.6106   46.2698 H   0  0  0  0  0  0  0  0  0  0  0  0
   44.6118   31.6584   43.2264 H   0  0  0  0  0  0  0  0  0  0  0  0
   45.6691   29.4934   42.7867 H   0  0  0  0  0  0  0  0  0  0  0  0
   48.1566   29.2590   42.9424 H   0  0  0  0  0  0  0  0  0  0  0  0
   49.4480   31.2476   43.5402 H   0  0  0  0  0  0  0  0  0  0  0  0
   48.3985   29.0672   39.3120 C   0  0  0  0  0  0  0  0  0  0  0  0
   47.6863   28.4833   38.6572 H   0  0  0  0  0  0  0  0  0  0  0  0
   47.8043   30.2863   39.8669 C   0  0  0  0  0  0  0  0  0  0  0  0
   47.4510   31.2056   39.0021 C   0  0  0  0  0  0  0  0  0  0  0  0
   47.6425   31.0176   37.5682 C   0  0  0  0  0  0  0  0  0  0  0  0
   48.1347   30.0297   36.9700 O   0  0  0  0  0  0  0  0  0  0  0  0
   47.2851   31.9613   36.6181 O   0  0  0  0  0  0  0  0  0  0  0  0
   46.8637   32.4278   39.4294 N   0  0  0  0  0  0  0  0  0  0  0  0
   46.6775   33.8305   39.2843 C   0  0  0  0  0  0  0  0  0  0  0  0
   47.0370   34.7093   38.4413 O   0  0  0  0  0  0  0  0  0  0  0  0
   45.8797   33.9623   40.5034 C   0  0  1  0  0  0  0  0  0  0  0  0
   45.9623   32.4807   40.5914 C   0  0  2  0  0  0  0  0  0  0  0  0
   46.8580   31.7959   41.9730 S   0  0  0  0  0  0  0  0  0  0  0  0
   47.6708   30.3475   41.3189 C   0  0  2  0  0  0  0  0  0  0  0  0
   48.7189   30.3584   41.7407 H   0  0  0  0  0  0  0  0  0  0  0  0
   48.6925   28.3071   40.0844 H   0  0  0  0  0  0  0  0  0  0  0  0
   49.3798   29.2511   38.7819 H   0  0  0  0  0  0  0  0  0  0  0  0
   47.7742   32.1498   35.7581 H   0  0  0  0  0  0  0  0  0  0  0  0
   44.8264   34.3168   40.3113 H   0  0  0  0  0  0  0  0  0  0  0  0
   44.9838   31.9788   40.4010 H   0  0  0  0  0  0  0  0  0  0  0  0
   47.2086   29.4297   41.7381 H   0  0  0  0  0  0  0  0  0  0  0  0
  1  6  2  0
  2  1  1  0
  2  3  2  0
  3  4  1  0
  4  5  2  0
  6  5  1  0
  7 12  1  0
  7  3  1  0
  8  7  2  0
  9 10  2  0
  9  8  1  0
 10 11  1  0
 11 12  2  0
 13  2  1  0
 14 13  2  0
  1 15  1  0
  5 16  1  0
  8 17  1  0
  9 18  1  0
 10 19  1  0
 11 20  1  0
 21 22  1  0
 21 23  1  0
 23 24  2  0
 24 25  1  0
 25 26  2  0
 25 27  1  0
 24 28  1  0
 28 29  1  0
 29 30  2  0
 29 31  1  0
 31 32  1  0
 32 33  1  0
 33 34  1  0
 34 35  1  1
 34 23  1  0
 32 28  1  0
 21 36  1  0
 21 37  1  0
 27 38  1  0
 31 39  1  6
 32 40  1  6
 34 41  1  0
 13 31  1  0
M  ISO  8  15  14  16  14  17  14  18  14  19  14  20  14  22   8  35  15
M  END
>  <DihAtoms>  (1) 
1,12,30,28

>  <DihDeg>  (1) 
59.99719830353079

$$$$
