
     RDKit          3D

 31 33  0  0  0  0  0  0  0  0999 V2000
   45.5263   34.7133   44.2392 C   0  0  0  0  0  0  0  0  0  0  0  0
   46.5754   33.9107   43.7489 C   0  0  0  0  0  0  0  0  0  0  0  0
   47.1135   32.9281   44.6005 C   0  0  0  0  0  0  0  0  0  0  0  0
   46.5886   32.8168   45.8369 N   0  0  0  0  0  0  0  0  0  0  0  0
   45.5884   33.5963   46.2768 C   0  0  0  0  0  0  0  0  0  0  0  0
   45.0551   34.5425   45.4859 N   0  0  0  0  0  0  0  0  0  0  0  0
   44.9227   35.9304   43.0618 S   0  0  0  0  0  0  0  0  0  0  0  0
   46.9814   34.0220   42.7440 H   0  0  0  0  0  0  0  0  0  0  0  0
   47.9089   32.2840   44.2977 H   0  0  0  0  0  0  0  0  0  0  0  0
   44.5479   37.0501   43.8298 H   0  0  0  0  0  0  0  0  0  0  0  0
   44.9627   33.5171   47.6471 C   0  0  0  0  0  0  0  0  0  0  0  0
   45.7682   32.6954   48.5834 C   0  0  0  0  0  0  0  0  0  0  0  0
   45.3242   31.6125   49.1703 C   0  0  0  0  0  0  0  0  0  0  0  0
   43.9841   31.0696   48.9828 C   0  0  0  0  0  0  0  0  0  0  0  0
   42.9533   31.3652   48.3315 O   0  0  0  0  0  0  0  0  0  0  0  0
   43.5458   29.9258   49.6082 O   0  0  0  0  0  0  0  0  0  0  0  0
   46.2004   30.9234   50.0531 N   0  0  0  0  0  0  0  0  0  0  0  0
   46.6510   29.6622   50.5316 C   0  0  0  0  0  0  0  0  0  0  0  0
   46.3898   28.4194   50.3939 O   0  0  0  0  0  0  0  0  0  0  0  0
   47.6884   30.2927   51.3829 C   0  0  2  0  0  0  0  0  0  0  0  0
   48.7322   30.0597   51.1322 H   0  0  0  0  0  0  0  0  0  0  0  0
   47.1383   31.6097   50.9562 C   0  0  1  0  0  0  0  0  0  0  0  0
   48.2101   32.5581   49.8240 S   0  0  0  0  0  0  0  0  0  0  0  0
   47.0866   33.3678   48.6563 C   0  0  2  0  0  0  0  0  0  0  0  0
   46.8936   34.3939   49.0949 H   0  0  0  0  0  0  0  0  0  0  0  0
   43.9000   33.2345   47.5742 H   0  0  0  0  0  0  0  0  0  0  0  0
   44.9048   34.5848   48.0377 H   0  0  0  0  0  0  0  0  0  0  0  0
   43.0625   29.1567   49.1649 H   0  0  0  0  0  0  0  0  0  0  0  0
   47.4212   30.1170   52.4634 H   0  0  0  0  0  0  0  0  0  0  0  0
   46.6134   32.2018   51.7019 H   0  0  0  0  0  0  0  0  0  0  0  0
   47.5607   33.4722   47.6494 H   0  0  0  0  0  0  0  0  0  0  0  0
  1  6  2  0
  2  1  1  0
  2  3  2  0
  3  4  1  0
  4  5  2  0
  6  5  1  0
  7  1  1  0
  2  8  1  0
  3  9  1  0
  7 10  1  0
 11 12  1  0
 12 13  2  0
 13 14  1  0
 14 15  2  0
 14 16  1  0
 13 17  1  0
 17 18  1  0
 18 19  2  0
 18 20  1  0
 20 21  1  6
 20 22  1  0
 22 23  1  0
 23 24  1  0
 24 25  1  1
 24 12  1  0
 22 17  1  0
 11 26  1  0
 11 27  1  0
 16 28  1  0
 20 29  1  0
 22 30  1  1
 24 31  1  0
  5 11  1  0
M  ISO  5   8  14   9  14  10  11  21  15  25  15
M  END
>  <DihAtoms>  (1) 
3,4,10,11

>  <DihDeg>  (1) 
-91.79386910926105

$$$$
