
     RDKit          3D

 34 36  0  0  0  0  0  0  0  0999 V2000
   44.5385   36.0457   44.5663 C   0  0  0  0  0  0  0  0  0  0  0  0
   45.2559   36.0070   43.3605 C   0  0  0  0  0  0  0  0  0  0  0  0
   46.1366   34.9535   43.1527 C   0  0  0  0  0  0  0  0  0  0  0  0
   46.2764   34.0102   44.1011 N   0  0  0  0  0  0  0  0  0  0  0  0
   45.5678   34.0659   45.2697 C   0  0  0  0  0  0  0  0  0  0  0  0
   44.7116   35.0838   45.4799 N   0  0  0  0  0  0  0  0  0  0  0  0
   46.3775   34.2014   40.7893 C   0  0  0  0  0  0  0  0  0  0  0  0
   45.2270   33.7164   40.9342 O   0  0  0  0  0  0  0  0  0  0  0  0
   46.8926   34.8572   41.9524 N   0  0  0  0  0  0  0  0  0  0  0  0
   43.8772   36.9041   44.6372 H   0  0  0  0  0  0  0  0  0  0  0  0
   45.1767   36.7422   42.5694 H   0  0  0  0  0  0  0  0  0  0  0  0
   45.6902   33.2885   46.0388 H   0  0  0  0  0  0  0  0  0  0  0  0
   47.8373   35.3079   42.0211 H   0  0  0  0  0  0  0  0  0  0  0  0
   50.4498   29.5370   39.3582 C   0  0  0  0  0  0  0  0  0  0  0  0
   50.9253   29.7258   38.3508 H   0  0  0  0  0  0  0  0  0  0  0  0
   49.4101   30.5860   39.5013 C   0  0  0  0  0  0  0  0  0  0  0  0
   49.8594   31.8289   39.4639 C   0  0  0  0  0  0  0  0  0  0  0  0
   51.2814   32.1287   39.2941 C   0  0  0  0  0  0  0  0  0  0  0  0
   51.7390   33.2979   39.2559 O   0  0  0  0  0  0  0  0  0  0  0  0
   52.4067   31.3398   39.1439 O   0  0  0  0  0  0  0  0  0  0  0  0
   48.9672   32.9256   39.5858 N   0  0  0  0  0  0  0  0  0  0  0  0
   48.6995   34.2231   40.0667 C   0  0  0  0  0  0  0  0  0  0  0  0
   49.3590   35.1398   40.6593 O   0  0  0  0  0  0  0  0  0  0  0  0
   47.2772   34.2097   39.6371 C   0  0  1  0  0  0  0  0  0  0  0  0
   47.6318   32.9097   39.0106 C   0  0  2  0  0  0  0  0  0  0  0  0
   46.8038   31.4569   39.7037 S   0  0  0  0  0  0  0  0  0  0  0  0
   48.0100   30.1317   39.6716 C   0  0  2  0  0  0  0  0  0  0  0  0
   47.9425   29.4647   40.5683 H   0  0  0  0  0  0  0  0  0  0  0  0
   50.0030   28.5387   39.2694 H   0  0  0  0  0  0  0  0  0  0  0  0
   51.2311   29.5937   40.1455 H   0  0  0  0  0  0  0  0  0  0  0  0
   53.0954   31.3498   39.8798 H   0  0  0  0  0  0  0  0  0  0  0  0
   47.0173   35.0143   38.9158 H   0  0  0  0  0  0  0  0  0  0  0  0
   47.6637   32.9421   37.9102 H   0  0  0  0  0  0  0  0  0  0  0  0
   47.7912   29.5164   38.7502 H   0  0  0  0  0  0  0  0  0  0  0  0
  1  6  2  0
  2  1  1  0
  3  2  2  0
  3  4  1  0
  4  5  2  0
  5  6  1  0
  7  8  2  0
  7  9  1  0
  9  3  1  0
  1 10  1  0
  2 11  1  0
  5 12  1  0
  9 13  1  0
 14 15  1  0
 14 16  1  0
 16 17  2  0
 17 18  1  0
 18 19  2  0
 18 20  1  0
 17 21  1  0
 21 22  1  0
 22 23  2  0
 22 24  1  0
 24 25  1  0
 25 26  1  0
 26 27  1  0
 27 28  1  1
 27 16  1  0
 25 21  1  0
 14 29  1  0
 14 30  1  0
 20 31  1  0
 24 32  1  6
 25 33  1  6
 27 34  1  0
  7 24  1  0
M  ISO  5  10  14  11  14  12  14  15   8  28  15
M  END
>  <DihAtoms>  (1) 
7,6,23,21

>  <DihDeg>  (1) 
-119.99373654688416

$$$$
