
     RDKit          3D

 31 33  0  0  0  0  0  0  0  0999 V2000
   45.5263   34.7133   44.2392 C   0  0  0  0  0  0  0  0  0  0  0  0
   46.5754   33.9107   43.7489 C   0  0  0  0  0  0  0  0  0  0  0  0
   47.1135   32.9281   44.6005 C   0  0  0  0  0  0  0  0  0  0  0  0
   46.5886   32.8168   45.8369 N   0  0  0  0  0  0  0  0  0  0  0  0
   45.5884   33.5963   46.2768 C   0  0  0  0  0  0  0  0  0  0  0  0
   45.0551   34.5425   45.4859 N   0  0  0  0  0  0  0  0  0  0  0  0
   44.9227   35.9304   43.0618 S   0  0  0  0  0  0  0  0  0  0  0  0
   46.9814   34.0220   42.7440 H   0  0  0  0  0  0  0  0  0  0  0  0
   47.9089   32.2840   44.2977 H   0  0  0  0  0  0  0  0  0  0  0  0
   44.5479   37.0501   43.8298 H   0  0  0  0  0  0  0  0  0  0  0  0
   44.9627   33.5171   47.6471 C   0  0  0  0  0  0  0  0  0  0  0  0
   43.7886   32.6108   47.6746 C   0  0  0  0  0  0  0  0  0  0  0  0
   42.5788   32.9943   47.9966 C   0  0  0  0  0  0  0  0  0  0  0  0
   42.2235   34.3585   48.3690 C   0  0  0  0  0  0  0  0  0  0  0  0
   42.8104   35.4593   48.5029 O   0  0  0  0  0  0  0  0  0  0  0  0
   40.9422   34.7350   48.6973 O   0  0  0  0  0  0  0  0  0  0  0  0
   41.5444   32.0188   47.9904 N   0  0  0  0  0  0  0  0  0  0  0  0
   40.1814   31.7373   47.6974 C   0  0  0  0  0  0  0  0  0  0  0  0
   39.1262   32.3401   47.3038 O   0  0  0  0  0  0  0  0  0  0  0  0
   40.3476   30.3023   48.0315 C   0  0  0  0  0  0  0  0  0  0  0  0
   40.1988   29.5900   47.2086 H   0  0  0  0  0  0  0  0  0  0  0  0
   41.7432   30.6302   48.4361 C   0  0  0  0  0  0  0  0  0  0  0  0
   43.0357   29.9986   47.3134 S   0  0  0  0  0  0  0  0  0  0  0  0
   44.3105   31.2849   47.2683 C   0  0  0  0  0  0  0  0  0  0  0  0
   45.0613   30.9849   48.0612 H   0  0  0  0  0  0  0  0  0  0  0  0
   44.7827   34.5262   48.0519 H   0  0  0  0  0  0  0  0  0  0  0  0
   45.7658   33.1138   48.3458 H   0  0  0  0  0  0  0  0  0  0  0  0
   40.4544   35.5464   48.3433 H   0  0  0  0  0  0  0  0  0  0  0  0
   39.7422   30.0765   48.9547 H   0  0  0  0  0  0  0  0  0  0  0  0
   41.9853   30.5817   49.4950 H   0  0  0  0  0  0  0  0  0  0  0  0
   44.8114   31.3191   46.2696 H   0  0  0  0  0  0  0  0  0  0  0  0
  1  6  2  0
  2  1  1  0
  2  3  2  0
  3  4  1  0
  4  5  2  0
  6  5  1  0
  7  1  1  0
  2  8  1  0
  3  9  1  0
  7 10  1  0
 11 12  1  0
 12 13  2  0
 13 14  1  0
 14 15  2  0
 14 16  1  0
 13 17  1  0
 17 18  1  0
 18 19  2  0
 18 20  1  0
 20 21  1  0
 20 22  1  0
 22 23  1  0
 23 24  1  0
 24 25  1  0
 24 12  1  0
 22 17  1  0
 11 26  1  0
 11 27  1  0
 16 28  1  0
 20 29  1  0
 22 30  1  0
 24 31  1  0
  5 11  1  0
M  ISO  5   8  14   9  14  10  11  21  15  25  15
M  END
>  <DihAtoms>  (1) 
3,4,10,11

>  <DihDeg>  (1) 
-91.79386910926105

$$$$
