
     RDKit          3D

 52 55  0  0  0  0  0  0  0  0999 V2000
   46.1844   32.0897   45.4368 C   0  0  0  0  0  0  0  0  0  0  0  0
   45.7615   32.0303   49.1324 C   0  0  0  0  0  0  0  0  0  0  0  0
   46.0527   32.5011   47.8481 C   0  0  0  0  0  0  0  0  0  0  0  0
   45.8823   31.6181   46.7957 C   0  0  0  0  0  0  0  0  0  0  0  0
   45.4409   30.3366   47.0541 N   0  0  0  0  0  0  0  0  0  0  0  0
   45.1698   29.9185   48.3094 C   0  0  0  0  0  0  0  0  0  0  0  0
   45.3324   30.7665   49.3307 N   0  0  0  0  0  0  0  0  0  0  0  0
   46.5525   33.4031   45.4136 O   0  0  0  0  0  0  0  0  0  0  0  0
   44.6453   35.1827   45.2597 O   0  0  0  0  0  0  0  0  0  0  0  0
   45.4614   34.2404   44.4260 P   0  0  2  0  0  0  0  0  0  0  0  0
   44.5217   33.0631   43.6841 O   0  0  0  0  0  0  0  0  0  0  0  0
   46.3325   35.1151   43.2948 O   0  0  0  0  0  0  0  0  0  0  0  0
   47.1020   34.2420   42.5199 C   0  0  0  0  0  0  0  0  0  0  0  0
   46.9516   34.4580   41.0423 C   0  0  0  0  0  0  0  0  0  0  0  0
   48.1118   33.6731   40.5001 C   0  0  0  0  0  0  0  0  0  0  0  0
   49.1628   33.6725   41.6073 C   0  0  0  0  0  0  0  0  0  0  0  0
   48.6073   34.5433   42.7080 C   0  0  0  0  0  0  0  0  0  0  0  0
   45.4037   31.7479   44.7781 H   0  0  0  0  0  0  0  0  0  0  0  0
   47.1073   31.5160   45.1225 H   0  0  0  0  0  0  0  0  0  0  0  0
   45.9027   32.7432   49.9490 H   0  0  0  0  0  0  0  0  0  0  0  0
   46.3947   33.5046   47.6783 H   0  0  0  0  0  0  0  0  0  0  0  0
   44.8244   28.9123   48.5020 H   0  0  0  0  0  0  0  0  0  0  0  0
   43.7027   33.5060   43.3595 H   0  0  0  0  0  0  0  0  0  0  0  0
   46.9700   33.1954   42.7818 H   0  0  0  0  0  0  0  0  0  0  0  0
   46.9148   35.5092   40.7364 H   0  0  0  0  0  0  0  0  0  0  0  0
   45.9946   33.9198   40.7608 H   0  0  0  0  0  0  0  0  0  0  0  0
   48.4857   34.2022   39.5953 H   0  0  0  0  0  0  0  0  0  0  0  0
   47.8028   32.6268   40.2308 H   0  0  0  0  0  0  0  0  0  0  0  0
   49.3347   32.6266   41.9690 H   0  0  0  0  0  0  0  0  0  0  0  0
   50.0751   34.0971   41.1954 H   0  0  0  0  0  0  0  0  0  0  0  0
   48.8268   34.1312   43.7162 H   0  0  0  0  0  0  0  0  0  0  0  0
   48.8689   36.0024   42.5972 C   0  0  0  0  0  0  0  0  0  0  0  0
   50.2879   36.3780   42.7973 C   0  0  0  0  0  0  0  0  0  0  0  0
   50.4505   37.0246   43.9537 C   0  0  0  0  0  0  0  0  0  0  0  0
   49.3386   37.3184   44.9034 C   0  0  0  0  0  0  0  0  0  0  0  0
   49.4287   37.9268   46.0308 O   0  0  0  0  0  0  0  0  0  0  0  0
   48.0654   37.3667   45.4416 O   0  0  0  0  0  0  0  0  0  0  0  0
   51.7170   37.4950   44.3911 N   0  0  0  0  0  0  0  0  0  0  0  0
   52.7533   37.6776   45.3834 C   0  0  0  0  0  0  0  0  0  0  0  0
   52.6935   37.7608   46.6398 O   0  0  0  0  0  0  0  0  0  0  0  0
   53.8050   37.7157   44.3292 C   0  0  0  0  0  0  0  0  0  0  0  0
   54.1227   36.6782   44.0994 H   0  0  0  0  0  0  0  0  0  0  0  0
   52.6268   38.2063   43.5076 C   0  0  0  0  0  0  0  0  0  0  0  0
   52.6807   37.4436   41.8776 S   0  0  0  0  0  0  0  0  0  0  0  0
   51.4270   36.1597   41.9248 C   0  0  0  0  0  0  0  0  0  0  0  0
   51.9548   35.2018   42.0516 H   0  0  0  0  0  0  0  0  0  0  0  0
   48.1678   36.5186   43.2796 H   0  0  0  0  0  0  0  0  0  0  0  0
   48.5282   36.3778   41.5674 H   0  0  0  0  0  0  0  0  0  0  0  0
   47.2661   37.8484   44.9991 H   0  0  0  0  0  0  0  0  0  0  0  0
   54.6050   38.4510   44.4937 H   0  0  0  0  0  0  0  0  0  0  0  0
   52.5338   39.3003   43.5181 H   0  0  0  0  0  0  0  0  0  0  0  0
   51.0057   36.1399   40.8668 H   0  0  0  0  0  0  0  0  0  0  0  0
  1  4  1  0
  2  7  2  0
  3  2  1  0
  4  5  1  0
  4  3  2  0
  5  6  2  0
  6  7  1  0
  8  1  1  0
 10  9  2  0
 10  8  1  1
 11 10  1  0
 12 10  1  0
 13 17  1  0
 13 12  1  0
 14 13  1  0
 15 14  1  0
 15 16  1  0
 16 17  1  0
  1 18  1  0
  1 19  1  0
  2 20  1  0
  3 21  1  0
  6 22  1  0
 11 23  1  0
 13 24  1  0
 14 25  1  0
 14 26  1  0
 15 27  1  0
 15 28  1  0
 16 29  1  0
 16 30  1  0
 17 31  1  0
 32 33  1  0
 33 34  2  0
 34 35  1  0
 35 36  2  0
 35 37  1  0
 34 38  1  0
 38 39  1  0
 39 40  2  0
 39 41  1  0
 41 42  1  0
 41 43  1  0
 43 44  1  0
 44 45  1  0
 45 46  1  0
 45 33  1  0
 43 38  1  0
 32 47  1  0
 32 48  1  0
 37 49  1  0
 41 50  1  0
 43 51  1  0
 45 52  1  0
 17 32  1  0
M  ISO  8  18   8  19   8  20  14  21  14  22  14  23   3  24  13  25  13
M  ISO  8  26  13  27  13  28  13  29  13  30  13  31  13  42  15  46  15
M  END
>  <DihAtoms>  (1) 
12,16,31,32

>  <DihDeg>  (1) 
178.66251867385952

$$$$
