
     RDKit          3D

 31 33  0  0  0  0  0  0  0  0999 V2000
   44.2694   35.7300   44.2660 C   0  0  0  0  0  0  0  0  0  0  0  0
   44.4224   34.9133   43.1276 C   0  0  0  0  0  0  0  0  0  0  0  0
   45.0600   33.6870   43.2703 C   0  0  0  0  0  0  0  0  0  0  0  0
   45.5069   33.3409   44.5230 N   0  0  0  0  0  0  0  0  0  0  0  0
   45.3392   34.1491   45.5759 C   0  0  0  0  0  0  0  0  0  0  0  0
   44.7308   35.3349   45.4748 N   0  0  0  0  0  0  0  0  0  0  0  0
   43.8092   35.4438   41.5333 S   0  0  0  0  0  0  0  0  0  0  0  0
   45.1700   33.0710   42.3868 H   0  0  0  0  0  0  0  0  0  0  0  0
   45.7270   33.7928   46.5372 H   0  0  0  0  0  0  0  0  0  0  0  0
   42.3991   35.4812   41.4841 H   0  0  0  0  0  0  0  0  0  0  0  0
   43.5702   37.0390   44.0291 C   0  0  0  0  0  0  0  0  0  0  0  0
   44.2632   38.1457   44.6904 C   0  0  0  0  0  0  0  0  0  0  0  0
   43.7607   38.9328   45.6249 C   0  0  0  0  0  0  0  0  0  0  0  0
   42.3893   38.7691   46.1227 C   0  0  0  0  0  0  0  0  0  0  0  0
   41.4538   37.9796   45.8567 O   0  0  0  0  0  0  0  0  0  0  0  0
   41.7478   39.5086   47.0850 O   0  0  0  0  0  0  0  0  0  0  0  0
   44.5525   39.9728   46.1533 N   0  0  0  0  0  0  0  0  0  0  0  0
   45.0612   40.6364   47.3087 C   0  0  0  0  0  0  0  0  0  0  0  0
   44.7013   40.7214   48.5352 O   0  0  0  0  0  0  0  0  0  0  0  0
   46.2115   41.2180   46.5313 C   0  0  1  0  0  0  0  0  0  0  0  0
   46.4074   42.2826   46.6985 H   0  0  0  0  0  0  0  0  0  0  0  0
   45.2892   40.9616   45.3626 C   0  0  1  0  0  0  0  0  0  0  0  0
   46.1331   40.0629   44.0439 S   0  0  0  0  0  0  0  0  0  0  0  0
   45.6732   38.3357   44.2318 C   0  0  1  0  0  0  0  0  0  0  0  0
   46.3120   37.8152   44.9989 H   0  0  0  0  0  0  0  0  0  0  0  0
   43.7343   37.2112   42.9179 H   0  0  0  0  0  0  0  0  0  0  0  0
   42.5096   36.9328   44.1748 H   0  0  0  0  0  0  0  0  0  0  0  0
   41.3899   39.1348   47.9348 H   0  0  0  0  0  0  0  0  0  0  0  0
   47.0723   40.5616   46.6173 H   0  0  0  0  0  0  0  0  0  0  0  0
   44.7089   41.8256   45.0173 H   0  0  0  0  0  0  0  0  0  0  0  0
   45.8482   37.8404   43.2559 H   0  0  0  0  0  0  0  0  0  0  0  0
  1  6  2  0
  2  3  2  0
  2  1  1  0
  3  4  1  0
  4  5  2  0
  6  5  1  0
  7  2  1  0
  3  8  1  0
  5  9  1  0
  7 10  1  0
 11 12  1  0
 12 13  2  0
 13 14  1  0
 14 15  2  0
 14 16  1  0
 13 17  1  0
 17 18  1  0
 18 19  2  0
 18 20  1  0
 20 21  1  1
 20 22  1  0
 22 23  1  0
 23 24  1  0
 24 25  1  1
 24 12  1  0
 22 17  1  0
 11 26  1  0
 11 27  1  0
 16 28  1  0
 20 29  1  0
 22 30  1  6
 24 31  1  0
  1 11  1  0
M  ISO  5   8  14   9  14  10  11  21  15  25  15
M  END
>  <DihAtoms>  (1) 
5,0,10,11

>  <DihDeg>  (1) 
-0.00761103932899591

$$$$
