
     RDKit          3D

 31 33  0  0  0  0  0  0  0  0999 V2000
   44.2694   35.7300   44.2660 C   0  0  0  0  0  0  0  0  0  0  0  0
   44.4224   34.9133   43.1276 C   0  0  0  0  0  0  0  0  0  0  0  0
   45.0600   33.6870   43.2703 C   0  0  0  0  0  0  0  0  0  0  0  0
   45.5069   33.3409   44.5230 N   0  0  0  0  0  0  0  0  0  0  0  0
   45.3392   34.1491   45.5759 C   0  0  0  0  0  0  0  0  0  0  0  0
   44.7308   35.3349   45.4748 N   0  0  0  0  0  0  0  0  0  0  0  0
   43.8092   35.4438   41.5333 S   0  0  0  0  0  0  0  0  0  0  0  0
   45.1700   33.0710   42.3868 H   0  0  0  0  0  0  0  0  0  0  0  0
   45.7270   33.7928   46.5372 H   0  0  0  0  0  0  0  0  0  0  0  0
   42.3991   35.4812   41.4841 H   0  0  0  0  0  0  0  0  0  0  0  0
   43.5702   37.0390   44.0291 C   0  0  0  0  0  0  0  0  0  0  0  0
   42.3512   37.1501   44.8317 C   0  0  0  0  0  0  0  0  0  0  0  0
   41.1231   37.2964   44.3676 C   0  0  0  0  0  0  0  0  0  0  0  0
   40.8399   37.3634   42.9287 C   0  0  0  0  0  0  0  0  0  0  0  0
   41.5493   37.3141   41.8973 O   0  0  0  0  0  0  0  0  0  0  0  0
   39.6205   37.5091   42.3152 O   0  0  0  0  0  0  0  0  0  0  0  0
   40.0492   37.4083   45.2743 N   0  0  0  0  0  0  0  0  0  0  0  0
   38.7511   36.9693   45.6699 C   0  0  0  0  0  0  0  0  0  0  0  0
   37.7713   36.3941   45.0783 O   0  0  0  0  0  0  0  0  0  0  0  0
   38.9639   37.4463   47.0816 C   0  0  1  0  0  0  0  0  0  0  0  0
   38.1361   38.0134   47.5209 H   0  0  0  0  0  0  0  0  0  0  0  0
   39.9965   38.3251   46.4155 C   0  0  1  0  0  0  0  0  0  0  0  0
   41.5911   38.2179   47.2549 S   0  0  0  0  0  0  0  0  0  0  0  0
   42.5882   37.0630   46.3051 C   0  0  1  0  0  0  0  0  0  0  0  0
   42.3671   35.9947   46.5831 H   0  0  0  0  0  0  0  0  0  0  0  0
   44.2907   37.7916   44.4828 H   0  0  0  0  0  0  0  0  0  0  0  0
   43.5169   37.2540   42.9763 H   0  0  0  0  0  0  0  0  0  0  0  0
   39.2267   36.8481   41.6843 H   0  0  0  0  0  0  0  0  0  0  0  0
   39.3461   36.6278   47.6842 H   0  0  0  0  0  0  0  0  0  0  0  0
   39.6749   39.3492   46.1912 H   0  0  0  0  0  0  0  0  0  0  0  0
   43.6496   37.2629   46.5535 H   0  0  0  0  0  0  0  0  0  0  0  0
  1  6  2  0
  2  3  2  0
  2  1  1  0
  3  4  1  0
  4  5  2  0
  6  5  1  0
  7  2  1  0
  3  8  1  0
  5  9  1  0
  7 10  1  0
 11 12  1  0
 12 13  2  0
 13 14  1  0
 14 15  2  0
 14 16  1  0
 13 17  1  0
 17 18  1  0
 18 19  2  0
 18 20  1  0
 20 21  1  1
 20 22  1  0
 22 23  1  0
 23 24  1  0
 24 25  1  1
 24 12  1  0
 22 17  1  0
 11 26  1  0
 11 27  1  0
 16 28  1  0
 20 29  1  0
 22 30  1  6
 24 31  1  0
  1 11  1  0
M  ISO  5   8  14   9  14  10  11  21  15  25  15
M  END
>  <DihAtoms>  (1) 
5,0,10,11

>  <DihDeg>  (1) 
-0.00761103932899591

$$$$
