
     RDKit          3D

 52 55  0  0  0  0  0  0  0  0999 V2000
   47.3240   34.0679   42.5135 C   0  0  2  0  0  0  0  0  0  0  0  0
   48.6693   34.6688   42.6569 C   0  0  0  0  0  0  0  0  0  0  0  0
   48.9393   35.7248   41.6392 C   0  0  0  0  0  0  0  0  0  0  0  0
   48.7343   35.2641   40.2206 C   0  0  0  0  0  0  0  0  0  0  0  0
   47.5971   34.3084   40.0428 C   0  0  2  0  0  0  0  0  0  0  0  0
   46.6441   34.3543   41.2204 C   0  0  0  0  0  0  0  0  0  0  0  0
   46.4138   34.3801   43.6258 C   0  0  0  0  0  0  0  0  0  0  0  0
   45.6048   35.4900   43.3964 C   0  0  0  0  0  0  0  0  0  0  0  0
   44.6779   35.8893   44.3626 C   0  0  0  0  0  0  0  0  0  0  0  0
   44.6343   35.1252   45.5163 N   0  0  0  0  0  0  0  0  0  0  0  0
   45.4366   34.0592   45.6992 C   0  0  0  0  0  0  0  0  0  0  0  0
   46.3124   33.7005   44.7572 N   0  0  0  0  0  0  0  0  0  0  0  0
   48.1163   32.9565   39.7607 C   0  0  0  0  0  0  0  0  0  0  0  0
   47.1497   31.9308   39.3395 C   0  0  0  0  0  0  0  0  0  0  0  0
   47.4900   32.9451   42.5800 H   0  0  0  0  0  0  0  0  0  0  0  0
   49.5060   33.9431   42.6483 H   0  0  0  0  0  0  0  0  0  0  0  0
   48.7134   35.1643   43.6551 H   0  0  0  0  0  0  0  0  0  0  0  0
   50.0296   35.9891   41.7379 H   0  0  0  0  0  0  0  0  0  0  0  0
   48.3963   36.6517   41.8866 H   0  0  0  0  0  0  0  0  0  0  0  0
   48.6041   36.1981   39.6013 H   0  0  0  0  0  0  0  0  0  0  0  0
   49.6899   34.8230   39.8376 H   0  0  0  0  0  0  0  0  0  0  0  0
   47.0199   34.6588   39.1558 H   0  0  0  0  0  0  0  0  0  0  0  0
   46.0674   35.2507   41.1073 H   0  0  0  0  0  0  0  0  0  0  0  0
   45.9097   33.5017   41.0742 H   0  0  0  0  0  0  0  0  0  0  0  0
   45.4744   36.2192   42.6104 H   0  0  0  0  0  0  0  0  0  0  0  0
   43.9741   36.6890   44.3937 H   0  0  0  0  0  0  0  0  0  0  0  0
   45.3645   33.4933   46.6214 H   0  0  0  0  0  0  0  0  0  0  0  0
   48.6660   32.5734   40.6446 H   0  0  0  0  0  0  0  0  0  0  0  0
   48.9051   33.0568   38.9685 H   0  0  0  0  0  0  0  0  0  0  0  0
   47.6860   30.9719   39.1921 H   0  0  0  0  0  0  0  0  0  0  0  0
   46.4098   31.7549   40.1457 H   0  0  0  0  0  0  0  0  0  0  0  0
   47.1365   37.7486   37.4038 C   0  0  0  0  0  0  0  0  0  0  0  0
   47.2049   37.9405   36.3109 H   0  0  0  0  0  0  0  0  0  0  0  0
   46.8799   36.3313   37.7394 C   0  0  0  0  0  0  0  0  0  0  0  0
   47.1692   35.3778   36.8807 C   0  0  0  0  0  0  0  0  0  0  0  0
   47.7467   35.7394   35.5941 C   0  0  0  0  0  0  0  0  0  0  0  0
   48.0561   34.9005   34.7104 O   0  0  0  0  0  0  0  0  0  0  0  0
   48.2611   36.3882   34.5097 O   0  0  0  0  0  0  0  0  0  0  0  0
   46.9370   34.0312   37.1683 N   0  0  0  0  0  0  0  0  0  0  0  0
   47.3347   32.6931   37.0549 C   0  0  0  0  0  0  0  0  0  0  0  0
   48.1820   32.0358   36.3651 O   0  0  0  0  0  0  0  0  0  0  0  0
   46.3792   32.1920   38.0870 C   0  0  2  0  0  0  0  0  0  0  0  0
   45.8060   33.5783   37.9343 C   0  0  1  0  0  0  0  0  0  0  0  0
   45.7053   34.5258   39.4554 S   0  0  0  0  0  0  0  0  0  0  0  0
   46.2944   36.1765   39.0909 C   0  0  2  0  0  0  0  0  0  0  0  0
   45.3843   36.8458   39.1105 H   0  0  0  0  0  0  0  0  0  0  0  0
   48.1285   38.0278   37.8544 H   0  0  0  0  0  0  0  0  0  0  0  0
   46.3349   38.4226   37.7675 H   0  0  0  0  0  0  0  0  0  0  0  0
   48.7736   37.2523   34.6338 H   0  0  0  0  0  0  0  0  0  0  0  0
   45.7176   31.4267   37.6931 H   0  0  0  0  0  0  0  0  0  0  0  0
   44.8850   33.6040   37.3061 H   0  0  0  0  0  0  0  0  0  0  0  0
   46.9560   36.5910   39.8785 H   0  0  0  0  0  0  0  0  0  0  0  0
  1  2  1  0
  1  7  1  0
  3  2  1  0
  4  3  1  0
  5  4  1  0
  5  6  1  0
  6  1  1  0
  7 12  1  0
  8  7  2  0
  8  9  1  0
  9 10  2  0
 10 11  1  0
 12 11  2  0
 13  5  1  0
 14 13  1  0
  1 15  1  6
  2 16  1  0
  2 17  1  0
  3 18  1  0
  3 19  1  0
  4 20  1  0
  4 21  1  0
  5 22  1  6
  6 23  1  0
  6 24  1  0
  8 25  1  0
  9 26  1  0
 11 27  1  0
 13 28  1  0
 13 29  1  0
 14 30  1  0
 14 31  1  0
 32 33  1  0
 32 34  1  0
 34 35  2  0
 35 36  1  0
 36 37  2  0
 36 38  1  0
 35 39  1  0
 39 40  1  0
 40 41  2  0
 40 42  1  0
 42 43  1  0
 43 44  1  0
 44 45  1  0
 45 46  1  6
 45 34  1  0
 43 39  1  0
 32 47  1  0
 32 48  1  0
 38 49  1  0
 42 50  1  6
 43 51  1  6
 45 52  1  0
 14 42  1  0
M  ISO  8  15  13  16  13  17  13  18  13  19  13  20  13  21  13  22  13
M  ISO  8  23  13  24  13  25  14  26  14  27  14  28   8  29   8  30   8
M  ISO  3  31   8  33   8  46  15
M  END
>  <DihAtoms>  (1) 
12,13,41,39

>  <DihDeg>  (1) 
-179.9288537722503

$$$$
