
     RDKit          3D

 40 43  0  0  1  0  0  0  0  0999 V2000
   44.6590   32.9000   41.3590 Br  0  0  0  0  0  0  0  0  0  0  0  0
   46.2870   33.8460   41.0500 C   0  0  0  0  0  0  0  0  0  0  0  0
   46.8130   34.6740   42.0270 C   0  0  0  0  0  0  0  0  0  0  0  0
   47.9920   35.3830   41.8220 C   0  0  0  0  0  0  0  0  0  0  0  0
   48.6160   35.2310   40.6140 C   0  0  0  0  0  0  0  0  0  0  0  0
   48.0640   34.4010   39.6650 C   0  0  0  0  0  0  0  0  0  0  0  0
   46.9200   33.7020   39.8450 C   0  0  0  0  0  0  0  0  0  0  0  0
   45.6690   33.9860   45.4290 C   0  0  0  0  0  0  0  0  0  0  0  0
   44.7330   35.0000   45.6930 C   0  0  0  0  0  0  0  0  0  0  0  0
   44.5090   35.9200   44.6720 C   0  0  0  0  0  0  0  0  0  0  0  0
   45.1950   35.7820   43.5110 N   0  0  0  0  0  0  0  0  0  0  0  0
   46.0920   34.7860   43.2980 C   0  0  0  0  0  0  0  0  0  0  0  0
   46.3230   33.8850   44.2720 N   0  0  0  0  0  0  0  0  0  0  0  0
   46.3360   32.8170   38.8010 C   0  0  0  0  0  0  0  0  0  0  0  0
   47.3120   32.1250   37.9620 C   0  0  0  0  0  0  0  0  0  0  0  0
   47.1010   32.0680   36.6730 C   0  0  0  0  0  0  0  0  0  0  0  0
   48.0490   31.4060   35.8480 N   0  0  0  0  0  0  0  0  0  0  0  0
   48.2700   30.4840   34.7570 C   0  0  0  0  0  0  0  0  0  0  0  0
   47.5750   30.0000   33.7990 O   0  0  0  0  0  0  0  0  0  0  0  0
   49.6880   30.2950   35.1880 C   0  0  0  0  0  0  0  0  0  0  0  0
   49.5020   31.5780   35.9670 C   0  0  2  0  0  0  0  0  0  0  0  0
   49.9260   31.5630   37.6930 S   0  0  0  0  0  0  0  0  0  0  0  0
   48.4410   31.5250   38.7040 C   0  0  0  0  0  0  0  0  0  0  0  0
   45.9490   32.6470   35.9770 C   0  0  0  0  0  0  0  0  0  0  0  0
   45.4140   32.2280   34.9240 O   0  0  0  0  0  0  0  0  0  0  0  0
   45.0100   33.6370   35.9590 O   0  0  0  0  0  0  0  0  0  0  0  0
   48.4065   36.0402   42.6007 H   0  0  0  0  0  0  0  0  0  0  0  0
   49.5523   35.7684   40.4027 H   0  0  0  0  0  0  0  0  0  0  0  0
   48.5849   34.2999   38.7014 H   0  0  0  0  0  0  0  0  0  0  0  0
   45.8713   33.2414   46.2130 H   0  0  0  0  0  0  0  0  0  0  0  0
   44.2048   35.0638   46.6558 H   0  0  0  0  0  0  0  0  0  0  0  0
   43.7901   36.7419   44.8049 H   0  0  0  0  0  0  0  0  0  0  0  0
   45.7186   32.0578   39.3035 H   0  0  0  0  0  0  0  0  0  0  0  0
   45.7618   33.4716   38.1289 H   0  0  0  0  0  0  0  0  0  0  0  0
   49.8731   29.4006   35.8010 H   0  0  0  0  0  0  0  0  0  0  0  0
   50.5115   30.1476   34.4737 H   0  0  0  0  0  0  0  0  0  0  0  0
   50.0693   32.4575   35.6284 H   0  0  0  0  0  0  0  0  0  0  0  0
   48.6143   32.0955   39.6284 H   0  0  0  0  0  0  0  0  0  0  0  0
   48.1979   30.4811   38.9515 H   0  0  0  0  0  0  0  0  0  0  0  0
   44.3394   33.6700   35.2315 H   0  0  0  0  0  0  0  0  0  0  0  0
  2  1  1  0
  2  3  2  0
  3 12  1  0
  4  3  1  0
  5  4  2  0
  6  7  2  0
  6  5  1  0
  7  2  1  0
  8  9  2  0
 10  9  1  0
 11 10  2  0
 12 11  1  0
 12 13  2  0
 13  8  1  0
 14  7  1  0
 15 23  1  0
 15 14  1  0
 16 15  2  0
 17 21  1  0
 17 16  1  0
 18 20  1  0
 18 17  1  0
 19 18  2  0
 21 20  1  0
 21 22  1  0
 22 23  1  0
 24 16  1  0
 25 24  2  0
 26 24  1  0
  4 27  1  0
  5 28  1  0
  6 29  1  0
  8 30  1  0
  9 31  1  0
 10 32  1  0
 14 33  1  0
 14 34  1  0
 20 35  1  0
 20 36  1  0
 21 37  1  6
 23 38  1  0
 23 39  1  0
 26 40  1  0
M  ISO  8  27  14  28  14  29  14  30  14  31  14  32  14  33   8  34   8
M  ISO  6  35  13  36  13  37  13  38  13  39  13  40   3
M  END
>  <minimizedAffinity>  (1) 
-6.27528763

>  <minimizedRMSD>  (1) 
0.804062545

$$$$
