
     RDKit          3D

 34 36  0  0  0  0  0  0  0  0999 V2000
   44.5385   36.0457   44.5663 C   0  0  0  0  0  0  0  0  0  0  0  0
   45.2559   36.0070   43.3605 C   0  0  0  0  0  0  0  0  0  0  0  0
   46.1366   34.9535   43.1527 C   0  0  0  0  0  0  0  0  0  0  0  0
   46.2764   34.0102   44.1011 N   0  0  0  0  0  0  0  0  0  0  0  0
   45.5678   34.0659   45.2697 C   0  0  0  0  0  0  0  0  0  0  0  0
   44.7116   35.0838   45.4799 N   0  0  0  0  0  0  0  0  0  0  0  0
   46.3775   34.2014   40.7893 C   0  0  0  0  0  0  0  0  0  0  0  0
   45.2270   33.7164   40.9342 O   0  0  0  0  0  0  0  0  0  0  0  0
   46.8926   34.8572   41.9524 N   0  0  0  0  0  0  0  0  0  0  0  0
   43.8772   36.9041   44.6372 H   0  0  0  0  0  0  0  0  0  0  0  0
   45.1767   36.7422   42.5694 H   0  0  0  0  0  0  0  0  0  0  0  0
   45.6902   33.2885   46.0388 H   0  0  0  0  0  0  0  0  0  0  0  0
   47.8373   35.3079   42.0211 H   0  0  0  0  0  0  0  0  0  0  0  0
   52.7146   33.8963   41.1581 C   0  0  0  0  0  0  0  0  0  0  0  0
   53.1631   33.7814   40.1275 H   0  0  0  0  0  0  0  0  0  0  0  0
   51.2483   33.7853   40.9597 C   0  0  0  0  0  0  0  0  0  0  0  0
   50.7210   34.6944   40.1574 C   0  0  0  0  0  0  0  0  0  0  0  0
   51.5393   35.7272   39.5214 C   0  0  0  0  0  0  0  0  0  0  0  0
   51.0682   36.6048   38.7559 O   0  0  0  0  0  0  0  0  0  0  0  0
   52.8893   36.0231   39.5545 O   0  0  0  0  0  0  0  0  0  0  0  0
   49.3292   34.6969   39.8812 N   0  0  0  0  0  0  0  0  0  0  0  0
   48.1423   35.4177   39.6402 C   0  0  0  0  0  0  0  0  0  0  0  0
   47.8262   36.6419   39.4732 O   0  0  0  0  0  0  0  0  0  0  0  0
   47.2772   34.2097   39.6371 C   0  0  1  0  0  0  0  0  0  0  0  0
   48.5617   33.4698   39.7408 C   0  0  2  0  0  0  0  0  0  0  0  0
   48.8085   32.5447   41.2769 S   0  0  0  0  0  0  0  0  0  0  0  0
   50.5503   32.6904   41.6736 C   0  0  2  0  0  0  0  0  0  0  0  0
   50.7359   32.7866   42.7735 H   0  0  0  0  0  0  0  0  0  0  0  0
   53.1083   33.0442   41.7266 H   0  0  0  0  0  0  0  0  0  0  0  0
   53.0198   34.8772   41.5803 H   0  0  0  0  0  0  0  0  0  0  0  0
   53.1752   36.8900   39.9820 H   0  0  0  0  0  0  0  0  0  0  0  0
   46.7287   34.0513   38.6835 H   0  0  0  0  0  0  0  0  0  0  0  0
   48.8340   32.9238   38.8239 H   0  0  0  0  0  0  0  0  0  0  0  0
   51.0463   31.7440   41.3080 H   0  0  0  0  0  0  0  0  0  0  0  0
  1  6  2  0
  2  1  1  0
  3  2  2  0
  3  4  1  0
  4  5  2  0
  5  6  1  0
  7  8  2  0
  7  9  1  0
  9  3  1  0
  1 10  1  0
  2 11  1  0
  5 12  1  0
  9 13  1  0
 14 15  1  0
 14 16  1  0
 16 17  2  0
 17 18  1  0
 18 19  2  0
 18 20  1  0
 17 21  1  0
 21 22  1  0
 22 23  2  0
 22 24  1  0
 24 25  1  0
 25 26  1  0
 26 27  1  0
 27 28  1  1
 27 16  1  0
 25 21  1  0
 14 29  1  0
 14 30  1  0
 20 31  1  0
 24 32  1  6
 25 33  1  6
 27 34  1  0
  7 24  1  0
M  ISO  5  10  14  11  14  12  14  15   8  28  15
M  END
>  <DihAtoms>  (1) 
7,6,23,21

>  <DihDeg>  (1) 
-119.99373654688416

$$$$
