
     RDKit          3D

 40 43  0  0  0  0  0  0  0  0999 V2000
   45.5906   34.0449   45.3232 C   0  0  0  0  0  0  0  0  0  0  0  0
   44.6952   35.0949   45.5865 C   0  0  0  0  0  0  0  0  0  0  0  0
   44.5342   36.0429   44.5796 C   0  0  0  0  0  0  0  0  0  0  0  0
   45.2374   35.8963   43.4308 N   0  0  0  0  0  0  0  0  0  0  0  0
   46.0938   34.8647   43.2166 C   0  0  0  0  0  0  0  0  0  0  0  0
   46.2646   33.9371   44.1767 N   0  0  0  0  0  0  0  0  0  0  0  0
   44.5874   33.1396   41.1867 Br  0  0  0  0  0  0  0  0  0  0  0  0
   46.2809   33.9849   40.9438 C   0  0  0  0  0  0  0  0  0  0  0  0
   46.8356   34.7448   41.9595 C   0  0  0  0  0  0  0  0  0  0  0  0
   48.0637   35.3799   41.8027 C   0  0  0  0  0  0  0  0  0  0  0  0
   48.7047   35.2255   40.6039 C   0  0  0  0  0  0  0  0  0  0  0  0
   48.1230   34.4630   39.6174 C   0  0  0  0  0  0  0  0  0  0  0  0
   46.9308   33.8366   39.7487 C   0  0  0  0  0  0  0  0  0  0  0  0
   45.6581   33.3519   46.1562 H   0  0  0  0  0  0  0  0  0  0  0  0
   44.1226   35.2529   46.4679 H   0  0  0  0  0  0  0  0  0  0  0  0
   43.8892   36.9245   44.5952 H   0  0  0  0  0  0  0  0  0  0  0  0
   48.4823   35.9732   42.6159 H   0  0  0  0  0  0  0  0  0  0  0  0
   49.6742   35.7212   40.4664 H   0  0  0  0  0  0  0  0  0  0  0  0
   48.7033   34.4105   38.7123 H   0  0  0  0  0  0  0  0  0  0  0  0
   46.3145   33.0252   38.6641 C   0  0  0  0  0  0  0  0  0  0  0  0
   44.9314   32.6192   38.9081 C   0  0  0  0  0  0  0  0  0  0  0  0
   44.6649   31.3433   39.0156 C   0  0  0  0  0  0  0  0  0  0  0  0
   45.6453   30.2599   38.9099 C   0  0  0  0  0  0  0  0  0  0  0  0
   45.4268   29.0301   39.0056 O   0  0  0  0  0  0  0  0  0  0  0  0
   46.9535   29.9256   38.7140 O   0  0  0  0  0  0  0  0  0  0  0  0
   43.3250   30.9382   39.2625 N   0  0  0  0  0  0  0  0  0  0  0  0
   42.2545   30.0275   38.9264 C   0  0  0  0  0  0  0  0  0  0  0  0
   42.1513   28.8954   38.3420 O   0  0  0  0  0  0  0  0  0  0  0  0
   41.2584   30.9512   39.5493 C   0  0  2  0  0  0  0  0  0  0  0  0
   40.6139   30.3562   40.2473 H   0  0  0  0  0  0  0  0  0  0  0  0
   42.4446   31.5740   40.2496 C   0  0  2  0  0  0  0  0  0  0  0  0
   42.6435   33.3358   40.1226 S   0  0  0  0  0  0  0  0  0  0  0  0
   43.9670   33.7372   38.9746 C   0  0  2  0  0  0  0  0  0  0  0  0
   43.5715   33.9978   37.9548 H   0  0  0  0  0  0  0  0  0  0  0  0
   47.0173   32.2183   38.4164 H   0  0  0  0  0  0  0  0  0  0  0  0
   46.2833   33.6555   37.7206 H   0  0  0  0  0  0  0  0  0  0  0  0
   47.3644   29.8784   37.7712 H   0  0  0  0  0  0  0  0  0  0  0  0
   40.7522   31.5460   38.7864 H   0  0  0  0  0  0  0  0  0  0  0  0
   42.5968   31.1309   41.2703 H   0  0  0  0  0  0  0  0  0  0  0  0
   44.4475   34.6764   39.3212 H   0  0  0  0  0  0  0  0  0  0  0  0
  1  2  2  0
  3  2  1  0
  4  3  2  0
  5  4  1  0
  5  6  2  0
  6  1  1  0
  8  7  1  0
  8  9  2  0
  9  5  1  0
 10  9  1  0
 11 10  2  0
 12 13  2  0
 12 11  1  0
 13  8  1  0
  1 14  1  0
  2 15  1  0
  3 16  1  0
 10 17  1  0
 11 18  1  0
 12 19  1  0
 20 21  1  0
 21 22  2  0
 22 23  1  0
 23 24  2  0
 23 25  1  0
 22 26  1  0
 26 27  1  0
 27 28  2  0
 27 29  1  0
 29 30  1  1
 29 31  1  0
 31 32  1  0
 32 33  1  0
 33 34  1  6
 33 21  1  0
 31 26  1  0
 20 35  1  0
 20 36  1  0
 25 37  1  0
 29 38  1  0
 31 39  1  1
 33 40  1  0
 13 20  1  0
M  ISO  8  14  14  15  14  16  14  17  14  18  14  19  14  30  15  34  15
M  END
>  <DihAtoms>  (1) 
11,12,19,20

>  <DihDeg>  (1) 
9.980047662090223

$$$$
