
     RDKit          3D

 31 33  0  0  0  0  0  0  0  0999 V2000
   45.5263   34.7133   44.2392 C   0  0  0  0  0  0  0  0  0  0  0  0
   46.5754   33.9107   43.7489 C   0  0  0  0  0  0  0  0  0  0  0  0
   47.1135   32.9281   44.6005 C   0  0  0  0  0  0  0  0  0  0  0  0
   46.5886   32.8168   45.8369 N   0  0  0  0  0  0  0  0  0  0  0  0
   45.5884   33.5963   46.2768 C   0  0  0  0  0  0  0  0  0  0  0  0
   45.0551   34.5425   45.4859 N   0  0  0  0  0  0  0  0  0  0  0  0
   44.9227   35.9304   43.0618 S   0  0  0  0  0  0  0  0  0  0  0  0
   46.9814   34.0220   42.7440 H   0  0  0  0  0  0  0  0  0  0  0  0
   47.9089   32.2840   44.2977 H   0  0  0  0  0  0  0  0  0  0  0  0
   44.5479   37.0501   43.8298 H   0  0  0  0  0  0  0  0  0  0  0  0
   44.9627   33.5171   47.6471 C   0  0  0  0  0  0  0  0  0  0  0  0
   44.9713   32.1355   48.1872 C   0  0  0  0  0  0  0  0  0  0  0  0
   43.8895   31.4708   48.5070 C   0  0  0  0  0  0  0  0  0  0  0  0
   42.5358   31.9964   48.3751 C   0  0  0  0  0  0  0  0  0  0  0  0
   41.9945   33.0613   47.9917 O   0  0  0  0  0  0  0  0  0  0  0  0
   41.4160   31.2733   48.7136 O   0  0  0  0  0  0  0  0  0  0  0  0
   44.0415   30.1546   49.0229 N   0  0  0  0  0  0  0  0  0  0  0  0
   43.5296   28.8281   49.0581 C   0  0  0  0  0  0  0  0  0  0  0  0
   42.5356   28.1568   48.6188 O   0  0  0  0  0  0  0  0  0  0  0  0
   44.6621   28.3532   49.8889 C   0  0  2  0  0  0  0  0  0  0  0  0
   45.3200   27.6014   49.4321 H   0  0  0  0  0  0  0  0  0  0  0  0
   45.1310   29.7664   49.9331 C   0  0  1  0  0  0  0  0  0  0  0  0
   46.6410   30.1041   48.9657 S   0  0  0  0  0  0  0  0  0  0  0  0
   46.4008   31.7506   48.2497 C   0  0  2  0  0  0  0  0  0  0  0  0
   46.8881   32.4649   48.9809 H   0  0  0  0  0  0  0  0  0  0  0  0
   43.9797   34.0153   47.6557 H   0  0  0  0  0  0  0  0  0  0  0  0
   45.5828   34.1897   48.3244 H   0  0  0  0  0  0  0  0  0  0  0  0
   40.5835   31.1724   48.1494 H   0  0  0  0  0  0  0  0  0  0  0  0
   44.2666   28.0668   50.9045 H   0  0  0  0  0  0  0  0  0  0  0  0
   45.0629   30.2903   50.8834 H   0  0  0  0  0  0  0  0  0  0  0  0
   46.9014   31.8324   47.2536 H   0  0  0  0  0  0  0  0  0  0  0  0
  1  6  2  0
  2  1  1  0
  2  3  2  0
  3  4  1  0
  4  5  2  0
  6  5  1  0
  7  1  1  0
  2  8  1  0
  3  9  1  0
  7 10  1  0
 11 12  1  0
 12 13  2  0
 13 14  1  0
 14 15  2  0
 14 16  1  0
 13 17  1  0
 17 18  1  0
 18 19  2  0
 18 20  1  0
 20 21  1  6
 20 22  1  0
 22 23  1  0
 23 24  1  0
 24 25  1  1
 24 12  1  0
 22 17  1  0
 11 26  1  0
 11 27  1  0
 16 28  1  0
 20 29  1  0
 22 30  1  1
 24 31  1  0
  5 11  1  0
M  ISO  5   8  14   9  14  10  11  21  15  25  15
M  END
>  <DihAtoms>  (1) 
3,4,10,11

>  <DihDeg>  (1) 
-91.79386910926105

$$$$
