
     RDKit          3D

 45 48  0  0  0  0  0  0  0  0999 V2000
   44.8219   35.1606   45.0954 C   0  0  0  0  0  0  0  0  0  0  0  0
   45.7078   34.7837   44.0807 C   0  0  0  0  0  0  0  0  0  0  0  0
   46.5430   33.6846   44.3286 C   0  0  0  0  0  0  0  0  0  0  0  0
   46.4532   33.0526   45.5171 N   0  0  0  0  0  0  0  0  0  0  0  0
   45.5829   33.4544   46.4629 C   0  0  0  0  0  0  0  0  0  0  0  0
   44.7709   34.4966   46.2643 N   0  0  0  0  0  0  0  0  0  0  0  0
   45.7056   35.5700   42.8113 C   0  0  0  0  0  0  0  0  0  0  0  0
   45.2137   36.8051   43.1491 F   0  0  0  0  0  0  0  0  0  0  0  0
   44.8049   34.9202   41.9567 F   0  0  0  0  0  0  0  0  0  0  0  0
   46.9661   35.5999   42.3019 F   0  0  0  0  0  0  0  0  0  0  0  0
   45.4766   32.8174   47.6895 O   0  0  0  0  0  0  0  0  0  0  0  0
   45.2267   31.4358   47.7781 C   0  0  0  0  0  0  0  0  0  0  0  0
   46.5226   30.7647   48.0068 C   0  0  0  0  0  0  0  0  0  0  0  0
   47.0980   29.6533   47.4083 C   0  0  0  0  0  0  0  0  0  0  0  0
   48.3232   29.2394   47.8143 C   0  0  0  0  0  0  0  0  0  0  0  0
   48.9897   29.8681   48.7702 N   0  0  0  0  0  0  0  0  0  0  0  0
   48.4450   30.9437   49.3570 C   0  0  0  0  0  0  0  0  0  0  0  0
   47.2143   31.4090   48.9918 N   0  0  0  0  0  0  0  0  0  0  0  0
   44.1759   36.0125   44.9006 H   0  0  0  0  0  0  0  0  0  0  0  0
   47.2247   33.4061   43.5291 H   0  0  0  0  0  0  0  0  0  0  0  0
   44.7701   31.0472   46.8632 H   0  0  0  0  0  0  0  0  0  0  0  0
   44.5899   31.1979   48.6457 H   0  0  0  0  0  0  0  0  0  0  0  0
   46.4432   29.2472   46.6513 H   0  0  0  0  0  0  0  0  0  0  0  0
   48.6973   28.3716   47.3002 H   0  0  0  0  0  0  0  0  0  0  0  0
   49.2447   31.6241   50.4403 C   0  0  0  0  0  0  0  0  0  0  0  0
   50.3288   30.7213   50.8645 C   0  0  0  0  0  0  0  0  0  0  0  0
   51.5854   31.1130   50.7422 C   0  0  0  0  0  0  0  0  0  0  0  0
   51.9338   32.4102   50.1985 C   0  0  0  0  0  0  0  0  0  0  0  0
   53.1219   32.8581   50.0451 O   0  0  0  0  0  0  0  0  0  0  0  0
   51.8599   33.6638   49.6599 O   0  0  0  0  0  0  0  0  0  0  0  0
   52.6257   30.2408   51.1650 N   0  0  0  0  0  0  0  0  0  0  0  0
   53.8719   29.6228   50.8350 C   0  0  0  0  0  0  0  0  0  0  0  0
   54.8401   29.8747   50.0403 O   0  0  0  0  0  0  0  0  0  0  0  0
   53.5612   28.5401   51.8272 C   0  0  2  0  0  0  0  0  0  0  0  0
   54.4484   28.3844   52.4770 H   0  0  0  0  0  0  0  0  0  0  0  0
   52.6495   29.5626   52.4720 C   0  0  2  0  0  0  0  0  0  0  0  0
   50.9692   29.0171   52.8256 S   0  0  0  0  0  0  0  0  0  0  0  0
   49.9271   29.4008   51.3991 C   0  0  2  0  0  0  0  0  0  0  0  0
   50.0535   28.6490   50.5814 H   0  0  0  0  0  0  0  0  0  0  0  0
   49.5422   32.6251   50.1439 H   0  0  0  0  0  0  0  0  0  0  0  0
   48.5810   31.7548   51.3415 H   0  0  0  0  0  0  0  0  0  0  0  0
   51.1890   34.3442   50.0520 H   0  0  0  0  0  0  0  0  0  0  0  0
   53.0670   27.6636   51.4087 H   0  0  0  0  0  0  0  0  0  0  0  0
   53.1232   30.1667   53.2688 H   0  0  0  0  0  0  0  0  0  0  0  0
   48.8761   29.4245   51.7487 H   0  0  0  0  0  0  0  0  0  0  0  0
  1  6  2  0
  2  3  2  0
  2  1  1  0
  3  4  1  0
  4  5  2  0
  5 11  1  0
  6  5  1  0
  7  8  1  0
  7  2  1  0
  9  7  1  0
 10  7  1  0
 11 12  1  0
 12 13  1  0
 13 18  2  0
 14 15  2  0
 14 13  1  0
 15 16  1  0
 16 17  2  0
 18 17  1  0
  1 19  1  0
  3 20  1  0
 12 21  1  0
 12 22  1  0
 14 23  1  0
 15 24  1  0
 25 26  1  0
 26 27  2  0
 27 28  1  0
 28 29  2  0
 28 30  1  0
 27 31  1  0
 31 32  1  0
 32 33  2  0
 32 34  1  0
 34 35  1  1
 34 36  1  0
 36 37  1  0
 37 38  1  0
 38 39  1  6
 38 26  1  0
 36 31  1  0
 25 40  1  0
 25 41  1  0
 30 42  1  0
 34 43  1  0
 36 44  1  1
 38 45  1  0
 17 25  1  0
M  ISO  8  19  14  20  14  21   8  22   8  23  14  24  14  35  15  39  15
M  END
>  <DihAtoms>  (1) 
15,16,24,25

>  <DihDeg>  (1) 
-89.99047214165019

$$$$
