
     RDKit          3D

 42 45  0  0  0  0  0  0  0  0999 V2000
   44.7777   35.5089   45.0226 C   0  0  0  0  0  0  0  0  0  0  0  0
   45.2050   35.9366   43.7668 C   0  0  0  0  0  0  0  0  0  0  0  0
   45.8994   35.0428   42.9681 C   0  0  0  0  0  0  0  0  0  0  0  0
   46.1289   33.7980   43.4463 N   0  0  0  0  0  0  0  0  0  0  0  0
   45.6996   33.4107   44.6747 C   0  0  0  0  0  0  0  0  0  0  0  0
   45.0179   34.2778   45.4669 N   0  0  0  0  0  0  0  0  0  0  0  0
   44.8851   37.2741   43.4111 N   0  0  0  0  0  0  0  0  0  0  0  0
   45.9560   32.0346   45.1975 C   0  0  0  0  0  0  0  0  0  0  0  0
   46.1089   32.0651   46.6914 C   0  0  0  0  0  0  0  0  0  0  0  0
   47.3115   32.2374   47.3480 C   0  0  0  0  0  0  0  0  0  0  0  0
   47.0741   32.2125   48.7139 C   0  0  0  0  0  0  0  0  0  0  0  0
   45.6965   32.0204   48.8182 C   0  0  0  0  0  0  0  0  0  0  0  0
   45.2182   31.9461   47.6214 O   0  0  0  0  0  0  0  0  0  0  0  0
   44.2301   36.1703   45.6863 H   0  0  0  0  0  0  0  0  0  0  0  0
   46.2179   35.3829   42.0154 H   0  0  0  0  0  0  0  0  0  0  0  0
   43.9247   37.2214   42.9584 H   0  0  0  0  0  0  0  0  0  0  0  0
   45.3826   38.1845   43.5122 H   0  0  0  0  0  0  0  0  0  0  0  0
   46.8691   31.5825   44.7731 H   0  0  0  0  0  0  0  0  0  0  0  0
   45.0512   31.4358   44.9908 H   0  0  0  0  0  0  0  0  0  0  0  0
   48.3041   32.3739   46.9505 H   0  0  0  0  0  0  0  0  0  0  0  0
   47.7697   32.3148   49.5164 H   0  0  0  0  0  0  0  0  0  0  0  0
   44.9245   31.9202   50.1070 C   0  0  0  0  0  0  0  0  0  0  0  0
   43.4911   31.7178   49.8855 C   0  0  0  0  0  0  0  0  0  0  0  0
   42.8579   30.6710   50.3296 C   0  0  0  0  0  0  0  0  0  0  0  0
   43.5840   29.6504   51.0778 C   0  0  0  0  0  0  0  0  0  0  0  0
   43.0292   28.5966   51.5447 O   0  0  0  0  0  0  0  0  0  0  0  0
   44.4706   28.8560   51.7355 O   0  0  0  0  0  0  0  0  0  0  0  0
   41.4774   30.4920   50.1068 N   0  0  0  0  0  0  0  0  0  0  0  0
   40.2164   30.0464   50.5786 C   0  0  0  0  0  0  0  0  0  0  0  0
   39.7788   29.3273   51.5210 O   0  0  0  0  0  0  0  0  0  0  0  0
   39.4658   30.7546   49.5165 C   0  0  1  0  0  0  0  0  0  0  0  0
   38.7210   30.1751   48.9620 H   0  0  0  0  0  0  0  0  0  0  0  0
   40.8362   30.8865   48.8665 C   0  0  1  0  0  0  0  0  0  0  0  0
   41.2177   32.6405   48.6237 S   0  0  0  0  0  0  0  0  0  0  0  0
   42.9400   32.8335   49.1265 C   0  0  1  0  0  0  0  0  0  0  0  0
   43.0004   33.7566   49.7243 H   0  0  0  0  0  0  0  0  0  0  0  0
   45.3532   31.1245   50.7365 H   0  0  0  0  0  0  0  0  0  0  0  0
   45.0717   32.8712   50.6924 H   0  0  0  0  0  0  0  0  0  0  0  0
   45.3113   29.2313   52.1979 H   0  0  0  0  0  0  0  0  0  0  0  0
   39.0451   31.6887   49.9392 H   0  0  0  0  0  0  0  0  0  0  0  0
   40.9835   30.2209   48.0152 H   0  0  0  0  0  0  0  0  0  0  0  0
   43.5202   32.9104   48.1596 H   0  0  0  0  0  0  0  0  0  0  0  0
  1  6  2  0
  2  1  1  0
  3  4  1  0
  3  2  2  0
  4  5  2  0
  5  8  1  0
  5  6  1  0
  7  2  1  0
  8  9  1  0
  9 10  2  0
  9 13  1  0
 10 11  1  0
 11 12  2  0
 13 12  1  0
  1 14  1  0
  3 15  1  0
  7 16  1  0
  7 17  1  0
  8 18  1  0
  8 19  1  0
 10 20  1  0
 11 21  1  0
 22 23  1  0
 23 24  2  0
 24 25  1  0
 25 26  2  0
 25 27  1  0
 24 28  1  0
 28 29  1  0
 29 30  2  0
 29 31  1  0
 31 32  1  6
 31 33  1  0
 33 34  1  0
 34 35  1  0
 35 36  1  1
 35 23  1  0
 33 28  1  0
 22 37  1  0
 22 38  1  0
 27 39  1  0
 31 40  1  0
 33 41  1  6
 35 42  1  0
 12 22  1  0
M  ISO  8  14  14  15  14  18   8  19   8  20  14  21  14  32  15  36  15
M  END
>  <DihAtoms>  (1) 
10,11,21,22

>  <DihDeg>  (1) 
-89.97918809279065

$$$$
