
     RDKit          3D

 34 36  0  0  0  0  0  0  0  0999 V2000
   44.5385   36.0457   44.5663 C   0  0  0  0  0  0  0  0  0  0  0  0
   45.2559   36.0070   43.3605 C   0  0  0  0  0  0  0  0  0  0  0  0
   46.1366   34.9535   43.1527 C   0  0  0  0  0  0  0  0  0  0  0  0
   46.2764   34.0102   44.1011 N   0  0  0  0  0  0  0  0  0  0  0  0
   45.5678   34.0659   45.2697 C   0  0  0  0  0  0  0  0  0  0  0  0
   44.7116   35.0838   45.4799 N   0  0  0  0  0  0  0  0  0  0  0  0
   46.3775   34.2014   40.7893 C   0  0  0  0  0  0  0  0  0  0  0  0
   45.2270   33.7164   40.9342 O   0  0  0  0  0  0  0  0  0  0  0  0
   46.8926   34.8572   41.9524 N   0  0  0  0  0  0  0  0  0  0  0  0
   43.8772   36.9041   44.6372 H   0  0  0  0  0  0  0  0  0  0  0  0
   45.1767   36.7422   42.5694 H   0  0  0  0  0  0  0  0  0  0  0  0
   45.6902   33.2885   46.0388 H   0  0  0  0  0  0  0  0  0  0  0  0
   47.8373   35.3079   42.0211 H   0  0  0  0  0  0  0  0  0  0  0  0
   47.7626   39.3499   37.3305 C   0  0  0  0  0  0  0  0  0  0  0  0
   48.5822   39.1162   36.5889 H   0  0  0  0  0  0  0  0  0  0  0  0
   47.6492   38.1390   38.1807 C   0  0  0  0  0  0  0  0  0  0  0  0
   47.3405   37.0276   37.5345 C   0  0  0  0  0  0  0  0  0  0  0  0
   47.1289   37.0123   36.0868 C   0  0  0  0  0  0  0  0  0  0  0  0
   46.8336   35.9738   35.4448 O   0  0  0  0  0  0  0  0  0  0  0  0
   47.1788   37.9890   35.1096 O   0  0  0  0  0  0  0  0  0  0  0  0
   47.2053   35.7985   38.2307 N   0  0  0  0  0  0  0  0  0  0  0  0
   46.5495   34.5613   38.3903 C   0  0  0  0  0  0  0  0  0  0  0  0
   45.6569   33.9042   37.7596 O   0  0  0  0  0  0  0  0  0  0  0  0
   47.2772   34.2097   39.6371 C   0  0  1  0  0  0  0  0  0  0  0  0
   48.0533   35.4458   39.3581 C   0  0  2  0  0  0  0  0  0  0  0  0
   47.8610   36.7787   40.5675 S   0  0  0  0  0  0  0  0  0  0  0  0
   47.8860   38.3082   39.6336 C   0  0  2  0  0  0  0  0  0  0  0  0
   47.1760   39.0732   40.0390 H   0  0  0  0  0  0  0  0  0  0  0  0
   48.1431   40.2065   37.9011 H   0  0  0  0  0  0  0  0  0  0  0  0
   46.8265   39.5783   36.7781 H   0  0  0  0  0  0  0  0  0  0  0  0
   46.3216   38.2353   34.6401 H   0  0  0  0  0  0  0  0  0  0  0  0
   47.8650   33.2692   39.5652 H   0  0  0  0  0  0  0  0  0  0  0  0
   49.0909   35.2557   39.0413 H   0  0  0  0  0  0  0  0  0  0  0  0
   48.9356   38.7177   39.7102 H   0  0  0  0  0  0  0  0  0  0  0  0
  1  6  2  0
  2  1  1  0
  3  2  2  0
  3  4  1  0
  4  5  2  0
  5  6  1  0
  7  8  2  0
  7  9  1  0
  9  3  1  0
  1 10  1  0
  2 11  1  0
  5 12  1  0
  9 13  1  0
 14 15  1  0
 14 16  1  0
 16 17  2  0
 17 18  1  0
 18 19  2  0
 18 20  1  0
 17 21  1  0
 21 22  1  0
 22 23  2  0
 22 24  1  0
 24 25  1  0
 25 26  1  0
 26 27  1  0
 27 28  1  1
 27 16  1  0
 25 21  1  0
 14 29  1  0
 14 30  1  0
 20 31  1  0
 24 32  1  6
 25 33  1  6
 27 34  1  0
  7 24  1  0
M  ISO  5  10  14  11  14  12  14  15   8  28  15
M  END
>  <DihAtoms>  (1) 
7,6,23,21

>  <DihDeg>  (1) 
-119.99373654688416

$$$$
