
     RDKit          3D

 31 33  0  0  0  0  0  0  0  0999 V2000
   45.5263   34.7133   44.2392 C   0  0  0  0  0  0  0  0  0  0  0  0
   46.5754   33.9107   43.7489 C   0  0  0  0  0  0  0  0  0  0  0  0
   47.1135   32.9281   44.6005 C   0  0  0  0  0  0  0  0  0  0  0  0
   46.5886   32.8168   45.8369 N   0  0  0  0  0  0  0  0  0  0  0  0
   45.5884   33.5963   46.2768 C   0  0  0  0  0  0  0  0  0  0  0  0
   45.0551   34.5425   45.4859 N   0  0  0  0  0  0  0  0  0  0  0  0
   44.9227   35.9304   43.0618 S   0  0  0  0  0  0  0  0  0  0  0  0
   46.9814   34.0220   42.7440 H   0  0  0  0  0  0  0  0  0  0  0  0
   47.9089   32.2840   44.2977 H   0  0  0  0  0  0  0  0  0  0  0  0
   44.5479   37.0501   43.8298 H   0  0  0  0  0  0  0  0  0  0  0  0
   44.9627   33.5171   47.6471 C   0  0  0  0  0  0  0  0  0  0  0  0
   43.4834   33.6138   47.5932 C   0  0  0  0  0  0  0  0  0  0  0  0
   42.7922   34.5557   48.1843 C   0  0  0  0  0  0  0  0  0  0  0  0
   43.3808   35.6330   48.9711 C   0  0  0  0  0  0  0  0  0  0  0  0
   44.5297   35.9978   49.3191 O   0  0  0  0  0  0  0  0  0  0  0  0
   42.6304   36.6135   49.5768 O   0  0  0  0  0  0  0  0  0  0  0  0
   41.3763   34.5250   48.0585 N   0  0  0  0  0  0  0  0  0  0  0  0
   40.1827   35.2826   47.9029 C   0  0  0  0  0  0  0  0  0  0  0  0
   39.8033   36.5013   47.8535 O   0  0  0  0  0  0  0  0  0  0  0  0
   39.3531   34.0584   47.7945 C   0  0  2  0  0  0  0  0  0  0  0  0
   38.8386   33.9017   46.8367 H   0  0  0  0  0  0  0  0  0  0  0  0
   40.5934   33.2786   48.0641 C   0  0  1  0  0  0  0  0  0  0  0  0
   41.2449   32.3545   46.6319 S   0  0  0  0  0  0  0  0  0  0  0  0
   43.0483   32.4681   46.7603 C   0  0  2  0  0  0  0  0  0  0  0  0
   43.3643   31.5346   47.3181 H   0  0  0  0  0  0  0  0  0  0  0  0
   45.4513   34.2215   48.3396 H   0  0  0  0  0  0  0  0  0  0  0  0
   45.2582   32.5062   48.0789 H   0  0  0  0  0  0  0  0  0  0  0  0
   42.8133   37.6069   49.5395 H   0  0  0  0  0  0  0  0  0  0  0  0
   38.6805   33.9999   48.6967 H   0  0  0  0  0  0  0  0  0  0  0  0
   40.6677   32.7649   49.0196 H   0  0  0  0  0  0  0  0  0  0  0  0
   43.5231   32.4807   45.7485 H   0  0  0  0  0  0  0  0  0  0  0  0
  1  6  2  0
  2  1  1  0
  2  3  2  0
  3  4  1  0
  4  5  2  0
  6  5  1  0
  7  1  1  0
  2  8  1  0
  3  9  1  0
  7 10  1  0
 11 12  1  0
 12 13  2  0
 13 14  1  0
 14 15  2  0
 14 16  1  0
 13 17  1  0
 17 18  1  0
 18 19  2  0
 18 20  1  0
 20 21  1  6
 20 22  1  0
 22 23  1  0
 23 24  1  0
 24 25  1  1
 24 12  1  0
 22 17  1  0
 11 26  1  0
 11 27  1  0
 16 28  1  0
 20 29  1  0
 22 30  1  1
 24 31  1  0
  5 11  1  0
M  ISO  5   8  14   9  14  10  11  21  15  25  15
M  END
>  <DihAtoms>  (1) 
3,4,10,11

>  <DihDeg>  (1) 
-91.79386910926105

$$$$
