
     RDKit          3D

 40 43  0  0  0  0  0  0  0  0999 V2000
   45.5906   34.0449   45.3232 C   0  0  0  0  0  0  0  0  0  0  0  0
   44.6952   35.0949   45.5865 C   0  0  0  0  0  0  0  0  0  0  0  0
   44.5342   36.0429   44.5796 C   0  0  0  0  0  0  0  0  0  0  0  0
   45.2374   35.8963   43.4308 N   0  0  0  0  0  0  0  0  0  0  0  0
   46.0938   34.8647   43.2166 C   0  0  0  0  0  0  0  0  0  0  0  0
   46.2646   33.9371   44.1767 N   0  0  0  0  0  0  0  0  0  0  0  0
   44.5874   33.1396   41.1867 Br  0  0  0  0  0  0  0  0  0  0  0  0
   46.2809   33.9849   40.9438 C   0  0  0  0  0  0  0  0  0  0  0  0
   46.8356   34.7448   41.9595 C   0  0  0  0  0  0  0  0  0  0  0  0
   48.0637   35.3799   41.8027 C   0  0  0  0  0  0  0  0  0  0  0  0
   48.7047   35.2255   40.6039 C   0  0  0  0  0  0  0  0  0  0  0  0
   48.1230   34.4630   39.6174 C   0  0  0  0  0  0  0  0  0  0  0  0
   46.9308   33.8366   39.7487 C   0  0  0  0  0  0  0  0  0  0  0  0
   45.6581   33.3519   46.1562 H   0  0  0  0  0  0  0  0  0  0  0  0
   44.1226   35.2529   46.4679 H   0  0  0  0  0  0  0  0  0  0  0  0
   43.8892   36.9245   44.5952 H   0  0  0  0  0  0  0  0  0  0  0  0
   48.4823   35.9732   42.6159 H   0  0  0  0  0  0  0  0  0  0  0  0
   49.6742   35.7212   40.4664 H   0  0  0  0  0  0  0  0  0  0  0  0
   48.7033   34.4105   38.7123 H   0  0  0  0  0  0  0  0  0  0  0  0
   46.3145   33.0252   38.6641 C   0  0  0  0  0  0  0  0  0  0  0  0
   47.1601   31.9543   38.1391 C   0  0  0  0  0  0  0  0  0  0  0  0
   47.5330   32.0104   36.8867 C   0  0  0  0  0  0  0  0  0  0  0  0
   47.1723   33.0690   35.9407 C   0  0  0  0  0  0  0  0  0  0  0  0
   47.5088   33.1546   34.7370 O   0  0  0  0  0  0  0  0  0  0  0  0
   46.4972   34.2387   35.7465 O   0  0  0  0  0  0  0  0  0  0  0  0
   48.3632   30.9794   36.3688 N   0  0  0  0  0  0  0  0  0  0  0  0
   48.6223   30.0672   35.2784 C   0  0  0  0  0  0  0  0  0  0  0  0
   48.2856   29.9749   34.0487 O   0  0  0  0  0  0  0  0  0  0  0  0
   49.4761   29.2257   36.1706 C   0  0  2  0  0  0  0  0  0  0  0  0
   50.4491   29.0330   35.6485 H   0  0  0  0  0  0  0  0  0  0  0  0
   49.5346   30.4400   37.0692 C   0  0  2  0  0  0  0  0  0  0  0  0
   49.1090   30.2185   38.7808 S   0  0  0  0  0  0  0  0  0  0  0  0
   47.4743   30.8881   39.1131 C   0  0  2  0  0  0  0  0  0  0  0  0
   46.6857   30.0866   39.1113 H   0  0  0  0  0  0  0  0  0  0  0  0
   45.9050   33.7238   37.9221 H   0  0  0  0  0  0  0  0  0  0  0  0
   45.3957   32.5075   39.0838 H   0  0  0  0  0  0  0  0  0  0  0  0
   45.4839   34.2548   35.5657 H   0  0  0  0  0  0  0  0  0  0  0  0
   48.9213   28.3569   36.5303 H   0  0  0  0  0  0  0  0  0  0  0  0
   50.4485   31.0591   36.8624 H   0  0  0  0  0  0  0  0  0  0  0  0
   47.4655   31.2671   40.1568 H   0  0  0  0  0  0  0  0  0  0  0  0
  1  2  2  0
  3  2  1  0
  4  3  2  0
  5  4  1  0
  5  6  2  0
  6  1  1  0
  8  7  1  0
  8  9  2  0
  9  5  1  0
 10  9  1  0
 11 10  2  0
 12 13  2  0
 12 11  1  0
 13  8  1  0
  1 14  1  0
  2 15  1  0
  3 16  1  0
 10 17  1  0
 11 18  1  0
 12 19  1  0
 20 21  1  0
 21 22  2  0
 22 23  1  0
 23 24  2  0
 23 25  1  0
 22 26  1  0
 26 27  1  0
 27 28  2  0
 27 29  1  0
 29 30  1  6
 29 31  1  0
 31 32  1  0
 32 33  1  0
 33 34  1  1
 33 21  1  0
 31 26  1  0
 20 35  1  0
 20 36  1  0
 25 37  1  0
 29 38  1  0
 31 39  1  1
 33 40  1  0
 13 20  1  0
M  ISO  8  14  14  15  14  16  14  17  14  18  14  19  14  30  15  34  15
M  END
>  <DihAtoms>  (1) 
11,12,19,20

>  <DihDeg>  (1) 
9.980047662090223

$$$$
