
     RDKit          3D

 31 33  0  0  0  0  0  0  0  0999 V2000
   44.2694   35.7300   44.2660 C   0  0  0  0  0  0  0  0  0  0  0  0
   44.4224   34.9133   43.1276 C   0  0  0  0  0  0  0  0  0  0  0  0
   45.0600   33.6870   43.2703 C   0  0  0  0  0  0  0  0  0  0  0  0
   45.5069   33.3409   44.5230 N   0  0  0  0  0  0  0  0  0  0  0  0
   45.3392   34.1491   45.5759 C   0  0  0  0  0  0  0  0  0  0  0  0
   44.7308   35.3349   45.4748 N   0  0  0  0  0  0  0  0  0  0  0  0
   43.8092   35.4438   41.5333 S   0  0  0  0  0  0  0  0  0  0  0  0
   45.1700   33.0710   42.3868 H   0  0  0  0  0  0  0  0  0  0  0  0
   45.7270   33.7928   46.5372 H   0  0  0  0  0  0  0  0  0  0  0  0
   42.3991   35.4812   41.4841 H   0  0  0  0  0  0  0  0  0  0  0  0
   43.5702   37.0390   44.0291 C   0  0  0  0  0  0  0  0  0  0  0  0
   42.8788   37.0531   42.7391 C   0  0  0  0  0  0  0  0  0  0  0  0
   43.1127   37.8834   41.7385 C   0  0  0  0  0  0  0  0  0  0  0  0
   44.1423   38.9267   41.8200 C   0  0  0  0  0  0  0  0  0  0  0  0
   44.9571   39.2802   42.7033 O   0  0  0  0  0  0  0  0  0  0  0  0
   44.4885   39.8463   40.8613 O   0  0  0  0  0  0  0  0  0  0  0  0
   42.3448   37.7814   40.5604 N   0  0  0  0  0  0  0  0  0  0  0  0
   42.3215   37.6941   39.1371 C   0  0  0  0  0  0  0  0  0  0  0  0
   43.1323   38.0124   38.1977 O   0  0  0  0  0  0  0  0  0  0  0  0
   40.9511   37.0716   39.1464 C   0  0  1  0  0  0  0  0  0  0  0  0
   40.2351   37.4894   38.4304 H   0  0  0  0  0  0  0  0  0  0  0  0
   40.8820   37.7284   40.5051 C   0  0  1  0  0  0  0  0  0  0  0  0
   40.3460   36.5608   41.7733 S   0  0  0  0  0  0  0  0  0  0  0  0
   41.8361   35.9910   42.6010 C   0  0  1  0  0  0  0  0  0  0  0  0
   42.3325   35.1533   42.0359 H   0  0  0  0  0  0  0  0  0  0  0  0
   42.7417   37.0229   44.8067 H   0  0  0  0  0  0  0  0  0  0  0  0
   44.2156   37.8629   44.2784 H   0  0  0  0  0  0  0  0  0  0  0  0
   45.3936   39.9196   40.4544 H   0  0  0  0  0  0  0  0  0  0  0  0
   41.0471   35.9900   39.1397 H   0  0  0  0  0  0  0  0  0  0  0  0
   40.3673   38.6961   40.5391 H   0  0  0  0  0  0  0  0  0  0  0  0
   41.5321   35.5956   43.5907 H   0  0  0  0  0  0  0  0  0  0  0  0
  1  6  2  0
  2  3  2  0
  2  1  1  0
  3  4  1  0
  4  5  2  0
  6  5  1  0
  7  2  1  0
  3  8  1  0
  5  9  1  0
  7 10  1  0
 11 12  1  0
 12 13  2  0
 13 14  1  0
 14 15  2  0
 14 16  1  0
 13 17  1  0
 17 18  1  0
 18 19  2  0
 18 20  1  0
 20 21  1  6
 20 22  1  0
 22 23  1  0
 23 24  1  0
 24 25  1  6
 24 12  1  0
 22 17  1  0
 11 26  1  0
 11 27  1  0
 16 28  1  0
 20 29  1  0
 22 30  1  6
 24 31  1  0
  1 11  1  0
M  ISO  5   8  14   9  14  10  11  21  15  25  15
M  END
>  <DihAtoms>  (1) 
5,0,10,11

>  <DihDeg>  (1) 
-0.00761103932899591

$$$$
