
     RDKit          3D

 31 33  0  0  0  0  0  0  0  0999 V2000
   45.5263   34.7133   44.2392 C   0  0  0  0  0  0  0  0  0  0  0  0
   46.5754   33.9107   43.7489 C   0  0  0  0  0  0  0  0  0  0  0  0
   47.1135   32.9281   44.6005 C   0  0  0  0  0  0  0  0  0  0  0  0
   46.5886   32.8168   45.8369 N   0  0  0  0  0  0  0  0  0  0  0  0
   45.5884   33.5963   46.2768 C   0  0  0  0  0  0  0  0  0  0  0  0
   45.0551   34.5425   45.4859 N   0  0  0  0  0  0  0  0  0  0  0  0
   44.9227   35.9304   43.0618 S   0  0  0  0  0  0  0  0  0  0  0  0
   46.9814   34.0220   42.7440 H   0  0  0  0  0  0  0  0  0  0  0  0
   47.9089   32.2840   44.2977 H   0  0  0  0  0  0  0  0  0  0  0  0
   44.5479   37.0501   43.8298 H   0  0  0  0  0  0  0  0  0  0  0  0
   44.9627   33.5171   47.6471 C   0  0  0  0  0  0  0  0  0  0  0  0
   44.6456   32.1215   48.0376 C   0  0  0  0  0  0  0  0  0  0  0  0
   43.4378   31.6982   48.3139 C   0  0  0  0  0  0  0  0  0  0  0  0
   42.2462   32.5375   48.2741 C   0  0  0  0  0  0  0  0  0  0  0  0
   41.9710   33.7349   48.0199 O   0  0  0  0  0  0  0  0  0  0  0  0
   40.9877   32.0646   48.5637 O   0  0  0  0  0  0  0  0  0  0  0  0
   43.2755   30.3349   48.6835 N   0  0  0  0  0  0  0  0  0  0  0  0
   42.4652   29.1696   48.5918 C   0  0  0  0  0  0  0  0  0  0  0  0
   41.3405   28.8019   48.1104 O   0  0  0  0  0  0  0  0  0  0  0  0
   43.4544   28.3548   49.3375 C   0  0  2  0  0  0  0  0  0  0  0  0
   43.9160   27.5242   48.7865 H   0  0  0  0  0  0  0  0  0  0  0  0
   44.2434   29.6053   49.5185 C   0  0  1  0  0  0  0  0  0  0  0  0
   45.7897   29.6830   48.5527 S   0  0  0  0  0  0  0  0  0  0  0  0
   45.9440   31.4079   48.0213 C   0  0  2  0  0  0  0  0  0  0  0  0
   46.5866   31.9041   48.8108 H   0  0  0  0  0  0  0  0  0  0  0  0
   44.1249   34.2278   47.7343 H   0  0  0  0  0  0  0  0  0  0  0  0
   45.7245   33.9477   48.3751 H   0  0  0  0  0  0  0  0  0  0  0  0
   40.1544   32.2237   48.0143 H   0  0  0  0  0  0  0  0  0  0  0  0
   43.0032   28.0601   50.3272 H   0  0  0  0  0  0  0  0  0  0  0  0
   44.3015   30.0238   50.5203 H   0  0  0  0  0  0  0  0  0  0  0  0
   46.4490   31.4781   47.0266 H   0  0  0  0  0  0  0  0  0  0  0  0
  1  6  2  0
  2  1  1  0
  2  3  2  0
  3  4  1  0
  4  5  2  0
  6  5  1  0
  7  1  1  0
  2  8  1  0
  3  9  1  0
  7 10  1  0
 11 12  1  0
 12 13  2  0
 13 14  1  0
 14 15  2  0
 14 16  1  0
 13 17  1  0
 17 18  1  0
 18 19  2  0
 18 20  1  0
 20 21  1  6
 20 22  1  0
 22 23  1  0
 23 24  1  0
 24 25  1  1
 24 12  1  0
 22 17  1  0
 11 26  1  0
 11 27  1  0
 16 28  1  0
 20 29  1  0
 22 30  1  1
 24 31  1  0
  5 11  1  0
M  ISO  5   8  14   9  14  10  11  21  15  25  15
M  END
>  <DihAtoms>  (1) 
3,4,10,11

>  <DihDeg>  (1) 
-91.79386910926105

$$$$
