
     RDKit          3D

 31 33  0  0  0  0  0  0  0  0999 V2000
   45.5263   34.7133   44.2392 C   0  0  0  0  0  0  0  0  0  0  0  0
   46.5754   33.9107   43.7489 C   0  0  0  0  0  0  0  0  0  0  0  0
   47.1135   32.9281   44.6005 C   0  0  0  0  0  0  0  0  0  0  0  0
   46.5886   32.8168   45.8369 N   0  0  0  0  0  0  0  0  0  0  0  0
   45.5884   33.5963   46.2768 C   0  0  0  0  0  0  0  0  0  0  0  0
   45.0551   34.5425   45.4859 N   0  0  0  0  0  0  0  0  0  0  0  0
   44.9227   35.9304   43.0618 S   0  0  0  0  0  0  0  0  0  0  0  0
   46.9814   34.0220   42.7440 H   0  0  0  0  0  0  0  0  0  0  0  0
   47.9089   32.2840   44.2977 H   0  0  0  0  0  0  0  0  0  0  0  0
   44.5479   37.0501   43.8298 H   0  0  0  0  0  0  0  0  0  0  0  0
   44.9627   33.5171   47.6471 C   0  0  0  0  0  0  0  0  0  0  0  0
   45.9778   33.3616   48.7176 C   0  0  0  0  0  0  0  0  0  0  0  0
   46.0268   32.3384   49.5331 C   0  0  0  0  0  0  0  0  0  0  0  0
   45.0947   31.2177   49.4985 C   0  0  0  0  0  0  0  0  0  0  0  0
   44.0948   30.8717   48.8242 O   0  0  0  0  0  0  0  0  0  0  0  0
   45.1731   30.1521   50.3643 O   0  0  0  0  0  0  0  0  0  0  0  0
   47.0489   32.3193   50.5212 N   0  0  0  0  0  0  0  0  0  0  0  0
   47.9821   31.5288   51.2472 C   0  0  0  0  0  0  0  0  0  0  0  0
   48.3212   30.3049   51.3848 O   0  0  0  0  0  0  0  0  0  0  0  0
   48.5545   32.7204   51.9187 C   0  0  2  0  0  0  0  0  0  0  0  0
   49.6069   32.9452   51.6984 H   0  0  0  0  0  0  0  0  0  0  0  0
   47.5039   33.5242   51.2338 C   0  0  1  0  0  0  0  0  0  0  0  0
   48.1156   34.6082   49.8994 S   0  0  0  0  0  0  0  0  0  0  0  0
   46.8409   34.5615   48.6131 C   0  0  2  0  0  0  0  0  0  0  0  0
   46.1727   35.4504   48.8268 H   0  0  0  0  0  0  0  0  0  0  0  0
   44.1510   32.7718   47.6621 H   0  0  0  0  0  0  0  0  0  0  0  0
   44.3994   34.4942   47.8017 H   0  0  0  0  0  0  0  0  0  0  0  0
   45.1246   29.1757   50.1076 H   0  0  0  0  0  0  0  0  0  0  0  0
   48.3133   32.6632   53.0179 H   0  0  0  0  0  0  0  0  0  0  0  0
   46.7127   33.9471   51.8481 H   0  0  0  0  0  0  0  0  0  0  0  0
   47.2926   34.6662   47.5960 H   0  0  0  0  0  0  0  0  0  0  0  0
  1  6  2  0
  2  1  1  0
  2  3  2  0
  3  4  1  0
  4  5  2  0
  6  5  1  0
  7  1  1  0
  2  8  1  0
  3  9  1  0
  7 10  1  0
 11 12  1  0
 12 13  2  0
 13 14  1  0
 14 15  2  0
 14 16  1  0
 13 17  1  0
 17 18  1  0
 18 19  2  0
 18 20  1  0
 20 21  1  1
 20 22  1  0
 22 23  1  0
 23 24  1  0
 24 25  1  1
 24 12  1  0
 22 17  1  0
 11 26  1  0
 11 27  1  0
 16 28  1  0
 20 29  1  0
 22 30  1  1
 24 31  1  0
  5 11  1  0
M  ISO  5   8  14   9  14  10  11  21  15  25  15
M  END
>  <DihAtoms>  (1) 
3,4,10,11

>  <DihDeg>  (1) 
-91.79386910926105

$$$$
