
     RDKit          3D

 40 43  0  0  0  0  0  0  0  0999 V2000
   45.5906   34.0449   45.3232 C   0  0  0  0  0  0  0  0  0  0  0  0
   44.6952   35.0949   45.5865 C   0  0  0  0  0  0  0  0  0  0  0  0
   44.5342   36.0429   44.5796 C   0  0  0  0  0  0  0  0  0  0  0  0
   45.2374   35.8963   43.4308 N   0  0  0  0  0  0  0  0  0  0  0  0
   46.0938   34.8647   43.2166 C   0  0  0  0  0  0  0  0  0  0  0  0
   46.2646   33.9371   44.1767 N   0  0  0  0  0  0  0  0  0  0  0  0
   44.5874   33.1396   41.1867 Br  0  0  0  0  0  0  0  0  0  0  0  0
   46.2809   33.9849   40.9438 C   0  0  0  0  0  0  0  0  0  0  0  0
   46.8356   34.7448   41.9595 C   0  0  0  0  0  0  0  0  0  0  0  0
   48.0637   35.3799   41.8027 C   0  0  0  0  0  0  0  0  0  0  0  0
   48.7047   35.2255   40.6039 C   0  0  0  0  0  0  0  0  0  0  0  0
   48.1230   34.4630   39.6174 C   0  0  0  0  0  0  0  0  0  0  0  0
   46.9308   33.8366   39.7487 C   0  0  0  0  0  0  0  0  0  0  0  0
   45.6581   33.3519   46.1562 H   0  0  0  0  0  0  0  0  0  0  0  0
   44.1226   35.2529   46.4679 H   0  0  0  0  0  0  0  0  0  0  0  0
   43.8892   36.9245   44.5952 H   0  0  0  0  0  0  0  0  0  0  0  0
   48.4823   35.9732   42.6159 H   0  0  0  0  0  0  0  0  0  0  0  0
   49.6742   35.7212   40.4664 H   0  0  0  0  0  0  0  0  0  0  0  0
   48.7033   34.4105   38.7123 H   0  0  0  0  0  0  0  0  0  0  0  0
   46.3145   33.0252   38.6641 C   0  0  0  0  0  0  0  0  0  0  0  0
   46.5535   33.5228   37.3104 C   0  0  0  0  0  0  0  0  0  0  0  0
   45.5284   33.9166   36.5998 C   0  0  0  0  0  0  0  0  0  0  0  0
   44.1326   33.9027   37.0442 C   0  0  0  0  0  0  0  0  0  0  0  0
   43.1276   34.2696   36.3923 O   0  0  0  0  0  0  0  0  0  0  0  0
   43.2640   33.6093   38.0546 O   0  0  0  0  0  0  0  0  0  0  0  0
   45.7507   34.4113   35.2860 N   0  0  0  0  0  0  0  0  0  0  0  0
   45.3302   34.4056   33.9034 C   0  0  0  0  0  0  0  0  0  0  0  0
   44.2773   34.0774   33.2572 O   0  0  0  0  0  0  0  0  0  0  0  0
   46.6558   34.9556   33.4866 C   0  0  2  0  0  0  0  0  0  0  0  0
   46.4774   35.8360   32.8160 H   0  0  0  0  0  0  0  0  0  0  0  0
   46.8162   35.3574   34.9352 C   0  0  2  0  0  0  0  0  0  0  0  0
   48.3045   34.8566   35.7682 S   0  0  0  0  0  0  0  0  0  0  0  0
   47.9688   33.4895   36.8860 C   0  0  2  0  0  0  0  0  0  0  0  0
   48.2351   32.4984   36.4265 H   0  0  0  0  0  0  0  0  0  0  0  0
   45.2643   32.8544   38.9366 H   0  0  0  0  0  0  0  0  0  0  0  0
   46.7728   31.9871   38.6906 H   0  0  0  0  0  0  0  0  0  0  0  0
   42.9289   32.6497   38.2183 H   0  0  0  0  0  0  0  0  0  0  0  0
   47.3024   34.1616   33.1076 H   0  0  0  0  0  0  0  0  0  0  0  0
   46.4864   36.4174   35.1053 H   0  0  0  0  0  0  0  0  0  0  0  0
   48.6607   33.5763   37.7501 H   0  0  0  0  0  0  0  0  0  0  0  0
  1  2  2  0
  3  2  1  0
  4  3  2  0
  5  4  1  0
  5  6  2  0
  6  1  1  0
  8  7  1  0
  8  9  2  0
  9  5  1  0
 10  9  1  0
 11 10  2  0
 12 13  2  0
 12 11  1  0
 13  8  1  0
  1 14  1  0
  2 15  1  0
  3 16  1  0
 10 17  1  0
 11 18  1  0
 12 19  1  0
 20 21  1  0
 21 22  2  0
 22 23  1  0
 23 24  2  0
 23 25  1  0
 22 26  1  0
 26 27  1  0
 27 28  2  0
 27 29  1  0
 29 30  1  6
 29 31  1  0
 31 32  1  0
 32 33  1  0
 33 34  1  6
 33 21  1  0
 31 26  1  0
 20 35  1  0
 20 36  1  0
 25 37  1  0
 29 38  1  0
 31 39  1  6
 33 40  1  0
 13 20  1  0
M  ISO  8  14  14  15  14  16  14  17  14  18  14  19  14  30  15  34  15
M  END
>  <DihAtoms>  (1) 
11,12,19,20

>  <DihDeg>  (1) 
9.980047662090223

$$$$
