
     RDKit          3D

 34 36  0  0  0  0  0  0  0  0999 V2000
   44.5385   36.0457   44.5663 C   0  0  0  0  0  0  0  0  0  0  0  0
   45.2559   36.0070   43.3605 C   0  0  0  0  0  0  0  0  0  0  0  0
   46.1366   34.9535   43.1527 C   0  0  0  0  0  0  0  0  0  0  0  0
   46.2764   34.0102   44.1011 N   0  0  0  0  0  0  0  0  0  0  0  0
   45.5678   34.0659   45.2697 C   0  0  0  0  0  0  0  0  0  0  0  0
   44.7116   35.0838   45.4799 N   0  0  0  0  0  0  0  0  0  0  0  0
   46.3775   34.2014   40.7893 C   0  0  0  0  0  0  0  0  0  0  0  0
   45.2270   33.7164   40.9342 O   0  0  0  0  0  0  0  0  0  0  0  0
   46.8926   34.8572   41.9524 N   0  0  0  0  0  0  0  0  0  0  0  0
   43.8772   36.9041   44.6372 H   0  0  0  0  0  0  0  0  0  0  0  0
   45.1767   36.7422   42.5694 H   0  0  0  0  0  0  0  0  0  0  0  0
   45.6902   33.2885   46.0388 H   0  0  0  0  0  0  0  0  0  0  0  0
   47.8373   35.3079   42.0211 H   0  0  0  0  0  0  0  0  0  0  0  0
   52.0439   31.3291   40.6159 C   0  0  0  0  0  0  0  0  0  0  0  0
   52.4738   31.3709   39.5718 H   0  0  0  0  0  0  0  0  0  0  0  0
   50.6681   31.8713   40.4929 C   0  0  0  0  0  0  0  0  0  0  0  0
   50.5933   33.1135   40.0463 C   0  0  0  0  0  0  0  0  0  0  0  0
   51.7905   33.8820   39.7042 C   0  0  0  0  0  0  0  0  0  0  0  0
   51.7524   35.0634   39.2791 O   0  0  0  0  0  0  0  0  0  0  0  0
   53.1429   33.5966   39.7350 O   0  0  0  0  0  0  0  0  0  0  0  0
   49.3354   33.7487   39.8792 N   0  0  0  0  0  0  0  0  0  0  0  0
   48.5467   34.9144   39.9523 C   0  0  0  0  0  0  0  0  0  0  0  0
   48.7503   36.1505   40.1913 O   0  0  0  0  0  0  0  0  0  0  0  0
   47.2772   34.2097   39.6371 C   0  0  1  0  0  0  0  0  0  0  0  0
   48.1564   33.0314   39.4212 C   0  0  2  0  0  0  0  0  0  0  0  0
   47.9222   31.6594   40.5785 S   0  0  0  0  0  0  0  0  0  0  0  0
   49.5519   30.9777   40.8816 C   0  0  2  0  0  0  0  0  0  0  0  0
   49.6917   30.6488   41.9426 H   0  0  0  0  0  0  0  0  0  0  0  0
   52.0332   30.2610   40.8671 H   0  0  0  0  0  0  0  0  0  0  0  0
   52.6844   31.9283   41.2972 H   0  0  0  0  0  0  0  0  0  0  0  0
   53.7204   34.1030   40.3876 H   0  0  0  0  0  0  0  0  0  0  0  0
   46.7712   34.5824   38.7205 H   0  0  0  0  0  0  0  0  0  0  0  0
   48.2476   32.7340   38.3646 H   0  0  0  0  0  0  0  0  0  0  0  0
   49.6559   30.0756   40.2103 H   0  0  0  0  0  0  0  0  0  0  0  0
  1  6  2  0
  2  1  1  0
  3  2  2  0
  3  4  1  0
  4  5  2  0
  5  6  1  0
  7  8  2  0
  7  9  1  0
  9  3  1  0
  1 10  1  0
  2 11  1  0
  5 12  1  0
  9 13  1  0
 14 15  1  0
 14 16  1  0
 16 17  2  0
 17 18  1  0
 18 19  2  0
 18 20  1  0
 17 21  1  0
 21 22  1  0
 22 23  2  0
 22 24  1  0
 24 25  1  0
 25 26  1  0
 26 27  1  0
 27 28  1  1
 27 16  1  0
 25 21  1  0
 14 29  1  0
 14 30  1  0
 20 31  1  0
 24 32  1  6
 25 33  1  6
 27 34  1  0
  7 24  1  0
M  ISO  5  10  14  11  14  12  14  15   8  28  15
M  END
>  <DihAtoms>  (1) 
7,6,23,21

>  <DihDeg>  (1) 
-119.99373654688416

$$$$
