
     RDKit          3D

 31 33  0  0  0  0  0  0  0  0999 V2000
   44.2694   35.7300   44.2660 C   0  0  0  0  0  0  0  0  0  0  0  0
   44.4224   34.9133   43.1276 C   0  0  0  0  0  0  0  0  0  0  0  0
   45.0600   33.6870   43.2703 C   0  0  0  0  0  0  0  0  0  0  0  0
   45.5069   33.3409   44.5230 N   0  0  0  0  0  0  0  0  0  0  0  0
   45.3392   34.1491   45.5759 C   0  0  0  0  0  0  0  0  0  0  0  0
   44.7308   35.3349   45.4748 N   0  0  0  0  0  0  0  0  0  0  0  0
   43.8092   35.4438   41.5333 S   0  0  0  0  0  0  0  0  0  0  0  0
   45.1700   33.0710   42.3868 H   0  0  0  0  0  0  0  0  0  0  0  0
   45.7270   33.7928   46.5372 H   0  0  0  0  0  0  0  0  0  0  0  0
   42.3991   35.4812   41.4841 H   0  0  0  0  0  0  0  0  0  0  0  0
   43.5702   37.0390   44.0291 C   0  0  0  0  0  0  0  0  0  0  0  0
   42.1988   37.0158   44.5401 C   0  0  0  0  0  0  0  0  0  0  0  0
   41.0989   37.1859   43.8283 C   0  0  0  0  0  0  0  0  0  0  0  0
   41.1404   37.4247   42.3804 C   0  0  0  0  0  0  0  0  0  0  0  0
   42.0635   37.5239   41.5394 O   0  0  0  0  0  0  0  0  0  0  0  0
   40.0823   37.6130   41.5263 O   0  0  0  0  0  0  0  0  0  0  0  0
   39.8454   37.1545   44.4731 N   0  0  0  0  0  0  0  0  0  0  0  0
   38.5178   36.6346   44.5089 C   0  0  0  0  0  0  0  0  0  0  0  0
   37.7274   36.1116   43.6470 O   0  0  0  0  0  0  0  0  0  0  0  0
   38.3842   36.9367   45.9774 C   0  0  1  0  0  0  0  0  0  0  0  0
   37.4496   37.4219   46.2790 H   0  0  0  0  0  0  0  0  0  0  0  0
   39.4897   37.9195   45.6705 C   0  0  1  0  0  0  0  0  0  0  0  0
   40.8604   37.7513   46.8331 S   0  0  0  0  0  0  0  0  0  0  0  0
   42.1057   36.7516   46.0084 C   0  0  1  0  0  0  0  0  0  0  0  0
   41.8869   35.6513   46.1031 H   0  0  0  0  0  0  0  0  0  0  0  0
   44.1292   37.7482   44.7190 H   0  0  0  0  0  0  0  0  0  0  0  0
   43.7413   37.3825   43.0240 H   0  0  0  0  0  0  0  0  0  0  0  0
   39.8758   37.0257   40.7501 H   0  0  0  0  0  0  0  0  0  0  0  0
   38.6664   36.0599   46.5523 H   0  0  0  0  0  0  0  0  0  0  0  0
   39.1707   38.9546   45.4988 H   0  0  0  0  0  0  0  0  0  0  0  0
   43.0725   36.9474   46.5137 H   0  0  0  0  0  0  0  0  0  0  0  0
  1  6  2  0
  2  3  2  0
  2  1  1  0
  3  4  1  0
  4  5  2  0
  6  5  1  0
  7  2  1  0
  3  8  1  0
  5  9  1  0
  7 10  1  0
 11 12  1  0
 12 13  2  0
 13 14  1  0
 14 15  2  0
 14 16  1  0
 13 17  1  0
 17 18  1  0
 18 19  2  0
 18 20  1  0
 20 21  1  6
 20 22  1  0
 22 23  1  0
 23 24  1  0
 24 25  1  6
 24 12  1  0
 22 17  1  0
 11 26  1  0
 11 27  1  0
 16 28  1  0
 20 29  1  0
 22 30  1  6
 24 31  1  0
  1 11  1  0
M  ISO  5   8  14   9  14  10  11  21  15  25  15
M  END
>  <DihAtoms>  (1) 
5,0,10,11

>  <DihDeg>  (1) 
-0.00761103932899591

$$$$
