
     RDKit          3D

 31 33  0  0  0  0  0  0  0  0999 V2000
   45.5263   34.7133   44.2392 C   0  0  0  0  0  0  0  0  0  0  0  0
   46.5754   33.9107   43.7489 C   0  0  0  0  0  0  0  0  0  0  0  0
   47.1135   32.9281   44.6005 C   0  0  0  0  0  0  0  0  0  0  0  0
   46.5886   32.8168   45.8369 N   0  0  0  0  0  0  0  0  0  0  0  0
   45.5884   33.5963   46.2768 C   0  0  0  0  0  0  0  0  0  0  0  0
   45.0551   34.5425   45.4859 N   0  0  0  0  0  0  0  0  0  0  0  0
   44.9227   35.9304   43.0618 S   0  0  0  0  0  0  0  0  0  0  0  0
   46.9814   34.0220   42.7440 H   0  0  0  0  0  0  0  0  0  0  0  0
   47.9089   32.2840   44.2977 H   0  0  0  0  0  0  0  0  0  0  0  0
   44.5479   37.0501   43.8298 H   0  0  0  0  0  0  0  0  0  0  0  0
   44.9627   33.5171   47.6471 C   0  0  0  0  0  0  0  0  0  0  0  0
   45.4278   34.6078   48.5385 C   0  0  0  0  0  0  0  0  0  0  0  0
   46.0596   34.4073   49.6677 C   0  0  0  0  0  0  0  0  0  0  0  0
   46.3910   33.0904   50.1986 C   0  0  0  0  0  0  0  0  0  0  0  0
   46.2311   31.8933   49.8587 O   0  0  0  0  0  0  0  0  0  0  0  0
   47.0611   32.9091   51.3858 O   0  0  0  0  0  0  0  0  0  0  0  0
   46.4423   35.5444   50.4307 N   0  0  0  0  0  0  0  0  0  0  0  0
   47.4327   36.1358   51.2627 C   0  0  0  0  0  0  0  0  0  0  0  0
   48.5488   35.8388   51.8085 O   0  0  0  0  0  0  0  0  0  0  0  0
   46.6867   37.4150   51.3371 C   0  0  2  0  0  0  0  0  0  0  0  0
   47.1805   38.2933   50.8996 H   0  0  0  0  0  0  0  0  0  0  0  0
   45.6076   36.7503   50.5544 C   0  0  1  0  0  0  0  0  0  0  0  0
   45.4372   37.3343   48.8339 S   0  0  0  0  0  0  0  0  0  0  0  0
   45.0272   35.8627   47.8602 C   0  0  2  0  0  0  0  0  0  0  0  0
   43.8960   35.8471   47.8101 H   0  0  0  0  0  0  0  0  0  0  0  0
   45.0617   32.5010   48.0623 H   0  0  0  0  0  0  0  0  0  0  0  0
   43.8385   33.6096   47.4944 H   0  0  0  0  0  0  0  0  0  0  0  0
   47.8502   32.2947   51.5324 H   0  0  0  0  0  0  0  0  0  0  0  0
   46.3326   37.5626   52.3967 H   0  0  0  0  0  0  0  0  0  0  0  0
   44.6721   36.5374   51.0661 H   0  0  0  0  0  0  0  0  0  0  0  0
   45.4485   35.9344   46.8273 H   0  0  0  0  0  0  0  0  0  0  0  0
  1  6  2  0
  2  1  1  0
  2  3  2  0
  3  4  1  0
  4  5  2  0
  6  5  1  0
  7  1  1  0
  2  8  1  0
  3  9  1  0
  7 10  1  0
 11 12  1  0
 12 13  2  0
 13 14  1  0
 14 15  2  0
 14 16  1  0
 13 17  1  0
 17 18  1  0
 18 19  2  0
 18 20  1  0
 20 21  1  6
 20 22  1  0
 22 23  1  0
 23 24  1  0
 24 25  1  6
 24 12  1  0
 22 17  1  0
 11 26  1  0
 11 27  1  0
 16 28  1  0
 20 29  1  0
 22 30  1  1
 24 31  1  0
  5 11  1  0
M  ISO  5   8  14   9  14  10  11  21  15  25  15
M  END
>  <DihAtoms>  (1) 
3,4,10,11

>  <DihDeg>  (1) 
-91.79386910926105

$$$$
