
     RDKit          3D

 31 33  0  0  0  0  0  0  0  0999 V2000
   45.5263   34.7133   44.2392 C   0  0  0  0  0  0  0  0  0  0  0  0
   46.5754   33.9107   43.7489 C   0  0  0  0  0  0  0  0  0  0  0  0
   47.1135   32.9281   44.6005 C   0  0  0  0  0  0  0  0  0  0  0  0
   46.5886   32.8168   45.8369 N   0  0  0  0  0  0  0  0  0  0  0  0
   45.5884   33.5963   46.2768 C   0  0  0  0  0  0  0  0  0  0  0  0
   45.0551   34.5425   45.4859 N   0  0  0  0  0  0  0  0  0  0  0  0
   44.9227   35.9304   43.0618 S   0  0  0  0  0  0  0  0  0  0  0  0
   46.9814   34.0220   42.7440 H   0  0  0  0  0  0  0  0  0  0  0  0
   47.9089   32.2840   44.2977 H   0  0  0  0  0  0  0  0  0  0  0  0
   44.5479   37.0501   43.8298 H   0  0  0  0  0  0  0  0  0  0  0  0
   44.9627   33.5171   47.6471 C   0  0  0  0  0  0  0  0  0  0  0  0
   44.3257   32.2007   47.8961 C   0  0  0  0  0  0  0  0  0  0  0  0
   43.0523   32.0447   48.1579 C   0  0  0  0  0  0  0  0  0  0  0  0
   42.0922   33.1391   48.2386 C   0  0  0  0  0  0  0  0  0  0  0  0
   42.1070   34.3881   48.1198 O   0  0  0  0  0  0  0  0  0  0  0  0
   40.7579   32.9457   48.5097 O   0  0  0  0  0  0  0  0  0  0  0  0
   42.5733   30.7255   48.3855 N   0  0  0  0  0  0  0  0  0  0  0  0
   41.5110   29.7997   48.1925 C   0  0  0  0  0  0  0  0  0  0  0  0
   40.3310   29.7605   47.7048 O   0  0  0  0  0  0  0  0  0  0  0  0
   42.2806   28.6995   48.8215 C   0  0  2  0  0  0  0  0  0  0  0  0
   42.5329   27.8490   48.1738 H   0  0  0  0  0  0  0  0  0  0  0  0
   43.3425   29.7028   49.1127 C   0  0  1  0  0  0  0  0  0  0  0  0
   44.8628   29.5207   48.1200 S   0  0  0  0  0  0  0  0  0  0  0  0
   45.4192   31.2088   47.7701 C   0  0  2  0  0  0  0  0  0  0  0  0
   46.1613   31.4515   48.5904 H   0  0  0  0  0  0  0  0  0  0  0  0
   44.3162   34.3905   47.8311 H   0  0  0  0  0  0  0  0  0  0  0  0
   45.8051   33.6752   48.3962 H   0  0  0  0  0  0  0  0  0  0  0  0
   39.9853   33.3546   48.0024 H   0  0  0  0  0  0  0  0  0  0  0  0
   41.7734   28.4127   49.7860 H   0  0  0  0  0  0  0  0  0  0  0  0
   43.4983   29.9843   50.1514 H   0  0  0  0  0  0  0  0  0  0  0  0
   45.9257   31.2667   46.7754 H   0  0  0  0  0  0  0  0  0  0  0  0
  1  6  2  0
  2  1  1  0
  2  3  2  0
  3  4  1  0
  4  5  2  0
  6  5  1  0
  7  1  1  0
  2  8  1  0
  3  9  1  0
  7 10  1  0
 11 12  1  0
 12 13  2  0
 13 14  1  0
 14 15  2  0
 14 16  1  0
 13 17  1  0
 17 18  1  0
 18 19  2  0
 18 20  1  0
 20 21  1  6
 20 22  1  0
 22 23  1  0
 23 24  1  0
 24 25  1  1
 24 12  1  0
 22 17  1  0
 11 26  1  0
 11 27  1  0
 16 28  1  0
 20 29  1  0
 22 30  1  1
 24 31  1  0
  5 11  1  0
M  ISO  5   8  14   9  14  10  11  21  15  25  15
M  END
>  <DihAtoms>  (1) 
3,4,10,11

>  <DihDeg>  (1) 
-91.79386910926105

$$$$
