
     RDKit          3D

 40 43  0  0  1  0  0  0  0  0999 V2000
   47.1990   33.7140   39.7130 C   0  0  0  0  0  0  0  0  0  0  0  0
   48.2010   34.4020   39.0520 C   0  0  0  0  0  0  0  0  0  0  0  0
   48.0910   34.1110   37.6990 C   0  0  0  0  0  0  0  0  0  0  0  0
   47.0080   33.2470   37.6090 C   0  0  0  0  0  0  0  0  0  0  0  0
   46.5160   33.0410   38.8040 O   0  0  0  0  0  0  0  0  0  0  0  0
   46.8690   33.6610   41.0730 O   0  0  0  0  0  0  0  0  0  0  0  0
   47.1480   34.7260   41.9300 C   0  0  0  0  0  0  0  0  0  0  0  0
   48.0850   35.4780   41.5760 O   0  0  0  0  0  0  0  0  0  0  0  0
   46.3310   34.8170   43.0930 C   0  0  0  0  0  0  0  0  0  0  0  0
   45.4730   35.8990   43.0690 C   0  0  0  0  0  0  0  0  0  0  0  0
   44.6230   36.0750   44.1760 C   0  0  0  0  0  0  0  0  0  0  0  0
   44.6900   35.1880   45.1930 N   0  0  0  0  0  0  0  0  0  0  0  0
   45.5560   34.1430   45.1580 C   0  0  0  0  0  0  0  0  0  0  0  0
   46.3800   33.9570   44.1040 N   0  0  0  0  0  0  0  0  0  0  0  0
   46.5140   32.6620   36.3120 C   0  0  0  0  0  0  0  0  0  0  0  0
   47.3650   31.5010   36.0550 C   0  0  0  0  0  0  0  0  0  0  0  0
   48.0000   31.3920   34.9110 C   0  0  0  0  0  0  0  0  0  0  0  0
   48.8260   30.2990   34.6120 N   0  0  0  0  0  0  0  0  0  0  0  0
   50.0060   29.7850   34.0120 C   0  0  0  0  0  0  0  0  0  0  0  0
   50.7280   30.0990   33.0520 O   0  0  0  0  0  0  0  0  0  0  0  0
   50.0090   28.7110   35.0280 C   0  0  0  0  0  0  0  0  0  0  0  0
   48.4990   28.9430   35.0280 C   0  0  1  0  0  0  0  0  0  0  0  0
   47.7410   28.8420   36.6440 S   0  0  0  0  0  0  0  0  0  0  0  0
   47.4130   30.5480   37.1610 C   0  0  0  0  0  0  0  0  0  0  0  0
   47.8610   32.4260   33.8920 C   0  0  0  0  0  0  0  0  0  0  0  0
   48.7950   33.1490   33.4600 O   0  0  0  0  0  0  0  0  0  0  0  0
   47.3940   33.3040   32.9340 O   0  0  0  0  0  0  0  0  0  0  0  0
   48.9501   35.0610   39.5152 H   0  0  0  0  0  0  0  0  0  0  0  0
   48.7227   34.4830   36.8789 H   0  0  0  0  0  0  0  0  0  0  0  0
   45.4550   36.5956   42.2179 H   0  0  0  0  0  0  0  0  0  0  0  0
   43.9176   36.9182   44.2129 H   0  0  0  0  0  0  0  0  0  0  0  0
   45.5871   33.4370   46.0009 H   0  0  0  0  0  0  0  0  0  0  0  0
   45.4622   32.3539   36.4057 H   0  0  0  0  0  0  0  0  0  0  0  0
   46.5632   33.3925   35.4911 H   0  0  0  0  0  0  0  0  0  0  0  0
   50.3364   27.7231   34.6719 H   0  0  0  0  0  0  0  0  0  0  0  0
   50.6307   28.7288   35.9353 H   0  0  0  0  0  0  0  0  0  0  0  0
   47.7968   28.2994   34.4779 H   0  0  0  0  0  0  0  0  0  0  0  0
   48.2093   30.8597   37.8529 H   0  0  0  0  0  0  0  0  0  0  0  0
   46.4190   30.5542   37.6322 H   0  0  0  0  0  0  0  0  0  0  0  0
   48.0170   33.9377   32.4976 H   0  0  0  0  0  0  0  0  0  0  0  0
  1  6  1  0
  2  1  2  0
  3  2  1  0
  4  3  2  0
  4  5  1  0
  5  1  1  0
  6  7  1  0
  7  9  1  0
  8  7  2  0
  9 14  1  0
 10  9  2  0
 10 11  1  0
 11 12  2  0
 13 12  1  0
 14 13  2  0
 15  4  1  0
 16 15  1  0
 16 24  1  0
 17 16  2  0
 18 17  1  0
 18 22  1  0
 19 18  1  0
 19 21  1  0
 20 19  2  0
 22 21  1  0
 22 23  1  0
 23 24  1  0
 25 17  1  0
 26 25  2  0
 27 25  1  0
  2 28  1  0
  3 29  1  0
 10 30  1  0
 11 31  1  0
 13 32  1  0
 15 33  1  0
 15 34  1  0
 21 35  1  0
 21 36  1  0
 22 37  1  6
 24 38  1  0
 24 39  1  0
 27 40  1  0
M  ISO  8  28  14  29  14  30  14  31  14  32  14  33   8  34   8  35  13
M  ISO  5  36  13  37  13  38  13  39  13  40   3
M  END
>  <minimizedAffinity>  (1) 
-5.61523581

>  <minimizedRMSD>  (1) 
0.790136993

$$$$
