
     RDKit          3D

 31 33  0  0  0  0  0  0  0  0999 V2000
   44.2694   35.7300   44.2660 C   0  0  0  0  0  0  0  0  0  0  0  0
   44.4224   34.9133   43.1276 C   0  0  0  0  0  0  0  0  0  0  0  0
   45.0600   33.6870   43.2703 C   0  0  0  0  0  0  0  0  0  0  0  0
   45.5069   33.3409   44.5230 N   0  0  0  0  0  0  0  0  0  0  0  0
   45.3392   34.1491   45.5759 C   0  0  0  0  0  0  0  0  0  0  0  0
   44.7308   35.3349   45.4748 N   0  0  0  0  0  0  0  0  0  0  0  0
   43.8092   35.4438   41.5333 S   0  0  0  0  0  0  0  0  0  0  0  0
   45.1700   33.0710   42.3868 H   0  0  0  0  0  0  0  0  0  0  0  0
   45.7270   33.7928   46.5372 H   0  0  0  0  0  0  0  0  0  0  0  0
   42.3991   35.4812   41.4841 H   0  0  0  0  0  0  0  0  0  0  0  0
   43.5702   37.0390   44.0291 C   0  0  0  0  0  0  0  0  0  0  0  0
   42.1227   36.9151   44.2078 C   0  0  0  0  0  0  0  0  0  0  0  0
   41.2016   37.1431   43.2887 C   0  0  0  0  0  0  0  0  0  0  0  0
   41.5518   37.5621   41.9260 C   0  0  0  0  0  0  0  0  0  0  0  0
   42.6323   37.7907   41.3348 O   0  0  0  0  0  0  0  0  0  0  0  0
   40.7021   37.8273   40.8809 O   0  0  0  0  0  0  0  0  0  0  0  0
   39.8396   36.9975   43.6227 N   0  0  0  0  0  0  0  0  0  0  0  0
   38.5678   36.4415   43.2945 C   0  0  0  0  0  0  0  0  0  0  0  0
   38.0192   36.0093   42.2205 O   0  0  0  0  0  0  0  0  0  0  0  0
   38.0938   36.5539   44.7187 C   0  0  1  0  0  0  0  0  0  0  0  0
   37.0905   36.9721   44.8534 H   0  0  0  0  0  0  0  0  0  0  0  0
   39.1846   37.5968   44.7878 C   0  0  1  0  0  0  0  0  0  0  0  0
   40.2688   37.3215   46.2047 S   0  0  0  0  0  0  0  0  0  0  0  0
   41.7192   36.4668   45.5755 C   0  0  1  0  0  0  0  0  0  0  0  0
   41.5452   35.3579   45.4899 H   0  0  0  0  0  0  0  0  0  0  0  0
   43.9218   37.6711   44.9056 H   0  0  0  0  0  0  0  0  0  0  0  0
   43.9421   37.5100   43.1362 H   0  0  0  0  0  0  0  0  0  0  0  0
   40.7062   37.3363   40.0154 H   0  0  0  0  0  0  0  0  0  0  0  0
   38.2883   35.6200   45.2374 H   0  0  0  0  0  0  0  0  0  0  0  0
   38.8559   38.6362   44.6689 H   0  0  0  0  0  0  0  0  0  0  0  0
   42.5368   36.6239   46.3071 H   0  0  0  0  0  0  0  0  0  0  0  0
  1  6  2  0
  2  3  2  0
  2  1  1  0
  3  4  1  0
  4  5  2  0
  6  5  1  0
  7  2  1  0
  3  8  1  0
  5  9  1  0
  7 10  1  0
 11 12  1  0
 12 13  2  0
 13 14  1  0
 14 15  2  0
 14 16  1  0
 13 17  1  0
 17 18  1  0
 18 19  2  0
 18 20  1  0
 20 21  1  6
 20 22  1  0
 22 23  1  0
 23 24  1  0
 24 25  1  6
 24 12  1  0
 22 17  1  0
 11 26  1  0
 11 27  1  0
 16 28  1  0
 20 29  1  0
 22 30  1  6
 24 31  1  0
  1 11  1  0
M  ISO  5   8  14   9  14  10  11  21  15  25  15
M  END
>  <DihAtoms>  (1) 
5,0,10,11

>  <DihDeg>  (1) 
-0.00761103932899591

$$$$
