
     RDKit          3D

 40 43  0  0  0  0  0  0  0  0999 V2000
   45.5906   34.0449   45.3232 C   0  0  0  0  0  0  0  0  0  0  0  0
   44.6952   35.0949   45.5865 C   0  0  0  0  0  0  0  0  0  0  0  0
   44.5342   36.0429   44.5796 C   0  0  0  0  0  0  0  0  0  0  0  0
   45.2374   35.8963   43.4308 N   0  0  0  0  0  0  0  0  0  0  0  0
   46.0938   34.8647   43.2166 C   0  0  0  0  0  0  0  0  0  0  0  0
   46.2646   33.9371   44.1767 N   0  0  0  0  0  0  0  0  0  0  0  0
   44.5874   33.1396   41.1867 Br  0  0  0  0  0  0  0  0  0  0  0  0
   46.2809   33.9849   40.9438 C   0  0  0  0  0  0  0  0  0  0  0  0
   46.8356   34.7448   41.9595 C   0  0  0  0  0  0  0  0  0  0  0  0
   48.0637   35.3799   41.8027 C   0  0  0  0  0  0  0  0  0  0  0  0
   48.7047   35.2255   40.6039 C   0  0  0  0  0  0  0  0  0  0  0  0
   48.1230   34.4630   39.6174 C   0  0  0  0  0  0  0  0  0  0  0  0
   46.9308   33.8366   39.7487 C   0  0  0  0  0  0  0  0  0  0  0  0
   45.6581   33.3519   46.1562 H   0  0  0  0  0  0  0  0  0  0  0  0
   44.1226   35.2529   46.4679 H   0  0  0  0  0  0  0  0  0  0  0  0
   43.8892   36.9245   44.5952 H   0  0  0  0  0  0  0  0  0  0  0  0
   48.4823   35.9732   42.6159 H   0  0  0  0  0  0  0  0  0  0  0  0
   49.6742   35.7212   40.4664 H   0  0  0  0  0  0  0  0  0  0  0  0
   48.7033   34.4105   38.7123 H   0  0  0  0  0  0  0  0  0  0  0  0
   46.3145   33.0252   38.6641 C   0  0  0  0  0  0  0  0  0  0  0  0
   47.1871   32.7591   37.5217 C   0  0  0  0  0  0  0  0  0  0  0  0
   46.8508   33.2415   36.3534 C   0  0  0  0  0  0  0  0  0  0  0  0
   45.6537   34.0394   36.0777 C   0  0  0  0  0  0  0  0  0  0  0  0
   45.2996   34.5154   34.9743 O   0  0  0  0  0  0  0  0  0  0  0  0
   44.5250   34.6100   36.5894 O   0  0  0  0  0  0  0  0  0  0  0  0
   47.6973   32.9968   35.2380 N   0  0  0  0  0  0  0  0  0  0  0  0
   47.7864   32.6154   33.8470 C   0  0  0  0  0  0  0  0  0  0  0  0
   46.9901   32.5633   32.8484 O   0  0  0  0  0  0  0  0  0  0  0  0
   49.2340   32.2862   34.0187 C   0  0  2  0  0  0  0  0  0  0  0  0
   49.8100   32.7910   33.2003 H   0  0  0  0  0  0  0  0  0  0  0  0
   49.1587   33.1260   35.2734 C   0  0  2  0  0  0  0  0  0  0  0  0
   49.7470   32.4006   36.7859 S   0  0  0  0  0  0  0  0  0  0  0  0
   48.3657   31.9231   37.8323 C   0  0  2  0  0  0  0  0  0  0  0  0
   48.1277   30.8283   37.7370 H   0  0  0  0  0  0  0  0  0  0  0  0
   45.3388   33.4728   38.4316 H   0  0  0  0  0  0  0  0  0  0  0  0
   46.0501   32.0057   39.0873 H   0  0  0  0  0  0  0  0  0  0  0  0
   43.6646   34.0654   36.7411 H   0  0  0  0  0  0  0  0  0  0  0  0
   49.3745   31.2101   34.1383 H   0  0  0  0  0  0  0  0  0  0  0  0
   49.4747   34.1856   35.0768 H   0  0  0  0  0  0  0  0  0  0  0  0
   48.6835   32.0348   38.8904 H   0  0  0  0  0  0  0  0  0  0  0  0
  1  2  2  0
  3  2  1  0
  4  3  2  0
  5  4  1  0
  5  6  2  0
  6  1  1  0
  8  7  1  0
  8  9  2  0
  9  5  1  0
 10  9  1  0
 11 10  2  0
 12 13  2  0
 12 11  1  0
 13  8  1  0
  1 14  1  0
  2 15  1  0
  3 16  1  0
 10 17  1  0
 11 18  1  0
 12 19  1  0
 20 21  1  0
 21 22  2  0
 22 23  1  0
 23 24  2  0
 23 25  1  0
 22 26  1  0
 26 27  1  0
 27 28  2  0
 27 29  1  0
 29 30  1  6
 29 31  1  0
 31 32  1  0
 32 33  1  0
 33 34  1  1
 33 21  1  0
 31 26  1  0
 20 35  1  0
 20 36  1  0
 25 37  1  0
 29 38  1  0
 31 39  1  6
 33 40  1  0
 13 20  1  0
M  ISO  8  14  14  15  14  16  14  17  14  18  14  19  14  30  15  34  15
M  END
>  <DihAtoms>  (1) 
11,12,19,20

>  <DihDeg>  (1) 
9.980047662090223

$$$$
