
     RDKit          3D

 34 36  0  0  0  0  0  0  0  0999 V2000
   44.5385   36.0457   44.5663 C   0  0  0  0  0  0  0  0  0  0  0  0
   45.2559   36.0070   43.3605 C   0  0  0  0  0  0  0  0  0  0  0  0
   46.1366   34.9535   43.1527 C   0  0  0  0  0  0  0  0  0  0  0  0
   46.2764   34.0102   44.1011 N   0  0  0  0  0  0  0  0  0  0  0  0
   45.5678   34.0659   45.2697 C   0  0  0  0  0  0  0  0  0  0  0  0
   44.7116   35.0838   45.4799 N   0  0  0  0  0  0  0  0  0  0  0  0
   46.3775   34.2014   40.7893 C   0  0  0  0  0  0  0  0  0  0  0  0
   45.2270   33.7164   40.9342 O   0  0  0  0  0  0  0  0  0  0  0  0
   46.8926   34.8572   41.9524 N   0  0  0  0  0  0  0  0  0  0  0  0
   43.8772   36.9041   44.6372 H   0  0  0  0  0  0  0  0  0  0  0  0
   45.1767   36.7422   42.5694 H   0  0  0  0  0  0  0  0  0  0  0  0
   45.6902   33.2885   46.0388 H   0  0  0  0  0  0  0  0  0  0  0  0
   47.8373   35.3079   42.0211 H   0  0  0  0  0  0  0  0  0  0  0  0
   51.6774   37.6840   40.3755 C   0  0  0  0  0  0  0  0  0  0  0  0
   52.2587   37.4060   39.4474 H   0  0  0  0  0  0  0  0  0  0  0  0
   50.5686   36.7006   40.4500 C   0  0  0  0  0  0  0  0  0  0  0  0
   49.7488   36.7010   39.4127 C   0  0  0  0  0  0  0  0  0  0  0  0
   49.9365   37.6122   38.2834 C   0  0  0  0  0  0  0  0  0  0  0  0
   49.1748   37.6376   37.2849 O   0  0  0  0  0  0  0  0  0  0  0  0
   50.8715   38.5896   37.9973 O   0  0  0  0  0  0  0  0  0  0  0  0
   48.6491   35.8058   39.3582 N   0  0  0  0  0  0  0  0  0  0  0  0
   47.3125   35.5482   38.9931 C   0  0  0  0  0  0  0  0  0  0  0  0
   46.3972   36.1650   38.3540 O   0  0  0  0  0  0  0  0  0  0  0  0
   47.2772   34.2097   39.6371 C   0  0  1  0  0  0  0  0  0  0  0  0
   48.7244   34.4487   39.8749 C   0  0  2  0  0  0  0  0  0  0  0  0
   49.2166   34.5988   41.6103 S   0  0  0  0  0  0  0  0  0  0  0  0
   50.5024   35.8464   41.6589 C   0  0  2  0  0  0  0  0  0  0  0  0
   50.4401   36.4953   42.5692 H   0  0  0  0  0  0  0  0  0  0  0  0
   52.3904   37.5479   41.1985 H   0  0  0  0  0  0  0  0  0  0  0  0
   51.3197   38.7311   40.2805 H   0  0  0  0  0  0  0  0  0  0  0  0
   50.5606   39.5477   37.9596 H   0  0  0  0  0  0  0  0  0  0  0  0
   47.0560   33.3777   38.9342 H   0  0  0  0  0  0  0  0  0  0  0  0
   49.3849   33.8168   39.2605 H   0  0  0  0  0  0  0  0  0  0  0  0
   51.4880   35.2956   41.6786 H   0  0  0  0  0  0  0  0  0  0  0  0
  1  6  2  0
  2  1  1  0
  3  2  2  0
  3  4  1  0
  4  5  2  0
  5  6  1  0
  7  8  2  0
  7  9  1  0
  9  3  1  0
  1 10  1  0
  2 11  1  0
  5 12  1  0
  9 13  1  0
 14 15  1  0
 14 16  1  0
 16 17  2  0
 17 18  1  0
 18 19  2  0
 18 20  1  0
 17 21  1  0
 21 22  1  0
 22 23  2  0
 22 24  1  0
 24 25  1  0
 25 26  1  0
 26 27  1  0
 27 28  1  1
 27 16  1  0
 25 21  1  0
 14 29  1  0
 14 30  1  0
 20 31  1  0
 24 32  1  6
 25 33  1  6
 27 34  1  0
  7 24  1  0
M  ISO  5  10  14  11  14  12  14  15   8  28  15
M  END
>  <DihAtoms>  (1) 
7,6,23,21

>  <DihDeg>  (1) 
-119.99373654688416

$$$$
