
     RDKit          3D

 52 55  0  0  0  0  0  0  0  0999 V2000
   47.9330   34.5103   42.4482 C   0  0  0  0  0  0  0  0  0  0  0  0
   48.0198   33.4850   43.4020 C   0  0  0  0  0  0  0  0  0  0  0  0
   46.9580   33.3423   44.3179 C   0  0  0  0  0  0  0  0  0  0  0  0
   45.9179   34.2228   44.2031 N   0  0  0  0  0  0  0  0  0  0  0  0
   45.8710   35.1850   43.2832 C   0  0  0  0  0  0  0  0  0  0  0  0
   46.8797   35.3291   42.4043 N   0  0  0  0  0  0  0  0  0  0  0  0
   46.9518   32.3214   45.3482 C   0  0  2  0  0  0  0  0  0  0  0  0
   45.9192   31.2725   44.9132 C   0  0  0  0  0  0  0  0  0  0  0  0
   46.1877   30.0936   45.8570 C   0  0  0  0  0  0  0  0  0  0  0  0
   45.6435   30.5727   47.1954 C   0  0  0  0  0  0  0  0  0  0  0  0
   46.4886   31.7138   47.6868 C   0  0  0  0  0  0  0  0  0  0  0  0
   46.6080   32.8243   46.7252 C   0  0  1  0  0  0  0  0  0  0  0  0
   49.0734   34.6316   41.4924 C   0  0  0  0  0  0  0  0  0  0  0  0
   49.1725   33.5177   40.6804 F   0  0  0  0  0  0  0  0  0  0  0  0
   48.9047   35.8024   40.7520 F   0  0  0  0  0  0  0  0  0  0  0  0
   50.2553   34.8202   42.1991 F   0  0  0  0  0  0  0  0  0  0  0  0
   44.7156   36.1200   43.2090 C   0  0  0  0  0  0  0  0  0  0  0  0
   44.0311   35.9912   42.0419 F   0  0  0  0  0  0  0  0  0  0  0  0
   45.1631   37.4491   43.3899 F   0  0  0  0  0  0  0  0  0  0  0  0
   43.8561   35.9411   44.2768 F   0  0  0  0  0  0  0  0  0  0  0  0
   48.8320   32.8044   43.4849 H   0  0  0  0  0  0  0  0  0  0  0  0
   47.9173   31.8051   45.4020 H   0  0  0  0  0  0  0  0  0  0  0  0
   44.9191   31.6608   45.1193 H   0  0  0  0  0  0  0  0  0  0  0  0
   46.1105   31.0134   43.8632 H   0  0  0  0  0  0  0  0  0  0  0  0
   47.2596   29.9126   45.9323 H   0  0  0  0  0  0  0  0  0  0  0  0
   45.5947   29.2146   45.5384 H   0  0  0  0  0  0  0  0  0  0  0  0
   44.6135   30.9402   46.9867 H   0  0  0  0  0  0  0  0  0  0  0  0
   45.6296   29.7830   47.9485 H   0  0  0  0  0  0  0  0  0  0  0  0
   46.1144   32.0006   48.6768 H   0  0  0  0  0  0  0  0  0  0  0  0
   47.5170   31.2743   47.8373 H   0  0  0  0  0  0  0  0  0  0  0  0
   45.5715   33.2660   46.6208 H   0  0  0  0  0  0  0  0  0  0  0  0
   47.5453   33.9243   47.0185 C   0  0  0  0  0  0  0  0  0  0  0  0
   47.1272   35.0127   47.8746 C   0  0  0  0  0  0  0  0  0  0  0  0
   46.9929   36.2837   47.4883 C   0  0  0  0  0  0  0  0  0  0  0  0
   47.2632   36.7175   46.1015 C   0  0  0  0  0  0  0  0  0  0  0  0
   47.6319   36.1747   45.0462 O   0  0  0  0  0  0  0  0  0  0  0  0
   47.1749   37.9561   45.5361 O   0  0  0  0  0  0  0  0  0  0  0  0
   46.5927   37.2927   48.4401 N   0  0  0  0  0  0  0  0  0  0  0  0
   45.6327   38.3135   48.7033 C   0  0  0  0  0  0  0  0  0  0  0  0
   44.8386   39.0452   48.0315 O   0  0  0  0  0  0  0  0  0  0  0  0
   45.9972   38.1228   50.1553 C   0  0  2  0  0  0  0  0  0  0  0  0
   45.3761   37.3947   50.6810 H   0  0  0  0  0  0  0  0  0  0  0  0
   47.3166   37.5450   49.7053 C   0  0  1  0  0  0  0  0  0  0  0  0
   47.7486   35.9175   50.3561 S   0  0  0  0  0  0  0  0  0  0  0  0
   46.8163   34.7296   49.3016 C   0  0  1  0  0  0  0  0  0  0  0  0
   45.7322   34.8089   49.5282 H   0  0  0  0  0  0  0  0  0  0  0  0
   48.0172   34.2077   46.0429 H   0  0  0  0  0  0  0  0  0  0  0  0
   48.4517   33.4525   47.5522 H   0  0  0  0  0  0  0  0  0  0  0  0
   46.5056   38.2459   44.8530 H   0  0  0  0  0  0  0  0  0  0  0  0
   46.1506   39.1178   50.6093 H   0  0  0  0  0  0  0  0  0  0  0  0
   48.1498   38.2429   49.6374 H   0  0  0  0  0  0  0  0  0  0  0  0
   47.1741   33.7337   49.6171 H   0  0  0  0  0  0  0  0  0  0  0  0
  1  2  2  0
  2  3  1  0
  3  7  1  0
  4  3  2  0
  5  4  1  0
  6  1  1  0
  6  5  2  0
  7 12  1  0
  8  7  1  0
  8  9  1  0
  9 10  1  0
 10 11  1  0
 12 11  1  0
 13 16  1  0
 13  1  1  0
 14 13  1  0
 15 13  1  0
 17  5  1  0
 17 19  1  0
 17 20  1  0
 18 17  1  0
  2 21  1  0
  7 22  1  1
  8 23  1  0
  8 24  1  0
  9 25  1  0
  9 26  1  0
 10 27  1  0
 10 28  1  0
 11 29  1  0
 11 30  1  0
 12 31  1  6
 32 33  1  0
 33 34  2  0
 34 35  1  0
 35 36  2  0
 35 37  1  0
 34 38  1  0
 38 39  1  0
 39 40  2  0
 39 41  1  0
 41 42  1  1
 41 43  1  0
 43 44  1  0
 44 45  1  0
 45 46  1  6
 45 33  1  0
 43 38  1  0
 32 47  1  0
 32 48  1  0
 37 49  1  0
 41 50  1  0
 43 51  1  6
 45 52  1  0
 12 32  1  0
M  ISO  8  21  14  22  13  23  13  24  13  25  13  26  13  27  13  28  13
M  ISO  5  29  13  30  13  31  13  42  15  46  15
M  END
>  <DihAtoms>  (1) 
6,11,31,32

>  <DihDeg>  (1) 
179.45553027747255

$$$$
