
     RDKit          3D

 31 33  0  0  0  0  0  0  0  0999 V2000
   45.5263   34.7133   44.2392 C   0  0  0  0  0  0  0  0  0  0  0  0
   46.5754   33.9107   43.7489 C   0  0  0  0  0  0  0  0  0  0  0  0
   47.1135   32.9281   44.6005 C   0  0  0  0  0  0  0  0  0  0  0  0
   46.5886   32.8168   45.8369 N   0  0  0  0  0  0  0  0  0  0  0  0
   45.5884   33.5963   46.2768 C   0  0  0  0  0  0  0  0  0  0  0  0
   45.0551   34.5425   45.4859 N   0  0  0  0  0  0  0  0  0  0  0  0
   44.9227   35.9304   43.0618 S   0  0  0  0  0  0  0  0  0  0  0  0
   46.9814   34.0220   42.7440 H   0  0  0  0  0  0  0  0  0  0  0  0
   47.9089   32.2840   44.2977 H   0  0  0  0  0  0  0  0  0  0  0  0
   44.5479   37.0501   43.8298 H   0  0  0  0  0  0  0  0  0  0  0  0
   44.9627   33.5171   47.6471 C   0  0  0  0  0  0  0  0  0  0  0  0
   45.2806   32.2415   48.3345 C   0  0  0  0  0  0  0  0  0  0  0  0
   44.3766   31.3782   48.7241 C   0  0  0  0  0  0  0  0  0  0  0  0
   42.9414   31.5526   48.5347 C   0  0  0  0  0  0  0  0  0  0  0  0
   42.1759   32.4132   48.0371 O   0  0  0  0  0  0  0  0  0  0  0  0
   42.0138   30.6259   48.9491 O   0  0  0  0  0  0  0  0  0  0  0  0
   44.8192   30.1971   49.3804 N   0  0  0  0  0  0  0  0  0  0  0  0
   44.6317   28.7987   49.5596 C   0  0  0  0  0  0  0  0  0  0  0  0
   43.8347   27.8692   49.1954 O   0  0  0  0  0  0  0  0  0  0  0  0
   45.8216   28.6948   50.4381 C   0  0  2  0  0  0  0  0  0  0  0  0
   46.6492   28.0754   50.0664 H   0  0  0  0  0  0  0  0  0  0  0  0
   45.9449   30.1753   50.3284 C   0  0  1  0  0  0  0  0  0  0  0  0
   47.3588   30.7553   49.3311 S   0  0  0  0  0  0  0  0  0  0  0  0
   46.7583   32.2135   48.4397 C   0  0  2  0  0  0  0  0  0  0  0  0
   47.0451   33.0958   49.0891 H   0  0  0  0  0  0  0  0  0  0  0  0
   43.8904   33.7674   47.6006 H   0  0  0  0  0  0  0  0  0  0  0  0
   45.3898   34.3848   48.2476 H   0  0  0  0  0  0  0  0  0  0  0  0
   41.2433   30.2723   48.3987 H   0  0  0  0  0  0  0  0  0  0  0  0
   45.4776   28.4322   51.4785 H   0  0  0  0  0  0  0  0  0  0  0  0
   45.7308   30.7658   51.2159 H   0  0  0  0  0  0  0  0  0  0  0  0
   47.2519   32.3052   47.4410 H   0  0  0  0  0  0  0  0  0  0  0  0
  1  6  2  0
  2  1  1  0
  2  3  2  0
  3  4  1  0
  4  5  2  0
  6  5  1  0
  7  1  1  0
  2  8  1  0
  3  9  1  0
  7 10  1  0
 11 12  1  0
 12 13  2  0
 13 14  1  0
 14 15  2  0
 14 16  1  0
 13 17  1  0
 17 18  1  0
 18 19  2  0
 18 20  1  0
 20 21  1  6
 20 22  1  0
 22 23  1  0
 23 24  1  0
 24 25  1  1
 24 12  1  0
 22 17  1  0
 11 26  1  0
 11 27  1  0
 16 28  1  0
 20 29  1  0
 22 30  1  1
 24 31  1  0
  5 11  1  0
M  ISO  5   8  14   9  14  10  11  21  15  25  15
M  END
>  <DihAtoms>  (1) 
3,4,10,11

>  <DihDeg>  (1) 
-91.79386910926105

$$$$
