
     RDKit          3D

 31 33  0  0  0  0  0  0  0  0999 V2000
   45.5263   34.7133   44.2392 C   0  0  0  0  0  0  0  0  0  0  0  0
   46.5754   33.9107   43.7489 C   0  0  0  0  0  0  0  0  0  0  0  0
   47.1135   32.9281   44.6005 C   0  0  0  0  0  0  0  0  0  0  0  0
   46.5886   32.8168   45.8369 N   0  0  0  0  0  0  0  0  0  0  0  0
   45.5884   33.5963   46.2768 C   0  0  0  0  0  0  0  0  0  0  0  0
   45.0551   34.5425   45.4859 N   0  0  0  0  0  0  0  0  0  0  0  0
   44.9227   35.9304   43.0618 S   0  0  0  0  0  0  0  0  0  0  0  0
   46.9814   34.0220   42.7440 H   0  0  0  0  0  0  0  0  0  0  0  0
   47.9089   32.2840   44.2977 H   0  0  0  0  0  0  0  0  0  0  0  0
   44.5479   37.0501   43.8298 H   0  0  0  0  0  0  0  0  0  0  0  0
   44.9627   33.5171   47.6471 C   0  0  0  0  0  0  0  0  0  0  0  0
   45.9133   33.0123   48.6680 C   0  0  0  0  0  0  0  0  0  0  0  0
   45.7202   31.9235   49.3691 C   0  0  0  0  0  0  0  0  0  0  0  0
   44.5500   31.0631   49.2409 C   0  0  0  0  0  0  0  0  0  0  0  0
   43.4962   31.0367   48.5604 O   0  0  0  0  0  0  0  0  0  0  0  0
   44.3756   29.9210   49.9868 O   0  0  0  0  0  0  0  0  0  0  0  0
   46.7097   31.5579   50.3223 N   0  0  0  0  0  0  0  0  0  0  0  0
   47.4306   30.4963   50.9358 C   0  0  0  0  0  0  0  0  0  0  0  0
   47.4717   29.2196   50.9341 O   0  0  0  0  0  0  0  0  0  0  0  0
   48.2685   31.4402   51.7141 C   0  0  2  0  0  0  0  0  0  0  0  0
   49.3441   31.4347   51.4911 H   0  0  0  0  0  0  0  0  0  0  0  0
   47.4365   32.5375   51.1460 C   0  0  1  0  0  0  0  0  0  0  0  0
   48.2857   33.5867   49.9180 S   0  0  0  0  0  0  0  0  0  0  0  0
   47.0350   33.9805   48.6681 C   0  0  2  0  0  0  0  0  0  0  0  0
   46.5954   34.9726   48.9922 H   0  0  0  0  0  0  0  0  0  0  0  0
   43.9981   32.9857   47.6046 H   0  0  0  0  0  0  0  0  0  0  0  0
   44.6459   34.5761   47.9189 H   0  0  0  0  0  0  0  0  0  0  0  0
   44.0979   29.0172   49.6296 H   0  0  0  0  0  0  0  0  0  0  0  0
   48.0214   31.3217   52.8071 H   0  0  0  0  0  0  0  0  0  0  0  0
   46.7679   33.0646   51.8223 H   0  0  0  0  0  0  0  0  0  0  0  0
   47.4979   34.0867   47.6562 H   0  0  0  0  0  0  0  0  0  0  0  0
  1  6  2  0
  2  1  1  0
  2  3  2  0
  3  4  1  0
  4  5  2  0
  6  5  1  0
  7  1  1  0
  2  8  1  0
  3  9  1  0
  7 10  1  0
 11 12  1  0
 12 13  2  0
 13 14  1  0
 14 15  2  0
 14 16  1  0
 13 17  1  0
 17 18  1  0
 18 19  2  0
 18 20  1  0
 20 21  1  1
 20 22  1  0
 22 23  1  0
 23 24  1  0
 24 25  1  1
 24 12  1  0
 22 17  1  0
 11 26  1  0
 11 27  1  0
 16 28  1  0
 20 29  1  0
 22 30  1  1
 24 31  1  0
  5 11  1  0
M  ISO  5   8  14   9  14  10  11  21  15  25  15
M  END
>  <DihAtoms>  (1) 
3,4,10,11

>  <DihDeg>  (1) 
-91.79386910926105

$$$$
