
     RDKit          3D

 31 33  0  0  0  0  0  0  0  0999 V2000
   44.2694   35.7300   44.2660 C   0  0  0  0  0  0  0  0  0  0  0  0
   44.4224   34.9133   43.1276 C   0  0  0  0  0  0  0  0  0  0  0  0
   45.0600   33.6870   43.2703 C   0  0  0  0  0  0  0  0  0  0  0  0
   45.5069   33.3409   44.5230 N   0  0  0  0  0  0  0  0  0  0  0  0
   45.3392   34.1491   45.5759 C   0  0  0  0  0  0  0  0  0  0  0  0
   44.7308   35.3349   45.4748 N   0  0  0  0  0  0  0  0  0  0  0  0
   43.8092   35.4438   41.5333 S   0  0  0  0  0  0  0  0  0  0  0  0
   45.1700   33.0710   42.3868 H   0  0  0  0  0  0  0  0  0  0  0  0
   45.7270   33.7928   46.5372 H   0  0  0  0  0  0  0  0  0  0  0  0
   42.3991   35.4812   41.4841 H   0  0  0  0  0  0  0  0  0  0  0  0
   43.5702   37.0390   44.0291 C   0  0  0  0  0  0  0  0  0  0  0  0
   44.0707   37.7055   42.8259 C   0  0  0  0  0  0  0  0  0  0  0  0
   44.6495   38.8920   42.7757 C   0  0  0  0  0  0  0  0  0  0  0  0
   44.8634   39.7029   43.9806 C   0  0  0  0  0  0  0  0  0  0  0  0
   44.6051   39.5433   45.1960 O   0  0  0  0  0  0  0  0  0  0  0  0
   45.4501   40.9407   44.0706 O   0  0  0  0  0  0  0  0  0  0  0  0
   45.0624   39.4086   41.5305 N   0  0  0  0  0  0  0  0  0  0  0  0
   46.0993   40.0046   40.7536 C   0  0  0  0  0  0  0  0  0  0  0  0
   47.1587   40.6739   41.0200 O   0  0  0  0  0  0  0  0  0  0  0  0
   45.4702   39.5434   39.4663 C   0  0  1  0  0  0  0  0  0  0  0  0
   45.4069   40.2957   38.6727 H   0  0  0  0  0  0  0  0  0  0  0  0
   44.2303   39.4848   40.3274 C   0  0  1  0  0  0  0  0  0  0  0  0
   43.3902   37.8954   40.1630 S   0  0  0  0  0  0  0  0  0  0  0  0
   43.8958   36.9055   41.5753 C   0  0  1  0  0  0  0  0  0  0  0  0
   44.8874   36.4026   41.3984 H   0  0  0  0  0  0  0  0  0  0  0  0
   42.5137   36.7129   43.7668 H   0  0  0  0  0  0  0  0  0  0  0  0
   43.5045   37.6032   44.9428 H   0  0  0  0  0  0  0  0  0  0  0  0
   46.2678   41.1372   44.6025 H   0  0  0  0  0  0  0  0  0  0  0  0
   45.9002   38.5891   39.1773 H   0  0  0  0  0  0  0  0  0  0  0  0
   43.5647   40.3537   40.2611 H   0  0  0  0  0  0  0  0  0  0  0  0
   43.1347   36.1112   41.7099 H   0  0  0  0  0  0  0  0  0  0  0  0
  1  6  2  0
  2  3  2  0
  2  1  1  0
  3  4  1  0
  4  5  2  0
  6  5  1  0
  7  2  1  0
  3  8  1  0
  5  9  1  0
  7 10  1  0
 11 12  1  0
 12 13  2  0
 13 14  1  0
 14 15  2  0
 14 16  1  0
 13 17  1  0
 17 18  1  0
 18 19  2  0
 18 20  1  0
 20 21  1  6
 20 22  1  0
 22 23  1  0
 23 24  1  0
 24 25  1  6
 24 12  1  0
 22 17  1  0
 11 26  1  0
 11 27  1  0
 16 28  1  0
 20 29  1  0
 22 30  1  1
 24 31  1  0
  1 11  1  0
M  ISO  5   8  14   9  14  10  11  21  15  25  15
M  END
>  <DihAtoms>  (1) 
5,0,10,11

>  <DihDeg>  (1) 
-0.00761103932899591

$$$$
