
     RDKit          3D

 31 33  0  0  0  0  0  0  0  0999 V2000
   45.5263   34.7133   44.2392 C   0  0  0  0  0  0  0  0  0  0  0  0
   46.5754   33.9107   43.7489 C   0  0  0  0  0  0  0  0  0  0  0  0
   47.1135   32.9281   44.6005 C   0  0  0  0  0  0  0  0  0  0  0  0
   46.5886   32.8168   45.8369 N   0  0  0  0  0  0  0  0  0  0  0  0
   45.5884   33.5963   46.2768 C   0  0  0  0  0  0  0  0  0  0  0  0
   45.0551   34.5425   45.4859 N   0  0  0  0  0  0  0  0  0  0  0  0
   44.9227   35.9304   43.0618 S   0  0  0  0  0  0  0  0  0  0  0  0
   46.9814   34.0220   42.7440 H   0  0  0  0  0  0  0  0  0  0  0  0
   47.9089   32.2840   44.2977 H   0  0  0  0  0  0  0  0  0  0  0  0
   44.5479   37.0501   43.8298 H   0  0  0  0  0  0  0  0  0  0  0  0
   44.9627   33.5171   47.6471 C   0  0  0  0  0  0  0  0  0  0  0  0
   43.9088   34.5429   47.8412 C   0  0  0  0  0  0  0  0  0  0  0  0
   43.9530   35.4677   48.7670 C   0  0  0  0  0  0  0  0  0  0  0  0
   45.0400   35.6142   49.7277 C   0  0  0  0  0  0  0  0  0  0  0  0
   46.1215   35.0349   49.9903 O   0  0  0  0  0  0  0  0  0  0  0  0
   45.0634   36.5994   50.6869 O   0  0  0  0  0  0  0  0  0  0  0  0
   42.8697   36.3850   48.8479 N   0  0  0  0  0  0  0  0  0  0  0  0
   42.4684   37.7282   49.0879 C   0  0  0  0  0  0  0  0  0  0  0  0
   42.9752   38.8474   49.4374 O   0  0  0  0  0  0  0  0  0  0  0  0
   41.0538   37.4224   48.7655 C   0  0  2  0  0  0  0  0  0  0  0  0
   40.6325   37.9330   47.8888 H   0  0  0  0  0  0  0  0  0  0  0  0
   41.4677   35.9988   48.6206 C   0  0  1  0  0  0  0  0  0  0  0  0
   41.4666   35.3704   46.9074 S   0  0  0  0  0  0  0  0  0  0  0  0
   42.8970   34.2645   46.7951 C   0  0  2  0  0  0  0  0  0  0  0  0
   42.4900   33.2313   47.0169 H   0  0  0  0  0  0  0  0  0  0  0  0
   45.7391   33.4922   48.4288 H   0  0  0  0  0  0  0  0  0  0  0  0
   44.4991   32.4808   47.7308 H   0  0  0  0  0  0  0  0  0  0  0  0
   45.8490   37.1978   50.9020 H   0  0  0  0  0  0  0  0  0  0  0  0
   40.4402   37.5316   49.7043 H   0  0  0  0  0  0  0  0  0  0  0  0
   41.1208   35.2943   49.3726 H   0  0  0  0  0  0  0  0  0  0  0  0
   43.3389   34.2823   45.7685 H   0  0  0  0  0  0  0  0  0  0  0  0
  1  6  2  0
  2  1  1  0
  2  3  2  0
  3  4  1  0
  4  5  2  0
  6  5  1  0
  7  1  1  0
  2  8  1  0
  3  9  1  0
  7 10  1  0
 11 12  1  0
 12 13  2  0
 13 14  1  0
 14 15  2  0
 14 16  1  0
 13 17  1  0
 17 18  1  0
 18 19  2  0
 18 20  1  0
 20 21  1  6
 20 22  1  0
 22 23  1  0
 23 24  1  0
 24 25  1  1
 24 12  1  0
 22 17  1  0
 11 26  1  0
 11 27  1  0
 16 28  1  0
 20 29  1  0
 22 30  1  1
 24 31  1  0
  5 11  1  0
M  ISO  5   8  14   9  14  10  11  21  15  25  15
M  END
>  <DihAtoms>  (1) 
3,4,10,11

>  <DihDeg>  (1) 
-91.79386910926105

$$$$
