
     RDKit          3D

 31 33  0  0  0  0  0  0  0  0999 V2000
   44.2694   35.7300   44.2660 C   0  0  0  0  0  0  0  0  0  0  0  0
   44.4224   34.9133   43.1276 C   0  0  0  0  0  0  0  0  0  0  0  0
   45.0600   33.6870   43.2703 C   0  0  0  0  0  0  0  0  0  0  0  0
   45.5069   33.3409   44.5230 N   0  0  0  0  0  0  0  0  0  0  0  0
   45.3392   34.1491   45.5759 C   0  0  0  0  0  0  0  0  0  0  0  0
   44.7308   35.3349   45.4748 N   0  0  0  0  0  0  0  0  0  0  0  0
   43.8092   35.4438   41.5333 S   0  0  0  0  0  0  0  0  0  0  0  0
   45.1700   33.0710   42.3868 H   0  0  0  0  0  0  0  0  0  0  0  0
   45.7270   33.7928   46.5372 H   0  0  0  0  0  0  0  0  0  0  0  0
   42.3991   35.4812   41.4841 H   0  0  0  0  0  0  0  0  0  0  0  0
   43.5702   37.0390   44.0291 C   0  0  0  0  0  0  0  0  0  0  0  0
   44.4416   37.9982   43.3487 C   0  0  0  0  0  0  0  0  0  0  0  0
   44.8231   39.1732   43.8170 C   0  0  0  0  0  0  0  0  0  0  0  0
   44.3937   39.6606   45.1335 C   0  0  0  0  0  0  0  0  0  0  0  0
   43.6664   39.1948   46.0409 O   0  0  0  0  0  0  0  0  0  0  0  0
   44.7157   40.8502   45.7383 O   0  0  0  0  0  0  0  0  0  0  0  0
   45.6539   39.9958   43.0291 N   0  0  0  0  0  0  0  0  0  0  0  0
   46.8334   40.7930   42.9431 C   0  0  0  0  0  0  0  0  0  0  0  0
   47.5791   41.3997   43.7899 O   0  0  0  0  0  0  0  0  0  0  0  0
   46.8797   40.6544   41.4450 C   0  0  1  0  0  0  0  0  0  0  0  0
   47.0607   41.5801   40.8881 H   0  0  0  0  0  0  0  0  0  0  0  0
   45.4113   40.3511   41.6289 C   0  0  1  0  0  0  0  0  0  0  0  0
   44.9408   38.8338   40.7714 S   0  0  0  0  0  0  0  0  0  0  0  0
   44.9239   37.5338   42.0123 C   0  0  1  0  0  0  0  0  0  0  0  0
   45.9537   37.1158   42.1923 H   0  0  0  0  0  0  0  0  0  0  0  0
   42.7796   36.7633   43.2607 H   0  0  0  0  0  0  0  0  0  0  0  0
   43.0473   37.3540   44.9150 H   0  0  0  0  0  0  0  0  0  0  0  0
   45.1950   40.9269   46.6069 H   0  0  0  0  0  0  0  0  0  0  0  0
   47.5147   39.8140   41.1809 H   0  0  0  0  0  0  0  0  0  0  0  0
   44.7280   41.1922   41.4611 H   0  0  0  0  0  0  0  0  0  0  0  0
   44.2912   36.7127   41.6202 H   0  0  0  0  0  0  0  0  0  0  0  0
  1  6  2  0
  2  3  2  0
  2  1  1  0
  3  4  1  0
  4  5  2  0
  6  5  1  0
  7  2  1  0
  3  8  1  0
  5  9  1  0
  7 10  1  0
 11 12  1  0
 12 13  2  0
 13 14  1  0
 14 15  2  0
 14 16  1  0
 13 17  1  0
 17 18  1  0
 18 19  2  0
 18 20  1  0
 20 21  1  6
 20 22  1  0
 22 23  1  0
 23 24  1  0
 24 25  1  1
 24 12  1  0
 22 17  1  0
 11 26  1  0
 11 27  1  0
 16 28  1  0
 20 29  1  0
 22 30  1  1
 24 31  1  0
  1 11  1  0
M  ISO  5   8  14   9  14  10  11  21  15  25  15
M  END
>  <DihAtoms>  (1) 
5,0,10,11

>  <DihDeg>  (1) 
-0.00761103932899591

$$$$
