
     RDKit          3D

 42 45  0  0  1  0  0  0  0  0999 V2000
   46.3850   33.8760   41.0370 C   0  0  0  0  0  0  0  0  0  0  0  0
   46.8560   34.7120   42.0100 C   0  0  0  0  0  0  0  0  0  0  0  0
   48.0200   35.3920   41.7450 C   0  0  0  0  0  0  0  0  0  0  0  0
   48.6920   35.2410   40.5440 C   0  0  0  0  0  0  0  0  0  0  0  0
   48.2080   34.4090   39.5940 C   0  0  0  0  0  0  0  0  0  0  0  0
   47.0240   33.6900   39.8120 C   0  0  0  0  0  0  0  0  0  0  0  0
   44.5230   35.9680   44.7000 C   0  0  0  0  0  0  0  0  0  0  0  0
   45.2320   35.8880   43.4900 C   0  0  0  0  0  0  0  0  0  0  0  0
   46.1100   34.8280   43.2380 C   0  0  0  0  0  0  0  0  0  0  0  0
   46.2100   33.9220   44.2270 N   0  0  0  0  0  0  0  0  0  0  0  0
   45.5280   34.0020   45.3860 C   0  0  0  0  0  0  0  0  0  0  0  0
   44.6900   35.0120   45.6290 N   0  0  0  0  0  0  0  0  0  0  0  0
   45.2140   33.1670   41.2570 O   0  0  0  0  0  0  0  0  0  0  0  0
   46.4660   32.8230   38.8920 O   0  0  0  0  0  0  0  0  0  0  0  0
   46.0610   33.4170   37.6450 C   0  0  0  0  0  0  0  0  0  0  0  0
   45.9720   32.4200   36.5770 C   0  0  0  0  0  0  0  0  0  0  0  0
   46.9110   32.1320   35.7250 C   0  0  0  0  0  0  0  0  0  0  0  0
   46.6690   31.1410   34.7410 N   0  0  0  0  0  0  0  0  0  0  0  0
   47.2050   30.0420   34.0010 C   0  0  0  0  0  0  0  0  0  0  0  0
   48.3190   29.4390   33.8340 O   0  0  0  0  0  0  0  0  0  0  0  0
   45.8880   29.7600   33.3840 C   0  0  0  0  0  0  0  0  0  0  0  0
   45.3760   30.9940   34.0500 C   0  0  1  0  0  0  0  0  0  0  0  0
   44.1820   30.6830   35.3960 S   0  0  0  0  0  0  0  0  0  0  0  0
   44.6100   31.8510   36.7160 C   0  0  0  0  0  0  0  0  0  0  0  0
   48.2140   32.7870   35.7280 C   0  0  0  0  0  0  0  0  0  0  0  0
   48.7810   33.7130   36.3540 O   0  0  0  0  0  0  0  0  0  0  0  0
   49.2490   32.4440   34.8890 O   0  0  0  0  0  0  0  0  0  0  0  0
   48.4282   36.0734   42.5060 H   0  0  0  0  0  0  0  0  0  0  0  0
   49.6222   35.7993   40.3620 H   0  0  0  0  0  0  0  0  0  0  0  0
   48.7477   34.2953   38.6422 H   0  0  0  0  0  0  0  0  0  0  0  0
   43.8363   36.8070   44.8855 H   0  0  0  0  0  0  0  0  0  0  0  0
   45.0949   36.6704   42.7291 H   0  0  0  0  0  0  0  0  0  0  0  0
   45.6644   33.2196   46.1470 H   0  0  0  0  0  0  0  0  0  0  0  0
   44.8648   32.5589   40.5582 H   0  0  0  0  0  0  0  0  0  0  0  0
   45.0755   33.8875   37.7771 H   0  0  0  0  0  0  0  0  0  0  0  0
   46.8169   34.1626   37.3575 H   0  0  0  0  0  0  0  0  0  0  0  0
   45.8805   29.7967   32.2846 H   0  0  0  0  0  0  0  0  0  0  0  0
   45.3890   28.7879   33.5106 H   0  0  0  0  0  0  0  0  0  0  0  0
   44.8985   31.7501   33.4095 H   0  0  0  0  0  0  0  0  0  0  0  0
   44.5478   31.3258   37.6805 H   0  0  0  0  0  0  0  0  0  0  0  0
   43.8993   32.6882   36.6532 H   0  0  0  0  0  0  0  0  0  0  0  0
   50.1104   32.9290   34.9417 H   0  0  0  0  0  0  0  0  0  0  0  0
  1 13  1  0
  1  2  2  0
  2  9  1  0
  3  2  1  0
  4  3  2  0
  5  6  2  0
  5  4  1  0
  6  1  1  0
  7 12  2  0
  8  7  1  0
  9  8  2  0
  9 10  1  0
 10 11  2  0
 11 12  1  0
 14  6  1  0
 15 14  1  0
 16 24  1  0
 16 15  1  0
 17 25  1  0
 17 16  2  0
 18 17  1  0
 19 18  1  0
 20 19  2  0
 21 19  1  0
 22 21  1  0
 22 18  1  0
 22 23  1  0
 23 24  1  0
 25 26  2  0
 27 25  1  0
  3 28  1  0
  4 29  1  0
  5 30  1  0
  7 31  1  0
  8 32  1  0
 11 33  1  0
 13 34  1  0
 15 35  1  0
 15 36  1  0
 21 37  1  0
 21 38  1  0
 22 39  1  6
 24 40  1  0
 24 41  1  0
 27 42  1  0
M  ISO  8  28  14  29  14  30  14  31  14  32  14  33  14  34   3  35   8
M  ISO  7  36   8  37  13  38  13  39  13  40  13  41  13  42   3
M  END
>  <minimizedAffinity>  (1) 
-6.17865801

>  <minimizedRMSD>  (1) 
1.24565744

$$$$
