
     RDKit          3D

 44 47  0  0  1  0  0  0  0  0999 V2000
   44.6680   33.1140   41.2020 Br  0  0  0  0  0  0  0  0  0  0  0  0
   46.3270   34.0280   41.0320 C   0  0  0  0  0  0  0  0  0  0  0  0
   46.8690   34.7700   42.0660 C   0  0  0  0  0  0  0  0  0  0  0  0
   48.0810   35.4100   41.8470 C   0  0  0  0  0  0  0  0  0  0  0  0
   48.7530   35.3270   40.6430 C   0  0  0  0  0  0  0  0  0  0  0  0
   48.2140   34.5850   39.6080 C   0  0  0  0  0  0  0  0  0  0  0  0
   47.0020   33.9520   39.8440 C   0  0  0  0  0  0  0  0  0  0  0  0
   44.5090   35.8000   44.8360 C   0  0  0  0  0  0  0  0  0  0  0  0
   45.2000   35.7890   43.6140 C   0  0  0  0  0  0  0  0  0  0  0  0
   46.1310   34.8220   43.3160 C   0  0  0  0  0  0  0  0  0  0  0  0
   46.3190   33.8840   44.3030 N   0  0  0  0  0  0  0  0  0  0  0  0
   45.6560   33.9030   45.4650 C   0  0  0  0  0  0  0  0  0  0  0  0
   44.7640   34.8420   45.7330 N   0  0  0  0  0  0  0  0  0  0  0  0
   46.4720   33.1620   38.7540 C   0  0  0  0  0  0  0  0  0  0  0  0
   45.2530   33.3330   38.3790 O   0  0  0  0  0  0  0  0  0  0  0  0
   46.7970   29.4830   34.8200 C   0  0  0  0  0  0  0  0  0  0  0  0
   47.1200   30.7420   34.7540 C   0  0  0  0  0  0  0  0  0  0  0  0
   47.1200   31.5790   35.8780 N   0  0  0  0  0  0  0  0  0  0  0  0
   47.7070   32.6310   36.6540 C   0  0  0  0  0  0  0  0  0  0  0  0
   48.4710   33.6050   36.3380 O   0  0  0  0  0  0  0  0  0  0  0  0
   47.0670   32.1060   37.8890 C   0  0  2  0  0  0  0  0  0  0  0  0
   46.0840   31.4880   36.8900 C   0  0  2  0  0  0  0  0  0  0  0  0
   45.7900   29.7560   37.3650 S   0  0  0  0  0  0  0  0  0  0  0  0
   46.3970   28.7380   36.0210 C   0  0  0  0  0  0  0  0  0  0  0  0
   46.8470   28.7440   33.5350 C   0  0  0  0  0  0  0  0  0  0  0  0
   47.4880   31.2690   33.4470 C   0  0  0  0  0  0  0  0  0  0  0  0
   47.7080   32.5040   33.2210 O   0  0  0  0  0  0  0  0  0  0  0  0
   47.8200   31.5480   32.1500 O   0  0  0  0  0  0  0  0  0  0  0  0
   48.5219   36.0042   42.6609 H   0  0  0  0  0  0  0  0  0  0  0  0
   49.7121   35.8485   40.5082 H   0  0  0  0  0  0  0  0  0  0  0  0
   48.7250   34.5001   38.6376 H   0  0  0  0  0  0  0  0  0  0  0  0
   43.7691   36.5848   45.0521 H   0  0  0  0  0  0  0  0  0  0  0  0
   44.9908   36.5759   42.8743 H   0  0  0  0  0  0  0  0  0  0  0  0
   45.8569   33.1216   46.2127 H   0  0  0  0  0  0  0  0  0  0  0  0
   46.8000   33.9299   38.0380 H   0  0  0  0  0  0  0  0  0  0  0  0
   44.6710   33.4146   39.1757 H   0  0  0  0  0  0  0  0  0  0  0  0
   47.5948   31.5368   38.6683 H   0  0  0  0  0  0  0  0  0  0  0  0
   45.0790   31.8966   36.7084 H   0  0  0  0  0  0  0  0  0  0  0  0
   45.6010   28.0335   35.7381 H   0  0  0  0  0  0  0  0  0  0  0  0
   47.3036   28.2390   36.3938 H   0  0  0  0  0  0  0  0  0  0  0  0
   46.9200   27.6648   33.7352 H   0  0  0  0  0  0  0  0  0  0  0  0
   45.9329   28.9489   32.9584 H   0  0  0  0  0  0  0  0  0  0  0  0
   47.7251   29.0702   32.9584 H   0  0  0  0  0  0  0  0  0  0  0  0
   48.0088   32.4807   31.8770 H   0  0  0  0  0  0  0  0  0  0  0  0
  2  1  1  0
  2  3  2  0
  3 10  1  0
  4  3  1  0
  5  4  2  0
  6  7  2  0
  6  5  1  0
  7  2  1  0
  8 13  2  0
  9  8  1  0
 10  9  2  0
 10 11  1  0
 11 12  2  0
 12 13  1  0
 14 15  1  0
 14  7  1  0
 16 24  1  0
 17 16  2  0
 17 18  1  0
 18 19  1  0
 18 22  1  0
 19 21  1  0
 20 19  2  0
 21 14  1  0
 22 23  1  0
 22 21  1  0
 24 23  1  0
 25 16  1  0
 26 17  1  0
 27 26  2  0
 28 26  1  0
  4 29  1  0
  5 30  1  0
  6 31  1  0
  8 32  1  0
  9 33  1  0
 12 34  1  0
 14 35  1  0
 15 36  1  0
 21 37  1  1
 22 38  1  6
 24 39  1  0
 24 40  1  0
 25 41  1  0
 25 42  1  0
 25 43  1  0
 28 44  1  0
M  ISO  8  29  14  30  14  31  14  32  14  33  14  34  14  35   8  36   3
M  ISO  8  37  13  38  13  39  13  40  13  41   8  42   8  43   8  44   3
M  END
>  <minimizedAffinity>  (1) 
-6.63423395

>  <minimizedRMSD>  (1) 
3.29799032

$$$$
