
     RDKit          3D

 51 54  0  0  1  0  0  0  0  0999 V2000
   44.7360   34.6540   41.9160 C   0  0  0  0  0  0  0  0  0  0  0  0
   46.0180   34.5760   41.3710 C   0  0  0  0  0  0  0  0  0  0  0  0
   47.0970   34.4230   42.2360 C   0  0  0  0  0  0  0  0  0  0  0  0
   46.8460   34.3580   43.5700 N   0  0  0  0  0  0  0  0  0  0  0  0
   45.6070   34.4360   44.0820 C   0  0  0  0  0  0  0  0  0  0  0  0
   44.5810   34.5820   43.2520 N   0  0  0  0  0  0  0  0  0  0  0  0
   45.4730   34.3550   45.5180 C   0  0  0  0  0  0  0  0  0  0  0  0
   44.5390   34.9950   46.0520 O   0  0  0  0  0  0  0  0  0  0  0  0
   46.4180   33.5480   46.2310 N   0  0  0  0  0  0  0  0  0  0  0  0
   43.3800   34.8510   40.7610 S   0  0  0  0  0  0  0  0  0  0  0  0
   41.8270   35.2730   41.5820 C   0  0  0  0  0  0  0  0  0  0  0  0
   40.9320   36.1290   40.7430 C   0  0  0  0  0  0  0  0  0  0  0  0
   41.7570   36.3020   37.8230 Cl  0  0  0  0  0  0  0  0  0  0  0  0
   40.4540   35.3060   38.4080 C   0  0  0  0  0  0  0  0  0  0  0  0
   40.1660   35.3100   39.7820 C   0  0  0  0  0  0  0  0  0  0  0  0
   39.1270   34.5000   40.1560 C   0  0  0  0  0  0  0  0  0  0  0  0
   38.3480   33.6960   39.3390 C   0  0  0  0  0  0  0  0  0  0  0  0
   38.6670   33.7240   38.0020 C   0  0  0  0  0  0  0  0  0  0  0  0
   37.7320   32.7340   36.8790 Cl  0  0  0  0  0  0  0  0  0  0  0  0
   39.6990   34.5150   37.5490 C   0  0  0  0  0  0  0  0  0  0  0  0
   48.4780   34.3380   41.6670 C   0  0  0  0  0  0  0  0  0  0  0  0
   48.8120   33.0160   41.1230 C   0  0  0  0  0  0  0  0  0  0  0  0
   48.8860   32.7260   39.8350 C   0  0  0  0  0  0  0  0  0  0  0  0
   49.2120   31.4280   39.3760 N   0  0  0  0  0  0  0  0  0  0  0  0
   49.8690   30.5560   38.4740 C   0  0  0  0  0  0  0  0  0  0  0  0
   50.4670   30.7640   37.3640 O   0  0  0  0  0  0  0  0  0  0  0  0
   49.6100   29.3410   39.2790 C   0  0  0  0  0  0  0  0  0  0  0  0
   48.7060   30.2470   40.0510 C   0  0  1  0  0  0  0  0  0  0  0  0
   49.3120   30.3880   41.7770 S   0  0  0  0  0  0  0  0  0  0  0  0
   49.0460   32.0920   42.2590 C   0  0  0  0  0  0  0  0  0  0  0  0
   48.6210   33.7860   38.8720 C   0  0  0  0  0  0  0  0  0  0  0  0
   47.5540   33.8600   38.2080 O   0  0  0  0  0  0  0  0  0  0  0  0
   48.6390   34.8700   38.0520 O   0  0  0  0  0  0  0  0  0  0  0  0
   46.1720   34.6341   40.2834 H   0  0  0  0  0  0  0  0  0  0  0  0
   46.3551   33.4654   47.2558 H   0  0  0  0  0  0  0  0  0  0  0  0
   47.1603   33.0504   45.7188 H   0  0  0  0  0  0  0  0  0  0  0  0
   41.2944   34.3413   41.8233 H   0  0  0  0  0  0  0  0  0  0  0  0
   42.0797   35.8493   42.4843 H   0  0  0  0  0  0  0  0  0  0  0  0
   40.2300   36.6658   41.3980 H   0  0  0  0  0  0  0  0  0  0  0  0
   41.5540   36.8404   40.1799 H   0  0  0  0  0  0  0  0  0  0  0  0
   38.8826   34.4859   41.2284 H   0  0  0  0  0  0  0  0  0  0  0  0
   37.5291   33.0768   39.7339 H   0  0  0  0  0  0  0  0  0  0  0  0
   39.9335   34.5214   36.4743 H   0  0  0  0  0  0  0  0  0  0  0  0
   48.5667   35.0787   40.8586 H   0  0  0  0  0  0  0  0  0  0  0  0
   49.1783   34.5320   42.4928 H   0  0  0  0  0  0  0  0  0  0  0  0
   49.1122   28.5174   38.7462 H   0  0  0  0  0  0  0  0  0  0  0  0
   50.4024   28.7320   39.7385 H   0  0  0  0  0  0  0  0  0  0  0  0
   47.6326   30.0092   40.0852 H   0  0  0  0  0  0  0  0  0  0  0  0
   49.9345   32.4380   42.8076 H   0  0  0  0  0  0  0  0  0  0  0  0
   48.1331   32.1080   42.8724 H   0  0  0  0  0  0  0  0  0  0  0  0
   47.8646   35.0596   37.4651 H   0  0  0  0  0  0  0  0  0  0  0  0
  1  6  1  0
  2  1  2  0
  2  3  1  0
  3  4  2  0
  4  5  1  0
  5  7  1  0
  6  5  2  0
  7  8  2  0
  7  9  1  0
 10 11  1  0
 10  1  1  0
 12 11  1  0
 13 14  1  0
 14 15  2  0
 15 16  1  0
 15 12  1  0
 17 16  2  0
 18 17  1  0
 19 18  1  0
 20 18  2  0
 20 14  1  0
 21  3  1  0
 22 21  1  0
 22 30  1  0
 23 22  2  0
 24 23  1  0
 24 28  1  0
 25 27  1  0
 25 24  1  0
 26 25  2  0
 28 27  1  0
 28 29  1  0
 29 30  1  0
 31 23  1  0
 32 31  2  0
 33 31  1  0
  2 34  1  0
  9 35  1  0
  9 36  1  0
 11 37  1  0
 11 38  1  0
 12 39  1  0
 12 40  1  0
 16 41  1  0
 17 42  1  0
 20 43  1  0
 21 44  1  0
 21 45  1  0
 27 46  1  0
 27 47  1  0
 28 48  1  1
 30 49  1  0
 30 50  1  0
 33 51  1  0
M  ISO  8  34  14  37   8  38   8  39   8  40   8  41  14  42  14  43  14
M  ISO  8  44   8  45   8  46  13  47  13  48  13  49  13  50  13  51   3
M  END
>  <minimizedAffinity>  (1) 
-7.09331942

>  <minimizedRMSD>  (1) 
1.20870638

$$$$
