
     RDKit          3D

 41 44  0  0  0  0  0  0  0  0999 V2000
   45.2686   36.1657   43.1700 C   0  0  0  0  0  0  0  0  0  0  0  0
   45.8686   34.9122   42.9084 C   0  0  0  0  0  0  0  0  0  0  0  0
   45.8297   33.9501   43.8921 C   0  0  0  0  0  0  0  0  0  0  0  0
   45.2246   34.2244   45.0732 N   0  0  0  0  0  0  0  0  0  0  0  0
   44.6484   35.4419   45.3116 C   0  0  0  0  0  0  0  0  0  0  0  0
   44.6836   36.3687   44.3695 N   0  0  0  0  0  0  0  0  0  0  0  0
   46.4460   32.6572   43.6282 C   0  0  0  0  0  0  0  0  0  0  0  0
   45.6673   31.5748   43.2964 C   0  0  0  0  0  0  0  0  0  0  0  0
   46.2828   30.3680   43.0535 C   0  0  0  0  0  0  0  0  0  0  0  0
   47.6553   30.1834   43.1259 C   0  0  0  0  0  0  0  0  0  0  0  0
   48.3753   31.3048   43.4623 C   0  0  0  0  0  0  0  0  0  0  0  0
   47.7637   32.4864   43.6993 N   0  0  0  0  0  0  0  0  0  0  0  0
   46.4930   34.6838   41.6389 C   0  0  0  0  0  0  0  0  0  0  0  0
   47.6631   35.1368   41.4796 O   0  0  0  0  0  0  0  0  0  0  0  0
   45.2790   36.9478   42.4206 H   0  0  0  0  0  0  0  0  0  0  0  0
   44.1785   35.6106   46.2698 H   0  0  0  0  0  0  0  0  0  0  0  0
   44.6118   31.6584   43.2264 H   0  0  0  0  0  0  0  0  0  0  0  0
   45.6691   29.4934   42.7867 H   0  0  0  0  0  0  0  0  0  0  0  0
   48.1566   29.2590   42.9424 H   0  0  0  0  0  0  0  0  0  0  0  0
   49.4480   31.2476   43.5402 H   0  0  0  0  0  0  0  0  0  0  0  0
   40.3609   34.9303   39.9278 C   0  0  0  0  0  0  0  0  0  0  0  0
   40.0747   34.5873   38.8898 H   0  0  0  0  0  0  0  0  0  0  0  0
   41.8078   34.9232   40.1595 C   0  0  0  0  0  0  0  0  0  0  0  0
   42.3975   33.7536   40.1126 C   0  0  0  0  0  0  0  0  0  0  0  0
   41.6474   32.5315   39.8443 C   0  0  0  0  0  0  0  0  0  0  0  0
   40.4169   32.4026   39.6307 O   0  0  0  0  0  0  0  0  0  0  0  0
   42.2280   31.2743   39.7861 O   0  0  0  0  0  0  0  0  0  0  0  0
   43.7983   33.6294   40.3216 N   0  0  0  0  0  0  0  0  0  0  0  0
   44.9174   32.9075   40.8215 C   0  0  0  0  0  0  0  0  0  0  0  0
   45.0954   31.7703   41.3575 O   0  0  0  0  0  0  0  0  0  0  0  0
   45.8797   33.9623   40.5034 C   0  0  1  0  0  0  0  0  0  0  0  0
   44.7370   34.6663   39.8645 C   0  0  2  0  0  0  0  0  0  0  0  0
   44.2114   36.2022   40.6027 S   0  0  0  0  0  0  0  0  0  0  0  0
   42.4360   36.2147   40.4182 C   0  0  2  0  0  0  0  0  0  0  0  0
   42.0209   36.5860   41.4013 H   0  0  0  0  0  0  0  0  0  0  0  0
   39.8924   35.9494   39.9815 H   0  0  0  0  0  0  0  0  0  0  0  0
   39.7804   34.3660   40.7166 H   0  0  0  0  0  0  0  0  0  0  0  0
   41.8036   30.4120   40.0871 H   0  0  0  0  0  0  0  0  0  0  0  0
   46.6564   33.6452   39.7496 H   0  0  0  0  0  0  0  0  0  0  0  0
   44.8212   34.7114   38.7525 H   0  0  0  0  0  0  0  0  0  0  0  0
   42.1357   36.9848   39.6776 H   0  0  0  0  0  0  0  0  0  0  0  0
  1  6  2  0
  2  1  1  0
  2  3  2  0
  3  4  1  0
  4  5  2  0
  6  5  1  0
  7 12  1  0
  7  3  1  0
  8  7  2  0
  9 10  2  0
  9  8  1  0
 10 11  1  0
 11 12  2  0
 13  2  1  0
 14 13  2  0
  1 15  1  0
  5 16  1  0
  8 17  1  0
  9 18  1  0
 10 19  1  0
 11 20  1  0
 21 22  1  0
 21 23  1  0
 23 24  2  0
 24 25  1  0
 25 26  2  0
 25 27  1  0
 24 28  1  0
 28 29  1  0
 29 30  2  0
 29 31  1  0
 31 32  1  0
 32 33  1  0
 33 34  1  0
 34 35  1  1
 34 23  1  0
 32 28  1  0
 21 36  1  0
 21 37  1  0
 27 38  1  0
 31 39  1  6
 32 40  1  6
 34 41  1  0
 13 31  1  0
M  ISO  8  15  14  16  14  17  14  18  14  19  14  20  14  22   8  35  15
M  END
>  <DihAtoms>  (1) 
1,12,30,28

>  <DihDeg>  (1) 
59.99719830353079

$$$$
