
     RDKit          3D

 37 39  0  0  0  0  0  0  0  0999 V2000
   44.7351   35.3968   45.0275 C   0  0  0  0  0  0  0  0  0  0  0  0
   45.6149   34.9236   44.0473 C   0  0  0  0  0  0  0  0  0  0  0  0
   46.3458   33.7723   44.3318 C   0  0  0  0  0  0  0  0  0  0  0  0
   46.1799   33.1683   45.5211 N   0  0  0  0  0  0  0  0  0  0  0  0
   45.3286   33.6443   46.4432 C   0  0  0  0  0  0  0  0  0  0  0  0
   44.6015   34.7507   46.2167 N   0  0  0  0  0  0  0  0  0  0  0  0
   45.6850   35.7112   42.7731 C   0  0  0  0  0  0  0  0  0  0  0  0
   45.2308   36.9698   43.0712 F   0  0  0  0  0  0  0  0  0  0  0  0
   44.8027   35.0954   41.8867 F   0  0  0  0  0  0  0  0  0  0  0  0
   46.9668   35.6455   42.3013 F   0  0  0  0  0  0  0  0  0  0  0  0
   45.1406   33.0417   47.6724 O   0  0  0  0  0  0  0  0  0  0  0  0
   46.1462   32.2945   48.3156 C   0  0  0  0  0  0  0  0  0  0  0  0
   44.1468   36.2929   44.8428 H   0  0  0  0  0  0  0  0  0  0  0  0
   47.0138   33.4383   43.5509 H   0  0  0  0  0  0  0  0  0  0  0  0
   46.4080   31.3906   47.7214 H   0  0  0  0  0  0  0  0  0  0  0  0
   47.0545   32.9090   48.4688 H   0  0  0  0  0  0  0  0  0  0  0  0
   43.9744   26.7210   51.4782 C   0  0  0  0  0  0  0  0  0  0  0  0
   44.2646   25.9785   50.7074 H   0  0  0  0  0  0  0  0  0  0  0  0
   44.0972   28.1271   51.0635 C   0  0  0  0  0  0  0  0  0  0  0  0
   45.3413   28.5061   50.8253 C   0  0  0  0  0  0  0  0  0  0  0  0
   46.4583   27.5553   50.9816 C   0  0  0  0  0  0  0  0  0  0  0  0
   46.4639   26.3646   51.3199 O   0  0  0  0  0  0  0  0  0  0  0  0
   47.7787   27.8978   50.7494 O   0  0  0  0  0  0  0  0  0  0  0  0
   45.6453   29.8305   50.4078 N   0  0  0  0  0  0  0  0  0  0  0  0
   46.4658   30.9902   50.4596 C   0  0  0  0  0  0  0  0  0  0  0  0
   47.5835   31.2410   51.0264 O   0  0  0  0  0  0  0  0  0  0  0  0
   45.5685   31.7991   49.6271 C   0  0  0  0  0  0  0  0  0  0  0  0
   44.7962   30.5294   49.4270 C   0  0  0  0  0  0  0  0  0  0  0  0
   43.1380   30.5284   50.1550 S   0  0  0  0  0  0  0  0  0  0  0  0
   42.8690   28.9495   50.9638 C   0  0  0  0  0  0  0  0  0  0  0  0
   42.4631   29.1053   52.0012 H   0  0  0  0  0  0  0  0  0  0  0  0
   42.8986   26.5106   51.6696 H   0  0  0  0  0  0  0  0  0  0  0  0
   44.4620   26.5127   52.4746 H   0  0  0  0  0  0  0  0  0  0  0  0
   48.5529   27.6160   51.3237 H   0  0  0  0  0  0  0  0  0  0  0  0
   44.9780   32.5707   50.1653 H   0  0  0  0  0  0  0  0  0  0  0  0
   44.8512   30.0958   48.4056 H   0  0  0  0  0  0  0  0  0  0  0  0
   42.0727   28.3802   50.4401 H   0  0  0  0  0  0  0  0  0  0  0  0
  1  6  2  0
  2  3  2  0
  2  1  1  0
  3  4  1  0
  4  5  2  0
  5 11  1  0
  6  5  1  0
  7  8  1  0
  7  2  1  0
  9  7  1  0
 10  7  1  0
 11 12  1  0
  1 13  1  0
  3 14  1  0
 12 15  1  0
 12 16  1  0
 17 18  1  0
 17 19  1  0
 19 20  2  0
 20 21  1  0
 21 22  2  0
 21 23  1  0
 20 24  1  0
 24 25  1  0
 25 26  2  0
 25 27  1  0
 27 28  1  0
 28 29  1  0
 29 30  1  0
 30 31  1  0
 30 19  1  0
 28 24  1  0
 17 32  1  0
 17 33  1  0
 23 34  1  0
 27 35  1  0
 28 36  1  0
 30 37  1  0
 12 27  1  0
M  ISO  6  13  14  14  14  15   8  16   8  18   8  31  15
M  END
>  <DihAtoms>  (1) 
10,11,26,24

>  <DihDeg>  (1) 
-179.99972349958585

$$$$
