
     RDKit          3D

 37 39  0  0  0  0  0  0  0  0999 V2000
   44.7351   35.3968   45.0275 C   0  0  0  0  0  0  0  0  0  0  0  0
   45.6149   34.9236   44.0473 C   0  0  0  0  0  0  0  0  0  0  0  0
   46.3458   33.7723   44.3318 C   0  0  0  0  0  0  0  0  0  0  0  0
   46.1799   33.1683   45.5211 N   0  0  0  0  0  0  0  0  0  0  0  0
   45.3286   33.6443   46.4432 C   0  0  0  0  0  0  0  0  0  0  0  0
   44.6015   34.7507   46.2167 N   0  0  0  0  0  0  0  0  0  0  0  0
   45.6850   35.7112   42.7731 C   0  0  0  0  0  0  0  0  0  0  0  0
   45.2308   36.9698   43.0712 F   0  0  0  0  0  0  0  0  0  0  0  0
   44.8027   35.0954   41.8867 F   0  0  0  0  0  0  0  0  0  0  0  0
   46.9668   35.6455   42.3013 F   0  0  0  0  0  0  0  0  0  0  0  0
   45.1406   33.0417   47.6724 O   0  0  0  0  0  0  0  0  0  0  0  0
   46.1462   32.2945   48.3156 C   0  0  0  0  0  0  0  0  0  0  0  0
   44.1468   36.2929   44.8428 H   0  0  0  0  0  0  0  0  0  0  0  0
   47.0138   33.4383   43.5509 H   0  0  0  0  0  0  0  0  0  0  0  0
   46.4080   31.3906   47.7214 H   0  0  0  0  0  0  0  0  0  0  0  0
   47.0545   32.9090   48.4688 H   0  0  0  0  0  0  0  0  0  0  0  0
   46.8585   32.7565   55.0284 C   0  0  0  0  0  0  0  0  0  0  0  0
   47.6332   33.5495   55.0511 H   0  0  0  0  0  0  0  0  0  0  0  0
   46.5700   32.2080   53.6942 C   0  0  0  0  0  0  0  0  0  0  0  0
   46.0363   33.0850   52.8611 C   0  0  0  0  0  0  0  0  0  0  0  0
   45.7788   34.4713   53.2947 C   0  0  0  0  0  0  0  0  0  0  0  0
   45.9830   35.0288   54.3808 O   0  0  0  0  0  0  0  0  0  0  0  0
   45.2199   35.4292   52.4671 O   0  0  0  0  0  0  0  0  0  0  0  0
   45.6994   32.7294   51.5266 N   0  0  0  0  0  0  0  0  0  0  0  0
   44.8186   32.7858   50.4123 C   0  0  0  0  0  0  0  0  0  0  0  0
   43.7553   33.4546   50.1763 O   0  0  0  0  0  0  0  0  0  0  0  0
   45.5685   31.7991   49.6271 C   0  0  2  0  0  0  0  0  0  0  0  0
   46.5888   31.8717   50.7236 C   0  0  2  0  0  0  0  0  0  0  0  0
   46.7731   30.3506   51.6890 S   0  0  0  0  0  0  0  0  0  0  0  0
   46.8850   30.7854   53.4263 C   0  0  2  0  0  0  0  0  0  0  0  0
   46.1860   30.1482   54.0350 H   0  0  0  0  0  0  0  0  0  0  0  0
   47.2847   31.9395   55.6523 H   0  0  0  0  0  0  0  0  0  0  0  0
   45.9270   33.0554   55.5913 H   0  0  0  0  0  0  0  0  0  0  0  0
   44.5210   36.0928   52.7497 H   0  0  0  0  0  0  0  0  0  0  0  0
   45.1046   30.7928   49.5495 H   0  0  0  0  0  0  0  0  0  0  0  0
   47.5471   32.3621   50.4492 H   0  0  0  0  0  0  0  0  0  0  0  0
   47.8935   30.5395   53.8197 H   0  0  0  0  0  0  0  0  0  0  0  0
  1  6  2  0
  2  3  2  0
  2  1  1  0
  3  4  1  0
  4  5  2  0
  5 11  1  0
  6  5  1  0
  7  8  1  0
  7  2  1  0
  9  7  1  0
 10  7  1  0
 11 12  1  0
  1 13  1  0
  3 14  1  0
 12 15  1  0
 12 16  1  0
 17 18  1  0
 17 19  1  0
 19 20  2  0
 20 21  1  0
 21 22  2  0
 21 23  1  0
 20 24  1  0
 24 25  1  0
 25 26  2  0
 25 27  1  0
 27 28  1  0
 28 29  1  0
 29 30  1  0
 30 31  1  1
 30 19  1  0
 28 24  1  0
 17 32  1  0
 17 33  1  0
 23 34  1  0
 27 35  1  6
 28 36  1  6
 30 37  1  0
 12 27  1  0
M  ISO  6  13  14  14  14  15   8  16   8  18   8  31  15
M  END
>  <DihAtoms>  (1) 
10,11,26,24

>  <DihDeg>  (1) 
-179.99972349958585

$$$$
