
     RDKit          3D

 57 61  0  0  0  0  0  0  0  0999 V2000
   46.8613   34.4529   42.3168 C   0  0  0  0  0  0  0  0  0  0  0  0
   47.9270   35.3230   42.1412 C   0  0  0  0  0  0  0  0  0  0  0  0
   48.6677   35.4385   40.9846 C   0  0  0  0  0  0  0  0  0  0  0  0
   48.3715   34.6629   39.9050 C   0  0  0  0  0  0  0  0  0  0  0  0
   47.3272   33.7781   40.0089 C   0  0  0  0  0  0  0  0  0  0  0  0
   46.9711   32.9699   38.9688 C   0  0  0  0  0  0  0  0  0  0  0  0
   45.9365   32.0730   39.0240 C   0  0  0  0  0  0  0  0  0  0  0  0
   45.2245   32.0083   40.2331 C   0  0  0  0  0  0  0  0  0  0  0  0
   45.6116   32.8394   41.2634 C   0  0  0  0  0  0  0  0  0  0  0  0
   46.6236   33.7110   41.1977 C   0  0  0  0  0  0  0  0  0  0  0  0
   44.6729   35.2513   45.2538 C   0  0  0  0  0  0  0  0  0  0  0  0
   45.2140   35.3580   43.9769 C   0  0  0  0  0  0  0  0  0  0  0  0
   46.2176   34.4734   43.5777 C   0  0  0  0  0  0  0  0  0  0  0  0
   46.5680   33.5682   44.5235 N   0  0  0  0  0  0  0  0  0  0  0  0
   46.0520   33.4702   45.7338 C   0  0  0  0  0  0  0  0  0  0  0  0
   45.1058   34.3202   46.0811 N   0  0  0  0  0  0  0  0  0  0  0  0
   46.6326   32.3668   46.5696 C   0  0  0  0  0  0  0  0  0  0  0  0
   45.6513   31.6151   47.1523 F   0  0  0  0  0  0  0  0  0  0  0  0
   47.4932   32.8940   47.5188 F   0  0  0  0  0  0  0  0  0  0  0  0
   47.4712   31.5726   45.7568 F   0  0  0  0  0  0  0  0  0  0  0  0
   44.7984   36.3543   42.9799 C   0  0  0  0  0  0  0  0  0  0  0  0
   43.6947   35.9309   42.0816 C   0  0  0  0  0  0  0  0  0  0  0  0
   44.7694   32.6469   42.4060 N   0  0  0  0  0  0  0  0  0  0  0  0
   48.2560   35.9968   42.9434 H   0  0  0  0  0  0  0  0  0  0  0  0
   49.4925   36.1321   40.8913 H   0  0  0  0  0  0  0  0  0  0  0  0
   48.9346   34.7431   39.0097 H   0  0  0  0  0  0  0  0  0  0  0  0
   47.5667   33.0735   38.0621 H   0  0  0  0  0  0  0  0  0  0  0  0
   45.6885   31.4519   38.1760 H   0  0  0  0  0  0  0  0  0  0  0  0
   44.4239   31.2968   40.2385 H   0  0  0  0  0  0  0  0  0  0  0  0
   43.8993   35.9575   45.5176 H   0  0  0  0  0  0  0  0  0  0  0  0
   45.6729   36.7107   42.3986 H   0  0  0  0  0  0  0  0  0  0  0  0
   44.4505   37.2580   43.5600 H   0  0  0  0  0  0  0  0  0  0  0  0
   42.7706   35.7487   42.6674 H   0  0  0  0  0  0  0  0  0  0  0  0
   43.9880   35.1236   41.4253 H   0  0  0  0  0  0  0  0  0  0  0  0
   44.7571   31.9700   43.1990 H   0  0  0  0  0  0  0  0  0  0  0  0
   43.9179   33.1161   42.7780 H   0  0  0  0  0  0  0  0  0  0  0  0
   40.4545   40.0305   44.7829 C   0  0  0  0  0  0  0  0  0  0  0  0
   41.1620   40.6166   45.4068 H   0  0  0  0  0  0  0  0  0  0  0  0
   41.1562   39.0674   43.9108 C   0  0  0  0  0  0  0  0  0  0  0  0
   41.9533   39.5589   42.9770 C   0  0  0  0  0  0  0  0  0  0  0  0
   42.1342   41.0184   42.8168 C   0  0  0  0  0  0  0  0  0  0  0  0
   41.5753   41.8975   43.5152 O   0  0  0  0  0  0  0  0  0  0  0  0
   42.9230   41.6379   41.9017 O   0  0  0  0  0  0  0  0  0  0  0  0
   42.6465   38.6793   42.0976 N   0  0  0  0  0  0  0  0  0  0  0  0
   43.9378   38.3796   41.5164 C   0  0  0  0  0  0  0  0  0  0  0  0
   45.0720   38.9591   41.3862 O   0  0  0  0  0  0  0  0  0  0  0  0
   43.3765   37.0814   41.1246 C   0  0  2  0  0  0  0  0  0  0  0  0
   41.9859   37.5774   41.3953 C   0  0  1  0  0  0  0  0  0  0  0  0
   41.0402   36.6469   42.6127 S   0  0  0  0  0  0  0  0  0  0  0  0
   40.9401   37.6168   44.1344 C   0  0  2  0  0  0  0  0  0  0  0  0
   39.9334   37.4791   44.6169 H   0  0  0  0  0  0  0  0  0  0  0  0
   39.8135   39.4720   45.5024 H   0  0  0  0  0  0  0  0  0  0  0  0
   39.7328   40.6779   44.2239 H   0  0  0  0  0  0  0  0  0  0  0  0
   43.5877   42.3407   42.1931 H   0  0  0  0  0  0  0  0  0  0  0  0
   43.4724   36.7843   40.0574 H   0  0  0  0  0  0  0  0  0  0  0  0
   41.4205   37.8912   40.4955 H   0  0  0  0  0  0  0  0  0  0  0  0
   41.7458   37.2776   44.8492 H   0  0  0  0  0  0  0  0  0  0  0  0
  1 13  1  0
  2  1  2  0
  3  2  1  0
  4  5  1  0
  4  3  2  0
  5 10  2  0
  6  7  2  0
  6  5  1  0
  7  8  1  0
  8  9  2  0
  9 23  1  0
 10  9  1  0
 10  1  1  0
 11 16  2  0
 12 11  1  0
 13 12  2  0
 13 14  1  0
 14 15  2  0
 15 16  1  0
 15 17  1  0
 17 18  1  0
 17 19  1  0
 20 17  1  0
 21 12  1  0
 22 21  1  0
  2 24  1  0
  3 25  1  0
  4 26  1  0
  6 27  1  0
  7 28  1  0
  8 29  1  0
 11 30  1  0
 21 31  1  0
 21 32  1  0
 22 33  1  0
 22 34  1  0
 23 35  1  0
 23 36  1  0
 37 38  1  0
 37 39  1  0
 39 40  2  0
 40 41  1  0
 41 42  2  0
 41 43  1  0
 40 44  1  0
 44 45  1  0
 45 46  2  0
 45 47  1  0
 47 48  1  0
 48 49  1  0
 49 50  1  0
 50 51  1  1
 50 39  1  0
 48 44  1  0
 37 52  1  0
 37 53  1  0
 43 54  1  0
 47 55  1  6
 48 56  1  6
 50 57  1  0
 22 47  1  0
M  ISO  8  24  14  25  14  26  14  27  14  28  14  29  14  30  14  31   8
M  ISO  5  32   8  33   8  34   8  38   8  51  15
M  END
>  <DihAtoms>  (1) 
20,21,46,44

>  <DihDeg>  (1) 
-60.0036438973421

$$$$
