
     RDKit          3D

 51 55  0  0  0  0  0  0  0  0999 V2000
   47.9150   33.1697   38.1878 C   0  0  2  0  0  0  0  0  0  0  0  0
   48.9216   32.3293   38.8668 C   0  0  0  0  0  0  0  0  0  0  0  0
   49.0782   32.6756   40.2246 N   0  0  0  0  0  0  0  0  0  0  0  0
   49.5033   33.0519   41.5186 C   0  0  0  0  0  0  0  0  0  0  0  0
   50.7074   33.1737   41.9328 O   0  0  0  0  0  0  0  0  0  0  0  0
   48.1579   33.2065   42.0548 C   0  0  2  0  0  0  0  0  0  0  0  0
   47.7672   32.5784   40.7385 C   0  0  1  0  0  0  0  0  0  0  0  0
   46.8543   33.6553   39.6025 S   0  0  0  0  0  0  0  0  0  0  0  0
   47.8183   34.6132   42.2686 C   0  0  0  0  0  0  0  0  0  0  0  0
   48.3266   35.6125   41.7135 O   0  0  0  0  0  0  0  0  0  0  0  0
   44.7739   35.7927   43.9952 C   0  0  0  0  0  0  0  0  0  0  0  0
   45.8152   35.6876   43.0563 C   0  0  0  0  0  0  0  0  0  0  0  0
   46.7779   34.6881   43.2513 C   0  0  0  0  0  0  0  0  0  0  0  0
   46.6716   33.8646   44.3301 N   0  0  0  0  0  0  0  0  0  0  0  0
   45.6462   33.9983   45.2191 C   0  0  0  0  0  0  0  0  0  0  0  0
   44.6908   34.9599   45.0612 N   0  0  0  0  0  0  0  0  0  0  0  0
   47.0489   32.3131   37.2973 C   0  0  0  0  0  0  0  0  0  0  0  0
   48.4716   34.3537   37.4719 C   0  0  0  0  0  0  0  0  0  0  0  0
   48.6044   31.2533   38.8213 H   0  0  0  0  0  0  0  0  0  0  0  0
   49.9118   32.3495   38.3627 H   0  0  0  0  0  0  0  0  0  0  0  0
   48.0012   32.5278   42.9141 H   0  0  0  0  0  0  0  0  0  0  0  0
   47.3533   31.5468   40.8214 H   0  0  0  0  0  0  0  0  0  0  0  0
   44.0443   36.5688   43.8254 H   0  0  0  0  0  0  0  0  0  0  0  0
   45.8460   36.3736   42.2165 H   0  0  0  0  0  0  0  0  0  0  0  0
   45.5893   33.3254   46.0699 H   0  0  0  0  0  0  0  0  0  0  0  0
   45.9962   32.6666   37.2830 H   0  0  0  0  0  0  0  0  0  0  0  0
   47.4706   32.2224   36.2599 H   0  0  0  0  0  0  0  0  0  0  0  0
   47.0131   31.2655   37.6881 H   0  0  0  0  0  0  0  0  0  0  0  0
   49.2099   33.9884   36.7385 H   0  0  0  0  0  0  0  0  0  0  0  0
   49.0006   34.9748   38.2328 H   0  0  0  0  0  0  0  0  0  0  0  0
   47.1543   38.2762   32.1935 C   0  0  0  0  0  0  0  0  0  0  0  0
   47.9598   38.1878   31.4293 H   0  0  0  0  0  0  0  0  0  0  0  0
   47.4496   37.4236   33.3749 C   0  0  0  0  0  0  0  0  0  0  0  0
   46.5721   36.5233   33.7888 C   0  0  0  0  0  0  0  0  0  0  0  0
   45.2993   36.3251   33.1212 C   0  0  0  0  0  0  0  0  0  0  0  0
   44.4570   35.4808   33.4931 O   0  0  0  0  0  0  0  0  0  0  0  0
   44.2572   36.4607   32.2351 O   0  0  0  0  0  0  0  0  0  0  0  0
   46.8766   35.7179   34.9167 N   0  0  0  0  0  0  0  0  0  0  0  0
   46.8403   34.4651   35.5545 C   0  0  0  0  0  0  0  0  0  0  0  0
   46.4825   33.2818   35.2212 O   0  0  0  0  0  0  0  0  0  0  0  0
   47.3916   35.0899   36.7802 C   0  0  2  0  0  0  0  0  0  0  0  0
   47.5954   36.3358   36.0541 C   0  0  1  0  0  0  0  0  0  0  0  0
   49.1866   36.7587   35.3270 S   0  0  0  0  0  0  0  0  0  0  0  0
   48.7898   37.7934   33.8734 C   0  0  2  0  0  0  0  0  0  0  0  0
   48.7202   38.8565   34.2131 H   0  0  0  0  0  0  0  0  0  0  0  0
   47.1372   39.3310   32.5585 H   0  0  0  0  0  0  0  0  0  0  0  0
   46.1887   38.0665   31.7223 H   0  0  0  0  0  0  0  0  0  0  0  0
   43.9202   37.2861   31.8000 H   0  0  0  0  0  0  0  0  0  0  0  0
   46.5222   35.2084   37.5005 H   0  0  0  0  0  0  0  0  0  0  0  0
   47.0770   37.2405   36.4697 H   0  0  0  0  0  0  0  0  0  0  0  0
   49.5719   37.6750   33.0851 H   0  0  0  0  0  0  0  0  0  0  0  0
  1  2  1  0
  1  8  1  0
  2  3  1  0
  3  7  1  0
  3  4  1  0
  4  5  2  0
  4  6  1  0
  6  9  1  0
  7  8  1  0
  7  6  1  0
  9 13  1  0
 10  9  2  0
 11 16  2  0
 12 13  2  0
 12 11  1  0
 13 14  1  0
 14 15  2  0
 16 15  1  0
  1 17  1  6
 18  1  1  0
  2 19  1  0
  2 20  1  0
  6 21  1  1
  7 22  1  1
 11 23  1  0
 12 24  1  0
 15 25  1  0
 17 26  1  0
 17 27  1  0
 17 28  1  0
 18 29  1  0
 18 30  1  0
 31 32  1  0
 31 33  1  0
 33 34  2  0
 34 35  1  0
 35 36  2  0
 35 37  1  0
 34 38  1  0
 38 39  1  0
 39 40  2  0
 39 41  1  0
 41 42  1  0
 42 43  1  0
 43 44  1  0
 44 45  1  1
 44 33  1  0
 42 38  1  0
 31 46  1  0
 31 47  1  0
 37 48  1  0
 41 49  1  1
 42 50  1  1
 44 51  1  0
 18 41  1  0
M  ISO  8  19  13  20  13  21  13  22  13  23  14  24  14  25  14  26   8
M  ISO  6  27   8  28   8  29   8  30   8  32   8  45  15
M  END
>  <DihAtoms>  (1) 
0,17,40,38

>  <DihDeg>  (1) 
-178.9096959064092

$$$$
