
     RDKit          3D

 37 39  0  0  0  0  0  0  0  0999 V2000
   44.7351   35.3968   45.0275 C   0  0  0  0  0  0  0  0  0  0  0  0
   45.6149   34.9236   44.0473 C   0  0  0  0  0  0  0  0  0  0  0  0
   46.3458   33.7723   44.3318 C   0  0  0  0  0  0  0  0  0  0  0  0
   46.1799   33.1683   45.5211 N   0  0  0  0  0  0  0  0  0  0  0  0
   45.3286   33.6443   46.4432 C   0  0  0  0  0  0  0  0  0  0  0  0
   44.6015   34.7507   46.2167 N   0  0  0  0  0  0  0  0  0  0  0  0
   45.6850   35.7112   42.7731 C   0  0  0  0  0  0  0  0  0  0  0  0
   45.2308   36.9698   43.0712 F   0  0  0  0  0  0  0  0  0  0  0  0
   44.8027   35.0954   41.8867 F   0  0  0  0  0  0  0  0  0  0  0  0
   46.9668   35.6455   42.3013 F   0  0  0  0  0  0  0  0  0  0  0  0
   45.1406   33.0417   47.6724 O   0  0  0  0  0  0  0  0  0  0  0  0
   46.1462   32.2945   48.3156 C   0  0  0  0  0  0  0  0  0  0  0  0
   44.1468   36.2929   44.8428 H   0  0  0  0  0  0  0  0  0  0  0  0
   47.0138   33.4383   43.5509 H   0  0  0  0  0  0  0  0  0  0  0  0
   46.4080   31.3906   47.7214 H   0  0  0  0  0  0  0  0  0  0  0  0
   47.0545   32.9090   48.4688 H   0  0  0  0  0  0  0  0  0  0  0  0
   40.8754   33.0262   52.4948 C   0  0  0  0  0  0  0  0  0  0  0  0
   40.2616   33.6964   51.8595 H   0  0  0  0  0  0  0  0  0  0  0  0
   42.2441   32.7918   52.0093 C   0  0  0  0  0  0  0  0  0  0  0  0
   42.2979   32.1429   50.8585 C   0  0  0  0  0  0  0  0  0  0  0  0
   41.0599   31.7202   50.1769 C   0  0  0  0  0  0  0  0  0  0  0  0
   39.8726   31.8668   50.4949 O   0  0  0  0  0  0  0  0  0  0  0  0
   41.0567   31.0363   48.9740 O   0  0  0  0  0  0  0  0  0  0  0  0
   43.5397   31.8365   50.2381 N   0  0  0  0  0  0  0  0  0  0  0  0
   44.3823   30.9419   49.5236 C   0  0  0  0  0  0  0  0  0  0  0  0
   44.1817   29.8009   48.9840 O   0  0  0  0  0  0  0  0  0  0  0  0
   45.5685   31.7991   49.6271 C   0  0  2  0  0  0  0  0  0  0  0  0
   44.6407   32.8158   50.2222 C   0  0  2  0  0  0  0  0  0  0  0  0
   44.9540   33.1998   51.9640 S   0  0  0  0  0  0  0  0  0  0  0  0
   43.3815   33.2781   52.8246 C   0  0  2  0  0  0  0  0  0  0  0  0
   43.4226   32.6713   53.7709 H   0  0  0  0  0  0  0  0  0  0  0  0
   40.9417   33.5584   53.4698 H   0  0  0  0  0  0  0  0  0  0  0  0
   40.3322   32.0717   52.7553 H   0  0  0  0  0  0  0  0  0  0  0  0
   40.4531   30.2638   48.7560 H   0  0  0  0  0  0  0  0  0  0  0  0
   46.3435   31.4632   50.3484 H   0  0  0  0  0  0  0  0  0  0  0  0
   44.4353   33.7022   49.5847 H   0  0  0  0  0  0  0  0  0  0  0  0
   43.1842   34.3141   53.1712 H   0  0  0  0  0  0  0  0  0  0  0  0
  1  6  2  0
  2  3  2  0
  2  1  1  0
  3  4  1  0
  4  5  2  0
  5 11  1  0
  6  5  1  0
  7  8  1  0
  7  2  1  0
  9  7  1  0
 10  7  1  0
 11 12  1  0
  1 13  1  0
  3 14  1  0
 12 15  1  0
 12 16  1  0
 17 18  1  0
 17 19  1  0
 19 20  2  0
 20 21  1  0
 21 22  2  0
 21 23  1  0
 20 24  1  0
 24 25  1  0
 25 26  2  0
 25 27  1  0
 27 28  1  0
 28 29  1  0
 29 30  1  0
 30 31  1  1
 30 19  1  0
 28 24  1  0
 17 32  1  0
 17 33  1  0
 23 34  1  0
 27 35  1  1
 28 36  1  6
 30 37  1  0
 12 27  1  0
M  ISO  6  13  14  14  14  15   8  16   8  18   8  31  15
M  END
>  <DihAtoms>  (1) 
10,11,26,24

>  <DihDeg>  (1) 
-179.99972349958585

$$$$
