
     RDKit          3D

 37 39  0  0  0  0  0  0  0  0999 V2000
   44.7351   35.3968   45.0275 C   0  0  0  0  0  0  0  0  0  0  0  0
   45.6149   34.9236   44.0473 C   0  0  0  0  0  0  0  0  0  0  0  0
   46.3458   33.7723   44.3318 C   0  0  0  0  0  0  0  0  0  0  0  0
   46.1799   33.1683   45.5211 N   0  0  0  0  0  0  0  0  0  0  0  0
   45.3286   33.6443   46.4432 C   0  0  0  0  0  0  0  0  0  0  0  0
   44.6015   34.7507   46.2167 N   0  0  0  0  0  0  0  0  0  0  0  0
   45.6850   35.7112   42.7731 C   0  0  0  0  0  0  0  0  0  0  0  0
   45.2308   36.9698   43.0712 F   0  0  0  0  0  0  0  0  0  0  0  0
   44.8027   35.0954   41.8867 F   0  0  0  0  0  0  0  0  0  0  0  0
   46.9668   35.6455   42.3013 F   0  0  0  0  0  0  0  0  0  0  0  0
   45.1406   33.0417   47.6724 O   0  0  0  0  0  0  0  0  0  0  0  0
   46.1462   32.2945   48.3156 C   0  0  0  0  0  0  0  0  0  0  0  0
   44.1468   36.2929   44.8428 H   0  0  0  0  0  0  0  0  0  0  0  0
   47.0138   33.4383   43.5509 H   0  0  0  0  0  0  0  0  0  0  0  0
   46.4080   31.3906   47.7214 H   0  0  0  0  0  0  0  0  0  0  0  0
   47.0545   32.9090   48.4688 H   0  0  0  0  0  0  0  0  0  0  0  0
   45.8842   26.8952   52.3852 C   0  0  0  0  0  0  0  0  0  0  0  0
   46.6098   26.2543   51.8446 H   0  0  0  0  0  0  0  0  0  0  0  0
   45.4943   28.1249   51.6781 C   0  0  0  0  0  0  0  0  0  0  0  0
   46.4878   28.9810   51.5097 C   0  0  0  0  0  0  0  0  0  0  0  0
   47.8398   28.6695   52.0110 C   0  0  0  0  0  0  0  0  0  0  0  0
   48.2696   27.6754   52.6104 O   0  0  0  0  0  0  0  0  0  0  0  0
   48.9148   29.5286   51.8658 O   0  0  0  0  0  0  0  0  0  0  0  0
   46.2930   30.2197   50.8401 N   0  0  0  0  0  0  0  0  0  0  0  0
   46.5266   31.6170   50.7232 C   0  0  0  0  0  0  0  0  0  0  0  0
   47.2945   32.4263   51.3468 O   0  0  0  0  0  0  0  0  0  0  0  0
   45.5685   31.7991   49.6271 C   0  0  2  0  0  0  0  0  0  0  0  0
   45.4541   30.3039   49.6316 C   0  0  2  0  0  0  0  0  0  0  0  0
   43.8351   29.6694   50.1376 S   0  0  0  0  0  0  0  0  0  0  0  0
   44.0855   28.2821   51.2476 C   0  0  2  0  0  0  0  0  0  0  0  0
   43.4461   28.3953   52.1660 H   0  0  0  0  0  0  0  0  0  0  0  0
   44.9793   26.2561   52.4900 H   0  0  0  0  0  0  0  0  0  0  0  0
   46.1958   27.0829   53.4537 H   0  0  0  0  0  0  0  0  0  0  0  0
   49.5983   29.7158   52.5774 H   0  0  0  0  0  0  0  0  0  0  0  0
   44.6131   32.2953   49.9006 H   0  0  0  0  0  0  0  0  0  0  0  0
   45.8950   29.7910   48.7502 H   0  0  0  0  0  0  0  0  0  0  0  0
   43.7258   27.3434   50.7766 H   0  0  0  0  0  0  0  0  0  0  0  0
  1  6  2  0
  2  3  2  0
  2  1  1  0
  3  4  1  0
  4  5  2  0
  5 11  1  0
  6  5  1  0
  7  8  1  0
  7  2  1  0
  9  7  1  0
 10  7  1  0
 11 12  1  0
  1 13  1  0
  3 14  1  0
 12 15  1  0
 12 16  1  0
 17 18  1  0
 17 19  1  0
 19 20  2  0
 20 21  1  0
 21 22  2  0
 21 23  1  0
 20 24  1  0
 24 25  1  0
 25 26  2  0
 25 27  1  0
 27 28  1  0
 28 29  1  0
 29 30  1  0
 30 31  1  1
 30 19  1  0
 28 24  1  0
 17 32  1  0
 17 33  1  0
 23 34  1  0
 27 35  1  1
 28 36  1  6
 30 37  1  0
 12 27  1  0
M  ISO  6  13  14  14  14  15   8  16   8  18   8  31  15
M  END
>  <DihAtoms>  (1) 
10,11,26,24

>  <DihDeg>  (1) 
-179.99972349958585

$$$$
