
     RDKit          3D

 37 39  0  0  0  0  0  0  0  0999 V2000
   44.7351   35.3968   45.0275 C   0  0  0  0  0  0  0  0  0  0  0  0
   45.6149   34.9236   44.0473 C   0  0  0  0  0  0  0  0  0  0  0  0
   46.3458   33.7723   44.3318 C   0  0  0  0  0  0  0  0  0  0  0  0
   46.1799   33.1683   45.5211 N   0  0  0  0  0  0  0  0  0  0  0  0
   45.3286   33.6443   46.4432 C   0  0  0  0  0  0  0  0  0  0  0  0
   44.6015   34.7507   46.2167 N   0  0  0  0  0  0  0  0  0  0  0  0
   45.6850   35.7112   42.7731 C   0  0  0  0  0  0  0  0  0  0  0  0
   45.2308   36.9698   43.0712 F   0  0  0  0  0  0  0  0  0  0  0  0
   44.8027   35.0954   41.8867 F   0  0  0  0  0  0  0  0  0  0  0  0
   46.9668   35.6455   42.3013 F   0  0  0  0  0  0  0  0  0  0  0  0
   45.1406   33.0417   47.6724 O   0  0  0  0  0  0  0  0  0  0  0  0
   46.1462   32.2945   48.3156 C   0  0  0  0  0  0  0  0  0  0  0  0
   44.1468   36.2929   44.8428 H   0  0  0  0  0  0  0  0  0  0  0  0
   47.0138   33.4383   43.5509 H   0  0  0  0  0  0  0  0  0  0  0  0
   46.4080   31.3906   47.7214 H   0  0  0  0  0  0  0  0  0  0  0  0
   47.0545   32.9090   48.4688 H   0  0  0  0  0  0  0  0  0  0  0  0
   40.4679   32.1735   51.9932 C   0  0  0  0  0  0  0  0  0  0  0  0
   39.7856   32.6268   51.2458 H   0  0  0  0  0  0  0  0  0  0  0  0
   41.8948   32.2153   51.6376 C   0  0  0  0  0  0  0  0  0  0  0  0
   42.1997   31.4960   50.5709 C   0  0  0  0  0  0  0  0  0  0  0  0
   41.1559   30.7431   49.8501 C   0  0  0  0  0  0  0  0  0  0  0  0
   39.9405   30.6427   50.0624 O   0  0  0  0  0  0  0  0  0  0  0  0
   41.4182   29.9723   48.7313 O   0  0  0  0  0  0  0  0  0  0  0  0
   43.5320   31.4270   50.0800 N   0  0  0  0  0  0  0  0  0  0  0  0
   44.6150   30.6882   49.5303 C   0  0  0  0  0  0  0  0  0  0  0  0
   44.7225   29.4882   49.1041 O   0  0  0  0  0  0  0  0  0  0  0  0
   45.5685   31.7991   49.6271 C   0  0  2  0  0  0  0  0  0  0  0  0
   44.3874   32.6262   50.0390 C   0  0  2  0  0  0  0  0  0  0  0  0
   44.4404   33.2249   51.7473 S   0  0  0  0  0  0  0  0  0  0  0  0
   42.8141   33.0187   52.4767 C   0  0  2  0  0  0  0  0  0  0  0  0
   42.8966   32.5240   53.4835 H   0  0  0  0  0  0  0  0  0  0  0  0
   40.3221   32.7914   52.9071 H   0  0  0  0  0  0  0  0  0  0  0  0
   40.1252   31.1473   52.3150 H   0  0  0  0  0  0  0  0  0  0  0  0
   41.0227   29.0662   48.5545 H   0  0  0  0  0  0  0  0  0  0  0  0
   46.3256   31.7143   50.4354 H   0  0  0  0  0  0  0  0  0  0  0  0
   44.0544   33.3820   49.2960 H   0  0  0  0  0  0  0  0  0  0  0  0
   42.3619   34.0091   52.6937 H   0  0  0  0  0  0  0  0  0  0  0  0
  1  6  2  0
  2  3  2  0
  2  1  1  0
  3  4  1  0
  4  5  2  0
  5 11  1  0
  6  5  1  0
  7  8  1  0
  7  2  1  0
  9  7  1  0
 10  7  1  0
 11 12  1  0
  1 13  1  0
  3 14  1  0
 12 15  1  0
 12 16  1  0
 17 18  1  0
 17 19  1  0
 19 20  2  0
 20 21  1  0
 21 22  2  0
 21 23  1  0
 20 24  1  0
 24 25  1  0
 25 26  2  0
 25 27  1  0
 27 28  1  0
 28 29  1  0
 29 30  1  0
 30 31  1  1
 30 19  1  0
 28 24  1  0
 17 32  1  0
 17 33  1  0
 23 34  1  0
 27 35  1  1
 28 36  1  6
 30 37  1  0
 12 27  1  0
M  ISO  6  13  14  14  14  15   8  16   8  18   8  31  15
M  END
>  <DihAtoms>  (1) 
10,11,26,24

>  <DihDeg>  (1) 
-179.99972349958585

$$$$
