
     RDKit          3D

 51 55  0  0  0  0  0  0  0  0999 V2000
   47.9150   33.1697   38.1878 C   0  0  2  0  0  0  0  0  0  0  0  0
   48.9216   32.3293   38.8668 C   0  0  0  0  0  0  0  0  0  0  0  0
   49.0782   32.6756   40.2246 N   0  0  0  0  0  0  0  0  0  0  0  0
   49.5033   33.0519   41.5186 C   0  0  0  0  0  0  0  0  0  0  0  0
   50.7074   33.1737   41.9328 O   0  0  0  0  0  0  0  0  0  0  0  0
   48.1579   33.2065   42.0548 C   0  0  2  0  0  0  0  0  0  0  0  0
   47.7672   32.5784   40.7385 C   0  0  1  0  0  0  0  0  0  0  0  0
   46.8543   33.6553   39.6025 S   0  0  0  0  0  0  0  0  0  0  0  0
   47.8183   34.6132   42.2686 C   0  0  0  0  0  0  0  0  0  0  0  0
   48.3266   35.6125   41.7135 O   0  0  0  0  0  0  0  0  0  0  0  0
   44.7739   35.7927   43.9952 C   0  0  0  0  0  0  0  0  0  0  0  0
   45.8152   35.6876   43.0563 C   0  0  0  0  0  0  0  0  0  0  0  0
   46.7779   34.6881   43.2513 C   0  0  0  0  0  0  0  0  0  0  0  0
   46.6716   33.8646   44.3301 N   0  0  0  0  0  0  0  0  0  0  0  0
   45.6462   33.9983   45.2191 C   0  0  0  0  0  0  0  0  0  0  0  0
   44.6908   34.9599   45.0612 N   0  0  0  0  0  0  0  0  0  0  0  0
   47.0489   32.3131   37.2973 C   0  0  0  0  0  0  0  0  0  0  0  0
   48.4716   34.3537   37.4719 C   0  0  0  0  0  0  0  0  0  0  0  0
   48.6044   31.2533   38.8213 H   0  0  0  0  0  0  0  0  0  0  0  0
   49.9118   32.3495   38.3627 H   0  0  0  0  0  0  0  0  0  0  0  0
   48.0012   32.5278   42.9141 H   0  0  0  0  0  0  0  0  0  0  0  0
   47.3533   31.5468   40.8214 H   0  0  0  0  0  0  0  0  0  0  0  0
   44.0443   36.5688   43.8254 H   0  0  0  0  0  0  0  0  0  0  0  0
   45.8460   36.3736   42.2165 H   0  0  0  0  0  0  0  0  0  0  0  0
   45.5893   33.3254   46.0699 H   0  0  0  0  0  0  0  0  0  0  0  0
   45.9962   32.6666   37.2830 H   0  0  0  0  0  0  0  0  0  0  0  0
   47.4706   32.2224   36.2599 H   0  0  0  0  0  0  0  0  0  0  0  0
   47.0131   31.2655   37.6881 H   0  0  0  0  0  0  0  0  0  0  0  0
   49.2099   33.9884   36.7385 H   0  0  0  0  0  0  0  0  0  0  0  0
   49.0006   34.9748   38.2328 H   0  0  0  0  0  0  0  0  0  0  0  0
   41.8089   34.9957   37.0481 C   0  0  0  0  0  0  0  0  0  0  0  0
   41.3163   34.5702   37.9519 H   0  0  0  0  0  0  0  0  0  0  0  0
   43.2851   34.8395   37.1268 C   0  0  0  0  0  0  0  0  0  0  0  0
   44.0785   35.8927   37.0111 C   0  0  0  0  0  0  0  0  0  0  0  0
   43.5566   37.2308   36.8062 C   0  0  0  0  0  0  0  0  0  0  0  0
   44.2859   38.2391   36.6960 O   0  0  0  0  0  0  0  0  0  0  0  0
   42.6807   38.2751   36.6277 O   0  0  0  0  0  0  0  0  0  0  0  0
   45.4847   35.7206   37.0930 N   0  0  0  0  0  0  0  0  0  0  0  0
   46.7359   36.1792   37.5419 C   0  0  0  0  0  0  0  0  0  0  0  0
   47.1420   37.1343   38.2916 O   0  0  0  0  0  0  0  0  0  0  0  0
   47.3916   35.0899   36.7802 C   0  0  2  0  0  0  0  0  0  0  0  0
   46.0875   34.5183   36.4741 C   0  0  1  0  0  0  0  0  0  0  0  0
   45.3860   33.1813   37.4536 S   0  0  0  0  0  0  0  0  0  0  0  0
   43.5753   33.4084   37.3479 C   0  0  2  0  0  0  0  0  0  0  0  0
   43.2104   32.8663   36.4404 H   0  0  0  0  0  0  0  0  0  0  0  0
   41.4734   34.4070   36.1609 H   0  0  0  0  0  0  0  0  0  0  0  0
   41.4765   36.0299   36.9121 H   0  0  0  0  0  0  0  0  0  0  0  0
   41.8145   38.2787   36.1442 H   0  0  0  0  0  0  0  0  0  0  0  0
   47.8259   35.5662   35.8458 H   0  0  0  0  0  0  0  0  0  0  0  0
   45.8402   34.4068   35.3848 H   0  0  0  0  0  0  0  0  0  0  0  0
   43.0793   33.0231   38.2713 H   0  0  0  0  0  0  0  0  0  0  0  0
  1  2  1  0
  1  8  1  0
  2  3  1  0
  3  7  1  0
  3  4  1  0
  4  5  2  0
  4  6  1  0
  6  9  1  0
  7  8  1  0
  7  6  1  0
  9 13  1  0
 10  9  2  0
 11 16  2  0
 12 13  2  0
 12 11  1  0
 13 14  1  0
 14 15  2  0
 16 15  1  0
  1 17  1  6
 18  1  1  0
  2 19  1  0
  2 20  1  0
  6 21  1  1
  7 22  1  1
 11 23  1  0
 12 24  1  0
 15 25  1  0
 17 26  1  0
 17 27  1  0
 17 28  1  0
 18 29  1  0
 18 30  1  0
 31 32  1  0
 31 33  1  0
 33 34  2  0
 34 35  1  0
 35 36  2  0
 35 37  1  0
 34 38  1  0
 38 39  1  0
 39 40  2  0
 39 41  1  0
 41 42  1  0
 42 43  1  0
 43 44  1  0
 44 45  1  6
 44 33  1  0
 42 38  1  0
 31 46  1  0
 31 47  1  0
 37 48  1  0
 41 49  1  6
 42 50  1  6
 44 51  1  0
 18 41  1  0
M  ISO  8  19  13  20  13  21  13  22  13  23  14  24  14  25  14  26   8
M  ISO  6  27   8  28   8  29   8  30   8  32   8  45  15
M  END
>  <DihAtoms>  (1) 
0,17,40,38

>  <DihDeg>  (1) 
-178.9096959064092

$$$$
