
     RDKit          3D

 37 39  0  0  0  0  0  0  0  0999 V2000
   44.7351   35.3968   45.0275 C   0  0  0  0  0  0  0  0  0  0  0  0
   45.6149   34.9236   44.0473 C   0  0  0  0  0  0  0  0  0  0  0  0
   46.3458   33.7723   44.3318 C   0  0  0  0  0  0  0  0  0  0  0  0
   46.1799   33.1683   45.5211 N   0  0  0  0  0  0  0  0  0  0  0  0
   45.3286   33.6443   46.4432 C   0  0  0  0  0  0  0  0  0  0  0  0
   44.6015   34.7507   46.2167 N   0  0  0  0  0  0  0  0  0  0  0  0
   45.6850   35.7112   42.7731 C   0  0  0  0  0  0  0  0  0  0  0  0
   45.2308   36.9698   43.0712 F   0  0  0  0  0  0  0  0  0  0  0  0
   44.8027   35.0954   41.8867 F   0  0  0  0  0  0  0  0  0  0  0  0
   46.9668   35.6455   42.3013 F   0  0  0  0  0  0  0  0  0  0  0  0
   45.1406   33.0417   47.6724 O   0  0  0  0  0  0  0  0  0  0  0  0
   46.1462   32.2945   48.3156 C   0  0  0  0  0  0  0  0  0  0  0  0
   44.1468   36.2929   44.8428 H   0  0  0  0  0  0  0  0  0  0  0  0
   47.0138   33.4383   43.5509 H   0  0  0  0  0  0  0  0  0  0  0  0
   46.4080   31.3906   47.7214 H   0  0  0  0  0  0  0  0  0  0  0  0
   47.0545   32.9090   48.4688 H   0  0  0  0  0  0  0  0  0  0  0  0
   42.0967   27.5689   50.9714 C   0  0  0  0  0  0  0  0  0  0  0  0
   41.9283   26.9706   50.0531 H   0  0  0  0  0  0  0  0  0  0  0  0
   42.7876   28.8503   50.7598 C   0  0  0  0  0  0  0  0  0  0  0  0
   44.0311   28.7211   50.3294 C   0  0  0  0  0  0  0  0  0  0  0  0
   44.6117   27.3839   50.1034 C   0  0  0  0  0  0  0  0  0  0  0  0
   44.1221   26.2561   50.2474 O   0  0  0  0  0  0  0  0  0  0  0  0
   45.9070   27.1894   49.6574 O   0  0  0  0  0  0  0  0  0  0  0  0
   44.8453   29.8559   50.0650 N   0  0  0  0  0  0  0  0  0  0  0  0
   46.0989   30.5238   50.1218 C   0  0  0  0  0  0  0  0  0  0  0  0
   47.2688   30.1504   50.4758 O   0  0  0  0  0  0  0  0  0  0  0  0
   45.5685   31.7991   49.6271 C   0  0  2  0  0  0  0  0  0  0  0  0
   44.2905   31.0482   49.4002 C   0  0  2  0  0  0  0  0  0  0  0  0
   42.9086   31.5706   50.4476 S   0  0  0  0  0  0  0  0  0  0  0  0
   42.0576   30.1078   51.0439 C   0  0  2  0  0  0  0  0  0  0  0  0
   41.8919   30.1768   52.1543 H   0  0  0  0  0  0  0  0  0  0  0  0
   41.0725   27.7873   51.3475 H   0  0  0  0  0  0  0  0  0  0  0  0
   42.5537   26.9552   51.8012 H   0  0  0  0  0  0  0  0  0  0  0  0
   46.5344   26.4883   50.0086 H   0  0  0  0  0  0  0  0  0  0  0  0
   45.4564   32.6010   50.3875 H   0  0  0  0  0  0  0  0  0  0  0  0
   44.0227   30.8769   48.3357 H   0  0  0  0  0  0  0  0  0  0  0  0
   41.0344   30.0573   50.6162 H   0  0  0  0  0  0  0  0  0  0  0  0
  1  6  2  0
  2  3  2  0
  2  1  1  0
  3  4  1  0
  4  5  2  0
  5 11  1  0
  6  5  1  0
  7  8  1  0
  7  2  1  0
  9  7  1  0
 10  7  1  0
 11 12  1  0
  1 13  1  0
  3 14  1  0
 12 15  1  0
 12 16  1  0
 17 18  1  0
 17 19  1  0
 19 20  2  0
 20 21  1  0
 21 22  2  0
 21 23  1  0
 20 24  1  0
 24 25  1  0
 25 26  2  0
 25 27  1  0
 27 28  1  0
 28 29  1  0
 29 30  1  0
 30 31  1  1
 30 19  1  0
 28 24  1  0
 17 32  1  0
 17 33  1  0
 23 34  1  0
 27 35  1  1
 28 36  1  6
 30 37  1  0
 12 27  1  0
M  ISO  6  13  14  14  14  15   8  16   8  18   8  31  15
M  END
>  <DihAtoms>  (1) 
10,11,26,24

>  <DihDeg>  (1) 
-179.99972349958585

$$$$
