
     RDKit          3D

 37 39  0  0  0  0  0  0  0  0999 V2000
   44.7351   35.3968   45.0275 C   0  0  0  0  0  0  0  0  0  0  0  0
   45.6149   34.9236   44.0473 C   0  0  0  0  0  0  0  0  0  0  0  0
   46.3458   33.7723   44.3318 C   0  0  0  0  0  0  0  0  0  0  0  0
   46.1799   33.1683   45.5211 N   0  0  0  0  0  0  0  0  0  0  0  0
   45.3286   33.6443   46.4432 C   0  0  0  0  0  0  0  0  0  0  0  0
   44.6015   34.7507   46.2167 N   0  0  0  0  0  0  0  0  0  0  0  0
   45.6850   35.7112   42.7731 C   0  0  0  0  0  0  0  0  0  0  0  0
   45.2308   36.9698   43.0712 F   0  0  0  0  0  0  0  0  0  0  0  0
   44.8027   35.0954   41.8867 F   0  0  0  0  0  0  0  0  0  0  0  0
   46.9668   35.6455   42.3013 F   0  0  0  0  0  0  0  0  0  0  0  0
   45.1406   33.0417   47.6724 O   0  0  0  0  0  0  0  0  0  0  0  0
   46.1462   32.2945   48.3156 C   0  0  0  0  0  0  0  0  0  0  0  0
   44.1468   36.2929   44.8428 H   0  0  0  0  0  0  0  0  0  0  0  0
   47.0138   33.4383   43.5509 H   0  0  0  0  0  0  0  0  0  0  0  0
   46.4080   31.3906   47.7214 H   0  0  0  0  0  0  0  0  0  0  0  0
   47.0545   32.9090   48.4688 H   0  0  0  0  0  0  0  0  0  0  0  0
   47.4354   31.8594   54.9437 C   0  0  0  0  0  0  0  0  0  0  0  0
   48.3701   32.4557   54.9625 H   0  0  0  0  0  0  0  0  0  0  0  0
   46.9323   31.5354   53.5998 C   0  0  0  0  0  0  0  0  0  0  0  0
   46.5532   32.5931   52.9029 C   0  0  0  0  0  0  0  0  0  0  0  0
   46.6511   33.9468   53.4808 C   0  0  0  0  0  0  0  0  0  0  0  0
   47.0562   34.3250   54.5877 O   0  0  0  0  0  0  0  0  0  0  0  0
   46.2663   35.0878   52.7991 O   0  0  0  0  0  0  0  0  0  0  0  0
   46.0471   32.4667   51.5806 N   0  0  0  0  0  0  0  0  0  0  0  0
   45.1231   32.8355   50.5652 C   0  0  0  0  0  0  0  0  0  0  0  0
   44.2260   33.7429   50.4926 O   0  0  0  0  0  0  0  0  0  0  0  0
   45.5685   31.7991   49.6271 C   0  0  2  0  0  0  0  0  0  0  0  0
   46.6560   31.5267   50.6230 C   0  0  2  0  0  0  0  0  0  0  0  0
   46.5588   29.9070   51.4271 S   0  0  0  0  0  0  0  0  0  0  0  0
   46.8940   30.1159   53.1773 C   0  0  2  0  0  0  0  0  0  0  0  0
   46.1146   29.5857   53.7911 H   0  0  0  0  0  0  0  0  0  0  0  0
   47.7086   30.9062   55.4487 H   0  0  0  0  0  0  0  0  0  0  0  0
   46.6405   32.2929   55.6176 H   0  0  0  0  0  0  0  0  0  0  0  0
   45.7599   35.8542   53.2053 H   0  0  0  0  0  0  0  0  0  0  0  0
   44.8829   30.9337   49.5051 H   0  0  0  0  0  0  0  0  0  0  0  0
   47.6782   31.8215   50.3027 H   0  0  0  0  0  0  0  0  0  0  0  0
   47.8459   29.6134   53.4490 H   0  0  0  0  0  0  0  0  0  0  0  0
  1  6  2  0
  2  3  2  0
  2  1  1  0
  3  4  1  0
  4  5  2  0
  5 11  1  0
  6  5  1  0
  7  8  1  0
  7  2  1  0
  9  7  1  0
 10  7  1  0
 11 12  1  0
  1 13  1  0
  3 14  1  0
 12 15  1  0
 12 16  1  0
 17 18  1  0
 17 19  1  0
 19 20  2  0
 20 21  1  0
 21 22  2  0
 21 23  1  0
 20 24  1  0
 24 25  1  0
 25 26  2  0
 25 27  1  0
 27 28  1  0
 28 29  1  0
 29 30  1  0
 30 31  1  1
 30 19  1  0
 28 24  1  0
 17 32  1  0
 17 33  1  0
 23 34  1  0
 27 35  1  6
 28 36  1  6
 30 37  1  0
 12 27  1  0
M  ISO  6  13  14  14  14  15   8  16   8  18   8  31  15
M  END
>  <DihAtoms>  (1) 
10,11,26,24

>  <DihDeg>  (1) 
-179.99972349958585

$$$$
