
     RDKit          3D

 51 55  0  0  0  0  0  0  0  0999 V2000
   47.9150   33.1697   38.1878 C   0  0  2  0  0  0  0  0  0  0  0  0
   48.9216   32.3293   38.8668 C   0  0  0  0  0  0  0  0  0  0  0  0
   49.0782   32.6756   40.2246 N   0  0  0  0  0  0  0  0  0  0  0  0
   49.5033   33.0519   41.5186 C   0  0  0  0  0  0  0  0  0  0  0  0
   50.7074   33.1737   41.9328 O   0  0  0  0  0  0  0  0  0  0  0  0
   48.1579   33.2065   42.0548 C   0  0  2  0  0  0  0  0  0  0  0  0
   47.7672   32.5784   40.7385 C   0  0  1  0  0  0  0  0  0  0  0  0
   46.8543   33.6553   39.6025 S   0  0  0  0  0  0  0  0  0  0  0  0
   47.8183   34.6132   42.2686 C   0  0  0  0  0  0  0  0  0  0  0  0
   48.3266   35.6125   41.7135 O   0  0  0  0  0  0  0  0  0  0  0  0
   44.7739   35.7927   43.9952 C   0  0  0  0  0  0  0  0  0  0  0  0
   45.8152   35.6876   43.0563 C   0  0  0  0  0  0  0  0  0  0  0  0
   46.7779   34.6881   43.2513 C   0  0  0  0  0  0  0  0  0  0  0  0
   46.6716   33.8646   44.3301 N   0  0  0  0  0  0  0  0  0  0  0  0
   45.6462   33.9983   45.2191 C   0  0  0  0  0  0  0  0  0  0  0  0
   44.6908   34.9599   45.0612 N   0  0  0  0  0  0  0  0  0  0  0  0
   47.0489   32.3131   37.2973 C   0  0  0  0  0  0  0  0  0  0  0  0
   48.4716   34.3537   37.4719 C   0  0  0  0  0  0  0  0  0  0  0  0
   48.6044   31.2533   38.8213 H   0  0  0  0  0  0  0  0  0  0  0  0
   49.9118   32.3495   38.3627 H   0  0  0  0  0  0  0  0  0  0  0  0
   48.0012   32.5278   42.9141 H   0  0  0  0  0  0  0  0  0  0  0  0
   47.3533   31.5468   40.8214 H   0  0  0  0  0  0  0  0  0  0  0  0
   44.0443   36.5688   43.8254 H   0  0  0  0  0  0  0  0  0  0  0  0
   45.8460   36.3736   42.2165 H   0  0  0  0  0  0  0  0  0  0  0  0
   45.5893   33.3254   46.0699 H   0  0  0  0  0  0  0  0  0  0  0  0
   45.9962   32.6666   37.2830 H   0  0  0  0  0  0  0  0  0  0  0  0
   47.4706   32.2224   36.2599 H   0  0  0  0  0  0  0  0  0  0  0  0
   47.0131   31.2655   37.6881 H   0  0  0  0  0  0  0  0  0  0  0  0
   49.2099   33.9884   36.7385 H   0  0  0  0  0  0  0  0  0  0  0  0
   49.0006   34.9748   38.2328 H   0  0  0  0  0  0  0  0  0  0  0  0
   43.7466   33.7951   32.7447 C   0  0  0  0  0  0  0  0  0  0  0  0
   43.5256   32.7235   32.5369 H   0  0  0  0  0  0  0  0  0  0  0  0
   44.8071   33.9261   33.7783 C   0  0  0  0  0  0  0  0  0  0  0  0
   44.5927   34.6383   34.8731 C   0  0  0  0  0  0  0  0  0  0  0  0
   43.3328   35.3152   35.1168 C   0  0  0  0  0  0  0  0  0  0  0  0
   43.1077   35.9912   36.1430 O   0  0  0  0  0  0  0  0  0  0  0  0
   42.0473   35.7743   34.9551 O   0  0  0  0  0  0  0  0  0  0  0  0
   45.6180   34.7467   35.8481 N   0  0  0  0  0  0  0  0  0  0  0  0
   46.0036   34.7836   37.2000 C   0  0  0  0  0  0  0  0  0  0  0  0
   45.4096   34.6220   38.3226 O   0  0  0  0  0  0  0  0  0  0  0  0
   47.3916   35.0899   36.7802 C   0  0  2  0  0  0  0  0  0  0  0  0
   47.0205   34.8680   35.3895 C   0  0  1  0  0  0  0  0  0  0  0  0
   47.3029   33.2884   34.5745 S   0  0  0  0  0  0  0  0  0  0  0  0
   45.9788   33.1515   33.3218 C   0  0  2  0  0  0  0  0  0  0  0  0
   46.3377   33.6419   32.3830 H   0  0  0  0  0  0  0  0  0  0  0  0
   44.1538   34.2524   31.8113 H   0  0  0  0  0  0  0  0  0  0  0  0
   42.8142   34.3116   32.9946 H   0  0  0  0  0  0  0  0  0  0  0  0
   41.5882   36.0426   34.1176 H   0  0  0  0  0  0  0  0  0  0  0  0
   47.5449   36.2003   36.9594 H   0  0  0  0  0  0  0  0  0  0  0  0
   47.1872   35.7300   34.6900 H   0  0  0  0  0  0  0  0  0  0  0  0
   45.7220   32.0799   33.1412 H   0  0  0  0  0  0  0  0  0  0  0  0
  1  2  1  0
  1  8  1  0
  2  3  1  0
  3  7  1  0
  3  4  1  0
  4  5  2  0
  4  6  1  0
  6  9  1  0
  7  8  1  0
  7  6  1  0
  9 13  1  0
 10  9  2  0
 11 16  2  0
 12 13  2  0
 12 11  1  0
 13 14  1  0
 14 15  2  0
 16 15  1  0
  1 17  1  6
 18  1  1  0
  2 19  1  0
  2 20  1  0
  6 21  1  1
  7 22  1  1
 11 23  1  0
 12 24  1  0
 15 25  1  0
 17 26  1  0
 17 27  1  0
 17 28  1  0
 18 29  1  0
 18 30  1  0
 31 32  1  0
 31 33  1  0
 33 34  2  0
 34 35  1  0
 35 36  2  0
 35 37  1  0
 34 38  1  0
 38 39  1  0
 39 40  2  0
 39 41  1  0
 41 42  1  0
 42 43  1  0
 43 44  1  0
 44 45  1  6
 44 33  1  0
 42 38  1  0
 31 46  1  0
 31 47  1  0
 37 48  1  0
 41 49  1  6
 42 50  1  6
 44 51  1  0
 18 41  1  0
M  ISO  8  19  13  20  13  21  13  22  13  23  14  24  14  25  14  26   8
M  ISO  6  27   8  28   8  29   8  30   8  32   8  45  15
M  END
>  <DihAtoms>  (1) 
0,17,40,38

>  <DihDeg>  (1) 
-178.9096959064092

$$$$
