
     RDKit          3D

 37 39  0  0  0  0  0  0  0  0999 V2000
   44.7351   35.3968   45.0275 C   0  0  0  0  0  0  0  0  0  0  0  0
   45.6149   34.9236   44.0473 C   0  0  0  0  0  0  0  0  0  0  0  0
   46.3458   33.7723   44.3318 C   0  0  0  0  0  0  0  0  0  0  0  0
   46.1799   33.1683   45.5211 N   0  0  0  0  0  0  0  0  0  0  0  0
   45.3286   33.6443   46.4432 C   0  0  0  0  0  0  0  0  0  0  0  0
   44.6015   34.7507   46.2167 N   0  0  0  0  0  0  0  0  0  0  0  0
   45.6850   35.7112   42.7731 C   0  0  0  0  0  0  0  0  0  0  0  0
   45.2308   36.9698   43.0712 F   0  0  0  0  0  0  0  0  0  0  0  0
   44.8027   35.0954   41.8867 F   0  0  0  0  0  0  0  0  0  0  0  0
   46.9668   35.6455   42.3013 F   0  0  0  0  0  0  0  0  0  0  0  0
   45.1406   33.0417   47.6724 O   0  0  0  0  0  0  0  0  0  0  0  0
   46.1462   32.2945   48.3156 C   0  0  0  0  0  0  0  0  0  0  0  0
   44.1468   36.2929   44.8428 H   0  0  0  0  0  0  0  0  0  0  0  0
   47.0138   33.4383   43.5509 H   0  0  0  0  0  0  0  0  0  0  0  0
   46.4080   31.3906   47.7214 H   0  0  0  0  0  0  0  0  0  0  0  0
   47.0545   32.9090   48.4688 H   0  0  0  0  0  0  0  0  0  0  0  0
   40.3076   31.2092   51.5584 C   0  0  0  0  0  0  0  0  0  0  0  0
   39.6173   31.4266   50.7182 H   0  0  0  0  0  0  0  0  0  0  0  0
   41.7178   31.5435   51.3059 C   0  0  0  0  0  0  0  0  0  0  0  0
   42.2740   30.8208   50.3485 C   0  0  0  0  0  0  0  0  0  0  0  0
   41.4950   29.7885   49.6389 C   0  0  0  0  0  0  0  0  0  0  0  0
   40.3167   29.4328   49.7711 O   0  0  0  0  0  0  0  0  0  0  0  0
   42.0261   29.0015   48.6324 O   0  0  0  0  0  0  0  0  0  0  0  0
   43.6297   31.0141   49.9670 N   0  0  0  0  0  0  0  0  0  0  0  0
   44.8960   30.4959   49.5814 C   0  0  0  0  0  0  0  0  0  0  0  0
   45.3048   29.3190   49.2966 O   0  0  0  0  0  0  0  0  0  0  0  0
   45.5685   31.7991   49.6271 C   0  0  2  0  0  0  0  0  0  0  0  0
   44.2007   32.3682   49.8593 C   0  0  2  0  0  0  0  0  0  0  0  0
   43.9570   33.1129   51.4920 S   0  0  0  0  0  0  0  0  0  0  0  0
   42.3535   32.6068   52.1182 C   0  0  2  0  0  0  0  0  0  0  0  0
   42.4458   32.2356   53.1760 H   0  0  0  0  0  0  0  0  0  0  0  0
   39.9428   31.8563   52.3868 H   0  0  0  0  0  0  0  0  0  0  0  0
   40.1695   30.1647   51.9633 H   0  0  0  0  0  0  0  0  0  0  0  0
   41.8580   28.0171   48.5262 H   0  0  0  0  0  0  0  0  0  0  0  0
   46.2447   31.9615   50.4932 H   0  0  0  0  0  0  0  0  0  0  0  0
   43.7826   32.9590   49.0164 H   0  0  0  0  0  0  0  0  0  0  0  0
   41.6762   33.4832   52.1930 H   0  0  0  0  0  0  0  0  0  0  0  0
  1  6  2  0
  2  3  2  0
  2  1  1  0
  3  4  1  0
  4  5  2  0
  5 11  1  0
  6  5  1  0
  7  8  1  0
  7  2  1  0
  9  7  1  0
 10  7  1  0
 11 12  1  0
  1 13  1  0
  3 14  1  0
 12 15  1  0
 12 16  1  0
 17 18  1  0
 17 19  1  0
 19 20  2  0
 20 21  1  0
 21 22  2  0
 21 23  1  0
 20 24  1  0
 24 25  1  0
 25 26  2  0
 25 27  1  0
 27 28  1  0
 28 29  1  0
 29 30  1  0
 30 31  1  1
 30 19  1  0
 28 24  1  0
 17 32  1  0
 17 33  1  0
 23 34  1  0
 27 35  1  1
 28 36  1  6
 30 37  1  0
 12 27  1  0
M  ISO  6  13  14  14  14  15   8  16   8  18   8  31  15
M  END
>  <DihAtoms>  (1) 
10,11,26,24

>  <DihDeg>  (1) 
-179.99972349958585

$$$$
