
     RDKit          3D

 34 36  0  0  0  0  0  0  0  0999 V2000
   44.5232   36.0058   44.5236 C   0  0  0  0  0  0  0  0  0  0  0  0
   45.2147   35.8793   43.3288 C   0  0  0  0  0  0  0  0  0  0  0  0
   46.1081   34.8261   43.1792 C   0  0  0  0  0  0  0  0  0  0  0  0
   46.2821   33.9504   44.2013 N   0  0  0  0  0  0  0  0  0  0  0  0
   45.5838   34.1004   45.3735 C   0  0  0  0  0  0  0  0  0  0  0  0
   44.7329   35.1152   45.4967 N   0  0  0  0  0  0  0  0  0  0  0  0
   45.8517   33.0810   46.4314 C   0  0  0  0  0  0  0  0  0  0  0  0
   46.5265   31.6218   45.6105 S   0  0  0  0  0  0  0  0  0  0  0  0
   43.8448   36.8333   44.5932 H   0  0  0  0  0  0  0  0  0  0  0  0
   45.1414   36.5319   42.4552 H   0  0  0  0  0  0  0  0  0  0  0  0
   46.7002   34.6408   42.2767 H   0  0  0  0  0  0  0  0  0  0  0  0
   44.9661   32.9078   47.0366 H   0  0  0  0  0  0  0  0  0  0  0  0
   46.7001   33.5195   47.0327 H   0  0  0  0  0  0  0  0  0  0  0  0
   45.3758   30.7968   44.5168 C   0  0  0  0  0  0  0  0  0  0  0  0
   44.2292   30.1581   45.1737 C   0  0  0  0  0  0  0  0  0  0  0  0
   44.0969   28.8441   45.0107 C   0  0  0  0  0  0  0  0  0  0  0  0
   45.0399   28.0294   44.2147 C   0  0  0  0  0  0  0  0  0  0  0  0
   44.9967   26.7889   44.0118 O   0  0  0  0  0  0  0  0  0  0  0  0
   46.1492   27.8272   43.4197 O   0  0  0  0  0  0  0  0  0  0  0  0
   43.0034   28.1566   45.6042 N   0  0  0  0  0  0  0  0  0  0  0  0
   42.6509   27.0074   46.4117 C   0  0  0  0  0  0  0  0  0  0  0  0
   43.1645   25.9019   46.7974 O   0  0  0  0  0  0  0  0  0  0  0  0
   41.3287   27.6719   46.6439 C   0  0  1  0  0  0  0  0  0  0  0  0
   40.5318   26.9176   46.3699 H   0  0  0  0  0  0  0  0  0  0  0  0
   41.6047   28.6035   45.4822 C   0  0  1  0  0  0  0  0  0  0  0  0
   41.5640   30.3571   45.8290 S   0  0  0  0  0  0  0  0  0  0  0  0
   43.2695   30.9412   45.9848 C   0  0  1  0  0  0  0  0  0  0  0  0
   43.5834   30.9748   47.0659 H   0  0  0  0  0  0  0  0  0  0  0  0
   45.0081   31.5871   43.7927 H   0  0  0  0  0  0  0  0  0  0  0  0
   45.9545   30.1055   43.8777 H   0  0  0  0  0  0  0  0  0  0  0  0
   46.2296   28.2111   42.4637 H   0  0  0  0  0  0  0  0  0  0  0  0
   41.2045   28.1627   47.6115 H   0  0  0  0  0  0  0  0  0  0  0  0
   41.1226   28.2707   44.5460 H   0  0  0  0  0  0  0  0  0  0  0  0
   43.2690   31.9980   45.6339 H   0  0  0  0  0  0  0  0  0  0  0  0
  1  6  2  0
  2  1  1  0
  3  2  2  0
  3  4  1  0
  4  5  2  0
  5  6  1  0
  5  7  1  0
  8  7  1  0
  1  9  1  0
  2 10  1  0
  3 11  1  0
  7 12  1  0
  7 13  1  0
 14 15  1  0
 15 16  2  0
 16 17  1  0
 17 18  2  0
 17 19  1  0
 16 20  1  0
 20 21  1  0
 21 22  2  0
 21 23  1  0
 23 24  1  6
 23 25  1  0
 25 26  1  0
 26 27  1  0
 27 28  1  1
 27 15  1  0
 25 20  1  0
 14 29  1  0
 14 30  1  0
 19 31  1  0
 23 32  1  0
 25 33  1  6
 27 34  1  0
  8 14  1  0
M  ISO  7   9  14  10  14  11  14  12   8  13   8  24  15  28  15
M  END
>  <DihAtoms>  (1) 
6,7,13,14

>  <DihDeg>  (1) 
-67.13124208584534

$$$$
