
     RDKit          3D

 34 36  0  0  0  0  0  0  0  0999 V2000
   44.5232   36.0058   44.5236 C   0  0  0  0  0  0  0  0  0  0  0  0
   45.2147   35.8793   43.3288 C   0  0  0  0  0  0  0  0  0  0  0  0
   46.1081   34.8261   43.1792 C   0  0  0  0  0  0  0  0  0  0  0  0
   46.2821   33.9504   44.2013 N   0  0  0  0  0  0  0  0  0  0  0  0
   45.5838   34.1004   45.3735 C   0  0  0  0  0  0  0  0  0  0  0  0
   44.7329   35.1152   45.4967 N   0  0  0  0  0  0  0  0  0  0  0  0
   45.8517   33.0810   46.4314 C   0  0  0  0  0  0  0  0  0  0  0  0
   46.5265   31.6218   45.6105 S   0  0  0  0  0  0  0  0  0  0  0  0
   43.8448   36.8333   44.5932 H   0  0  0  0  0  0  0  0  0  0  0  0
   45.1414   36.5319   42.4552 H   0  0  0  0  0  0  0  0  0  0  0  0
   46.7002   34.6408   42.2767 H   0  0  0  0  0  0  0  0  0  0  0  0
   44.9661   32.9078   47.0366 H   0  0  0  0  0  0  0  0  0  0  0  0
   46.7001   33.5195   47.0327 H   0  0  0  0  0  0  0  0  0  0  0  0
   45.3758   30.7968   44.5168 C   0  0  0  0  0  0  0  0  0  0  0  0
   44.0750   30.4607   45.1077 C   0  0  0  0  0  0  0  0  0  0  0  0
   43.7415   29.1729   45.1367 C   0  0  0  0  0  0  0  0  0  0  0  0
   44.6128   28.1002   44.6107 C   0  0  0  0  0  0  0  0  0  0  0  0
   44.3832   26.8637   44.6009 O   0  0  0  0  0  0  0  0  0  0  0  0
   45.7502   27.5992   44.0116 O   0  0  0  0  0  0  0  0  0  0  0  0
   42.4912   28.7703   45.6803 N   0  0  0  0  0  0  0  0  0  0  0  0
   41.8668   27.8463   46.6039 C   0  0  0  0  0  0  0  0  0  0  0  0
   42.1431   26.7623   47.2230 O   0  0  0  0  0  0  0  0  0  0  0  0
   40.6582   28.7297   46.5514 C   0  0  1  0  0  0  0  0  0  0  0  0
   39.7793   28.0654   46.2958 H   0  0  0  0  0  0  0  0  0  0  0  0
   41.2086   29.3909   45.3051 C   0  0  1  0  0  0  0  0  0  0  0  0
   41.4271   31.1645   45.3640 S   0  0  0  0  0  0  0  0  0  0  0  0
   43.1803   31.5077   45.6512 C   0  0  1  0  0  0  0  0  0  0  0  0
   43.3791   31.6843   46.7456 H   0  0  0  0  0  0  0  0  0  0  0  0
   45.2252   31.4929   43.6353 H   0  0  0  0  0  0  0  0  0  0  0  0
   45.8943   29.9258   44.0766 H   0  0  0  0  0  0  0  0  0  0  0  0
   45.9948   27.7925   43.0264 H   0  0  0  0  0  0  0  0  0  0  0  0
   40.5166   29.3961   47.4049 H   0  0  0  0  0  0  0  0  0  0  0  0
   40.7792   28.9736   44.3771 H   0  0  0  0  0  0  0  0  0  0  0  0
   43.3949   32.4745   45.1420 H   0  0  0  0  0  0  0  0  0  0  0  0
  1  6  2  0
  2  1  1  0
  3  2  2  0
  3  4  1  0
  4  5  2  0
  5  6  1  0
  5  7  1  0
  8  7  1  0
  1  9  1  0
  2 10  1  0
  3 11  1  0
  7 12  1  0
  7 13  1  0
 14 15  1  0
 15 16  2  0
 16 17  1  0
 17 18  2  0
 17 19  1  0
 16 20  1  0
 20 21  1  0
 21 22  2  0
 21 23  1  0
 23 24  1  6
 23 25  1  0
 25 26  1  0
 26 27  1  0
 27 28  1  1
 27 15  1  0
 25 20  1  0
 14 29  1  0
 14 30  1  0
 19 31  1  0
 23 32  1  0
 25 33  1  6
 27 34  1  0
  8 14  1  0
M  ISO  7   9  14  10  14  11  14  12   8  13   8  24  15  28  15
M  END
>  <DihAtoms>  (1) 
6,7,13,14

>  <DihDeg>  (1) 
-67.13124208584534

$$$$
