
     RDKit          3D

 34 36  0  0  0  0  0  0  0  0999 V2000
   44.5232   36.0058   44.5236 C   0  0  0  0  0  0  0  0  0  0  0  0
   45.2147   35.8793   43.3288 C   0  0  0  0  0  0  0  0  0  0  0  0
   46.1081   34.8261   43.1792 C   0  0  0  0  0  0  0  0  0  0  0  0
   46.2821   33.9504   44.2013 N   0  0  0  0  0  0  0  0  0  0  0  0
   45.5838   34.1004   45.3735 C   0  0  0  0  0  0  0  0  0  0  0  0
   44.7329   35.1152   45.4967 N   0  0  0  0  0  0  0  0  0  0  0  0
   45.8517   33.0810   46.4314 C   0  0  0  0  0  0  0  0  0  0  0  0
   46.5265   31.6218   45.6105 S   0  0  0  0  0  0  0  0  0  0  0  0
   43.8448   36.8333   44.5932 H   0  0  0  0  0  0  0  0  0  0  0  0
   45.1414   36.5319   42.4552 H   0  0  0  0  0  0  0  0  0  0  0  0
   46.7002   34.6408   42.2767 H   0  0  0  0  0  0  0  0  0  0  0  0
   44.9661   32.9078   47.0366 H   0  0  0  0  0  0  0  0  0  0  0  0
   46.7001   33.5195   47.0327 H   0  0  0  0  0  0  0  0  0  0  0  0
   45.3758   30.7968   44.5168 C   0  0  0  0  0  0  0  0  0  0  0  0
   43.9993   31.3050   44.5504 C   0  0  0  0  0  0  0  0  0  0  0  0
   43.0484   30.4450   44.9064 C   0  0  0  0  0  0  0  0  0  0  0  0
   43.3241   29.0361   45.2605 C   0  0  0  0  0  0  0  0  0  0  0  0
   42.4941   28.1587   45.6115 O   0  0  0  0  0  0  0  0  0  0  0  0
   44.1325   27.9358   45.4597 O   0  0  0  0  0  0  0  0  0  0  0  0
   41.6892   30.8591   44.9484 N   0  0  0  0  0  0  0  0  0  0  0  0
   40.4975   30.8603   45.7711 C   0  0  0  0  0  0  0  0  0  0  0  0
   40.0331   30.2634   46.8020 O   0  0  0  0  0  0  0  0  0  0  0  0
   39.9662   31.9291   44.8661 C   0  0  1  0  0  0  0  0  0  0  0  0
   38.9472   31.5842   44.5169 H   0  0  0  0  0  0  0  0  0  0  0  0
   41.0281   31.5780   43.8451 C   0  0  1  0  0  0  0  0  0  0  0  0
   42.1174   32.8988   43.3295 S   0  0  0  0  0  0  0  0  0  0  0  0
   43.6872   32.7117   44.2098 C   0  0  1  0  0  0  0  0  0  0  0  0
   43.7127   33.3670   45.1254 H   0  0  0  0  0  0  0  0  0  0  0  0
   45.7983   30.9107   43.4715 H   0  0  0  0  0  0  0  0  0  0  0  0
   45.4459   29.7110   44.7104 H   0  0  0  0  0  0  0  0  0  0  0  0
   44.6432   27.4707   44.6912 H   0  0  0  0  0  0  0  0  0  0  0  0
   40.0148   32.9494   45.2525 H   0  0  0  0  0  0  0  0  0  0  0  0
   40.6516   30.9066   43.0532 H   0  0  0  0  0  0  0  0  0  0  0  0
   44.4742   33.1077   43.5288 H   0  0  0  0  0  0  0  0  0  0  0  0
  1  6  2  0
  2  1  1  0
  3  2  2  0
  3  4  1  0
  4  5  2  0
  5  6  1  0
  5  7  1  0
  8  7  1  0
  1  9  1  0
  2 10  1  0
  3 11  1  0
  7 12  1  0
  7 13  1  0
 14 15  1  0
 15 16  2  0
 16 17  1  0
 17 18  2  0
 17 19  1  0
 16 20  1  0
 20 21  1  0
 21 22  2  0
 21 23  1  0
 23 24  1  6
 23 25  1  0
 25 26  1  0
 26 27  1  0
 27 28  1  1
 27 15  1  0
 25 20  1  0
 14 29  1  0
 14 30  1  0
 19 31  1  0
 23 32  1  0
 25 33  1  6
 27 34  1  0
  8 14  1  0
M  ISO  7   9  14  10  14  11  14  12   8  13   8  24  15  28  15
M  END
>  <DihAtoms>  (1) 
6,7,13,14

>  <DihDeg>  (1) 
-67.13124208584534

$$$$
