
     RDKit          3D

 34 36  0  0  0  0  0  0  0  0999 V2000
   44.5232   36.0058   44.5236 C   0  0  0  0  0  0  0  0  0  0  0  0
   45.2147   35.8793   43.3288 C   0  0  0  0  0  0  0  0  0  0  0  0
   46.1081   34.8261   43.1792 C   0  0  0  0  0  0  0  0  0  0  0  0
   46.2821   33.9504   44.2013 N   0  0  0  0  0  0  0  0  0  0  0  0
   45.5838   34.1004   45.3735 C   0  0  0  0  0  0  0  0  0  0  0  0
   44.7329   35.1152   45.4967 N   0  0  0  0  0  0  0  0  0  0  0  0
   45.8517   33.0810   46.4314 C   0  0  0  0  0  0  0  0  0  0  0  0
   46.5265   31.6218   45.6105 S   0  0  0  0  0  0  0  0  0  0  0  0
   43.8448   36.8333   44.5932 H   0  0  0  0  0  0  0  0  0  0  0  0
   45.1414   36.5319   42.4552 H   0  0  0  0  0  0  0  0  0  0  0  0
   46.7002   34.6408   42.2767 H   0  0  0  0  0  0  0  0  0  0  0  0
   44.9661   32.9078   47.0366 H   0  0  0  0  0  0  0  0  0  0  0  0
   46.7001   33.5195   47.0327 H   0  0  0  0  0  0  0  0  0  0  0  0
   45.3758   30.7968   44.5168 C   0  0  0  0  0  0  0  0  0  0  0  0
   44.4924   31.6813   43.7477 C   0  0  0  0  0  0  0  0  0  0  0  0
   43.1833   31.5393   43.9390 C   0  0  0  0  0  0  0  0  0  0  0  0
   42.6056   30.5504   44.8742 C   0  0  0  0  0  0  0  0  0  0  0  0
   41.3886   30.3507   45.1212 O   0  0  0  0  0  0  0  0  0  0  0  0
   42.6619   29.5317   45.8031 O   0  0  0  0  0  0  0  0  0  0  0  0
   42.2636   32.3500   43.2194 N   0  0  0  0  0  0  0  0  0  0  0  0
   41.1037   33.2045   43.3649 C   0  0  0  0  0  0  0  0  0  0  0  0
   40.1918   33.4597   44.2240 O   0  0  0  0  0  0  0  0  0  0  0  0
   41.4093   33.7242   41.9937 C   0  0  1  0  0  0  0  0  0  0  0  0
   40.4600   33.6231   41.3873 H   0  0  0  0  0  0  0  0  0  0  0  0
   42.3220   32.5386   41.7592 C   0  0  1  0  0  0  0  0  0  0  0  0
   44.0186   32.9015   41.3272 S   0  0  0  0  0  0  0  0  0  0  0  0
   45.0360   32.6884   42.8083 C   0  0  1  0  0  0  0  0  0  0  0  0
   45.2042   33.6757   43.3233 H   0  0  0  0  0  0  0  0  0  0  0  0
   46.0054   30.1768   43.8073 H   0  0  0  0  0  0  0  0  0  0  0  0
   44.8294   30.0412   45.1099 H   0  0  0  0  0  0  0  0  0  0  0  0
   43.0056   28.5845   45.5740 H   0  0  0  0  0  0  0  0  0  0  0  0
   41.8978   34.7000   41.9509 H   0  0  0  0  0  0  0  0  0  0  0  0
   41.8286   31.7265   41.1964 H   0  0  0  0  0  0  0  0  0  0  0  0
   46.0371   32.3553   42.4520 H   0  0  0  0  0  0  0  0  0  0  0  0
  1  6  2  0
  2  1  1  0
  3  2  2  0
  3  4  1  0
  4  5  2  0
  5  6  1  0
  5  7  1  0
  8  7  1  0
  1  9  1  0
  2 10  1  0
  3 11  1  0
  7 12  1  0
  7 13  1  0
 14 15  1  0
 15 16  2  0
 16 17  1  0
 17 18  2  0
 17 19  1  0
 16 20  1  0
 20 21  1  0
 21 22  2  0
 21 23  1  0
 23 24  1  6
 23 25  1  0
 25 26  1  0
 26 27  1  0
 27 28  1  1
 27 15  1  0
 25 20  1  0
 14 29  1  0
 14 30  1  0
 19 31  1  0
 23 32  1  0
 25 33  1  6
 27 34  1  0
  8 14  1  0
M  ISO  7   9  14  10  14  11  14  12   8  13   8  24  15  28  15
M  END
>  <DihAtoms>  (1) 
6,7,13,14

>  <DihDeg>  (1) 
-67.13124208584534

$$$$
