
     RDKit          3D

 34 36  0  0  0  0  0  0  0  0999 V2000
   44.5232   36.0058   44.5236 C   0  0  0  0  0  0  0  0  0  0  0  0
   45.2147   35.8793   43.3288 C   0  0  0  0  0  0  0  0  0  0  0  0
   46.1081   34.8261   43.1792 C   0  0  0  0  0  0  0  0  0  0  0  0
   46.2821   33.9504   44.2013 N   0  0  0  0  0  0  0  0  0  0  0  0
   45.5838   34.1004   45.3735 C   0  0  0  0  0  0  0  0  0  0  0  0
   44.7329   35.1152   45.4967 N   0  0  0  0  0  0  0  0  0  0  0  0
   45.8517   33.0810   46.4314 C   0  0  0  0  0  0  0  0  0  0  0  0
   46.5265   31.6218   45.6105 S   0  0  0  0  0  0  0  0  0  0  0  0
   43.8448   36.8333   44.5932 H   0  0  0  0  0  0  0  0  0  0  0  0
   45.1414   36.5319   42.4552 H   0  0  0  0  0  0  0  0  0  0  0  0
   46.7002   34.6408   42.2767 H   0  0  0  0  0  0  0  0  0  0  0  0
   44.9661   32.9078   47.0366 H   0  0  0  0  0  0  0  0  0  0  0  0
   46.7001   33.5195   47.0327 H   0  0  0  0  0  0  0  0  0  0  0  0
   45.3758   30.7968   44.5168 C   0  0  0  0  0  0  0  0  0  0  0  0
   44.7404   31.6530   43.5081 C   0  0  0  0  0  0  0  0  0  0  0  0
   43.4133   31.7424   43.5438 C   0  0  0  0  0  0  0  0  0  0  0  0
   42.5816   31.0303   44.5375 C   0  0  0  0  0  0  0  0  0  0  0  0
   41.3291   31.0596   44.6490 O   0  0  0  0  0  0  0  0  0  0  0  0
   42.3669   30.1940   45.6138 O   0  0  0  0  0  0  0  0  0  0  0  0
   42.7247   32.5409   42.5903 N   0  0  0  0  0  0  0  0  0  0  0  0
   41.7163   33.5699   42.4448 C   0  0  0  0  0  0  0  0  0  0  0  0
   40.7746   34.1045   43.1244 O   0  0  0  0  0  0  0  0  0  0  0  0
   42.2486   33.7889   41.0618 C   0  0  1  0  0  0  0  0  0  0  0  0
   41.3655   33.7243   40.3583 H   0  0  0  0  0  0  0  0  0  0  0  0
   42.9683   32.4587   41.1395 C   0  0  1  0  0  0  0  0  0  0  0  0
   44.7379   32.4844   40.8850 S   0  0  0  0  0  0  0  0  0  0  0  0
   45.5422   32.3871   42.5029 C   0  0  1  0  0  0  0  0  0  0  0  0
   45.8187   33.4138   42.8744 H   0  0  0  0  0  0  0  0  0  0  0  0
   45.9636   29.9753   44.0032 H   0  0  0  0  0  0  0  0  0  0  0  0
   44.6503   30.2469   45.1433 H   0  0  0  0  0  0  0  0  0  0  0  0
   42.5685   29.1811   45.5839 H   0  0  0  0  0  0  0  0  0  0  0  0
   42.8961   34.6586   40.9317 H   0  0  0  0  0  0  0  0  0  0  0  0
   42.4078   31.6424   40.6506 H   0  0  0  0  0  0  0  0  0  0  0  0
   46.5049   31.8520   42.3394 H   0  0  0  0  0  0  0  0  0  0  0  0
  1  6  2  0
  2  1  1  0
  3  2  2  0
  3  4  1  0
  4  5  2  0
  5  6  1  0
  5  7  1  0
  8  7  1  0
  1  9  1  0
  2 10  1  0
  3 11  1  0
  7 12  1  0
  7 13  1  0
 14 15  1  0
 15 16  2  0
 16 17  1  0
 17 18  2  0
 17 19  1  0
 16 20  1  0
 20 21  1  0
 21 22  2  0
 21 23  1  0
 23 24  1  6
 23 25  1  0
 25 26  1  0
 26 27  1  0
 27 28  1  1
 27 15  1  0
 25 20  1  0
 14 29  1  0
 14 30  1  0
 19 31  1  0
 23 32  1  0
 25 33  1  6
 27 34  1  0
  8 14  1  0
M  ISO  7   9  14  10  14  11  14  12   8  13   8  24  15  28  15
M  END
>  <DihAtoms>  (1) 
6,7,13,14

>  <DihDeg>  (1) 
-67.13124208584534

$$$$
