
     RDKit          3D

 34 36  0  0  0  0  0  0  0  0999 V2000
   44.5232   36.0058   44.5236 C   0  0  0  0  0  0  0  0  0  0  0  0
   45.2147   35.8793   43.3288 C   0  0  0  0  0  0  0  0  0  0  0  0
   46.1081   34.8261   43.1792 C   0  0  0  0  0  0  0  0  0  0  0  0
   46.2821   33.9504   44.2013 N   0  0  0  0  0  0  0  0  0  0  0  0
   45.5838   34.1004   45.3735 C   0  0  0  0  0  0  0  0  0  0  0  0
   44.7329   35.1152   45.4967 N   0  0  0  0  0  0  0  0  0  0  0  0
   45.8517   33.0810   46.4314 C   0  0  0  0  0  0  0  0  0  0  0  0
   46.5265   31.6218   45.6105 S   0  0  0  0  0  0  0  0  0  0  0  0
   43.8448   36.8333   44.5932 H   0  0  0  0  0  0  0  0  0  0  0  0
   45.1414   36.5319   42.4552 H   0  0  0  0  0  0  0  0  0  0  0  0
   46.7002   34.6408   42.2767 H   0  0  0  0  0  0  0  0  0  0  0  0
   44.9661   32.9078   47.0366 H   0  0  0  0  0  0  0  0  0  0  0  0
   46.7001   33.5195   47.0327 H   0  0  0  0  0  0  0  0  0  0  0  0
   45.3758   30.7968   44.5168 C   0  0  0  0  0  0  0  0  0  0  0  0
   45.2002   29.3592   44.7547 C   0  0  0  0  0  0  0  0  0  0  0  0
   45.5104   28.5407   43.7525 C   0  0  0  0  0  0  0  0  0  0  0  0
   46.0130   29.0169   42.4459 C   0  0  0  0  0  0  0  0  0  0  0  0
   46.3344   28.3200   41.4495 O   0  0  0  0  0  0  0  0  0  0  0  0
   46.4004   29.9769   41.5338 O   0  0  0  0  0  0  0  0  0  0  0  0
   45.3532   27.1358   43.9020 N   0  0  0  0  0  0  0  0  0  0  0  0
   46.0232   25.8642   43.7260 C   0  0  0  0  0  0  0  0  0  0  0  0
   47.0374   25.3815   43.1152 O   0  0  0  0  0  0  0  0  0  0  0  0
   44.9737   25.2744   44.6174 C   0  0  1  0  0  0  0  0  0  0  0  0
   44.5347   24.3910   44.0642 H   0  0  0  0  0  0  0  0  0  0  0  0
   44.1215   26.5096   44.4137 C   0  0  1  0  0  0  0  0  0  0  0  0
   43.6311   27.4010   45.8841 S   0  0  0  0  0  0  0  0  0  0  0  0
   44.7068   28.8461   46.0529 C   0  0  1  0  0  0  0  0  0  0  0  0
   45.5601   28.6295   46.7553 H   0  0  0  0  0  0  0  0  0  0  0  0
   44.3832   31.3281   44.6456 H   0  0  0  0  0  0  0  0  0  0  0  0
   45.6675   31.0357   43.4780 H   0  0  0  0  0  0  0  0  0  0  0  0
   45.7412   30.6618   41.1288 H   0  0  0  0  0  0  0  0  0  0  0  0
   45.2755   25.0853   45.6497 H   0  0  0  0  0  0  0  0  0  0  0  0
   43.3496   26.3706   43.6362 H   0  0  0  0  0  0  0  0  0  0  0  0
   44.0945   29.6325   46.5496 H   0  0  0  0  0  0  0  0  0  0  0  0
  1  6  2  0
  2  1  1  0
  3  2  2  0
  3  4  1  0
  4  5  2  0
  5  6  1  0
  5  7  1  0
  8  7  1  0
  1  9  1  0
  2 10  1  0
  3 11  1  0
  7 12  1  0
  7 13  1  0
 14 15  1  0
 15 16  2  0
 16 17  1  0
 17 18  2  0
 17 19  1  0
 16 20  1  0
 20 21  1  0
 21 22  2  0
 21 23  1  0
 23 24  1  6
 23 25  1  0
 25 26  1  0
 26 27  1  0
 27 28  1  1
 27 15  1  0
 25 20  1  0
 14 29  1  0
 14 30  1  0
 19 31  1  0
 23 32  1  0
 25 33  1  6
 27 34  1  0
  8 14  1  0
M  ISO  7   9  14  10  14  11  14  12   8  13   8  24  15  28  15
M  END
>  <DihAtoms>  (1) 
6,7,13,14

>  <DihDeg>  (1) 
-67.13124208584534

$$$$
