
     RDKit          3D

 34 36  0  0  0  0  0  0  0  0999 V2000
   44.5232   36.0058   44.5236 C   0  0  0  0  0  0  0  0  0  0  0  0
   45.2147   35.8793   43.3288 C   0  0  0  0  0  0  0  0  0  0  0  0
   46.1081   34.8261   43.1792 C   0  0  0  0  0  0  0  0  0  0  0  0
   46.2821   33.9504   44.2013 N   0  0  0  0  0  0  0  0  0  0  0  0
   45.5838   34.1004   45.3735 C   0  0  0  0  0  0  0  0  0  0  0  0
   44.7329   35.1152   45.4967 N   0  0  0  0  0  0  0  0  0  0  0  0
   45.8517   33.0810   46.4314 C   0  0  0  0  0  0  0  0  0  0  0  0
   46.5265   31.6218   45.6105 S   0  0  0  0  0  0  0  0  0  0  0  0
   43.8448   36.8333   44.5932 H   0  0  0  0  0  0  0  0  0  0  0  0
   45.1414   36.5319   42.4552 H   0  0  0  0  0  0  0  0  0  0  0  0
   46.7002   34.6408   42.2767 H   0  0  0  0  0  0  0  0  0  0  0  0
   44.9661   32.9078   47.0366 H   0  0  0  0  0  0  0  0  0  0  0  0
   46.7001   33.5195   47.0327 H   0  0  0  0  0  0  0  0  0  0  0  0
   45.3758   30.7968   44.5168 C   0  0  0  0  0  0  0  0  0  0  0  0
   43.9560   31.0544   44.7850 C   0  0  0  0  0  0  0  0  0  0  0  0
   43.1987   30.0015   45.0827 C   0  0  0  0  0  0  0  0  0  0  0  0
   43.7246   28.6213   45.1520 C   0  0  0  0  0  0  0  0  0  0  0  0
   43.0877   27.5727   45.4290 O   0  0  0  0  0  0  0  0  0  0  0  0
   44.7062   27.6554   45.0675 O   0  0  0  0  0  0  0  0  0  0  0  0
   41.8109   30.1692   45.3408 N   0  0  0  0  0  0  0  0  0  0  0  0
   40.7521   29.8407   46.2723 C   0  0  0  0  0  0  0  0  0  0  0  0
   40.5222   29.0200   47.2254 O   0  0  0  0  0  0  0  0  0  0  0  0
   39.9529   30.9334   45.6312 C   0  0  1  0  0  0  0  0  0  0  0  0
   38.9591   30.4810   45.3366 H   0  0  0  0  0  0  0  0  0  0  0  0
   40.9101   30.9306   44.4576 C   0  0  1  0  0  0  0  0  0  0  0  0
   41.7136   32.4802   44.0702 S   0  0  0  0  0  0  0  0  0  0  0  0
   43.3965   32.4242   44.7324 C   0  0  1  0  0  0  0  0  0  0  0  0
   43.4460   32.9226   45.7412 H   0  0  0  0  0  0  0  0  0  0  0  0
   45.6343   31.1427   43.4691 H   0  0  0  0  0  0  0  0  0  0  0  0
   45.6310   29.7216   44.5076 H   0  0  0  0  0  0  0  0  0  0  0  0
   45.1736   27.4093   44.1795 H   0  0  0  0  0  0  0  0  0  0  0  0
   39.9008   31.8739   46.1838 H   0  0  0  0  0  0  0  0  0  0  0  0
   40.5355   30.3380   43.6043 H   0  0  0  0  0  0  0  0  0  0  0  0
   44.0188   33.0489   44.0523 H   0  0  0  0  0  0  0  0  0  0  0  0
  1  6  2  0
  2  1  1  0
  3  2  2  0
  3  4  1  0
  4  5  2  0
  5  6  1  0
  5  7  1  0
  8  7  1  0
  1  9  1  0
  2 10  1  0
  3 11  1  0
  7 12  1  0
  7 13  1  0
 14 15  1  0
 15 16  2  0
 16 17  1  0
 17 18  2  0
 17 19  1  0
 16 20  1  0
 20 21  1  0
 21 22  2  0
 21 23  1  0
 23 24  1  6
 23 25  1  0
 25 26  1  0
 26 27  1  0
 27 28  1  1
 27 15  1  0
 25 20  1  0
 14 29  1  0
 14 30  1  0
 19 31  1  0
 23 32  1  0
 25 33  1  6
 27 34  1  0
  8 14  1  0
M  ISO  7   9  14  10  14  11  14  12   8  13   8  24  15  28  15
M  END
>  <DihAtoms>  (1) 
6,7,13,14

>  <DihDeg>  (1) 
-67.13124208584534

$$$$
