
     RDKit          3D

 34 36  0  0  0  0  0  0  0  0999 V2000
   44.5232   36.0058   44.5236 C   0  0  0  0  0  0  0  0  0  0  0  0
   45.2147   35.8793   43.3288 C   0  0  0  0  0  0  0  0  0  0  0  0
   46.1081   34.8261   43.1792 C   0  0  0  0  0  0  0  0  0  0  0  0
   46.2821   33.9504   44.2013 N   0  0  0  0  0  0  0  0  0  0  0  0
   45.5838   34.1004   45.3735 C   0  0  0  0  0  0  0  0  0  0  0  0
   44.7329   35.1152   45.4967 N   0  0  0  0  0  0  0  0  0  0  0  0
   45.8517   33.0810   46.4314 C   0  0  0  0  0  0  0  0  0  0  0  0
   46.5265   31.6218   45.6105 S   0  0  0  0  0  0  0  0  0  0  0  0
   43.8448   36.8333   44.5932 H   0  0  0  0  0  0  0  0  0  0  0  0
   45.1414   36.5319   42.4552 H   0  0  0  0  0  0  0  0  0  0  0  0
   46.7002   34.6408   42.2767 H   0  0  0  0  0  0  0  0  0  0  0  0
   44.9661   32.9078   47.0366 H   0  0  0  0  0  0  0  0  0  0  0  0
   46.7001   33.5195   47.0327 H   0  0  0  0  0  0  0  0  0  0  0  0
   45.3758   30.7968   44.5168 C   0  0  0  0  0  0  0  0  0  0  0  0
   45.9589   30.2458   43.2877 C   0  0  0  0  0  0  0  0  0  0  0  0
   45.4886   30.7154   42.1350 C   0  0  0  0  0  0  0  0  0  0  0  0
   44.4305   31.7450   42.0531 C   0  0  0  0  0  0  0  0  0  0  0  0
   43.9315   32.2486   41.0142 O   0  0  0  0  0  0  0  0  0  0  0  0
   43.5093   32.6304   42.5740 O   0  0  0  0  0  0  0  0  0  0  0  0
   45.9935   30.2199   40.9019 N   0  0  0  0  0  0  0  0  0  0  0  0
   46.5205   30.6214   39.6143 C   0  0  0  0  0  0  0  0  0  0  0  0
   46.5701   31.6602   38.8707 O   0  0  0  0  0  0  0  0  0  0  0  0
   47.0334   29.2212   39.4732 C   0  0  1  0  0  0  0  0  0  0  0  0
   46.6573   28.8346   38.4791 H   0  0  0  0  0  0  0  0  0  0  0  0
   46.1182   28.7837   40.5976 C   0  0  1  0  0  0  0  0  0  0  0  0
   46.8909   27.9967   42.0050 S   0  0  0  0  0  0  0  0  0  0  0  0
   47.0253   29.2196   43.3318 C   0  0  1  0  0  0  0  0  0  0  0  0
   48.0465   29.6946   43.3359 H   0  0  0  0  0  0  0  0  0  0  0  0
   44.9080   29.9620   45.1238 H   0  0  0  0  0  0  0  0  0  0  0  0
   44.5338   31.4877   44.3298 H   0  0  0  0  0  0  0  0  0  0  0  0
   42.6751   32.3239   43.1010 H   0  0  0  0  0  0  0  0  0  0  0  0
   48.0998   29.0820   39.6635 H   0  0  0  0  0  0  0  0  0  0  0  0
   45.1784   28.3342   40.2309 H   0  0  0  0  0  0  0  0  0  0  0  0
   46.9488   28.6516   44.2865 H   0  0  0  0  0  0  0  0  0  0  0  0
  1  6  2  0
  2  1  1  0
  3  2  2  0
  3  4  1  0
  4  5  2  0
  5  6  1  0
  5  7  1  0
  8  7  1  0
  1  9  1  0
  2 10  1  0
  3 11  1  0
  7 12  1  0
  7 13  1  0
 14 15  1  0
 15 16  2  0
 16 17  1  0
 17 18  2  0
 17 19  1  0
 16 20  1  0
 20 21  1  0
 21 22  2  0
 21 23  1  0
 23 24  1  6
 23 25  1  0
 25 26  1  0
 26 27  1  0
 27 28  1  1
 27 15  1  0
 25 20  1  0
 14 29  1  0
 14 30  1  0
 19 31  1  0
 23 32  1  0
 25 33  1  6
 27 34  1  0
  8 14  1  0
M  ISO  7   9  14  10  14  11  14  12   8  13   8  24  15  28  15
M  END
>  <DihAtoms>  (1) 
6,7,13,14

>  <DihDeg>  (1) 
-67.13124208584534

$$$$
