
     RDKit          3D

 34 36  0  0  0  0  0  0  0  0999 V2000
   44.5232   36.0058   44.5236 C   0  0  0  0  0  0  0  0  0  0  0  0
   45.2147   35.8793   43.3288 C   0  0  0  0  0  0  0  0  0  0  0  0
   46.1081   34.8261   43.1792 C   0  0  0  0  0  0  0  0  0  0  0  0
   46.2821   33.9504   44.2013 N   0  0  0  0  0  0  0  0  0  0  0  0
   45.5838   34.1004   45.3735 C   0  0  0  0  0  0  0  0  0  0  0  0
   44.7329   35.1152   45.4967 N   0  0  0  0  0  0  0  0  0  0  0  0
   45.8517   33.0810   46.4314 C   0  0  0  0  0  0  0  0  0  0  0  0
   46.5265   31.6218   45.6105 S   0  0  0  0  0  0  0  0  0  0  0  0
   43.8448   36.8333   44.5932 H   0  0  0  0  0  0  0  0  0  0  0  0
   45.1414   36.5319   42.4552 H   0  0  0  0  0  0  0  0  0  0  0  0
   46.7002   34.6408   42.2767 H   0  0  0  0  0  0  0  0  0  0  0  0
   44.9661   32.9078   47.0366 H   0  0  0  0  0  0  0  0  0  0  0  0
   46.7001   33.5195   47.0327 H   0  0  0  0  0  0  0  0  0  0  0  0
   45.3758   30.7968   44.5168 C   0  0  0  0  0  0  0  0  0  0  0  0
   45.0041   31.5466   43.3110 C   0  0  0  0  0  0  0  0  0  0  0  0
   43.7147   31.8364   43.1557 C   0  0  0  0  0  0  0  0  0  0  0  0
   42.6745   31.4415   44.1295 C   0  0  0  0  0  0  0  0  0  0  0  0
   41.4402   31.6752   44.0678 O   0  0  0  0  0  0  0  0  0  0  0  0
   42.2093   30.8490   45.2855 O   0  0  0  0  0  0  0  0  0  0  0  0
   43.2753   32.5476   42.0059 N   0  0  0  0  0  0  0  0  0  0  0  0
   42.4758   33.6727   41.5682 C   0  0  0  0  0  0  0  0  0  0  0  0
   41.5708   34.4521   42.0245 O   0  0  0  0  0  0  0  0  0  0  0  0
   43.1808   33.5635   40.2511 C   0  0  1  0  0  0  0  0  0  0  0  0
   42.3790   33.5076   39.4555 H   0  0  0  0  0  0  0  0  0  0  0  0
   43.6540   32.1760   40.6313 C   0  0  1  0  0  0  0  0  0  0  0  0
   45.4196   31.8942   40.6131 S   0  0  0  0  0  0  0  0  0  0  0  0
   46.0199   31.9652   42.3185 C   0  0  1  0  0  0  0  0  0  0  0  0
   46.4243   32.9888   42.5577 H   0  0  0  0  0  0  0  0  0  0  0  0
   45.8680   29.8198   44.2211 H   0  0  0  0  0  0  0  0  0  0  0  0
   44.5059   30.4794   45.1199 H   0  0  0  0  0  0  0  0  0  0  0  0
   42.2396   29.8281   45.4419 H   0  0  0  0  0  0  0  0  0  0  0  0
   43.9756   34.2911   40.0733 H   0  0  0  0  0  0  0  0  0  0  0  0
   43.0190   31.3785   40.2065 H   0  0  0  0  0  0  0  0  0  0  0  0
   46.8907   31.2731   42.3702 H   0  0  0  0  0  0  0  0  0  0  0  0
  1  6  2  0
  2  1  1  0
  3  2  2  0
  3  4  1  0
  4  5  2  0
  5  6  1  0
  5  7  1  0
  8  7  1  0
  1  9  1  0
  2 10  1  0
  3 11  1  0
  7 12  1  0
  7 13  1  0
 14 15  1  0
 15 16  2  0
 16 17  1  0
 17 18  2  0
 17 19  1  0
 16 20  1  0
 20 21  1  0
 21 22  2  0
 21 23  1  0
 23 24  1  6
 23 25  1  0
 25 26  1  0
 26 27  1  0
 27 28  1  1
 27 15  1  0
 25 20  1  0
 14 29  1  0
 14 30  1  0
 19 31  1  0
 23 32  1  0
 25 33  1  6
 27 34  1  0
  8 14  1  0
M  ISO  7   9  14  10  14  11  14  12   8  13   8  24  15  28  15
M  END
>  <DihAtoms>  (1) 
6,7,13,14

>  <DihDeg>  (1) 
-67.13124208584534

$$$$
