
     RDKit          3D

 34 36  0  0  0  0  0  0  0  0999 V2000
   44.5232   36.0058   44.5236 C   0  0  0  0  0  0  0  0  0  0  0  0
   45.2147   35.8793   43.3288 C   0  0  0  0  0  0  0  0  0  0  0  0
   46.1081   34.8261   43.1792 C   0  0  0  0  0  0  0  0  0  0  0  0
   46.2821   33.9504   44.2013 N   0  0  0  0  0  0  0  0  0  0  0  0
   45.5838   34.1004   45.3735 C   0  0  0  0  0  0  0  0  0  0  0  0
   44.7329   35.1152   45.4967 N   0  0  0  0  0  0  0  0  0  0  0  0
   45.8517   33.0810   46.4314 C   0  0  0  0  0  0  0  0  0  0  0  0
   46.5265   31.6218   45.6105 S   0  0  0  0  0  0  0  0  0  0  0  0
   43.8448   36.8333   44.5932 H   0  0  0  0  0  0  0  0  0  0  0  0
   45.1414   36.5319   42.4552 H   0  0  0  0  0  0  0  0  0  0  0  0
   46.7002   34.6408   42.2767 H   0  0  0  0  0  0  0  0  0  0  0  0
   44.9661   32.9078   47.0366 H   0  0  0  0  0  0  0  0  0  0  0  0
   46.7001   33.5195   47.0327 H   0  0  0  0  0  0  0  0  0  0  0  0
   45.3758   30.7968   44.5168 C   0  0  0  0  0  0  0  0  0  0  0  0
   45.4482   29.3309   44.5151 C   0  0  0  0  0  0  0  0  0  0  0  0
   45.7404   28.7437   43.3573 C   0  0  0  0  0  0  0  0  0  0  0  0
   45.9890   29.4967   42.1092 C   0  0  0  0  0  0  0  0  0  0  0  0
   46.2749   29.0289   40.9773 O   0  0  0  0  0  0  0  0  0  0  0  0
   46.1054   30.6393   41.3446 O   0  0  0  0  0  0  0  0  0  0  0  0
   45.8143   27.3266   43.2729 N   0  0  0  0  0  0  0  0  0  0  0  0
   46.6359   26.2296   42.8058 C   0  0  0  0  0  0  0  0  0  0  0  0
   47.6202   26.0263   42.0156 O   0  0  0  0  0  0  0  0  0  0  0  0
   45.8130   25.3391   43.6855 C   0  0  1  0  0  0  0  0  0  0  0  0
   45.4402   24.4923   43.0352 H   0  0  0  0  0  0  0  0  0  0  0  0
   44.7679   26.4297   43.7940 C   0  0  1  0  0  0  0  0  0  0  0  0
   44.3504   26.9839   45.4419 S   0  0  0  0  0  0  0  0  0  0  0  0
   45.2130   28.5449   45.7476 C   0  0  1  0  0  0  0  0  0  0  0  0
   46.1746   28.3675   46.3064 H   0  0  0  0  0  0  0  0  0  0  0  0
   44.3414   31.1265   44.8415 H   0  0  0  0  0  0  0  0  0  0  0  0
   45.4884   31.2414   43.5113 H   0  0  0  0  0  0  0  0  0  0  0  0
   45.3042   31.2584   41.1387 H   0  0  0  0  0  0  0  0  0  0  0  0
   46.2739   25.0439   44.6306 H   0  0  0  0  0  0  0  0  0  0  0  0
   43.9288   26.2864   43.0903 H   0  0  0  0  0  0  0  0  0  0  0  0
   44.5624   29.1292   46.4370 H   0  0  0  0  0  0  0  0  0  0  0  0
  1  6  2  0
  2  1  1  0
  3  2  2  0
  3  4  1  0
  4  5  2  0
  5  6  1  0
  5  7  1  0
  8  7  1  0
  1  9  1  0
  2 10  1  0
  3 11  1  0
  7 12  1  0
  7 13  1  0
 14 15  1  0
 15 16  2  0
 16 17  1  0
 17 18  2  0
 17 19  1  0
 16 20  1  0
 20 21  1  0
 21 22  2  0
 21 23  1  0
 23 24  1  6
 23 25  1  0
 25 26  1  0
 26 27  1  0
 27 28  1  1
 27 15  1  0
 25 20  1  0
 14 29  1  0
 14 30  1  0
 19 31  1  0
 23 32  1  0
 25 33  1  6
 27 34  1  0
  8 14  1  0
M  ISO  7   9  14  10  14  11  14  12   8  13   8  24  15  28  15
M  END
>  <DihAtoms>  (1) 
6,7,13,14

>  <DihDeg>  (1) 
-67.13124208584534

$$$$
