
     RDKit          3D

 34 36  0  0  0  0  0  0  0  0999 V2000
   44.5232   36.0058   44.5236 C   0  0  0  0  0  0  0  0  0  0  0  0
   45.2147   35.8793   43.3288 C   0  0  0  0  0  0  0  0  0  0  0  0
   46.1081   34.8261   43.1792 C   0  0  0  0  0  0  0  0  0  0  0  0
   46.2821   33.9504   44.2013 N   0  0  0  0  0  0  0  0  0  0  0  0
   45.5838   34.1004   45.3735 C   0  0  0  0  0  0  0  0  0  0  0  0
   44.7329   35.1152   45.4967 N   0  0  0  0  0  0  0  0  0  0  0  0
   45.8517   33.0810   46.4314 C   0  0  0  0  0  0  0  0  0  0  0  0
   46.5265   31.6218   45.6105 S   0  0  0  0  0  0  0  0  0  0  0  0
   43.8448   36.8333   44.5932 H   0  0  0  0  0  0  0  0  0  0  0  0
   45.1414   36.5319   42.4552 H   0  0  0  0  0  0  0  0  0  0  0  0
   46.7002   34.6408   42.2767 H   0  0  0  0  0  0  0  0  0  0  0  0
   44.9661   32.9078   47.0366 H   0  0  0  0  0  0  0  0  0  0  0  0
   46.7001   33.5195   47.0327 H   0  0  0  0  0  0  0  0  0  0  0  0
   45.3758   30.7968   44.5168 C   0  0  0  0  0  0  0  0  0  0  0  0
   45.6637   29.3826   44.2494 C   0  0  0  0  0  0  0  0  0  0  0  0
   45.8833   29.0421   42.9819 C   0  0  0  0  0  0  0  0  0  0  0  0
   45.8498   30.0125   41.8667 C   0  0  0  0  0  0  0  0  0  0  0  0
   46.0489   29.7829   40.6463 O   0  0  0  0  0  0  0  0  0  0  0  0
   45.6931   31.2639   41.3072 O   0  0  0  0  0  0  0  0  0  0  0  0
   46.1544   27.6887   42.6420 N   0  0  0  0  0  0  0  0  0  0  0  0
   47.0600   26.8326   41.9047 C   0  0  0  0  0  0  0  0  0  0  0  0
   47.9499   26.9244   40.9913 O   0  0  0  0  0  0  0  0  0  0  0  0
   46.5023   25.6895   42.6960 C   0  0  1  0  0  0  0  0  0  0  0  0
   46.1760   24.9047   41.9499 H   0  0  0  0  0  0  0  0  0  0  0  0
   45.3309   26.5579   43.1049 C   0  0  1  0  0  0  0  0  0  0  0  0
   45.0584   26.7685   44.8594 S   0  0  0  0  0  0  0  0  0  0  0  0
   45.7132   28.3848   45.3421 C   0  0  1  0  0  0  0  0  0  0  0  0
   46.7560   28.2864   45.7559 H   0  0  0  0  0  0  0  0  0  0  0  0
   44.3563   30.8926   45.0023 H   0  0  0  0  0  0  0  0  0  0  0  0
   45.2868   31.4061   43.5991 H   0  0  0  0  0  0  0  0  0  0  0  0
   44.7888   31.7639   41.2996 H   0  0  0  0  0  0  0  0  0  0  0  0
   47.1231   25.3316   43.5201 H   0  0  0  0  0  0  0  0  0  0  0  0
   44.4364   26.3876   42.4800 H   0  0  0  0  0  0  0  0  0  0  0  0
   45.0805   28.7359   46.1886 H   0  0  0  0  0  0  0  0  0  0  0  0
  1  6  2  0
  2  1  1  0
  3  2  2  0
  3  4  1  0
  4  5  2  0
  5  6  1  0
  5  7  1  0
  8  7  1  0
  1  9  1  0
  2 10  1  0
  3 11  1  0
  7 12  1  0
  7 13  1  0
 14 15  1  0
 15 16  2  0
 16 17  1  0
 17 18  2  0
 17 19  1  0
 16 20  1  0
 20 21  1  0
 21 22  2  0
 21 23  1  0
 23 24  1  6
 23 25  1  0
 25 26  1  0
 26 27  1  0
 27 28  1  1
 27 15  1  0
 25 20  1  0
 14 29  1  0
 14 30  1  0
 19 31  1  0
 23 32  1  0
 25 33  1  6
 27 34  1  0
  8 14  1  0
M  ISO  7   9  14  10  14  11  14  12   8  13   8  24  15  28  15
M  END
>  <DihAtoms>  (1) 
6,7,13,14

>  <DihDeg>  (1) 
-67.13124208584534

$$$$
