
     RDKit          3D

 49 53  0  0  0  0  0  0  0  0999 V2000
   46.5668   32.3999   44.9748 C   0  0  2  0  0  0  0  0  0  0  0  0
   46.8692   31.1595   44.8872 N   0  0  0  0  0  0  0  0  0  0  0  0
   47.9498   30.5187   44.7298 C   0  0  0  0  0  0  0  0  0  0  0  0
   47.9643   30.2109   46.0277 N   0  0  0  0  0  0  0  0  0  0  0  0
   47.1343   30.8820   46.8745 C   0  0  0  0  0  0  0  0  0  0  0  0
   47.0700   30.4031   48.2132 C   0  0  0  0  0  0  0  0  0  0  0  0
   46.2226   31.0390   49.0531 C   0  0  0  0  0  0  0  0  0  0  0  0
   45.4286   32.0945   48.7242 C   0  0  0  0  0  0  0  0  0  0  0  0
   45.5748   32.4745   47.3951 C   0  0  0  0  0  0  0  0  0  0  0  0
   46.3744   31.9790   46.3616 C   0  0  0  0  0  0  0  0  0  0  0  0
   44.6318   35.5529   45.2536 C   0  0  0  0  0  0  0  0  0  0  0  0
   44.3262   35.6590   43.9078 C   0  0  0  0  0  0  0  0  0  0  0  0
   44.7882   34.6684   43.0746 C   0  0  0  0  0  0  0  0  0  0  0  0
   45.5135   33.6579   43.6476 N   0  0  0  0  0  0  0  0  0  0  0  0
   45.7938   33.5899   44.9801 C   0  0  0  0  0  0  0  0  0  0  0  0
   45.3315   34.5385   45.6677 N   0  0  0  0  0  0  0  0  0  0  0  0
   44.4443   34.7173   41.2993 S   0  0  0  0  0  0  0  0  0  0  0  0
   47.6315   32.9004   45.0337 H   0  0  0  0  0  0  0  0  0  0  0  0
   46.0528   30.6068   44.5065 H   0  0  0  0  0  0  0  0  0  0  0  0
   48.8604   31.0589   44.3954 H   0  0  0  0  0  0  0  0  0  0  0  0
   47.9395   29.5967   44.0775 H   0  0  0  0  0  0  0  0  0  0  0  0
   48.6365   29.4450   46.3212 H   0  0  0  0  0  0  0  0  0  0  0  0
   47.6568   29.5838   48.5526 H   0  0  0  0  0  0  0  0  0  0  0  0
   46.1863   30.6553   50.0881 H   0  0  0  0  0  0  0  0  0  0  0  0
   44.7796   32.5674   49.4000 H   0  0  0  0  0  0  0  0  0  0  0  0
   44.8979   33.2911   47.1894 H   0  0  0  0  0  0  0  0  0  0  0  0
   44.3176   36.2755   45.9973 H   0  0  0  0  0  0  0  0  0  0  0  0
   43.7603   36.5245   43.7110 H   0  0  0  0  0  0  0  0  0  0  0  0
   45.6400   35.6657   40.3836 C   0  0  0  0  0  0  0  0  0  0  0  0
   45.5814   37.1171   40.5951 C   0  0  0  0  0  0  0  0  0  0  0  0
   44.6757   37.8796   41.1778 C   0  0  0  0  0  0  0  0  0  0  0  0
   43.4648   37.2358   41.7349 C   0  0  0  0  0  0  0  0  0  0  0  0
   42.5873   37.9570   42.3210 O   0  0  0  0  0  0  0  0  0  0  0  0
   42.4194   36.4711   42.1836 O   0  0  0  0  0  0  0  0  0  0  0  0
   44.7498   39.2754   41.3166 N   0  0  0  0  0  0  0  0  0  0  0  0
   44.4686   40.4538   42.0268 C   0  0  0  0  0  0  0  0  0  0  0  0
   43.6343   40.8227   42.9153 O   0  0  0  0  0  0  0  0  0  0  0  0
   45.5535   41.2123   41.3546 C   0  0  1  0  0  0  0  0  0  0  0  0
   45.2875   42.2280   40.9944 H   0  0  0  0  0  0  0  0  0  0  0  0
   45.4155   40.1097   40.3278 C   0  0  1  0  0  0  0  0  0  0  0  0
   47.0768   39.3807   40.0572 S   0  0  0  0  0  0  0  0  0  0  0  0
   46.8217   37.6121   39.9773 C   0  0  2  0  0  0  0  0  0  0  0  0
   46.7702   37.3575   38.8733 H   0  0  0  0  0  0  0  0  0  0  0  0
   46.6638   35.2253   40.5722 H   0  0  0  0  0  0  0  0  0  0  0  0
   45.4337   35.4674   39.2801 H   0  0  0  0  0  0  0  0  0  0  0  0
   41.8187   35.9399   41.5408 H   0  0  0  0  0  0  0  0  0  0  0  0
   46.4552   41.2020   41.9704 H   0  0  0  0  0  0  0  0  0  0  0  0
   44.8627   40.3503   39.4233 H   0  0  0  0  0  0  0  0  0  0  0  0
   47.7488   37.1079   40.3375 H   0  0  0  0  0  0  0  0  0  0  0  0
  1 15  1  0
  1 10  1  0
  2  1  1  0
  3  2  1  0
  3  4  1  0
  4  5  1  0
  5  6  2  0
  6  7  1  0
  8  7  2  0
  9  8  1  0
 10  5  1  0
 10  9  2  0
 11 16  2  0
 12 11  1  0
 13 14  1  0
 13 12  2  0
 14 15  2  0
 15 16  1  0
 17 13  1  0
  1 18  1  1
  2 19  1  0
  3 20  1  0
  3 21  1  0
  4 22  1  0
  6 23  1  0
  7 24  1  0
  8 25  1  0
  9 26  1  0
 11 27  1  0
 12 28  1  0
 29 30  1  0
 30 31  2  0
 31 32  1  0
 32 33  2  0
 32 34  1  0
 31 35  1  0
 35 36  1  0
 36 37  2  0
 36 38  1  0
 38 39  1  6
 38 40  1  0
 40 41  1  0
 41 42  1  0
 42 43  1  6
 42 30  1  0
 40 35  1  0
 29 44  1  0
 29 45  1  0
 34 46  1  0
 38 47  1  0
 40 48  1  6
 42 49  1  0
 17 29  1  0
M  ISO  8  18  13  19   5  20  13  21  13  23  14  24  14  25  14  26  14
M  ISO  4  27  14  28  14  39  15  43  15
M  END
>  <DihAtoms>  (1) 
12,16,28,29

>  <DihDeg>  (1) 
-85.79361122495726

$$$$
