
     RDKit          3D

 40 42  0  0  0  0  0  0  0  0999 V2000
   46.5323   34.2587   43.0724 C   0  0  0  0  0  0  0  0  0  0  0  0
   47.3909   33.3577   43.7003 C   0  0  0  0  0  0  0  0  0  0  0  0
   47.1372   33.0381   45.0360 C   0  0  0  0  0  0  0  0  0  0  0  0
   46.0848   33.6077   45.6552 N   0  0  0  0  0  0  0  0  0  0  0  0
   45.2732   34.4717   45.0297 C   0  0  0  0  0  0  0  0  0  0  0  0
   45.5048   34.7951   43.7280 N   0  0  0  0  0  0  0  0  0  0  0  0
   45.4917   34.2451   40.8201 C   0  0  0  0  0  0  0  0  0  0  0  0
   44.9441   33.1098   40.9759 O   0  0  0  0  0  0  0  0  0  0  0  0
   46.3150   34.9070   41.8222 N   0  0  0  0  0  0  0  0  0  0  0  0
   48.4201   32.8602   42.9404 O   0  0  0  0  0  0  0  0  0  0  0  0
   50.9150   33.0940   42.0914 O   0  0  0  0  0  0  0  0  0  0  0  0
   49.6452   33.8793   42.3198 P   0  0  1  0  0  0  0  0  0  0  0  0
   49.1783   34.5047   40.8345 O   0  0  0  0  0  0  0  0  0  0  0  0
   49.9795   35.1468   43.3791 O   0  0  0  0  0  0  0  0  0  0  0  0
   47.7993   32.3506   45.5013 H   0  0  0  0  0  0  0  0  0  0  0  0
   44.4201   34.9461   45.4987 H   0  0  0  0  0  0  0  0  0  0  0  0
   45.3162   34.7310   39.8645 H   0  0  0  0  0  0  0  0  0  0  0  0
   46.6935   35.8217   41.5521 H   0  0  0  0  0  0  0  0  0  0  0  0
   49.1115   35.4934   40.8684 H   0  0  0  0  0  0  0  0  0  0  0  0
   51.2126   35.7092   43.0468 C   0  0  0  0  0  0  0  0  0  0  0  0
   52.3184   35.0401   43.7780 C   0  0  0  0  0  0  0  0  0  0  0  0
   53.3240   34.4150   43.1973 C   0  0  0  0  0  0  0  0  0  0  0  0
   53.4358   34.3266   41.7220 C   0  0  0  0  0  0  0  0  0  0  0  0
   52.8958   34.6426   40.6353 O   0  0  0  0  0  0  0  0  0  0  0  0
   54.4621   33.6886   41.0593 O   0  0  0  0  0  0  0  0  0  0  0  0
   54.3817   33.7746   43.9004 N   0  0  0  0  0  0  0  0  0  0  0  0
   55.8124   33.5888   43.9906 C   0  0  0  0  0  0  0  0  0  0  0  0
   56.7711   33.7184   43.1735 O   0  0  0  0  0  0  0  0  0  0  0  0
   55.6338   33.1909   45.4327 C   0  0  2  0  0  0  0  0  0  0  0  0
   55.6973   33.9932   46.1633 H   0  0  0  0  0  0  0  0  0  0  0  0
   54.2023   32.8775   45.0578 C   0  0  1  0  0  0  0  0  0  0  0  0
   52.9226   33.6244   46.0660 S   0  0  0  0  0  0  0  0  0  0  0  0
   52.2813   35.0865   45.2632 C   0  0  1  0  0  0  0  0  0  0  0  0
   52.9029   35.9827   45.5438 H   0  0  0  0  0  0  0  0  0  0  0  0
   51.1998   36.7622   43.4628 H   0  0  0  0  0  0  0  0  0  0  0  0
   51.4000   35.7361   41.9809 H   0  0  0  0  0  0  0  0  0  0  0  0
   55.2560   34.1127   40.5984 H   0  0  0  0  0  0  0  0  0  0  0  0
   56.2361   32.2750   45.5872 H   0  0  0  0  0  0  0  0  0  0  0  0
   54.0138   31.8122   44.7634 H   0  0  0  0  0  0  0  0  0  0  0  0
   51.2453   35.3293   45.6128 H   0  0  0  0  0  0  0  0  0  0  0  0
  1  2  2  0
  1  6  1  0
  2  3  1  0
  3  4  2  0
  5  4  1  0
  6  5  2  0
  7  8  2  0
  7  9  1  0
  9  1  1  0
 10  2  1  0
 11 12  2  0
 12 10  1  1
 12 14  1  0
 13 12  1  0
  3 15  1  0
  5 16  1  0
  7 17  1  0
  9 18  1  0
 13 19  1  0
 20 21  1  0
 21 22  2  0
 22 23  1  0
 23 24  2  0
 23 25  1  0
 22 26  1  0
 26 27  1  0
 27 28  2  0
 27 29  1  0
 29 30  1  1
 29 31  1  0
 31 32  1  0
 32 33  1  0
 33 34  1  1
 33 21  1  0
 31 26  1  0
 20 35  1  0
 20 36  1  0
 25 37  1  0
 29 38  1  0
 31 39  1  6
 33 40  1  0
 14 20  1  0
M  ISO  6  15  14  16  14  17   6  19   3  30  15  34  15
M  END
>  <DihAtoms>  (1) 
11,13,19,20

>  <DihDeg>  (1) 
179.98391650990163

$$$$
