
     RDKit          3D

 40 42  0  0  0  0  0  0  0  0999 V2000
   46.5323   34.2587   43.0724 C   0  0  0  0  0  0  0  0  0  0  0  0
   47.3909   33.3577   43.7003 C   0  0  0  0  0  0  0  0  0  0  0  0
   47.1372   33.0381   45.0360 C   0  0  0  0  0  0  0  0  0  0  0  0
   46.0848   33.6077   45.6552 N   0  0  0  0  0  0  0  0  0  0  0  0
   45.2732   34.4717   45.0297 C   0  0  0  0  0  0  0  0  0  0  0  0
   45.5048   34.7951   43.7280 N   0  0  0  0  0  0  0  0  0  0  0  0
   45.4917   34.2451   40.8201 C   0  0  0  0  0  0  0  0  0  0  0  0
   44.9441   33.1098   40.9759 O   0  0  0  0  0  0  0  0  0  0  0  0
   46.3150   34.9070   41.8222 N   0  0  0  0  0  0  0  0  0  0  0  0
   48.4201   32.8602   42.9404 O   0  0  0  0  0  0  0  0  0  0  0  0
   50.9150   33.0940   42.0914 O   0  0  0  0  0  0  0  0  0  0  0  0
   49.6452   33.8793   42.3198 P   0  0  1  0  0  0  0  0  0  0  0  0
   49.1783   34.5047   40.8345 O   0  0  0  0  0  0  0  0  0  0  0  0
   49.9795   35.1468   43.3791 O   0  0  0  0  0  0  0  0  0  0  0  0
   47.7993   32.3506   45.5013 H   0  0  0  0  0  0  0  0  0  0  0  0
   44.4201   34.9461   45.4987 H   0  0  0  0  0  0  0  0  0  0  0  0
   45.3162   34.7310   39.8645 H   0  0  0  0  0  0  0  0  0  0  0  0
   46.6935   35.8217   41.5521 H   0  0  0  0  0  0  0  0  0  0  0  0
   49.1115   35.4934   40.8684 H   0  0  0  0  0  0  0  0  0  0  0  0
   51.2126   35.7092   43.0468 C   0  0  0  0  0  0  0  0  0  0  0  0
   51.7174   36.5738   44.1435 C   0  0  0  0  0  0  0  0  0  0  0  0
   52.8550   36.3792   44.7814 C   0  0  0  0  0  0  0  0  0  0  0  0
   53.7502   35.2466   44.4454 C   0  0  0  0  0  0  0  0  0  0  0  0
   53.9011   34.2494   43.7003 O   0  0  0  0  0  0  0  0  0  0  0  0
   54.9494   34.9932   45.0755 O   0  0  0  0  0  0  0  0  0  0  0  0
   53.3359   37.2090   45.8320 N   0  0  0  0  0  0  0  0  0  0  0  0
   54.4787   37.9158   46.3648 C   0  0  0  0  0  0  0  0  0  0  0  0
   55.7317   37.7992   46.2227 O   0  0  0  0  0  0  0  0  0  0  0  0
   53.5293   38.8050   47.1248 C   0  0  2  0  0  0  0  0  0  0  0  0
   53.2113   39.7123   46.6176 H   0  0  0  0  0  0  0  0  0  0  0  0
   52.5241   37.6857   46.9678 C   0  0  1  0  0  0  0  0  0  0  0  0
   50.9278   38.1256   46.2819 S   0  0  0  0  0  0  0  0  0  0  0  0
   50.8781   37.7352   44.5387 C   0  0  1  0  0  0  0  0  0  0  0  0
   51.2762   38.6016   43.9395 H   0  0  0  0  0  0  0  0  0  0  0  0
   51.0108   36.4277   42.1953 H   0  0  0  0  0  0  0  0  0  0  0  0
   51.9517   34.9781   42.7450 H   0  0  0  0  0  0  0  0  0  0  0  0
   55.8801   35.1855   44.7299 H   0  0  0  0  0  0  0  0  0  0  0  0
   53.9185   38.8761   48.1587 H   0  0  0  0  0  0  0  0  0  0  0  0
   52.4905   36.9582   47.8203 H   0  0  0  0  0  0  0  0  0  0  0  0
   49.8280   37.5889   44.1777 H   0  0  0  0  0  0  0  0  0  0  0  0
  1  2  2  0
  1  6  1  0
  2  3  1  0
  3  4  2  0
  5  4  1  0
  6  5  2  0
  7  8  2  0
  7  9  1  0
  9  1  1  0
 10  2  1  0
 11 12  2  0
 12 10  1  1
 12 14  1  0
 13 12  1  0
  3 15  1  0
  5 16  1  0
  7 17  1  0
  9 18  1  0
 13 19  1  0
 20 21  1  0
 21 22  2  0
 22 23  1  0
 23 24  2  0
 23 25  1  0
 22 26  1  0
 26 27  1  0
 27 28  2  0
 27 29  1  0
 29 30  1  6
 29 31  1  0
 31 32  1  0
 32 33  1  0
 33 34  1  6
 33 21  1  0
 31 26  1  0
 20 35  1  0
 20 36  1  0
 25 37  1  0
 29 38  1  0
 31 39  1  1
 33 40  1  0
 14 20  1  0
M  ISO  6  15  14  16  14  17   6  19   3  30  15  34  15
M  END
>  <DihAtoms>  (1) 
11,13,19,20

>  <DihDeg>  (1) 
179.98391650990163

$$$$
