
     RDKit          3D

 45 48  0  0  1  0  0  0  0  0999 V2000
   48.4110   32.9440   41.6570 C   0  0  0  0  0  0  0  0  0  0  0  0
   48.0780   34.2660   41.9090 C   0  0  0  0  0  0  0  0  0  0  0  0
   49.0460   35.1370   42.3690 C   0  0  0  0  0  0  0  0  0  0  0  0
   50.3310   34.6480   42.5620 C   0  0  0  0  0  0  0  0  0  0  0  0
   50.6150   33.3270   42.2980 C   0  0  0  0  0  0  0  0  0  0  0  0
   49.6760   32.4280   41.8380 C   0  0  0  0  0  0  0  0  0  0  0  0
   46.6650   34.6230   41.6400 C   0  0  0  0  0  0  0  0  0  0  0  0
   45.9550   34.8950   42.9380 C   0  0  0  0  0  0  0  0  0  0  0  0
   46.0140   33.8970   43.9040 C   0  0  0  0  0  0  0  0  0  0  0  0
   45.3720   34.1220   45.1260 C   0  0  0  0  0  0  0  0  0  0  0  0
   44.7310   35.3030   45.2880 N   0  0  0  0  0  0  0  0  0  0  0  0
   44.6920   36.2660   44.3150 C   0  0  0  0  0  0  0  0  0  0  0  0
   45.3050   36.0590   43.1390 N   0  0  0  0  0  0  0  0  0  0  0  0
   47.4820   31.9870   41.1850 O   0  0  0  0  0  0  0  0  0  0  0  0
   50.0420   31.1430   41.5990 O   0  0  0  0  0  0  0  0  0  0  0  0
   50.9500   30.2820   42.1580 C   0  0  0  0  0  0  0  0  0  0  0  0
   50.5880   29.7660   43.5050 C   0  0  0  0  0  0  0  0  0  0  0  0
   51.4220   29.5620   44.5170 C   0  0  0  0  0  0  0  0  0  0  0  0
   50.9410   29.0660   45.7300 N   0  0  0  0  0  0  0  0  0  0  0  0
   51.0100   29.0210   47.1390 C   0  0  0  0  0  0  0  0  0  0  0  0
   51.8170   29.3630   48.0710 O   0  0  0  0  0  0  0  0  0  0  0  0
   49.6890   28.3680   47.2960 C   0  0  0  0  0  0  0  0  0  0  0  0
   49.8370   28.1300   45.8070 C   0  0  1  0  0  0  0  0  0  0  0  0
   48.4100   28.8340   44.9380 S   0  0  0  0  0  0  0  0  0  0  0  0
   49.1480   29.5450   43.4610 C   0  0  0  0  0  0  0  0  0  0  0  0
   52.8670   29.8350   44.4110 C   0  0  0  0  0  0  0  0  0  0  0  0
   53.8440   29.4340   43.7350 O   0  0  0  0  0  0  0  0  0  0  0  0
   53.5180   30.7530   45.1840 O   0  0  0  0  0  0  0  0  0  0  0  0
   48.8054   36.1900   42.5769 H   0  0  0  0  0  0  0  0  0  0  0  0
   51.1239   35.3175   42.9267 H   0  0  0  0  0  0  0  0  0  0  0  0
   51.6427   32.9707   42.4623 H   0  0  0  0  0  0  0  0  0  0  0  0
   46.6291   35.5226   41.0080 H   0  0  0  0  0  0  0  0  0  0  0  0
   46.1704   33.7879   41.1222 H   0  0  0  0  0  0  0  0  0  0  0  0
   46.5509   32.9562   43.7125 H   0  0  0  0  0  0  0  0  0  0  0  0
   45.3875   33.3670   45.9259 H   0  0  0  0  0  0  0  0  0  0  0  0
   44.1578   37.2101   44.4974 H   0  0  0  0  0  0  0  0  0  0  0  0
   46.5418   32.2494   41.0197 H   0  0  0  0  0  0  0  0  0  0  0  0
   51.0626   29.4209   41.4828 H   0  0  0  0  0  0  0  0  0  0  0  0
   51.8763   30.8601   42.2916 H   0  0  0  0  0  0  0  0  0  0  0  0
   49.6766   27.4644   47.9232 H   0  0  0  0  0  0  0  0  0  0  0  0
   48.8149   28.8488   47.7595 H   0  0  0  0  0  0  0  0  0  0  0  0
   49.9428   27.1058   45.4198 H   0  0  0  0  0  0  0  0  0  0  0  0
   48.6646   30.5161   43.2782 H   0  0  0  0  0  0  0  0  0  0  0  0
   48.9877   28.8031   42.6648 H   0  0  0  0  0  0  0  0  0  0  0  0
   54.4910   30.8953   45.0698 H   0  0  0  0  0  0  0  0  0  0  0  0
  1  6  2  0
  1  2  1  0
  2  3  2  0
  3  4  1  0
  5  4  2  0
  6  5  1  0
  7  2  1  0
  7  8  1  0
  8 13  1  0
  8  9  2  0
  9 10  1  0
 10 11  2  0
 12 11  1  0
 13 12  2  0
 14  1  1  0
 15  6  1  0
 15 16  1  0
 16 17  1  0
 17 18  2  0
 18 19  1  0
 19 23  1  0
 19 20  1  0
 20 22  1  0
 20 21  2  0
 23 24  1  0
 23 22  1  0
 25 17  1  0
 25 24  1  0
 26 18  1  0
 26 28  1  0
 27 26  2  0
  3 29  1  0
  4 30  1  0
  5 31  1  0
  7 32  1  0
  7 33  1  0
  9 34  1  0
 10 35  1  0
 12 36  1  0
 14 37  1  0
 16 38  1  0
 16 39  1  0
 22 40  1  0
 22 41  1  0
 23 42  1  1
 25 43  1  0
 25 44  1  0
 28 45  1  0
M  ISO  8  29  14  30  14  31  14  32   8  33   8  34  14  35  14  36  14
M  ISO  8  37   3  38   8  39   8  40  13  41  13  42  13  43  13  44  13
M  ISO  1  45   3
M  END
>  <minimizedAffinity>  (1) 
-5.25786352

>  <minimizedRMSD>  (1) 
2.16879153

$$$$
