
     RDKit          3D

 40 42  0  0  0  0  0  0  0  0999 V2000
   46.5323   34.2587   43.0724 C   0  0  0  0  0  0  0  0  0  0  0  0
   47.3909   33.3577   43.7003 C   0  0  0  0  0  0  0  0  0  0  0  0
   47.1372   33.0381   45.0360 C   0  0  0  0  0  0  0  0  0  0  0  0
   46.0848   33.6077   45.6552 N   0  0  0  0  0  0  0  0  0  0  0  0
   45.2732   34.4717   45.0297 C   0  0  0  0  0  0  0  0  0  0  0  0
   45.5048   34.7951   43.7280 N   0  0  0  0  0  0  0  0  0  0  0  0
   45.4917   34.2451   40.8201 C   0  0  0  0  0  0  0  0  0  0  0  0
   44.9441   33.1098   40.9759 O   0  0  0  0  0  0  0  0  0  0  0  0
   46.3150   34.9070   41.8222 N   0  0  0  0  0  0  0  0  0  0  0  0
   48.4201   32.8602   42.9404 O   0  0  0  0  0  0  0  0  0  0  0  0
   50.9150   33.0940   42.0914 O   0  0  0  0  0  0  0  0  0  0  0  0
   49.6452   33.8793   42.3198 P   0  0  1  0  0  0  0  0  0  0  0  0
   49.1783   34.5047   40.8345 O   0  0  0  0  0  0  0  0  0  0  0  0
   49.9795   35.1468   43.3791 O   0  0  0  0  0  0  0  0  0  0  0  0
   47.7993   32.3506   45.5013 H   0  0  0  0  0  0  0  0  0  0  0  0
   44.4201   34.9461   45.4987 H   0  0  0  0  0  0  0  0  0  0  0  0
   45.3162   34.7310   39.8645 H   0  0  0  0  0  0  0  0  0  0  0  0
   46.6935   35.8217   41.5521 H   0  0  0  0  0  0  0  0  0  0  0  0
   49.1115   35.4934   40.8684 H   0  0  0  0  0  0  0  0  0  0  0  0
   51.2126   35.7092   43.0468 C   0  0  0  0  0  0  0  0  0  0  0  0
   51.5486   36.8336   43.9567 C   0  0  0  0  0  0  0  0  0  0  0  0
   52.6162   36.8723   44.7298 C   0  0  0  0  0  0  0  0  0  0  0  0
   53.5982   35.7623   44.7543 C   0  0  0  0  0  0  0  0  0  0  0  0
   53.8804   34.6367   44.2791 O   0  0  0  0  0  0  0  0  0  0  0  0
   54.7308   35.7466   45.5394 O   0  0  0  0  0  0  0  0  0  0  0  0
   52.9353   37.9507   45.6008 N   0  0  0  0  0  0  0  0  0  0  0  0
   53.9752   38.8418   46.0635 C   0  0  0  0  0  0  0  0  0  0  0  0
   55.2404   38.7889   46.0748 O   0  0  0  0  0  0  0  0  0  0  0  0
   52.9041   39.8069   46.5006 C   0  0  2  0  0  0  0  0  0  0  0  0
   52.6002   40.5505   45.7683 H   0  0  0  0  0  0  0  0  0  0  0  0
   51.9793   38.6100   46.5107 C   0  0  1  0  0  0  0  0  0  0  0  0
   50.4497   38.7650   45.5897 S   0  0  0  0  0  0  0  0  0  0  0  0
   50.6140   37.9890   43.9883 C   0  0  1  0  0  0  0  0  0  0  0  0
   51.0330   38.7250   43.2460 H   0  0  0  0  0  0  0  0  0  0  0  0
   51.0717   36.2003   42.0364 H   0  0  0  0  0  0  0  0  0  0  0  0
   52.0160   34.9854   42.9961 H   0  0  0  0  0  0  0  0  0  0  0  0
   55.6835   35.9242   45.2507 H   0  0  0  0  0  0  0  0  0  0  0  0
   53.1716   40.1378   47.5226 H   0  0  0  0  0  0  0  0  0  0  0  0
   51.8870   38.0930   47.5013 H   0  0  0  0  0  0  0  0  0  0  0  0
   49.6192   37.6881   43.5708 H   0  0  0  0  0  0  0  0  0  0  0  0
  1  2  2  0
  1  6  1  0
  2  3  1  0
  3  4  2  0
  5  4  1  0
  6  5  2  0
  7  8  2  0
  7  9  1  0
  9  1  1  0
 10  2  1  0
 11 12  2  0
 12 10  1  1
 12 14  1  0
 13 12  1  0
  3 15  1  0
  5 16  1  0
  7 17  1  0
  9 18  1  0
 13 19  1  0
 20 21  1  0
 21 22  2  0
 22 23  1  0
 23 24  2  0
 23 25  1  0
 22 26  1  0
 26 27  1  0
 27 28  2  0
 27 29  1  0
 29 30  1  6
 29 31  1  0
 31 32  1  0
 32 33  1  0
 33 34  1  6
 33 21  1  0
 31 26  1  0
 20 35  1  0
 20 36  1  0
 25 37  1  0
 29 38  1  0
 31 39  1  1
 33 40  1  0
 14 20  1  0
M  ISO  6  15  14  16  14  17   6  19   3  30  15  34  15
M  END
>  <DihAtoms>  (1) 
11,13,19,20

>  <DihDeg>  (1) 
179.98391650990163

$$$$
