
     RDKit          3D

 59 63  0  0  1  0  0  0  0  0999 V2000
   46.7980   34.5260   43.0320 C   0  0  0  0  0  0  0  0  0  0  0  0
   46.2850   33.8520   44.1110 C   0  0  0  0  0  0  0  0  0  0  0  0
   45.2460   34.2480   44.8610 C   0  0  0  0  0  0  0  0  0  0  0  0
   44.6240   35.4220   44.5420 C   0  0  0  0  0  0  0  0  0  0  0  0
   45.0400   36.1780   43.4910 C   0  0  0  0  0  0  0  0  0  0  0  0
   46.1190   35.7130   42.7550 C   0  0  0  0  0  0  0  0  0  0  0  0
   46.9290   32.5660   44.4510 C   0  0  0  0  0  0  0  0  0  0  0  0
   46.2210   31.7320   45.4680 C   0  0  0  0  0  0  0  0  0  0  0  0
   47.2500   32.5200   47.5710 C   0  0  0  0  0  0  0  0  0  0  0  0
   47.1230   31.5100   46.5890 C   0  0  0  0  0  0  0  0  0  0  0  0
   47.8470   30.3470   46.7670 C   0  0  0  0  0  0  0  0  0  0  0  0
   48.6320   30.2330   47.8620 N   0  0  0  0  0  0  0  0  0  0  0  0
   48.7280   31.2000   48.7720 C   0  0  0  0  0  0  0  0  0  0  0  0
   48.0440   32.3600   48.6470 N   0  0  0  0  0  0  0  0  0  0  0  0
   49.6170   30.9830   49.9650 C   0  0  0  0  0  0  0  0  0  0  0  0
   50.8780   31.7060   49.8890 C   0  0  0  0  0  0  0  0  0  0  0  0
   52.0750   31.1840   49.4150 C   0  0  0  0  0  0  0  0  0  0  0  0
   53.0390   32.1510   49.4970 C   0  0  0  0  0  0  0  0  0  0  0  0
   52.3940   33.2410   50.0200 N   0  0  0  0  0  0  0  0  0  0  0  0
   51.1090   32.9810   50.2550 N   0  0  0  0  0  0  0  0  0  0  0  0
   48.1730   34.1810   42.0910 S   0  0  0  0  0  0  0  0  0  0  0  0
   49.4670   34.4020   42.8230 O   0  0  0  0  0  0  0  0  0  0  0  0
   48.2140   35.2370   40.9560 O   0  0  0  0  0  0  0  0  0  0  0  0
   48.3690   32.7170   41.2110 C   0  0  0  0  0  0  0  0  0  0  0  0
   47.5210   32.8050   39.9580 C   0  0  0  0  0  0  0  0  0  0  0  0
   46.2690   32.4540   39.8610 C   0  0  0  0  0  0  0  0  0  0  0  0
   45.6160   32.5850   38.6110 N   0  0  0  0  0  0  0  0  0  0  0  0
   44.4660   33.0350   37.8630 C   0  0  0  0  0  0  0  0  0  0  0  0
   43.2210   33.1000   38.1390 O   0  0  0  0  0  0  0  0  0  0  0  0
   45.4500   33.3270   36.7600 C   0  0  0  0  0  0  0  0  0  0  0  0
   46.1660   32.1210   37.3520 C   0  0  1  0  0  0  0  0  0  0  0  0
   47.9540   32.3740   37.2730 S   0  0  0  0  0  0  0  0  0  0  0  0
   48.3240   33.3360   38.8040 C   0  0  0  0  0  0  0  0  0  0  0  0
   45.4980   31.9090   41.0060 C   0  0  0  0  0  0  0  0  0  0  0  0
   45.4490   30.9460   41.8100 O   0  0  0  0  0  0  0  0  0  0  0  0
   44.3980   32.4740   41.5880 O   0  0  0  0  0  0  0  0  0  0  0  0
   44.9028   33.6421   45.7126 H   0  0  0  0  0  0  0  0  0  0  0  0
   43.7705   35.7621   45.1469 H   0  0  0  0  0  0  0  0  0  0  0  0
   44.5391   37.1231   43.2344 H   0  0  0  0  0  0  0  0  0  0  0  0
   46.4604   36.3164   41.9010 H   0  0  0  0  0  0  0  0  0  0  0  0
   47.0099   31.9746   43.5270 H   0  0  0  0  0  0  0  0  0  0  0  0
   47.8977   32.8276   44.9018 H   0  0  0  0  0  0  0  0  0  0  0  0
   45.3187   32.2564   45.8155 H   0  0  0  0  0  0  0  0  0  0  0  0
   45.9231   30.7696   45.0264 H   0  0  0  0  0  0  0  0  0  0  0  0
   46.6873   33.4578   47.4532 H   0  0  0  0  0  0  0  0  0  0  0  0
   47.7861   29.5302   46.0328 H   0  0  0  0  0  0  0  0  0  0  0  0
   49.0790   31.3152   50.8651 H   0  0  0  0  0  0  0  0  0  0  0  0
   49.8604   29.9107   49.9962 H   0  0  0  0  0  0  0  0  0  0  0  0
   52.2231   30.1619   49.0363 H   0  0  0  0  0  0  0  0  0  0  0  0
   54.0972   32.0713   49.2074 H   0  0  0  0  0  0  0  0  0  0  0  0
   52.8460   34.1473   50.2078 H   0  0  0  0  0  0  0  0  0  0  0  0
   49.4262   32.5849   40.9374 H   0  0  0  0  0  0  0  0  0  0  0  0
   48.0563   31.8587   41.8238 H   0  0  0  0  0  0  0  0  0  0  0  0
   45.0700   33.2013   35.7354 H   0  0  0  0  0  0  0  0  0  0  0  0
   45.9204   34.3069   36.5913 H   0  0  0  0  0  0  0  0  0  0  0  0
   46.0508   31.0878   36.9925 H   0  0  0  0  0  0  0  0  0  0  0  0
   49.3956   33.2499   39.0370 H   0  0  0  0  0  0  0  0  0  0  0  0
   48.0591   34.3906   38.6378 H   0  0  0  0  0  0  0  0  0  0  0  0
   43.9561   32.0247   42.3515 H   0  0  0  0  0  0  0  0  0  0  0  0
  1  2  1  0
  2  7  1  0
  2  3  2  0
  4  3  1  0
  5  4  2  0
  6  1  2  0
  6  5  1  0
  7  8  1  0
  8 10  1  0
  9 14  2  0
 10 11  2  0
 10  9  1  0
 11 12  1  0
 12 13  2  0
 13 15  1  0
 14 13  1  0
 16 15  1  0
 16 20  2  0
 17 18  2  0
 17 16  1  0
 18 19  1  0
 19 20  1  0
 21 22  2  0
 21  1  1  0
 23 21  2  0
 24 21  1  0
 25 24  1  0
 26 25  2  0
 26 34  1  0
 27 26  1  0
 28 29  2  0
 28 27  1  0
 30 28  1  0
 31 30  1  0
 31 27  1  0
 32 31  1  0
 32 33  1  0
 33 25  1  0
 34 36  1  0
 34 35  2  0
  3 37  1  0
  4 38  1  0
  5 39  1  0
  6 40  1  0
  7 41  1  0
  7 42  1  0
  8 43  1  0
  8 44  1  0
  9 45  1  0
 11 46  1  0
 15 47  1  0
 15 48  1  0
 17 49  1  0
 18 50  1  0
 19 51  1  0
 24 52  1  0
 24 53  1  0
 30 54  1  0
 30 55  1  0
 31 56  1  6
 33 57  1  0
 33 58  1  0
 36 59  1  0
M  ISO  8  37  14  38  14  39  14  40  14  41   8  42   8  43   8  44   8
M  ISO  8  45  14  46  14  47   8  48   8  49  14  50  14  51   9  52   8
M  ISO  7  53   8  54  13  55  13  56  13  57  13  58  13  59   3
M  END
>  <minimizedAffinity>  (1) 
-6.25451851

>  <minimizedRMSD>  (1) 
1.82107198

$$$$
