
     RDKit          3D

 40 42  0  0  0  0  0  0  0  0999 V2000
   46.5323   34.2587   43.0724 C   0  0  0  0  0  0  0  0  0  0  0  0
   47.3909   33.3577   43.7003 C   0  0  0  0  0  0  0  0  0  0  0  0
   47.1372   33.0381   45.0360 C   0  0  0  0  0  0  0  0  0  0  0  0
   46.0848   33.6077   45.6552 N   0  0  0  0  0  0  0  0  0  0  0  0
   45.2732   34.4717   45.0297 C   0  0  0  0  0  0  0  0  0  0  0  0
   45.5048   34.7951   43.7280 N   0  0  0  0  0  0  0  0  0  0  0  0
   45.4917   34.2451   40.8201 C   0  0  0  0  0  0  0  0  0  0  0  0
   44.9441   33.1098   40.9759 O   0  0  0  0  0  0  0  0  0  0  0  0
   46.3150   34.9070   41.8222 N   0  0  0  0  0  0  0  0  0  0  0  0
   48.4201   32.8602   42.9404 O   0  0  0  0  0  0  0  0  0  0  0  0
   50.9150   33.0940   42.0914 O   0  0  0  0  0  0  0  0  0  0  0  0
   49.6452   33.8793   42.3198 P   0  0  1  0  0  0  0  0  0  0  0  0
   49.1783   34.5047   40.8345 O   0  0  0  0  0  0  0  0  0  0  0  0
   49.9795   35.1468   43.3791 O   0  0  0  0  0  0  0  0  0  0  0  0
   47.7993   32.3506   45.5013 H   0  0  0  0  0  0  0  0  0  0  0  0
   44.4201   34.9461   45.4987 H   0  0  0  0  0  0  0  0  0  0  0  0
   45.3162   34.7310   39.8645 H   0  0  0  0  0  0  0  0  0  0  0  0
   46.6935   35.8217   41.5521 H   0  0  0  0  0  0  0  0  0  0  0  0
   49.1115   35.4934   40.8684 H   0  0  0  0  0  0  0  0  0  0  0  0
   51.2126   35.7092   43.0468 C   0  0  0  0  0  0  0  0  0  0  0  0
   52.0369   35.9421   44.2598 C   0  0  0  0  0  0  0  0  0  0  0  0
   53.2192   35.3981   44.4724 C   0  0  0  0  0  0  0  0  0  0  0  0
   53.8409   34.4815   43.4873 C   0  0  0  0  0  0  0  0  0  0  0  0
   53.6919   33.9242   42.3739 O   0  0  0  0  0  0  0  0  0  0  0  0
   55.0719   33.8844   43.6536 O   0  0  0  0  0  0  0  0  0  0  0  0
   54.0064   35.6228   45.6356 N   0  0  0  0  0  0  0  0  0  0  0  0
   55.3259   35.9265   46.1418 C   0  0  0  0  0  0  0  0  0  0  0  0
   56.4980   35.7982   45.6799 O   0  0  0  0  0  0  0  0  0  0  0  0
   54.6844   36.4381   47.4053 C   0  0  2  0  0  0  0  0  0  0  0  0
   54.4392   37.4969   47.4244 H   0  0  0  0  0  0  0  0  0  0  0  0
   53.4948   35.5875   47.0189 C   0  0  1  0  0  0  0  0  0  0  0  0
   51.8999   36.4038   46.9751 S   0  0  0  0  0  0  0  0  0  0  0  0
   51.4844   36.8533   45.2961 C   0  0  1  0  0  0  0  0  0  0  0  0
   51.9114   37.8666   45.0529 H   0  0  0  0  0  0  0  0  0  0  0  0
   50.9890   36.7486   42.6575 H   0  0  0  0  0  0  0  0  0  0  0  0
   51.7557   35.1446   42.2997 H   0  0  0  0  0  0  0  0  0  0  0  0
   55.9474   34.1459   43.2204 H   0  0  0  0  0  0  0  0  0  0  0  0
   55.2532   36.0034   48.2497 H   0  0  0  0  0  0  0  0  0  0  0  0
   53.4887   34.5564   47.4593 H   0  0  0  0  0  0  0  0  0  0  0  0
   50.3781   36.9626   45.1592 H   0  0  0  0  0  0  0  0  0  0  0  0
  1  2  2  0
  1  6  1  0
  2  3  1  0
  3  4  2  0
  5  4  1  0
  6  5  2  0
  7  8  2  0
  7  9  1  0
  9  1  1  0
 10  2  1  0
 11 12  2  0
 12 10  1  1
 12 14  1  0
 13 12  1  0
  3 15  1  0
  5 16  1  0
  7 17  1  0
  9 18  1  0
 13 19  1  0
 20 21  1  0
 21 22  2  0
 22 23  1  0
 23 24  2  0
 23 25  1  0
 22 26  1  0
 26 27  1  0
 27 28  2  0
 27 29  1  0
 29 30  1  6
 29 31  1  0
 31 32  1  0
 32 33  1  0
 33 34  1  6
 33 21  1  0
 31 26  1  0
 20 35  1  0
 20 36  1  0
 25 37  1  0
 29 38  1  0
 31 39  1  1
 33 40  1  0
 14 20  1  0
M  ISO  6  15  14  16  14  17   6  19   3  30  15  34  15
M  END
>  <DihAtoms>  (1) 
11,13,19,20

>  <DihDeg>  (1) 
179.98391650990163

$$$$
