
     RDKit          3D

 40 42  0  0  0  0  0  0  0  0999 V2000
   46.5323   34.2587   43.0724 C   0  0  0  0  0  0  0  0  0  0  0  0
   47.3909   33.3577   43.7003 C   0  0  0  0  0  0  0  0  0  0  0  0
   47.1372   33.0381   45.0360 C   0  0  0  0  0  0  0  0  0  0  0  0
   46.0848   33.6077   45.6552 N   0  0  0  0  0  0  0  0  0  0  0  0
   45.2732   34.4717   45.0297 C   0  0  0  0  0  0  0  0  0  0  0  0
   45.5048   34.7951   43.7280 N   0  0  0  0  0  0  0  0  0  0  0  0
   45.4917   34.2451   40.8201 C   0  0  0  0  0  0  0  0  0  0  0  0
   44.9441   33.1098   40.9759 O   0  0  0  0  0  0  0  0  0  0  0  0
   46.3150   34.9070   41.8222 N   0  0  0  0  0  0  0  0  0  0  0  0
   48.4201   32.8602   42.9404 O   0  0  0  0  0  0  0  0  0  0  0  0
   50.9150   33.0940   42.0914 O   0  0  0  0  0  0  0  0  0  0  0  0
   49.6452   33.8793   42.3198 P   0  0  1  0  0  0  0  0  0  0  0  0
   49.1783   34.5047   40.8345 O   0  0  0  0  0  0  0  0  0  0  0  0
   49.9795   35.1468   43.3791 O   0  0  0  0  0  0  0  0  0  0  0  0
   47.7993   32.3506   45.5013 H   0  0  0  0  0  0  0  0  0  0  0  0
   44.4201   34.9461   45.4987 H   0  0  0  0  0  0  0  0  0  0  0  0
   45.3162   34.7310   39.8645 H   0  0  0  0  0  0  0  0  0  0  0  0
   46.6935   35.8217   41.5521 H   0  0  0  0  0  0  0  0  0  0  0  0
   49.1115   35.4934   40.8684 H   0  0  0  0  0  0  0  0  0  0  0  0
   51.2126   35.7092   43.0468 C   0  0  0  0  0  0  0  0  0  0  0  0
   51.8840   36.2697   44.2469 C   0  0  0  0  0  0  0  0  0  0  0  0
   53.0607   35.8764   44.6936 C   0  0  0  0  0  0  0  0  0  0  0  0
   53.8330   34.8097   44.0133 C   0  0  0  0  0  0  0  0  0  0  0  0
   53.8368   34.0064   43.0505 O   0  0  0  0  0  0  0  0  0  0  0  0
   55.0658   34.3580   44.4323 O   0  0  0  0  0  0  0  0  0  0  0  0
   53.7012   36.4150   45.8439 N   0  0  0  0  0  0  0  0  0  0  0  0
   54.9394   36.9215   46.3915 C   0  0  0  0  0  0  0  0  0  0  0  0
   56.1606   36.7791   46.0880 O   0  0  0  0  0  0  0  0  0  0  0  0
   54.1365   37.6560   47.4334 C   0  0  2  0  0  0  0  0  0  0  0  0
   53.8386   38.6708   47.1824 H   0  0  0  0  0  0  0  0  0  0  0  0
   53.0410   36.6548   47.1412 C   0  0  1  0  0  0  0  0  0  0  0  0
   51.4225   37.3203   46.7544 S   0  0  0  0  0  0  0  0  0  0  0  0
   51.1750   37.3478   44.9848 C   0  0  1  0  0  0  0  0  0  0  0  0
   51.5758   38.3088   44.5558 H   0  0  0  0  0  0  0  0  0  0  0  0
   50.9826   36.6147   42.4071 H   0  0  0  0  0  0  0  0  0  0  0  0
   51.8629   35.0323   42.5075 H   0  0  0  0  0  0  0  0  0  0  0  0
   55.9701   34.5790   44.0374 H   0  0  0  0  0  0  0  0  0  0  0  0
   54.6284   37.4660   48.4067 H   0  0  0  0  0  0  0  0  0  0  0  0
   53.0368   35.7520   47.8060 H   0  0  0  0  0  0  0  0  0  0  0  0
   50.0868   37.3415   44.7195 H   0  0  0  0  0  0  0  0  0  0  0  0
  1  2  2  0
  1  6  1  0
  2  3  1  0
  3  4  2  0
  5  4  1  0
  6  5  2  0
  7  8  2  0
  7  9  1  0
  9  1  1  0
 10  2  1  0
 11 12  2  0
 12 10  1  1
 12 14  1  0
 13 12  1  0
  3 15  1  0
  5 16  1  0
  7 17  1  0
  9 18  1  0
 13 19  1  0
 20 21  1  0
 21 22  2  0
 22 23  1  0
 23 24  2  0
 23 25  1  0
 22 26  1  0
 26 27  1  0
 27 28  2  0
 27 29  1  0
 29 30  1  6
 29 31  1  0
 31 32  1  0
 32 33  1  0
 33 34  1  6
 33 21  1  0
 31 26  1  0
 20 35  1  0
 20 36  1  0
 25 37  1  0
 29 38  1  0
 31 39  1  1
 33 40  1  0
 14 20  1  0
M  ISO  6  15  14  16  14  17   6  19   3  30  15  34  15
M  END
>  <DihAtoms>  (1) 
11,13,19,20

>  <DihDeg>  (1) 
179.98391650990163

$$$$
