
     RDKit          3D

 54 58  0  0  0  0  0  0  0  0999 V2000
   49.1689   30.3765   40.5584 C   0  0  0  0  0  0  0  0  0  0  0  0
   49.7154   31.5833   40.4116 C   0  0  0  0  0  0  0  0  0  0  0  0
   48.8940   32.7354   40.3340 N   0  0  0  0  0  0  0  0  0  0  0  0
   48.6736   34.1003   40.6285 C   0  0  0  0  0  0  0  0  0  0  0  0
   49.3557   35.0339   41.1516 O   0  0  0  0  0  0  0  0  0  0  0  0
   47.3145   34.1337   40.1142 C   0  0  1  0  0  0  0  0  0  0  0  0
   47.6056   32.7185   39.6699 C   0  0  2  0  0  0  0  0  0  0  0  0
   46.6217   31.4315   40.4422 S   0  0  0  0  0  0  0  0  0  0  0  0
   47.7209   30.0331   40.6634 C   0  0  0  0  0  0  0  0  0  0  0  0
   46.3069   34.3071   41.1492 C   0  0  0  0  0  0  0  0  0  0  0  0
   45.0640   34.2742   41.1465 O   0  0  0  0  0  0  0  0  0  0  0  0
   46.8703   34.5700   42.4534 N   0  0  0  0  0  0  0  0  0  0  0  0
   44.4346   36.0568   44.8246 C   0  0  0  0  0  0  0  0  0  0  0  0
   45.2118   35.8754   43.6816 C   0  0  0  0  0  0  0  0  0  0  0  0
   46.0463   34.7805   43.5856 C   0  0  0  0  0  0  0  0  0  0  0  0
   46.0863   33.9106   44.6080 N   0  0  0  0  0  0  0  0  0  0  0  0
   45.3221   34.0935   45.7262 C   0  0  0  0  0  0  0  0  0  0  0  0
   44.5126   35.1603   45.8137 N   0  0  0  0  0  0  0  0  0  0  0  0
   50.1318   29.2507   40.6208 C   0  0  0  0  0  0  0  0  0  0  0  0
   51.1526   31.7568   40.3253 C   0  0  0  0  0  0  0  0  0  0  0  0
   51.7950   31.6810   39.2558 O   0  0  0  0  0  0  0  0  0  0  0  0
   52.1274   32.0240   41.2705 O   0  0  0  0  0  0  0  0  0  0  0  0
   47.1630   34.8056   39.2383 H   0  0  0  0  0  0  0  0  0  0  0  0
   47.7171   32.6352   38.5670 H   0  0  0  0  0  0  0  0  0  0  0  0
   47.5750   29.6058   41.6774 H   0  0  0  0  0  0  0  0  0  0  0  0
   47.4642   29.2339   39.9404 H   0  0  0  0  0  0  0  0  0  0  0  0
   47.8445   34.6541   42.8232 H   0  0  0  0  0  0  0  0  0  0  0  0
   43.7728   36.9048   44.9263 H   0  0  0  0  0  0  0  0  0  0  0  0
   45.1495   36.5944   42.8878 H   0  0  0  0  0  0  0  0  0  0  0  0
   45.4222   33.3411   46.4954 H   0  0  0  0  0  0  0  0  0  0  0  0
   50.2814   28.9307   41.6919 H   0  0  0  0  0  0  0  0  0  0  0  0
   49.6563   28.3689   40.1149 H   0  0  0  0  0  0  0  0  0  0  0  0
   51.1045   29.4701   40.1819 H   0  0  0  0  0  0  0  0  0  0  0  0
   53.4992   32.1516   40.9318 C   0  0  0  0  0  0  0  0  0  0  0  0
   54.2293   32.4331   42.1867 C   0  0  0  0  0  0  0  0  0  0  0  0
   54.9428   33.4952   42.4310 C   0  0  0  0  0  0  0  0  0  0  0  0
   55.1170   34.5759   41.4652 C   0  0  0  0  0  0  0  0  0  0  0  0
   54.7464   34.8460   40.2988 O   0  0  0  0  0  0  0  0  0  0  0  0
   55.8600   35.7091   41.7050 O   0  0  0  0  0  0  0  0  0  0  0  0
   55.5775   33.6035   43.6763 N   0  0  0  0  0  0  0  0  0  0  0  0
   56.0106   34.4568   44.7568 C   0  0  0  0  0  0  0  0  0  0  0  0
   56.1354   35.7139   44.9467 O   0  0  0  0  0  0  0  0  0  0  0  0
   56.2925   33.3405   45.6613 C   0  0  2  0  0  0  0  0  0  0  0  0
   55.4880   33.2363   46.4232 H   0  0  0  0  0  0  0  0  0  0  0  0
   56.1396   32.5020   44.4223 C   0  0  1  0  0  0  0  0  0  0  0  0
   54.7696   31.3130   44.6498 S   0  0  0  0  0  0  0  0  0  0  0  0
   53.9706   31.2752   43.0522 C   0  0  2  0  0  0  0  0  0  0  0  0
   54.2609   30.2966   42.5670 H   0  0  0  0  0  0  0  0  0  0  0  0
   53.8757   31.2349   40.4252 H   0  0  0  0  0  0  0  0  0  0  0  0
   53.5475   32.9553   40.1854 H   0  0  0  0  0  0  0  0  0  0  0  0
   55.5321   36.6810   41.5881 H   0  0  0  0  0  0  0  0  0  0  0  0
   57.3259   33.2776   46.0669 H   0  0  0  0  0  0  0  0  0  0  0  0
   57.0498   32.0387   44.0287 H   0  0  0  0  0  0  0  0  0  0  0  0
   52.8647   31.1524   43.2452 H   0  0  0  0  0  0  0  0  0  0  0  0
  1 19  1  0
  1  9  1  0
  2  1  2  0
  3  2  1  0
  3  4  1  0
  4  5  2  0
  6  4  1  0
  6 10  1  0
  7  6  1  0
  7  3  1  0
  7  8  1  0
  8  9  1  0
 10 12  1  0
 11 10  2  0
 12 15  1  0
 13 18  2  0
 14 13  1  0
 15 14  2  0
 15 16  1  0
 16 17  2  0
 17 18  1  0
 20  2  1  0
 20 22  1  0
 21 20  2  0
  6 23  1  6
  7 24  1  6
  9 25  1  0
  9 26  1  0
 12 27  1  0
 13 28  1  0
 14 29  1  0
 17 30  1  0
 19 31  1  0
 19 32  1  0
 19 33  1  0
 34 35  1  0
 35 36  2  0
 36 37  1  0
 37 38  2  0
 37 39  1  0
 36 40  1  0
 40 41  1  0
 41 42  2  0
 41 43  1  0
 43 44  1  1
 43 45  1  0
 45 46  1  0
 46 47  1  0
 47 48  1  6
 47 35  1  0
 45 40  1  0
 34 49  1  0
 34 50  1  0
 39 51  1  0
 43 52  1  0
 45 53  1  6
 47 54  1  0
 22 34  1  0
M  ISO  8  23  13  24  13  25  13  26  13  28  14  29  14  30  14  31   8
M  ISO  4  32   8  33   8  44  15  48  15
M  END
>  <DihAtoms>  (1) 
19,21,33,34

>  <DihDeg>  (1) 
179.9998845912407

$$$$
