
     RDKit          3D

 54 58  0  0  0  0  0  0  0  0999 V2000
   49.1689   30.3765   40.5584 C   0  0  0  0  0  0  0  0  0  0  0  0
   49.7154   31.5833   40.4116 C   0  0  0  0  0  0  0  0  0  0  0  0
   48.8940   32.7354   40.3340 N   0  0  0  0  0  0  0  0  0  0  0  0
   48.6736   34.1003   40.6285 C   0  0  0  0  0  0  0  0  0  0  0  0
   49.3557   35.0339   41.1516 O   0  0  0  0  0  0  0  0  0  0  0  0
   47.3145   34.1337   40.1142 C   0  0  1  0  0  0  0  0  0  0  0  0
   47.6056   32.7185   39.6699 C   0  0  2  0  0  0  0  0  0  0  0  0
   46.6217   31.4315   40.4422 S   0  0  0  0  0  0  0  0  0  0  0  0
   47.7209   30.0331   40.6634 C   0  0  0  0  0  0  0  0  0  0  0  0
   46.3069   34.3071   41.1492 C   0  0  0  0  0  0  0  0  0  0  0  0
   45.0640   34.2742   41.1465 O   0  0  0  0  0  0  0  0  0  0  0  0
   46.8703   34.5700   42.4534 N   0  0  0  0  0  0  0  0  0  0  0  0
   44.4346   36.0568   44.8246 C   0  0  0  0  0  0  0  0  0  0  0  0
   45.2118   35.8754   43.6816 C   0  0  0  0  0  0  0  0  0  0  0  0
   46.0463   34.7805   43.5856 C   0  0  0  0  0  0  0  0  0  0  0  0
   46.0863   33.9106   44.6080 N   0  0  0  0  0  0  0  0  0  0  0  0
   45.3221   34.0935   45.7262 C   0  0  0  0  0  0  0  0  0  0  0  0
   44.5126   35.1603   45.8137 N   0  0  0  0  0  0  0  0  0  0  0  0
   50.1318   29.2507   40.6208 C   0  0  0  0  0  0  0  0  0  0  0  0
   51.1526   31.7568   40.3253 C   0  0  0  0  0  0  0  0  0  0  0  0
   51.7950   31.6810   39.2558 O   0  0  0  0  0  0  0  0  0  0  0  0
   52.1274   32.0240   41.2705 O   0  0  0  0  0  0  0  0  0  0  0  0
   47.1630   34.8056   39.2383 H   0  0  0  0  0  0  0  0  0  0  0  0
   47.7171   32.6352   38.5670 H   0  0  0  0  0  0  0  0  0  0  0  0
   47.5750   29.6058   41.6774 H   0  0  0  0  0  0  0  0  0  0  0  0
   47.4642   29.2339   39.9404 H   0  0  0  0  0  0  0  0  0  0  0  0
   47.8445   34.6541   42.8232 H   0  0  0  0  0  0  0  0  0  0  0  0
   43.7728   36.9048   44.9263 H   0  0  0  0  0  0  0  0  0  0  0  0
   45.1495   36.5944   42.8878 H   0  0  0  0  0  0  0  0  0  0  0  0
   45.4222   33.3411   46.4954 H   0  0  0  0  0  0  0  0  0  0  0  0
   50.2814   28.9307   41.6919 H   0  0  0  0  0  0  0  0  0  0  0  0
   49.6563   28.3689   40.1149 H   0  0  0  0  0  0  0  0  0  0  0  0
   51.1045   29.4701   40.1819 H   0  0  0  0  0  0  0  0  0  0  0  0
   53.4992   32.1516   40.9318 C   0  0  0  0  0  0  0  0  0  0  0  0
   53.5681   33.0000   39.7225 C   0  0  0  0  0  0  0  0  0  0  0  0
   54.0690   32.6481   38.5727 C   0  0  0  0  0  0  0  0  0  0  0  0
   54.6438   31.3292   38.3255 C   0  0  0  0  0  0  0  0  0  0  0  0
   54.8427   30.2697   38.9647 O   0  0  0  0  0  0  0  0  0  0  0  0
   55.1714   30.9344   37.1174 O   0  0  0  0  0  0  0  0  0  0  0  0
   54.0610   33.5802   37.5255 N   0  0  0  0  0  0  0  0  0  0  0  0
   53.9341   33.8252   36.1087 C   0  0  0  0  0  0  0  0  0  0  0  0
   53.9325   33.1161   35.0462 O   0  0  0  0  0  0  0  0  0  0  0  0
   53.7935   35.2738   36.2682 C   0  0  2  0  0  0  0  0  0  0  0  0
   52.7318   35.5838   36.1445 H   0  0  0  0  0  0  0  0  0  0  0  0
   54.2417   35.0049   37.6783 C   0  0  1  0  0  0  0  0  0  0  0  0
   52.9440   35.5418   38.8488 S   0  0  0  0  0  0  0  0  0  0  0  0
   52.9656   34.2808   40.1143 C   0  0  2  0  0  0  0  0  0  0  0  0
   53.4657   34.7374   41.0192 H   0  0  0  0  0  0  0  0  0  0  0  0
   54.0844   32.5788   41.7767 H   0  0  0  0  0  0  0  0  0  0  0  0
   53.8674   31.1268   40.7921 H   0  0  0  0  0  0  0  0  0  0  0  0
   54.9137   30.0809   36.5970 H   0  0  0  0  0  0  0  0  0  0  0  0
   54.5277   35.9077   35.7247 H   0  0  0  0  0  0  0  0  0  0  0  0
   55.2403   35.3602   37.9512 H   0  0  0  0  0  0  0  0  0  0  0  0
   51.8968   34.1400   40.4505 H   0  0  0  0  0  0  0  0  0  0  0  0
  1 19  1  0
  1  9  1  0
  2  1  2  0
  3  2  1  0
  3  4  1  0
  4  5  2  0
  6  4  1  0
  6 10  1  0
  7  6  1  0
  7  3  1  0
  7  8  1  0
  8  9  1  0
 10 12  1  0
 11 10  2  0
 12 15  1  0
 13 18  2  0
 14 13  1  0
 15 14  2  0
 15 16  1  0
 16 17  2  0
 17 18  1  0
 20  2  1  0
 20 22  1  0
 21 20  2  0
  6 23  1  6
  7 24  1  6
  9 25  1  0
  9 26  1  0
 12 27  1  0
 13 28  1  0
 14 29  1  0
 17 30  1  0
 19 31  1  0
 19 32  1  0
 19 33  1  0
 34 35  1  0
 35 36  2  0
 36 37  1  0
 37 38  2  0
 37 39  1  0
 36 40  1  0
 40 41  1  0
 41 42  2  0
 41 43  1  0
 43 44  1  1
 43 45  1  0
 45 46  1  0
 46 47  1  0
 47 48  1  1
 47 35  1  0
 45 40  1  0
 34 49  1  0
 34 50  1  0
 39 51  1  0
 43 52  1  0
 45 53  1  1
 47 54  1  0
 22 34  1  0
M  ISO  8  23  13  24  13  25  13  26  13  28  14  29  14  30  14  31   8
M  ISO  4  32   8  33   8  44  15  48  15
M  END
>  <DihAtoms>  (1) 
19,21,33,34

>  <DihDeg>  (1) 
179.9998845912407

$$$$
