
     RDKit          3D

 52 56  0  0  0  0  0  0  0  0999 V2000
   46.2312   35.2200   42.7373 C   0  0  0  0  0  0  0  0  0  0  0  0
   46.8302   34.0375   43.1753 C   0  0  0  0  0  0  0  0  0  0  0  0
   46.4151   33.4706   44.3680 C   0  0  0  0  0  0  0  0  0  0  0  0
   45.4159   34.1026   45.0663 N   0  0  0  0  0  0  0  0  0  0  0  0
   44.8544   35.2360   44.6250 C   0  0  0  0  0  0  0  0  0  0  0  0
   45.2690   35.7828   43.4670 N   0  0  0  0  0  0  0  0  0  0  0  0
   46.9381   32.2640   44.9208 C   0  0  0  0  0  0  0  0  0  0  0  0
   47.6560   31.3108   44.2177 C   0  0  0  0  0  0  0  0  0  0  0  0
   48.0747   30.1181   44.7692 C   0  0  0  0  0  0  0  0  0  0  0  0
   47.7812   29.8221   46.0872 C   0  0  0  0  0  0  0  0  0  0  0  0
   47.0471   30.7962   46.8150 C   0  0  0  0  0  0  0  0  0  0  0  0
   46.7683   30.5120   48.1210 C   0  0  0  0  0  0  0  0  0  0  0  0
   46.0727   31.4239   48.9036 C   0  0  0  0  0  0  0  0  0  0  0  0
   45.6662   32.6347   48.3375 C   0  0  0  0  0  0  0  0  0  0  0  0
   45.9706   32.8919   46.9872 C   0  0  0  0  0  0  0  0  0  0  0  0
   46.6550   31.9621   46.2385 C   0  0  0  0  0  0  0  0  0  0  0  0
   47.7964   33.5025   42.3774 O   0  0  0  0  0  0  0  0  0  0  0  0
   50.3029   33.2914   41.6086 O   0  0  0  0  0  0  0  0  0  0  0  0
   49.2788   34.2853   42.0544 P   0  0  0  0  0  0  0  0  0  0  0  0
   49.0946   35.3914   40.7749 O   0  0  0  0  0  0  0  0  0  0  0  0
   49.7726   35.1112   43.4000 O   0  0  0  0  0  0  0  0  0  0  0  0
   46.5472   35.6893   41.7967 H   0  0  0  0  0  0  0  0  0  0  0  0
   44.0646   35.6684   45.2499 H   0  0  0  0  0  0  0  0  0  0  0  0
   47.9181   31.4533   43.1972 H   0  0  0  0  0  0  0  0  0  0  0  0
   48.6368   29.3800   44.2107 H   0  0  0  0  0  0  0  0  0  0  0  0
   48.0979   28.8981   46.5277 H   0  0  0  0  0  0  0  0  0  0  0  0
   47.1054   29.5492   48.5375 H   0  0  0  0  0  0  0  0  0  0  0  0
   45.9055   31.0892   49.9270 H   0  0  0  0  0  0  0  0  0  0  0  0
   45.1544   33.2053   49.0786 H   0  0  0  0  0  0  0  0  0  0  0  0
   45.5929   33.8509   46.8498 H   0  0  0  0  0  0  0  0  0  0  0  0
   48.8758   36.2983   41.0840 H   0  0  0  0  0  0  0  0  0  0  0  0
   49.9351   34.4445   44.5637 C   0  0  0  0  0  0  0  0  0  0  0  0
   50.9791   35.0622   45.4613 C   0  0  0  0  0  0  0  0  0  0  0  0
   50.8261   35.5356   46.6668 C   0  0  0  0  0  0  0  0  0  0  0  0
   49.4761   35.4483   47.1920 C   0  0  0  0  0  0  0  0  0  0  0  0
   49.2445   35.8895   48.3695 O   0  0  0  0  0  0  0  0  0  0  0  0
   48.1537   35.3039   47.5662 O   0  0  0  0  0  0  0  0  0  0  0  0
   51.8642   36.0911   47.4145 N   0  0  0  0  0  0  0  0  0  0  0  0
   52.5190   36.3677   48.6425 C   0  0  0  0  0  0  0  0  0  0  0  0
   52.1749   36.1341   49.8522 O   0  0  0  0  0  0  0  0  0  0  0  0
   53.7075   37.0046   48.0357 C   0  0  0  0  0  0  0  0  0  0  0  0
   54.6335   36.3740   48.0363 H   0  0  0  0  0  0  0  0  0  0  0  0
   52.9363   36.8001   46.7543 C   0  0  0  0  0  0  0  0  0  0  0  0
   53.6878   35.5656   45.6521 S   0  0  0  0  0  0  0  0  0  0  0  0
   52.2469   35.0244   44.6939 C   0  0  0  0  0  0  0  0  0  0  0  0
   52.4520   34.0417   44.2100 H   0  0  0  0  0  0  0  0  0  0  0  0
   48.9600   34.5540   45.1276 H   0  0  0  0  0  0  0  0  0  0  0  0
   50.0683   33.3828   44.4000 H   0  0  0  0  0  0  0  0  0  0  0  0
   47.4087   35.3991   46.8691 H   0  0  0  0  0  0  0  0  0  0  0  0
   53.8451   38.0787   48.2412 H   0  0  0  0  0  0  0  0  0  0  0  0
   52.5700   37.7038   46.2667 H   0  0  0  0  0  0  0  0  0  0  0  0
   52.2124   35.7406   43.8199 H   0  0  0  0  0  0  0  0  0  0  0  0
  1  2  2  0
  1  6  1  0
  2  3  1  0
  3  7  1  0
  3  4  2  0
  5  4  1  0
  6  5  2  0
  7 16  2  0
  8  9  2  0
  8  7  1  0
  9 10  1  0
 10 11  2  0
 11 12  1  0
 12 13  2  0
 14 13  1  0
 15 14  2  0
 16 11  1  0
 16 15  1  0
 17  2  1  0
 18 19  2  0
 19 17  1  0
 19 21  1  0
 20 19  1  0
  1 22  1  0
  5 23  1  0
  8 24  1  0
  9 25  1  0
 10 26  1  0
 12 27  1  0
 13 28  1  0
 14 29  1  0
 15 30  1  0
 20 31  1  0
 32 33  1  0
 33 34  2  0
 34 35  1  0
 35 36  2  0
 35 37  1  0
 34 38  1  0
 38 39  1  0
 39 40  2  0
 39 41  1  0
 41 42  1  0
 41 43  1  0
 43 44  1  0
 44 45  1  0
 45 46  1  0
 45 33  1  0
 43 38  1  0
 32 47  1  0
 32 48  1  0
 37 49  1  0
 41 50  1  0
 43 51  1  0
 45 52  1  0
 21 32  1  0
M  ISO  8  22  14  23  14  24  14  25  14  26  14  27  14  28  14  29  14
M  ISO  4  30  14  31   3  42  15  46  15
M  END
>  <DihAtoms>  (1) 
18,20,31,32

>  <DihDeg>  (1) 
151.143693372485

$$$$
