
     RDKit          3D

 52 56  0  0  0  0  0  0  0  0999 V2000
   46.2312   35.2200   42.7373 C   0  0  0  0  0  0  0  0  0  0  0  0
   46.8302   34.0375   43.1753 C   0  0  0  0  0  0  0  0  0  0  0  0
   46.4151   33.4706   44.3680 C   0  0  0  0  0  0  0  0  0  0  0  0
   45.4159   34.1026   45.0663 N   0  0  0  0  0  0  0  0  0  0  0  0
   44.8544   35.2360   44.6250 C   0  0  0  0  0  0  0  0  0  0  0  0
   45.2690   35.7828   43.4670 N   0  0  0  0  0  0  0  0  0  0  0  0
   46.9381   32.2640   44.9208 C   0  0  0  0  0  0  0  0  0  0  0  0
   47.6560   31.3108   44.2177 C   0  0  0  0  0  0  0  0  0  0  0  0
   48.0747   30.1181   44.7692 C   0  0  0  0  0  0  0  0  0  0  0  0
   47.7812   29.8221   46.0872 C   0  0  0  0  0  0  0  0  0  0  0  0
   47.0471   30.7962   46.8150 C   0  0  0  0  0  0  0  0  0  0  0  0
   46.7683   30.5120   48.1210 C   0  0  0  0  0  0  0  0  0  0  0  0
   46.0727   31.4239   48.9036 C   0  0  0  0  0  0  0  0  0  0  0  0
   45.6662   32.6347   48.3375 C   0  0  0  0  0  0  0  0  0  0  0  0
   45.9706   32.8919   46.9872 C   0  0  0  0  0  0  0  0  0  0  0  0
   46.6550   31.9621   46.2385 C   0  0  0  0  0  0  0  0  0  0  0  0
   47.7964   33.5025   42.3774 O   0  0  0  0  0  0  0  0  0  0  0  0
   50.3029   33.2914   41.6086 O   0  0  0  0  0  0  0  0  0  0  0  0
   49.2788   34.2853   42.0544 P   0  0  1  0  0  0  0  0  0  0  0  0
   49.0946   35.3914   40.7749 O   0  0  0  0  0  0  0  0  0  0  0  0
   49.7726   35.1112   43.4000 O   0  0  0  0  0  0  0  0  0  0  0  0
   46.5472   35.6893   41.7967 H   0  0  0  0  0  0  0  0  0  0  0  0
   44.0646   35.6684   45.2499 H   0  0  0  0  0  0  0  0  0  0  0  0
   47.9181   31.4533   43.1972 H   0  0  0  0  0  0  0  0  0  0  0  0
   48.6368   29.3800   44.2107 H   0  0  0  0  0  0  0  0  0  0  0  0
   48.0979   28.8981   46.5277 H   0  0  0  0  0  0  0  0  0  0  0  0
   47.1054   29.5492   48.5375 H   0  0  0  0  0  0  0  0  0  0  0  0
   45.9055   31.0892   49.9270 H   0  0  0  0  0  0  0  0  0  0  0  0
   45.1544   33.2053   49.0786 H   0  0  0  0  0  0  0  0  0  0  0  0
   45.5929   33.8509   46.8498 H   0  0  0  0  0  0  0  0  0  0  0  0
   48.8758   36.2983   41.0840 H   0  0  0  0  0  0  0  0  0  0  0  0
   49.9351   34.4445   44.5637 C   0  0  0  0  0  0  0  0  0  0  0  0
   51.3363   34.5445   45.1148 C   0  0  0  0  0  0  0  0  0  0  0  0
   51.7179   35.0409   46.2588 C   0  0  0  0  0  0  0  0  0  0  0  0
   50.6461   35.5563   47.0905 C   0  0  0  0  0  0  0  0  0  0  0  0
   50.9385   36.0581   48.2296 O   0  0  0  0  0  0  0  0  0  0  0  0
   49.5348   36.0078   47.7766 O   0  0  0  0  0  0  0  0  0  0  0  0
   53.0486   35.0871   46.6739 N   0  0  0  0  0  0  0  0  0  0  0  0
   54.0539   35.0524   47.6746 C   0  0  0  0  0  0  0  0  0  0  0  0
   53.9718   34.9972   48.9499 O   0  0  0  0  0  0  0  0  0  0  0  0
   55.1966   35.1014   46.7374 C   0  0  2  0  0  0  0  0  0  0  0  0
   55.7339   34.1285   46.5962 H   0  0  0  0  0  0  0  0  0  0  0  0
   54.1068   35.2519   45.7038 C   0  0  1  0  0  0  0  0  0  0  0  0
   53.9499   33.8093   44.6093 S   0  0  0  0  0  0  0  0  0  0  0  0
   52.2207   33.9520   44.0831 C   0  0  1  0  0  0  0  0  0  0  0  0
   51.8572   32.9773   43.6833 H   0  0  0  0  0  0  0  0  0  0  0  0
   49.2820   34.9724   45.3224 H   0  0  0  0  0  0  0  0  0  0  0  0
   49.5592   33.4315   44.4990 H   0  0  0  0  0  0  0  0  0  0  0  0
   48.7467   36.4179   47.2660 H   0  0  0  0  0  0  0  0  0  0  0  0
   55.8237   36.0070   46.7780 H   0  0  0  0  0  0  0  0  0  0  0  0
   54.0438   36.2231   45.2126 H   0  0  0  0  0  0  0  0  0  0  0  0
   52.2658   34.6079   43.1635 H   0  0  0  0  0  0  0  0  0  0  0  0
  1  2  2  0
  1  6  1  0
  2  3  1  0
  3  7  1  0
  3  4  2  0
  5  4  1  0
  6  5  2  0
  7 16  2  0
  8  9  2  0
  8  7  1  0
  9 10  1  0
 10 11  2  0
 11 12  1  0
 12 13  2  0
 14 13  1  0
 15 14  2  0
 16 11  1  0
 16 15  1  0
 17  2  1  0
 18 19  2  0
 19 17  1  1
 19 21  1  0
 20 19  1  0
  1 22  1  0
  5 23  1  0
  8 24  1  0
  9 25  1  0
 10 26  1  0
 12 27  1  0
 13 28  1  0
 14 29  1  0
 15 30  1  0
 20 31  1  0
 32 33  1  0
 33 34  2  0
 34 35  1  0
 35 36  2  0
 35 37  1  0
 34 38  1  0
 38 39  1  0
 39 40  2  0
 39 41  1  0
 41 42  1  6
 41 43  1  0
 43 44  1  0
 44 45  1  0
 45 46  1  6
 45 33  1  0
 43 38  1  0
 32 47  1  0
 32 48  1  0
 37 49  1  0
 41 50  1  0
 43 51  1  6
 45 52  1  0
 21 32  1  0
M  ISO  8  22  14  23  14  24  14  25  14  26  14  27  14  28  14  29  14
M  ISO  4  30  14  31   3  42  15  46  15
M  END
>  <DihAtoms>  (1) 
18,20,31,32

>  <DihDeg>  (1) 
151.143693372485

$$$$
