
     RDKit          3D

 56 60  0  0  0  0  0  0  0  0999 V2000
   45.1324   36.0145   42.9194 C   0  0  0  0  0  0  0  0  0  0  0  0
   45.3726   34.6483   42.9071 C   0  0  0  0  0  0  0  0  0  0  0  0
   45.2130   33.9194   44.0611 C   0  0  0  0  0  0  0  0  0  0  0  0
   44.8112   34.6087   45.1883 N   0  0  0  0  0  0  0  0  0  0  0  0
   44.5829   35.9198   45.1895 C   0  0  0  0  0  0  0  0  0  0  0  0
   44.7490   36.6131   44.0422 N   0  0  0  0  0  0  0  0  0  0  0  0
   45.4176   32.5297   44.2196 C   0  0  0  0  0  0  0  0  0  0  0  0
   44.9417   31.5620   43.3320 C   0  0  0  0  0  0  0  0  0  0  0  0
   45.0805   30.2109   43.5153 C   0  0  0  0  0  0  0  0  0  0  0  0
   45.7272   29.7399   44.6395 C   0  0  0  0  0  0  0  0  0  0  0  0
   46.2220   30.7163   45.5576 C   0  0  0  0  0  0  0  0  0  0  0  0
   46.8621   30.2472   46.6705 C   0  0  0  0  0  0  0  0  0  0  0  0
   47.3708   31.1340   47.6020 C   0  0  0  0  0  0  0  0  0  0  0  0
   47.2231   32.5134   47.3894 C   0  0  0  0  0  0  0  0  0  0  0  0
   46.5552   32.9373   46.2277 C   0  0  0  0  0  0  0  0  0  0  0  0
   46.0593   32.0354   45.3261 C   0  0  0  0  0  0  0  0  0  0  0  0
   45.7596   34.0905   41.7247 O   0  0  0  0  0  0  0  0  0  0  0  0
   47.6826   32.4296   41.0907 O   0  0  0  0  0  0  0  0  0  0  0  0
   47.3699   33.8816   41.2439 P   0  0  1  0  0  0  0  0  0  0  0  0
   47.6518   34.6013   39.7387 O   0  0  0  0  0  0  0  0  0  0  0  0
   48.3613   34.5944   42.3889 O   0  0  0  0  0  0  0  0  0  0  0  0
   49.5318   35.2906   42.1493 C   0  0  0  0  0  0  0  0  0  0  0  0
   49.2048   36.2092   41.3767 O   0  0  0  0  0  0  0  0  0  0  0  0
   50.6386   34.7028   42.8620 N   0  0  0  0  0  0  0  0  0  0  0  0
   45.2275   36.6656   42.0833 H   0  0  0  0  0  0  0  0  0  0  0  0
   44.2702   36.4241   46.0897 H   0  0  0  0  0  0  0  0  0  0  0  0
   44.4225   31.8813   42.4264 H   0  0  0  0  0  0  0  0  0  0  0  0
   44.6867   29.5153   42.7867 H   0  0  0  0  0  0  0  0  0  0  0  0
   45.8577   28.6872   44.8249 H   0  0  0  0  0  0  0  0  0  0  0  0
   46.9861   29.1804   46.8501 H   0  0  0  0  0  0  0  0  0  0  0  0
   47.8708   30.7128   48.4712 H   0  0  0  0  0  0  0  0  0  0  0  0
   47.6507   33.0974   48.1632 H   0  0  0  0  0  0  0  0  0  0  0  0
   46.5652   34.0061   46.2375 H   0  0  0  0  0  0  0  0  0  0  0  0
   51.4981   34.2261   42.4840 H   0  0  0  0  0  0  0  0  0  0  0  0
   50.6148   34.7389   43.9208 H   0  0  0  0  0  0  0  0  0  0  0  0
   46.5502   35.2911   39.2704 C   0  0  0  0  0  0  0  0  0  0  0  0
   45.3238   34.5183   39.1986 C   0  0  0  0  0  0  0  0  0  0  0  0
   45.2781   33.2485   39.5564 C   0  0  0  0  0  0  0  0  0  0  0  0
   46.4281   32.4687   40.0591 C   0  0  0  0  0  0  0  0  0  0  0  0
   46.3453   31.2624   40.4018 O   0  0  0  0  0  0  0  0  0  0  0  0
   47.6882   32.0964   40.4650 O   0  0  0  0  0  0  0  0  0  0  0  0
   44.0639   32.5295   39.4749 N   0  0  0  0  0  0  0  0  0  0  0  0
   43.1962   31.5283   40.0187 C   0  0  0  0  0  0  0  0  0  0  0  0
   43.2865   30.4105   40.5756 O   0  0  0  0  0  0  0  0  0  0  0  0
   42.0859   32.4457   39.6115 C   0  0  2  0  0  0  0  0  0  0  0  0
   42.0144   33.3382   40.2651 H   0  0  0  0  0  0  0  0  0  0  0  0
   43.0548   32.7077   38.4526 C   0  0  1  0  0  0  0  0  0  0  0  0
   43.0075   34.3344   37.7543 S   0  0  0  0  0  0  0  0  0  0  0  0
   44.2168   35.3152   38.7070 C   0  0  1  0  0  0  0  0  0  0  0  0
   43.6089   35.7978   39.5073 H   0  0  0  0  0  0  0  0  0  0  0  0
   46.8650   35.7184   38.2793 H   0  0  0  0  0  0  0  0  0  0  0  0
   46.4618   36.1977   39.9359 H   0  0  0  0  0  0  0  0  0  0  0  0
   48.4885   32.0543   39.8454 H   0  0  0  0  0  0  0  0  0  0  0  0
   41.1826   31.8928   39.3726 H   0  0  0  0  0  0  0  0  0  0  0  0
   43.0308   31.9168   37.7013 H   0  0  0  0  0  0  0  0  0  0  0  0
   44.5380   36.1456   38.0534 H   0  0  0  0  0  0  0  0  0  0  0  0
  1  6  2  0
  2  1  1  0
  2  3  2  0
  3  7  1  0
  3  4  1  0
  5  4  2  0
  6  5  1  0
  7 16  2  0
  8  9  2  0
  8  7  1  0
  9 10  1  0
 10 11  2  0
 11 12  1  0
 12 13  2  0
 14 13  1  0
 15 14  2  0
 16 11  1  0
 16 15  1  0
 17  2  1  0
 19 18  2  0
 19 17  1  1
 19 21  1  0
 20 19  1  0
 22 21  1  0
 22 24  1  0
 23 22  2  0
  1 25  1  0
  5 26  1  0
  8 27  1  0
  9 28  1  0
 10 29  1  0
 12 30  1  0
 13 31  1  0
 14 32  1  0
 15 33  1  0
 24 34  1  0
 24 35  1  0
 36 37  1  0
 37 38  2  0
 38 39  1  0
 39 40  2  0
 39 41  1  0
 38 42  1  0
 42 43  1  0
 43 44  2  0
 43 45  1  0
 45 46  1  1
 45 47  1  0
 47 48  1  0
 48 49  1  0
 49 50  1  1
 49 37  1  0
 47 42  1  0
 36 51  1  0
 36 52  1  0
 41 53  1  0
 45 54  1  0
 47 55  1  6
 49 56  1  0
 20 36  1  0
M  ISO  8  25  14  26  14  27  14  28  14  29  14  30  14  31  14  32  14
M  ISO  3  33  14  46  15  50  15
M  END
>  <DihAtoms>  (1) 
18,19,35,36

>  <DihDeg>  (1) 
-174.5825466464404

$$$$
