
     RDKit          3D

 56 60  0  0  0  0  0  0  0  0999 V2000
   45.1324   36.0145   42.9194 C   0  0  0  0  0  0  0  0  0  0  0  0
   45.3726   34.6483   42.9071 C   0  0  0  0  0  0  0  0  0  0  0  0
   45.2130   33.9194   44.0611 C   0  0  0  0  0  0  0  0  0  0  0  0
   44.8112   34.6087   45.1883 N   0  0  0  0  0  0  0  0  0  0  0  0
   44.5829   35.9198   45.1895 C   0  0  0  0  0  0  0  0  0  0  0  0
   44.7490   36.6131   44.0422 N   0  0  0  0  0  0  0  0  0  0  0  0
   45.4176   32.5297   44.2196 C   0  0  0  0  0  0  0  0  0  0  0  0
   44.9417   31.5620   43.3320 C   0  0  0  0  0  0  0  0  0  0  0  0
   45.0805   30.2109   43.5153 C   0  0  0  0  0  0  0  0  0  0  0  0
   45.7272   29.7399   44.6395 C   0  0  0  0  0  0  0  0  0  0  0  0
   46.2220   30.7163   45.5576 C   0  0  0  0  0  0  0  0  0  0  0  0
   46.8621   30.2472   46.6705 C   0  0  0  0  0  0  0  0  0  0  0  0
   47.3708   31.1340   47.6020 C   0  0  0  0  0  0  0  0  0  0  0  0
   47.2231   32.5134   47.3894 C   0  0  0  0  0  0  0  0  0  0  0  0
   46.5552   32.9373   46.2277 C   0  0  0  0  0  0  0  0  0  0  0  0
   46.0593   32.0354   45.3261 C   0  0  0  0  0  0  0  0  0  0  0  0
   45.7596   34.0905   41.7247 O   0  0  0  0  0  0  0  0  0  0  0  0
   47.6826   32.4296   41.0907 O   0  0  0  0  0  0  0  0  0  0  0  0
   47.3699   33.8816   41.2439 P   0  0  1  0  0  0  0  0  0  0  0  0
   47.6518   34.6013   39.7387 O   0  0  0  0  0  0  0  0  0  0  0  0
   48.3613   34.5944   42.3889 O   0  0  0  0  0  0  0  0  0  0  0  0
   49.5318   35.2906   42.1493 C   0  0  0  0  0  0  0  0  0  0  0  0
   49.2048   36.2092   41.3767 O   0  0  0  0  0  0  0  0  0  0  0  0
   50.6386   34.7028   42.8620 N   0  0  0  0  0  0  0  0  0  0  0  0
   45.2275   36.6656   42.0833 H   0  0  0  0  0  0  0  0  0  0  0  0
   44.2702   36.4241   46.0897 H   0  0  0  0  0  0  0  0  0  0  0  0
   44.4225   31.8813   42.4264 H   0  0  0  0  0  0  0  0  0  0  0  0
   44.6867   29.5153   42.7867 H   0  0  0  0  0  0  0  0  0  0  0  0
   45.8577   28.6872   44.8249 H   0  0  0  0  0  0  0  0  0  0  0  0
   46.9861   29.1804   46.8501 H   0  0  0  0  0  0  0  0  0  0  0  0
   47.8708   30.7128   48.4712 H   0  0  0  0  0  0  0  0  0  0  0  0
   47.6507   33.0974   48.1632 H   0  0  0  0  0  0  0  0  0  0  0  0
   46.5652   34.0061   46.2375 H   0  0  0  0  0  0  0  0  0  0  0  0
   51.4981   34.2261   42.4840 H   0  0  0  0  0  0  0  0  0  0  0  0
   50.6148   34.7389   43.9208 H   0  0  0  0  0  0  0  0  0  0  0  0
   46.5502   35.2911   39.2704 C   0  0  0  0  0  0  0  0  0  0  0  0
   45.5711   34.4838   38.5659 C   0  0  0  0  0  0  0  0  0  0  0  0
   45.7342   33.1857   38.3908 C   0  0  0  0  0  0  0  0  0  0  0  0
   46.8946   32.4061   38.8694 C   0  0  0  0  0  0  0  0  0  0  0  0
   47.0115   31.1670   38.6942 O   0  0  0  0  0  0  0  0  0  0  0  0
   48.0895   32.0466   39.4474 O   0  0  0  0  0  0  0  0  0  0  0  0
   44.7569   32.4323   37.7015 N   0  0  0  0  0  0  0  0  0  0  0  0
   44.0386   31.2019   37.5564 C   0  0  0  0  0  0  0  0  0  0  0  0
   44.2547   29.9724   37.6527 O   0  0  0  0  0  0  0  0  0  0  0  0
   42.8650   32.0696   37.2250 C   0  0  2  0  0  0  0  0  0  0  0  0
   42.4586   32.5887   38.1163 H   0  0  0  0  0  0  0  0  0  0  0  0
   43.9755   32.9062   36.5790 C   0  0  1  0  0  0  0  0  0  0  0  0
   43.7172   34.6580   36.5616 S   0  0  0  0  0  0  0  0  0  0  0  0
   44.4455   35.2791   38.1159 C   0  0  1  0  0  0  0  0  0  0  0  0
   43.5889   35.3054   38.8289 H   0  0  0  0  0  0  0  0  0  0  0  0
   46.9660   36.1296   38.6474 H   0  0  0  0  0  0  0  0  0  0  0  0
   46.1221   35.8158   40.1726 H   0  0  0  0  0  0  0  0  0  0  0  0
   48.9924   32.3627   39.1143 H   0  0  0  0  0  0  0  0  0  0  0  0
   42.1799   31.5681   36.5483 H   0  0  0  0  0  0  0  0  0  0  0  0
   44.2893   32.5085   35.6125 H   0  0  0  0  0  0  0  0  0  0  0  0
   44.7055   36.3388   37.9438 H   0  0  0  0  0  0  0  0  0  0  0  0
  1  6  2  0
  2  1  1  0
  2  3  2  0
  3  7  1  0
  3  4  1  0
  5  4  2  0
  6  5  1  0
  7 16  2  0
  8  9  2  0
  8  7  1  0
  9 10  1  0
 10 11  2  0
 11 12  1  0
 12 13  2  0
 14 13  1  0
 15 14  2  0
 16 11  1  0
 16 15  1  0
 17  2  1  0
 19 18  2  0
 19 17  1  1
 19 21  1  0
 20 19  1  0
 22 21  1  0
 22 24  1  0
 23 22  2  0
  1 25  1  0
  5 26  1  0
  8 27  1  0
  9 28  1  0
 10 29  1  0
 12 30  1  0
 13 31  1  0
 14 32  1  0
 15 33  1  0
 24 34  1  0
 24 35  1  0
 36 37  1  0
 37 38  2  0
 38 39  1  0
 39 40  2  0
 39 41  1  0
 38 42  1  0
 42 43  1  0
 43 44  2  0
 43 45  1  0
 45 46  1  1
 45 47  1  0
 47 48  1  0
 48 49  1  0
 49 50  1  1
 49 37  1  0
 47 42  1  0
 36 51  1  0
 36 52  1  0
 41 53  1  0
 45 54  1  0
 47 55  1  6
 49 56  1  0
 20 36  1  0
M  ISO  8  25  14  26  14  27  14  28  14  29  14  30  14  31  14  32  14
M  ISO  3  33  14  46  15  50  15
M  END
>  <DihAtoms>  (1) 
18,19,35,36

>  <DihDeg>  (1) 
-174.5825466464404

$$$$
