
     RDKit          3D

 28 29  0  0  0  0  0  0  0  0999 V2000
   44.5324   36.0444   44.5673 C   0  0  0  0  0  0  0  0  0  0  0  0
   45.2422   36.0131   43.3536 C   0  0  0  0  0  0  0  0  0  0  0  0
   46.1342   34.9554   43.1420 C   0  0  0  0  0  0  0  0  0  0  0  0
   46.2783   34.0138   44.1017 N   0  0  0  0  0  0  0  0  0  0  0  0
   45.5758   34.0680   45.2730 C   0  0  0  0  0  0  0  0  0  0  0  0
   44.7158   35.0788   45.4888 N   0  0  0  0  0  0  0  0  0  0  0  0
   46.3989   34.1975   40.7913 C   0  0  0  0  0  0  0  0  0  0  0  0
   45.2142   33.7337   40.9321 O   0  0  0  0  0  0  0  0  0  0  0  0
   46.8922   34.8362   41.9564 N   0  0  0  0  0  0  0  0  0  0  0  0
   43.8389   36.8751   44.7211 H   0  0  0  0  0  0  0  0  0  0  0  0
   45.1185   36.7699   42.5961 H   0  0  0  0  0  0  0  0  0  0  0  0
   45.6739   33.3279   46.0545 H   0  0  0  0  0  0  0  0  0  0  0  0
   47.8505   35.2331   41.9385 H   0  0  0  0  0  0  0  0  0  0  0  0
   47.1413   34.0621   39.5327 C   0  0  2  0  0  0  0  0  0  0  0  0
   46.2610   33.6678   38.3595 C   0  0  1  0  0  0  0  0  0  0  0  0
   46.0878   32.5935   38.4175 H   0  0  0  0  0  0  0  0  0  0  0  0
   47.0803   33.9680   37.1088 C   0  0  2  0  0  0  0  0  0  0  0  0
   47.0527   35.0606   36.8593 H   0  0  0  0  0  0  0  0  0  0  0  0
   48.4150   33.6442   37.2498 O   0  0  0  0  0  0  0  0  0  0  0  0
   48.5747   32.6317   38.1765 C   0  0  2  0  0  0  0  0  0  0  0  0
   49.6004   32.2170   38.1683 H   0  0  0  0  0  0  0  0  0  0  0  0
   48.2803   33.0855   39.5952 C   0  0  2  0  0  0  0  0  0  0  0  0
   48.0269   32.1653   40.1607 H   0  0  0  0  0  0  0  0  0  0  0  0
   47.5545   35.0577   39.2713 H   0  0  0  0  0  0  0  0  0  0  0  0
   45.3554   34.2752   38.2867 H   0  0  0  0  0  0  0  0  0  0  0  0
   46.6517   33.4486   36.2196 H   0  0  0  0  0  0  0  0  0  0  0  0
   47.8875   31.7873   37.8951 H   0  0  0  0  0  0  0  0  0  0  0  0
   49.1495   33.6345   40.0033 H   0  0  0  0  0  0  0  0  0  0  0  0
  1  6  2  0
  2  1  1  0
  3  2  2  0
  3  4  1  0
  4  5  2  0
  5  6  1  0
  7  8  2  0
  7  9  1  0
  9  3  1  0
  1 10  1  0
  2 11  1  0
  5 12  1  0
  9 13  1  0
 14 15  1  0
 15 16  1  1
 15 17  1  0
 17 18  1  6
 17 19  1  0
 19 20  1  0
 20 21  1  1
 20 22  1  0
 22 23  1  1
 22 14  1  0
 14 24  1  6
 15 25  1  0
 17 26  1  0
 20 27  1  0
 22 28  1  0
  7 14  1  0
M  ISO  7  10  14  11  14  12  14  16  15  18  15  21  15  23  15
M  END
>  <DihAtoms>  (1) 
7,6,13,14

>  <DihDeg>  (1) 
-119.9996007266061

$$$$
