
     RDKit          3D

 46 48  0  0  0  0  0  0  0  0999 V2000
   46.7305   32.6192   45.8707 C   0  0  0  0  0  0  0  0  0  0  0  0
   46.8666   31.2492   45.3280 C   0  0  0  0  0  0  0  0  0  0  0  0
   45.8027   30.3439   45.8784 C   0  0  0  0  0  0  0  0  0  0  0  0
   45.8356   30.2953   47.3926 C   0  0  0  0  0  0  0  0  0  0  0  0
   45.9664   31.6349   48.0263 C   0  0  0  0  0  0  0  0  0  0  0  0
   45.8102   32.7606   47.0363 C   0  0  0  0  0  0  0  0  0  0  0  0
   46.2820   33.5764   44.8132 C   0  0  0  0  0  0  0  0  0  0  0  0
   47.1111   33.7628   43.7196 C   0  0  0  0  0  0  0  0  0  0  0  0
   46.7923   34.7004   42.7540 C   0  0  0  0  0  0  0  0  0  0  0  0
   45.6272   35.4016   42.9518 N   0  0  0  0  0  0  0  0  0  0  0  0
   44.8209   35.1982   44.0330 C   0  0  0  0  0  0  0  0  0  0  0  0
   45.1449   34.2990   44.9518 N   0  0  0  0  0  0  0  0  0  0  0  0
   43.6154   35.9590   44.1099 N   0  0  0  0  0  0  0  0  0  0  0  0
   48.9858   34.5410   41.9707 C   0  0  0  0  0  0  0  0  0  0  0  0
   49.2515   34.0746   43.0994 O   0  0  0  0  0  0  0  0  0  0  0  0
   47.6298   34.9409   41.6434 N   0  0  0  0  0  0  0  0  0  0  0  0
   47.7504   33.0038   46.1653 H   0  0  0  0  0  0  0  0  0  0  0  0
   46.8210   31.1457   44.2371 H   0  0  0  0  0  0  0  0  0  0  0  0
   47.8321   30.8157   45.6627 H   0  0  0  0  0  0  0  0  0  0  0  0
   45.9632   29.3337   45.4844 H   0  0  0  0  0  0  0  0  0  0  0  0
   44.8108   30.7477   45.5407 H   0  0  0  0  0  0  0  0  0  0  0  0
   45.0260   29.6674   47.7645 H   0  0  0  0  0  0  0  0  0  0  0  0
   46.7772   29.7184   47.6306 H   0  0  0  0  0  0  0  0  0  0  0  0
   45.1639   31.7402   48.7818 H   0  0  0  0  0  0  0  0  0  0  0  0
   46.9368   31.7791   48.5623 H   0  0  0  0  0  0  0  0  0  0  0  0
   45.9838   33.7261   47.5427 H   0  0  0  0  0  0  0  0  0  0  0  0
   44.7485   32.7272   46.7044 H   0  0  0  0  0  0  0  0  0  0  0  0
   47.9069   33.0461   43.7864 H   0  0  0  0  0  0  0  0  0  0  0  0
   43.4621   36.7059   44.7990 H   0  0  0  0  0  0  0  0  0  0  0  0
   42.8824   35.6963   43.3984 H   0  0  0  0  0  0  0  0  0  0  0  0
   47.2417   35.3365   40.7851 H   0  0  0  0  0  0  0  0  0  0  0  0
   49.9697   34.7670   40.7927 C   0  0  0  0  0  0  0  0  0  0  0  0
   51.3692   34.6859   41.3101 C   0  0  2  0  0  0  0  0  0  0  0  0
   51.4046   34.6562   42.4007 H   0  0  0  0  0  0  0  0  0  0  0  0
   52.0402   33.4762   40.6716 C   0  0  1  0  0  0  0  0  0  0  0  0
   53.1228   33.4846   40.9292 H   0  0  0  0  0  0  0  0  0  0  0  0
   51.9854   33.6350   39.2872 O   0  0  0  0  0  0  0  0  0  0  0  0
   50.7058   33.6103   38.7782 C   0  0  2  0  0  0  0  0  0  0  0  0
   50.6007   32.7528   38.1041 H   0  0  0  0  0  0  0  0  0  0  0  0
   49.6532   33.5984   39.8577 C   0  0  2  0  0  0  0  0  0  0  0  0
   48.6681   33.8435   39.3906 H   0  0  0  0  0  0  0  0  0  0  0  0
   49.6949   35.6866   40.2802 H   0  0  0  0  0  0  0  0  0  0  0  0
   51.9205   35.5657   40.8814 H   0  0  0  0  0  0  0  0  0  0  0  0
   51.5980   32.5260   41.0059 H   0  0  0  0  0  0  0  0  0  0  0  0
   50.5628   34.5602   38.2009 H   0  0  0  0  0  0  0  0  0  0  0  0
   49.5758   32.6579   40.4055 H   0  0  0  0  0  0  0  0  0  0  0  0
  1  6  1  0
  2  3  1  0
  2  1  1  0
  3  4  1  0
  4  5  1  0
  6  5  1  0
  7 12  1  0
  7  1  1  0
  8  7  2  0
  9 10  2  0
  9  8  1  0
 10 11  1  0
 11 13  1  0
 11 12  2  0
 14 15  2  0
 16 14  1  0
 16  9  1  0
  1 17  1  0
  2 18  1  0
  2 19  1  0
  3 20  1  0
  3 21  1  0
  4 22  1  0
  4 23  1  0
  5 24  1  0
  5 25  1  0
  6 26  1  0
  6 27  1  0
  8 28  1  0
 13 29  1  0
 13 30  1  0
 16 31  1  0
 32 33  1  0
 33 34  1  1
 33 35  1  0
 35 36  1  1
 35 37  1  0
 37 38  1  0
 38 39  1  6
 38 40  1  0
 40 41  1  6
 40 32  1  0
 32 42  1  0
 33 43  1  0
 35 44  1  0
 38 45  1  0
 40 46  1  0
 14 32  1  0
M  ISO  8  17  13  18  13  19  13  20  13  21  13  22  13  23  13  24  13
M  ISO  8  25  13  26  13  27  13  28  14  34  15  36  15  39  15  41  15
M  END
>  <DihAtoms>  (1) 
14,13,31,32

>  <DihDeg>  (1) 
-119.99975008377487

$$$$
