
     RDKit          3D

 41 43  0  0  0  0  0  0  0  0999 V2000
   45.1770   34.4340   41.1880 C   0  0  0  0  0  0  0  0  0  0  0  0
   45.5500   35.0740   42.3670 C   0  0  0  0  0  0  0  0  0  0  0  0
   46.9020   35.3260   42.5850 C   0  0  0  0  0  0  0  0  0  0  0  0
   47.8310   34.9440   41.6480 C   0  0  0  0  0  0  0  0  0  0  0  0
   47.4770   34.3140   40.4830 C   0  0  0  0  0  0  0  0  0  0  0  0
   46.1170   34.0680   40.2760 C   0  0  0  0  0  0  0  0  0  0  0  0
   41.4830   34.8060   40.5180 C   0  0  0  0  0  0  0  0  0  0  0  0
   42.8360   35.1490   40.6440 C   0  0  0  0  0  0  0  0  0  0  0  0
   43.7600   34.2060   41.0220 C   0  0  0  0  0  0  0  0  0  0  0  0
   43.2730   32.9600   41.2540 N   0  0  0  0  0  0  0  0  0  0  0  0
   41.9730   32.6260   41.1330 C   0  0  0  0  0  0  0  0  0  0  0  0
   41.0640   33.5600   40.7600 N   0  0  0  0  0  0  0  0  0  0  0  0
   40.4920   35.8270   40.1110 C   0  0  0  0  0  0  0  0  0  0  0  0
   39.2800   35.1660   39.8830 F   0  0  0  0  0  0  0  0  0  0  0  0
   40.8820   36.2800   38.8460 F   0  0  0  0  0  0  0  0  0  0  0  0
   40.3410   36.8410   41.0050 F   0  0  0  0  0  0  0  0  0  0  0  0
   45.5870   32.1030   38.6540 C   0  0  0  0  0  0  0  0  0  0  0  0
   46.0210   31.1210   39.2390 O   0  0  0  0  0  0  0  0  0  0  0  0
   45.6200   33.4350   39.1180 N   0  0  0  0  0  0  0  0  0  0  0  0
   44.9520   31.8750   37.3060 C   0  0  0  0  0  0  0  0  0  0  0  0
   45.2260   30.4830   36.8740 C   0  0  0  0  0  0  0  0  0  0  0  0
   44.4040   30.2540   35.5980 C   0  0  0  0  0  0  0  0  0  0  0  0
   44.3110   31.4270   34.8680 O   0  0  0  0  0  0  0  0  0  0  0  0
   45.4470   32.2270   34.9580 C   0  0  0  0  0  0  0  0  0  0  0  0
   45.5870   32.8450   36.3320 C   0  0  0  0  0  0  0  0  0  0  0  0
   44.7947   35.3734   43.1085 H   0  0  0  0  0  0  0  0  0  0  0  0
   47.2260   35.8307   43.5071 H   0  0  0  0  0  0  0  0  0  0  0  0
   48.8945   35.1505   41.8388 H   0  0  0  0  0  0  0  0  0  0  0  0
   48.2324   34.0144   39.7416 H   0  0  0  0  0  0  0  0  0  0  0  0
   43.1599   36.1800   40.4388 H   0  0  0  0  0  0  0  0  0  0  0  0
   41.6492   31.5947   41.3371 H   0  0  0  0  0  0  0  0  0  0  0  0
   45.1809   34.0958   38.4611 H   0  0  0  0  0  0  0  0  0  0  0  0
   43.8639   32.0307   37.3488 H   0  0  0  0  0  0  0  0  0  0  0  0
   46.2980   30.3542   36.6639 H   0  0  0  0  0  0  0  0  0  0  0  0
   44.9531   29.7616   37.6583 H   0  0  0  0  0  0  0  0  0  0  0  0
   44.8935   29.4830   34.9848 H   0  0  0  0  0  0  0  0  0  0  0  0
   43.3921   29.9267   35.8788 H   0  0  0  0  0  0  0  0  0  0  0  0
   46.3346   31.6108   34.7519 H   0  0  0  0  0  0  0  0  0  0  0  0
   45.3535   33.0404   34.2234 H   0  0  0  0  0  0  0  0  0  0  0  0
   46.6495   32.9892   36.5774 H   0  0  0  0  0  0  0  0  0  0  0  0
   45.0997   33.8302   36.3768 H   0  0  0  0  0  0  0  0  0  0  0  0
  1  2  2  0
  2  3  1  0
  4  3  2  0
  5  4  1  0
  6  5  2  0
  6  1  1  0
  7  8  2  0
  7 12  1  0
  8  9  1  0
  9  1  1  0
  9 10  2  0
 11 10  1  0
 12 11  2  0
 13  7  1  0
 13 16  1  0
 14 13  1  0
 15 13  1  0
 17 19  1  0
 17 18  2  0
 19  6  1  0
 20 17  1  0
 21 20  1  0
 22 21  1  0
 23 24  1  0
 23 22  1  0
 24 25  1  0
 25 20  1  0
  2 26  1  0
  3 27  1  0
  4 28  1  0
  5 29  1  0
  8 30  1  0
 11 31  1  0
 19 32  1  0
 20 33  1  0
 21 34  1  0
 21 35  1  0
 22 36  1  0
 22 37  1  0
 24 38  1  0
 24 39  1  0
 25 40  1  0
 25 41  1  0
M  ISO  8  26  14  27  14  28  14  29  14  30  14  31  14  33  13  34  13
M  ISO  7  35  13  36  13  37  13  38  13  39  13  40  13  41  13
M  END
>  <minimizedAffinity>  (1) 
-6.01299858

>  <minimizedRMSD>  (1) 
0.284868598

$$$$
