
     RDKit          3D

 31 33  0  0  0  0  0  0  0  0999 V2000
   46.0220   33.6290   45.5470 C   0  0  0  0  0  0  0  0  0  0  0  0
   44.9950   34.5660   45.4140 C   0  0  0  0  0  0  0  0  0  0  0  0
   45.1570   35.1960   44.2210 C   0  0  0  0  0  0  0  0  0  0  0  0
   46.2580   34.6630   43.6270 N   0  0  0  0  0  0  0  0  0  0  0  0
   46.7650   33.7190   44.4460 N   0  0  0  0  0  0  0  0  0  0  0  0
   46.8140   35.0240   42.3460 C   0  0  0  0  0  0  0  0  0  0  0  0
   46.3740   34.0980   41.2240 C   0  0  0  0  0  0  0  0  0  0  0  0
   47.4620   33.9330   40.2010 C   0  0  0  0  0  0  0  0  0  0  0  0
   48.2230   35.0700   40.0080 O   0  0  0  0  0  0  0  0  0  0  0  0
   48.8920   35.5130   41.1270 C   0  0  0  0  0  0  0  0  0  0  0  0
   48.3200   34.9270   42.4090 C   0  0  0  0  0  0  0  0  0  0  0  0
   47.4050   31.0620   47.7720 C   0  0  0  0  0  0  0  0  0  0  0  0
   46.5170   31.0870   48.8740 C   0  0  0  0  0  0  0  0  0  0  0  0
   45.4510   32.0000   48.8210 C   0  0  0  0  0  0  0  0  0  0  0  0
   45.3320   32.8000   47.7270 N   0  0  0  0  0  0  0  0  0  0  0  0
   46.1990   32.7460   46.6970 C   0  0  0  0  0  0  0  0  0  0  0  0
   47.2440   31.8830   46.7010 N   0  0  0  0  0  0  0  0  0  0  0  0
   44.1965   34.7597   46.1454 H   0  0  0  0  0  0  0  0  0  0  0  0
   44.5159   35.9905   43.8114 H   0  0  0  0  0  0  0  0  0  0  0  0
   46.4586   36.0433   42.1346 H   0  0  0  0  0  0  0  0  0  0  0  0
   46.1263   33.1133   41.6471 H   0  0  0  0  0  0  0  0  0  0  0  0
   45.4950   34.5391   40.7313 H   0  0  0  0  0  0  0  0  0  0  0  0
   48.1279   33.1218   40.5306 H   0  0  0  0  0  0  0  0  0  0  0  0
   46.9697   33.7105   39.2428 H   0  0  0  0  0  0  0  0  0  0  0  0
   49.9497   35.2219   41.0457 H   0  0  0  0  0  0  0  0  0  0  0  0
   48.7799   36.6062   41.1764 H   0  0  0  0  0  0  0  0  0  0  0  0
   48.6930   35.4931   43.2752 H   0  0  0  0  0  0  0  0  0  0  0  0
   48.6273   33.8761   42.5147 H   0  0  0  0  0  0  0  0  0  0  0  0
   48.2499   30.3577   47.7828 H   0  0  0  0  0  0  0  0  0  0  0  0
   46.6561   30.4187   49.7366 H   0  0  0  0  0  0  0  0  0  0  0  0
   44.7274   32.0668   49.6468 H   0  0  0  0  0  0  0  0  0  0  0  0
  1 16  1  0
  2  1  1  0
  3  2  2  0
  4  3  1  0
  4  5  1  0
  5  1  2  0
  6 11  1  0
  6  4  1  0
  7  6  1  0
  8  7  1  0
  9  8  1  0
  9 10  1  0
 10 11  1  0
 12 13  2  0
 14 13  1  0
 15 14  2  0
 16 17  2  0
 16 15  1  0
 17 12  1  0
  2 18  1  0
  3 19  1  0
  6 20  1  0
  7 21  1  0
  7 22  1  0
  8 23  1  0
  8 24  1  0
 10 25  1  0
 10 26  1  0
 11 27  1  0
 11 28  1  0
 12 29  1  0
 13 30  1  0
 14 31  1  0
M  ISO  8  18  14  19  14  20  13  21  13  22  13  23  13  24  13  25  13
M  ISO  6  26  13  27  13  28  13  29  14  30  14  31  14
M  END
>  <minimizedAffinity>  (1) 
-5.41205406

>  <minimizedRMSD>  (1) 
7.61731911

$$$$
