
     RDKit          3D

 32 34  0  0  1  0  0  0  0  0999 V2000
   49.5660   35.3670   42.7850 O   0  0  0  0  0  0  0  0  0  0  0  0
   48.9640   34.2680   41.9900 P   0  0  1  0  0  0  0  0  0  0  0  0
   50.2080   33.2340   41.5210 O   0  0  0  0  0  0  0  0  0  0  0  0
   47.7970   33.4020   42.9070 O   0  0  0  0  0  0  0  0  0  0  0  0
   46.2070   35.1830   42.9190 C   0  0  0  0  0  0  0  0  0  0  0  0
   46.7620   34.0810   43.5560 C   0  0  0  0  0  0  0  0  0  0  0  0
   46.2560   33.7200   44.8010 C   0  0  0  0  0  0  0  0  0  0  0  0
   45.2500   34.4590   45.3280 N   0  0  0  0  0  0  0  0  0  0  0  0
   44.7340   35.5230   44.6820 C   0  0  0  0  0  0  0  0  0  0  0  0
   45.2080   35.8800   43.4890 N   0  0  0  0  0  0  0  0  0  0  0  0
   48.2460   34.9240   40.6300 O   0  0  0  0  0  0  0  0  0  0  0  0
   47.7110   34.2230   39.5990 C   0  0  0  0  0  0  0  0  0  0  0  0
   46.5440   33.8000   39.8870 O   0  0  0  0  0  0  0  0  0  0  0  0
   47.2010   33.4740   38.4280 C   0  0  0  0  0  0  0  0  0  0  0  0
   47.4560   32.0090   38.4350 C   0  0  0  0  0  0  0  0  0  0  0  0
   48.8730   31.5870   38.2190 C   0  0  0  0  0  0  0  0  0  0  0  0
   49.6730   32.6290   37.7610 O   0  0  0  0  0  0  0  0  0  0  0  0
   49.0050   33.2250   36.6860 C   0  0  0  0  0  0  0  0  0  0  0  0
   47.8860   34.0760   37.2150 C   0  0  0  0  0  0  0  0  0  0  0  0
   50.6516   32.8653   42.3256 H   0  0  0  0  0  0  0  0  0  0  0  0
   46.5897   35.4901   41.9345 H   0  0  0  0  0  0  0  0  0  0  0  0
   46.6632   32.8548   45.3447 H   0  0  0  0  0  0  0  0  0  0  0  0
   43.9177   36.0995   45.1416 H   0  0  0  0  0  0  0  0  0  0  0  0
   47.2757   35.1490   39.1953 H   0  0  0  0  0  0  0  0  0  0  0  0
   47.1335   31.6165   39.4107 H   0  0  0  0  0  0  0  0  0  0  0  0
   46.8945   31.6074   37.5786 H   0  0  0  0  0  0  0  0  0  0  0  0
   49.2817   31.2207   39.1723 H   0  0  0  0  0  0  0  0  0  0  0  0
   48.8750   30.8000   37.4505 H   0  0  0  0  0  0  0  0  0  0  0  0
   48.5951   32.4444   36.0283 H   0  0  0  0  0  0  0  0  0  0  0  0
   49.7067   33.8489   36.1130 H   0  0  0  0  0  0  0  0  0  0  0  0
   48.2955   35.0576   37.4957 H   0  0  0  0  0  0  0  0  0  0  0  0
   47.1312   34.1564   36.4189 H   0  0  0  0  0  0  0  0  0  0  0  0
  2  1  2  0
  2  4  1  0
  3  2  1  0
  4  6  1  0
  5 10  2  0
  5  6  1  0
  6  7  2  0
  7  8  1  0
  9  8  2  0
 10  9  1  0
 11  2  1  0
 12 13  1  0
 12 11  1  0
 14 15  1  0
 14 12  1  0
 14 13  1  0
 16 15  1  0
 17 16  1  0
 18 19  1  0
 18 17  1  0
 19 14  1  0
  3 20  1  0
  5 21  1  0
  7 22  1  0
  9 23  1  0
 12 24  1  0
 15 25  1  0
 15 26  1  0
 16 27  1  0
 16 28  1  0
 18 29  1  0
 18 30  1  0
 19 31  1  0
 19 32  1  0
M  ISO  8  20   3  21  14  22  14  23  14  24  13  25  13  26  13  27  13
M  ISO  5  28  13  29  13  30  13  31  13  32  13
M  END
>  <minimizedAffinity>  (1) 
-4.55228996

>  <minimizedRMSD>  (1) 
0.765836716

$$$$
