
     RDKit          3D

 43 45  0  0  0  0  0  0  0  0999 V2000
   45.0690   34.5030   42.0760 C   0  0  0  0  0  0  0  0  0  0  0  0
   46.3950   34.4850   41.6280 C   0  0  0  0  0  0  0  0  0  0  0  0
   47.4060   34.2900   42.5770 C   0  0  0  0  0  0  0  0  0  0  0  0
   47.0400   34.1300   43.8680 N   0  0  0  0  0  0  0  0  0  0  0  0
   45.7550   34.1500   44.2790 C   0  0  0  0  0  0  0  0  0  0  0  0
   44.8030   34.3370   43.3720 N   0  0  0  0  0  0  0  0  0  0  0  0
   45.4870   33.9670   45.6910 C   0  0  0  0  0  0  0  0  0  0  0  0
   44.6250   34.7390   46.1940 O   0  0  0  0  0  0  0  0  0  0  0  0
   46.1820   32.9340   46.5110 C   0  0  0  0  0  0  0  0  0  0  0  0
   45.4640   32.8380   47.8520 C   0  0  0  0  0  0  0  0  0  0  0  0
   46.0320   31.7810   48.7320 C   0  0  0  0  0  0  0  0  0  0  0  0
   46.1720   30.5970   48.0520 O   0  0  0  0  0  0  0  0  0  0  0  0
   45.5540   30.5710   46.8130 C   0  0  0  0  0  0  0  0  0  0  0  0
   46.1700   31.5860   45.8640 C   0  0  0  0  0  0  0  0  0  0  0  0
   43.8090   34.7580   40.8190 S   0  0  0  0  0  0  0  0  0  0  0  0
   42.1620   34.8930   41.5100 C   0  0  0  0  0  0  0  0  0  0  0  0
   41.2970   35.8910   40.7990 C   0  0  0  0  0  0  0  0  0  0  0  0
   42.0580   36.1010   37.8450 Cl  0  0  0  0  0  0  0  0  0  0  0  0
   40.6710   35.2570   38.4410 C   0  0  0  0  0  0  0  0  0  0  0  0
   40.4090   35.2220   39.8280 C   0  0  0  0  0  0  0  0  0  0  0  0
   39.2850   34.5290   40.2160 C   0  0  0  0  0  0  0  0  0  0  0  0
   38.3830   33.8640   39.3910 C   0  0  0  0  0  0  0  0  0  0  0  0
   38.6610   33.9140   38.0400 C   0  0  0  0  0  0  0  0  0  0  0  0
   37.5770   33.1020   36.9160 Cl  0  0  0  0  0  0  0  0  0  0  0  0
   39.7810   34.5970   37.5850 C   0  0  0  0  0  0  0  0  0  0  0  0
   46.6355   34.6199   40.5631 H   0  0  0  0  0  0  0  0  0  0  0  0
   48.4652   34.2677   42.2809 H   0  0  0  0  0  0  0  0  0  0  0  0
   47.2335   33.2361   46.6255 H   0  0  0  0  0  0  0  0  0  0  0  0
   45.5476   33.8068   48.3663 H   0  0  0  0  0  0  0  0  0  0  0  0
   44.4153   32.5745   47.6498 H   0  0  0  0  0  0  0  0  0  0  0  0
   47.0183   32.1064   49.0943 H   0  0  0  0  0  0  0  0  0  0  0  0
   45.3447   31.6211   49.5758 H   0  0  0  0  0  0  0  0  0  0  0  0
   45.6618   29.5654   46.3804 H   0  0  0  0  0  0  0  0  0  0  0  0
   44.4927   30.8255   46.9504 H   0  0  0  0  0  0  0  0  0  0  0  0
   45.5768   31.6292   44.9387 H   0  0  0  0  0  0  0  0  0  0  0  0
   47.2011   31.2854   45.6264 H   0  0  0  0  0  0  0  0  0  0  0  0
   41.6774   33.9072   41.4512 H   0  0  0  0  0  0  0  0  0  0  0  0
   42.2730   35.2408   42.5476 H   0  0  0  0  0  0  0  0  0  0  0  0
   40.6835   36.4270   41.5382 H   0  0  0  0  0  0  0  0  0  0  0  0
   41.9456   36.5938   40.2555 H   0  0  0  0  0  0  0  0  0  0  0  0
   39.0770   34.4973   41.2957 H   0  0  0  0  0  0  0  0  0  0  0  0
   37.5058   33.3332   39.7895 H   0  0  0  0  0  0  0  0  0  0  0  0
   39.9780   34.6206   36.5030 H   0  0  0  0  0  0  0  0  0  0  0  0
  1  6  1  0
  2  1  2  0
  2  3  1  0
  3  4  2  0
  4  5  1  0
  5  7  1  0
  6  5  2  0
  7  8  2  0
  7  9  1  0
  9 10  1  0
 10 11  1  0
 12 11  1  0
 13 12  1  0
 14  9  1  0
 14 13  1  0
 15 16  1  0
 15  1  1  0
 17 16  1  0
 18 19  1  0
 19 20  2  0
 20 21  1  0
 20 17  1  0
 22 21  2  0
 23 22  1  0
 24 23  1  0
 25 23  2  0
 25 19  1  0
  2 26  1  0
  3 27  1  0
  9 28  1  0
 10 29  1  0
 10 30  1  0
 11 31  1  0
 11 32  1  0
 13 33  1  0
 13 34  1  0
 14 35  1  0
 14 36  1  0
 16 37  1  0
 16 38  1  0
 17 39  1  0
 17 40  1  0
 21 41  1  0
 22 42  1  0
 25 43  1  0
M  ISO  8  26  14  27  14  28  13  29  13  30  13  31  13  32  13  33  13
M  ISO  8  34  13  35  13  36  13  37   8  38   8  39   8  40   8  41  14
M  ISO  2  42  14  43  14
M  END
>  <minimizedAffinity>  (1) 
-6.86438179

>  <minimizedRMSD>  (1) 
0.491852999

$$$$
