
     RDKit          3D

 38 40  0  0  0  0  0  0  0  0999 V2000
   46.5960   34.7430   41.9840 C   0  0  0  0  0  0  0  0  0  0  0  0
   47.8950   35.1980   41.9210 C   0  0  0  0  0  0  0  0  0  0  0  0
   48.6130   35.0100   40.7590 C   0  0  0  0  0  0  0  0  0  0  0  0
   48.0250   34.3780   39.6930 C   0  0  0  0  0  0  0  0  0  0  0  0
   46.7340   33.9130   39.7180 C   0  0  0  0  0  0  0  0  0  0  0  0
   46.0300   34.1190   40.9160 C   0  0  0  0  0  0  0  0  0  0  0  0
   44.4900   36.1870   44.7750 C   0  0  0  0  0  0  0  0  0  0  0  0
   45.1250   36.0830   43.5220 C   0  0  0  0  0  0  0  0  0  0  0  0
   45.8870   34.9710   43.2410 C   0  0  0  0  0  0  0  0  0  0  0  0
   45.9820   34.0140   44.2200 N   0  0  0  0  0  0  0  0  0  0  0  0
   45.3650   34.1310   45.4170 C   0  0  0  0  0  0  0  0  0  0  0  0
   44.6140   35.2270   45.6930 N   0  0  0  0  0  0  0  0  0  0  0  0
   43.4270   34.2340   40.7680 C   0  0  0  0  0  0  0  0  0  0  0  0
   43.1870   35.3130   40.2230 O   0  0  0  0  0  0  0  0  0  0  0  0
   44.6950   33.6840   41.0770 N   0  0  0  0  0  0  0  0  0  0  0  0
   42.2930   33.3340   41.1860 C   0  0  0  0  0  0  0  0  0  0  0  0
   41.0110   34.1680   41.3030 C   0  0  0  0  0  0  0  0  0  0  0  0
   39.9200   33.1890   41.6760 C   0  0  0  0  0  0  0  0  0  0  0  0
   40.3290   31.8800   41.7460 O   0  0  0  0  0  0  0  0  0  0  0  0
   40.8890   31.4200   40.5560 C   0  0  0  0  0  0  0  0  0  0  0  0
   42.0080   32.3300   40.0850 C   0  0  0  0  0  0  0  0  0  0  0  0
   48.3522   35.7034   42.7844 H   0  0  0  0  0  0  0  0  0  0  0  0
   49.6517   35.3649   40.6872 H   0  0  0  0  0  0  0  0  0  0  0  0
   48.6155   34.2374   38.7757 H   0  0  0  0  0  0  0  0  0  0  0  0
   46.2783   33.4096   38.8526 H   0  0  0  0  0  0  0  0  0  0  0  0
   43.8814   37.0751   45.0005 H   0  0  0  0  0  0  0  0  0  0  0  0
   45.0132   36.8826   42.7749 H   0  0  0  0  0  0  0  0  0  0  0  0
   45.4720   33.3357   46.1693 H   0  0  0  0  0  0  0  0  0  0  0  0
   44.6293   32.7563   41.5196 H   0  0  0  0  0  0  0  0  0  0  0  0
   42.5696   32.8451   42.1317 H   0  0  0  0  0  0  0  0  0  0  0  0
   41.1219   34.9348   42.0839 H   0  0  0  0  0  0  0  0  0  0  0  0
   40.7815   34.6944   40.3648 H   0  0  0  0  0  0  0  0  0  0  0  0
   39.5212   33.4774   42.6598 H   0  0  0  0  0  0  0  0  0  0  0  0
   39.1675   33.2392   40.8752 H   0  0  0  0  0  0  0  0  0  0  0  0
   41.2928   30.4096   40.7171 H   0  0  0  0  0  0  0  0  0  0  0  0
   40.1043   31.4074   39.7853 H   0  0  0  0  0  0  0  0  0  0  0  0
   42.9105   31.7357   39.8794 H   0  0  0  0  0  0  0  0  0  0  0  0
   41.7135   32.8500   39.1615 H   0  0  0  0  0  0  0  0  0  0  0  0
  1  9  1  0
  2  1  2  0
  3  2  1  0
  4  5  1  0
  4  3  2  0
  5  6  2  0
  6 15  1  0
  6  1  1  0
  7 12  2  0
  8  7  1  0
  9  8  2  0
  9 10  1  0
 10 11  2  0
 11 12  1  0
 13 15  1  0
 13 16  1  0
 14 13  2  0
 16 17  1  0
 17 18  1  0
 18 19  1  0
 20 19  1  0
 21 20  1  0
 21 16  1  0
  2 22  1  0
  3 23  1  0
  4 24  1  0
  5 25  1  0
  7 26  1  0
  8 27  1  0
 11 28  1  0
 15 29  1  0
 16 30  1  0
 17 31  1  0
 17 32  1  0
 18 33  1  0
 18 34  1  0
 20 35  1  0
 20 36  1  0
 21 37  1  0
 21 38  1  0
M  ISO  8  22  14  23  14  24  14  25  14  26  14  27  14  28  14  30  13
M  ISO  8  31  13  32  13  33  13  34  13  35  13  36  13  37  13  38  13
M  END
>  <minimizedAffinity>  (1) 
-6.2312746

>  <minimizedRMSD>  (1) 
0.398371845

$$$$
