
     RDKit          3D

 46 48  0  0  0  0  0  0  0  0999 V2000
   46.1847   32.0879   45.4353 C   0  0  0  0  0  0  0  0  0  0  0  0
   45.7551   32.0283   49.1314 C   0  0  0  0  0  0  0  0  0  0  0  0
   46.0457   32.4934   47.8436 C   0  0  0  0  0  0  0  0  0  0  0  0
   45.8830   31.6115   46.7898 C   0  0  0  0  0  0  0  0  0  0  0  0
   45.4498   30.3392   47.0577 N   0  0  0  0  0  0  0  0  0  0  0  0
   45.1795   29.9278   48.3169 C   0  0  0  0  0  0  0  0  0  0  0  0
   45.3331   30.7676   49.3315 N   0  0  0  0  0  0  0  0  0  0  0  0
   46.5510   33.3995   45.4117 O   0  0  0  0  0  0  0  0  0  0  0  0
   44.6377   35.1796   45.2546 O   0  0  0  0  0  0  0  0  0  0  0  0
   45.4550   34.2391   44.4222 P   0  0  2  0  0  0  0  0  0  0  0  0
   44.5171   33.0652   43.6774 O   0  0  0  0  0  0  0  0  0  0  0  0
   46.3503   35.1197   43.3039 O   0  0  0  0  0  0  0  0  0  0  0  0
   47.1093   34.2738   42.5341 C   0  0  1  0  0  0  0  0  0  0  0  0
   46.9484   34.4549   41.0489 C   0  0  0  0  0  0  0  0  0  0  0  0
   48.1166   33.6706   40.5063 C   0  0  0  0  0  0  0  0  0  0  0  0
   49.1569   33.6552   41.5961 C   0  0  0  0  0  0  0  0  0  0  0  0
   48.5998   34.5409   42.7017 C   0  0  1  0  0  0  0  0  0  0  0  0
   47.1020   31.5097   45.1150 H   0  0  0  0  0  0  0  0  0  0  0  0
   45.3926   31.7510   44.7781 H   0  0  0  0  0  0  0  0  0  0  0  0
   45.9062   32.7777   49.9106 H   0  0  0  0  0  0  0  0  0  0  0  0
   46.3909   33.5121   47.6438 H   0  0  0  0  0  0  0  0  0  0  0  0
   44.8410   28.9142   48.4705 H   0  0  0  0  0  0  0  0  0  0  0  0
   44.7702   32.9853   42.7262 H   0  0  0  0  0  0  0  0  0  0  0  0
   46.9555   33.2096   42.7990 H   0  0  0  0  0  0  0  0  0  0  0  0
   46.0125   33.9425   40.6776 H   0  0  0  0  0  0  0  0  0  0  0  0
   46.8915   35.4918   40.7315 H   0  0  0  0  0  0  0  0  0  0  0  0
   47.8273   32.6220   40.2271 H   0  0  0  0  0  0  0  0  0  0  0  0
   48.4477   34.1417   39.5722 H   0  0  0  0  0  0  0  0  0  0  0  0
   50.0742   34.0784   41.1468 H   0  0  0  0  0  0  0  0  0  0  0  0
   49.2802   32.6388   42.0033 H   0  0  0  0  0  0  0  0  0  0  0  0
   48.9566   34.2347   43.6929 H   0  0  0  0  0  0  0  0  0  0  0  0
   48.9390   35.9814   42.4973 C   0  0  0  0  0  0  0  0  0  0  0  0
   47.9507   36.5777   41.5175 C   0  0  1  0  0  0  0  0  0  0  0  0
   48.3465   36.6333   40.4763 H   0  0  0  0  0  0  0  0  0  0  0  0
   47.6820   38.0467   41.8742 C   0  0  2  0  0  0  0  0  0  0  0  0
   46.9192   38.3821   41.1226 H   0  0  0  0  0  0  0  0  0  0  0  0
   47.0704   38.1657   43.1055 O   0  0  0  0  0  0  0  0  0  0  0  0
   47.3606   37.1579   44.0011 C   0  0  1  0  0  0  0  0  0  0  0  0
   47.3275   37.5401   45.0390 H   0  0  0  0  0  0  0  0  0  0  0  0
   48.8083   36.7601   43.7511 C   0  0  1  0  0  0  0  0  0  0  0  0
   49.1954   36.3015   44.6546 H   0  0  0  0  0  0  0  0  0  0  0  0
   49.9560   36.1413   42.0881 H   0  0  0  0  0  0  0  0  0  0  0  0
   46.9479   36.0968   41.5823 H   0  0  0  0  0  0  0  0  0  0  0  0
   48.5715   38.6713   41.7257 H   0  0  0  0  0  0  0  0  0  0  0  0
   46.6670   36.3216   43.8162 H   0  0  0  0  0  0  0  0  0  0  0  0
   49.3643   37.7329   43.6196 H   0  0  0  0  0  0  0  0  0  0  0  0
  1  4  1  0
  2  7  2  0
  3  2  1  0
  4  5  1  0
  4  3  2  0
  5  6  2  0
  6  7  1  0
  8  1  1  0
 10  9  2  0
 10  8  1  1
 11 10  1  0
 12 10  1  0
 13 17  1  0
 13 12  1  0
 14 13  1  0
 15 14  1  0
 15 16  1  0
 16 17  1  0
  1 18  1  0
  1 19  1  0
  2 20  1  0
  3 21  1  0
  6 22  1  0
 11 23  1  0
 13 24  1  6
 14 25  1  0
 14 26  1  0
 15 27  1  0
 15 28  1  0
 16 29  1  0
 16 30  1  0
 17 31  1  1
 32 33  1  0
 33 34  1  6
 33 35  1  0
 35 36  1  6
 35 37  1  0
 37 38  1  0
 38 39  1  1
 38 40  1  0
 40 41  1  1
 40 32  1  0
 32 42  1  0
 33 43  1  0
 35 44  1  0
 38 45  1  0
 40 46  1  0
 17 32  1  0
M  ISO  8  18   8  19   8  20  14  21  14  22  14  23   3  24  13  25  13
M  ISO  8  26  13  27  13  28  13  29  13  30  13  31  13  34  15  36  15
M  ISO  2  39  15  41  15
M  END
>  <DihAtoms>  (1) 
12,16,31,32

>  <DihDeg>  (1) 
60.12501915901936

$$$$
