
     RDKit          3D

 37 39  0  0  0  0  0  0  0  0999 V2000
   44.9041   35.0389   43.5539 C   0  0  0  0  0  0  0  0  0  0  0  0
   45.2883   34.9144   42.2189 C   0  0  0  0  0  0  0  0  0  0  0  0
   46.3912   34.1344   41.8593 C   0  0  0  0  0  0  0  0  0  0  0  0
   47.0362   33.5267   42.8949 N   0  0  0  0  0  0  0  0  0  0  0  0
   46.6613   33.6515   44.1700 C   0  0  0  0  0  0  0  0  0  0  0  0
   45.5892   34.4122   44.4990 N   0  0  0  0  0  0  0  0  0  0  0  0
   43.7804   35.8405   43.8632 N   0  0  0  0  0  0  0  0  0  0  0  0
   47.9681   34.6392   40.1017 C   0  0  0  0  0  0  0  0  0  0  0  0
   46.8143   33.9863   40.4805 C   0  0  0  0  0  0  0  0  0  0  0  0
   46.1635   33.2537   39.5281 C   0  0  0  0  0  0  0  0  0  0  0  0
   46.6021   33.1405   38.2280 C   0  0  0  0  0  0  0  0  0  0  0  0
   47.7651   33.8092   37.8799 C   0  0  0  0  0  0  0  0  0  0  0  0
   48.4457   34.5540   38.8075 C   0  0  0  0  0  0  0  0  0  0  0  0
   49.3212   36.0743   41.8078 N   0  0  0  0  0  0  0  0  0  0  0  0
   48.7051   35.4262   41.0433 C   0  0  0  0  0  0  0  0  0  0  0  0
   44.7305   35.4280   41.4230 H   0  0  0  0  0  0  0  0  0  0  0  0
   47.2120   33.1451   44.9508 H   0  0  0  0  0  0  0  0  0  0  0  0
   43.3265   36.4813   43.1864 H   0  0  0  0  0  0  0  0  0  0  0  0
   43.3204   35.8546   44.7842 H   0  0  0  0  0  0  0  0  0  0  0  0
   45.2601   32.7480   39.8423 H   0  0  0  0  0  0  0  0  0  0  0  0
   46.0394   32.5447   37.5252 H   0  0  0  0  0  0  0  0  0  0  0  0
   48.0581   33.6829   36.8491 H   0  0  0  0  0  0  0  0  0  0  0  0
   49.6818   35.2516   38.3956 C   0  0  2  0  0  0  0  0  0  0  0  0
   50.0179   35.0209   36.9385 C   0  0  2  0  0  0  0  0  0  0  0  0
   50.2353   35.9666   36.4018 H   0  0  0  0  0  0  0  0  0  0  0  0
   51.2916   34.1871   36.8532 C   0  0  2  0  0  0  0  0  0  0  0  0
   51.4901   33.9338   35.7863 H   0  0  0  0  0  0  0  0  0  0  0  0
   52.3763   34.8859   37.3474 O   0  0  0  0  0  0  0  0  0  0  0  0
   52.0768   35.5824   38.5201 C   0  0  2  0  0  0  0  0  0  0  0  0
   51.8761   36.6601   38.2890 H   0  0  0  0  0  0  0  0  0  0  0  0
   50.8821   34.9284   39.2231 C   0  0  1  0  0  0  0  0  0  0  0  0
   50.8363   35.3734   40.2366 H   0  0  0  0  0  0  0  0  0  0  0  0
   49.5231   36.3645   38.5037 H   0  0  0  0  0  0  0  0  0  0  0  0
   49.2083   34.4995   36.4083 H   0  0  0  0  0  0  0  0  0  0  0  0
   51.1244   33.2199   37.3600 H   0  0  0  0  0  0  0  0  0  0  0  0
   52.9655   35.4541   39.1840 H   0  0  0  0  0  0  0  0  0  0  0  0
   51.1354   33.8692   39.2992 H   0  0  0  0  0  0  0  0  0  0  0  0
  1  7  1  0
  1  6  2  0
  2  1  1  0
  3  2  2  0
  3  4  1  0
  4  5  2  0
  5  6  1  0
  8  9  2  0
  8 15  1  0
  9  3  1  0
 10  9  1  0
 11 10  2  0
 12 11  1  0
 12 13  2  0
 13  8  1  0
 15 14  3  0
  2 16  1  0
  5 17  1  0
  7 18  1  0
  7 19  1  0
 10 20  1  0
 11 21  1  0
 12 22  1  0
 23 24  1  0
 24 25  1  6
 24 26  1  0
 26 27  1  6
 26 28  1  0
 28 29  1  0
 29 30  1  6
 29 31  1  0
 31 32  1  1
 31 23  1  0
 23 33  1  6
 24 34  1  0
 26 35  1  0
 29 36  1  0
 31 37  1  0
 13 23  1  0
M  ISO  8  16  14  17  14  20  14  21  14  22  14  25  15  27  15  30  15
M  ISO  1  32  15
M  END
>  <DihAtoms>  (1) 
11,12,22,23

>  <DihDeg>  (1) 
89.99659033267619

$$$$
