
     RDKit          3D

 31 33  0  0  1  0  0  0  0  0999 V2000
   45.9550   32.7600   45.9960 C   0  0  1  0  0  0  0  0  0  0  0  0
   47.0590   32.8170   46.9800 C   0  0  0  0  0  0  0  0  0  0  0  0
   45.6050   32.7790   47.4400 C   0  0  2  0  0  0  0  0  0  0  0  0
   44.9980   31.5180   47.9590 C   0  0  0  0  0  0  0  0  0  0  0  0
   45.7950   31.1710   49.2230 C   0  0  0  0  0  0  0  0  0  0  0  0
   47.1100   30.5260   48.7840 C   0  0  0  0  0  0  0  0  0  0  0  0
   46.8890   29.2560   48.2870 O   0  0  0  0  0  0  0  0  0  0  0  0
   45.6940   29.1310   47.6110 C   0  0  0  0  0  0  0  0  0  0  0  0
   45.2140   30.4160   46.9730 C   0  0  0  0  0  0  0  0  0  0  0  0
   44.4790   35.9620   44.8540 C   0  0  0  0  0  0  0  0  0  0  0  0
   45.0080   36.0770   43.5380 C   0  0  0  0  0  0  0  0  0  0  0  0
   45.8670   35.0490   43.0770 C   0  0  0  0  0  0  0  0  0  0  0  0
   46.1410   34.0200   43.8960 N   0  0  0  0  0  0  0  0  0  0  0  0
   45.6100   33.9520   45.1560 C   0  0  0  0  0  0  0  0  0  0  0  0
   44.7870   34.9210   45.6190 N   0  0  0  0  0  0  0  0  0  0  0  0
   45.7345   32.0936   45.1491 H   0  0  0  0  0  0  0  0  0  0  0  0
   47.7091   31.9427   47.1317 H   0  0  0  0  0  0  0  0  0  0  0  0
   47.9176   33.4820   47.1547 H   0  0  0  0  0  0  0  0  0  0  0  0
   45.0199   33.4020   48.1325 H   0  0  0  0  0  0  0  0  0  0  0  0
   43.9202   31.6376   48.1437 H   0  0  0  0  0  0  0  0  0  0  0  0
   46.0006   32.0856   49.7986 H   0  0  0  0  0  0  0  0  0  0  0  0
   45.2228   30.4812   49.8608 H   0  0  0  0  0  0  0  0  0  0  0  0
   47.5720   31.1449   48.0007 H   0  0  0  0  0  0  0  0  0  0  0  0
   47.7767   30.4535   49.6559 H   0  0  0  0  0  0  0  0  0  0  0  0
   45.8208   28.3776   46.8196 H   0  0  0  0  0  0  0  0  0  0  0  0
   44.9360   28.8401   48.3531 H   0  0  0  0  0  0  0  0  0  0  0  0
   45.9659   30.7447   46.2405 H   0  0  0  0  0  0  0  0  0  0  0  0
   44.2429   30.2041   46.5017 H   0  0  0  0  0  0  0  0  0  0  0  0
   43.8083   36.7431   45.2415 H   0  0  0  0  0  0  0  0  0  0  0  0
   44.7579   36.9367   42.8990 H   0  0  0  0  0  0  0  0  0  0  0  0
   46.3014   35.0926   42.0674 H   0  0  0  0  0  0  0  0  0  0  0  0
  1  2  1  0
  1  3  1  0
  2  3  1  0
  3  4  1  0
  4  5  1  0
  6  5  1  0
  7  6  1  0
  8  7  1  0
  9  8  1  0
  9  4  1  0
 10 15  2  0
 11 10  1  0
 12 11  2  0
 12 13  1  0
 13 14  2  0
 14 15  1  0
 14  1  1  0
  1 16  1  6
  2 17  1  0
  2 18  1  0
  3 19  1  6
  4 20  1  0
  5 21  1  0
  5 22  1  0
  6 23  1  0
  6 24  1  0
  8 25  1  0
  8 26  1  0
  9 27  1  0
  9 28  1  0
 10 29  1  0
 11 30  1  0
 12 31  1  0
M  ISO  8  16  13  17  13  18  13  19  13  20  13  21  13  22  13  23  13
M  ISO  8  24  13  25  13  26  13  27  13  28  13  29  14  30  14  31  14
M  END
>  <minimizedAffinity>  (1) 
-4.65031099

>  <minimizedRMSD>  (1) 
1.3510133

$$$$
