
     RDKit          3D

 39 41  0  0  0  0  0  0  0  0999 V2000
   46.6730   30.6280   47.8020 C   0  0  0  0  0  0  0  0  0  0  0  0
   47.1490   29.5610   47.0550 C   0  0  0  0  0  0  0  0  0  0  0  0
   48.3480   29.0070   47.3940 C   0  0  0  0  0  0  0  0  0  0  0  0
   49.0880   29.4520   48.4190 N   0  0  0  0  0  0  0  0  0  0  0  0
   48.6140   30.4890   49.1350 C   0  0  0  0  0  0  0  0  0  0  0  0
   47.4260   31.0830   48.8460 N   0  0  0  0  0  0  0  0  0  0  0  0
   49.4780   30.9510   50.2710 C   0  0  0  0  0  0  0  0  0  0  0  0
   50.2740   29.8590   50.8960 C   0  0  0  0  0  0  0  0  0  0  0  0
   51.5830   30.4710   51.3670 C   0  0  0  0  0  0  0  0  0  0  0  0
   52.3570   30.6480   50.2240 O   0  0  0  0  0  0  0  0  0  0  0  0
   51.7290   31.4260   49.2670 C   0  0  0  0  0  0  0  0  0  0  0  0
   50.4340   32.0230   49.7480 C   0  0  0  0  0  0  0  0  0  0  0  0
   45.4400   31.4090   47.6720 C   0  0  0  0  0  0  0  0  0  0  0  0
   45.8040   32.7670   47.5870 O   0  0  0  0  0  0  0  0  0  0  0  0
   44.6910   35.1840   45.2130 C   0  0  0  0  0  0  0  0  0  0  0  0
   45.4370   34.9090   44.0770 C   0  0  0  0  0  0  0  0  0  0  0  0
   46.3480   33.8500   44.1570 C   0  0  0  0  0  0  0  0  0  0  0  0
   46.4670   33.1560   45.2930 N   0  0  0  0  0  0  0  0  0  0  0  0
   45.7120   33.4660   46.3800 C   0  0  0  0  0  0  0  0  0  0  0  0
   44.8250   34.4720   46.3530 N   0  0  0  0  0  0  0  0  0  0  0  0
   45.2180   35.7520   42.8630 C   0  0  0  0  0  0  0  0  0  0  0  0
   45.3010   37.0490   43.3050 F   0  0  0  0  0  0  0  0  0  0  0  0
   43.9110   35.4740   42.4350 F   0  0  0  0  0  0  0  0  0  0  0  0
   46.1460   35.4280   41.9250 F   0  0  0  0  0  0  0  0  0  0  0  0
   46.5705   29.1691   46.2054 H   0  0  0  0  0  0  0  0  0  0  0  0
   48.7235   28.1596   46.8016 H   0  0  0  0  0  0  0  0  0  0  0  0
   48.8077   31.3413   51.0509 H   0  0  0  0  0  0  0  0  0  0  0  0
   49.7267   29.4354   51.7510 H   0  0  0  0  0  0  0  0  0  0  0  0
   50.4585   29.0484   50.1757 H   0  0  0  0  0  0  0  0  0  0  0  0
   51.3982   31.4383   51.8570 H   0  0  0  0  0  0  0  0  0  0  0  0
   52.0888   29.8254   52.1001 H   0  0  0  0  0  0  0  0  0  0  0  0
   51.5201   30.7987   48.3879 H   0  0  0  0  0  0  0  0  0  0  0  0
   52.4052   32.2597   49.0269 H   0  0  0  0  0  0  0  0  0  0  0  0
   50.6489   32.7352   50.5583 H   0  0  0  0  0  0  0  0  0  0  0  0
   49.9519   32.5276   48.8977 H   0  0  0  0  0  0  0  0  0  0  0  0
   44.8992   31.1078   46.7627 H   0  0  0  0  0  0  0  0  0  0  0  0
   44.7814   31.2386   48.5364 H   0  0  0  0  0  0  0  0  0  0  0  0
   43.9653   36.0102   45.1849 H   0  0  0  0  0  0  0  0  0  0  0  0
   46.9660   33.5888   43.2853 H   0  0  0  0  0  0  0  0  0  0  0  0
  1  6  2  0
  2  3  2  0
  2  1  1  0
  3  4  1  0
  4  5  2  0
  5  7  1  0
  6  5  1  0
  7  8  1  0
  8  9  1  0
 10  9  1  0
 11 12  1  0
 11 10  1  0
 12  7  1  0
 13  1  1  0
 14 13  1  0
 15 20  2  0
 16 17  2  0
 16 15  1  0
 17 18  1  0
 18 19  2  0
 19 14  1  0
 20 19  1  0
 21 22  1  0
 21 16  1  0
 23 21  1  0
 24 21  1  0
  2 25  1  0
  3 26  1  0
  7 27  1  0
  8 28  1  0
  8 29  1  0
  9 30  1  0
  9 31  1  0
 11 32  1  0
 11 33  1  0
 12 34  1  0
 12 35  1  0
 13 36  1  0
 13 37  1  0
 15 38  1  0
 17 39  1  0
M  ISO  8  25  14  26  14  27  13  28  13  29  13  30  13  31  13  32  13
M  ISO  7  33  13  34  13  35  13  36   8  37   8  38  14  39  14
M  END
>  <minimizedAffinity>  (1) 
-5.71008301

>  <minimizedRMSD>  (1) 
0.908911884

$$$$
