
     RDKit          3D

 34 36  0  0  1  0  0  0  0  0999 V2000
   48.0340   32.0280   42.9300 C   0  0  0  0  0  0  0  0  0  0  0  0
   48.9780   30.9580   42.9270 C   0  0  0  0  0  0  0  0  0  0  0  0
   49.0330   30.0460   43.9760 C   0  0  0  0  0  0  0  0  0  0  0  0
   48.1390   30.2440   44.9880 N   0  0  0  0  0  0  0  0  0  0  0  0
   47.2490   31.2780   44.9600 C   0  0  0  0  0  0  0  0  0  0  0  0
   47.2070   32.1380   43.9550 N   0  0  0  0  0  0  0  0  0  0  0  0
   46.3020   31.4370   46.0960 C   0  0  0  0  0  0  0  0  0  0  0  0
   46.2810   32.9320   46.4320 C   0  0  0  0  0  0  0  0  0  0  0  0
   45.2580   33.0420   47.5700 C   0  0  0  0  0  0  0  0  0  0  0  0
   45.8690   32.5690   48.7020 O   0  0  0  0  0  0  0  0  0  0  0  0
   46.8960   31.6820   48.5120 C   0  0  0  0  0  0  0  0  0  0  0  0
   46.7000   30.7350   47.3440 C   0  0  0  0  0  0  0  0  0  0  0  0
   48.0330   32.9600   41.7940 C   0  0  1  0  0  0  0  0  0  0  0  0
   49.1360   34.0550   41.9460 C   0  0  1  0  0  0  0  0  0  0  0  0
   49.0810   33.0600   40.8250 C   0  0  0  0  0  0  0  0  0  0  0  0
   48.6600   35.4440   41.5830 C   0  0  0  0  0  0  0  0  0  0  0  0
   49.5500   36.4180   41.9730 F   0  0  0  0  0  0  0  0  0  0  0  0
   48.5450   35.5160   40.1890 F   0  0  0  0  0  0  0  0  0  0  0  0
   47.3980   35.6740   42.0860 F   0  0  0  0  0  0  0  0  0  0  0  0
   49.6736   30.8526   42.0814 H   0  0  0  0  0  0  0  0  0  0  0  0
   49.7538   29.2151   43.9890 H   0  0  0  0  0  0  0  0  0  0  0  0
   45.3401   31.0090   45.7771 H   0  0  0  0  0  0  0  0  0  0  0  0
   47.2731   33.2722   46.7637 H   0  0  0  0  0  0  0  0  0  0  0  0
   46.0194   33.5572   45.5655 H   0  0  0  0  0  0  0  0  0  0  0  0
   44.9606   34.0916   47.7111 H   0  0  0  0  0  0  0  0  0  0  0  0
   44.3509   32.4633   47.3412 H   0  0  0  0  0  0  0  0  0  0  0  0
   47.8181   32.2560   48.3381 H   0  0  0  0  0  0  0  0  0  0  0  0
   46.9423   31.0580   49.4167 H   0  0  0  0  0  0  0  0  0  0  0  0
   45.9145   30.0110   47.6062 H   0  0  0  0  0  0  0  0  0  0  0  0
   47.6633   30.2394   47.1533 H   0  0  0  0  0  0  0  0  0  0  0  0
   46.9476   32.8568   41.6483 H   0  0  0  0  0  0  0  0  0  0  0  0
   49.8727   34.3658   42.7015 H   0  0  0  0  0  0  0  0  0  0  0  0
   49.8417   32.2672   40.7721 H   0  0  0  0  0  0  0  0  0  0  0  0
   49.0844   33.1613   39.7297 H   0  0  0  0  0  0  0  0  0  0  0  0
  1  6  1  0
  2  1  2  0
  2  3  1  0
  3  4  2  0
  5  4  1  0
  5  7  1  0
  6  5  2  0
  7  8  1  0
  7 12  1  0
  8  9  1  0
  9 10  1  0
 11 10  1  0
 12 11  1  0
 13 14  1  0
 13  1  1  0
 15 13  1  0
 15 14  1  0
 16 14  1  0
 16 17  1  0
 16 19  1  0
 18 16  1  0
  2 20  1  0
  3 21  1  0
  7 22  1  0
  8 23  1  0
  8 24  1  0
  9 25  1  0
  9 26  1  0
 11 27  1  0
 11 28  1  0
 12 29  1  0
 12 30  1  0
 13 31  1  6
 14 32  1  1
 15 33  1  0
 15 34  1  0
M  ISO  8  20  14  21  14  22  13  23  13  24  13  25  13  26  13  27  13
M  ISO  7  28  13  29  13  30  13  31  13  32  13  33  13  34  13
M  END
>  <minimizedAffinity>  (1) 
-5.11139774

>  <minimizedRMSD>  (1) 
3.43161893

$$$$
