
     RDKit          3D

 54 56  0  0  0  0  0  0  0  0999 V2000
   47.1608   34.1649   43.0843 N   0  0  0  0  0  0  0  0  0  0  0  0
   46.6497   35.3534   42.5192 C   0  0  0  0  0  0  0  0  0  0  0  0
   45.1636   35.5741   42.7228 C   0  0  0  0  0  0  0  0  0  0  0  0
   44.6381   35.0370   44.0249 C   0  0  0  0  0  0  0  0  0  0  0  0
   45.7440   34.4782   44.8913 C   0  0  0  0  0  0  0  0  0  0  0  0
   46.4230   33.3982   43.9628 C   0  0  2  0  0  0  0  0  0  0  0  0
   48.1469   33.5084   42.2687 C   0  0  0  0  0  0  0  0  0  0  0  0
   47.4695   32.6592   41.2624 C   0  0  0  0  0  0  0  0  0  0  0  0
   49.3293   32.2609   38.0237 C   0  0  0  0  0  0  0  0  0  0  0  0
   48.8068   32.0150   39.3072 C   0  0  0  0  0  0  0  0  0  0  0  0
   48.0070   32.9431   39.9096 C   0  0  0  0  0  0  0  0  0  0  0  0
   47.7527   34.0676   39.2347 N   0  0  0  0  0  0  0  0  0  0  0  0
   48.2381   34.3213   38.0159 C   0  0  0  0  0  0  0  0  0  0  0  0
   49.0295   33.4300   37.3916 N   0  0  0  0  0  0  0  0  0  0  0  0
   47.2151   32.7099   44.8546 O   0  0  0  0  0  0  0  0  0  0  0  0
   46.0402   30.5443   43.8791 O   0  0  0  0  0  0  0  0  0  0  0  0
   46.6719   31.1355   45.1366 P   0  0  2  0  0  0  0  0  0  0  0  0
   45.4157   31.2738   46.2747 O   0  0  0  0  0  0  0  0  0  0  0  0
   47.8668   30.1603   45.7813 O   0  0  0  0  0  0  0  0  0  0  0  0
   47.7333   28.8920   45.2105 C   0  0  0  0  0  0  0  0  0  0  0  0
   46.8316   35.5137   41.4497 H   0  0  0  0  0  0  0  0  0  0  0  0
   47.1592   36.2134   43.0336 H   0  0  0  0  0  0  0  0  0  0  0  0
   44.6324   35.1587   41.8451 H   0  0  0  0  0  0  0  0  0  0  0  0
   44.9714   36.6708   42.7205 H   0  0  0  0  0  0  0  0  0  0  0  0
   44.0945   35.8122   44.6164 H   0  0  0  0  0  0  0  0  0  0  0  0
   43.9185   34.2259   43.8532 H   0  0  0  0  0  0  0  0  0  0  0  0
   45.2968   33.9272   45.7238 H   0  0  0  0  0  0  0  0  0  0  0  0
   46.5026   35.2312   45.1827 H   0  0  0  0  0  0  0  0  0  0  0  0
   45.5592   32.8259   43.5679 H   0  0  0  0  0  0  0  0  0  0  0  0
   48.7644   32.8591   42.9279 H   0  0  0  0  0  0  0  0  0  0  0  0
   48.7620   34.2975   41.8008 H   0  0  0  0  0  0  0  0  0  0  0  0
   47.5011   31.5752   41.4723 H   0  0  0  0  0  0  0  0  0  0  0  0
   46.3738   32.9028   41.1953 H   0  0  0  0  0  0  0  0  0  0  0  0
   49.9707   31.5246   37.5323 H   0  0  0  0  0  0  0  0  0  0  0  0
   49.0712   31.0686   39.7763 H   0  0  0  0  0  0  0  0  0  0  0  0
   47.9322   35.2877   37.6073 H   0  0  0  0  0  0  0  0  0  0  0  0
   45.5171   30.6523   47.0340 H   0  0  0  0  0  0  0  0  0  0  0  0
   46.7524   28.4761   45.5605 H   0  0  0  0  0  0  0  0  0  0  0  0
   47.7834   28.9203   44.1207 H   0  0  0  0  0  0  0  0  0  0  0  0
   48.8292   28.0414   45.8179 C   0  0  2  0  0  0  0  0  0  0  0  0
   49.1959   28.4686   47.2202 C   0  0  1  0  0  0  0  0  0  0  0  0
   49.7114   29.4499   47.1809 H   0  0  0  0  0  0  0  0  0  0  0  0
   50.2402   27.4524   47.6882 C   0  0  1  0  0  0  0  0  0  0  0  0
   50.6159   27.6871   48.7048 H   0  0  0  0  0  0  0  0  0  0  0  0
   51.3261   27.4804   46.8430 O   0  0  0  0  0  0  0  0  0  0  0  0
   51.0631   27.1286   45.5384 C   0  0  1  0  0  0  0  0  0  0  0  0
   52.0183   27.2023   44.9861 H   0  0  0  0  0  0  0  0  0  0  0  0
   50.0490   28.0898   44.9305 C   0  0  2  0  0  0  0  0  0  0  0  0
   50.4589   29.1149   44.9785 H   0  0  0  0  0  0  0  0  0  0  0  0
   48.4176   26.9934   45.8599 H   0  0  0  0  0  0  0  0  0  0  0  0
   48.3186   28.4347   47.8653 H   0  0  0  0  0  0  0  0  0  0  0  0
   49.8061   26.4134   47.6413 H   0  0  0  0  0  0  0  0  0  0  0  0
   50.6484   26.0974   45.4291 H   0  0  0  0  0  0  0  0  0  0  0  0
   49.8066   27.8113   43.9051 H   0  0  0  0  0  0  0  0  0  0  0  0
  1  6  1  0
  2  3  1  0
  2  1  1  0
  3  4  1  0
  4  5  1  0
  6 15  1  0
  6  5  1  0
  7  1  1  0
  8  7  1  0
  9 10  2  0
 10 11  1  0
 11  8  1  0
 12 11  2  0
 13 12  1  0
 14 13  2  0
 14  9  1  0
 17 15  1  6
 17 16  2  0
 17 19  1  0
 17 18  1  0
 20 19  1  0
  2 21  1  0
  2 22  1  0
  3 23  1  0
  3 24  1  0
  4 25  1  0
  4 26  1  0
  5 27  1  0
  5 28  1  0
  6 29  1  6
  7 30  1  0
  7 31  1  0
  8 32  1  0
  8 33  1  0
  9 34  1  0
 10 35  1  0
 13 36  1  0
 18 37  1  0
 20 38  1  0
 20 39  1  0
 40 41  1  0
 41 42  1  6
 41 43  1  0
 43 44  1  1
 43 45  1  0
 45 46  1  0
 46 47  1  6
 46 48  1  0
 48 49  1  6
 48 40  1  0
 40 50  1  1
 41 51  1  0
 43 52  1  0
 46 53  1  0
 48 54  1  0
 20 40  1  0
M  ISO  8  21  13  22  13  23  13  24  13  25  13  26  13  27  13  28  13
M  ISO  8  29  13  30   8  31   8  32   8  33   8  34  14  35  14  36  14
M  ISO  7  37   3  38   8  39   8  42  15  44  15  47  15  49  15
M  END
>  <DihAtoms>  (1) 
18,19,39,40

>  <DihDeg>  (1) 
179.99990538564094

$$$$
