
     RDKit          3D

 54 56  0  0  1  0  0  0  0  0999 V2000
   46.4920   34.4310   43.7040 N   0  0  0  0  0  0  0  0  0  0  0  0
   46.0640   35.1310   42.5570 C   0  0  0  0  0  0  0  0  0  0  0  0
   44.5620   35.2930   42.4260 C   0  0  0  0  0  0  0  0  0  0  0  0
   43.8440   35.4290   43.7400 C   0  0  0  0  0  0  0  0  0  0  0  0
   44.8060   35.4740   44.9050 C   0  0  0  0  0  0  0  0  0  0  0  0
   45.6330   34.1400   44.7450 C   0  0  2  0  0  0  0  0  0  0  0  0
   47.6000   33.5450   43.4680 C   0  0  0  0  0  0  0  0  0  0  0  0
   47.5190   33.0100   42.0890 C   0  0  0  0  0  0  0  0  0  0  0  0
   51.2500   32.6120   41.9250 C   0  0  0  0  0  0  0  0  0  0  0  0
   49.9590   32.9700   42.3560 C   0  0  0  0  0  0  0  0  0  0  0  0
   48.8680   32.6200   41.6130 C   0  0  0  0  0  0  0  0  0  0  0  0
   49.0850   31.9370   40.4860 N   0  0  0  0  0  0  0  0  0  0  0  0
   50.3020   31.5850   40.0600 C   0  0  0  0  0  0  0  0  0  0  0  0
   51.3990   31.9130   40.7650 N   0  0  0  0  0  0  0  0  0  0  0  0
   46.2830   34.0580   45.9570 O   0  0  0  0  0  0  0  0  0  0  0  0
   45.7710   31.4730   45.6690 O   0  0  0  0  0  0  0  0  0  0  0  0
   46.1010   32.5520   46.6990 P   0  0  2  0  0  0  0  0  0  0  0  0
   44.7310   32.6870   47.6960 O   0  0  0  0  0  0  0  0  0  0  0  0
   47.4150   32.1540   47.6540 O   0  0  0  0  0  0  0  0  0  0  0  0
   47.3460   30.7850   47.9230 C   0  0  0  0  0  0  0  0  0  0  0  0
   48.3840   30.5150   48.9920 C   0  0  0  0  0  0  0  0  0  0  0  0
   49.2770   31.7050   49.2590 C   0  0  0  0  0  0  0  0  0  0  0  0
   50.1870   31.2730   50.4100 C   0  0  0  0  0  0  0  0  0  0  0  0
   50.9100   30.1630   50.0380 O   0  0  0  0  0  0  0  0  0  0  0  0
   50.1610   29.0430   49.7520 C   0  0  0  0  0  0  0  0  0  0  0  0
   49.2210   29.3260   48.5870 C   0  0  0  0  0  0  0  0  0  0  0  0
   46.5141   36.1344   42.5823 H   0  0  0  0  0  0  0  0  0  0  0  0
   46.3839   34.5293   41.6935 H   0  0  0  0  0  0  0  0  0  0  0  0
   44.3623   36.1944   41.8279 H   0  0  0  0  0  0  0  0  0  0  0  0
   44.1836   34.3762   41.9503 H   0  0  0  0  0  0  0  0  0  0  0  0
   43.2548   36.3579   43.7290 H   0  0  0  0  0  0  0  0  0  0  0  0
   43.1952   34.5498   43.8670 H   0  0  0  0  0  0  0  0  0  0  0  0
   45.4622   36.3545   44.8403 H   0  0  0  0  0  0  0  0  0  0  0  0
   44.2997   35.5523   45.8784 H   0  0  0  0  0  0  0  0  0  0  0  0
   45.0975   33.2032   44.5315 H   0  0  0  0  0  0  0  0  0  0  0  0
   48.5436   34.0965   43.5926 H   0  0  0  0  0  0  0  0  0  0  0  0
   47.5641   32.7132   44.1869 H   0  0  0  0  0  0  0  0  0  0  0  0
   46.8609   32.1286   42.0789 H   0  0  0  0  0  0  0  0  0  0  0  0
   47.1140   33.7876   41.4247 H   0  0  0  0  0  0  0  0  0  0  0  0
   52.1314   32.8941   42.5196 H   0  0  0  0  0  0  0  0  0  0  0  0
   49.8286   33.5323   43.2924 H   0  0  0  0  0  0  0  0  0  0  0  0
   50.4074   31.0205   39.1218 H   0  0  0  0  0  0  0  0  0  0  0  0
   45.0099   32.6595   48.6455 H   0  0  0  0  0  0  0  0  0  0  0  0
   46.3434   30.5176   48.2880 H   0  0  0  0  0  0  0  0  0  0  0  0
   47.5349   30.1875   47.0190 H   0  0  0  0  0  0  0  0  0  0  0  0
   47.8446   30.3064   49.9277 H   0  0  0  0  0  0  0  0  0  0  0  0
   49.8726   31.9483   48.3668 H   0  0  0  0  0  0  0  0  0  0  0  0
   48.6976   32.6061   49.5088 H   0  0  0  0  0  0  0  0  0  0  0  0
   50.8773   32.0928   50.6579 H   0  0  0  0  0  0  0  0  0  0  0  0
   49.5720   31.0295   51.2889 H   0  0  0  0  0  0  0  0  0  0  0  0
   50.8331   28.2143   49.4843 H   0  0  0  0  0  0  0  0  0  0  0  0
   49.5665   28.7715   50.6368 H   0  0  0  0  0  0  0  0  0  0  0  0
   48.5770   28.4545   48.3977 H   0  0  0  0  0  0  0  0  0  0  0  0
   49.7821   29.5302   47.6632 H   0  0  0  0  0  0  0  0  0  0  0  0
  1  6  1  0
  2  1  1  0
  3  2  1  0
  3  4  1  0
  4  5  1  0
  6  5  1  0
  6 15  1  0
  7  1  1  0
  8  7  1  0
  9 10  2  0
 11  8  1  0
 11 10  1  0
 12 11  2  0
 13 12  1  0
 13 14  2  0
 14  9  1  0
 15 17  1  0
 17 16  2  0
 17 19  1  0
 17 18  1  0
 19 20  1  0
 20 21  1  0
 21 22  1  0
 22 23  1  0
 24 23  1  0
 25 24  1  0
 26 21  1  0
 26 25  1  0
  2 27  1  0
  2 28  1  0
  3 29  1  0
  3 30  1  0
  4 31  1  0
  4 32  1  0
  5 33  1  0
  5 34  1  0
  6 35  1  6
  7 36  1  0
  7 37  1  0
  8 38  1  0
  8 39  1  0
  9 40  1  0
 10 41  1  0
 13 42  1  0
 18 43  1  0
 20 44  1  0
 20 45  1  0
 21 46  1  0
 22 47  1  0
 22 48  1  0
 23 49  1  0
 23 50  1  0
 25 51  1  0
 25 52  1  0
 26 53  1  0
 26 54  1  0
M  ISO  8  27  13  28  13  29  13  30  13  31  13  32  13  33  13  34  13
M  ISO  8  35  13  36   8  37   8  38   8  39   8  40  14  41  14  42  14
M  ISO  8  43   3  44   8  45   8  46  13  47  13  48  13  49  13  50  13
M  ISO  4  51  13  52  13  53  13  54  13
M  END
>  <minimizedAffinity>  (1) 
-5.14540243

>  <minimizedRMSD>  (1) 
3.136971

$$$$
