
     RDKit          3D

 45 48  0  0  0  0  0  0  0  0999 V2000
   45.6311   34.6144   42.0381 C   0  0  0  0  0  0  0  0  0  0  0  0
   44.8987   35.6475   42.6353 C   0  0  0  0  0  0  0  0  0  0  0  0
   43.5535   35.4950   42.3519 C   0  0  0  0  0  0  0  0  0  0  0  0
   43.4955   34.3971   41.6021 N   0  0  0  0  0  0  0  0  0  0  0  0
   44.7049   33.8830   41.4193 N   0  0  0  0  0  0  0  0  0  0  0  0
   49.3541   35.1510   41.9660 C   0  0  0  0  0  0  0  0  0  0  0  0
   47.9677   35.4497   41.8189 C   0  0  0  0  0  0  0  0  0  0  0  0
   47.0801   34.4435   42.1329 C   0  0  0  0  0  0  0  0  0  0  0  0
   47.5444   33.2446   42.5566 N   0  0  0  0  0  0  0  0  0  0  0  0
   48.8666   32.9883   42.6872 C   0  0  0  0  0  0  0  0  0  0  0  0
   49.7402   33.9460   42.3894 N   0  0  0  0  0  0  0  0  0  0  0  0
   42.3475   33.7305   39.6475 N   0  0  0  0  0  0  0  0  0  0  0  0
   42.2151   33.9311   41.0940 C   0  0  2  0  0  0  0  0  0  0  0  0
   41.1675   34.9258   41.4400 C   0  0  0  0  0  0  0  0  0  0  0  0
   40.3353   35.2851   40.3053 N   0  0  0  0  0  0  0  0  0  0  0  0
   41.0516   35.6434   39.1255 C   0  0  0  0  0  0  0  0  0  0  0  0
   42.4503   35.0982   39.1050 C   0  0  2  0  0  0  0  0  0  0  0  0
   45.4578   36.4043   43.2197 H   0  0  0  0  0  0  0  0  0  0  0  0
   42.9871   36.2915   42.8214 H   0  0  0  0  0  0  0  0  0  0  0  0
   50.0702   35.9404   41.7204 H   0  0  0  0  0  0  0  0  0  0  0  0
   47.6042   36.3993   41.4833 H   0  0  0  0  0  0  0  0  0  0  0  0
   49.1191   31.9892   43.0361 H   0  0  0  0  0  0  0  0  0  0  0  0
   43.1998   33.1789   39.5098 H   0  0  0  0  0  0  0  0  0  0  0  0
   41.9975   32.9608   41.6084 H   0  0  0  0  0  0  0  0  0  0  0  0
   40.4469   34.5510   42.2144 H   0  0  0  0  0  0  0  0  0  0  0  0
   41.5089   35.9253   41.7592 H   0  0  0  0  0  0  0  0  0  0  0  0
   39.5237   34.6682   40.1876 H   0  0  0  0  0  0  0  0  0  0  0  0
   41.0652   36.7603   38.9667 H   0  0  0  0  0  0  0  0  0  0  0  0
   40.5134   35.2506   38.2381 H   0  0  0  0  0  0  0  0  0  0  0  0
   43.1011   35.6747   39.7568 H   0  0  0  0  0  0  0  0  0  0  0  0
   43.0252   35.0910   37.7193 C   0  0  2  0  0  0  0  0  0  0  0  0
   42.7345   33.8704   36.9195 C   0  0  2  0  0  0  0  0  0  0  0  0
   42.1650   34.1165   35.9770 H   0  0  0  0  0  0  0  0  0  0  0  0
   44.0565   33.2841   36.4089 C   0  0  2  0  0  0  0  0  0  0  0  0
   43.7506   32.4589   35.7008 H   0  0  0  0  0  0  0  0  0  0  0  0
   44.7584   34.1962   35.6538 O   0  0  0  0  0  0  0  0  0  0  0  0
   44.9160   35.4307   36.2570 C   0  0  2  0  0  0  0  0  0  0  0  0
   44.1414   36.0946   35.7724 H   0  0  0  0  0  0  0  0  0  0  0  0
   44.4933   35.3531   37.7303 C   0  0  1  0  0  0  0  0  0  0  0  0
   44.6377   36.3830   38.1425 H   0  0  0  0  0  0  0  0  0  0  0  0
   42.5540   35.9671   37.2045 H   0  0  0  0  0  0  0  0  0  0  0  0
   42.1746   33.0767   37.4264 H   0  0  0  0  0  0  0  0  0  0  0  0
   44.6664   32.8615   37.2273 H   0  0  0  0  0  0  0  0  0  0  0  0
   45.9194   35.8678   36.1566 H   0  0  0  0  0  0  0  0  0  0  0  0
   45.0967   34.6153   38.2712 H   0  0  0  0  0  0  0  0  0  0  0  0
  1  8  1  0
  1  2  1  0
  3  2  2  0
  4  3  1  0
  5  4  1  0
  5  1  2  0
  6 11  2  0
  7  6  1  0
  7  8  2  0
  8  9  1  0
  9 10  2  0
 11 10  1  0
 12 13  1  0
 13 14  1  0
 13  4  1  0
 15 14  1  0
 16 15  1  0
 17 16  1  0
 17 12  1  0
  2 18  1  0
  3 19  1  0
  6 20  1  0
  7 21  1  0
 10 22  1  0
 12 23  1  0
 13 24  1  1
 14 25  1  0
 14 26  1  0
 15 27  1  0
 16 28  1  0
 16 29  1  0
 17 30  1  1
 31 32  1  0
 32 33  1  6
 32 34  1  0
 34 35  1  6
 34 36  1  0
 36 37  1  0
 37 38  1  6
 37 39  1  0
 39 40  1  1
 39 31  1  0
 31 41  1  6
 32 42  1  0
 34 43  1  0
 37 44  1  0
 39 45  1  0
 17 31  1  0
M  ISO  8  18  14  19  14  20  14  21  14  22  14  23   5  24  13  25  13
M  ISO  8  26  13  27   5  28  13  29  13  30  13  33  15  35  15  38  15
M  ISO  1  40  15
M  END
>  <DihAtoms>  (1) 
15,16,30,31

>  <DihDeg>  (1) 
-57.62481553369552

$$$$
