
     RDKit          3D

 31 33  0  0  0  0  0  0  0  0999 V2000
   44.5893   35.9056   44.3197 C   0  0  0  0  0  0  0  0  0  0  0  0
   45.3312   35.9029   43.1289 C   0  0  0  0  0  0  0  0  0  0  0  0
   46.2967   34.9172   43.0185 C   0  0  0  0  0  0  0  0  0  0  0  0
   46.4633   34.0224   44.0583 N   0  0  0  0  0  0  0  0  0  0  0  0
   45.7344   34.0563   45.1791 C   0  0  0  0  0  0  0  0  0  0  0  0
   44.7992   35.0135   45.2853 N   0  0  0  0  0  0  0  0  0  0  0  0
   47.0819   34.8050   41.7352 C   0  0  0  0  0  0  0  0  0  0  0  0
   48.4624   35.4634   41.8870 C   0  0  0  0  0  0  0  0  0  0  0  0
   48.2386   33.9276   41.7459 C   0  0  0  0  0  0  0  0  0  0  0  0
   43.8181   36.5829   44.5735 H   0  0  0  0  0  0  0  0  0  0  0  0
   45.9870   33.2912   45.8891 H   0  0  0  0  0  0  0  0  0  0  0  0
   46.6384   35.3073   40.8279 H   0  0  0  0  0  0  0  0  0  0  0  0
   48.9837   35.8823   41.0283 H   0  0  0  0  0  0  0  0  0  0  0  0
   48.8303   35.7438   42.8720 H   0  0  0  0  0  0  0  0  0  0  0  0
   48.5307   33.4643   40.7803 H   0  0  0  0  0  0  0  0  0  0  0  0
   48.4296   33.3027   42.6252 H   0  0  0  0  0  0  0  0  0  0  0  0
   45.0205   36.9340   42.0939 C   0  0  2  0  0  0  0  0  0  0  0  0
   45.0799   36.3725   40.7133 C   0  0  2  0  0  0  0  0  0  0  0  0
   44.0444   36.3459   40.2564 H   0  0  0  0  0  0  0  0  0  0  0  0
   45.9872   37.0352   39.7495 C   0  0  1  0  0  0  0  0  0  0  0  0
   46.9903   36.5705   39.6666 H   0  0  0  0  0  0  0  0  0  0  0  0
   46.2344   38.3788   40.0217 O   0  0  0  0  0  0  0  0  0  0  0  0
   46.9177   38.3557   41.2572 C   0  0  2  0  0  0  0  0  0  0  0  0
   47.4364   39.2961   41.4452 H   0  0  0  0  0  0  0  0  0  0  0  0
   45.8652   38.1772   42.2983 C   0  0  1  0  0  0  0  0  0  0  0  0
   45.2285   39.0917   42.2637 H   0  0  0  0  0  0  0  0  0  0  0  0
   43.9835   37.2727   42.2920 H   0  0  0  0  0  0  0  0  0  0  0  0
   45.3570   35.2754   40.7115 H   0  0  0  0  0  0  0  0  0  0  0  0
   45.5371   37.0124   38.7374 H   0  0  0  0  0  0  0  0  0  0  0  0
   47.5830   37.4702   41.2523 H   0  0  0  0  0  0  0  0  0  0  0  0
   46.3459   38.2040   43.2922 H   0  0  0  0  0  0  0  0  0  0  0  0
  1  6  2  0
  2  1  1  0
  3  2  2  0
  3  4  1  0
  4  5  2  0
  5  6  1  0
  7  8  1  0
  7  9  1  0
  7  3  1  0
  8  9  1  0
  1 10  1  0
  5 11  1  0
  7 12  1  0
  8 13  1  0
  8 14  1  0
  9 15  1  0
  9 16  1  0
 17 18  1  0
 18 19  1  6
 18 20  1  0
 20 21  1  6
 20 22  1  0
 22 23  1  0
 23 24  1  1
 23 25  1  0
 25 26  1  1
 25 17  1  0
 17 27  1  1
 18 28  1  0
 20 29  1  0
 23 30  1  0
 25 31  1  0
  2 17  1  0
M  ISO  8  10  14  11  14  12  13  13  13  14  13  15  13  16  13  19  15
M  ISO  3  21  15  24  15  26  15
M  END
>  <DihAtoms>  (1) 
0,1,16,17

>  <DihDeg>  (1) 
99.4811391609508

$$$$
