
     RDKit          3D

 49 51  0  0  0  0  0  0  0  0999 V2000
   44.6747   35.2863   45.0735 O   0  0  0  0  0  0  0  0  0  0  0  0
   45.4885   34.2582   44.3392 P   0  0  2  0  0  0  0  0  0  0  0  0
   44.5311   33.0578   43.6456 O   0  0  0  0  0  0  0  0  0  0  0  0
   46.5151   33.4626   45.4055 O   0  0  0  0  0  0  0  0  0  0  0  0
   46.2025   32.1431   45.4218 C   0  0  0  0  0  0  0  0  0  0  0  0
   45.7587   32.0398   49.1162 C   0  0  0  0  0  0  0  0  0  0  0  0
   46.0550   32.5264   47.8351 C   0  0  0  0  0  0  0  0  0  0  0  0
   45.8908   31.6489   46.7762 C   0  0  0  0  0  0  0  0  0  0  0  0
   45.4551   30.3715   47.0238 N   0  0  0  0  0  0  0  0  0  0  0  0
   45.1803   29.9386   48.2650 C   0  0  0  0  0  0  0  0  0  0  0  0
   45.3315   30.7656   49.2967 N   0  0  0  0  0  0  0  0  0  0  0  0
   46.4115   35.0315   43.1632 O   0  0  0  0  0  0  0  0  0  0  0  0
   46.9344   34.0805   42.2834 C   0  0  1  0  0  0  0  0  0  0  0  0
   46.4015   34.2647   40.8755 C   0  0  0  0  0  0  0  0  0  0  0  0
   47.3366   33.3701   40.0972 C   0  0  0  0  0  0  0  0  0  0  0  0
   48.6271   33.3354   40.8756 C   0  0  0  0  0  0  0  0  0  0  0  0
   48.4258   34.3050   42.0475 C   0  0  1  0  0  0  0  0  0  0  0  0
   48.7539   35.7169   41.7140 C   0  0  0  0  0  0  0  0  0  0  0  0
   43.5756   33.2548   43.9049 H   0  0  0  0  0  0  0  0  0  0  0  0
   45.4592   31.7679   44.7286 H   0  0  0  0  0  0  0  0  0  0  0  0
   47.1558   31.6025   45.1392 H   0  0  0  0  0  0  0  0  0  0  0  0
   45.8744   32.6949   49.9691 H   0  0  0  0  0  0  0  0  0  0  0  0
   46.3957   33.5412   47.6872 H   0  0  0  0  0  0  0  0  0  0  0  0
   44.8367   28.9312   48.4607 H   0  0  0  0  0  0  0  0  0  0  0  0
   46.7729   33.0495   42.5875 H   0  0  0  0  0  0  0  0  0  0  0  0
   45.3916   33.7696   40.8077 H   0  0  0  0  0  0  0  0  0  0  0  0
   46.3850   35.3051   40.5626 H   0  0  0  0  0  0  0  0  0  0  0  0
   46.9089   32.3425   39.9445 H   0  0  0  0  0  0  0  0  0  0  0  0
   47.5359   33.7785   39.0893 H   0  0  0  0  0  0  0  0  0  0  0  0
   48.8260   32.3333   41.3147 H   0  0  0  0  0  0  0  0  0  0  0  0
   49.5116   33.6407   40.3313 H   0  0  0  0  0  0  0  0  0  0  0  0
   49.0119   34.0029   42.9204 H   0  0  0  0  0  0  0  0  0  0  0  0
   48.3719   36.3732   42.5359 H   0  0  0  0  0  0  0  0  0  0  0  0
   48.2672   36.0520   40.7493 H   0  0  0  0  0  0  0  0  0  0  0  0
   50.2233   35.8578   41.5186 C   0  0  2  0  0  0  0  0  0  0  0  0
   50.5649   37.1670   40.8390 C   0  0  1  0  0  0  0  0  0  0  0  0
   49.6796   37.6530   40.4028 H   0  0  0  0  0  0  0  0  0  0  0  0
   51.5580   36.9895   39.7118 C   0  0  1  0  0  0  0  0  0  0  0  0
   51.0069   36.6805   38.7990 H   0  0  0  0  0  0  0  0  0  0  0  0
   52.6376   36.2010   40.0248 O   0  0  0  0  0  0  0  0  0  0  0  0
   52.3091   35.0026   40.6468 C   0  0  2  0  0  0  0  0  0  0  0  0
   52.5524   35.1682   41.7357 H   0  0  0  0  0  0  0  0  0  0  0  0
   50.7967   34.7716   40.6197 C   0  0  2  0  0  0  0  0  0  0  0  0
   50.4814   34.8712   39.5815 H   0  0  0  0  0  0  0  0  0  0  0  0
   50.7440   35.7492   42.4817 H   0  0  0  0  0  0  0  0  0  0  0  0
   50.9816   37.8590   41.6038 H   0  0  0  0  0  0  0  0  0  0  0  0
   51.9661   38.0101   39.4954 H   0  0  0  0  0  0  0  0  0  0  0  0
   52.8860   34.1364   40.3238 H   0  0  0  0  0  0  0  0  0  0  0  0
   50.6316   33.7764   41.0734 H   0  0  0  0  0  0  0  0  0  0  0  0
  2  1  2  0
  2  4  1  1
  3  2  1  0
  4  5  1  0
  5  8  1  0
  6 11  2  0
  7  6  1  0
  8  9  1  0
  8  7  2  0
  9 10  2  0
 10 11  1  0
 12  2  1  0
 13 12  1  0
 14 13  1  0
 15 16  1  0
 15 14  1  0
 16 17  1  0
 17 13  1  0
 18 17  1  0
  3 19  1  0
  5 20  1  0
  5 21  1  0
  6 22  1  0
  7 23  1  0
 10 24  1  0
 13 25  1  1
 14 26  1  0
 14 27  1  0
 15 28  1  0
 15 29  1  0
 16 30  1  0
 16 31  1  0
 17 32  1  1
 18 33  1  0
 18 34  1  0
 35 36  1  0
 36 37  1  6
 36 38  1  0
 38 39  1  6
 38 40  1  0
 40 41  1  0
 41 42  1  1
 41 43  1  0
 43 44  1  6
 43 35  1  0
 35 45  1  1
 36 46  1  0
 38 47  1  0
 41 48  1  0
 43 49  1  0
 18 35  1  0
M  ISO  8  19   3  20   8  21   8  22  14  23  14  24  14  25  13  26  13
M  ISO  8  27  13  28  13  29  13  30  13  31  13  32  13  33   8  34   8
M  ISO  4  37  15  39  15  42  15  44  15
M  END
>  <DihAtoms>  (1) 
16,17,34,35

>  <DihDeg>  (1) 
-59.62358661470864

$$$$
