
     RDKit          3D

 23 24  0  0  0  0  0  0  0  0999 V2000
   47.0870   34.5430   41.7590 C   0  0  0  0  0  0  0  0  0  0  0  0
   46.2330   34.8380   42.9250 C   0  0  0  0  0  0  0  0  0  0  0  0
   46.3440   33.9510   43.9890 C   0  0  0  0  0  0  0  0  0  0  0  0
   45.5650   34.1750   45.1200 C   0  0  0  0  0  0  0  0  0  0  0  0
   44.7170   35.2600   45.1420 N   0  0  0  0  0  0  0  0  0  0  0  0
   44.6440   36.0930   44.0850 C   0  0  0  0  0  0  0  0  0  0  0  0
   45.3880   35.8960   42.9810 N   0  0  0  0  0  0  0  0  0  0  0  0
   47.4450   32.5550   43.9410 S   0  0  0  0  0  0  0  0  0  0  0  0
   46.4190   33.6540   40.7400 C   0  0  0  0  0  0  0  0  0  0  0  0
   46.9830   33.8700   39.4020 C   0  0  0  0  0  0  0  0  0  0  0  0
   48.1690   34.4230   39.0980 N   0  0  0  0  0  0  0  0  0  0  0  0
   48.3020   34.4340   37.7600 C   0  0  0  0  0  0  0  0  0  0  0  0
   47.1800   33.8780   37.2290 N   0  0  0  0  0  0  0  0  0  0  0  0
   46.3700   33.5320   38.2330 N   0  0  0  0  0  0  0  0  0  0  0  0
   47.3537   35.4928   41.2724 H   0  0  0  0  0  0  0  0  0  0  0  0
   47.9715   34.0050   42.1308 H   0  0  0  0  0  0  0  0  0  0  0  0
   45.6255   33.4959   45.9833 H   0  0  0  0  0  0  0  0  0  0  0  0
   43.9604   36.9539   44.1256 H   0  0  0  0  0  0  0  0  0  0  0  0
   47.7493   32.1692   45.2199 H   0  0  0  0  0  0  0  0  0  0  0  0
   46.5677   32.6027   41.0275 H   0  0  0  0  0  0  0  0  0  0  0  0
   45.3468   33.8982   40.7116 H   0  0  0  0  0  0  0  0  0  0  0  0
   49.1630   34.8226   37.1964 H   0  0  0  0  0  0  0  0  0  0  0  0
   46.9881   33.7465   36.2256 H   0  0  0  0  0  0  0  0  0  0  0  0
  1  2  1  0
  2  7  1  0
  2  3  2  0
  3  4  1  0
  4  5  2  0
  6  5  1  0
  7  6  2  0
  8  3  1  0
  9  1  1  0
 10  9  1  0
 11 10  1  0
 12 11  2  0
 13 12  1  0
 13 14  1  0
 14 10  2  0
  1 15  1  0
  1 16  1  0
  4 17  1  0
  6 18  1  0
  8 19  1  0
  9 20  1  0
  9 21  1  0
 12 22  1  0
 13 23  1  0
M  ISO  8  15   8  16   8  17  14  18  14  19  11  20   8  21   8  22  14
M  ISO  1  23   9
M  END
>  <minimizedAffinity>  (1) 
-4.11245012

>  <minimizedRMSD>  (1) 
2.45452952

$$$$
