
     RDKit          3D

 42 45  0  0  0  0  0  0  0  0999 V2000
   45.4110   35.8430   42.6190 C   0  0  0  0  0  0  0  0  0  0  0  0
   45.6090   34.4730   42.6960 C   0  0  0  0  0  0  0  0  0  0  0  0
   45.3230   33.8000   43.8590 C   0  0  0  0  0  0  0  0  0  0  0  0
   44.8390   34.5520   44.9110 N   0  0  0  0  0  0  0  0  0  0  0  0
   44.6500   35.8680   44.8320 C   0  0  0  0  0  0  0  0  0  0  0  0
   44.9420   36.5010   43.6760 N   0  0  0  0  0  0  0  0  0  0  0  0
   45.4700   32.4150   44.0980 C   0  0  0  0  0  0  0  0  0  0  0  0
   44.9810   31.4180   43.2480 C   0  0  0  0  0  0  0  0  0  0  0  0
   45.0650   30.0740   43.5090 C   0  0  0  0  0  0  0  0  0  0  0  0
   45.6630   29.6400   44.6730 C   0  0  0  0  0  0  0  0  0  0  0  0
   46.1700   30.6430   45.5520 C   0  0  0  0  0  0  0  0  0  0  0  0
   46.7630   30.2210   46.7110 C   0  0  0  0  0  0  0  0  0  0  0  0
   47.2770   31.1370   47.6070 C   0  0  0  0  0  0  0  0  0  0  0  0
   47.1850   32.5060   47.3170 C   0  0  0  0  0  0  0  0  0  0  0  0
   46.5660   32.8880   46.1140 C   0  0  0  0  0  0  0  0  0  0  0  0
   46.0620   31.9580   45.2460 C   0  0  0  0  0  0  0  0  0  0  0  0
   46.0890   33.8480   41.5780 O   0  0  0  0  0  0  0  0  0  0  0  0
   48.0990   32.3530   40.8140 O   0  0  0  0  0  0  0  0  0  0  0  0
   47.7250   33.7510   41.1580 P   0  0  1  0  0  0  0  0  0  0  0  0
   48.0560   34.6990   39.7940 O   0  0  0  0  0  0  0  0  0  0  0  0
   47.8270   34.1400   38.5420 C   0  0  0  0  0  0  0  0  0  0  0  0
   46.7500   33.3650   38.2540 N   0  0  0  0  0  0  0  0  0  0  0  0
   46.8050   32.9740   36.9650 C   0  0  0  0  0  0  0  0  0  0  0  0
   47.9250   33.5080   36.4400 N   0  0  0  0  0  0  0  0  0  0  0  0
   48.5200   34.1990   37.3940 N   0  0  0  0  0  0  0  0  0  0  0  0
   48.6350   34.3260   42.4460 O   0  0  0  0  0  0  0  0  0  0  0  0
   49.7820   35.0990   42.3710 C   0  0  0  0  0  0  0  0  0  0  0  0
   49.3820   36.2290   42.0360 O   0  0  0  0  0  0  0  0  0  0  0  0
   50.9510   34.3200   42.7010 N   0  0  0  0  0  0  0  0  0  0  0  0
   45.6405   36.3833   41.6887 H   0  0  0  0  0  0  0  0  0  0  0  0
   44.2623   36.4299   45.6946 H   0  0  0  0  0  0  0  0  0  0  0  0
   44.4983   31.7315   42.3106 H   0  0  0  0  0  0  0  0  0  0  0  0
   44.6570   29.3456   42.7927 H   0  0  0  0  0  0  0  0  0  0  0  0
   45.7454   28.5697   44.9130 H   0  0  0  0  0  0  0  0  0  0  0  0
   46.8305   29.1451   46.9301 H   0  0  0  0  0  0  0  0  0  0  0  0
   47.7535   30.7967   48.5382 H   0  0  0  0  0  0  0  0  0  0  0  0
   47.5858   33.2594   48.0111 H   0  0  0  0  0  0  0  0  0  0  0  0
   46.4852   33.9565   45.8654 H   0  0  0  0  0  0  0  0  0  0  0  0
   46.0745   32.3397   36.4415 H   0  0  0  0  0  0  0  0  0  0  0  0
   48.2563   33.3972   35.4711 H   0  0  0  0  0  0  0  0  0  0  0  0
   51.8827   34.7590   42.6891 H   0  0  0  0  0  0  0  0  0  0  0  0
   50.8537   33.3249   42.9485 H   0  0  0  0  0  0  0  0  0  0  0  0
  1  2  2  0
  1  6  1  0
  2  3  1  0
  3  7  1  0
  3  4  2  0
  5  4  1  0
  6  5  2  0
  7 16  2  0
  8  9  2  0
  8  7  1  0
  9 10  1  0
 10 11  2  0
 11 12  1  0
 12 13  2  0
 14 13  1  0
 15 14  2  0
 16 11  1  0
 16 15  1  0
 17  2  1  0
 19 18  2  0
 19 17  1  0
 19 26  1  0
 20 19  1  0
 21 20  1  0
 22 21  1  0
 23 22  2  0
 24 23  1  0
 24 25  1  0
 25 21  2  0
 27 26  1  0
 27 29  1  0
 28 27  2  0
  1 30  1  0
  5 31  1  0
  8 32  1  0
  9 33  1  0
 10 34  1  0
 12 35  1  0
 13 36  1  0
 14 37  1  0
 15 38  1  0
 23 39  1  0
 24 40  1  0
 29 41  1  0
 29 42  1  0
M  ISO  8  30  14  31  14  32  14  33  14  34  14  35  14  36  14  37  14
M  ISO  3  38  14  39  14  40   9
M  END
>  <minimizedAffinity>  (1) 
-6.11867666

>  <minimizedRMSD>  (1) 
0.793821871

$$$$
