
     RDKit          3D

 30 33  0  0  0  0  0  0  0  0999 V2000
   47.4561   31.6779   44.8238 C   0  0  0  0  0  0  0  0  0  0  0  0
   46.7757   32.8613   44.5423 C   0  0  0  0  0  0  0  0  0  0  0  0
   45.9108   33.4506   45.4220 C   0  0  0  0  0  0  0  0  0  0  0  0
   45.6898   32.8455   46.6700 C   0  0  0  0  0  0  0  0  0  0  0  0
   44.9267   33.1405   47.7588 N   0  0  0  0  0  0  0  0  0  0  0  0
   45.1148   32.1863   48.6906 C   0  0  0  0  0  0  0  0  0  0  0  0
   45.9995   31.3076   48.1586 N   0  0  0  0  0  0  0  0  0  0  0  0
   46.3636   31.6882   46.9293 C   0  0  0  0  0  0  0  0  0  0  0  0
   47.2396   31.0717   46.0639 C   0  0  0  0  0  0  0  0  0  0  0  0
   46.3838   33.8118   41.0116 C   0  0  0  0  0  0  0  0  0  0  0  0
   47.4246   34.7169   40.8197 C   0  0  0  0  0  0  0  0  0  0  0  0
   48.2546   34.9951   41.9049 C   0  0  0  0  0  0  0  0  0  0  0  0
   48.0187   34.3757   43.1039 N   0  0  0  0  0  0  0  0  0  0  0  0
   46.9993   33.5042   43.2496 C   0  0  0  0  0  0  0  0  0  0  0  0
   46.1835   33.2211   42.2107 N   0  0  0  0  0  0  0  0  0  0  0  0
   45.0508   34.9626   45.0573 S   0  0  0  0  0  0  0  0  0  0  0  0
   48.1429   31.1957   44.1446 H   0  0  0  0  0  0  0  0  0  0  0  0
   44.3159   33.9939   47.7883 H   0  0  0  0  0  0  0  0  0  0  0  0
   44.5782   32.2705   49.6250 H   0  0  0  0  0  0  0  0  0  0  0  0
   47.7476   30.1622   46.3105 H   0  0  0  0  0  0  0  0  0  0  0  0
   45.7181   33.5691   40.1936 H   0  0  0  0  0  0  0  0  0  0  0  0
   47.5941   35.1903   39.8769 H   0  0  0  0  0  0  0  0  0  0  0  0
   49.0750   35.6863   41.8173 H   0  0  0  0  0  0  0  0  0  0  0  0
   43.4843   34.6939   44.2570 C   0  0  0  0  0  0  0  0  0  0  0  0
   42.5604   33.7568   44.6216 N   0  0  0  0  0  0  0  0  0  0  0  0
   41.5082   33.8679   43.7772 C   0  0  0  0  0  0  0  0  0  0  0  0
   40.6560   33.2141   43.8892 H   0  0  0  0  0  0  0  0  0  0  0  0
   41.7600   34.8635   42.8866 N   0  0  0  0  0  0  0  0  0  0  0  0
   41.1012   35.1486   42.1265 H   0  0  0  0  0  0  0  0  0  0  0  0
   42.9371   35.3294   43.2007 N   0  0  0  0  0  0  0  0  0  0  0  0
  1  9  2  0
  2  1  1  0
  2  3  2  0
  3  4  1  0
  4  8  2  0
  4  5  1  0
  5  6  1  0
  7  6  2  0
  8  7  1  0
  9  8  1  0
 10 15  2  0
 11 10  1  0
 11 12  2  0
 12 13  1  0
 13 14  2  0
 14  2  1  0
 15 14  1  0
 16  3  1  0
  1 17  1  0
  5 18  1  0
  6 19  1  0
  9 20  1  0
 10 21  1  0
 11 22  1  0
 12 23  1  0
 24 25  1  0
 25 26  2  0
 26 27  1  0
 26 28  1  0
 28 29  1  0
 28 30  1  0
 30 24  2  0
 16 24  1  0
M  ISO  8  17  14  18   9  19  14  20  14  21  14  22  14  23  14  27  14
M  ISO  1  29   9
M  END
>  <DihAtoms>  (1) 
2,15,23,24

>  <DihDeg>  (1) 
89.33581519599313

$$$$
