
     RDKit          3D

 26 28  0  0  0  0  0  0  0  0999 V2000
   45.2470   34.4540   42.5320 Cl  0  0  0  0  0  0  0  0  0  0  0  0
   45.4080   33.9490   40.8760 C   0  0  0  0  0  0  0  0  0  0  0  0
   46.6290   33.8420   40.2670 C   0  0  0  0  0  0  0  0  0  0  0  0
   46.6260   33.4360   38.9630 C   0  0  0  0  0  0  0  0  0  0  0  0
   45.5000   33.1420   38.2740 C   0  0  0  0  0  0  0  0  0  0  0  0
   44.2670   33.2490   38.8860 C   0  0  0  0  0  0  0  0  0  0  0  0
   44.2390   33.6570   40.1980 C   0  0  0  0  0  0  0  0  0  0  0  0
   49.4890   35.7170   41.8960 C   0  0  0  0  0  0  0  0  0  0  0  0
   48.3390   35.4470   41.1380 C   0  0  0  0  0  0  0  0  0  0  0  0
   47.8200   34.1660   41.0430 C   0  0  0  0  0  0  0  0  0  0  0  0
   48.4970   33.2080   41.7280 N   0  0  0  0  0  0  0  0  0  0  0  0
   49.5950   33.4660   42.4520 C   0  0  0  0  0  0  0  0  0  0  0  0
   50.0940   34.7240   42.5380 N   0  0  0  0  0  0  0  0  0  0  0  0
   47.9130   33.3100   38.2800 C   0  0  0  0  0  0  0  0  0  0  0  0
   48.6440   32.1820   38.2570 N   0  0  0  0  0  0  0  0  0  0  0  0
   49.7790   32.3590   37.5560 C   0  0  0  0  0  0  0  0  0  0  0  0
   49.7500   33.6440   37.1310 N   0  0  0  0  0  0  0  0  0  0  0  0
   48.6300   34.1910   37.5730 N   0  0  0  0  0  0  0  0  0  0  0  0
   45.5666   32.8173   37.2251 H   0  0  0  0  0  0  0  0  0  0  0  0
   43.3395   33.0158   38.3424 H   0  0  0  0  0  0  0  0  0  0  0  0
   43.2732   33.7526   40.7159 H   0  0  0  0  0  0  0  0  0  0  0  0
   49.8855   36.7412   41.9578 H   0  0  0  0  0  0  0  0  0  0  0  0
   47.8387   36.2707   40.6076 H   0  0  0  0  0  0  0  0  0  0  0  0
   50.0986   32.6455   42.9841 H   0  0  0  0  0  0  0  0  0  0  0  0
   50.5665   31.6145   37.3675 H   0  0  0  0  0  0  0  0  0  0  0  0
   50.4716   34.1122   36.5644 H   0  0  0  0  0  0  0  0  0  0  0  0
  2  1  1  0
  3  2  2  0
  3 10  1  0
  4  3  1  0
  5  6  1  0
  5  4  2  0
  6  7  2  0
  7  2  1  0
  8 13  2  0
  9  8  1  0
 10  9  2  0
 10 11  1  0
 11 12  2  0
 12 13  1  0
 14  4  1  0
 15 14  1  0
 16 15  2  0
 17 16  1  0
 17 18  1  0
 18 14  2  0
  5 19  1  0
  6 20  1  0
  7 21  1  0
  8 22  1  0
  9 23  1  0
 12 24  1  0
 16 25  1  0
 17 26  1  0
M  ISO  8  19  14  20  14  21  14  22  14  23  14  24  14  25  14  26   9
M  END
>  <minimizedAffinity>  (1) 
-4.78387928

>  <minimizedRMSD>  (1) 
5.02328205

$$$$
