
     RDKit          3D

 45 48  0  0  1  0  0  0  0  0999 V2000
   45.2240   36.8930   42.8680 C   0  0  0  0  0  0  0  0  0  0  0  0
   45.5770   35.6630   43.6750 C   0  0  0  0  0  0  0  0  0  0  0  0
   46.6110   34.8380   43.2020 C   0  0  0  0  0  0  0  0  0  0  0  0
   46.9680   33.6930   43.9360 C   0  0  0  0  0  0  0  0  0  0  0  0
   46.3010   33.4510   45.0490 N   0  0  0  0  0  0  0  0  0  0  0  0
   45.3060   34.2560   45.4940 C   0  0  0  0  0  0  0  0  0  0  0  0
   44.9390   35.3690   44.8050 N   0  0  0  0  0  0  0  0  0  0  0  0
   49.0600   33.6250   42.5910 C   0  0  2  0  0  0  0  0  0  0  0  0
   48.0430   32.9000   43.3710 C   0  0  2  0  0  0  0  0  0  0  0  0
   47.6030   31.9100   42.4210 O   0  0  0  0  0  0  0  0  0  0  0  0
   48.8160   31.3750   42.0180 C   0  0  0  0  0  0  0  0  0  0  0  0
   49.8910   32.4100   42.1160 C   0  0  1  0  0  0  0  0  0  0  0  0
   49.7700   34.5580   43.2600 O   0  0  0  0  0  0  0  0  0  0  0  0
   50.4840   32.7300   40.8900 O   0  0  0  0  0  0  0  0  0  0  0  0
   45.3970   39.2650   43.8980 C   0  0  0  0  0  0  0  0  0  0  0  0
   46.1660   39.6010   42.9620 O   0  0  0  0  0  0  0  0  0  0  0  0
   44.9000   37.9330   43.8390 N   0  0  0  0  0  0  0  0  0  0  0  0
   45.0030   40.1410   45.0010 C   0  0  0  0  0  0  0  0  0  0  0  0
   45.5430   39.9600   46.2310 C   0  0  0  0  0  0  0  0  0  0  0  0
   45.1100   40.8420   47.2250 C   0  0  0  0  0  0  0  0  0  0  0  0
   44.1890   41.8570   47.0170 C   0  0  0  0  0  0  0  0  0  0  0  0
   43.7030   41.9610   45.7480 C   0  0  0  0  0  0  0  0  0  0  0  0
   44.0910   41.1340   44.7600 N   0  0  0  0  0  0  0  0  0  0  0  0
   42.7270   42.9780   45.3720 C   0  0  0  0  0  0  0  0  0  0  0  0
   41.4590   42.8520   45.7860 N   0  0  0  0  0  0  0  0  0  0  0  0
   40.7220   43.9020   45.3260 C   0  0  0  0  0  0  0  0  0  0  0  0
   41.5810   44.6810   44.6120 N   0  0  0  0  0  0  0  0  0  0  0  0
   42.7960   44.1210   44.6410 N   0  0  0  0  0  0  0  0  0  0  0  0
   46.0789   37.2017   42.2484 H   0  0  0  0  0  0  0  0  0  0  0  0
   44.3809   36.7002   42.1883 H   0  0  0  0  0  0  0  0  0  0  0  0
   47.1358   35.0851   42.2674 H   0  0  0  0  0  0  0  0  0  0  0  0
   44.7857   34.0043   46.4299 H   0  0  0  0  0  0  0  0  0  0  0  0
   48.6499   34.2707   41.8005 H   0  0  0  0  0  0  0  0  0  0  0  0
   48.4580   32.4895   44.3033 H   0  0  0  0  0  0  0  0  0  0  0  0
   48.7345   31.0324   40.9759 H   0  0  0  0  0  0  0  0  0  0  0  0
   49.0710   30.5275   42.6712 H   0  0  0  0  0  0  0  0  0  0  0  0
   50.7269   32.0864   42.7536 H   0  0  0  0  0  0  0  0  0  0  0  0
   49.6634   34.4180   44.2342 H   0  0  0  0  0  0  0  0  0  0  0  0
   51.3437   33.1939   41.0504 H   0  0  0  0  0  0  0  0  0  0  0  0
   44.2275   37.6700   44.5735 H   0  0  0  0  0  0  0  0  0  0  0  0
   46.2776   39.1669   46.4346 H   0  0  0  0  0  0  0  0  0  0  0  0
   45.5263   40.7233   48.2362 H   0  0  0  0  0  0  0  0  0  0  0  0
   43.8712   42.5342   47.8235 H   0  0  0  0  0  0  0  0  0  0  0  0
   39.6506   44.0835   45.4968 H   0  0  0  0  0  0  0  0  0  0  0  0
   41.3358   45.5571   44.1291 H   0  0  0  0  0  0  0  0  0  0  0  0
  1  2  1  0
  1 17  1  0
  2  7  1  0
  3  2  2  0
  3  4  1  0
  4  5  2  0
  5  6  1  0
  7  6  2  0
  8 13  1  0
  8  9  1  0
  9  4  1  0
 10  9  1  0
 11 12  1  0
 11 10  1  0
 12  8  1  0
 14 12  1  0
 15 18  1  0
 16 15  2  0
 17 15  1  0
 18 19  2  0
 19 20  1  0
 21 20  2  0
 22 21  1  0
 23 18  1  0
 23 22  2  0
 24 22  1  0
 24 25  1  0
 26 25  2  0
 27 28  1  0
 27 26  1  0
 28 24  2  0
  1 29  1  0
  1 30  1  0
  3 31  1  0
  6 32  1  0
  8 33  1  6
  9 34  1  1
 11 35  1  0
 11 36  1  0
 12 37  1  1
 13 38  1  0
 14 39  1  0
 17 40  1  0
 19 41  1  0
 20 42  1  0
 21 43  1  0
 26 44  1  0
 27 45  1  0
M  ISO  8  29   8  30   8  31  14  32  14  33  13  34  13  35  13  36  13
M  ISO  8  37  13  38   3  39   3  41  14  42  14  43  14  44  14  45   9
M  END
>  <minimizedAffinity>  (1) 
-4.21269035

>  <minimizedRMSD>  (1) 
0.850664079

$$$$
