
     RDKit          3D

 23 25  0  0  0  0  0  0  0  0999 V2000
   48.1120   34.8790   41.6580 C   0  0  0  0  0  0  0  0  0  0  0  0
   49.1060   35.9770   41.7610 C   0  0  0  0  0  0  0  0  0  0  0  0
   49.5300   34.5860   42.0040 C   0  0  0  0  0  0  0  0  0  0  0  0
   45.9920   35.6460   42.7710 C   0  0  0  0  0  0  0  0  0  0  0  0
   47.0760   34.7660   42.7260 C   0  0  0  0  0  0  0  0  0  0  0  0
   47.1680   33.7650   43.7180 C   0  0  0  0  0  0  0  0  0  0  0  0
   46.1800   33.7100   44.6780 N   0  0  0  0  0  0  0  0  0  0  0  0
   45.1590   34.5680   44.6880 C   0  0  0  0  0  0  0  0  0  0  0  0
   45.0640   35.5280   43.7440 N   0  0  0  0  0  0  0  0  0  0  0  0
   47.6760   34.3640   40.3480 C   0  0  0  0  0  0  0  0  0  0  0  0
   46.5810   33.5720   40.3470 N   0  0  0  0  0  0  0  0  0  0  0  0
   46.2900   33.1710   39.1030 C   0  0  0  0  0  0  0  0  0  0  0  0
   47.2410   33.7380   38.3050 N   0  0  0  0  0  0  0  0  0  0  0  0
   48.0480   34.4420   39.0840 N   0  0  0  0  0  0  0  0  0  0  0  0
   49.4398   36.5020   40.8539 H   0  0  0  0  0  0  0  0  0  0  0  0
   49.1671   36.9168   42.3294 H   0  0  0  0  0  0  0  0  0  0  0  0
   49.7915   34.2610   43.0218 H   0  0  0  0  0  0  0  0  0  0  0  0
   50.3102   33.9284   41.5930 H   0  0  0  0  0  0  0  0  0  0  0  0
   45.8946   36.4364   42.0122 H   0  0  0  0  0  0  0  0  0  0  0  0
   48.0038   33.0499   43.7245 H   0  0  0  0  0  0  0  0  0  0  0  0
   44.3895   34.4928   45.4705 H   0  0  0  0  0  0  0  0  0  0  0  0
   45.4593   32.5213   38.7901 H   0  0  0  0  0  0  0  0  0  0  0  0
   47.3172   33.6368   37.2828 H   0  0  0  0  0  0  0  0  0  0  0  0
  1  2  1  0
  1  3  1  0
  1  5  1  0
  2  3  1  0
  4  9  2  0
  5  4  1  0
  5  6  2  0
  6  7  1  0
  7  8  2  0
  9  8  1  0
 10  1  1  0
 11 10  1  0
 12 11  2  0
 13 14  1  0
 13 12  1  0
 14 10  2  0
  2 15  1  0
  2 16  1  0
  3 17  1  0
  3 18  1  0
  4 19  1  0
  6 20  1  0
  8 21  1  0
 12 22  1  0
 13 23  1  0
M  ISO  8  15  13  16  13  17  13  18  13  19  14  20  14  21  14  22  14
M  ISO  1  23   9
M  END
>  <minimizedAffinity>  (1) 
-4.71238422

>  <minimizedRMSD>  (1) 
1.59748411

$$$$
