
     RDKit          3D

 47 50  0  0  1  0  0  0  0  0999 V2000
   46.9410   32.8050   45.4840 C   0  0  0  0  0  0  0  0  0  0  0  0
   45.8420   33.4740   46.0020 C   0  0  0  0  0  0  0  0  0  0  0  0
   45.1640   34.4230   45.2000 C   0  0  0  0  0  0  0  0  0  0  0  0
   45.6660   34.6190   43.9140 N   0  0  0  0  0  0  0  0  0  0  0  0
   46.7310   33.9400   43.4800 C   0  0  0  0  0  0  0  0  0  0  0  0
   47.3570   33.0510   44.2480 N   0  0  0  0  0  0  0  0  0  0  0  0
   47.5890   31.8270   46.3360 C   0  0  2  0  0  0  0  0  0  0  0  0
   47.3500   30.3750   45.8260 C   0  0  0  0  0  0  0  0  0  0  0  0
   48.1720   29.4280   46.6340 C   0  0  0  0  0  0  0  0  0  0  0  0
   48.1500   29.6430   48.1120 C   0  0  0  0  0  0  0  0  0  0  0  0
   48.1420   31.0290   48.5100 C   0  0  0  0  0  0  0  0  0  0  0  0
   47.1460   31.9010   47.7140 C   0  0  2  0  0  0  0  0  0  0  0  0
   45.8100   31.3150   47.8410 N   0  0  0  0  0  0  0  0  0  0  0  0
   45.1460   30.7330   48.9350 C   0  0  0  0  0  0  0  0  0  0  0  0
   44.6250   31.4240   49.8840 O   0  0  0  0  0  0  0  0  0  0  0  0
   45.0880   29.3080   48.9090 N   0  0  0  0  0  0  0  0  0  0  0  0
   47.2170   34.2120   42.1230 C   0  0  0  0  0  0  0  0  0  0  0  0
   48.2230   35.1230   41.8960 C   0  0  0  0  0  0  0  0  0  0  0  0
   48.7410   35.4420   40.6690 C   0  0  0  0  0  0  0  0  0  0  0  0
   48.1700   34.7640   39.6230 C   0  0  0  0  0  0  0  0  0  0  0  0
   47.1470   33.8330   39.8150 C   0  0  0  0  0  0  0  0  0  0  0  0
   46.6790   33.5650   41.0770 N   0  0  0  0  0  0  0  0  0  0  0  0
   46.4960   33.0780   38.7490 C   0  0  0  0  0  0  0  0  0  0  0  0
   46.8150   33.4310   37.4740 N   0  0  0  0  0  0  0  0  0  0  0  0
   46.1460   32.6570   36.5950 C   0  0  0  0  0  0  0  0  0  0  0  0
   45.4000   31.8080   37.3590 N   0  0  0  0  0  0  0  0  0  0  0  0
   45.6100   32.0610   38.6610 N   0  0  0  0  0  0  0  0  0  0  0  0
   45.5002   33.2688   47.0272 H   0  0  0  0  0  0  0  0  0  0  0  0
   44.2885   34.9759   45.5712 H   0  0  0  0  0  0  0  0  0  0  0  0
   48.6606   32.0715   46.2938 H   0  0  0  0  0  0  0  0  0  0  0  0
   46.2853   30.1192   45.9307 H   0  0  0  0  0  0  0  0  0  0  0  0
   47.6393   30.3037   44.7671 H   0  0  0  0  0  0  0  0  0  0  0  0
   47.8056   28.4099   46.4359 H   0  0  0  0  0  0  0  0  0  0  0  0
   49.2135   29.5981   46.3237 H   0  0  0  0  0  0  0  0  0  0  0  0
   47.2466   29.1632   48.5165 H   0  0  0  0  0  0  0  0  0  0  0  0
   49.0792   29.2070   48.5076 H   0  0  0  0  0  0  0  0  0  0  0  0
   47.8746   31.0822   49.5757 H   0  0  0  0  0  0  0  0  0  0  0  0
   49.1477   31.4260   48.3077 H   0  0  0  0  0  0  0  0  0  0  0  0
   47.1070   32.9407   48.0710 H   0  0  0  0  0  0  0  0  0  0  0  0
   45.2571   31.3324   46.9722 H   0  0  0  0  0  0  0  0  0  0  0  0
   44.6199   28.7976   49.6714 H   0  0  0  0  0  0  0  0  0  0  0  0
   45.5142   28.7894   48.1278 H   0  0  0  0  0  0  0  0  0  0  0  0
   48.6458   35.6371   42.7718 H   0  0  0  0  0  0  0  0  0  0  0  0
   49.5463   36.1791   40.5342 H   0  0  0  0  0  0  0  0  0  0  0  0
   48.5286   34.9593   38.6016 H   0  0  0  0  0  0  0  0  0  0  0  0
   46.1921   32.7010   35.4968 H   0  0  0  0  0  0  0  0  0  0  0  0
   44.7695   31.0810   36.9918 H   0  0  0  0  0  0  0  0  0  0  0  0
  1  2  2  0
  1  7  1  0
  3  2  1  0
  4  3  2  0
  5  4  1  0
  5  6  2  0
  6  1  1  0
  7 12  1  0
  8  7  1  0
  8  9  1  0
  9 10  1  0
 10 11  1  0
 12 13  1  0
 12 11  1  0
 13 14  1  0
 14 15  2  0
 16 14  1  0
 17  5  1  0
 18 17  2  0
 19 18  1  0
 20 21  1  0
 20 19  2  0
 21 22  2  0
 22 17  1  0
 23 21  1  0
 24 23  1  0
 25 26  1  0
 25 24  2  0
 26 27  1  0
 27 23  2  0
  2 28  1  0
  3 29  1  0
  7 30  1  1
  8 31  1  0
  8 32  1  0
  9 33  1  0
  9 34  1  0
 10 35  1  0
 10 36  1  0
 11 37  1  0
 11 38  1  0
 12 39  1  1
 13 40  1  0
 16 41  1  0
 16 42  1  0
 18 43  1  0
 19 44  1  0
 20 45  1  0
 25 46  1  0
 26 47  1  0
M  ISO  8  28  14  29  14  30  13  31  13  32  13  33  13  34  13  35  13
M  ISO  8  36  13  37  13  38  13  39  13  43  14  44  14  45  14  46  14
M  ISO  1  47   9
M  END
>  <minimizedAffinity>  (1) 
-6.33828259

>  <minimizedRMSD>  (1) 
0.189880729

$$$$
