
     RDKit          3D

 45 48  0  0  0  0  0  0  0  0999 V2000
   45.1187   35.5431   43.2512 C   0  0  0  0  0  0  0  0  0  0  0  0
   45.5134   34.2267   43.3086 C   0  0  0  0  0  0  0  0  0  0  0  0
   45.4631   33.5331   44.4837 C   0  0  0  0  0  0  0  0  0  0  0  0
   44.9945   34.2368   45.5860 N   0  0  0  0  0  0  0  0  0  0  0  0
   44.6136   35.5006   45.5387 C   0  0  0  0  0  0  0  0  0  0  0  0
   44.6804   36.1498   44.3571 N   0  0  0  0  0  0  0  0  0  0  0  0
   45.8184   32.1956   44.7336 C   0  0  0  0  0  0  0  0  0  0  0  0
   45.4758   31.1432   43.8614 C   0  0  0  0  0  0  0  0  0  0  0  0
   45.7582   29.8248   44.0950 C   0  0  0  0  0  0  0  0  0  0  0  0
   46.4213   29.4691   45.2529 C   0  0  0  0  0  0  0  0  0  0  0  0
   46.7771   30.5213   46.1472 C   0  0  0  0  0  0  0  0  0  0  0  0
   47.4293   30.1831   47.3039 C   0  0  0  0  0  0  0  0  0  0  0  0
   47.7962   31.1485   48.2106 C   0  0  0  0  0  0  0  0  0  0  0  0
   47.4971   32.4940   47.9401 C   0  0  0  0  0  0  0  0  0  0  0  0
   46.8259   32.7855   46.7367 C   0  0  0  0  0  0  0  0  0  0  0  0
   46.4727   31.8095   45.8620 C   0  0  0  0  0  0  0  0  0  0  0  0
   45.9523   33.6470   42.1477 O   0  0  0  0  0  0  0  0  0  0  0  0
   48.1536   32.3707   41.5439 O   0  0  0  0  0  0  0  0  0  0  0  0
   47.5232   33.7210   41.5554 P   0  0  1  0  0  0  0  0  0  0  0  0
   47.5660   34.2909   39.9662 O   0  0  0  0  0  0  0  0  0  0  0  0
   46.8156   33.3664   39.2060 C   0  0  0  0  0  0  0  0  0  0  0  0
   48.3985   34.7767   42.5350 O   0  0  0  0  0  0  0  0  0  0  0  0
   49.6136   35.3689   42.2396 C   0  0  0  0  0  0  0  0  0  0  0  0
   49.3240   36.4089   41.6311 O   0  0  0  0  0  0  0  0  0  0  0  0
   50.7076   34.5699   42.7396 N   0  0  0  0  0  0  0  0  0  0  0  0
   45.1528   36.1173   42.3149 H   0  0  0  0  0  0  0  0  0  0  0  0
   44.2551   36.0024   46.4343 H   0  0  0  0  0  0  0  0  0  0  0  0
   44.9519   31.3792   42.9374 H   0  0  0  0  0  0  0  0  0  0  0  0
   45.4591   29.0702   43.3693 H   0  0  0  0  0  0  0  0  0  0  0  0
   46.6598   28.4464   45.4729 H   0  0  0  0  0  0  0  0  0  0  0  0
   47.6493   29.1399   47.4883 H   0  0  0  0  0  0  0  0  0  0  0  0
   48.3044   30.7983   49.0957 H   0  0  0  0  0  0  0  0  0  0  0  0
   47.8279   33.1591   48.7101 H   0  0  0  0  0  0  0  0  0  0  0  0
   46.7224   33.8518   46.7206 H   0  0  0  0  0  0  0  0  0  0  0  0
   45.7713   33.4243   39.5804 H   0  0  0  0  0  0  0  0  0  0  0  0
   47.1925   32.3434   39.2641 H   0  0  0  0  0  0  0  0  0  0  0  0
   51.5457   34.7561   43.3396 H   0  0  0  0  0  0  0  0  0  0  0  0
   51.5008   34.8901   43.3465 H   0  0  0  0  0  0  0  0  0  0  0  0
   46.8493   33.8634   37.8025 C   0  0  0  0  0  0  0  0  0  0  0  0
   46.4442   35.0003   37.2118 N   0  0  0  0  0  0  0  0  0  0  0  0
   46.7092   34.9512   35.8923 C   0  0  0  0  0  0  0  0  0  0  0  0
   46.4990   35.7167   35.1546 H   0  0  0  0  0  0  0  0  0  0  0  0
   47.2945   33.7525   35.6562 N   0  0  0  0  0  0  0  0  0  0  0  0
   47.6335   33.3839   34.7189 H   0  0  0  0  0  0  0  0  0  0  0  0
   47.3703   33.1178   36.8024 N   0  0  0  0  0  0  0  0  0  0  0  0
  1  2  2  0
  1  6  1  0
  2  3  1  0
  3  7  1  0
  3  4  2  0
  5  4  1  0
  6  5  2  0
  7 16  2  0
  8  9  2  0
  8  7  1  0
  9 10  1  0
 10 11  2  0
 11 12  1  0
 12 13  2  0
 14 13  1  0
 15 14  2  0
 16 11  1  0
 16 15  1  0
 17  2  1  0
 19 18  2  0
 19 17  1  1
 19 22  1  0
 20 19  1  0
 21 20  1  0
 23 22  1  0
 23 25  1  0
 24 23  2  0
  1 26  1  0
  5 27  1  0
  8 28  1  0
  9 29  1  0
 10 30  1  0
 12 31  1  0
 13 32  1  0
 14 33  1  0
 15 34  1  0
 21 35  1  0
 21 36  1  0
 25 37  1  0
 25 38  1  0
 39 40  1  0
 40 41  2  0
 41 42  1  0
 41 43  1  0
 43 44  1  0
 43 45  1  0
 45 39  2  0
 21 39  1  0
M  ISO  8  26  14  27  14  28  14  29  14  30  14  31  14  32  14  33  14
M  ISO  5  34  14  35   8  36   8  42  14  44   9
M  END
>  <DihAtoms>  (1) 
19,20,38,39

>  <DihDeg>  (1) 
-89.99916349683538

$$$$
