
     RDKit          3D

 32 35  0  0  0  0  0  0  0  0999 V2000
   44.7840   33.1550   41.0920 Cl  0  0  0  0  0  0  0  0  0  0  0  0
   46.3230   33.9640   40.8810 C   0  0  0  0  0  0  0  0  0  0  0  0
   46.8360   34.7140   41.9050 C   0  0  0  0  0  0  0  0  0  0  0  0
   48.0620   35.3690   41.7630 C   0  0  0  0  0  0  0  0  0  0  0  0
   48.6980   35.2110   40.5520 C   0  0  0  0  0  0  0  0  0  0  0  0
   48.1670   34.4500   39.5290 C   0  0  0  0  0  0  0  0  0  0  0  0
   46.9720   33.8230   39.6940 C   0  0  0  0  0  0  0  0  0  0  0  0
   46.3870   33.0140   38.6290 C   0  0  0  0  0  0  0  0  0  0  0  0
   45.4100   33.3650   37.7910 N   0  0  0  0  0  0  0  0  0  0  0  0
   45.1570   32.3410   36.9600 C   0  0  0  0  0  0  0  0  0  0  0  0
   45.9860   31.3320   37.2800 N   0  0  0  0  0  0  0  0  0  0  0  0
   46.7240   31.7570   38.2930 N   0  0  0  0  0  0  0  0  0  0  0  0
   46.0380   30.0640   36.6330 C   0  0  0  0  0  0  0  0  0  0  0  0
   45.3390   28.9730   36.9940 N   0  0  0  0  0  0  0  0  0  0  0  0
   45.6330   27.9450   36.1580 C   0  0  0  0  0  0  0  0  0  0  0  0
   46.5300   28.4220   35.2700 N   0  0  0  0  0  0  0  0  0  0  0  0
   46.7720   29.7100   35.5630 N   0  0  0  0  0  0  0  0  0  0  0  0
   45.6100   34.0300   45.3080 C   0  0  0  0  0  0  0  0  0  0  0  0
   44.7210   35.0960   45.5280 C   0  0  0  0  0  0  0  0  0  0  0  0
   44.5530   36.0340   44.5100 C   0  0  0  0  0  0  0  0  0  0  0  0
   45.2540   35.8690   43.3670 N   0  0  0  0  0  0  0  0  0  0  0  0
   46.1030   34.8400   43.1680 C   0  0  0  0  0  0  0  0  0  0  0  0
   46.2790   33.9220   44.1410 N   0  0  0  0  0  0  0  0  0  0  0  0
   48.4943   35.9760   42.5721 H   0  0  0  0  0  0  0  0  0  0  0  0
   49.6655   35.7097   40.3933 H   0  0  0  0  0  0  0  0  0  0  0  0
   48.7121   34.3510   38.5787 H   0  0  0  0  0  0  0  0  0  0  0  0
   44.4039   32.3297   36.1583 H   0  0  0  0  0  0  0  0  0  0  0  0
   45.2217   26.9255   36.1967 H   0  0  0  0  0  0  0  0  0  0  0  0
   46.9565   27.8890   34.4987 H   0  0  0  0  0  0  0  0  0  0  0  0
   45.7620   33.2763   46.0947 H   0  0  0  0  0  0  0  0  0  0  0  0
   44.1728   35.1879   46.4772 H   0  0  0  0  0  0  0  0  0  0  0  0
   43.8679   36.8856   44.6343 H   0  0  0  0  0  0  0  0  0  0  0  0
  2  1  1  0
  2  3  2  0
  3 22  1  0
  4  3  1  0
  5  4  2  0
  6  7  2  0
  6  5  1  0
  7  2  1  0
  8  7  1  0
  9  8  1  0
 10 11  1  0
 10  9  2  0
 11 12  1  0
 12  8  2  0
 13 14  1  0
 13 11  1  0
 15 14  2  0
 16 17  1  0
 16 15  1  0
 17 13  2  0
 18 19  2  0
 20 19  1  0
 21 20  2  0
 22 21  1  0
 22 23  2  0
 23 18  1  0
  4 24  1  0
  5 25  1  0
  6 26  1  0
 10 27  1  0
 15 28  1  0
 16 29  1  0
 18 30  1  0
 19 31  1  0
 20 32  1  0
M  ISO  8  24  14  25  14  26  14  27  14  28  14  29   9  30  14  31  14
M  ISO  1  32  14
M  END
>  <minimizedAffinity>  (1) 
-5.66594458

>  <minimizedRMSD>  (1) 
0.262775987

$$$$
