
     RDKit          3D

 37 40  0  0  1  0  0  0  0  0999 V2000
   44.7570   34.3000   43.0500 C   0  0  1  0  0  0  0  0  0  0  0  0
   45.4290   35.5810   43.4580 C   0  0  0  0  0  0  0  0  0  0  0  0
   45.7630   35.0570   42.2180 C   0  0  1  0  0  0  0  0  0  0  0  0
   47.1450   34.5690   41.9630 C   0  0  0  0  0  0  0  0  0  0  0  0
   48.1240   34.5670   42.9260 C   0  0  0  0  0  0  0  0  0  0  0  0
   49.4180   34.1690   42.7290 C   0  0  0  0  0  0  0  0  0  0  0  0
   49.7650   33.7390   41.4710 C   0  0  0  0  0  0  0  0  0  0  0  0
   48.8030   33.7260   40.4660 C   0  0  0  0  0  0  0  0  0  0  0  0
   47.5280   34.1390   40.7340 C   0  0  0  0  0  0  0  0  0  0  0  0
   46.3110   32.6830   39.2660 C   0  0  0  0  0  0  0  0  0  0  0  0
   46.6420   31.9880   40.2270 O   0  0  0  0  0  0  0  0  0  0  0  0
   46.7860   34.0220   39.5050 N   0  0  0  0  0  0  0  0  0  0  0  0
   45.0900   33.0610   43.7500 C   0  0  0  0  0  0  0  0  0  0  0  0
   44.9360   31.8710   43.0230 C   0  0  0  0  0  0  0  0  0  0  0  0
   45.2610   30.6790   43.6970 C   0  0  0  0  0  0  0  0  0  0  0  0
   45.6960   30.7760   44.9980 N   0  0  0  0  0  0  0  0  0  0  0  0
   45.8210   31.9730   45.6470 C   0  0  0  0  0  0  0  0  0  0  0  0
   45.5160   33.1400   45.0250 N   0  0  0  0  0  0  0  0  0  0  0  0
   46.2890   31.9670   47.0270 C   0  0  0  0  0  0  0  0  0  0  0  0
   45.3220   31.9050   47.9710 N   0  0  0  0  0  0  0  0  0  0  0  0
   45.8560   31.9040   49.1950 C   0  0  0  0  0  0  0  0  0  0  0  0
   47.1700   31.9680   48.9940 N   0  0  0  0  0  0  0  0  0  0  0  0
   47.4670   32.0070   47.6900 N   0  0  0  0  0  0  0  0  0  0  0  0
   43.7376   33.9154   42.8987 H   0  0  0  0  0  0  0  0  0  0  0  0
   44.8399   36.5083   43.5138 H   0  0  0  0  0  0  0  0  0  0  0  0
   46.0144   35.8865   44.3377 H   0  0  0  0  0  0  0  0  0  0  0  0
   45.7455   35.4247   41.1814 H   0  0  0  0  0  0  0  0  0  0  0  0
   47.8465   34.9119   43.9330 H   0  0  0  0  0  0  0  0  0  0  0  0
   50.1530   34.1924   43.5470 H   0  0  0  0  0  0  0  0  0  0  0  0
   50.7928   33.4084   41.2606 H   0  0  0  0  0  0  0  0  0  0  0  0
   49.0687   33.3831   39.4551 H   0  0  0  0  0  0  0  0  0  0  0  0
   45.7520   32.3421   38.3821 H   0  0  0  0  0  0  0  0  0  0  0  0
   46.6135   34.8109   38.8657 H   0  0  0  0  0  0  0  0  0  0  0  0
   44.5803   31.8697   41.9821 H   0  0  0  0  0  0  0  0  0  0  0  0
   45.1701   29.7021   43.1996 H   0  0  0  0  0  0  0  0  0  0  0  0
   45.3261   31.8599   50.1579 H   0  0  0  0  0  0  0  0  0  0  0  0
   47.8711   31.9854   49.7484 H   0  0  0  0  0  0  0  0  0  0  0  0
  1  2  1  0
  1 13  1  0
  3  1  1  0
  3  2  1  0
  4  3  1  0
  4  5  2  0
  6  5  1  0
  7  6  2  0
  8  9  2  0
  8  7  1  0
  9  4  1  0
 10 12  1  0
 10 11  2  0
 12  9  1  0
 13 18  2  0
 14 15  2  0
 14 13  1  0
 15 16  1  0
 16 17  2  0
 17 19  1  0
 18 17  1  0
 19 23  2  0
 19 20  1  0
 20 21  2  0
 22 21  1  0
 23 22  1  0
  1 24  1  6
  2 25  1  0
  2 26  1  0
  3 27  1  6
  5 28  1  0
  6 29  1  0
  7 30  1  0
  8 31  1  0
 10 32  1  0
 12 33  1  0
 14 34  1  0
 15 35  1  0
 21 36  1  0
 22 37  1  0
M  ISO  8  24  13  25  13  26  13  27  13  28  14  29  14  30  14  31  14
M  ISO  5  32   6  34  14  35  14  36  14  37   9
M  END
>  <minimizedAffinity>  (1) 
-5.23671675

>  <minimizedRMSD>  (1) 
1.39907992

$$$$
