
     RDKit          3D

 46 48  0  0  0  0  0  0  0  0999 V2000
   47.1642   34.1684   43.0817 N   0  0  0  0  0  0  0  0  0  0  0  0
   46.6505   35.3599   42.5139 C   0  0  0  0  0  0  0  0  0  0  0  0
   45.1764   35.5767   42.7299 C   0  0  0  0  0  0  0  0  0  0  0  0
   44.6456   35.0453   44.0418 C   0  0  0  0  0  0  0  0  0  0  0  0
   45.7609   34.4852   44.8964 C   0  0  0  0  0  0  0  0  0  0  0  0
   46.4181   33.4068   43.9614 C   0  0  2  0  0  0  0  0  0  0  0  0
   48.1511   33.5060   42.2659 C   0  0  0  0  0  0  0  0  0  0  0  0
   47.4662   32.6572   41.2634 C   0  0  0  0  0  0  0  0  0  0  0  0
   49.3436   32.2776   38.0317 C   0  0  0  0  0  0  0  0  0  0  0  0
   48.8258   32.0227   39.3152 C   0  0  0  0  0  0  0  0  0  0  0  0
   48.0054   32.9385   39.9096 C   0  0  0  0  0  0  0  0  0  0  0  0
   47.7282   34.0572   39.2275 N   0  0  0  0  0  0  0  0  0  0  0  0
   48.2212   34.3027   38.0024 C   0  0  0  0  0  0  0  0  0  0  0  0
   49.0293   33.4250   37.3905 N   0  0  0  0  0  0  0  0  0  0  0  0
   47.2082   32.7132   44.8632 O   0  0  0  0  0  0  0  0  0  0  0  0
   46.0464   30.5416   43.8722 O   0  0  0  0  0  0  0  0  0  0  0  0
   46.6592   31.1393   45.1349 P   0  0  2  0  0  0  0  0  0  0  0  0
   45.3924   31.2569   46.2638 O   0  0  0  0  0  0  0  0  0  0  0  0
   47.8459   30.1527   45.7739 O   0  0  0  0  0  0  0  0  0  0  0  0
   47.7636   28.8942   45.2166 C   0  0  0  0  0  0  0  0  0  0  0  0
   47.1472   36.2166   43.0524 H   0  0  0  0  0  0  0  0  0  0  0  0
   46.8565   35.5264   41.4552 H   0  0  0  0  0  0  0  0  0  0  0  0
   44.9379   36.6558   42.5949 H   0  0  0  0  0  0  0  0  0  0  0  0
   44.6583   35.0458   41.8943 H   0  0  0  0  0  0  0  0  0  0  0  0
   44.1696   35.9082   44.5883 H   0  0  0  0  0  0  0  0  0  0  0  0
   43.8766   34.2861   43.9073 H   0  0  0  0  0  0  0  0  0  0  0  0
   46.5289   35.2238   45.1376 H   0  0  0  0  0  0  0  0  0  0  0  0
   45.3103   33.9613   45.7572 H   0  0  0  0  0  0  0  0  0  0  0  0
   45.5609   32.8251   43.5661 H   0  0  0  0  0  0  0  0  0  0  0  0
   48.8634   34.2405   41.8492 H   0  0  0  0  0  0  0  0  0  0  0  0
   48.7330   32.8537   42.9776 H   0  0  0  0  0  0  0  0  0  0  0  0
   47.5554   31.5868   41.4945 H   0  0  0  0  0  0  0  0  0  0  0  0
   46.3562   32.8491   41.2238 H   0  0  0  0  0  0  0  0  0  0  0  0
   49.9904   31.4689   37.6578 H   0  0  0  0  0  0  0  0  0  0  0  0
   49.0634   31.1088   39.8507 H   0  0  0  0  0  0  0  0  0  0  0  0
   48.0017   35.2131   37.4355 H   0  0  0  0  0  0  0  0  0  0  0  0
   44.5895   31.6697   45.8793 H   0  0  0  0  0  0  0  0  0  0  0  0
   48.6322   28.3067   45.5291 H   0  0  0  0  0  0  0  0  0  0  0  0
   47.9002   29.0397   44.1046 H   0  0  0  0  0  0  0  0  0  0  0  0
   46.4771   28.2036   45.4431 C   0  0  0  0  0  0  0  0  0  0  0  0
   45.4912   28.8070   46.1475 N   0  0  0  0  0  0  0  0  0  0  0  0
   44.4147   27.9909   46.2262 C   0  0  0  0  0  0  0  0  0  0  0  0
   43.5014   28.2884   46.7562 H   0  0  0  0  0  0  0  0  0  0  0  0
   44.7495   26.8606   45.5538 N   0  0  0  0  0  0  0  0  0  0  0  0
   44.0962   26.0527   45.4552 H   0  0  0  0  0  0  0  0  0  0  0  0
   45.9710   27.0101   45.1010 N   0  0  0  0  0  0  0  0  0  0  0  0
  1  6  1  0
  2  3  1  0
  2  1  1  0
  3  4  1  0
  4  5  1  0
  6 15  1  0
  6  5  1  0
  7  1  1  0
  8  7  1  0
  9 10  2  0
 10 11  1  0
 11  8  1  0
 12 11  2  0
 13 12  1  0
 14 13  2  0
 14  9  1  0
 17 15  1  6
 17 16  2  0
 17 19  1  0
 17 18  1  0
 20 19  1  0
  2 21  1  0
  2 22  1  0
  3 23  1  0
  3 24  1  0
  4 25  1  0
  4 26  1  0
  5 27  1  0
  5 28  1  0
  6 29  1  6
  7 30  1  0
  7 31  1  0
  8 32  1  0
  8 33  1  0
  9 34  1  0
 10 35  1  0
 13 36  1  0
 18 37  1  0
 20 38  1  0
 20 39  1  0
 40 41  1  0
 41 42  2  0
 42 43  1  0
 42 44  1  0
 44 45  1  0
 44 46  1  0
 46 40  2  0
 20 40  1  0
M  ISO  8  21  13  22  13  23  13  24  13  25  13  26  13  27  13  28  13
M  ISO  8  29  13  30   8  31   8  32   8  33   8  34  14  35  14  36  14
M  ISO  5  37   3  38   8  39   8  43  14  45   9
M  END
>  <DihAtoms>  (1) 
18,19,39,40

>  <DihDeg>  (1) 
-89.89627101187736

$$$$
