
     RDKit          3D

 36 38  0  0  0  0  0  0  0  0999 V2000
   46.8097   32.6809   46.0918 C   0  0  0  0  0  0  0  0  0  0  0  0
   46.2066   31.9157   47.1798 C   0  0  0  0  0  0  0  0  0  0  0  0
   45.4845   32.3676   48.2653 C   0  0  0  0  0  0  0  0  0  0  0  0
   44.9630   31.5462   49.2194 C   0  0  0  0  0  0  0  0  0  0  0  0
   45.1640   30.1940   49.0983 C   0  0  0  0  0  0  0  0  0  0  0  0
   45.8819   29.7282   48.0215 C   0  0  0  0  0  0  0  0  0  0  0  0
   46.4062   30.5732   47.0611 C   0  0  0  0  0  0  0  0  0  0  0  0
   48.4448   29.4162   46.4711 C   0  0  0  0  0  0  0  0  0  0  0  0
   49.3152   29.6614   47.3857 O   0  0  0  0  0  0  0  0  0  0  0  0
   47.0919   29.7365   46.1273 N   0  0  0  0  0  0  0  0  0  0  0  0
   45.9790   32.5945   44.8376 C   0  0  0  0  0  0  0  0  0  0  0  0
   44.5775   35.9803   44.7982 C   0  0  0  0  0  0  0  0  0  0  0  0
   45.0063   36.4768   43.5453 C   0  0  0  0  0  0  0  0  0  0  0  0
   45.7688   35.6145   42.7614 C   0  0  0  0  0  0  0  0  0  0  0  0
   46.0609   34.3850   43.2048 N   0  0  0  0  0  0  0  0  0  0  0  0
   45.6220   33.9656   44.4136 C   0  0  0  0  0  0  0  0  0  0  0  0
   44.9037   34.7264   45.1949 N   0  0  0  0  0  0  0  0  0  0  0  0
   47.8615   32.3231   45.8866 H   0  0  0  0  0  0  0  0  0  0  0  0
   46.9297   33.7229   46.4501 H   0  0  0  0  0  0  0  0  0  0  0  0
   45.3674   33.4636   48.2896 H   0  0  0  0  0  0  0  0  0  0  0  0
   44.4207   32.0312   50.0135 H   0  0  0  0  0  0  0  0  0  0  0  0
   45.9370   28.6318   48.0942 H   0  0  0  0  0  0  0  0  0  0  0  0
   49.1416   28.7795   45.9232 H   0  0  0  0  0  0  0  0  0  0  0  0
   46.8088   29.3106   45.2456 H   0  0  0  0  0  0  0  0  0  0  0  0
   45.0256   32.0823   45.0842 H   0  0  0  0  0  0  0  0  0  0  0  0
   46.5021   32.0223   44.0468 H   0  0  0  0  0  0  0  0  0  0  0  0
   43.9830   36.6345   45.4246 H   0  0  0  0  0  0  0  0  0  0  0  0
   44.7338   37.4786   43.2517 H   0  0  0  0  0  0  0  0  0  0  0  0
   46.1152   35.9766   41.7817 H   0  0  0  0  0  0  0  0  0  0  0  0
   44.5629   29.3909   50.1762 C   0  0  0  0  0  0  0  0  0  0  0  0
   44.3151   28.1188   50.4190 N   0  0  0  0  0  0  0  0  0  0  0  0
   43.7242   28.0781   51.6388 C   0  0  0  0  0  0  0  0  0  0  0  0
   43.3621   27.2358   52.2111 H   0  0  0  0  0  0  0  0  0  0  0  0
   43.6162   29.3281   52.1307 N   0  0  0  0  0  0  0  0  0  0  0  0
   43.1990   29.6184   53.0603 H   0  0  0  0  0  0  0  0  0  0  0  0
   44.1404   30.1507   51.2171 N   0  0  0  0  0  0  0  0  0  0  0  0
  1  2  1  0
  2  3  2  0
  3  4  1  0
  5  4  2  0
  6  5  1  0
  7  2  1  0
  7  6  2  0
  8  9  2  0
 10  8  1  0
 10  7  1  0
 11  1  1  0
 12 17  2  0
 13 12  1  0
 14 15  1  0
 14 13  2  0
 15 16  2  0
 16 11  1  0
 16 17  1  0
  1 18  1  0
  1 19  1  0
  3 20  1  0
  4 21  1  0
  6 22  1  0
  8 23  1  0
 10 24  1  0
 11 25  1  0
 11 26  1  0
 12 27  1  0
 13 28  1  0
 14 29  1  0
 30 31  1  0
 31 32  2  0
 32 33  1  0
 32 34  1  0
 34 35  1  0
 34 36  1  0
 36 30  2  0
  5 30  1  0
M  ISO  8  18   8  19   8  20  14  21  14  22  14  23   6  25   8  26   8
M  ISO  5  27  14  28  14  29  14  33  14  35   9
M  END
>  <DihAtoms>  (1) 
3,4,29,30

>  <DihDeg>  (1) 
78.31446035491368

$$$$
