
     RDKit          3D

 43 46  0  0  0  0  0  0  0  0999 V2000
   42.8257   34.4910   38.7799 C   0  0  1  0  0  0  0  0  0  0  0  0
   42.9495   35.1690   40.1346 C   0  0  1  0  0  0  0  0  0  0  0  0
   41.6533   35.3798   40.6423 O   0  0  0  0  0  0  0  0  0  0  0  0
   40.7287   35.6993   39.6427 C   0  0  0  0  0  0  0  0  0  0  0  0
   40.4471   34.5170   38.7356 C   0  0  2  0  0  0  0  0  0  0  0  0
   41.6719   33.5490   38.8873 C   0  0  1  0  0  0  0  0  0  0  0  0
   42.6058   35.4411   37.7697 O   0  0  0  0  0  0  0  0  0  0  0  0
   40.4638   34.9269   37.4132 O   0  0  0  0  0  0  0  0  0  0  0  0
   43.4873   34.1913   40.9923 O   0  0  0  0  0  0  0  0  0  0  0  0
   44.5982   34.3393   41.7243 C   0  0  0  0  0  0  0  0  0  0  0  0
   45.8551   34.4488   41.1119 C   0  0  0  0  0  0  0  0  0  0  0  0
   46.9744   34.6020   41.9096 C   0  0  0  0  0  0  0  0  0  0  0  0
   46.8214   34.6432   43.2874 N   0  0  0  0  0  0  0  0  0  0  0  0
   45.5930   34.5335   43.8376 C   0  0  0  0  0  0  0  0  0  0  0  0
   44.4890   34.3824   43.0608 N   0  0  0  0  0  0  0  0  0  0  0  0
   48.3508   34.6971   41.3225 C   0  0  0  0  0  0  0  0  0  0  0  0
   49.0729   36.0315   41.4962 C   0  0  0  0  0  0  0  0  0  0  0  0
   49.5011   34.7166   42.1715 C   0  0  0  0  0  0  0  0  0  0  0  0
   41.5573   32.6025   37.9401 O   0  0  0  0  0  0  0  0  0  0  0  0
   40.9456   31.4119   37.9520 C   0  0  0  0  0  0  0  0  0  0  0  0
   39.6743   31.2828   37.5787 O   0  0  0  0  0  0  0  0  0  0  0  0
   43.7636   33.9278   38.6049 H   0  0  0  0  0  0  0  0  0  0  0  0
   43.5270   36.1074   40.1019 H   0  0  0  0  0  0  0  0  0  0  0  0
   39.7934   35.9271   40.1868 H   0  0  0  0  0  0  0  0  0  0  0  0
   41.0170   36.6156   39.0918 H   0  0  0  0  0  0  0  0  0  0  0  0
   39.5243   33.9696   39.0107 H   0  0  0  0  0  0  0  0  0  0  0  0
   41.4585   33.2909   39.9705 H   0  0  0  0  0  0  0  0  0  0  0  0
   43.1142   35.2434   36.9370 H   0  0  0  0  0  0  0  0  0  0  0  0
   40.7511   34.2596   36.7662 H   0  0  0  0  0  0  0  0  0  0  0  0
   45.9672   34.4169   40.0553 H   0  0  0  0  0  0  0  0  0  0  0  0
   45.4525   34.5629   44.9164 H   0  0  0  0  0  0  0  0  0  0  0  0
   48.3869   34.2326   40.3234 H   0  0  0  0  0  0  0  0  0  0  0  0
   48.5542   36.7859   42.1025 H   0  0  0  0  0  0  0  0  0  0  0  0
   49.6431   36.3324   40.6026 H   0  0  0  0  0  0  0  0  0  0  0  0
   50.4561   34.3237   41.8199 H   0  0  0  0  0  0  0  0  0  0  0  0
   49.4246   34.7804   43.2876 H   0  0  0  0  0  0  0  0  0  0  0  0
   41.4074   30.0207   38.3226 C   0  0  0  0  0  0  0  0  0  0  0  0
   42.2093   29.3091   37.5209 N   0  0  0  0  0  0  0  0  0  0  0  0
   42.4760   28.1148   38.0879 C   0  0  0  0  0  0  0  0  0  0  0  0
   43.0950   27.3798   37.6306 H   0  0  0  0  0  0  0  0  0  0  0  0
   41.8288   28.0878   39.2583 N   0  0  0  0  0  0  0  0  0  0  0  0
   41.8087   27.3205   39.9620 H   0  0  0  0  0  0  0  0  0  0  0  0
   41.1965   29.2286   39.3859 N   0  0  0  0  0  0  0  0  0  0  0  0
  1  6  1  0
  1  2  1  0
  2  3  1  0
  2  9  1  0
  4  3  1  0
  5  6  1  0
  5  4  1  0
  7  1  1  0
  8  5  1  0
  9 10  1  0
 10 15  1  0
 11 10  2  0
 11 12  1  0
 12 13  2  0
 13 14  1  0
 15 14  2  0
 16 17  1  0
 16 12  1  0
 16 18  1  0
 17 18  1  0
 19 20  1  0
 19  6  1  0
 21 20  2  0
  1 22  1  6
  2 23  1  6
  4 24  1  0
  4 25  1  0
  5 26  1  1
  6 27  1  1
  7 28  1  0
  8 29  1  0
 11 30  1  0
 14 31  1  0
 16 32  1  0
 17 33  1  0
 17 34  1  0
 18 35  1  0
 18 36  1  0
 37 38  1  0
 38 39  2  0
 39 40  1  0
 39 41  1  0
 41 42  1  0
 41 43  1  0
 43 37  2  0
 20 37  1  0
M  ISO  8  22  13  23  13  24  13  25  13  26  13  27  13  28   3  29   3
M  ISO  8  30  14  31  14  32  13  33  13  34  13  35  13  36  13  40  14
M  ISO  1  42   9
M  END
>  <DihAtoms>  (1) 
18,19,36,37

>  <DihDeg>  (1) 
-179.74206069162582

$$$$
