
     RDKit          3D

 24 25  0  0  0  0  0  0  0  0999 V2000
   46.1332   35.2770   42.6979 C   0  0  0  0  0  0  0  0  0  0  0  0
   46.6913   34.1810   43.3405 C   0  0  0  0  0  0  0  0  0  0  0  0
   46.2034   33.8432   44.6087 C   0  0  0  0  0  0  0  0  0  0  0  0
   45.2117   34.6036   45.1438 N   0  0  0  0  0  0  0  0  0  0  0  0
   44.6970   35.6547   44.4951 C   0  0  0  0  0  0  0  0  0  0  0  0
   45.1598   35.9768   43.2894 N   0  0  0  0  0  0  0  0  0  0  0  0
   47.7042   33.4753   42.6956 O   0  0  0  0  0  0  0  0  0  0  0  0
   49.5473   35.3588   42.7886 O   0  0  0  0  0  0  0  0  0  0  0  0
   48.9716   34.3029   41.9067 P   0  0  1  0  0  0  0  0  0  0  0  0
   50.2238   33.2501   41.5045 O   0  0  0  0  0  0  0  0  0  0  0  0
   48.4119   35.0250   40.5064 O   0  0  0  0  0  0  0  0  0  0  0  0
   48.0511   34.4111   39.3630 C   0  0  0  0  0  0  0  0  0  0  0  0
   46.9606   33.7295   39.5097 O   0  0  0  0  0  0  0  0  0  0  0  0
   46.4816   35.5600   41.7338 H   0  0  0  0  0  0  0  0  0  0  0  0
   46.6484   32.9824   45.1021 H   0  0  0  0  0  0  0  0  0  0  0  0
   43.9082   36.1710   45.0459 H   0  0  0  0  0  0  0  0  0  0  0  0
   50.7841   33.7054   40.8256 H   0  0  0  0  0  0  0  0  0  0  0  0
   48.2663   34.0998   37.9531 C   0  0  0  0  0  0  0  0  0  0  0  0
   47.8674   34.3545   36.8090 N   0  0  0  0  0  0  0  0  0  0  0  0
   48.5000   33.7298   35.8116 C   0  0  0  0  0  0  0  0  0  0  0  0
   49.0333   33.2089   35.0371 H   0  0  0  0  0  0  0  0  0  0  0  0
   47.4689   34.6249   35.8758 N   0  0  0  0  0  0  0  0  0  0  0  0
   47.0169   34.9368   34.8819 H   0  0  0  0  0  0  0  0  0  0  0  0
   47.3939   34.7904   37.1569 N   0  0  0  0  0  0  0  0  0  0  0  0
  1  6  2  0
  1  2  1  0
  2  3  2  0
  3  4  1  0
  5  4  2  0
  6  5  1  0
  7  2  1  0
  9  7  1  1
  9  8  2  0
 10  9  1  0
 11  9  1  0
 12 13  2  0
 12 11  1  0
  1 14  1  0
  3 15  1  0
  5 16  1  0
 10 17  1  0
 18 19  1  0
 19 20  2  0
 20 21  1  0
 20 22  1  0
 22 23  1  0
 22 24  1  0
 24 18  2  0
 12 18  1  0
M  ISO  6  14  14  15  14  16  14  17   3  21  14  23   9
M  END
>  <DihAtoms>  (1) 
12,11,17,18

>  <DihDeg>  (1) 
179.81250889321018

$$$$
