
     RDKit          3D

 24 25  0  0  0  0  0  0  0  0999 V2000
   45.6540   30.6360   47.6940 O   0  0  0  0  0  0  0  0  0  0  0  0
   45.9680   31.9850   48.3910 P   0  0  2  0  0  0  0  0  0  0  0  0
   45.3540   31.8260   49.9490 O   0  0  0  0  0  0  0  0  0  0  0  0
   45.1450   33.1990   47.5560 O   0  0  0  0  0  0  0  0  0  0  0  0
   46.9990   33.2240   44.4280 C   0  0  0  0  0  0  0  0  0  0  0  0
   46.5610   32.8720   45.7230 C   0  0  0  0  0  0  0  0  0  0  0  0
   45.5300   33.5820   46.2900 C   0  0  0  0  0  0  0  0  0  0  0  0
   44.9750   34.5940   45.5770 N   0  0  0  0  0  0  0  0  0  0  0  0
   45.3970   34.9190   44.3510 C   0  0  0  0  0  0  0  0  0  0  0  0
   46.4080   34.2400   43.7690 N   0  0  0  0  0  0  0  0  0  0  0  0
   47.6040   32.2280   48.3770 O   0  0  0  0  0  0  0  0  0  0  0  0
   48.6360   31.5930   48.9640 C   0  0  0  0  0  0  0  0  0  0  0  0
   49.5870   32.4260   49.3390 O   0  0  0  0  0  0  0  0  0  0  0  0
   49.2080   30.2970   49.3950 C   0  0  0  0  0  0  0  0  0  0  0  0
   49.8870   30.1160   50.5050 N   0  0  0  0  0  0  0  0  0  0  0  0
   50.2790   28.8040   50.5850 C   0  0  0  0  0  0  0  0  0  0  0  0
   49.8260   28.1770   49.4960 N   0  0  0  0  0  0  0  0  0  0  0  0
   49.1940   29.0690   48.7990 N   0  0  0  0  0  0  0  0  0  0  0  0
   46.0704   32.0115   50.6066 H   0  0  0  0  0  0  0  0  0  0  0  0
   47.8232   32.6686   43.9566 H   0  0  0  0  0  0  0  0  0  0  0  0
   47.0367   32.0438   46.2688 H   0  0  0  0  0  0  0  0  0  0  0  0
   44.9157   35.7478   43.8112 H   0  0  0  0  0  0  0  0  0  0  0  0
   50.8619   28.3497   51.3998 H   0  0  0  0  0  0  0  0  0  0  0  0
   49.9534   27.1831   49.2576 H   0  0  0  0  0  0  0  0  0  0  0  0
  2  1  2  0
  2  3  1  0
  4  2  1  0
  5  6  2  0
  6  7  1  0
  7  4  1  0
  8  7  2  0
  9  8  1  0
 10  9  2  0
 10  5  1  0
 11  2  1  0
 11 12  1  0
 12 13  2  0
 12 14  1  0
 14 15  1  0
 15 16  2  0
 17 16  1  0
 18 14  2  0
 18 17  1  0
  3 19  1  0
  5 20  1  0
  6 21  1  0
  9 22  1  0
 16 23  1  0
 17 24  1  0
M  ISO  6  19   3  20  14  21  14  22  14  23  14  24   9
M  END
>  <minimizedAffinity>  (1) 
-4.80887651

>  <minimizedRMSD>  (1) 
0.908108413

$$$$
