
     RDKit          3D

 41 43  0  0  0  0  0  0  0  0999 V2000
   46.6624   34.9064   42.0386 C   0  0  0  0  0  0  0  0  0  0  0  0
   45.1885   34.9042   41.7995 C   0  0  0  0  0  0  0  0  0  0  0  0
   44.3154   35.5399   42.7266 C   0  0  0  0  0  0  0  0  0  0  0  0
   42.6563   35.2701   42.0090 S   0  0  0  0  0  0  0  0  0  0  0  0
   43.4155   34.3259   40.5464 C   0  0  0  0  0  0  0  0  0  0  0  0
   44.5289   34.3807   40.8161 N   0  0  0  0  0  0  0  0  0  0  0  0
   42.6535   33.7854   39.5180 O   0  0  0  0  0  0  0  0  0  0  0  0
   40.6864   34.1214   37.7648 O   0  0  0  0  0  0  0  0  0  0  0  0
   41.7371   34.8714   38.5735 P   0  0  0  0  0  0  0  0  0  0  0  0
   40.9544   35.9600   39.6222 O   0  0  0  0  0  0  0  0  0  0  0  0
   42.7603   35.7587   37.5697 O   0  0  0  0  0  0  0  0  0  0  0  0
   47.4634   34.5782   40.8187 C   0  0  0  0  0  0  0  0  0  0  0  0
   48.7105   33.8396   41.1260 C   0  0  0  0  0  0  0  0  0  0  0  0
   49.0315   32.7846   40.2937 C   0  0  0  0  0  0  0  0  0  0  0  0
   50.1687   32.0290   40.4874 C   0  0  0  0  0  0  0  0  0  0  0  0
   50.9675   32.3904   41.5637 N   0  0  0  0  0  0  0  0  0  0  0  0
   50.6175   33.4315   42.3562 C   0  0  0  0  0  0  0  0  0  0  0  0
   49.5094   34.1315   42.1291 N   0  0  0  0  0  0  0  0  0  0  0  0
   47.9572   32.3596   38.9106 S   0  0  0  0  0  0  0  0  0  0  0  0
   48.6200   32.9986   37.3725 C   0  0  0  0  0  0  0  0  0  0  0  0
   48.3008   34.4741   37.2868 C   0  0  0  0  0  0  0  0  0  0  0  0
   46.9575   35.8983   42.4453 H   0  0  0  0  0  0  0  0  0  0  0  0
   46.8620   34.1495   42.8464 H   0  0  0  0  0  0  0  0  0  0  0  0
   44.6303   36.0665   43.6602 H   0  0  0  0  0  0  0  0  0  0  0  0
   40.5243   35.4191   40.3113 H   0  0  0  0  0  0  0  0  0  0  0  0
   43.1075   35.1814   36.8260 H   0  0  0  0  0  0  0  0  0  0  0  0
   47.7799   35.5544   40.3585 H   0  0  0  0  0  0  0  0  0  0  0  0
   46.8164   34.0403   40.1292 H   0  0  0  0  0  0  0  0  0  0  0  0
   50.4412   31.2101   39.8616 H   0  0  0  0  0  0  0  0  0  0  0  0
   51.2822   33.6550   43.1704 H   0  0  0  0  0  0  0  0  0  0  0  0
   49.7074   32.8513   37.2417 H   0  0  0  0  0  0  0  0  0  0  0  0
   48.1189   32.4519   36.5356 H   0  0  0  0  0  0  0  0  0  0  0  0
   47.2218   34.6720   37.2249 H   0  0  0  0  0  0  0  0  0  0  0  0
   48.8278   34.9989   38.1014 H   0  0  0  0  0  0  0  0  0  0  0  0
   48.8688   34.9682   35.9936 C   0  0  0  0  0  0  0  0  0  0  0  0
   49.3435   36.1797   35.6538 N   0  0  0  0  0  0  0  0  0  0  0  0
   49.7573   36.1670   34.3658 C   0  0  0  0  0  0  0  0  0  0  0  0
   50.1885   36.9661   33.7774 H   0  0  0  0  0  0  0  0  0  0  0  0
   49.5241   34.9132   33.9218 N   0  0  0  0  0  0  0  0  0  0  0  0
   49.7354   34.5670   32.9492 H   0  0  0  0  0  0  0  0  0  0  0  0
   48.9867   34.1781   34.8971 N   0  0  0  0  0  0  0  0  0  0  0  0
  2  1  1  0
  2  3  2  0
  4  3  1  0
  5  6  2  0
  5  4  1  0
  6  2  1  0
  7  5  1  0
  8  9  2  0
  9  7  1  0
  9 10  1  0
 11  9  1  0
 12 13  1  0
 12  1  1  0
 13 18  2  0
 14 15  2  0
 14 13  1  0
 15 16  1  0
 16 17  2  0
 18 17  1  0
 19 14  1  0
 20 19  1  0
 21 20  1  0
  1 22  1  0
  1 23  1  0
  3 24  1  0
 10 25  1  0
 11 26  1  0
 12 27  1  0
 12 28  1  0
 15 29  1  0
 17 30  1  0
 20 31  1  0
 20 32  1  0
 21 33  1  0
 21 34  1  0
 35 36  1  0
 36 37  2  0
 37 38  1  0
 37 39  1  0
 39 40  1  0
 39 41  1  0
 41 35  2  0
 21 35  1  0
M  ISO  8  22   8  23   8  24  14  25   3  26   3  27   8  28   8  29  14
M  ISO  7  30  14  31   8  32   8  33   8  34   8  38  14  40   9
M  END
>  <DihAtoms>  (1) 
19,20,34,35

>  <DihDeg>  (1) 
0.00015441333695549657

$$$$
