
     RDKit          3D

 45 47  0  0  1  0  0  0  0  0999 V2000
   47.8530   32.9010   41.8070 C   0  0  1  0  0  0  0  0  0  0  0  0
   47.5290   32.1650   40.5870 C   0  0  0  0  0  0  0  0  0  0  0  0
   48.5480   32.6040   39.5390 C   0  0  0  0  0  0  0  0  0  0  0  0
   48.2110   34.0480   39.1870 C   0  0  0  0  0  0  0  0  0  0  0  0
   48.1430   34.9670   40.3690 C   0  0  0  0  0  0  0  0  0  0  0  0
   47.6560   34.4110   41.6380 C   0  0  1  0  0  0  0  0  0  0  0  0
   45.5000   31.0650   44.1250 C   0  0  0  0  0  0  0  0  0  0  0  0
   46.1730   31.5340   42.9920 C   0  0  0  0  0  0  0  0  0  0  0  0
   47.2160   32.4650   43.0310 C   0  0  0  0  0  0  0  0  0  0  0  0
   47.5510   32.9010   44.2460 N   0  0  0  0  0  0  0  0  0  0  0  0
   46.9100   32.4580   45.3580 C   0  0  0  0  0  0  0  0  0  0  0  0
   45.9180   31.5730   45.3230 N   0  0  0  0  0  0  0  0  0  0  0  0
   46.2790   34.8120   41.9310 C   0  0  0  0  0  0  0  0  0  0  0  0
   45.8520   35.5480   43.0450 C   0  0  0  0  0  0  0  0  0  0  0  0
   44.4830   35.8270   43.1030 C   0  0  0  0  0  0  0  0  0  0  0  0
   43.6820   35.3640   42.0820 C   0  0  0  0  0  0  0  0  0  0  0  0
   44.1220   34.6420   40.9950 C   0  0  0  0  0  0  0  0  0  0  0  0
   45.4570   34.3710   40.9420 N   0  0  0  0  0  0  0  0  0  0  0  0
   43.1940   34.1950   39.9480 C   0  0  0  0  0  0  0  0  0  0  0  0
   42.6960   35.0660   39.1870 O   0  0  0  0  0  0  0  0  0  0  0  0
   42.8580   32.8190   39.7910 N   0  0  0  0  0  0  0  0  0  0  0  0
   41.7690   32.2210   40.9900 S   0  0  0  0  0  0  0  0  0  0  0  0
   42.4990   31.6400   42.1630 O   0  0  0  0  0  0  0  0  0  0  0  0
   40.7680   33.2530   41.4280 O   0  0  0  0  0  0  0  0  0  0  0  0
   40.8690   30.9880   40.2410 O   0  0  0  0  0  0  0  0  0  0  0  0
   48.9174   32.6579   41.9408 H   0  0  0  0  0  0  0  0  0  0  0  0
   47.6065   31.0820   40.7635 H   0  0  0  0  0  0  0  0  0  0  0  0
   46.5005   32.3720   40.2562 H   0  0  0  0  0  0  0  0  0  0  0  0
   49.5666   32.5406   39.9493 H   0  0  0  0  0  0  0  0  0  0  0  0
   48.5080   31.9578   38.6497 H   0  0  0  0  0  0  0  0  0  0  0  0
   48.9831   34.4252   38.5003 H   0  0  0  0  0  0  0  0  0  0  0  0
   47.2081   34.0382   38.7352 H   0  0  0  0  0  0  0  0  0  0  0  0
   49.1588   35.3501   40.5463 H   0  0  0  0  0  0  0  0  0  0  0  0
   47.3942   35.7232   40.0909 H   0  0  0  0  0  0  0  0  0  0  0  0
   48.3124   34.8659   42.3944 H   0  0  0  0  0  0  0  0  0  0  0  0
   44.6833   30.3313   44.0559 H   0  0  0  0  0  0  0  0  0  0  0  0
   45.8629   31.1469   42.0102 H   0  0  0  0  0  0  0  0  0  0  0  0
   47.2267   32.8503   46.3356 H   0  0  0  0  0  0  0  0  0  0  0  0
   46.5504   35.8851   43.8251 H   0  0  0  0  0  0  0  0  0  0  0  0
   44.0576   36.3999   43.9401 H   0  0  0  0  0  0  0  0  0  0  0  0
   42.6067   35.5887   42.1397 H   0  0  0  0  0  0  0  0  0  0  0  0
   43.2314   32.2336   39.0303 H   0  0  0  0  0  0  0  0  0  0  0  0
   42.0882   31.9670   43.0023 H   0  0  0  0  0  0  0  0  0  0  0  0
   40.7376   33.2843   42.4170 H   0  0  0  0  0  0  0  0  0  0  0  0
   40.4519   30.4166   40.9336 H   0  0  0  0  0  0  0  0  0  0  0  0
  1  9  1  0
  2  1  1  0
  3  2  1  0
  4  3  1  0
  4  5  1  0
  5  6  1  0
  6  1  1  0
  6 13  1  0
  7 12  2  0
  8  9  2  0
  8  7  1  0
  9 10  1  0
 10 11  2  0
 12 11  1  0
 13 14  2  0
 14 15  1  0
 16 15  2  0
 17 16  1  0
 18 17  2  0
 18 13  1  0
 19 17  1  0
 20 19  2  0
 21 19  1  0
 21 22  1  0
 22 24  1  0
 22 23  1  0
 25 22  1  0
  1 26  1  1
  2 27  1  0
  2 28  1  0
  3 29  1  0
  3 30  1  0
  4 31  1  0
  4 32  1  0
  5 33  1  0
  5 34  1  0
  6 35  1  1
  7 36  1  0
  8 37  1  0
 11 38  1  0
 14 39  1  0
 15 40  1  0
 16 41  1  0
 21 42  1  0
 23 43  1  0
 24 44  1  0
 25 45  1  0
M  ISO  8  26  13  27  13  28  13  29  13  30  13  31  13  32  13  33  13
M  ISO  8  34  13  35  13  36  14  37  14  38  14  39  14  40  14  41  14
M  ISO  3  43   3  44   3  45   3
M  END
>  <minimizedAffinity>  (1) 
-5.38340473

>  <minimizedRMSD>  (1) 
0.726127565

$$$$
