
     RDKit          3D

 37 38  0  0  0  0  0  0  0  0999 V2000
   43.5930   34.8650   40.7370 S   0  0  0  0  0  0  0  0  0  0  0  0
   44.9450   34.6010   41.8940 C   0  0  0  0  0  0  0  0  0  0  0  0
   46.2210   34.4630   41.3540 C   0  0  0  0  0  0  0  0  0  0  0  0
   47.2900   34.2590   42.2150 C   0  0  0  0  0  0  0  0  0  0  0  0
   47.0420   34.2020   43.5550 N   0  0  0  0  0  0  0  0  0  0  0  0
   45.8080   34.3380   44.0510 C   0  0  0  0  0  0  0  0  0  0  0  0
   44.7610   34.5370   43.2310 N   0  0  0  0  0  0  0  0  0  0  0  0
   45.6260   34.2650   45.5020 C   0  0  0  0  0  0  0  0  0  0  0  0
   44.5940   34.8270   45.9860 O   0  0  0  0  0  0  0  0  0  0  0  0
   46.6090   33.5770   46.2610 N   0  0  0  0  0  0  0  0  0  0  0  0
   46.1140   32.2220   47.1860 S   0  0  0  0  0  0  0  0  0  0  0  0
   45.7280   31.0400   46.3670 O   0  0  0  0  0  0  0  0  0  0  0  0
   44.9380   32.5560   48.0810 O   0  0  0  0  0  0  0  0  0  0  0  0
   47.4050   31.8090   48.2090 O   0  0  0  0  0  0  0  0  0  0  0  0
   42.0170   35.1120   41.5550 C   0  0  0  0  0  0  0  0  0  0  0  0
   41.1040   36.0240   40.8000 C   0  0  0  0  0  0  0  0  0  0  0  0
   41.8970   36.2400   37.8630 Cl  0  0  0  0  0  0  0  0  0  0  0  0
   40.5520   35.3020   38.4530 C   0  0  0  0  0  0  0  0  0  0  0  0
   40.2710   35.2690   39.8240 C   0  0  0  0  0  0  0  0  0  0  0  0
   39.1920   34.5040   40.2050 C   0  0  0  0  0  0  0  0  0  0  0  0
   38.3600   33.7690   39.3730 C   0  0  0  0  0  0  0  0  0  0  0  0
   38.6660   33.8230   38.0140 C   0  0  0  0  0  0  0  0  0  0  0  0
   37.6750   32.9260   36.8700 Cl  0  0  0  0  0  0  0  0  0  0  0  0
   39.7330   34.5710   37.5810 C   0  0  0  0  0  0  0  0  0  0  0  0
   46.3785   34.5147   40.2666 H   0  0  0  0  0  0  0  0  0  0  0  0
   48.3128   34.1460   41.8262 H   0  0  0  0  0  0  0  0  0  0  0  0
   47.5923   33.8837   46.2558 H   0  0  0  0  0  0  0  0  0  0  0  0
   45.4831   30.2900   46.9650 H   0  0  0  0  0  0  0  0  0  0  0  0
   45.2123   32.4781   49.0291 H   0  0  0  0  0  0  0  0  0  0  0  0
   47.1203   31.9001   49.1528 H   0  0  0  0  0  0  0  0  0  0  0  0
   41.5232   34.1355   41.6668 H   0  0  0  0  0  0  0  0  0  0  0  0
   42.2213   35.5824   42.5281 H   0  0  0  0  0  0  0  0  0  0  0  0
   40.4428   36.5392   41.5123 H   0  0  0  0  0  0  0  0  0  0  0  0
   41.7181   36.7485   40.2450 H   0  0  0  0  0  0  0  0  0  0  0  0
   38.9659   34.4721   41.2810 H   0  0  0  0  0  0  0  0  0  0  0  0
   37.5142   33.1820   39.7603 H   0  0  0  0  0  0  0  0  0  0  0  0
   39.9546   34.5978   36.5039 H   0  0  0  0  0  0  0  0  0  0  0  0
  1 15  1  0
  1  2  1  0
  2  7  1  0
  3  2  2  0
  3  4  1  0
  4  5  2  0
  5  6  1  0
  6  8  1  0
  7  6  2  0
  8  9  2  0
  8 10  1  0
 10 11  1  0
 11 13  1  0
 11 14  1  0
 12 11  1  0
 16 15  1  0
 17 18  1  0
 18 19  2  0
 19 20  1  0
 19 16  1  0
 21 20  2  0
 22 21  1  0
 23 22  1  0
 24 22  2  0
 24 18  1  0
  3 25  1  0
  4 26  1  0
 10 27  1  0
 12 28  1  0
 13 29  1  0
 14 30  1  0
 15 31  1  0
 15 32  1  0
 16 33  1  0
 16 34  1  0
 20 35  1  0
 21 36  1  0
 24 37  1  0
M  ISO  8  25  14  26  14  28   3  29   3  30   3  31   8  32   8  33   8
M  ISO  4  34   8  35  14  36  14  37  14
M  END
>  <minimizedAffinity>  (1) 
-6.82488441

>  <minimizedRMSD>  (1) 
0.594747484

$$$$
