
     RDKit          3D

 32 33  0  0  1  0  0  0  0  0999 V2000
   47.0420   32.7430   44.9520 C   0  0  2  0  0  0  0  0  0  0  0  0
   47.7940   32.4530   43.7190 C   0  0  0  0  0  0  0  0  0  0  0  0
   47.3340   31.2470   42.9720 C   0  0  0  0  0  0  0  0  0  0  0  0
   47.4590   30.0970   43.9500 C   0  0  0  0  0  0  0  0  0  0  0  0
   46.4910   30.2530   45.0720 C   0  0  0  0  0  0  0  0  0  0  0  0
   46.2810   31.6520   45.5770 C   0  0  0  0  0  0  0  0  0  0  0  0
   44.5580   35.4420   45.3570 C   0  0  0  0  0  0  0  0  0  0  0  0
   44.5570   36.0670   44.0950 C   0  0  0  0  0  0  0  0  0  0  0  0
   45.4220   35.5350   43.1190 C   0  0  0  0  0  0  0  0  0  0  0  0
   46.1940   34.4730   43.4410 N   0  0  0  0  0  0  0  0  0  0  0  0
   46.1630   33.9030   44.6660 C   0  0  0  0  0  0  0  0  0  0  0  0
   45.3460   34.3910   45.6150 N   0  0  0  0  0  0  0  0  0  0  0  0
   45.3410   31.7190   46.6650 N   0  0  0  0  0  0  0  0  0  0  0  0
   46.5060   31.8710   47.9520 S   0  0  0  0  0  0  0  0  0  0  0  0
   47.3420   30.6390   48.0180 O   0  0  0  0  0  0  0  0  0  0  0  0
   45.7040   31.9260   49.2500 O   0  0  0  0  0  0  0  0  0  0  0  0
   47.4470   33.2320   47.8100 O   0  0  0  0  0  0  0  0  0  0  0  0
   47.8039   32.9426   45.7199 H   0  0  0  0  0  0  0  0  0  0  0  0
   47.7047   33.3229   43.0517 H   0  0  0  0  0  0  0  0  0  0  0  0
   48.8289   32.2472   44.0300 H   0  0  0  0  0  0  0  0  0  0  0  0
   46.2887   31.3681   42.6517 H   0  0  0  0  0  0  0  0  0  0  0  0
   47.9288   31.0773   42.0624 H   0  0  0  0  0  0  0  0  0  0  0  0
   47.2541   29.1524   43.4249 H   0  0  0  0  0  0  0  0  0  0  0  0
   48.4793   30.0913   44.3610 H   0  0  0  0  0  0  0  0  0  0  0  0
   45.9604   29.3926   45.5058 H   0  0  0  0  0  0  0  0  0  0  0  0
   43.8969   35.8258   46.1480 H   0  0  0  0  0  0  0  0  0  0  0  0
   43.9104   36.9309   43.8813 H   0  0  0  0  0  0  0  0  0  0  0  0
   45.4686   35.9760   42.1123 H   0  0  0  0  0  0  0  0  0  0  0  0
   44.3116   31.6873   46.6785 H   0  0  0  0  0  0  0  0  0  0  0  0
   47.5039   30.4004   48.9651 H   0  0  0  0  0  0  0  0  0  0  0  0
   46.3223   31.8836   50.0220 H   0  0  0  0  0  0  0  0  0  0  0  0
   47.6794   33.5681   48.7117 H   0  0  0  0  0  0  0  0  0  0  0  0
  1  6  1  0
  2  1  1  0
  3  2  1  0
  3  4  1  0
  4  5  1  0
  5  6  2  0
  6 13  1  0
  7 12  2  0
  8  7  1  0
  9 10  1  0
  9  8  2  0
 10 11  2  0
 11  1  1  0
 11 12  1  0
 13 14  1  0
 14 15  1  0
 14 16  1  0
 17 14  1  0
  1 18  1  1
  2 19  1  0
  2 20  1  0
  3 21  1  0
  3 22  1  0
  4 23  1  0
  4 24  1  0
  5 25  1  0
  7 26  1  0
  8 27  1  0
  9 28  1  0
 13 29  1  0
 15 30  1  0
 16 31  1  0
 17 32  1  0
M  ISO  8  18  13  19  13  20  13  21  13  22  13  23  13  24  13  25  13
M  ISO  6  26  14  27  14  28  14  30   3  31   3  32   3
M  END
>  <minimizedAffinity>  (1) 
-5.01818562

>  <minimizedRMSD>  (1) 
3.18530059

$$$$
