
     RDKit          3D

 26 27  0  0  0  0  0  0  0  0999 V2000
   44.4730   35.9851   44.7763 C   0  0  0  0  0  0  0  0  0  0  0  0
   45.1088   35.9391   43.5057 C   0  0  0  0  0  0  0  0  0  0  0  0
   45.9852   34.8741   43.2647 C   0  0  0  0  0  0  0  0  0  0  0  0
   46.1886   33.9407   44.2423 N   0  0  0  0  0  0  0  0  0  0  0  0
   45.5659   34.0195   45.4372 C   0  0  0  0  0  0  0  0  0  0  0  0
   44.7073   35.0394   45.7090 N   0  0  0  0  0  0  0  0  0  0  0  0
   46.7076   34.7180   42.0130 C   0  0  0  0  0  0  0  0  0  0  0  0
   47.9154   35.3445   41.8960 C   0  0  0  0  0  0  0  0  0  0  0  0
   48.6722   35.2514   40.7444 C   0  0  0  0  0  0  0  0  0  0  0  0
   48.1729   34.5030   39.7065 C   0  0  0  0  0  0  0  0  0  0  0  0
   46.9679   33.8485   39.7582 C   0  0  0  0  0  0  0  0  0  0  0  0
   46.2861   34.0046   40.9557 C   0  0  0  0  0  0  0  0  0  0  0  0
   43.8037   36.7995   44.9585 H   0  0  0  0  0  0  0  0  0  0  0  0
   44.9652   36.6535   42.7308 H   0  0  0  0  0  0  0  0  0  0  0  0
   45.8112   33.2208   46.1252 H   0  0  0  0  0  0  0  0  0  0  0  0
   49.6319   35.7209   40.5880 H   0  0  0  0  0  0  0  0  0  0  0  0
   48.7443   34.4099   38.7863 H   0  0  0  0  0  0  0  0  0  0  0  0
   46.5563   33.2540   38.9529 H   0  0  0  0  0  0  0  0  0  0  0  0
   45.3149   33.4921   41.0306 H   0  0  0  0  0  0  0  0  0  0  0  0
   48.4150   36.1141   42.9810 N   0  0  0  0  0  0  0  0  0  0  0  0
   48.1864   37.1401   43.0577 H   0  0  0  0  0  0  0  0  0  0  0  0
   49.3924   35.8011   44.3474 S   0  0  0  0  0  0  0  0  0  0  0  0
   50.6124   36.7042   44.3669 O   0  0  0  0  0  0  0  0  0  0  0  0
   49.8541   34.3753   44.4304 O   0  0  0  0  0  0  0  0  0  0  0  0
   48.5412   36.1048   45.7751 O   0  0  0  0  0  0  0  0  0  0  0  0
   47.8558   36.8306   45.6386 H   0  0  0  0  0  0  0  0  0  0  0  0
  1  6  2  0
  2  1  1  0
  3  2  2  0
  3  4  1  0
  4  5  2  0
  5  6  1  0
  7  3  1  0
  8  7  2  0
  9  8  1  0
 10 11  1  0
 10  9  2  0
 11 12  2  0
 12  7  1  0
  1 13  1  0
  2 14  1  0
  5 15  1  0
  9 16  1  0
 10 17  1  0
 11 18  1  0
 12 19  1  0
 20 21  1  0
 20 22  1  0
 22 23  2  0
 22 24  2  0
 22 25  1  0
 25 26  1  0
  8 20  1  0
M  ISO  8  13  14  14  14  15  14  16  14  17  14  18  14  19  14  21   5
M  ISO  1  26   3
M  END
>  <DihAtoms>  (1) 
6,7,19,20

>  <DihDeg>  (1) 
0.13065735422556451

$$$$
