
     RDKit          3D

 38 39  0  0  0  0  0  0  0  0999 V2000
   44.0750   33.8370   39.6130 O   0  0  0  0  0  0  0  0  0  0  0  0
   43.4300   34.4140   40.8620 P   0  0  1  0  0  0  0  0  0  0  0  0
   42.8540   33.1170   41.7950 O   0  0  0  0  0  0  0  0  0  0  0  0
   44.6060   35.2110   41.7780 O   0  0  0  0  0  0  0  0  0  0  0  0
   46.6830   34.3510   42.4710 C   0  0  0  0  0  0  0  0  0  0  0  0
   45.3820   34.6640   42.7920 C   0  0  0  0  0  0  0  0  0  0  0  0
   44.9500   34.4070   44.1080 C   0  0  0  0  0  0  0  0  0  0  0  0
   45.8570   33.8670   44.9570 N   0  0  0  0  0  0  0  0  0  0  0  0
   47.1060   33.5750   44.6190 C   0  0  0  0  0  0  0  0  0  0  0  0
   47.5230   33.8180   43.3710 N   0  0  0  0  0  0  0  0  0  0  0  0
   47.1960   34.5950   41.1160 C   0  0  0  0  0  0  0  0  0  0  0  0
   48.5220   35.2910   41.2050 C   0  0  0  0  0  0  0  0  0  0  0  0
   42.1160   35.3780   40.4610 O   0  0  0  0  0  0  0  0  0  0  0  0
   40.9130   34.7700   40.1100 C   0  0  0  0  0  0  0  0  0  0  0  0
   40.4410   35.0040   38.8280 C   0  0  0  0  0  0  0  0  0  0  0  0
   39.2560   34.4430   38.3890 C   0  0  0  0  0  0  0  0  0  0  0  0
   38.5590   33.6540   39.2400 N   0  0  0  0  0  0  0  0  0  0  0  0
   39.0210   33.4310   40.4760 C   0  0  0  0  0  0  0  0  0  0  0  0
   40.1590   33.9690   40.9010 N   0  0  0  0  0  0  0  0  0  0  0  0
   38.2590   32.5950   41.3400 N   0  0  0  0  0  0  0  0  0  0  0  0
   37.8820   30.9490   40.9950 S   0  0  0  0  0  0  0  0  0  0  0  0
   37.8510   30.7700   39.5030 O   0  0  0  0  0  0  0  0  0  0  0  0
   38.9520   30.0200   41.5000 O   0  0  0  0  0  0  0  0  0  0  0  0
   36.3880   30.5110   41.6110 O   0  0  0  0  0  0  0  0  0  0  0  0
   42.9502   33.3336   42.7562 H   0  0  0  0  0  0  0  0  0  0  0  0
   43.9235   34.6343   44.4313 H   0  0  0  0  0  0  0  0  0  0  0  0
   47.7929   33.1370   45.3581 H   0  0  0  0  0  0  0  0  0  0  0  0
   46.4858   35.2270   40.5626 H   0  0  0  0  0  0  0  0  0  0  0  0
   47.3178   33.6365   40.5903 H   0  0  0  0  0  0  0  0  0  0  0  0
   48.7916   35.4325   42.2620 H   0  0  0  0  0  0  0  0  0  0  0  0
   49.2907   34.6802   40.7091 H   0  0  0  0  0  0  0  0  0  0  0  0
   48.4559   36.2707   40.7091 H   0  0  0  0  0  0  0  0  0  0  0  0
   41.0191   35.6471   38.1481 H   0  0  0  0  0  0  0  0  0  0  0  0
   38.8876   34.6337   37.3702 H   0  0  0  0  0  0  0  0  0  0  0  0
   37.9127   32.9971   42.2228 H   0  0  0  0  0  0  0  0  0  0  0  0
   37.6861   29.8177   39.2882 H   0  0  0  0  0  0  0  0  0  0  0  0
   38.9501   30.0216   42.4900 H   0  0  0  0  0  0  0  0  0  0  0  0
   36.4231   30.5213   42.6003 H   0  0  0  0  0  0  0  0  0  0  0  0
  2  1  2  0
  2  4  1  0
  2  3  1  0
  4  6  1  0
  5  6  2  0
  5 10  1  0
  6  7  1  0
  7  8  2  0
  9  8  1  0
 10  9  2  0
 11 12  1  0
 11  5  1  0
 13  2  1  0
 14 13  1  0
 14 19  1  0
 15 14  2  0
 16 15  1  0
 16 17  2  0
 17 18  1  0
 18 19  2  0
 18 20  1  0
 21 20  1  0
 21 23  1  0
 21 24  1  0
 22 21  1  0
  3 25  1  0
  7 26  1  0
  9 27  1  0
 11 28  1  0
 11 29  1  0
 12 30  1  0
 12 31  1  0
 12 32  1  0
 15 33  1  0
 16 34  1  0
 20 35  1  0
 22 36  1  0
 23 37  1  0
 24 38  1  0
M  ISO  8  25   3  26  14  27  14  28   8  29   8  30   8  31   8  32   8
M  ISO  5  33  14  34  14  36   3  37   3  38   3
M  END
>  <minimizedAffinity>  (1) 
-6.32274294

>  <minimizedRMSD>  (1) 
0.923116565

$$$$
