
     RDKit          3D

 39 41  0  0  0  0  0  0  0  0999 V2000
   44.7490   32.8400   42.3180 C   0  0  0  0  0  0  0  0  0  0  0  0
   43.6470   33.6730   41.7300 C   0  0  0  0  0  0  0  0  0  0  0  0
   43.4930   35.0340   41.9320 C   0  0  0  0  0  0  0  0  0  0  0  0
   42.3800   35.4590   41.2450 C   0  0  0  0  0  0  0  0  0  0  0  0
   41.8960   34.3140   40.6420 C   0  0  0  0  0  0  0  0  0  0  0  0
   42.6640   33.3240   40.9590 O   0  0  0  0  0  0  0  0  0  0  0  0
   40.7030   34.2580   39.7890 C   0  0  0  0  0  0  0  0  0  0  0  0
   39.4820   33.9340   40.3150 C   0  0  0  0  0  0  0  0  0  0  0  0
   38.3160   33.8650   39.5590 C   0  0  0  0  0  0  0  0  0  0  0  0
   38.5170   34.1620   38.1950 C   0  0  0  0  0  0  0  0  0  0  0  0
   39.7260   34.4870   37.6550 C   0  0  0  0  0  0  0  0  0  0  0  0
   40.7880   34.5240   38.4790 N   0  0  0  0  0  0  0  0  0  0  0  0
   47.9750   34.4070   43.1290 C   0  0  0  0  0  0  0  0  0  0  0  0
   48.4890   34.7800   41.8910 C   0  0  0  0  0  0  0  0  0  0  0  0
   47.7150   34.4850   40.7940 C   0  0  0  0  0  0  0  0  0  0  0  0
   46.5180   33.8640   40.9220 N   0  0  0  0  0  0  0  0  0  0  0  0
   46.0610   33.5210   42.1540 C   0  0  0  0  0  0  0  0  0  0  0  0
   46.8070   33.8020   43.2560 N   0  0  0  0  0  0  0  0  0  0  0  0
   49.7300   35.4150   41.8370 N   0  0  0  0  0  0  0  0  0  0  0  0
   48.1860   34.8390   39.4980 N   0  0  0  0  0  0  0  0  0  0  0  0
   48.1150   33.7230   38.1850 S   0  0  0  0  0  0  0  0  0  0  0  0
   48.4620   34.4070   36.8710 O   0  0  0  0  0  0  0  0  0  0  0  0
   49.1250   32.6170   38.3560 O   0  0  0  0  0  0  0  0  0  0  0  0
   46.6030   32.9840   38.0780 O   0  0  0  0  0  0  0  0  0  0  0  0
   44.5532   32.6847   43.3892 H   0  0  0  0  0  0  0  0  0  0  0  0
   44.7822   31.8731   41.7945 H   0  0  0  0  0  0  0  0  0  0  0  0
   44.1519   35.6702   42.5412 H   0  0  0  0  0  0  0  0  0  0  0  0
   41.9690   36.4778   41.1885 H   0  0  0  0  0  0  0  0  0  0  0  0
   39.4190   33.7168   41.3915 H   0  0  0  0  0  0  0  0  0  0  0  0
   37.3349   33.6047   39.9830 H   0  0  0  0  0  0  0  0  0  0  0  0
   37.6447   34.1294   37.5257 H   0  0  0  0  0  0  0  0  0  0  0  0
   39.8290   34.7111   36.5830 H   0  0  0  0  0  0  0  0  0  0  0  0
   48.5616   34.6234   44.0340 H   0  0  0  0  0  0  0  0  0  0  0  0
   50.1248   35.6976   40.9286 H   0  0  0  0  0  0  0  0  0  0  0  0
   50.2515   35.6012   42.7055 H   0  0  0  0  0  0  0  0  0  0  0  0
   48.5765   35.7792   39.3416 H   0  0  0  0  0  0  0  0  0  0  0  0
   48.9020   35.2742   37.0565 H   0  0  0  0  0  0  0  0  0  0  0  0
   49.2747   32.4531   39.3208 H   0  0  0  0  0  0  0  0  0  0  0  0
   46.2539   32.8134   38.9886 H   0  0  0  0  0  0  0  0  0  0  0  0
  2  3  2  0
  2  1  1  0
  4  3  1  0
  5  6  1  0
  5  4  2  0
  6  2  1  0
  7  8  2  0
  7  5  1  0
  9  8  1  0
 10  9  2  0
 11 10  1  0
 11 12  2  0
 12  7  1  0
 13 18  2  0
 14 13  1  0
 15 16  1  0
 15 14  2  0
 16 17  2  0
 17  1  1  0
 17 18  1  0
 19 14  1  0
 20 15  1  0
 21 23  1  0
 21 20  1  0
 22 21  1  0
 24 21  1  0
  1 25  1  0
  1 26  1  0
  3 27  1  0
  4 28  1  0
  8 29  1  0
  9 30  1  0
 10 31  1  0
 11 32  1  0
 13 33  1  0
 19 34  1  0
 19 35  1  0
 20 36  1  0
 22 37  1  0
 23 38  1  0
 24 39  1  0
M  ISO  8  25   8  26   8  27  14  28  14  29  14  30  14  31  14  32  14
M  ISO  4  33  14  37   3  38   3  39   3
M  END
>  <minimizedAffinity>  (1) 
-5.84534121

>  <minimizedRMSD>  (1) 
3.52301311

$$$$
