
     RDKit          3D

 45 47  0  0  0  0  0  0  0  0999 V2000
   44.6140   35.3340   45.1620 C   0  0  0  0  0  0  0  0  0  0  0  0
   45.1320   35.4190   43.8780 C   0  0  0  0  0  0  0  0  0  0  0  0
   46.1080   34.5140   43.4680 C   0  0  0  0  0  0  0  0  0  0  0  0
   46.4550   33.6090   44.4250 N   0  0  0  0  0  0  0  0  0  0  0  0
   45.9630   33.5320   45.6400 C   0  0  0  0  0  0  0  0  0  0  0  0
   45.0430   34.4020   45.9920 N   0  0  0  0  0  0  0  0  0  0  0  0
   46.7330   34.4610   42.1930 C   0  0  0  0  0  0  0  0  0  0  0  0
   47.8450   35.2680   42.0100 C   0  0  0  0  0  0  0  0  0  0  0  0
   48.5760   35.3450   40.8440 C   0  0  0  0  0  0  0  0  0  0  0  0
   48.2190   34.5970   39.7710 C   0  0  0  0  0  0  0  0  0  0  0  0
   47.1220   33.7690   39.8810 C   0  0  0  0  0  0  0  0  0  0  0  0
   46.7050   32.9890   38.8400 C   0  0  0  0  0  0  0  0  0  0  0  0
   45.6200   32.1570   38.9140 C   0  0  0  0  0  0  0  0  0  0  0  0
   44.9310   32.1280   40.1180 C   0  0  0  0  0  0  0  0  0  0  0  0
   45.3750   32.9330   41.1600 C   0  0  0  0  0  0  0  0  0  0  0  0
   46.4370   33.7390   41.0690 C   0  0  0  0  0  0  0  0  0  0  0  0
   44.5430   32.7740   42.3100 N   0  0  0  0  0  0  0  0  0  0  0  0
   46.5360   32.4290   46.4800 C   0  0  0  0  0  0  0  0  0  0  0  0
   45.5600   31.6680   47.0520 F   0  0  0  0  0  0  0  0  0  0  0  0
   47.3860   32.9420   47.4410 F   0  0  0  0  0  0  0  0  0  0  0  0
   47.3940   31.6370   45.6720 F   0  0  0  0  0  0  0  0  0  0  0  0
   44.7270   36.4150   42.8730 C   0  0  0  0  0  0  0  0  0  0  0  0
   43.6830   35.9440   41.9270 C   0  0  0  0  0  0  0  0  0  0  0  0
   42.5330   35.4720   42.6870 N   0  0  0  0  0  0  0  0  0  0  0  0
   41.2240   35.1100   41.6300 S   0  0  0  0  0  0  0  0  0  0  0  0
   41.7280   34.2300   40.5020 O   0  0  0  0  0  0  0  0  0  0  0  0
   40.6750   36.3410   41.0010 O   0  0  0  0  0  0  0  0  0  0  0  0
   40.0660   34.2280   42.4550 O   0  0  0  0  0  0  0  0  0  0  0  0
   43.8425   36.0463   45.4897 H   0  0  0  0  0  0  0  0  0  0  0  0
   48.1674   35.8921   42.8565 H   0  0  0  0  0  0  0  0  0  0  0  0
   49.4482   36.0126   40.7841 H   0  0  0  0  0  0  0  0  0  0  0  0
   48.7919   34.6496   38.8334 H   0  0  0  0  0  0  0  0  0  0  0  0
   47.2684   33.0313   37.8962 H   0  0  0  0  0  0  0  0  0  0  0  0
   45.3089   31.5399   38.0582 H   0  0  0  0  0  0  0  0  0  0  0  0
   44.0508   31.4806   40.2451 H   0  0  0  0  0  0  0  0  0  0  0  0
   44.7438   33.3065   43.1685 H   0  0  0  0  0  0  0  0  0  0  0  0
   43.7422   32.1268   42.2808 H   0  0  0  0  0  0  0  0  0  0  0  0
   44.3390   37.2984   43.4013 H   0  0  0  0  0  0  0  0  0  0  0  0
   45.6208   36.6334   42.2702 H   0  0  0  0  0  0  0  0  0  0  0  0
   44.0833   35.1222   41.3151 H   0  0  0  0  0  0  0  0  0  0  0  0
   43.3791   36.7700   41.2672 H   0  0  0  0  0  0  0  0  0  0  0  0
   42.7950   34.6220   43.2064 H   0  0  0  0  0  0  0  0  0  0  0  0
   42.1826   33.4362   40.8806 H   0  0  0  0  0  0  0  0  0  0  0  0
   40.3924   36.9746   41.7073 H   0  0  0  0  0  0  0  0  0  0  0  0
   40.2037   34.3329   43.4297 H   0  0  0  0  0  0  0  0  0  0  0  0
  1  6  2  0
  2  1  1  0
  3  2  2  0
  3  4  1  0
  4  5  2  0
  5  6  1  0
  5 18  1  0
  7  3  1  0
  8  7  2  0
  9  8  1  0
 10 11  1  0
 10  9  2  0
 11 16  2  0
 12 13  2  0
 12 11  1  0
 13 14  1  0
 14 15  2  0
 15 17  1  0
 16 15  1  0
 16  7  1  0
 18 19  1  0
 18 20  1  0
 21 18  1  0
 22  2  1  0
 23 24  1  0
 23 22  1  0
 25 28  1  0
 25 24  1  0
 26 25  1  0
 27 25  1  0
  1 29  1  0
  8 30  1  0
  9 31  1  0
 10 32  1  0
 12 33  1  0
 13 34  1  0
 14 35  1  0
 17 36  1  0
 17 37  1  0
 22 38  1  0
 22 39  1  0
 23 40  1  0
 23 41  1  0
 24 42  1  0
 26 43  1  0
 27 44  1  0
 28 45  1  0
M  ISO  8  29  14  30  14  31  14  32  14  33  14  34  14  35  14  38   8
M  ISO  7  39   8  40   8  41   8  42   5  43   3  44   3  45   3
M  END
>  <minimizedAffinity>  (1) 
-7.31317377

>  <minimizedRMSD>  (1) 
0.513356447

$$$$
