
     RDKit          3D

 27 27  0  0  0  0  0  0  0  0999 V2000
   46.9010   32.3140   48.4130 O   0  0  0  0  0  0  0  0  0  0  0  0
   45.8540   32.5200   47.3180 P   0  0  1  0  0  0  0  0  0  0  0  0
   44.5690   33.4610   47.8270 O   0  0  0  0  0  0  0  0  0  0  0  0
   46.6570   33.2270   46.0000 O   0  0  0  0  0  0  0  0  0  0  0  0
   44.4810   35.6600   44.6270 C   0  0  0  0  0  0  0  0  0  0  0  0
   44.8730   35.7870   43.2650 C   0  0  0  0  0  0  0  0  0  0  0  0
   45.9540   34.9590   42.8650 C   0  0  0  0  0  0  0  0  0  0  0  0
   46.5150   34.1320   43.7900 N   0  0  0  0  0  0  0  0  0  0  0  0
   46.0940   34.0630   45.0570 C   0  0  0  0  0  0  0  0  0  0  0  0
   45.0790   34.8280   45.4700 N   0  0  0  0  0  0  0  0  0  0  0  0
   45.2780   30.9830   46.9260 O   0  0  0  0  0  0  0  0  0  0  0  0
   45.0730   30.2850   48.1050 C   0  0  0  0  0  0  0  0  0  0  0  0
   46.1560   29.3740   48.4050 N   0  0  0  0  0  0  0  0  0  0  0  0
   45.9160   27.9290   47.4740 S   0  0  0  0  0  0  0  0  0  0  0  0
   46.6990   27.9900   46.1870 O   0  0  0  0  0  0  0  0  0  0  0  0
   44.4740   27.7630   47.1120 O   0  0  0  0  0  0  0  0  0  0  0  0
   46.4360   26.5760   48.3120 O   0  0  0  0  0  0  0  0  0  0  0  0
   44.5446   33.4788   48.8165 H   0  0  0  0  0  0  0  0  0  0  0  0
   43.6483   36.2767   44.9960 H   0  0  0  0  0  0  0  0  0  0  0  0
   44.3732   36.4785   42.5708 H   0  0  0  0  0  0  0  0  0  0  0  0
   46.3300   34.9847   41.8316 H   0  0  0  0  0  0  0  0  0  0  0  0
   44.9799   31.0062   48.9303 H   0  0  0  0  0  0  0  0  0  0  0  0
   44.1573   29.6875   47.9848 H   0  0  0  0  0  0  0  0  0  0  0  0
   47.0563   29.8064   48.1531 H   0  0  0  0  0  0  0  0  0  0  0  0
   47.6647   28.0652   46.3915 H   0  0  0  0  0  0  0  0  0  0  0  0
   43.9315   27.7006   47.9378 H   0  0  0  0  0  0  0  0  0  0  0  0
   46.3709   26.7454   49.2852 H   0  0  0  0  0  0  0  0  0  0  0  0
  2  3  1  0
  2  1  2  0
  4  2  1  0
  5 10  2  0
  6  5  1  0
  7  6  2  0
  7  8  1  0
  8  9  2  0
  9 10  1  0
  9  4  1  0
 11  2  1  0
 11 12  1  0
 12 13  1  0
 14 17  1  0
 14 13  1  0
 15 14  1  0
 16 14  1  0
  3 18  1  0
  5 19  1  0
  6 20  1  0
  7 21  1  0
 12 22  1  0
 12 23  1  0
 13 24  1  0
 15 25  1  0
 16 26  1  0
 17 27  1  0
M  ISO  8  18   3  19  14  20  14  21  14  22   8  23   8  24   5  25   3
M  ISO  2  26   3  27   3
M  END
>  <minimizedAffinity>  (1) 
-4.509161

>  <minimizedRMSD>  (1) 
1.37636483

$$$$
