
     RDKit          3D

 25 26  0  0  0  0  0  0  0  0999 V2000
   45.4090   34.5470   44.2920 C   0  0  0  0  0  0  0  0  0  0  0  0
   46.4480   34.1650   43.4170 C   0  0  0  0  0  0  0  0  0  0  0  0
   47.4120   33.2510   43.8410 C   0  0  0  0  0  0  0  0  0  0  0  0
   47.2760   32.7770   45.1140 N   0  0  0  0  0  0  0  0  0  0  0  0
   46.2820   33.1570   45.9210 C   0  0  0  0  0  0  0  0  0  0  0  0
   45.3530   34.0300   45.5280 N   0  0  0  0  0  0  0  0  0  0  0  0
   48.4850   32.8170   43.0230 N   0  0  0  0  0  0  0  0  0  0  0  0
   44.4150   35.5300   43.8110 C   0  0  0  0  0  0  0  0  0  0  0  0
   45.0600   36.8780   43.4010 C   0  0  0  0  0  0  0  0  0  0  0  0
   44.3530   35.9800   42.4370 C   0  0  0  0  0  0  0  0  0  0  0  0
   49.7430   33.6860   42.2830 S   0  0  0  0  0  0  0  0  0  0  0  0
   51.0880   33.0340   42.4660 O   0  0  0  0  0  0  0  0  0  0  0  0
   49.8820   35.0980   42.6720 O   0  0  0  0  0  0  0  0  0  0  0  0
   49.4730   33.6300   40.6040 O   0  0  0  0  0  0  0  0  0  0  0  0
   46.4974   34.5873   42.4025 H   0  0  0  0  0  0  0  0  0  0  0  0
   46.2279   32.7389   46.9370 H   0  0  0  0  0  0  0  0  0  0  0  0
   48.5054   31.8023   42.8474 H   0  0  0  0  0  0  0  0  0  0  0  0
   43.6304   35.1429   44.4778 H   0  0  0  0  0  0  0  0  0  0  0  0
   44.6076   37.8314   43.7115 H   0  0  0  0  0  0  0  0  0  0  0  0
   46.0554   37.3402   43.4759 H   0  0  0  0  0  0  0  0  0  0  0  0
   43.3871   36.2945   42.0149 H   0  0  0  0  0  0  0  0  0  0  0  0
   44.6401   35.5240   41.4780 H   0  0  0  0  0  0  0  0  0  0  0  0
   51.2807   32.9406   43.4326 H   0  0  0  0  0  0  0  0  0  0  0  0
   49.8890   35.1691   43.6594 H   0  0  0  0  0  0  0  0  0  0  0  0
   48.5188   33.4321   40.4296 H   0  0  0  0  0  0  0  0  0  0  0  0
  1  6  2  0
  2  3  2  0
  2  1  1  0
  3  4  1  0
  4  5  2  0
  6  5  1  0
  7  3  1  0
  8  1  1  0
  9  8  1  0
 10  9  1  0
 10  8  1  0
 11 12  1  0
 11 13  1  0
 11  7  1  0
 14 11  1  0
  2 15  1  0
  5 16  1  0
  7 17  1  0
  8 18  1  0
  9 19  1  0
  9 20  1  0
 10 21  1  0
 10 22  1  0
 12 23  1  0
 13 24  1  0
 14 25  1  0
M  ISO  8  15  14  16  14  18  13  19  13  20  13  21  13  22  13  23   3
M  ISO  2  24   3  25   3
M  END
>  <minimizedAffinity>  (1) 
-4.41934967

>  <minimizedRMSD>  (1) 
1.34053648

$$$$
