
     RDKit          3D

 42 43  0  0  0  0  0  0  0  0999 V2000
   46.5763   34.9087   43.2497 O   0  0  0  0  0  0  0  0  0  0  0  0
   46.8042   33.9756   42.2299 C   0  0  1  0  0  0  0  0  0  0  0  0
   46.0750   34.4122   40.9565 C   0  0  0  0  0  0  0  0  0  0  0  0
   46.6852   33.4726   39.9509 C   0  0  0  0  0  0  0  0  0  0  0  0
   48.0720   33.1435   40.4725 C   0  0  0  0  0  0  0  0  0  0  0  0
   48.2186   33.9587   41.7423 C   0  0  1  0  0  0  0  0  0  0  0  0
   48.7589   35.3359   41.4595 C   0  0  0  0  0  0  0  0  0  0  0  0
   49.6562   35.7561   42.4160 O   0  0  0  0  0  0  0  0  0  0  0  0
   44.7305   35.3511   44.9966 O   0  0  0  0  0  0  0  0  0  0  0  0
   45.5807   34.2401   44.4122 P   0  0  1  0  0  0  0  0  0  0  0  0
   44.6085   33.0392   43.7180 O   0  0  0  0  0  0  0  0  0  0  0  0
   46.4770   33.4912   45.6035 O   0  0  0  0  0  0  0  0  0  0  0  0
   46.2332   32.1553   45.5705 C   0  0  0  0  0  0  0  0  0  0  0  0
   45.6422   31.9041   49.2353 C   0  0  0  0  0  0  0  0  0  0  0  0
   45.9790   32.4599   47.9963 C   0  0  0  0  0  0  0  0  0  0  0  0
   45.8834   31.6078   46.8918 C   0  0  0  0  0  0  0  0  0  0  0  0
   45.4774   30.3134   47.0752 N   0  0  0  0  0  0  0  0  0  0  0  0
   45.1611   29.8149   48.2893 C   0  0  0  0  0  0  0  0  0  0  0  0
   45.2447   30.6056   49.3508 N   0  0  0  0  0  0  0  0  0  0  0  0
   46.4495   32.9734   42.4608 H   0  0  0  0  0  0  0  0  0  0  0  0
   46.1651   35.4696   40.7351 H   0  0  0  0  0  0  0  0  0  0  0  0
   45.0048   34.1589   41.0369 H   0  0  0  0  0  0  0  0  0  0  0  0
   46.0775   32.5354   39.8855 H   0  0  0  0  0  0  0  0  0  0  0  0
   46.6880   33.9304   38.9560 H   0  0  0  0  0  0  0  0  0  0  0  0
   48.1564   32.0562   40.7322 H   0  0  0  0  0  0  0  0  0  0  0  0
   48.8533   33.3824   39.7333 H   0  0  0  0  0  0  0  0  0  0  0  0
   48.8663   33.3913   42.4566 H   0  0  0  0  0  0  0  0  0  0  0  0
   49.2462   35.3324   40.4468 H   0  0  0  0  0  0  0  0  0  0  0  0
   47.9791   36.1247   41.4005 H   0  0  0  0  0  0  0  0  0  0  0  0
   50.5748   35.6081   42.0471 H   0  0  0  0  0  0  0  0  0  0  0  0
   43.8141   33.5076   43.3413 H   0  0  0  0  0  0  0  0  0  0  0  0
   45.5042   31.7778   44.8602 H   0  0  0  0  0  0  0  0  0  0  0  0
   47.2047   31.6480   45.2925 H   0  0  0  0  0  0  0  0  0  0  0  0
   45.7125   32.5574   50.1027 H   0  0  0  0  0  0  0  0  0  0  0  0
   46.2863   33.4820   47.9455 H   0  0  0  0  0  0  0  0  0  0  0  0
   44.7467   28.4576   48.4025 N   0  0  0  0  0  0  0  0  0  0  0  0
   45.1318   27.8491   49.1583 H   0  0  0  0  0  0  0  0  0  0  0  0
   43.6018   27.7715   47.3048 S   0  0  0  0  0  0  0  0  0  0  0  0
   43.1859   28.7966   46.2883 O   0  0  0  0  0  0  0  0  0  0  0  0
   44.2572   26.5894   46.6502 O   0  0  0  0  0  0  0  0  0  0  0  0
   42.2505   27.2884   48.1994 O   0  0  0  0  0  0  0  0  0  0  0  0
   42.0622   27.9508   48.9205 H   0  0  0  0  0  0  0  0  0  0  0  0
 10  1  1  6
  2  1  1  0
  3  2  1  0
  4  5  1  0
  4  3  1  0
  5  6  1  0
  6  2  1  0
  7  6  1  0
  7  8  1  0
 10  9  2  0
 10 12  1  0
 11 10  1  0
 13 12  1  0
 13 16  1  0
 14 19  2  0
 15 14  1  0
 16 17  1  0
 16 15  2  0
 17 18  2  0
 18 19  1  0
  2 20  1  1
  3 21  1  0
  3 22  1  0
  4 23  1  0
  4 24  1  0
  5 25  1  0
  5 26  1  0
  6 27  1  1
  7 28  1  0
  7 29  1  0
  8 30  1  0
 11 31  1  0
 13 32  1  0
 13 33  1  0
 14 34  1  0
 15 35  1  0
 36 37  1  0
 36 38  1  0
 38 39  2  0
 38 40  2  0
 38 41  1  0
 41 42  1  0
 18 36  1  0
M  ISO  8  20  13  21  13  22  13  23  13  24  13  25  13  26  13  27  13
M  ISO  8  28   8  29   8  30   3  31   3  32   8  33   8  34  14  35  14
M  ISO  2  37   5  42   3
M  END
>  <DihAtoms>  (1) 
16,17,35,36

>  <DihDeg>  (1) 
1.3489113962465308e-05

$$$$
