
     RDKit          3D

 28 29  0  0  1  0  0  0  0  0999 V2000
   47.4140   34.7220   41.4540 C   0  0  1  0  0  0  0  0  0  0  0  0
   48.6990   35.3940   41.0410 C   0  0  0  0  0  0  0  0  0  0  0  0
   48.1860   34.2140   40.2800 C   0  0  2  0  0  0  0  0  0  0  0  0
   47.4700   33.9360   42.7260 C   0  0  0  0  0  0  0  0  0  0  0  0
   46.4410   34.3700   43.6950 C   0  0  0  0  0  0  0  0  0  0  0  0
   45.7090   35.4590   43.2770 C   0  0  0  0  0  0  0  0  0  0  0  0
   44.6990   36.0100   44.0920 C   0  0  0  0  0  0  0  0  0  0  0  0
   44.5190   35.3860   45.2940 N   0  0  0  0  0  0  0  0  0  0  0  0
   45.2530   34.3110   45.6840 C   0  0  0  0  0  0  0  0  0  0  0  0
   46.2040   33.8030   44.9020 N   0  0  0  0  0  0  0  0  0  0  0  0
   47.5330   34.2960   39.0300 N   0  0  0  0  0  0  0  0  0  0  0  0
   48.3740   33.5970   37.7190 S   0  0  0  0  0  0  0  0  0  0  0  0
   48.8730   32.2490   38.2260 O   0  0  0  0  0  0  0  0  0  0  0  0
   47.4750   33.2750   36.5650 O   0  0  0  0  0  0  0  0  0  0  0  0
   49.7030   34.4420   37.2090 O   0  0  0  0  0  0  0  0  0  0  0  0
   46.3705   35.0333   41.6095 H   0  0  0  0  0  0  0  0  0  0  0  0
   48.6756   36.3953   40.5863 H   0  0  0  0  0  0  0  0  0  0  0  0
   49.6439   35.6462   41.5446 H   0  0  0  0  0  0  0  0  0  0  0  0
   48.6827   33.2863   39.9597 H   0  0  0  0  0  0  0  0  0  0  0  0
   47.3114   32.8727   42.4930 H   0  0  0  0  0  0  0  0  0  0  0  0
   48.4566   34.1022   43.1831 H   0  0  0  0  0  0  0  0  0  0  0  0
   45.9153   35.9054   42.2931 H   0  0  0  0  0  0  0  0  0  0  0  0
   44.0996   36.8789   43.7826 H   0  0  0  0  0  0  0  0  0  0  0  0
   45.0580   33.8516   46.6643 H   0  0  0  0  0  0  0  0  0  0  0  0
   46.6235   33.8200   39.1145 H   0  0  0  0  0  0  0  0  0  0  0  0
   48.8733   32.2483   39.2160 H   0  0  0  0  0  0  0  0  0  0  0  0
   46.6000   32.9616   36.9058 H   0  0  0  0  0  0  0  0  0  0  0  0
   50.2106   34.7647   37.9953 H   0  0  0  0  0  0  0  0  0  0  0  0
  1  4  1  0
  2  1  1  0
  3  2  1  0
  3  1  1  0
  4  5  1  0
  5 10  1  0
  6  5  2  0
  6  7  1  0
  7  8  2  0
  8  9  1  0
 10  9  2  0
 11  3  1  0
 12 13  1  0
 12 11  1  0
 14 12  1  0
 15 12  1  0
  1 16  1  6
  2 17  1  0
  2 18  1  0
  3 19  1  1
  4 20  1  0
  4 21  1  0
  6 22  1  0
  7 23  1  0
  9 24  1  0
 11 25  1  0
 13 26  1  0
 14 27  1  0
 15 28  1  0
M  ISO  8  16  13  17  13  18  13  19  13  20   8  21   8  22  14  23  14
M  ISO  5  24  14  25   5  26   3  27   3  28   3
M  END
>  <minimizedAffinity>  (1) 
-4.92535734

>  <minimizedRMSD>  (1) 
1.39197457

$$$$
