
     RDKit          3D

 37 39  0  0  0  0  0  0  0  0999 V2000
   46.5950   33.9210   41.1610 C   0  0  0  0  0  0  0  0  0  0  0  0
   46.9630   34.8240   42.1450 C   0  0  0  0  0  0  0  0  0  0  0  0
   48.0530   35.5920   41.9040 C   0  0  0  0  0  0  0  0  0  0  0  0
   48.7880   35.4970   40.7270 C   0  0  0  0  0  0  0  0  0  0  0  0
   48.4120   34.5940   39.7550 C   0  0  0  0  0  0  0  0  0  0  0  0
   47.2930   33.7840   39.9660 C   0  0  0  0  0  0  0  0  0  0  0  0
   44.4970   35.9010   44.7750 C   0  0  0  0  0  0  0  0  0  0  0  0
   45.2500   35.8700   43.5970 C   0  0  0  0  0  0  0  0  0  0  0  0
   46.1700   34.8850   43.3460 C   0  0  0  0  0  0  0  0  0  0  0  0
   46.2860   33.9480   44.3320 N   0  0  0  0  0  0  0  0  0  0  0  0
   45.5730   33.9550   45.4730 C   0  0  0  0  0  0  0  0  0  0  0  0
   44.6770   34.9360   45.6910 N   0  0  0  0  0  0  0  0  0  0  0  0
   45.4900   33.1130   41.3570 O   0  0  0  0  0  0  0  0  0  0  0  0
   46.8750   32.8710   39.0340 O   0  0  0  0  0  0  0  0  0  0  0  0
   47.4580   32.6310   37.8420 C   0  0  0  0  0  0  0  0  0  0  0  0
   47.0450   32.9080   36.5570 C   0  0  0  0  0  0  0  0  0  0  0  0
   47.8370   32.5530   35.5220 C   0  0  0  0  0  0  0  0  0  0  0  0
   49.0670   31.9070   35.8240 C   0  0  0  0  0  0  0  0  0  0  0  0
   49.0490   31.8240   37.6500 S   0  0  0  0  0  0  0  0  0  0  0  0
   50.0650   31.4370   34.9840 N   0  0  0  0  0  0  0  0  0  0  0  0
   50.2130   31.6880   33.2730 S   0  0  0  0  0  0  0  0  0  0  0  0
   49.1590   30.8310   32.6230 O   0  0  0  0  0  0  0  0  0  0  0  0
   51.5700   31.1700   32.8760 O   0  0  0  0  0  0  0  0  0  0  0  0
   50.0480   33.3010   32.8520 O   0  0  0  0  0  0  0  0  0  0  0  0
   48.3685   36.3179   42.6679 H   0  0  0  0  0  0  0  0  0  0  0  0
   49.6667   36.1403   40.5720 H   0  0  0  0  0  0  0  0  0  0  0  0
   48.9880   34.5120   38.8215 H   0  0  0  0  0  0  0  0  0  0  0  0
   43.7670   36.7053   44.9488 H   0  0  0  0  0  0  0  0  0  0  0  0
   45.0993   36.6612   42.8478 H   0  0  0  0  0  0  0  0  0  0  0  0
   45.7212   33.1641   46.2231 H   0  0  0  0  0  0  0  0  0  0  0  0
   45.2204   32.4651   40.6587 H   0  0  0  0  0  0  0  0  0  0  0  0
   46.0837   33.4112   36.3765 H   0  0  0  0  0  0  0  0  0  0  0  0
   47.5408   32.7565   34.4823 H   0  0  0  0  0  0  0  0  0  0  0  0
   50.8046   30.8733   35.4269 H   0  0  0  0  0  0  0  0  0  0  0  0
   48.6155   30.3890   33.3225 H   0  0  0  0  0  0  0  0  0  0  0  0
   52.0973   30.9687   33.6894 H   0  0  0  0  0  0  0  0  0  0  0  0
   49.9916   33.8521   33.6725 H   0  0  0  0  0  0  0  0  0  0  0  0
  1 13  1  0
  1  2  2  0
  2  9  1  0
  3  2  1  0
  4  3  2  0
  5  6  2  0
  5  4  1  0
  6  1  1  0
  7 12  2  0
  8  7  1  0
  9  8  2  0
  9 10  1  0
 10 11  2  0
 11 12  1  0
 14  6  1  0
 15 14  1  0
 16 15  2  0
 17 18  2  0
 17 16  1  0
 18 19  1  0
 19 15  1  0
 20 18  1  0
 21 20  1  0
 22 21  1  0
 23 21  1  0
 24 21  1  0
  3 25  1  0
  4 26  1  0
  5 27  1  0
  7 28  1  0
  8 29  1  0
 11 30  1  0
 13 31  1  0
 16 32  1  0
 17 33  1  0
 20 34  1  0
 22 35  1  0
 23 36  1  0
 24 37  1  0
M  ISO  8  25  14  26  14  27  14  28  14  29  14  30  14  31   3  32  14
M  ISO  4  33  14  35   3  36   3  37   3
M  END
>  <minimizedAffinity>  (1) 
-6.040483

>  <minimizedRMSD>  (1) 
2.15363407

$$$$
