
     RDKit          3D

 27 28  0  0  0  0  0  0  0  0999 V2000
   45.0018   35.4849   44.1873 C   0  0  0  0  0  0  0  0  0  0  0  0
   45.9772   34.9333   43.3400 C   0  0  0  0  0  0  0  0  0  0  0  0
   46.7135   33.8312   43.8408 C   0  0  0  0  0  0  0  0  0  0  0  0
   46.4417   33.3774   45.0873 N   0  0  0  0  0  0  0  0  0  0  0  0
   45.4956   33.9415   45.8607 C   0  0  0  0  0  0  0  0  0  0  0  0
   44.7804   34.9843   45.4204 N   0  0  0  0  0  0  0  0  0  0  0  0
   44.2877   36.5503   43.7075 O   0  0  0  0  0  0  0  0  0  0  0  0
   46.1735   35.3158   42.3489 H   0  0  0  0  0  0  0  0  0  0  0  0
   45.2501   33.6030   46.8679 H   0  0  0  0  0  0  0  0  0  0  0  0
   44.7226   37.4641   43.7177 H   0  0  0  0  0  0  0  0  0  0  0  0
   46.5123   34.5002   41.4631 O   0  0  0  0  0  0  0  0  0  0  0  0
   47.3476   33.3659   41.5613 C   0  0  1  0  0  0  0  0  0  0  0  0
   47.7564   33.2069   42.9924 C   0  0  2  0  0  0  0  0  0  0  0  0
   47.8417   31.7572   43.4341 C   0  0  1  0  0  0  0  0  0  0  0  0
   48.6973   31.6893   44.1386 H   0  0  0  0  0  0  0  0  0  0  0  0
   48.1282   30.8913   42.3958 O   0  0  0  0  0  0  0  0  0  0  0  0
   47.1311   30.8547   41.4280 C   0  0  1  0  0  0  0  0  0  0  0  0
   47.6011   30.4902   40.4870 H   0  0  0  0  0  0  0  0  0  0  0  0
   46.5038   32.1831   41.1547 C   0  0  2  0  0  0  0  0  0  0  0  0
   46.2436   32.3040   39.7898 O   0  0  0  0  0  0  0  0  0  0  0  0
   46.4157   34.8410   40.5605 H   0  0  0  0  0  0  0  0  0  0  0  0
   48.1602   33.5163   40.8472 H   0  0  0  0  0  0  0  0  0  0  0  0
   48.7066   33.7471   43.2174 H   0  0  0  0  0  0  0  0  0  0  0  0
   46.9532   31.4416   44.0353 H   0  0  0  0  0  0  0  0  0  0  0  0
   46.3089   30.1241   41.6838 H   0  0  0  0  0  0  0  0  0  0  0  0
   45.5141   32.2341   41.6672 H   0  0  0  0  0  0  0  0  0  0  0  0
   45.9091   33.1678   39.5074 H   0  0  0  0  0  0  0  0  0  0  0  0
  1  6  2  0
  2  3  2  0
  2  1  1  0
  3  4  1  0
  4  5  2  0
  6  5  1  0
  7  1  1  0
  2  8  1  0
  5  9  1  0
  7 10  1  0
 11 12  1  0
 12 13  1  0
 13 14  1  0
 14 15  1  1
 14 16  1  0
 16 17  1  0
 17 18  1  6
 17 19  1  0
 19 20  1  0
 19 12  1  0
 11 21  1  0
 12 22  1  6
 13 23  1  6
 14 24  1  0
 17 25  1  0
 19 26  1  1
 20 27  1  0
  3 13  1  0
M  ISO  5   8  14   9  14  10   3  15   8  18   8
M  END
>  <DihAtoms>  (1) 
1,2,12,11

>  <DihDeg>  (1) 
-120.32930638789271

$$$$
