
     RDKit          3D

 27 28  0  0  0  0  0  0  0  0999 V2000
   44.5381   36.0313   44.5308 C   0  0  0  0  0  0  0  0  0  0  0  0
   45.2653   35.8886   43.3162 C   0  0  0  0  0  0  0  0  0  0  0  0
   46.1333   34.7960   43.1999 C   0  0  0  0  0  0  0  0  0  0  0  0
   46.2343   33.9331   44.2501 N   0  0  0  0  0  0  0  0  0  0  0  0
   45.5211   34.1047   45.3954 C   0  0  0  0  0  0  0  0  0  0  0  0
   44.6864   35.1359   45.5356 N   0  0  0  0  0  0  0  0  0  0  0  0
   47.0725   34.5634   41.7010 S   0  0  0  0  0  0  0  0  0  0  0  0
   43.8722   36.8792   44.6060 H   0  0  0  0  0  0  0  0  0  0  0  0
   45.1373   36.6121   42.5202 H   0  0  0  0  0  0  0  0  0  0  0  0
   47.5826   35.8053   41.2858 H   0  0  0  0  0  0  0  0  0  0  0  0
   45.9601   31.5481   44.6491 O   0  0  0  0  0  0  0  0  0  0  0  0
   46.3397   31.8224   45.9422 C   0  0  2  0  0  0  0  0  0  0  0  0
   45.7197   33.0906   46.4735 C   0  0  1  0  0  0  0  0  0  0  0  0
   46.5476   33.5989   47.6140 C   0  0  1  0  0  0  0  0  0  0  0  0
   47.3678   34.2822   47.2618 H   0  0  0  0  0  0  0  0  0  0  0  0
   47.1629   32.4799   48.2083 O   0  0  0  0  0  0  0  0  0  0  0  0
   48.3017   32.1848   47.4374 C   0  0  2  0  0  0  0  0  0  0  0  0
   48.8657   31.3740   47.9455 H   0  0  0  0  0  0  0  0  0  0  0  0
   47.8556   31.8081   46.0502 C   0  0  1  0  0  0  0  0  0  0  0  0
   48.2468   30.4781   45.8240 O   0  0  0  0  0  0  0  0  0  0  0  0
   45.9731   32.3220   44.0363 H   0  0  0  0  0  0  0  0  0  0  0  0
   45.9939   30.9794   46.5858 H   0  0  0  0  0  0  0  0  0  0  0  0
   44.7075   32.8131   46.8663 H   0  0  0  0  0  0  0  0  0  0  0  0
   45.9215   34.0814   48.4079 H   0  0  0  0  0  0  0  0  0  0  0  0
   48.9041   33.1378   47.4084 H   0  0  0  0  0  0  0  0  0  0  0  0
   48.3437   32.4482   45.2682 H   0  0  0  0  0  0  0  0  0  0  0  0
   47.6073   30.0658   45.1773 H   0  0  0  0  0  0  0  0  0  0  0  0
  1  6  2  0
  2  1  1  0
  3  2  2  0
  3  4  1  0
  4  5  2  0
  5  6  1  0
  7  3  1  0
  1  8  1  0
  2  9  1  0
  7 10  1  0
 11 12  1  0
 12 13  1  0
 13 14  1  0
 14 15  1  6
 14 16  1  0
 16 17  1  0
 17 18  1  1
 17 19  1  0
 19 20  1  0
 19 12  1  0
 11 21  1  0
 12 22  1  1
 13 23  1  1
 14 24  1  0
 17 25  1  0
 19 26  1  6
 20 27  1  0
  5 13  1  0
M  ISO  5   8  14   9  14  10  11  15   8  18   8
M  END
>  <DihAtoms>  (1) 
3,4,12,11

>  <DihDeg>  (1) 
116.73696216272855

$$$$
