
     RDKit          3D

 27 28  0  0  0  0  0  0  0  0999 V2000
   44.5381   36.0313   44.5308 C   0  0  0  0  0  0  0  0  0  0  0  0
   45.2653   35.8886   43.3162 C   0  0  0  0  0  0  0  0  0  0  0  0
   46.1333   34.7960   43.1999 C   0  0  0  0  0  0  0  0  0  0  0  0
   46.2343   33.9331   44.2501 N   0  0  0  0  0  0  0  0  0  0  0  0
   45.5211   34.1047   45.3954 C   0  0  0  0  0  0  0  0  0  0  0  0
   44.6864   35.1359   45.5356 N   0  0  0  0  0  0  0  0  0  0  0  0
   47.0725   34.5634   41.7010 S   0  0  0  0  0  0  0  0  0  0  0  0
   43.8722   36.8792   44.6060 H   0  0  0  0  0  0  0  0  0  0  0  0
   45.1373   36.6121   42.5202 H   0  0  0  0  0  0  0  0  0  0  0  0
   47.5826   35.8053   41.2858 H   0  0  0  0  0  0  0  0  0  0  0  0
   47.1592   34.7510   47.4410 O   0  0  0  0  0  0  0  0  0  0  0  0
   46.3109   33.7045   47.7179 C   0  0  2  0  0  0  0  0  0  0  0  0
   45.7197   33.0906   46.4735 C   0  0  1  0  0  0  0  0  0  0  0  0
   44.4607   32.3646   46.8374 C   0  0  1  0  0  0  0  0  0  0  0  0
   43.5628   33.0394   46.7937 H   0  0  0  0  0  0  0  0  0  0  0  0
   44.6000   31.9410   48.1735 O   0  0  0  0  0  0  0  0  0  0  0  0
   44.2691   33.0407   48.9854 C   0  0  2  0  0  0  0  0  0  0  0  0
   44.2655   32.7037   50.0438 H   0  0  0  0  0  0  0  0  0  0  0  0
   45.2601   34.1430   48.7246 C   0  0  1  0  0  0  0  0  0  0  0  0
   45.9509   34.3864   49.9232 O   0  0  0  0  0  0  0  0  0  0  0  0
   46.8298   35.3882   46.7626 H   0  0  0  0  0  0  0  0  0  0  0  0
   46.9018   32.9146   48.2389 H   0  0  0  0  0  0  0  0  0  0  0  0
   46.4650   32.3420   46.0994 H   0  0  0  0  0  0  0  0  0  0  0  0
   44.3128   31.4411   46.2207 H   0  0  0  0  0  0  0  0  0  0  0  0
   43.2370   33.3587   48.6601 H   0  0  0  0  0  0  0  0  0  0  0  0
   44.7517   35.0962   48.4207 H   0  0  0  0  0  0  0  0  0  0  0  0
   46.8624   34.7275   49.6995 H   0  0  0  0  0  0  0  0  0  0  0  0
  1  6  2  0
  2  1  1  0
  3  2  2  0
  3  4  1  0
  4  5  2  0
  5  6  1  0
  7  3  1  0
  1  8  1  0
  2  9  1  0
  7 10  1  0
 11 12  1  0
 12 13  1  0
 13 14  1  0
 14 15  1  1
 14 16  1  0
 16 17  1  0
 17 18  1  1
 17 19  1  0
 19 20  1  0
 19 12  1  0
 11 21  1  0
 12 22  1  1
 13 23  1  6
 14 24  1  0
 17 25  1  0
 19 26  1  6
 20 27  1  0
  5 13  1  0
M  ISO  5   8  14   9  14  10  11  15   8  18   8
M  END
>  <DihAtoms>  (1) 
3,4,12,11

>  <DihDeg>  (1) 
116.73696216272855

$$$$
