
     RDKit          3D

 27 28  0  0  0  0  0  0  0  0999 V2000
   44.5381   36.0313   44.5308 C   0  0  0  0  0  0  0  0  0  0  0  0
   45.2653   35.8886   43.3162 C   0  0  0  0  0  0  0  0  0  0  0  0
   46.1333   34.7960   43.1999 C   0  0  0  0  0  0  0  0  0  0  0  0
   46.2343   33.9331   44.2501 N   0  0  0  0  0  0  0  0  0  0  0  0
   45.5211   34.1047   45.3954 C   0  0  0  0  0  0  0  0  0  0  0  0
   44.6864   35.1359   45.5356 N   0  0  0  0  0  0  0  0  0  0  0  0
   47.0725   34.5634   41.7010 S   0  0  0  0  0  0  0  0  0  0  0  0
   43.8722   36.8792   44.6060 H   0  0  0  0  0  0  0  0  0  0  0  0
   45.1373   36.6121   42.5202 H   0  0  0  0  0  0  0  0  0  0  0  0
   47.5826   35.8053   41.2858 H   0  0  0  0  0  0  0  0  0  0  0  0
   45.4161   34.9558   47.9548 O   0  0  0  0  0  0  0  0  0  0  0  0
   45.2487   33.5981   47.8135 C   0  0  2  0  0  0  0  0  0  0  0  0
   45.7197   33.0906   46.4735 C   0  0  1  0  0  0  0  0  0  0  0  0
   45.0483   31.7833   46.1824 C   0  0  1  0  0  0  0  0  0  0  0  0
   44.0661   31.9274   45.6550 H   0  0  0  0  0  0  0  0  0  0  0  0
   44.7709   31.1765   47.4229 O   0  0  0  0  0  0  0  0  0  0  0  0
   43.5777   31.7496   47.8982 C   0  0  2  0  0  0  0  0  0  0  0  0
   43.2777   31.2125   48.8231 H   0  0  0  0  0  0  0  0  0  0  0  0
   43.8097   33.2195   48.1231 C   0  0  1  0  0  0  0  0  0  0  0  0
   43.6291   33.4740   49.4927 O   0  0  0  0  0  0  0  0  0  0  0  0
   45.1460   35.4942   47.1725 H   0  0  0  0  0  0  0  0  0  0  0  0
   45.8581   33.0950   48.6009 H   0  0  0  0  0  0  0  0  0  0  0  0
   46.8216   32.9098   46.5678 H   0  0  0  0  0  0  0  0  0  0  0  0
   45.7175   31.0805   45.6227 H   0  0  0  0  0  0  0  0  0  0  0  0
   42.8189   31.5951   47.0783 H   0  0  0  0  0  0  0  0  0  0  0  0
   43.0731   33.8484   47.5562 H   0  0  0  0  0  0  0  0  0  0  0  0
   44.1963   34.2557   49.7468 H   0  0  0  0  0  0  0  0  0  0  0  0
  1  6  2  0
  2  1  1  0
  3  2  2  0
  3  4  1  0
  4  5  2  0
  5  6  1  0
  7  3  1  0
  1  8  1  0
  2  9  1  0
  7 10  1  0
 11 12  1  0
 12 13  1  0
 13 14  1  0
 14 15  1  6
 14 16  1  0
 16 17  1  0
 17 18  1  1
 17 19  1  0
 19 20  1  0
 19 12  1  0
 11 21  1  0
 12 22  1  1
 13 23  1  1
 14 24  1  0
 17 25  1  0
 19 26  1  6
 20 27  1  0
  5 13  1  0
M  ISO  5   8  14   9  14  10  11  15   8  18   8
M  END
>  <DihAtoms>  (1) 
3,4,12,11

>  <DihDeg>  (1) 
116.73696216272855

$$$$
