
     RDKit          3D

 49 53  0  0  1  0  0  0  0  0999 V2000
   45.9370   33.2420   41.6160 C   0  0  0  0  0  0  0  0  0  0  0  0
   47.1220   33.9260   41.3180 C   0  0  0  0  0  0  0  0  0  0  0  0
   48.0930   33.9670   42.3040 C   0  0  0  0  0  0  0  0  0  0  0  0
   47.8210   33.3390   43.4890 N   0  0  0  0  0  0  0  0  0  0  0  0
   46.6930   32.6940   43.7600 C   0  0  0  0  0  0  0  0  0  0  0  0
   45.7320   32.6390   42.8170 N   0  0  0  0  0  0  0  0  0  0  0  0
   46.7120   30.7280   45.2210 C   0  0  0  0  0  0  0  0  0  0  0  0
   46.5070   32.0630   45.0500 C   0  0  0  0  0  0  0  0  0  0  0  0
   46.1060   32.9090   46.1060 C   0  0  0  0  0  0  0  0  0  0  0  0
   45.9050   32.3800   47.3790 C   0  0  0  0  0  0  0  0  0  0  0  0
   45.5300   32.8700   48.5950 N   0  0  0  0  0  0  0  0  0  0  0  0
   45.5200   31.8160   49.4650 C   0  0  0  0  0  0  0  0  0  0  0  0
   45.8840   30.7020   48.7800 N   0  0  0  0  0  0  0  0  0  0  0  0
   46.1260   31.0220   47.4980 C   0  0  0  0  0  0  0  0  0  0  0  0
   46.5180   30.1760   46.4850 C   0  0  0  0  0  0  0  0  0  0  0  0
   49.3700   34.6740   42.0500 C   0  0  0  0  0  0  0  0  0  0  0  0
   49.1500   35.8060   41.2520 F   0  0  0  0  0  0  0  0  0  0  0  0
   49.9050   35.1350   43.2280 F   0  0  0  0  0  0  0  0  0  0  0  0
   50.2200   33.8170   41.4130 F   0  0  0  0  0  0  0  0  0  0  0  0
   47.2640   34.5050   40.1040 O   0  0  0  0  0  0  0  0  0  0  0  0
   47.3800   33.7630   38.9430 C   0  0  0  0  0  0  0  0  0  0  0  0
   48.4070   34.4030   38.2600 C   0  0  0  0  0  0  0  0  0  0  0  0
   48.5840   33.4370   36.7130 S   0  0  0  0  0  0  0  0  0  0  0  0
   47.1830   32.2850   37.2700 C   0  0  0  0  0  0  0  0  0  0  0  0
   46.9580   32.7610   38.2380 N   0  0  0  0  0  0  0  0  0  0  0  0
   45.9580   31.4950   35.2400 C   0  0  2  0  0  0  0  0  0  0  0  0
   46.6440   31.1050   36.5070 C   0  0  2  0  0  0  0  0  0  0  0  0
   45.7290   30.2780   37.4000 C   0  0  0  0  0  0  0  0  0  0  0  0
   44.5590   30.9530   37.7210 O   0  0  0  0  0  0  0  0  0  0  0  0
   43.8350   31.2640   36.5800 C   0  0  0  0  0  0  0  0  0  0  0  0
   44.5490   30.9260   35.2950 C   0  0  1  0  0  0  0  0  0  0  0  0
   46.5560   30.9770   34.0920 O   0  0  0  0  0  0  0  0  0  0  0  0
   43.8220   31.5660   34.2760 O   0  0  0  0  0  0  0  0  0  0  0  0
   45.1461   33.1909   40.8532 H   0  0  0  0  0  0  0  0  0  0  0  0
   47.0251   30.0968   44.3763 H   0  0  0  0  0  0  0  0  0  0  0  0
   45.9526   33.9830   45.9245 H   0  0  0  0  0  0  0  0  0  0  0  0
   45.2982   33.8489   48.8160 H   0  0  0  0  0  0  0  0  0  0  0  0
   45.2621   31.8623   50.5333 H   0  0  0  0  0  0  0  0  0  0  0  0
   46.6725   29.1023   46.6674 H   0  0  0  0  0  0  0  0  0  0  0  0
   48.9816   35.2864   38.5754 H   0  0  0  0  0  0  0  0  0  0  0  0
   45.9996   32.5922   35.1729 H   0  0  0  0  0  0  0  0  0  0  0  0
   47.5049   30.4894   36.2072 H   0  0  0  0  0  0  0  0  0  0  0  0
   45.4683   29.3473   36.8749 H   0  0  0  0  0  0  0  0  0  0  0  0
   46.2677   30.0719   38.3367 H   0  0  0  0  0  0  0  0  0  0  0  0
   42.8876   30.7057   36.6075 H   0  0  0  0  0  0  0  0  0  0  0  0
   43.6821   32.3533   36.5846 H   0  0  0  0  0  0  0  0  0  0  0  0
   44.6153   29.8321   35.2006 H   0  0  0  0  0  0  0  0  0  0  0  0
   47.2785   30.3512   34.3499 H   0  0  0  0  0  0  0  0  0  0  0  0
   43.1436   32.1633   34.6799 H   0  0  0  0  0  0  0  0  0  0  0  0
  1  6  2  0
  2  1  1  0
  2  3  2  0
  3  4  1  0
  4  5  2  0
  5  8  1  0
  6  5  1  0
  7 15  2  0
  8  7  1  0
  8  9  2  0
  9 10  1  0
 10 14  2  0
 10 11  1  0
 11 12  1  0
 13 12  2  0
 14 13  1  0
 15 14  1  0
 16  3  1  0
 16 18  1  0
 17 16  1  0
 19 16  1  0
 20  2  1  0
 21 20  1  0
 22 21  2  0
 23 24  1  0
 23 22  1  0
 24 25  2  0
 25 21  1  0
 26 32  1  0
 26 31  1  0
 26 27  1  0
 27 24  1  0
 27 28  1  0
 28 29  1  0
 30 29  1  0
 31 33  1  0
 31 30  1  0
  1 34  1  0
  7 35  1  0
  9 36  1  0
 11 37  1  0
 12 38  1  0
 15 39  1  0
 22 40  1  0
 26 41  1  6
 27 42  1  6
 28 43  1  0
 28 44  1  0
 30 45  1  0
 30 46  1  0
 31 47  1  6
 32 48  1  0
 33 49  1  0
M  ISO  8  34  14  35  14  36  14  37   9  38  14  39  14  40  14  41  13
M  ISO  8  42  13  43  13  44  13  45  13  46  13  47  13  48   3  49   3
M  END
>  <minimizedAffinity>  (1) 
-6.96989202

>  <minimizedRMSD>  (1) 
0.297638297

$$$$
