
     RDKit          3D

 27 28  0  0  0  0  0  0  0  0999 V2000
   44.5381   36.0313   44.5308 C   0  0  0  0  0  0  0  0  0  0  0  0
   45.2653   35.8886   43.3162 C   0  0  0  0  0  0  0  0  0  0  0  0
   46.1333   34.7960   43.1999 C   0  0  0  0  0  0  0  0  0  0  0  0
   46.2343   33.9331   44.2501 N   0  0  0  0  0  0  0  0  0  0  0  0
   45.5211   34.1047   45.3954 C   0  0  0  0  0  0  0  0  0  0  0  0
   44.6864   35.1359   45.5356 N   0  0  0  0  0  0  0  0  0  0  0  0
   47.0725   34.5634   41.7010 S   0  0  0  0  0  0  0  0  0  0  0  0
   43.8722   36.8792   44.6060 H   0  0  0  0  0  0  0  0  0  0  0  0
   45.1373   36.6121   42.5202 H   0  0  0  0  0  0  0  0  0  0  0  0
   47.5826   35.8053   41.2858 H   0  0  0  0  0  0  0  0  0  0  0  0
   43.7868   32.0396   45.5118 O   0  0  0  0  0  0  0  0  0  0  0  0
   44.9616   31.8175   46.1915 C   0  0  2  0  0  0  0  0  0  0  0  0
   45.7197   33.0906   46.4735 C   0  0  1  0  0  0  0  0  0  0  0  0
   47.1613   32.7588   46.7107 C   0  0  1  0  0  0  0  0  0  0  0  0
   47.7509   32.7539   45.7536 H   0  0  0  0  0  0  0  0  0  0  0  0
   47.2033   31.4515   47.2335 O   0  0  0  0  0  0  0  0  0  0  0  0
   47.1212   30.5727   46.1385 C   0  0  2  0  0  0  0  0  0  0  0  0
   47.2611   29.5362   46.5125 H   0  0  0  0  0  0  0  0  0  0  0  0
   45.7934   30.7768   45.4600 C   0  0  1  0  0  0  0  0  0  0  0  0
   45.0771   29.5723   45.5559 O   0  0  0  0  0  0  0  0  0  0  0  0
   43.8525   32.6759   44.7598 H   0  0  0  0  0  0  0  0  0  0  0  0
   44.7061   31.3498   47.1715 H   0  0  0  0  0  0  0  0  0  0  0  0
   45.2936   33.5154   47.4189 H   0  0  0  0  0  0  0  0  0  0  0  0
   47.6276   33.4278   47.4788 H   0  0  0  0  0  0  0  0  0  0  0  0
   47.9622   30.8689   45.4477 H   0  0  0  0  0  0  0  0  0  0  0  0
   45.9156   31.0189   44.3710 H   0  0  0  0  0  0  0  0  0  0  0  0
   44.1011   29.7838   45.5580 H   0  0  0  0  0  0  0  0  0  0  0  0
  1  6  2  0
  2  1  1  0
  3  2  2  0
  3  4  1  0
  4  5  2  0
  5  6  1  0
  7  3  1  0
  1  8  1  0
  2  9  1  0
  7 10  1  0
 11 12  1  0
 12 13  1  0
 13 14  1  0
 14 15  1  6
 14 16  1  0
 16 17  1  0
 17 18  1  1
 17 19  1  0
 19 20  1  0
 19 12  1  0
 11 21  1  0
 12 22  1  1
 13 23  1  1
 14 24  1  0
 17 25  1  0
 19 26  1  6
 20 27  1  0
  5 13  1  0
M  ISO  5   8  14   9  14  10  11  15   8  18   8
M  END
>  <DihAtoms>  (1) 
3,4,12,11

>  <DihDeg>  (1) 
116.73696216272855

$$$$
