
     RDKit          3D

 27 28  0  0  0  0  0  0  0  0999 V2000
   44.5381   36.0313   44.5308 C   0  0  0  0  0  0  0  0  0  0  0  0
   45.2653   35.8886   43.3162 C   0  0  0  0  0  0  0  0  0  0  0  0
   46.1333   34.7960   43.1999 C   0  0  0  0  0  0  0  0  0  0  0  0
   46.2343   33.9331   44.2501 N   0  0  0  0  0  0  0  0  0  0  0  0
   45.5211   34.1047   45.3954 C   0  0  0  0  0  0  0  0  0  0  0  0
   44.6864   35.1359   45.5356 N   0  0  0  0  0  0  0  0  0  0  0  0
   47.0725   34.5634   41.7010 S   0  0  0  0  0  0  0  0  0  0  0  0
   43.8722   36.8792   44.6060 H   0  0  0  0  0  0  0  0  0  0  0  0
   45.1373   36.6121   42.5202 H   0  0  0  0  0  0  0  0  0  0  0  0
   47.5826   35.8053   41.2858 H   0  0  0  0  0  0  0  0  0  0  0  0
   48.0406   33.6681   46.2601 O   0  0  0  0  0  0  0  0  0  0  0  0
   47.0705   33.2285   47.1302 C   0  0  2  0  0  0  0  0  0  0  0  0
   45.7197   33.0906   46.4735 C   0  0  1  0  0  0  0  0  0  0  0  0
   44.6565   33.1371   47.5280 C   0  0  1  0  0  0  0  0  0  0  0  0
   44.3214   34.1897   47.7360 H   0  0  0  0  0  0  0  0  0  0  0  0
   45.2298   32.6394   48.7144 O   0  0  0  0  0  0  0  0  0  0  0  0
   45.9391   33.7030   49.3007 C   0  0  2  0  0  0  0  0  0  0  0  0
   46.3114   33.3687   50.2924 H   0  0  0  0  0  0  0  0  0  0  0  0
   47.0459   34.1121   48.3666 C   0  0  1  0  0  0  0  0  0  0  0  0
   48.2650   33.8868   49.0270 O   0  0  0  0  0  0  0  0  0  0  0  0
   47.7695   34.4152   45.6743 H   0  0  0  0  0  0  0  0  0  0  0  0
   47.3738   32.2202   47.4988 H   0  0  0  0  0  0  0  0  0  0  0  0
   45.6981   32.0785   45.9928 H   0  0  0  0  0  0  0  0  0  0  0  0
   43.7906   32.4694   47.2841 H   0  0  0  0  0  0  0  0  0  0  0  0
   45.1926   34.5411   49.4121 H   0  0  0  0  0  0  0  0  0  0  0  0
   46.9907   35.2029   48.1086 H   0  0  0  0  0  0  0  0  0  0  0  0
   48.9657   33.6958   48.3416 H   0  0  0  0  0  0  0  0  0  0  0  0
  1  6  2  0
  2  1  1  0
  3  2  2  0
  3  4  1  0
  4  5  2  0
  5  6  1  0
  7  3  1  0
  1  8  1  0
  2  9  1  0
  7 10  1  0
 11 12  1  0
 12 13  1  0
 13 14  1  0
 14 15  1  1
 14 16  1  0
 16 17  1  0
 17 18  1  1
 17 19  1  0
 19 20  1  0
 19 12  1  0
 11 21  1  0
 12 22  1  1
 13 23  1  6
 14 24  1  0
 17 25  1  0
 19 26  1  6
 20 27  1  0
  5 13  1  0
M  ISO  5   8  14   9  14  10  11  15   8  18   8
M  END
>  <DihAtoms>  (1) 
3,4,12,11

>  <DihDeg>  (1) 
116.73696216272855

$$$$
