
     RDKit          3D

 27 28  0  0  0  0  0  0  0  0999 V2000
   45.0018   35.4849   44.1873 C   0  0  0  0  0  0  0  0  0  0  0  0
   45.9772   34.9333   43.3400 C   0  0  0  0  0  0  0  0  0  0  0  0
   46.7135   33.8312   43.8408 C   0  0  0  0  0  0  0  0  0  0  0  0
   46.4417   33.3774   45.0873 N   0  0  0  0  0  0  0  0  0  0  0  0
   45.4956   33.9415   45.8607 C   0  0  0  0  0  0  0  0  0  0  0  0
   44.7804   34.9843   45.4204 N   0  0  0  0  0  0  0  0  0  0  0  0
   44.2877   36.5503   43.7075 O   0  0  0  0  0  0  0  0  0  0  0  0
   46.1735   35.3158   42.3489 H   0  0  0  0  0  0  0  0  0  0  0  0
   45.2501   33.6030   46.8679 H   0  0  0  0  0  0  0  0  0  0  0  0
   44.7226   37.4641   43.7177 H   0  0  0  0  0  0  0  0  0  0  0  0
   47.8464   31.9459   44.9826 O   0  0  0  0  0  0  0  0  0  0  0  0
   48.6142   32.3475   43.8677 C   0  0  1  0  0  0  0  0  0  0  0  0
   47.7564   33.2069   42.9924 C   0  0  2  0  0  0  0  0  0  0  0  0
   48.5148   34.3544   42.3504 C   0  0  1  0  0  0  0  0  0  0  0  0
   48.0897   34.4867   41.3331 H   0  0  0  0  0  0  0  0  0  0  0  0
   49.8584   34.0831   42.1739 O   0  0  0  0  0  0  0  0  0  0  0  0
   50.5386   33.9041   43.3728 C   0  0  1  0  0  0  0  0  0  0  0  0
   51.4507   33.3075   43.1460 H   0  0  0  0  0  0  0  0  0  0  0  0
   49.7500   33.1774   44.4134 C   0  0  2  0  0  0  0  0  0  0  0  0
   50.5915   32.3204   45.1224 O   0  0  0  0  0  0  0  0  0  0  0  0
   48.2128   31.1854   45.4596 H   0  0  0  0  0  0  0  0  0  0  0  0
   48.9978   31.4332   43.4095 H   0  0  0  0  0  0  0  0  0  0  0  0
   47.2149   32.6083   42.2217 H   0  0  0  0  0  0  0  0  0  0  0  0
   48.3285   35.3295   42.8650 H   0  0  0  0  0  0  0  0  0  0  0  0
   50.8919   34.8800   43.8178 H   0  0  0  0  0  0  0  0  0  0  0  0
   49.3556   33.9121   45.1547 H   0  0  0  0  0  0  0  0  0  0  0  0
   50.1507   31.7473   45.7666 H   0  0  0  0  0  0  0  0  0  0  0  0
  1  6  2  0
  2  3  2  0
  2  1  1  0
  3  4  1  0
  4  5  2  0
  6  5  1  0
  7  1  1  0
  2  8  1  0
  5  9  1  0
  7 10  1  0
 11 12  1  0
 12 13  1  0
 13 14  1  0
 14 15  1  6
 14 16  1  0
 16 17  1  0
 17 18  1  6
 17 19  1  0
 19 20  1  0
 19 12  1  0
 11 21  1  0
 12 22  1  6
 13 23  1  6
 14 24  1  0
 17 25  1  0
 19 26  1  1
 20 27  1  0
  3 13  1  0
M  ISO  5   8  14   9  14  10   3  15   8  18   8
M  END
>  <DihAtoms>  (1) 
1,2,12,11

>  <DihDeg>  (1) 
-120.32930638789271

$$$$
