
     RDKit          3D

 27 28  0  0  0  0  0  0  0  0999 V2000
   45.0018   35.4849   44.1873 C   0  0  0  0  0  0  0  0  0  0  0  0
   45.9772   34.9333   43.3400 C   0  0  0  0  0  0  0  0  0  0  0  0
   46.7135   33.8312   43.8408 C   0  0  0  0  0  0  0  0  0  0  0  0
   46.4417   33.3774   45.0873 N   0  0  0  0  0  0  0  0  0  0  0  0
   45.4956   33.9415   45.8607 C   0  0  0  0  0  0  0  0  0  0  0  0
   44.7804   34.9843   45.4204 N   0  0  0  0  0  0  0  0  0  0  0  0
   44.2877   36.5503   43.7075 O   0  0  0  0  0  0  0  0  0  0  0  0
   46.1735   35.3158   42.3489 H   0  0  0  0  0  0  0  0  0  0  0  0
   45.2501   33.6030   46.8679 H   0  0  0  0  0  0  0  0  0  0  0  0
   44.7226   37.4641   43.7177 H   0  0  0  0  0  0  0  0  0  0  0  0
   46.6047   31.3559   43.8904 O   0  0  0  0  0  0  0  0  0  0  0  0
   47.8502   31.7593   43.3614 C   0  0  1  0  0  0  0  0  0  0  0  0
   47.7564   33.2069   42.9924 C   0  0  2  0  0  0  0  0  0  0  0  0
   49.0343   33.9793   43.2651 C   0  0  1  0  0  0  0  0  0  0  0  0
   49.1371   34.7229   42.4469 H   0  0  0  0  0  0  0  0  0  0  0  0
   50.1664   33.1883   43.2109 O   0  0  0  0  0  0  0  0  0  0  0  0
   50.1906   32.2063   44.1944 C   0  0  1  0  0  0  0  0  0  0  0  0
   50.8724   31.4019   43.8373 H   0  0  0  0  0  0  0  0  0  0  0  0
   48.8549   31.5980   44.4753 C   0  0  2  0  0  0  0  0  0  0  0  0
   49.0048   30.2312   44.7092 O   0  0  0  0  0  0  0  0  0  0  0  0
   46.4768   30.3949   43.9074 H   0  0  0  0  0  0  0  0  0  0  0  0
   48.0768   31.0724   42.5430 H   0  0  0  0  0  0  0  0  0  0  0  0
   47.4251   33.3476   41.9361 H   0  0  0  0  0  0  0  0  0  0  0  0
   48.9717   34.5913   44.1989 H   0  0  0  0  0  0  0  0  0  0  0  0
   50.6169   32.5834   45.1697 H   0  0  0  0  0  0  0  0  0  0  0  0
   48.4443   32.0330   45.4171 H   0  0  0  0  0  0  0  0  0  0  0  0
   48.1791   29.7379   44.8217 H   0  0  0  0  0  0  0  0  0  0  0  0
  1  6  2  0
  2  3  2  0
  2  1  1  0
  3  4  1  0
  4  5  2  0
  6  5  1  0
  7  1  1  0
  2  8  1  0
  5  9  1  0
  7 10  1  0
 11 12  1  0
 12 13  1  0
 13 14  1  0
 14 15  1  6
 14 16  1  0
 16 17  1  0
 17 18  1  6
 17 19  1  0
 19 20  1  0
 19 12  1  0
 11 21  1  0
 12 22  1  6
 13 23  1  6
 14 24  1  0
 17 25  1  0
 19 26  1  1
 20 27  1  0
  3 13  1  0
M  ISO  5   8  14   9  14  10   3  15   8  18   8
M  END
>  <DihAtoms>  (1) 
1,2,12,11

>  <DihDeg>  (1) 
-120.32930638789271

$$$$
