
     RDKit          3D

 27 28  0  0  0  0  0  0  0  0999 V2000
   44.5381   36.0313   44.5308 C   0  0  0  0  0  0  0  0  0  0  0  0
   45.2653   35.8886   43.3162 C   0  0  0  0  0  0  0  0  0  0  0  0
   46.1333   34.7960   43.1999 C   0  0  0  0  0  0  0  0  0  0  0  0
   46.2343   33.9331   44.2501 N   0  0  0  0  0  0  0  0  0  0  0  0
   45.5211   34.1047   45.3954 C   0  0  0  0  0  0  0  0  0  0  0  0
   44.6864   35.1359   45.5356 N   0  0  0  0  0  0  0  0  0  0  0  0
   47.0725   34.5634   41.7010 S   0  0  0  0  0  0  0  0  0  0  0  0
   43.8722   36.8792   44.6060 H   0  0  0  0  0  0  0  0  0  0  0  0
   45.1373   36.6121   42.5202 H   0  0  0  0  0  0  0  0  0  0  0  0
   47.5826   35.8053   41.2858 H   0  0  0  0  0  0  0  0  0  0  0  0
   46.0343   35.0055   47.8876 O   0  0  0  0  0  0  0  0  0  0  0  0
   45.5976   33.7020   47.8469 C   0  0  2  0  0  0  0  0  0  0  0  0
   45.7197   33.0906   46.4735 C   0  0  1  0  0  0  0  0  0  0  0  0
   44.7784   31.9297   46.3698 C   0  0  1  0  0  0  0  0  0  0  0  0
   43.7611   32.2483   46.0131 H   0  0  0  0  0  0  0  0  0  0  0  0
   44.6209   31.4086   47.6689 O   0  0  0  0  0  0  0  0  0  0  0  0
   43.6581   32.2063   48.3130 C   0  0  2  0  0  0  0  0  0  0  0  0
   43.4349   31.7525   49.3020 H   0  0  0  0  0  0  0  0  0  0  0  0
   44.1926   33.6091   48.4191 C   0  0  1  0  0  0  0  0  0  0  0  0
   44.3101   33.9175   49.7844 O   0  0  0  0  0  0  0  0  0  0  0  0
   45.7321   35.5714   47.1372 H   0  0  0  0  0  0  0  0  0  0  0  0
   46.2351   33.1064   48.5421 H   0  0  0  0  0  0  0  0  0  0  0  0
   46.7684   32.7055   46.3855 H   0  0  0  0  0  0  0  0  0  0  0  0
   45.1959   31.1027   45.7397 H   0  0  0  0  0  0  0  0  0  0  0  0
   42.7494   32.1842   47.6452 H   0  0  0  0  0  0  0  0  0  0  0  0
   43.4948   34.3563   47.9563 H   0  0  0  0  0  0  0  0  0  0  0  0
   45.0474   34.5816   49.8966 H   0  0  0  0  0  0  0  0  0  0  0  0
  1  6  2  0
  2  1  1  0
  3  2  2  0
  3  4  1  0
  4  5  2  0
  5  6  1  0
  7  3  1  0
  1  8  1  0
  2  9  1  0
  7 10  1  0
 11 12  1  0
 12 13  1  0
 13 14  1  0
 14 15  1  6
 14 16  1  0
 16 17  1  0
 17 18  1  1
 17 19  1  0
 19 20  1  0
 19 12  1  0
 11 21  1  0
 12 22  1  1
 13 23  1  1
 14 24  1  0
 17 25  1  0
 19 26  1  6
 20 27  1  0
  5 13  1  0
M  ISO  5   8  14   9  14  10  11  15   8  18   8
M  END
>  <DihAtoms>  (1) 
3,4,12,11

>  <DihDeg>  (1) 
116.73696216272855

$$$$
