
     RDKit          3D

 32 33  0  0  0  0  0  0  0  0999 V2000
   46.3008   35.2011   42.4968 C   0  0  0  0  0  0  0  0  0  0  0  0
   46.8258   34.1130   43.2370 C   0  0  0  0  0  0  0  0  0  0  0  0
   46.3531   33.7773   44.5588 C   0  0  0  0  0  0  0  0  0  0  0  0
   45.3788   34.5676   45.0711 N   0  0  0  0  0  0  0  0  0  0  0  0
   44.9155   35.5887   44.3528 C   0  0  0  0  0  0  0  0  0  0  0  0
   45.3604   35.8815   43.1266 N   0  0  0  0  0  0  0  0  0  0  0  0
   47.8385   33.4367   42.5541 O   0  0  0  0  0  0  0  0  0  0  0  0
   50.3903   33.1827   41.8735 O   0  0  0  0  0  0  0  0  0  0  0  0
   49.3200   34.1879   42.1684 P   0  0  0  0  0  0  0  0  0  0  0  0
   49.1141   35.1066   40.7848 O   0  0  0  0  0  0  0  0  0  0  0  0
   49.8467   35.2550   43.3662 O   0  0  0  0  0  0  0  0  0  0  0  0
   46.9074   32.9164   44.8806 H   0  0  0  0  0  0  0  0  0  0  0  0
   44.1458   36.1035   44.9377 H   0  0  0  0  0  0  0  0  0  0  0  0
   49.6525   35.9429   40.7948 H   0  0  0  0  0  0  0  0  0  0  0  0
   50.4837   34.8482   43.9878 H   0  0  0  0  0  0  0  0  0  0  0  0
   47.7857   36.8047   39.5552 O   0  0  0  0  0  0  0  0  0  0  0  0
   47.8563   35.9635   40.6689 C   0  0  1  0  0  0  0  0  0  0  0  0
   46.4711   35.7645   41.1547 C   0  0  1  0  0  0  0  0  0  0  0  0
   46.0394   34.6998   40.0672 C   0  0  1  0  0  0  0  0  0  0  0  0
   46.3695   33.7029   40.4705 H   0  0  0  0  0  0  0  0  0  0  0  0
   46.5573   35.0132   38.8620 O   0  0  0  0  0  0  0  0  0  0  0  0
   47.8567   34.4845   38.7456 C   0  0  2  0  0  0  0  0  0  0  0  0
   48.3942   35.1538   38.0450 H   0  0  0  0  0  0  0  0  0  0  0  0
   48.4663   34.6788   40.1212 C   0  0  1  0  0  0  0  0  0  0  0  0
   49.8369   34.9311   39.9166 O   0  0  0  0  0  0  0  0  0  0  0  0
   48.2140   37.6704   39.6644 H   0  0  0  0  0  0  0  0  0  0  0  0
   48.5933   36.3807   41.3227 H   0  0  0  0  0  0  0  0  0  0  0  0
   45.6868   36.4746   40.9288 H   0  0  0  0  0  0  0  0  0  0  0  0
   44.9419   34.6372   40.0570 H   0  0  0  0  0  0  0  0  0  0  0  0
   47.8874   33.4554   38.3861 H   0  0  0  0  0  0  0  0  0  0  0  0
   48.3804   33.8249   40.7861 H   0  0  0  0  0  0  0  0  0  0  0  0
   50.2289   35.2449   40.7784 H   0  0  0  0  0  0  0  0  0  0  0  0
  1  6  1  0
  1  2  2  0
  2  3  1  0
  3  4  2  0
  5  4  1  0
  6  5  2  0
  7  2  1  0
  8  9  2  0
  9  7  1  0
  9 11  1  0
 10  9  1  0
  3 12  1  0
  5 13  1  0
 10 14  1  0
 11 15  1  0
 16 17  1  0
 17 18  1  0
 18 19  1  0
 19 20  1  1
 19 21  1  0
 21 22  1  0
 22 23  1  6
 22 24  1  0
 24 25  1  0
 24 17  1  0
 16 26  1  0
 17 27  1  1
 18 28  1  1
 19 29  1  0
 22 30  1  0
 24 31  1  1
 25 32  1  0
  1 18  1  0
M  ISO  6  12  14  13  14  14   3  15   3  20   8  23   8
M  END
>  <DihAtoms>  (1) 
5,0,17,16

>  <DihDeg>  (1) 
-118.9581185956833

$$$$
