
     RDKit          3D

 46 50  0  0  0  0  0  0  0  0999 V2000
   45.4961   34.8286   43.5383 C   0  0  0  0  0  0  0  0  0  0  0  0
   46.2068   33.7481   44.1195 C   0  0  0  0  0  0  0  0  0  0  0  0
   46.0043   33.5221   45.4800 C   0  0  0  0  0  0  0  0  0  0  0  0
   45.1743   34.3087   46.1599 N   0  0  0  0  0  0  0  0  0  0  0  0
   44.5047   35.3370   45.5828 C   0  0  0  0  0  0  0  0  0  0  0  0
   44.6693   35.5865   44.2886 N   0  0  0  0  0  0  0  0  0  0  0  0
   47.0123   32.6992   47.5352 C   0  0  0  0  0  0  0  0  0  0  0  0
   46.6794   32.4356   46.2046 C   0  0  0  0  0  0  0  0  0  0  0  0
   46.9943   31.2250   45.6834 C   0  0  0  0  0  0  0  0  0  0  0  0
   47.6304   30.2358   46.4055 C   0  0  0  0  0  0  0  0  0  0  0  0
   48.0287   28.9854   46.0885 N   0  0  0  0  0  0  0  0  0  0  0  0
   48.6193   28.4496   47.2253 C   0  0  0  0  0  0  0  0  0  0  0  0
   48.5639   29.3891   48.2026 N   0  0  0  0  0  0  0  0  0  0  0  0
   47.9656   30.4726   47.7102 C   0  0  0  0  0  0  0  0  0  0  0  0
   47.6591   31.6949   48.2713 C   0  0  0  0  0  0  0  0  0  0  0  0
   45.6911   35.0647   42.1759 O   0  0  0  0  0  0  0  0  0  0  0  0
   44.6296   34.9161   41.2898 C   0  0  0  0  0  0  0  0  0  0  0  0
   45.0081   33.8166   40.6127 C   0  0  0  0  0  0  0  0  0  0  0  0
   43.5636   33.5944   39.3933 S   0  0  0  0  0  0  0  0  0  0  0  0
   42.7375   35.1299   40.1265 C   0  0  0  0  0  0  0  0  0  0  0  0
   43.4765   35.4108   40.8940 N   0  0  0  0  0  0  0  0  0  0  0  0
   46.8696   33.1148   43.5912 H   0  0  0  0  0  0  0  0  0  0  0  0
   43.8529   35.9170   46.2244 H   0  0  0  0  0  0  0  0  0  0  0  0
   46.8187   33.6256   48.0777 H   0  0  0  0  0  0  0  0  0  0  0  0
   46.7207   31.0591   44.6518 H   0  0  0  0  0  0  0  0  0  0  0  0
   47.9270   28.4862   45.1721 H   0  0  0  0  0  0  0  0  0  0  0  0
   49.0378   27.4542   47.2801 H   0  0  0  0  0  0  0  0  0  0  0  0
   47.9410   31.8433   49.3065 H   0  0  0  0  0  0  0  0  0  0  0  0
   45.7309   32.9356   40.3688 H   0  0  0  0  0  0  0  0  0  0  0  0
   40.5386   37.5544   38.5527 O   0  0  0  0  0  0  0  0  0  0  0  0
   41.7147   36.8003   38.7514 C   0  0  1  0  0  0  0  0  0  0  0  0
   41.4350   35.6341   39.6334 C   0  0  1  0  0  0  0  0  0  0  0  0
   40.7853   34.5245   38.8352 C   0  0  2  0  0  0  0  0  0  0  0  0
   39.9092   34.0885   39.3562 H   0  0  0  0  0  0  0  0  0  0  0  0
   40.3809   34.9760   37.5709 O   0  0  0  0  0  0  0  0  0  0  0  0
   41.5039   35.2966   36.8084 C   0  0  2  0  0  0  0  0  0  0  0  0
   41.0975   35.6607   35.8354 H   0  0  0  0  0  0  0  0  0  0  0  0
   42.3075   36.3862   37.4466 C   0  0  1  0  0  0  0  0  0  0  0  0
   42.3560   37.5268   36.6337 O   0  0  0  0  0  0  0  0  0  0  0  0
   40.7662   38.4805   38.2741 H   0  0  0  0  0  0  0  0  0  0  0  0
   42.4481   37.4763   39.2700 H   0  0  0  0  0  0  0  0  0  0  0  0
   40.7492   35.9002   40.4638 H   0  0  0  0  0  0  0  0  0  0  0  0
   41.4686   33.6729   38.6252 H   0  0  0  0  0  0  0  0  0  0  0  0
   42.1118   34.3788   36.6314 H   0  0  0  0  0  0  0  0  0  0  0  0
   43.3569   36.0547   37.6127 H   0  0  0  0  0  0  0  0  0  0  0  0
   41.5695   37.4719   36.0145 H   0  0  0  0  0  0  0  0  0  0  0  0
  1  2  2  0
  1  6  1  0
  2  3  1  0
  3  4  2  0
  3  8  1  0
  5  4  1  0
  6  5  2  0
  7 15  2  0
  8  7  1  0
  9  8  2  0
  9 10  1  0
 10 14  2  0
 11 10  1  0
 11 12  1  0
 12 13  2  0
 14 13  1  0
 14 15  1  0
 16  1  1  0
 17 16  1  0
 18 17  2  0
 19 20  1  0
 19 18  1  0
 20 21  2  0
 21 17  1  0
  2 22  1  0
  5 23  1  0
  7 24  1  0
  9 25  1  0
 11 26  1  0
 12 27  1  0
 15 28  1  0
 18 29  1  0
 30 31  1  0
 31 32  1  0
 32 33  1  0
 33 34  1  1
 33 35  1  0
 35 36  1  0
 36 37  1  6
 36 38  1  0
 38 39  1  0
 38 31  1  0
 30 40  1  0
 31 41  1  1
 32 42  1  1
 33 43  1  0
 36 44  1  0
 38 45  1  1
 39 46  1  0
 20 32  1  0
M  ISO  8  22  14  23  14  24  14  25  14  26   9  27  14  28  14  29  14
M  ISO  2  34   8  37   8
M  END
>  <DihAtoms>  (1) 
18,19,31,30

>  <DihDeg>  (1) 
123.18564413194228

$$$$
