
     RDKit          3D

 27 28  0  0  0  0  0  0  0  0999 V2000
   45.0018   35.4849   44.1873 C   0  0  0  0  0  0  0  0  0  0  0  0
   45.9772   34.9333   43.3400 C   0  0  0  0  0  0  0  0  0  0  0  0
   46.7135   33.8312   43.8408 C   0  0  0  0  0  0  0  0  0  0  0  0
   46.4417   33.3774   45.0873 N   0  0  0  0  0  0  0  0  0  0  0  0
   45.4956   33.9415   45.8607 C   0  0  0  0  0  0  0  0  0  0  0  0
   44.7804   34.9843   45.4204 N   0  0  0  0  0  0  0  0  0  0  0  0
   44.2877   36.5503   43.7075 O   0  0  0  0  0  0  0  0  0  0  0  0
   46.1735   35.3158   42.3489 H   0  0  0  0  0  0  0  0  0  0  0  0
   45.2501   33.6030   46.8679 H   0  0  0  0  0  0  0  0  0  0  0  0
   44.7226   37.4641   43.7177 H   0  0  0  0  0  0  0  0  0  0  0  0
   48.4876   35.4388   43.2005 O   0  0  0  0  0  0  0  0  0  0  0  0
   48.5629   34.3017   42.3667 C   0  0  1  0  0  0  0  0  0  0  0  0
   47.7564   33.2069   42.9924 C   0  0  2  0  0  0  0  0  0  0  0  0
   47.0151   32.3539   41.9790 C   0  0  1  0  0  0  0  0  0  0  0  0
   47.0310   31.3136   42.3668 H   0  0  0  0  0  0  0  0  0  0  0  0
   47.6383   32.3148   40.7460 O   0  0  0  0  0  0  0  0  0  0  0  0
   47.6847   33.5555   40.1211 C   0  0  1  0  0  0  0  0  0  0  0  0
   48.5210   33.5216   39.3872 H   0  0  0  0  0  0  0  0  0  0  0  0
   47.9276   34.6955   41.0561 C   0  0  2  0  0  0  0  0  0  0  0  0
   48.7677   35.6274   40.4470 O   0  0  0  0  0  0  0  0  0  0  0  0
   49.1772   36.0986   43.0297 H   0  0  0  0  0  0  0  0  0  0  0  0
   49.6252   34.0903   42.2256 H   0  0  0  0  0  0  0  0  0  0  0  0
   48.3723   32.5710   43.6719 H   0  0  0  0  0  0  0  0  0  0  0  0
   45.9300   32.6160   41.9134 H   0  0  0  0  0  0  0  0  0  0  0  0
   46.7463   33.7774   39.5332 H   0  0  0  0  0  0  0  0  0  0  0  0
   46.9639   35.2232   41.2498 H   0  0  0  0  0  0  0  0  0  0  0  0
   49.0455   36.3644   41.0105 H   0  0  0  0  0  0  0  0  0  0  0  0
  1  6  2  0
  2  3  2  0
  2  1  1  0
  3  4  1  0
  4  5  2  0
  6  5  1  0
  7  1  1  0
  2  8  1  0
  5  9  1  0
  7 10  1  0
 11 12  1  0
 12 13  1  0
 13 14  1  0
 14 15  1  1
 14 16  1  0
 16 17  1  0
 17 18  1  6
 17 19  1  0
 19 20  1  0
 19 12  1  0
 11 21  1  0
 12 22  1  6
 13 23  1  1
 14 24  1  0
 17 25  1  0
 19 26  1  1
 20 27  1  0
  3 13  1  0
M  ISO  5   8  14   9  14  10   3  15   8  18   8
M  END
>  <DihAtoms>  (1) 
1,2,12,11

>  <DihDeg>  (1) 
-120.32930638789271

$$$$
