
     RDKit          3D

 27 28  0  0  0  0  0  0  0  0999 V2000
   44.5381   36.0313   44.5308 C   0  0  0  0  0  0  0  0  0  0  0  0
   45.2653   35.8886   43.3162 C   0  0  0  0  0  0  0  0  0  0  0  0
   46.1333   34.7960   43.1999 C   0  0  0  0  0  0  0  0  0  0  0  0
   46.2343   33.9331   44.2501 N   0  0  0  0  0  0  0  0  0  0  0  0
   45.5211   34.1047   45.3954 C   0  0  0  0  0  0  0  0  0  0  0  0
   44.6864   35.1359   45.5356 N   0  0  0  0  0  0  0  0  0  0  0  0
   47.0725   34.5634   41.7010 S   0  0  0  0  0  0  0  0  0  0  0  0
   43.8722   36.8792   44.6060 H   0  0  0  0  0  0  0  0  0  0  0  0
   45.1373   36.6121   42.5202 H   0  0  0  0  0  0  0  0  0  0  0  0
   47.5826   35.8053   41.2858 H   0  0  0  0  0  0  0  0  0  0  0  0
   43.3454   33.2910   46.7702 O   0  0  0  0  0  0  0  0  0  0  0  0
   44.4202   32.4394   46.8763 C   0  0  2  0  0  0  0  0  0  0  0  0
   45.7197   33.0906   46.4735 C   0  0  1  0  0  0  0  0  0  0  0  0
   46.7065   32.0254   46.1046 C   0  0  1  0  0  0  0  0  0  0  0  0
   46.6376   31.7521   45.0164 H   0  0  0  0  0  0  0  0  0  0  0  0
   46.3694   30.8760   46.8457 O   0  0  0  0  0  0  0  0  0  0  0  0
   45.3290   30.2342   46.1502 C   0  0  2  0  0  0  0  0  0  0  0  0
   45.1170   29.2676   46.6548 H   0  0  0  0  0  0  0  0  0  0  0  0
   44.1371   31.1526   46.1186 C   0  0  1  0  0  0  0  0  0  0  0  0
   43.0926   30.5181   46.8111 O   0  0  0  0  0  0  0  0  0  0  0  0
   43.3179   33.8288   45.9427 H   0  0  0  0  0  0  0  0  0  0  0  0
   44.5099   32.1342   47.9455 H   0  0  0  0  0  0  0  0  0  0  0  0
   46.1023   33.6303   47.3780 H   0  0  0  0  0  0  0  0  0  0  0  0
   47.7529   32.3004   46.3953 H   0  0  0  0  0  0  0  0  0  0  0  0
   45.7202   30.0663   45.1058 H   0  0  0  0  0  0  0  0  0  0  0  0
   43.7878   31.3449   45.0696 H   0  0  0  0  0  0  0  0  0  0  0  0
   42.5009   31.2202   47.2038 H   0  0  0  0  0  0  0  0  0  0  0  0
  1  6  2  0
  2  1  1  0
  3  2  2  0
  3  4  1  0
  4  5  2  0
  5  6  1  0
  7  3  1  0
  1  8  1  0
  2  9  1  0
  7 10  1  0
 11 12  1  0
 12 13  1  0
 13 14  1  0
 14 15  1  6
 14 16  1  0
 16 17  1  0
 17 18  1  1
 17 19  1  0
 19 20  1  0
 19 12  1  0
 11 21  1  0
 12 22  1  1
 13 23  1  1
 14 24  1  0
 17 25  1  0
 19 26  1  6
 20 27  1  0
  5 13  1  0
M  ISO  5   8  14   9  14  10  11  15   8  18   8
M  END
>  <DihAtoms>  (1) 
3,4,12,11

>  <DihDeg>  (1) 
116.73696216272855

$$$$
