
     RDKit          3D

 27 28  0  0  0  0  0  0  0  0999 V2000
   45.0018   35.4849   44.1873 C   0  0  0  0  0  0  0  0  0  0  0  0
   45.9772   34.9333   43.3400 C   0  0  0  0  0  0  0  0  0  0  0  0
   46.7135   33.8312   43.8408 C   0  0  0  0  0  0  0  0  0  0  0  0
   46.4417   33.3774   45.0873 N   0  0  0  0  0  0  0  0  0  0  0  0
   45.4956   33.9415   45.8607 C   0  0  0  0  0  0  0  0  0  0  0  0
   44.7804   34.9843   45.4204 N   0  0  0  0  0  0  0  0  0  0  0  0
   44.2877   36.5503   43.7075 O   0  0  0  0  0  0  0  0  0  0  0  0
   46.1735   35.3158   42.3489 H   0  0  0  0  0  0  0  0  0  0  0  0
   45.2501   33.6030   46.8679 H   0  0  0  0  0  0  0  0  0  0  0  0
   44.7226   37.4641   43.7177 H   0  0  0  0  0  0  0  0  0  0  0  0
   48.2340   32.3724   45.1452 O   0  0  0  0  0  0  0  0  0  0  0  0
   48.8188   32.6566   43.8918 C   0  0  1  0  0  0  0  0  0  0  0  0
   47.7564   33.2069   42.9924 C   0  0  2  0  0  0  0  0  0  0  0  0
   48.2590   34.3047   42.0725 C   0  0  1  0  0  0  0  0  0  0  0  0
   47.7233   34.1811   41.1077 H   0  0  0  0  0  0  0  0  0  0  0  0
   49.6056   34.1929   41.7823 O   0  0  0  0  0  0  0  0  0  0  0  0
   50.4166   34.3410   42.9014 C   0  0  1  0  0  0  0  0  0  0  0  0
   51.3858   33.8439   42.6716 H   0  0  0  0  0  0  0  0  0  0  0  0
   49.8558   33.7238   44.1413 C   0  0  2  0  0  0  0  0  0  0  0  0
   50.8860   33.1420   44.8798 O   0  0  0  0  0  0  0  0  0  0  0  0
   48.7599   31.7746   45.6986 H   0  0  0  0  0  0  0  0  0  0  0  0
   49.2968   31.7337   43.5560 H   0  0  0  0  0  0  0  0  0  0  0  0
   47.2456   32.4037   42.4099 H   0  0  0  0  0  0  0  0  0  0  0  0
   47.9707   35.3247   42.4286 H   0  0  0  0  0  0  0  0  0  0  0  0
   50.6518   35.4230   43.1231 H   0  0  0  0  0  0  0  0  0  0  0  0
   49.4226   34.5246   44.7863 H   0  0  0  0  0  0  0  0  0  0  0  0
   50.6048   32.6467   45.6630 H   0  0  0  0  0  0  0  0  0  0  0  0
  1  6  2  0
  2  3  2  0
  2  1  1  0
  3  4  1  0
  4  5  2  0
  6  5  1  0
  7  1  1  0
  2  8  1  0
  5  9  1  0
  7 10  1  0
 11 12  1  0
 12 13  1  0
 13 14  1  0
 14 15  1  6
 14 16  1  0
 16 17  1  0
 17 18  1  6
 17 19  1  0
 19 20  1  0
 19 12  1  0
 11 21  1  0
 12 22  1  6
 13 23  1  6
 14 24  1  0
 17 25  1  0
 19 26  1  1
 20 27  1  0
  3 13  1  0
M  ISO  5   8  14   9  14  10   3  15   8  18   8
M  END
>  <DihAtoms>  (1) 
1,2,12,11

>  <DihDeg>  (1) 
-120.32930638789271

$$$$
