
     RDKit          3D

 46 50  0  0  0  0  0  0  0  0999 V2000
   45.4961   34.8286   43.5383 C   0  0  0  0  0  0  0  0  0  0  0  0
   46.2068   33.7481   44.1195 C   0  0  0  0  0  0  0  0  0  0  0  0
   46.0043   33.5221   45.4800 C   0  0  0  0  0  0  0  0  0  0  0  0
   45.1743   34.3087   46.1599 N   0  0  0  0  0  0  0  0  0  0  0  0
   44.5047   35.3370   45.5828 C   0  0  0  0  0  0  0  0  0  0  0  0
   44.6693   35.5865   44.2886 N   0  0  0  0  0  0  0  0  0  0  0  0
   47.0123   32.6992   47.5352 C   0  0  0  0  0  0  0  0  0  0  0  0
   46.6794   32.4356   46.2046 C   0  0  0  0  0  0  0  0  0  0  0  0
   46.9943   31.2250   45.6834 C   0  0  0  0  0  0  0  0  0  0  0  0
   47.6304   30.2358   46.4055 C   0  0  0  0  0  0  0  0  0  0  0  0
   48.0287   28.9854   46.0885 N   0  0  0  0  0  0  0  0  0  0  0  0
   48.6193   28.4496   47.2253 C   0  0  0  0  0  0  0  0  0  0  0  0
   48.5639   29.3891   48.2026 N   0  0  0  0  0  0  0  0  0  0  0  0
   47.9656   30.4726   47.7102 C   0  0  0  0  0  0  0  0  0  0  0  0
   47.6591   31.6949   48.2713 C   0  0  0  0  0  0  0  0  0  0  0  0
   45.6911   35.0647   42.1759 O   0  0  0  0  0  0  0  0  0  0  0  0
   44.6296   34.9161   41.2898 C   0  0  0  0  0  0  0  0  0  0  0  0
   45.0081   33.8166   40.6127 C   0  0  0  0  0  0  0  0  0  0  0  0
   43.5636   33.5944   39.3933 S   0  0  0  0  0  0  0  0  0  0  0  0
   42.7375   35.1299   40.1265 C   0  0  0  0  0  0  0  0  0  0  0  0
   43.4765   35.4108   40.8940 N   0  0  0  0  0  0  0  0  0  0  0  0
   46.8696   33.1148   43.5912 H   0  0  0  0  0  0  0  0  0  0  0  0
   43.8529   35.9170   46.2244 H   0  0  0  0  0  0  0  0  0  0  0  0
   46.8187   33.6256   48.0777 H   0  0  0  0  0  0  0  0  0  0  0  0
   46.7207   31.0591   44.6518 H   0  0  0  0  0  0  0  0  0  0  0  0
   47.9270   28.4862   45.1721 H   0  0  0  0  0  0  0  0  0  0  0  0
   49.0378   27.4542   47.2801 H   0  0  0  0  0  0  0  0  0  0  0  0
   47.9410   31.8433   49.3065 H   0  0  0  0  0  0  0  0  0  0  0  0
   45.7309   32.9356   40.3688 H   0  0  0  0  0  0  0  0  0  0  0  0
   39.7665   37.2154   40.2455 O   0  0  0  0  0  0  0  0  0  0  0  0
   41.1326   36.8872   40.3779 C   0  0  1  0  0  0  0  0  0  0  0  0
   41.4350   35.6341   39.6334 C   0  0  1  0  0  0  0  0  0  0  0  0
   41.5867   35.9318   38.1573 C   0  0  2  0  0  0  0  0  0  0  0  0
   41.0365   35.2080   37.5231 H   0  0  0  0  0  0  0  0  0  0  0  0
   41.1463   37.2273   37.8511 O   0  0  0  0  0  0  0  0  0  0  0  0
   41.9917   38.1615   38.4495 C   0  0  2  0  0  0  0  0  0  0  0  0
   41.5644   39.1547   38.1746 H   0  0  0  0  0  0  0  0  0  0  0  0
   41.9968   38.0215   39.9396 C   0  0  1  0  0  0  0  0  0  0  0  0
   41.5081   39.1783   40.5620 O   0  0  0  0  0  0  0  0  0  0  0  0
   39.4837   37.8173   40.9836 H   0  0  0  0  0  0  0  0  0  0  0  0
   41.3174   36.7093   41.4725 H   0  0  0  0  0  0  0  0  0  0  0  0
   40.6270   34.8824   39.7459 H   0  0  0  0  0  0  0  0  0  0  0  0
   42.6415   35.9025   37.8069 H   0  0  0  0  0  0  0  0  0  0  0  0
   43.0159   38.0709   38.0184 H   0  0  0  0  0  0  0  0  0  0  0  0
   43.0314   37.8568   40.3153 H   0  0  0  0  0  0  0  0  0  0  0  0
   40.9529   39.6589   39.8796 H   0  0  0  0  0  0  0  0  0  0  0  0
  1  2  2  0
  1  6  1  0
  2  3  1  0
  3  4  2  0
  3  8  1  0
  5  4  1  0
  6  5  2  0
  7 15  2  0
  8  7  1  0
  9  8  2  0
  9 10  1  0
 10 14  2  0
 11 10  1  0
 11 12  1  0
 12 13  2  0
 14 13  1  0
 14 15  1  0
 16  1  1  0
 17 16  1  0
 18 17  2  0
 19 20  1  0
 19 18  1  0
 20 21  2  0
 21 17  1  0
  2 22  1  0
  5 23  1  0
  7 24  1  0
  9 25  1  0
 11 26  1  0
 12 27  1  0
 15 28  1  0
 18 29  1  0
 30 31  1  0
 31 32  1  0
 32 33  1  0
 33 34  1  6
 33 35  1  0
 35 36  1  0
 36 37  1  1
 36 38  1  0
 38 39  1  0
 38 31  1  0
 30 40  1  0
 31 41  1  1
 32 42  1  6
 33 43  1  0
 36 44  1  0
 38 45  1  1
 39 46  1  0
 20 32  1  0
M  ISO  8  22  14  23  14  24  14  25  14  26   9  27  14  28  14  29  14
M  ISO  2  34   8  37   8
M  END
>  <DihAtoms>  (1) 
18,19,31,30

>  <DihDeg>  (1) 
123.18564413194228

$$$$
