
     RDKit          3D

 55 59  0  0  0  0  0  0  0  0999 V2000
   45.7896   30.0488   48.4398 C   0  0  0  0  0  0  0  0  0  0  0  0
   45.0102   27.6564   48.0195 C   0  0  0  0  0  0  0  0  0  0  0  0
   45.0579   29.0068   47.7520 C   0  0  0  0  0  0  0  0  0  0  0  0
   44.3000   29.4457   46.6697 C   0  0  0  0  0  0  0  0  0  0  0  0
   43.5494   28.5838   45.9138 C   0  0  0  0  0  0  0  0  0  0  0  0
   42.7397   28.7214   44.8382 N   0  0  0  0  0  0  0  0  0  0  0  0
   42.2232   27.5469   44.4596 C   0  0  0  0  0  0  0  0  0  0  0  0
   42.7027   26.5578   45.3176 C   0  0  0  0  0  0  0  0  0  0  0  0
   43.5028   27.2476   46.1792 C   0  0  0  0  0  0  0  0  0  0  0  0
   44.2498   26.7996   47.2497 C   0  0  0  0  0  0  0  0  0  0  0  0
   44.2441   25.3740   47.5896 C   0  0  0  0  0  0  0  0  0  0  0  0
   44.9164   24.9300   48.5527 O   0  0  0  0  0  0  0  0  0  0  0  0
   47.1395   30.3840   47.9272 C   0  0  0  0  0  0  0  0  0  0  0  0
   46.5115   32.7122   45.2857 C   0  0  0  0  0  0  0  0  0  0  0  0
   47.2612   31.7217   44.6257 C   0  0  0  0  0  0  0  0  0  0  0  0
   47.5783   30.7551   45.5138 C   0  0  0  0  0  0  0  0  0  0  0  0
   47.0497   31.1268   46.6759 N   0  0  0  0  0  0  0  0  0  0  0  0
   46.4121   32.2877   46.5581 N   0  0  0  0  0  0  0  0  0  0  0  0
   44.5746   35.7603   44.7414 C   0  0  0  0  0  0  0  0  0  0  0  0
   44.9877   36.1812   43.4897 C   0  0  0  0  0  0  0  0  0  0  0  0
   45.9408   35.4116   42.8251 C   0  0  0  0  0  0  0  0  0  0  0  0
   46.3889   34.3074   43.4607 N   0  0  0  0  0  0  0  0  0  0  0  0
   45.9940   33.9039   44.6584 C   0  0  0  0  0  0  0  0  0  0  0  0
   45.0768   34.6462   45.2959 N   0  0  0  0  0  0  0  0  0  0  0  0
   45.1997   31.0072   48.5038 H   0  0  0  0  0  0  0  0  0  0  0  0
   45.9115   29.7527   49.5208 H   0  0  0  0  0  0  0  0  0  0  0  0
   45.6113   27.3456   48.8687 H   0  0  0  0  0  0  0  0  0  0  0  0
   44.2434   30.4858   46.3436 H   0  0  0  0  0  0  0  0  0  0  0  0
   42.5334   29.6416   44.3486 H   0  0  0  0  0  0  0  0  0  0  0  0
   41.5445   27.3835   43.6261 H   0  0  0  0  0  0  0  0  0  0  0  0
   42.4412   25.5161   45.2348 H   0  0  0  0  0  0  0  0  0  0  0  0
   43.6538   24.6772   47.0085 H   0  0  0  0  0  0  0  0  0  0  0  0
   47.6338   31.0457   48.6631 H   0  0  0  0  0  0  0  0  0  0  0  0
   47.7030   29.4565   47.7838 H   0  0  0  0  0  0  0  0  0  0  0  0
   47.5266   31.7503   43.5836 H   0  0  0  0  0  0  0  0  0  0  0  0
   48.1492   29.8719   45.2860 H   0  0  0  0  0  0  0  0  0  0  0  0
   43.8327   36.3890   45.2208 H   0  0  0  0  0  0  0  0  0  0  0  0
   44.6453   37.0498   42.9725 H   0  0  0  0  0  0  0  0  0  0  0  0
   48.6037   35.1152   40.5149 O   0  0  0  0  0  0  0  0  0  0  0  0
   47.9946   35.8521   41.5182 C   0  0  2  0  0  0  0  0  0  0  0  0
   46.5030   35.7130   41.4686 C   0  0  2  0  0  0  0  0  0  0  0  0
   45.7902   36.9342   40.9542 C   0  0  1  0  0  0  0  0  0  0  0  0
   44.7636   36.6019   40.6826 H   0  0  0  0  0  0  0  0  0  0  0  0
   46.3797   37.5041   39.8476 O   0  0  0  0  0  0  0  0  0  0  0  0
   47.7276   37.7269   39.9815 C   0  0  1  0  0  0  0  0  0  0  0  0
   48.3192   37.2291   39.1707 H   0  0  0  0  0  0  0  0  0  0  0  0
   48.3112   37.3160   41.2937 C   0  0  2  0  0  0  0  0  0  0  0  0
   49.6847   37.5314   41.2486 O   0  0  0  0  0  0  0  0  0  0  0  0
   47.8927   34.8047   39.8934 H   0  0  0  0  0  0  0  0  0  0  0  0
   48.4234   35.5182   42.4814 H   0  0  0  0  0  0  0  0  0  0  0  0
   46.2517   34.8350   40.8149 H   0  0  0  0  0  0  0  0  0  0  0  0
   45.6698   37.6663   41.7876 H   0  0  0  0  0  0  0  0  0  0  0  0
   47.9205   38.8305   39.8670 H   0  0  0  0  0  0  0  0  0  0  0  0
   47.8867   37.8934   42.1414 H   0  0  0  0  0  0  0  0  0  0  0  0
   50.1650   36.7861   40.7865 H   0  0  0  0  0  0  0  0  0  0  0  0
  3  2  2  0
  3  1  1  0
  4  3  1  0
  5  9  1  0
  5  4  2  0
  6  5  1  0
  7  6  1  0
  7  8  2  0
  8  9  1  0
  9 10  2  0
 10 11  1  0
 10  2  1  0
 11 12  2  0
 13  1  1  0
 14 18  2  0
 15 14  1  0
 15 16  2  0
 16 17  1  0
 17 13  1  0
 18 17  1  0
 19 24  2  0
 20 19  1  0
 21 22  1  0
 21 20  2  0
 22 23  2  0
 23 14  1  0
 23 24  1  0
  1 25  1  0
  1 26  1  0
  2 27  1  0
  4 28  1  0
  6 29  1  0
  7 30  1  0
  8 31  1  0
 11 32  1  0
 13 33  1  0
 13 34  1  0
 15 35  1  0
 16 36  1  0
 19 37  1  0
 20 38  1  0
 39 40  1  0
 40 41  1  0
 41 42  1  0
 42 43  1  6
 42 44  1  0
 44 45  1  0
 45 46  1  6
 45 47  1  0
 47 48  1  0
 47 40  1  0
 39 49  1  0
 40 50  1  1
 41 51  1  6
 42 52  1  0
 45 53  1  0
 47 54  1  1
 48 55  1  0
 21 41  1  0
M  ISO  8  25   8  26   8  27  14  28  14  29   9  30  14  31  14  32   6
M  ISO  8  33   8  34   8  35  14  36  14  37  14  38  14  43   8  46   8
M  END
>  <DihAtoms>  (1) 
21,20,40,39

>  <DihDeg>  (1) 
62.111278278832785

$$$$
