
     RDKit          3D

 27 28  0  0  0  0  0  0  0  0999 V2000
   44.5381   36.0313   44.5308 C   0  0  0  0  0  0  0  0  0  0  0  0
   45.2653   35.8886   43.3162 C   0  0  0  0  0  0  0  0  0  0  0  0
   46.1333   34.7960   43.1999 C   0  0  0  0  0  0  0  0  0  0  0  0
   46.2343   33.9331   44.2501 N   0  0  0  0  0  0  0  0  0  0  0  0
   45.5211   34.1047   45.3954 C   0  0  0  0  0  0  0  0  0  0  0  0
   44.6864   35.1359   45.5356 N   0  0  0  0  0  0  0  0  0  0  0  0
   47.0725   34.5634   41.7010 S   0  0  0  0  0  0  0  0  0  0  0  0
   43.8722   36.8792   44.6060 H   0  0  0  0  0  0  0  0  0  0  0  0
   45.1373   36.6121   42.5202 H   0  0  0  0  0  0  0  0  0  0  0  0
   47.5826   35.8053   41.2858 H   0  0  0  0  0  0  0  0  0  0  0  0
   47.5438   32.3414   45.1036 O   0  0  0  0  0  0  0  0  0  0  0  0
   47.0824   32.4489   46.3947 C   0  0  2  0  0  0  0  0  0  0  0  0
   45.7197   33.0906   46.4735 C   0  0  1  0  0  0  0  0  0  0  0  0
   45.5209   33.6484   47.8497 C   0  0  1  0  0  0  0  0  0  0  0  0
   45.8974   34.7045   47.9299 H   0  0  0  0  0  0  0  0  0  0  0  0
   46.2914   32.8626   48.7288 O   0  0  0  0  0  0  0  0  0  0  0  0
   47.6094   33.3484   48.6595 C   0  0  2  0  0  0  0  0  0  0  0  0
   48.2169   32.8179   49.4232 H   0  0  0  0  0  0  0  0  0  0  0  0
   48.1210   33.1450   47.2588 C   0  0  1  0  0  0  0  0  0  0  0  0
   49.2160   32.2680   47.3291 O   0  0  0  0  0  0  0  0  0  0  0  0
   47.4147   33.1451   44.5450 H   0  0  0  0  0  0  0  0  0  0  0  0
   46.9978   31.4186   46.8141 H   0  0  0  0  0  0  0  0  0  0  0  0
   44.9701   32.2737   46.3105 H   0  0  0  0  0  0  0  0  0  0  0  0
   44.4570   33.5630   48.1901 H   0  0  0  0  0  0  0  0  0  0  0  0
   47.5399   34.4496   48.8936 H   0  0  0  0  0  0  0  0  0  0  0  0
   48.4785   34.1061   46.8028 H   0  0  0  0  0  0  0  0  0  0  0  0
   49.2742   31.7648   46.4684 H   0  0  0  0  0  0  0  0  0  0  0  0
  1  6  2  0
  2  1  1  0
  3  2  2  0
  3  4  1  0
  4  5  2  0
  5  6  1  0
  7  3  1  0
  1  8  1  0
  2  9  1  0
  7 10  1  0
 11 12  1  0
 12 13  1  0
 13 14  1  0
 14 15  1  6
 14 16  1  0
 16 17  1  0
 17 18  1  1
 17 19  1  0
 19 20  1  0
 19 12  1  0
 11 21  1  0
 12 22  1  1
 13 23  1  6
 14 24  1  0
 17 25  1  0
 19 26  1  6
 20 27  1  0
  5 13  1  0
M  ISO  5   8  14   9  14  10  11  15   8  18   8
M  END
>  <DihAtoms>  (1) 
3,4,12,11

>  <DihDeg>  (1) 
116.73696216272855

$$$$
