
     RDKit          3D

 27 28  0  0  0  0  0  0  0  0999 V2000
   44.5381   36.0313   44.5308 C   0  0  0  0  0  0  0  0  0  0  0  0
   45.2653   35.8886   43.3162 C   0  0  0  0  0  0  0  0  0  0  0  0
   46.1333   34.7960   43.1999 C   0  0  0  0  0  0  0  0  0  0  0  0
   46.2343   33.9331   44.2501 N   0  0  0  0  0  0  0  0  0  0  0  0
   45.5211   34.1047   45.3954 C   0  0  0  0  0  0  0  0  0  0  0  0
   44.6864   35.1359   45.5356 N   0  0  0  0  0  0  0  0  0  0  0  0
   47.0725   34.5634   41.7010 S   0  0  0  0  0  0  0  0  0  0  0  0
   43.8722   36.8792   44.6060 H   0  0  0  0  0  0  0  0  0  0  0  0
   45.1373   36.6121   42.5202 H   0  0  0  0  0  0  0  0  0  0  0  0
   47.5826   35.8053   41.2858 H   0  0  0  0  0  0  0  0  0  0  0  0
   43.5148   33.7435   47.1647 O   0  0  0  0  0  0  0  0  0  0  0  0
   44.4161   32.7053   47.1271 C   0  0  2  0  0  0  0  0  0  0  0  0
   45.7197   33.0906   46.4735 C   0  0  1  0  0  0  0  0  0  0  0  0
   46.4117   31.8510   45.9949 C   0  0  1  0  0  0  0  0  0  0  0  0
   46.1001   31.5765   44.9503 H   0  0  0  0  0  0  0  0  0  0  0  0
   46.0073   30.7998   46.8408 O   0  0  0  0  0  0  0  0  0  0  0  0
   44.7592   30.3552   46.3689 C   0  0  2  0  0  0  0  0  0  0  0  0
   44.4671   29.4555   46.9512 H   0  0  0  0  0  0  0  0  0  0  0  0
   43.7704   31.4825   46.4965 C   0  0  1  0  0  0  0  0  0  0  0  0
   42.7683   31.0703   47.3903 O   0  0  0  0  0  0  0  0  0  0  0  0
   43.4390   34.2620   46.3279 H   0  0  0  0  0  0  0  0  0  0  0  0
   44.6382   32.4076   48.1790 H   0  0  0  0  0  0  0  0  0  0  0  0
   46.3507   33.5637   47.2697 H   0  0  0  0  0  0  0  0  0  0  0  0
   47.5256   31.9274   46.0862 H   0  0  0  0  0  0  0  0  0  0  0  0
   44.9195   30.0975   45.2826 H   0  0  0  0  0  0  0  0  0  0  0  0
   43.2803   31.7190   45.5150 H   0  0  0  0  0  0  0  0  0  0  0  0
   42.3957   31.8788   47.8427 H   0  0  0  0  0  0  0  0  0  0  0  0
  1  6  2  0
  2  1  1  0
  3  2  2  0
  3  4  1  0
  4  5  2  0
  5  6  1  0
  7  3  1  0
  1  8  1  0
  2  9  1  0
  7 10  1  0
 11 12  1  0
 12 13  1  0
 13 14  1  0
 14 15  1  6
 14 16  1  0
 16 17  1  0
 17 18  1  1
 17 19  1  0
 19 20  1  0
 19 12  1  0
 11 21  1  0
 12 22  1  1
 13 23  1  1
 14 24  1  0
 17 25  1  0
 19 26  1  6
 20 27  1  0
  5 13  1  0
M  ISO  5   8  14   9  14  10  11  15   8  18   8
M  END
>  <DihAtoms>  (1) 
3,4,12,11

>  <DihDeg>  (1) 
116.73696216272855

$$$$
