
     RDKit          3D

 50 52  0  0  1  0  0  0  0  0999 V2000
   42.0500   35.3350   40.4270 C   0  0  0  0  0  0  0  0  0  0  0  0
   41.3660   33.0040   40.1330 C   0  0  0  0  0  0  0  0  0  0  0  0
   41.1480   34.2090   40.8400 C   0  0  0  0  0  0  0  0  0  0  0  0
   40.1740   34.2070   41.7860 C   0  0  0  0  0  0  0  0  0  0  0  0
   39.5060   33.0810   41.9740 N   0  0  0  0  0  0  0  0  0  0  0  0
   39.7050   31.9550   41.3160 C   0  0  0  0  0  0  0  0  0  0  0  0
   40.6840   31.8740   40.3310 N   0  0  0  0  0  0  0  0  0  0  0  0
   37.5950   30.7720   40.8560 C   0  0  1  0  0  0  0  0  0  0  0  0
   38.9090   30.7240   41.5850 C   0  0  1  0  0  0  0  0  0  0  0  0
   39.6800   29.4770   41.1820 C   0  0  0  0  0  0  0  0  0  0  0  0
   38.8600   28.3710   41.1020 O   0  0  0  0  0  0  0  0  0  0  0  0
   38.0990   28.4870   39.9580 C   0  0  0  0  0  0  0  0  0  0  0  0
   37.6240   29.8690   39.6570 C   0  0  2  0  0  0  0  0  0  0  0  0
   36.5130   30.4880   41.6920 O   0  0  0  0  0  0  0  0  0  0  0  0
   38.4850   30.4620   38.7050 O   0  0  0  0  0  0  0  0  0  0  0  0
   43.3230   34.9180   40.1720 O   0  0  0  0  0  0  0  0  0  0  0  0
   44.3780   34.7900   41.0620 C   0  0  0  0  0  0  0  0  0  0  0  0
   44.2430   35.4310   42.2180 C   0  0  0  0  0  0  0  0  0  0  0  0
   45.2550   35.4420   43.3500 C   0  0  0  0  0  0  0  0  0  0  0  0
   44.8850   34.4520   44.2390 O   0  0  0  0  0  0  0  0  0  0  0  0
   45.8200   32.2970   42.9850 O   0  0  0  0  0  0  0  0  0  0  0  0
   45.9860   33.1760   44.2020 P   0  0  1  0  0  0  0  0  0  0  0  0
   47.5810   33.7800   44.1600 O   0  0  0  0  0  0  0  0  0  0  0  0
   45.8510   32.2490   45.6070 O   0  0  0  0  0  0  0  0  0  0  0  0
   46.1650   32.9650   46.7400 C   0  0  0  0  0  0  0  0  0  0  0  0
   47.0620   32.3510   47.7690 C   0  0  0  0  0  0  0  0  0  0  0  0
   45.5770   32.4480   48.0290 C   0  0  0  0  0  0  0  0  0  0  0  0
   41.6416   35.7983   39.5168 H   0  0  0  0  0  0  0  0  0  0  0  0
   42.0937   36.0511   41.2608 H   0  0  0  0  0  0  0  0  0  0  0  0
   42.1537   32.9975   39.3652 H   0  0  0  0  0  0  0  0  0  0  0  0
   39.9487   35.1087   42.3744 H   0  0  0  0  0  0  0  0  0  0  0  0
   37.4488   31.8041   40.5046 H   0  0  0  0  0  0  0  0  0  0  0  0
   38.7146   30.6801   42.6668 H   0  0  0  0  0  0  0  0  0  0  0  0
   40.1445   29.6476   40.1996 H   0  0  0  0  0  0  0  0  0  0  0  0
   40.4418   29.2827   41.9513 H   0  0  0  0  0  0  0  0  0  0  0  0
   38.7053   28.1413   39.1078 H   0  0  0  0  0  0  0  0  0  0  0  0
   37.1968   27.8801   40.1247 H   0  0  0  0  0  0  0  0  0  0  0  0
   36.5940   29.7617   39.2860 H   0  0  0  0  0  0  0  0  0  0  0  0
   36.7978   30.5627   42.6372 H   0  0  0  0  0  0  0  0  0  0  0  0
   39.2035   30.9569   39.1729 H   0  0  0  0  0  0  0  0  0  0  0  0
   45.2721   34.1943   40.8257 H   0  0  0  0  0  0  0  0  0  0  0  0
   43.3163   36.0043   42.3682 H   0  0  0  0  0  0  0  0  0  0  0  0
   46.2620   35.2384   42.9571 H   0  0  0  0  0  0  0  0  0  0  0  0
   45.2754   36.4238   43.8456 H   0  0  0  0  0  0  0  0  0  0  0  0
   47.9110   33.9050   45.0850 H   0  0  0  0  0  0  0  0  0  0  0  0
   46.1791   33.9227   46.1991 H   0  0  0  0  0  0  0  0  0  0  0  0
   47.5240   31.3706   47.5806 H   0  0  0  0  0  0  0  0  0  0  0  0
   47.9669   32.6755   48.3036 H   0  0  0  0  0  0  0  0  0  0  0  0
   45.1938   33.1524   48.7820 H   0  0  0  0  0  0  0  0  0  0  0  0
   44.7823   31.7352   48.2945 H   0  0  0  0  0  0  0  0  0  0  0  0
  1  3  1  0
  2  7  2  0
  2  3  1  0
  3  4  2  0
  4  5  1  0
  6  5  2  0
  7  6  1  0
  8  9  1  0
  8 14  1  0
  9  6  1  0
 10  9  1  0
 11 10  1  0
 12 11  1  0
 13 15  1  0
 13 12  1  0
 13  8  1  0
 16  1  1  0
 16 17  1  0
 17 18  2  0
 18 19  1  0
 19 20  1  0
 22 21  2  0
 22 20  1  0
 22 24  1  0
 23 22  1  0
 24 25  1  0
 25 26  1  0
 25 27  1  0
 26 27  1  0
  1 28  1  0
  1 29  1  0
  2 30  1  0
  4 31  1  0
  8 32  1  6
  9 33  1  1
 10 34  1  0
 10 35  1  0
 12 36  1  0
 12 37  1  0
 13 38  1  6
 14 39  1  0
 15 40  1  0
 17 41  1  0
 18 42  1  0
 19 43  1  0
 19 44  1  0
 23 45  1  0
 25 46  1  0
 26 47  1  0
 26 48  1  0
 27 49  1  0
 27 50  1  0
M  ISO  8  28   8  29   8  30  14  31  14  32  13  33  13  34  13  35  13
M  ISO  8  36  13  37  13  38  13  39   3  40   3  43   8  44   8  45   3
M  ISO  5  46  13  47  13  48  13  49  13  50  13
M  END
>  <minimizedAffinity>  (1) 
-5.41756916

>  <minimizedRMSD>  (1) 
2.0356524

$$$$
