
     RDKit          3D

 45 47  0  0  0  0  0  0  0  0999 V2000
   47.3071   32.6953   47.5077 O   0  0  0  0  0  0  0  0  0  0  0  0
   45.9979   32.3261   46.8672 P   0  0  2  0  0  0  0  0  0  0  0  0
   46.2964   31.2080   45.6296 O   0  0  0  0  0  0  0  0  0  0  0  0
   45.3342   33.7742   46.2453 O   0  0  0  0  0  0  0  0  0  0  0  0
   45.2239   35.8298   43.3279 C   0  0  0  0  0  0  0  0  0  0  0  0
   46.2702   35.3261   42.5098 C   0  0  0  0  0  0  0  0  0  0  0  0
   47.0115   34.2476   43.0142 C   0  0  0  0  0  0  0  0  0  0  0  0
   46.6797   33.7647   44.2378 N   0  0  0  0  0  0  0  0  0  0  0  0
   45.6800   34.2697   44.9830 C   0  0  0  0  0  0  0  0  0  0  0  0
   44.9584   35.3001   44.5220 N   0  0  0  0  0  0  0  0  0  0  0  0
   44.4968   36.8907   42.8317 O   0  0  0  0  0  0  0  0  0  0  0  0
   45.0300   31.6252   48.0275 O   0  0  0  0  0  0  0  0  0  0  0  0
   46.7888   29.9969   48.0647 C   0  0  2  0  0  0  0  0  0  0  0  0
   45.3394   30.2879   48.1444 C   0  0  2  0  0  0  0  0  0  0  0  0
   44.7491   29.4572   47.0653 C   0  0  0  0  0  0  0  0  0  0  0  0
   45.5476   28.3367   46.9232 O   0  0  0  0  0  0  0  0  0  0  0  0
   46.6878   28.5123   47.6375 C   0  0  0  0  0  0  0  0  0  0  0  0
   47.4493   30.1395   49.2573 O   0  0  0  0  0  0  0  0  0  0  0  0
   47.0148   31.5357   45.0323 H   0  0  0  0  0  0  0  0  0  0  0  0
   46.5048   35.7397   41.5355 H   0  0  0  0  0  0  0  0  0  0  0  0
   47.8197   33.8198   42.4413 H   0  0  0  0  0  0  0  0  0  0  0  0
   43.9796   37.5316   43.4164 H   0  0  0  0  0  0  0  0  0  0  0  0
   47.4653   30.3834   47.3601 H   0  0  0  0  0  0  0  0  0  0  0  0
   45.0200   29.9619   49.1548 H   0  0  0  0  0  0  0  0  0  0  0  0
   44.4072   29.9400   46.1571 H   0  0  0  0  0  0  0  0  0  0  0  0
   43.7885   29.0307   47.4932 H   0  0  0  0  0  0  0  0  0  0  0  0
   46.6459   27.8643   48.5348 H   0  0  0  0  0  0  0  0  0  0  0  0
   47.5536   28.1769   47.0630 H   0  0  0  0  0  0  0  0  0  0  0  0
   49.9250   32.6805   49.4161 O   0  0  0  0  0  0  0  0  0  0  0  0
   48.8198   32.0640   48.8303 C   0  0  2  0  0  0  0  0  0  0  0  0
   48.6949   30.6042   49.3402 C   0  0  2  0  0  0  0  0  0  0  0  0
   49.5903   29.8244   48.4069 C   0  0  1  0  0  0  0  0  0  0  0  0
   49.8132   28.8063   48.7012 H   0  0  0  0  0  0  0  0  0  0  0  0
   50.7649   30.5176   48.1223 O   0  0  0  0  0  0  0  0  0  0  0  0
   50.5373   31.5119   47.1745 C   0  0  1  0  0  0  0  0  0  0  0  0
   51.2518   32.3244   47.4151 H   0  0  0  0  0  0  0  0  0  0  0  0
   49.1453   32.0604   47.3313 C   0  0  2  0  0  0  0  0  0  0  0  0
   49.2001   33.4178   46.9845 O   0  0  0  0  0  0  0  0  0  0  0  0
   49.8585   33.6312   49.1913 H   0  0  0  0  0  0  0  0  0  0  0  0
   47.8802   32.6147   48.9352 H   0  0  0  0  0  0  0  0  0  0  0  0
   49.1602   30.6459   50.3346 H   0  0  0  0  0  0  0  0  0  0  0  0
   49.0378   29.7718   47.4211 H   0  0  0  0  0  0  0  0  0  0  0  0
   50.7473   31.2127   46.1397 H   0  0  0  0  0  0  0  0  0  0  0  0
   48.3782   31.5716   46.7264 H   0  0  0  0  0  0  0  0  0  0  0  0
   48.6803   33.6521   46.1936 H   0  0  0  0  0  0  0  0  0  0  0  0
  2  1  2  0
  2 12  1  1
  3  2  1  0
  4  2  1  0
  5 10  2  0
  6  7  2  0
  6  5  1  0
  7  8  1  0
  8  9  2  0
  9  4  1  0
 10  9  1  0
 11  5  1  0
 13 14  1  0
 13 18  1  0
 14 12  1  0
 15 14  1  0
 16 15  1  0
 16 17  1  0
 17 13  1  0
  3 19  1  0
  6 20  1  0
  7 21  1  0
 11 22  1  0
 13 23  1  6
 14 24  1  1
 15 25  1  0
 15 26  1  0
 17 27  1  0
 17 28  1  0
 29 30  1  0
 30 31  1  0
 31 32  1  0
 32 33  1  1
 32 34  1  0
 34 35  1  0
 35 36  1  1
 35 37  1  0
 37 38  1  0
 37 30  1  0
 29 39  1  0
 30 40  1  6
 31 41  1  1
 32 42  1  0
 35 43  1  0
 37 44  1  6
 38 45  1  0
 18 31  1  0
M  ISO  8  19   3  20  14  21  14  22   3  23  13  24  13  25  13  26  13
M  ISO  4  27  13  28  13  33   8  36   8
M  END
>  <DihAtoms>  (1) 
12,17,30,29

>  <DihDeg>  (1) 
-117.3226084867374

$$$$
