
     RDKit          3D

 27 28  0  0  0  0  0  0  0  0999 V2000
   45.0018   35.4849   44.1873 C   0  0  0  0  0  0  0  0  0  0  0  0
   45.9772   34.9333   43.3400 C   0  0  0  0  0  0  0  0  0  0  0  0
   46.7135   33.8312   43.8408 C   0  0  0  0  0  0  0  0  0  0  0  0
   46.4417   33.3774   45.0873 N   0  0  0  0  0  0  0  0  0  0  0  0
   45.4956   33.9415   45.8607 C   0  0  0  0  0  0  0  0  0  0  0  0
   44.7804   34.9843   45.4204 N   0  0  0  0  0  0  0  0  0  0  0  0
   44.2877   36.5503   43.7075 O   0  0  0  0  0  0  0  0  0  0  0  0
   46.1735   35.3158   42.3489 H   0  0  0  0  0  0  0  0  0  0  0  0
   45.2501   33.6030   46.8679 H   0  0  0  0  0  0  0  0  0  0  0  0
   44.7226   37.4641   43.7177 H   0  0  0  0  0  0  0  0  0  0  0  0
   49.0025   34.4528   44.5589 O   0  0  0  0  0  0  0  0  0  0  0  0
   49.0518   33.9086   43.2570 C   0  0  1  0  0  0  0  0  0  0  0  0
   47.7564   33.2069   42.9924 C   0  0  2  0  0  0  0  0  0  0  0  0
   47.2749   33.3564   41.5607 C   0  0  1  0  0  0  0  0  0  0  0  0
   46.7965   32.3934   41.2839 H   0  0  0  0  0  0  0  0  0  0  0  0
   48.3061   33.5468   40.6604 O   0  0  0  0  0  0  0  0  0  0  0  0
   48.9999   34.7326   40.8717 C   0  0  1  0  0  0  0  0  0  0  0  0
   50.0069   34.6090   40.4135 H   0  0  0  0  0  0  0  0  0  0  0  0
   49.1806   35.0793   42.3139 C   0  0  2  0  0  0  0  0  0  0  0  0
   50.4460   35.6338   42.5053 O   0  0  0  0  0  0  0  0  0  0  0  0
   49.8709   34.6876   44.9207 H   0  0  0  0  0  0  0  0  0  0  0  0
   49.9485   33.2863   43.2146 H   0  0  0  0  0  0  0  0  0  0  0  0
   47.7965   32.1314   43.2876 H   0  0  0  0  0  0  0  0  0  0  0  0
   46.4609   34.1167   41.4617 H   0  0  0  0  0  0  0  0  0  0  0  0
   48.5153   35.6131   40.3569 H   0  0  0  0  0  0  0  0  0  0  0  0
   48.4466   35.8709   42.5959 H   0  0  0  0  0  0  0  0  0  0  0  0
   50.6826   35.8161   43.4265 H   0  0  0  0  0  0  0  0  0  0  0  0
  1  6  2  0
  2  3  2  0
  2  1  1  0
  3  4  1  0
  4  5  2  0
  6  5  1  0
  7  1  1  0
  2  8  1  0
  5  9  1  0
  7 10  1  0
 11 12  1  0
 12 13  1  0
 13 14  1  0
 14 15  1  6
 14 16  1  0
 16 17  1  0
 17 18  1  6
 17 19  1  0
 19 20  1  0
 19 12  1  0
 11 21  1  0
 12 22  1  1
 13 23  1  1
 14 24  1  0
 17 25  1  0
 19 26  1  1
 20 27  1  0
  3 13  1  0
M  ISO  5   8  14   9  14  10   3  15   8  18   8
M  END
>  <DihAtoms>  (1) 
1,2,12,11

>  <DihDeg>  (1) 
-120.32930638789271

$$$$
