
     RDKit          3D

 32 33  0  0  0  0  0  0  0  0999 V2000
   46.3008   35.2011   42.4968 C   0  0  0  0  0  0  0  0  0  0  0  0
   46.8258   34.1130   43.2370 C   0  0  0  0  0  0  0  0  0  0  0  0
   46.3531   33.7773   44.5588 C   0  0  0  0  0  0  0  0  0  0  0  0
   45.3788   34.5676   45.0711 N   0  0  0  0  0  0  0  0  0  0  0  0
   44.9155   35.5887   44.3528 C   0  0  0  0  0  0  0  0  0  0  0  0
   45.3604   35.8815   43.1266 N   0  0  0  0  0  0  0  0  0  0  0  0
   47.8385   33.4367   42.5541 O   0  0  0  0  0  0  0  0  0  0  0  0
   50.3903   33.1827   41.8735 O   0  0  0  0  0  0  0  0  0  0  0  0
   49.3200   34.1879   42.1684 P   0  0  0  0  0  0  0  0  0  0  0  0
   49.1141   35.1066   40.7848 O   0  0  0  0  0  0  0  0  0  0  0  0
   49.8467   35.2550   43.3662 O   0  0  0  0  0  0  0  0  0  0  0  0
   46.9074   32.9164   44.8806 H   0  0  0  0  0  0  0  0  0  0  0  0
   44.1458   36.1035   44.9377 H   0  0  0  0  0  0  0  0  0  0  0  0
   49.6525   35.9429   40.7948 H   0  0  0  0  0  0  0  0  0  0  0  0
   50.4837   34.8482   43.9878 H   0  0  0  0  0  0  0  0  0  0  0  0
   45.8731   37.2895   39.5160 O   0  0  0  0  0  0  0  0  0  0  0  0
   45.9014   37.1082   40.9013 C   0  0  1  0  0  0  0  0  0  0  0  0
   46.4711   35.7645   41.1547 C   0  0  1  0  0  0  0  0  0  0  0  0
   47.9869   36.1544   40.9250 C   0  0  1  0  0  0  0  0  0  0  0  0
   48.3538   36.5434   41.9146 H   0  0  0  0  0  0  0  0  0  0  0  0
   48.1046   37.0278   39.9041 O   0  0  0  0  0  0  0  0  0  0  0  0
   47.9224   38.3424   40.3734 C   0  0  2  0  0  0  0  0  0  0  0  0
   47.5237   38.9179   39.5147 H   0  0  0  0  0  0  0  0  0  0  0  0
   46.8113   38.2246   41.3996 C   0  0  1  0  0  0  0  0  0  0  0  0
   46.0714   39.4207   41.3235 O   0  0  0  0  0  0  0  0  0  0  0  0
   44.9852   37.3703   39.1287 H   0  0  0  0  0  0  0  0  0  0  0  0
   44.9228   37.3465   41.2624 H   0  0  0  0  0  0  0  0  0  0  0  0
   46.4430   34.9888   40.4011 H   0  0  0  0  0  0  0  0  0  0  0  0
   48.5640   35.2321   40.7664 H   0  0  0  0  0  0  0  0  0  0  0  0
   48.8320   38.8088   40.7532 H   0  0  0  0  0  0  0  0  0  0  0  0
   47.1450   38.1041   42.4257 H   0  0  0  0  0  0  0  0  0  0  0  0
   45.2310   39.3022   41.8474 H   0  0  0  0  0  0  0  0  0  0  0  0
  1  6  1  0
  1  2  2  0
  2  3  1  0
  3  4  2  0
  5  4  1  0
  6  5  2  0
  7  2  1  0
  8  9  2  0
  9  7  1  0
  9 11  1  0
 10  9  1  0
  3 12  1  0
  5 13  1  0
 10 14  1  0
 11 15  1  0
 16 17  1  0
 17 18  1  0
 18 19  1  0
 19 20  1  1
 19 21  1  0
 21 22  1  0
 22 23  1  6
 22 24  1  0
 24 25  1  0
 24 17  1  0
 16 26  1  0
 17 27  1  1
 18 28  1  6
 19 29  1  0
 22 30  1  0
 24 31  1  1
 25 32  1  0
  1 18  1  0
M  ISO  6  12  14  13  14  14   3  15   3  20   8  23   8
M  END
>  <DihAtoms>  (1) 
5,0,17,16

>  <DihDeg>  (1) 
-118.9581185956833

$$$$
