
     RDKit          3D

 27 28  0  0  0  0  0  0  0  0999 V2000
   45.0018   35.4849   44.1873 C   0  0  0  0  0  0  0  0  0  0  0  0
   45.9772   34.9333   43.3400 C   0  0  0  0  0  0  0  0  0  0  0  0
   46.7135   33.8312   43.8408 C   0  0  0  0  0  0  0  0  0  0  0  0
   46.4417   33.3774   45.0873 N   0  0  0  0  0  0  0  0  0  0  0  0
   45.4956   33.9415   45.8607 C   0  0  0  0  0  0  0  0  0  0  0  0
   44.7804   34.9843   45.4204 N   0  0  0  0  0  0  0  0  0  0  0  0
   44.2877   36.5503   43.7075 O   0  0  0  0  0  0  0  0  0  0  0  0
   46.1735   35.3158   42.3489 H   0  0  0  0  0  0  0  0  0  0  0  0
   45.2501   33.6030   46.8679 H   0  0  0  0  0  0  0  0  0  0  0  0
   44.7226   37.4641   43.7177 H   0  0  0  0  0  0  0  0  0  0  0  0
   47.4265   31.6209   44.7056 O   0  0  0  0  0  0  0  0  0  0  0  0
   48.3734   32.0837   43.7658 C   0  0  1  0  0  0  0  0  0  0  0  0
   47.7564   33.2069   42.9924 C   0  0  2  0  0  0  0  0  0  0  0  0
   48.7389   34.3139   42.6557 C   0  0  1  0  0  0  0  0  0  0  0  0
   48.4642   34.6867   41.6465 H   0  0  0  0  0  0  0  0  0  0  0  0
   50.0436   33.8683   42.5597 O   0  0  0  0  0  0  0  0  0  0  0  0
   50.5402   33.3782   43.7619 C   0  0  1  0  0  0  0  0  0  0  0  0
   51.3821   32.6934   43.5136 H   0  0  0  0  0  0  0  0  0  0  0  0
   49.5372   32.6157   44.5652 C   0  0  2  0  0  0  0  0  0  0  0  0
   50.1590   31.5263   45.1750 O   0  0  0  0  0  0  0  0  0  0  0  0
   47.6231   30.7408   45.0619 H   0  0  0  0  0  0  0  0  0  0  0  0
   48.6804   31.2140   43.1807 H   0  0  0  0  0  0  0  0  0  0  0  0
   47.2362   32.8447   42.0739 H   0  0  0  0  0  0  0  0  0  0  0  0
   48.6273   35.2016   43.3264 H   0  0  0  0  0  0  0  0  0  0  0  0
   50.9676   34.1934   44.4161 H   0  0  0  0  0  0  0  0  0  0  0  0
   49.1601   33.2632   45.3918 H   0  0  0  0  0  0  0  0  0  0  0  0
   49.5675   30.9270   45.6534 H   0  0  0  0  0  0  0  0  0  0  0  0
  1  6  2  0
  2  3  2  0
  2  1  1  0
  3  4  1  0
  4  5  2  0
  6  5  1  0
  7  1  1  0
  2  8  1  0
  5  9  1  0
  7 10  1  0
 11 12  1  0
 12 13  1  0
 13 14  1  0
 14 15  1  6
 14 16  1  0
 16 17  1  0
 17 18  1  6
 17 19  1  0
 19 20  1  0
 19 12  1  0
 11 21  1  0
 12 22  1  6
 13 23  1  6
 14 24  1  0
 17 25  1  0
 19 26  1  1
 20 27  1  0
  3 13  1  0
M  ISO  5   8  14   9  14  10   3  15   8  18   8
M  END
>  <DihAtoms>  (1) 
1,2,12,11

>  <DihDeg>  (1) 
-120.32930638789271

$$$$
