
     RDKit          3D

 42 43  0  0  0  0  0  0  0  0999 V2000
   43.7669   35.7074   41.6900 C   0  0  0  0  0  0  0  0  0  0  0  0
   43.4409   35.6596   43.1111 N   0  0  0  0  0  0  0  0  0  0  0  0
   44.8268   35.8280   44.1123 S   0  0  0  0  0  0  0  0  0  0  0  0
   46.0703   35.3553   43.4256 O   0  0  0  0  0  0  0  0  0  0  0  0
   44.9510   37.3275   44.3812 O   0  0  0  0  0  0  0  0  0  0  0  0
   44.5860   35.0942   45.5732 O   0  0  0  0  0  0  0  0  0  0  0  0
   45.4222   33.9999   45.7416 C   0  0  0  0  0  0  0  0  0  0  0  0
   43.3999   34.1039   41.0020 S   0  0  0  0  0  0  0  0  0  0  0  0
   40.8802   33.0271   41.3704 C   0  0  0  0  0  0  0  0  0  0  0  0
   41.6351   33.9653   40.6798 C   0  0  0  0  0  0  0  0  0  0  0  0
   41.0451   34.8064   39.7355 C   0  0  0  0  0  0  0  0  0  0  0  0
   39.7147   34.6504   39.5410 N   0  0  0  0  0  0  0  0  0  0  0  0
   39.0020   33.7382   40.2180 C   0  0  0  0  0  0  0  0  0  0  0  0
   39.5567   32.9336   41.1189 N   0  0  0  0  0  0  0  0  0  0  0  0
   37.6293   33.5742   40.0202 O   0  0  0  0  0  0  0  0  0  0  0  0
   44.8617   35.9349   41.5652 H   0  0  0  0  0  0  0  0  0  0  0  0
   43.1713   36.4781   41.1461 H   0  0  0  0  0  0  0  0  0  0  0  0
   42.8775   34.8322   43.3768 H   0  0  0  0  0  0  0  0  0  0  0  0
   46.1389   34.5939   42.8031 H   0  0  0  0  0  0  0  0  0  0  0  0
   45.4133   37.8723   43.7157 H   0  0  0  0  0  0  0  0  0  0  0  0
   46.4703   34.3659   45.7117 H   0  0  0  0  0  0  0  0  0  0  0  0
   45.2875   33.3578   44.8223 H   0  0  0  0  0  0  0  0  0  0  0  0
   45.1747   33.3853   46.6038 H   0  0  0  0  0  0  0  0  0  0  0  0
   41.3452   32.3848   42.0954 H   0  0  0  0  0  0  0  0  0  0  0  0
   41.6286   35.5437   39.1902 H   0  0  0  0  0  0  0  0  0  0  0  0
   35.4409   33.9630   37.3521 O   0  0  0  0  0  0  0  0  0  0  0  0
   36.7521   33.6963   37.7627 C   0  0  2  0  0  0  0  0  0  0  0  0
   37.0327   34.4392   39.0516 C   0  0  2  0  0  0  0  0  0  0  0  0
   37.9316   35.5987   38.7218 C   0  0  2  0  0  0  0  0  0  0  0  0
   38.9662   35.2691   38.4500 H   0  0  0  0  0  0  0  0  0  0  0  0
   37.4019   36.2433   37.6065 O   0  0  0  0  0  0  0  0  0  0  0  0
   37.8892   35.5408   36.4985 C   0  0  2  0  0  0  0  0  0  0  0  0
   38.9916   35.7244   36.5128 H   0  0  0  0  0  0  0  0  0  0  0  0
   37.6914   34.0538   36.6472 C   0  0  2  0  0  0  0  0  0  0  0  0
   37.0996   33.5876   35.4593 O   0  0  0  0  0  0  0  0  0  0  0  0
   35.4168   33.8009   36.3754 H   0  0  0  0  0  0  0  0  0  0  0  0
   36.8481   32.5940   37.9264 H   0  0  0  0  0  0  0  0  0  0  0  0
   36.0937   34.8427   39.4564 H   0  0  0  0  0  0  0  0  0  0  0  0
   38.0771   36.2872   39.5770 H   0  0  0  0  0  0  0  0  0  0  0  0
   37.5180   35.9566   35.5436 H   0  0  0  0  0  0  0  0  0  0  0  0
   38.6481   33.5101   36.7647 H   0  0  0  0  0  0  0  0  0  0  0  0
   37.6192   33.8395   34.6646 H   0  0  0  0  0  0  0  0  0  0  0  0
  1  2  1  0
  2  3  1  0
  3  5  1  0
  3  6  1  0
  4  3  1  0
  6  7  1  0
  8  1  1  0
 10  8  1  0
 10  9  2  0
 11 10  1  0
 12 11  2  0
 12 13  1  0
 13 14  2  0
 14  9  1  0
 15 13  1  0
  1 16  1  0
  1 17  1  0
  2 18  1  0
  4 19  1  0
  5 20  1  0
  7 21  1  0
  7 22  1  0
  7 23  1  0
  9 24  1  0
 11 25  1  0
 26 27  1  0
 27 28  1  0
 28 29  1  0
 29 30  1  6
 29 31  1  0
 31 32  1  0
 32 33  1  6
 32 34  1  0
 34 35  1  0
 34 27  1  0
 26 36  1  0
 27 37  1  1
 28 38  1  1
 29 39  1  0
 32 40  1  0
 34 41  1  1
 35 42  1  0
 15 28  1  0
M  ISO  8  16   8  17   8  18   5  19   3  20   3  21   8  22   8  23   8
M  ISO  4  24  14  25  14  30   8  33   8
M  END
>  <DihAtoms>  (1) 
12,14,27,26

>  <DihDeg>  (1) 
-120.89801119426839

$$$$
