
     RDKit          3D

 42 43  0  0  1  0  0  0  0  0999 V2000
   41.5190   30.9210   42.5480 C   0  0  0  0  0  0  0  0  0  0  0  0
   42.7890   31.0400   42.0020 C   0  0  0  0  0  0  0  0  0  0  0  0
   42.9650   31.4370   40.6760 C   0  0  0  0  0  0  0  0  0  0  0  0
   41.8380   31.6930   39.9710 N   0  0  0  0  0  0  0  0  0  0  0  0
   40.6190   31.5740   40.5170 C   0  0  0  0  0  0  0  0  0  0  0  0
   40.4440   31.1970   41.7790 N   0  0  0  0  0  0  0  0  0  0  0  0
   44.2340   30.6780   43.0110 S   0  0  0  0  0  0  0  0  0  0  0  0
   45.3250   32.0870   43.0380 C   0  0  0  0  0  0  0  0  0  0  0  0
   44.7510   33.0700   43.9510 N   0  0  0  0  0  0  0  0  0  0  0  0
   45.8410   33.5290   45.1960 S   0  0  0  0  0  0  0  0  0  0  0  0
   47.2250   33.7510   44.6720 O   0  0  0  0  0  0  0  0  0  0  0  0
   45.3000   34.8520   45.7390 O   0  0  0  0  0  0  0  0  0  0  0  0
   45.7970   32.4430   46.4420 O   0  0  0  0  0  0  0  0  0  0  0  0
   46.9740   32.4560   47.1750 C   0  0  0  0  0  0  0  0  0  0  0  0
   39.4540   31.8380   39.7930 O   0  0  0  0  0  0  0  0  0  0  0  0
   39.6940   33.7700   38.3470 C   0  0  2  0  0  0  0  0  0  0  0  0
   39.1200   33.2180   39.6350 C   0  0  2  0  0  0  0  0  0  0  0  0
   39.6610   34.0490   40.7660 C   0  0  0  0  0  0  0  0  0  0  0  0
   39.5160   35.3890   40.4160 O   0  0  0  0  0  0  0  0  0  0  0  0
   40.6410   35.6990   39.6410 C   0  0  0  0  0  0  0  0  0  0  0  0
   40.8700   34.6790   38.5560 C   0  0  2  0  0  0  0  0  0  0  0  0
   38.6970   34.4710   37.6600 O   0  0  0  0  0  0  0  0  0  0  0  0
   41.0520   35.3810   37.3500 O   0  0  0  0  0  0  0  0  0  0  0  0
   41.3896   30.6059   43.5939 H   0  0  0  0  0  0  0  0  0  0  0  0
   43.9647   31.5365   40.2280 H   0  0  0  0  0  0  0  0  0  0  0  0
   46.3215   31.7835   43.3913 H   0  0  0  0  0  0  0  0  0  0  0  0
   45.4328   32.5123   42.0293 H   0  0  0  0  0  0  0  0  0  0  0  0
   44.4927   33.9092   43.4125 H   0  0  0  0  0  0  0  0  0  0  0  0
   47.8529   33.8517   45.4307 H   0  0  0  0  0  0  0  0  0  0  0  0
   45.3087   34.8307   46.7287 H   0  0  0  0  0  0  0  0  0  0  0  0
   46.7370   32.4534   48.2492 H   0  0  0  0  0  0  0  0  0  0  0  0
   47.5692   31.5644   46.9287 H   0  0  0  0  0  0  0  0  0  0  0  0
   47.5494   33.3606   46.9287 H   0  0  0  0  0  0  0  0  0  0  0  0
   40.0524   32.9069   37.7669 H   0  0  0  0  0  0  0  0  0  0  0  0
   38.0215   33.2733   39.6215 H   0  0  0  0  0  0  0  0  0  0  0  0
   39.0975   33.8396   41.6872 H   0  0  0  0  0  0  0  0  0  0  0  0
   40.7198   33.8109   40.9459 H   0  0  0  0  0  0  0  0  0  0  0  0
   40.4933   36.6854   39.1772 H   0  0  0  0  0  0  0  0  0  0  0  0
   41.5213   35.7007   40.3006 H   0  0  0  0  0  0  0  0  0  0  0  0
   41.7349   34.0672   38.8522 H   0  0  0  0  0  0  0  0  0  0  0  0
   38.0869   34.9000   38.3111 H   0  0  0  0  0  0  0  0  0  0  0  0
   41.2954   36.3199   37.5482 H   0  0  0  0  0  0  0  0  0  0  0  0
  2  1  2  0
  2  7  1  0
  3  2  1  0
  4  5  1  0
  4  3  2  0
  5  6  2  0
  6  1  1  0
  7  8  1  0
  8  9  1  0
  9 10  1  0
 10 12  1  0
 10 13  1  0
 11 10  1  0
 13 14  1  0
 15  5  1  0
 16 22  1  0
 16 21  1  0
 16 17  1  0
 17 15  1  0
 17 18  1  0
 19 18  1  0
 20 19  1  0
 21 23  1  0
 21 20  1  0
  1 24  1  0
  3 25  1  0
  8 26  1  0
  8 27  1  0
  9 28  1  0
 11 29  1  0
 12 30  1  0
 14 31  1  0
 14 32  1  0
 14 33  1  0
 16 34  1  6
 17 35  1  6
 18 36  1  0
 18 37  1  0
 20 38  1  0
 20 39  1  0
 21 40  1  1
 22 41  1  0
 23 42  1  0
M  ISO  8  24  14  25  14  26   8  27   8  28   5  29   3  30   3  31   8
M  ISO  8  32   8  33   8  34  13  35  13  36  13  37  13  38  13  39  13
M  ISO  3  40  13  41   3  42   3
M  END
>  <minimizedAffinity>  (1) 
-4.84651089

>  <minimizedRMSD>  (1) 
3.40886068

$$$$
