
     RDKit          3D

 53 56  0  0  0  0  0  0  0  0999 V2000
   43.4246   35.2654   42.0776 C   0  0  0  0  0  0  0  0  0  0  0  0
   46.6324   33.5311   42.7176 C   0  0  0  0  0  0  0  0  0  0  0  0
   46.7517   33.7756   44.0428 C   0  0  0  0  0  0  0  0  0  0  0  0
   45.2251   34.7519   44.3741 S   0  0  0  0  0  0  0  0  0  0  0  0
   44.6837   34.6503   42.6052 C   0  0  0  0  0  0  0  0  0  0  0  0
   45.5574   34.0422   42.2077 N   0  0  0  0  0  0  0  0  0  0  0  0
   49.3677   32.5525   40.3301 C   0  0  0  0  0  0  0  0  0  0  0  0
   48.4605   33.3641   41.0294 C   0  0  0  0  0  0  0  0  0  0  0  0
   47.6204   32.7641   41.9337 C   0  0  0  0  0  0  0  0  0  0  0  0
   47.7322   31.3845   42.0903 N   0  0  0  0  0  0  0  0  0  0  0  0
   48.6162   30.6665   41.3950 C   0  0  0  0  0  0  0  0  0  0  0  0
   49.4379   31.2403   40.5131 N   0  0  0  0  0  0  0  0  0  0  0  0
   48.4703   34.7550   40.7563 N   0  0  0  0  0  0  0  0  0  0  0  0
   43.4907   35.4398   40.6068 C   0  0  0  0  0  0  0  0  0  0  0  0
   42.3188   35.0622   39.8410 C   0  0  0  0  0  0  0  0  0  0  0  0
   41.9868   35.3246   38.5446 C   0  0  0  0  0  0  0  0  0  0  0  0
   40.8430   34.9228   37.8943 C   0  0  0  0  0  0  0  0  0  0  0  0
   39.9761   34.1926   38.6453 C   0  0  0  0  0  0  0  0  0  0  0  0
   40.2866   33.9159   39.9492 C   0  0  0  0  0  0  0  0  0  0  0  0
   41.4165   34.3236   40.5602 N   0  0  0  0  0  0  0  0  0  0  0  0
   39.2778   33.1089   40.6989 C   0  0  0  0  0  0  0  0  0  0  0  0
   38.0013   33.6646   40.4633 F   0  0  0  0  0  0  0  0  0  0  0  0
   39.5497   32.9842   42.0337 F   0  0  0  0  0  0  0  0  0  0  0  0
   39.2284   31.8298   40.1702 F   0  0  0  0  0  0  0  0  0  0  0  0
   38.4361   33.6035   37.9086 S   0  0  0  0  0  0  0  0  0  0  0  0
   43.2251   36.2320   42.5801 H   0  0  0  0  0  0  0  0  0  0  0  0
   42.5986   34.5622   42.3417 H   0  0  0  0  0  0  0  0  0  0  0  0
   47.5608   33.4738   44.7756 H   0  0  0  0  0  0  0  0  0  0  0  0
   50.0500   32.9922   39.6047 H   0  0  0  0  0  0  0  0  0  0  0  0
   48.5501   29.6170   41.6564 H   0  0  0  0  0  0  0  0  0  0  0  0
   48.6268   35.4253   41.5463 H   0  0  0  0  0  0  0  0  0  0  0  0
   48.3153   35.0300   39.7493 H   0  0  0  0  0  0  0  0  0  0  0  0
   44.3526   34.8541   40.2193 H   0  0  0  0  0  0  0  0  0  0  0  0
   43.7640   36.5125   40.3981 H   0  0  0  0  0  0  0  0  0  0  0  0
   42.7371   35.9158   38.0138 H   0  0  0  0  0  0  0  0  0  0  0  0
   40.6837   35.1862   36.8704 H   0  0  0  0  0  0  0  0  0  0  0  0
   37.9170   36.2929   37.0261 O   0  0  0  0  0  0  0  0  0  0  0  0
   38.7051   35.5901   36.1411 C   0  0  2  0  0  0  0  0  0  0  0  0
   38.2983   34.1125   36.2011 C   0  0  1  0  0  0  0  0  0  0  0  0
   39.2650   33.3813   35.2998 C   0  0  1  0  0  0  0  0  0  0  0  0
   39.7460   32.5235   35.8018 H   0  0  0  0  0  0  0  0  0  0  0  0
   40.1989   34.2041   34.7153 O   0  0  0  0  0  0  0  0  0  0  0  0
   40.9799   34.9238   35.5846 C   0  0  2  0  0  0  0  0  0  0  0  0
   41.5206   35.6904   34.9579 H   0  0  0  0  0  0  0  0  0  0  0  0
   40.1525   35.7025   36.5719 C   0  0  2  0  0  0  0  0  0  0  0  0
   40.3314   35.2374   37.8746 O   0  0  0  0  0  0  0  0  0  0  0  0
   38.2478   36.1466   37.9405 H   0  0  0  0  0  0  0  0  0  0  0  0
   38.6543   35.9728   35.1040 H   0  0  0  0  0  0  0  0  0  0  0  0
   37.2595   34.0363   35.8001 H   0  0  0  0  0  0  0  0  0  0  0  0
   38.6848   32.9239   34.4535 H   0  0  0  0  0  0  0  0  0  0  0  0
   41.8058   34.3414   36.0557 H   0  0  0  0  0  0  0  0  0  0  0  0
   40.4216   36.7847   36.5940 H   0  0  0  0  0  0  0  0  0  0  0  0
   41.1187   35.6266   38.3065 H   0  0  0  0  0  0  0  0  0  0  0  0
  1  5  1  0
  2  3  2  0
  3  4  1  0
  5  4  1  0
  6  5  2  0
  6  2  1  0
  7 12  2  0
  7  8  1  0
  8  9  2  0
  9 10  1  0
  9  2  1  0
 11 10  2  0
 12 11  1  0
 13  8  1  0
 14  1  1  0
 15 20  1  0
 15 14  1  0
 16 15  2  0
 17 16  1  0
 17 18  2  0
 18 19  1  0
 19 20  2  0
 19 21  1  0
 21 23  1  0
 22 21  1  0
 24 21  1  0
 25 18  1  0
  1 26  1  0
  1 27  1  0
  3 28  1  0
  7 29  1  0
 11 30  1  0
 13 31  1  0
 13 32  1  0
 14 33  1  0
 14 34  1  0
 16 35  1  0
 17 36  1  0
 37 38  1  0
 38 39  1  0
 39 40  1  0
 40 41  1  1
 40 42  1  0
 42 43  1  0
 43 44  1  6
 43 45  1  0
 45 46  1  0
 45 38  1  0
 37 47  1  0
 38 48  1  6
 39 49  1  6
 40 50  1  0
 43 51  1  0
 45 52  1  1
 46 53  1  0
 25 39  1  0
M  ISO  8  26   8  27   8  28  14  29  14  30  14  33   8  34   8  35  14
M  ISO  3  36  14  41   8  44   8
M  END
>  <DihAtoms>  (1) 
17,24,38,37

>  <DihDeg>  (1) 
179.97658516683498

$$$$
