
     RDKit          3D

 30 31  0  0  0  0  0  0  0  0999 V2000
   44.3836   35.7605   44.3901 C   0  0  0  0  0  0  0  0  0  0  0  0
   44.6600   35.0542   43.2362 C   0  0  0  0  0  0  0  0  0  0  0  0
   45.2852   33.8197   43.3758 C   0  0  0  0  0  0  0  0  0  0  0  0
   45.5695   33.4140   44.6192 N   0  0  0  0  0  0  0  0  0  0  0  0
   45.2990   34.1034   45.7345 C   0  0  0  0  0  0  0  0  0  0  0  0
   44.6811   35.3317   45.6596 N   0  0  0  0  0  0  0  0  0  0  0  0
   44.2503   35.7116   41.9946 C   0  0  0  0  0  0  0  0  0  0  0  0
   42.9634   35.3879   41.5939 O   0  0  0  0  0  0  0  0  0  0  0  0
   43.8980   36.7337   44.3901 H   0  0  0  0  0  0  0  0  0  0  0  0
   45.4828   33.3034   42.4653 H   0  0  0  0  0  0  0  0  0  0  0  0
   45.5890   33.6457   46.6709 H   0  0  0  0  0  0  0  0  0  0  0  0
   44.4214   36.7978   42.0610 H   0  0  0  0  0  0  0  0  0  0  0  0
   44.9129   35.3080   41.1730 H   0  0  0  0  0  0  0  0  0  0  0  0
   42.3853   38.2928   40.8484 O   0  0  0  0  0  0  0  0  0  0  0  0
   41.6330   37.1243   40.7134 C   0  0  2  0  0  0  0  0  0  0  0  0
   42.5754   36.0001   40.4332 C   0  0  2  0  0  0  0  0  0  0  0  0
   41.9178   35.0932   39.4245 C   0  0  1  0  0  0  0  0  0  0  0  0
   42.4879   34.1881   39.2100 H   0  0  0  0  0  0  0  0  0  0  0  0
   41.8573   35.8563   38.2583 O   0  0  0  0  0  0  0  0  0  0  0  0
   40.8138   36.7283   38.3605 C   0  0  2  0  0  0  0  0  0  0  0  0
   39.9127   36.2281   37.9232 H   0  0  0  0  0  0  0  0  0  0  0  0
   40.5524   37.3049   39.6993 C   0  0  2  0  0  0  0  0  0  0  0  0
   40.2022   38.6557   39.6345 O   0  0  0  0  0  0  0  0  0  0  0  0
   42.0385   38.8866   41.5416 H   0  0  0  0  0  0  0  0  0  0  0  0
   41.1987   36.9568   41.7268 H   0  0  0  0  0  0  0  0  0  0  0  0
   43.4827   36.4097   39.9296 H   0  0  0  0  0  0  0  0  0  0  0  0
   40.8844   34.8264   39.6862 H   0  0  0  0  0  0  0  0  0  0  0  0
   41.0159   37.5692   37.6391 H   0  0  0  0  0  0  0  0  0  0  0  0
   39.6375   36.8039   40.1054 H   0  0  0  0  0  0  0  0  0  0  0  0
   40.4619   39.0933   38.8001 H   0  0  0  0  0  0  0  0  0  0  0  0
  1  6  2  0
  2  3  2  0
  2  1  1  0
  3  4  1  0
  4  5  2  0
  6  5  1  0
  7  2  1  0
  8  7  1  0
  1  9  1  0
  3 10  1  0
  5 11  1  0
  7 12  1  0
  7 13  1  0
 14 15  1  0
 15 16  1  0
 16 17  1  0
 17 18  1  6
 17 19  1  0
 19 20  1  0
 20 21  1  6
 20 22  1  0
 22 23  1  0
 22 15  1  0
 14 24  1  0
 15 25  1  1
 16 26  1  6
 17 27  1  0
 20 28  1  0
 22 29  1  1
 23 30  1  0
  8 16  1  0
M  ISO  7   9  14  10  14  11  14  12   8  13   8  18   8  21   8
M  END
>  <DihAtoms>  (1) 
6,7,15,14

>  <DihDeg>  (1) 
-119.3491678202437

$$$$
