
     RDKit          3D

 30 31  0  0  0  0  0  0  0  0999 V2000
   44.3836   35.7605   44.3901 C   0  0  0  0  0  0  0  0  0  0  0  0
   44.6600   35.0542   43.2362 C   0  0  0  0  0  0  0  0  0  0  0  0
   45.2852   33.8197   43.3758 C   0  0  0  0  0  0  0  0  0  0  0  0
   45.5695   33.4140   44.6192 N   0  0  0  0  0  0  0  0  0  0  0  0
   45.2990   34.1034   45.7345 C   0  0  0  0  0  0  0  0  0  0  0  0
   44.6811   35.3317   45.6596 N   0  0  0  0  0  0  0  0  0  0  0  0
   44.2503   35.7116   41.9946 C   0  0  0  0  0  0  0  0  0  0  0  0
   42.9634   35.3879   41.5939 O   0  0  0  0  0  0  0  0  0  0  0  0
   43.8980   36.7337   44.3901 H   0  0  0  0  0  0  0  0  0  0  0  0
   45.4828   33.3034   42.4653 H   0  0  0  0  0  0  0  0  0  0  0  0
   45.5890   33.6457   46.6709 H   0  0  0  0  0  0  0  0  0  0  0  0
   44.4214   36.7978   42.0610 H   0  0  0  0  0  0  0  0  0  0  0  0
   44.9129   35.3080   41.1730 H   0  0  0  0  0  0  0  0  0  0  0  0
   42.9361   38.2979   40.6670 O   0  0  0  0  0  0  0  0  0  0  0  0
   41.9392   37.3215   40.7151 C   0  0  2  0  0  0  0  0  0  0  0  0
   42.5754   36.0001   40.4332 C   0  0  2  0  0  0  0  0  0  0  0  0
   41.6182   35.2042   39.5832 C   0  0  1  0  0  0  0  0  0  0  0  0
   41.9490   34.1831   39.3875 H   0  0  0  0  0  0  0  0  0  0  0  0
   41.5792   35.8895   38.3688 O   0  0  0  0  0  0  0  0  0  0  0  0
   40.7687   36.9775   38.5070 C   0  0  2  0  0  0  0  0  0  0  0  0
   39.7340   36.6662   38.2140 H   0  0  0  0  0  0  0  0  0  0  0  0
   40.8056   37.6778   39.8114 C   0  0  2  0  0  0  0  0  0  0  0  0
   40.7490   39.0663   39.6682 O   0  0  0  0  0  0  0  0  0  0  0  0
   42.8140   38.9951   41.3396 H   0  0  0  0  0  0  0  0  0  0  0  0
   41.6082   37.3171   41.7800 H   0  0  0  0  0  0  0  0  0  0  0  0
   43.4800   36.1650   39.8014 H   0  0  0  0  0  0  0  0  0  0  0  0
   40.5921   35.1917   39.9766 H   0  0  0  0  0  0  0  0  0  0  0  0
   41.0560   37.7067   37.6982 H   0  0  0  0  0  0  0  0  0  0  0  0
   39.8619   37.4199   40.3553 H   0  0  0  0  0  0  0  0  0  0  0  0
   40.9914   39.3834   38.7762 H   0  0  0  0  0  0  0  0  0  0  0  0
  1  6  2  0
  2  3  2  0
  2  1  1  0
  3  4  1  0
  4  5  2  0
  6  5  1  0
  7  2  1  0
  8  7  1  0
  1  9  1  0
  3 10  1  0
  5 11  1  0
  7 12  1  0
  7 13  1  0
 14 15  1  0
 15 16  1  0
 16 17  1  0
 17 18  1  6
 17 19  1  0
 19 20  1  0
 20 21  1  6
 20 22  1  0
 22 23  1  0
 22 15  1  0
 14 24  1  0
 15 25  1  1
 16 26  1  6
 17 27  1  0
 20 28  1  0
 22 29  1  1
 23 30  1  0
  8 16  1  0
M  ISO  7   9  14  10  14  11  14  12   8  13   8  18   8  21   8
M  END
>  <DihAtoms>  (1) 
6,7,15,14

>  <DihDeg>  (1) 
-119.3491678202437

$$$$
