
     RDKit          3D

 30 31  0  0  0  0  0  0  0  0999 V2000
   44.3836   35.7605   44.3901 C   0  0  0  0  0  0  0  0  0  0  0  0
   44.6600   35.0542   43.2362 C   0  0  0  0  0  0  0  0  0  0  0  0
   45.2852   33.8197   43.3758 C   0  0  0  0  0  0  0  0  0  0  0  0
   45.5695   33.4140   44.6192 N   0  0  0  0  0  0  0  0  0  0  0  0
   45.2990   34.1034   45.7345 C   0  0  0  0  0  0  0  0  0  0  0  0
   44.6811   35.3317   45.6596 N   0  0  0  0  0  0  0  0  0  0  0  0
   44.2503   35.7116   41.9946 C   0  0  0  0  0  0  0  0  0  0  0  0
   42.9634   35.3879   41.5939 O   0  0  0  0  0  0  0  0  0  0  0  0
   43.8980   36.7337   44.3901 H   0  0  0  0  0  0  0  0  0  0  0  0
   45.4828   33.3034   42.4653 H   0  0  0  0  0  0  0  0  0  0  0  0
   45.5890   33.6457   46.6709 H   0  0  0  0  0  0  0  0  0  0  0  0
   44.4214   36.7978   42.0610 H   0  0  0  0  0  0  0  0  0  0  0  0
   44.9129   35.3080   41.1730 H   0  0  0  0  0  0  0  0  0  0  0  0
   41.2900   34.4823   39.2048 O   0  0  0  0  0  0  0  0  0  0  0  0
   42.5704   35.0317   39.2963 C   0  0  2  0  0  0  0  0  0  0  0  0
   42.5754   36.0001   40.4332 C   0  0  2  0  0  0  0  0  0  0  0  0
   43.4184   37.1808   40.0240 C   0  0  1  0  0  0  0  0  0  0  0  0
   43.5602   37.9158   40.8177 H   0  0  0  0  0  0  0  0  0  0  0  0
   42.6951   37.7847   38.9954 O   0  0  0  0  0  0  0  0  0  0  0  0
   42.8890   37.0729   37.8485 C   0  0  2  0  0  0  0  0  0  0  0  0
   43.7662   37.5220   37.3175 H   0  0  0  0  0  0  0  0  0  0  0  0
   42.9964   35.6020   37.9842 C   0  0  2  0  0  0  0  0  0  0  0  0
   42.3400   34.9262   36.9527 O   0  0  0  0  0  0  0  0  0  0  0  0
   41.3019   33.5358   38.9656 H   0  0  0  0  0  0  0  0  0  0  0  0
   43.2201   34.1715   39.5820 H   0  0  0  0  0  0  0  0  0  0  0  0
   41.5417   36.3964   40.5714 H   0  0  0  0  0  0  0  0  0  0  0  0
   44.3937   36.8962   39.6048 H   0  0  0  0  0  0  0  0  0  0  0  0
   42.0262   37.3096   37.1644 H   0  0  0  0  0  0  0  0  0  0  0  0
   44.0740   35.3322   37.8462 H   0  0  0  0  0  0  0  0  0  0  0  0
   41.6771   35.4684   36.4820 H   0  0  0  0  0  0  0  0  0  0  0  0
  1  6  2  0
  2  3  2  0
  2  1  1  0
  3  4  1  0
  4  5  2  0
  6  5  1  0
  7  2  1  0
  8  7  1  0
  1  9  1  0
  3 10  1  0
  5 11  1  0
  7 12  1  0
  7 13  1  0
 14 15  1  0
 15 16  1  0
 16 17  1  0
 17 18  1  1
 17 19  1  0
 19 20  1  0
 20 21  1  6
 20 22  1  0
 22 23  1  0
 22 15  1  0
 14 24  1  0
 15 25  1  1
 16 26  1  1
 17 27  1  0
 20 28  1  0
 22 29  1  6
 23 30  1  0
  8 16  1  0
M  ISO  7   9  14  10  14  11  14  12   8  13   8  18   8  21   8
M  END
>  <DihAtoms>  (1) 
6,7,15,14

>  <DihDeg>  (1) 
-119.3491678202437

$$$$
