
     RDKit          3D

 30 31  0  0  0  0  0  0  0  0999 V2000
   44.3836   35.7605   44.3901 C   0  0  0  0  0  0  0  0  0  0  0  0
   44.6600   35.0542   43.2362 C   0  0  0  0  0  0  0  0  0  0  0  0
   45.2852   33.8197   43.3758 C   0  0  0  0  0  0  0  0  0  0  0  0
   45.5695   33.4140   44.6192 N   0  0  0  0  0  0  0  0  0  0  0  0
   45.2990   34.1034   45.7345 C   0  0  0  0  0  0  0  0  0  0  0  0
   44.6811   35.3317   45.6596 N   0  0  0  0  0  0  0  0  0  0  0  0
   44.2503   35.7116   41.9946 C   0  0  0  0  0  0  0  0  0  0  0  0
   42.9634   35.3879   41.5939 O   0  0  0  0  0  0  0  0  0  0  0  0
   43.8980   36.7337   44.3901 H   0  0  0  0  0  0  0  0  0  0  0  0
   45.4828   33.3034   42.4653 H   0  0  0  0  0  0  0  0  0  0  0  0
   45.5890   33.6457   46.6709 H   0  0  0  0  0  0  0  0  0  0  0  0
   44.4214   36.7978   42.0610 H   0  0  0  0  0  0  0  0  0  0  0  0
   44.9129   35.3080   41.1730 H   0  0  0  0  0  0  0  0  0  0  0  0
   42.9050   34.4975   38.6729 O   0  0  0  0  0  0  0  0  0  0  0  0
   43.4681   35.6100   39.3013 C   0  0  2  0  0  0  0  0  0  0  0  0
   42.5754   36.0001   40.4332 C   0  0  2  0  0  0  0  0  0  0  0  0
   42.5400   37.5060   40.4892 C   0  0  1  0  0  0  0  0  0  0  0  0
   41.9802   37.9012   41.3382 H   0  0  0  0  0  0  0  0  0  0  0  0
   41.8797   37.8820   39.3193 O   0  0  0  0  0  0  0  0  0  0  0  0
   42.7568   37.8035   38.2781 C   0  0  2  0  0  0  0  0  0  0  0  0
   43.2423   38.8064   38.1701 H   0  0  0  0  0  0  0  0  0  0  0  0
   43.7388   36.6954   38.3127 C   0  0  2  0  0  0  0  0  0  0  0  0
   43.9433   36.1300   37.0517 O   0  0  0  0  0  0  0  0  0  0  0  0
   43.5753   33.8540   38.3734 H   0  0  0  0  0  0  0  0  0  0  0  0
   44.4204   35.2278   39.7379 H   0  0  0  0  0  0  0  0  0  0  0  0
   41.5337   35.6789   40.1957 H   0  0  0  0  0  0  0  0  0  0  0  0
   43.5369   37.9674   40.4562 H   0  0  0  0  0  0  0  0  0  0  0  0
   42.1439   37.7125   37.3376 H   0  0  0  0  0  0  0  0  0  0  0  0
   44.7319   37.1380   38.5787 H   0  0  0  0  0  0  0  0  0  0  0  0
   43.2293   36.3189   36.4117 H   0  0  0  0  0  0  0  0  0  0  0  0
  1  6  2  0
  2  3  2  0
  2  1  1  0
  3  4  1  0
  4  5  2  0
  6  5  1  0
  7  2  1  0
  8  7  1  0
  1  9  1  0
  3 10  1  0
  5 11  1  0
  7 12  1  0
  7 13  1  0
 14 15  1  0
 15 16  1  0
 16 17  1  0
 17 18  1  1
 17 19  1  0
 19 20  1  0
 20 21  1  6
 20 22  1  0
 22 23  1  0
 22 15  1  0
 14 24  1  0
 15 25  1  1
 16 26  1  6
 17 27  1  0
 20 28  1  0
 22 29  1  1
 23 30  1  0
  8 16  1  0
M  ISO  7   9  14  10  14  11  14  12   8  13   8  18   8  21   8
M  END
>  <DihAtoms>  (1) 
6,7,15,14

>  <DihDeg>  (1) 
-119.3491678202437

$$$$
