
     RDKit          3D

 30 31  0  0  0  0  0  0  0  0999 V2000
   44.3836   35.7605   44.3901 C   0  0  0  0  0  0  0  0  0  0  0  0
   44.6600   35.0542   43.2362 C   0  0  0  0  0  0  0  0  0  0  0  0
   45.2852   33.8197   43.3758 C   0  0  0  0  0  0  0  0  0  0  0  0
   45.5695   33.4140   44.6192 N   0  0  0  0  0  0  0  0  0  0  0  0
   45.2990   34.1034   45.7345 C   0  0  0  0  0  0  0  0  0  0  0  0
   44.6811   35.3317   45.6596 N   0  0  0  0  0  0  0  0  0  0  0  0
   44.2503   35.7116   41.9946 C   0  0  0  0  0  0  0  0  0  0  0  0
   42.9634   35.3879   41.5939 O   0  0  0  0  0  0  0  0  0  0  0  0
   43.8980   36.7337   44.3901 H   0  0  0  0  0  0  0  0  0  0  0  0
   45.4828   33.3034   42.4653 H   0  0  0  0  0  0  0  0  0  0  0  0
   45.5890   33.6457   46.6709 H   0  0  0  0  0  0  0  0  0  0  0  0
   44.4214   36.7978   42.0610 H   0  0  0  0  0  0  0  0  0  0  0  0
   44.9129   35.3080   41.1730 H   0  0  0  0  0  0  0  0  0  0  0  0
   41.8022   34.3531   38.9654 O   0  0  0  0  0  0  0  0  0  0  0  0
   42.9097   35.1551   39.2480 C   0  0  2  0  0  0  0  0  0  0  0  0
   42.5754   36.0001   40.4332 C   0  0  2  0  0  0  0  0  0  0  0  0
   43.1718   37.3654   40.2038 C   0  0  1  0  0  0  0  0  0  0  0  0
   43.0591   38.0423   41.0519 H   0  0  0  0  0  0  0  0  0  0  0  0
   42.4465   37.8859   39.1319 O   0  0  0  0  0  0  0  0  0  0  0  0
   42.9171   37.3342   37.9770 C   0  0  2  0  0  0  0  0  0  0  0  0
   43.7235   38.0057   37.5869 H   0  0  0  0  0  0  0  0  0  0  0  0
   43.3359   35.9149   38.0357 C   0  0  2  0  0  0  0  0  0  0  0  0
   42.9623   35.2052   36.8919 O   0  0  0  0  0  0  0  0  0  0  0  0
   42.0513   33.4556   38.6727 H   0  0  0  0  0  0  0  0  0  0  0  0
   43.7008   34.4335   39.5595 H   0  0  0  0  0  0  0  0  0  0  0  0
   41.4705   36.1512   40.4659 H   0  0  0  0  0  0  0  0  0  0  0  0
   44.2252   37.3346   39.8923 H   0  0  0  0  0  0  0  0  0  0  0  0
   42.1020   37.4379   37.2067 H   0  0  0  0  0  0  0  0  0  0  0  0
   44.4549   35.8962   38.0163 H   0  0  0  0  0  0  0  0  0  0  0  0
   42.2494   35.6306   36.3763 H   0  0  0  0  0  0  0  0  0  0  0  0
  1  6  2  0
  2  3  2  0
  2  1  1  0
  3  4  1  0
  4  5  2  0
  6  5  1  0
  7  2  1  0
  8  7  1  0
  1  9  1  0
  3 10  1  0
  5 11  1  0
  7 12  1  0
  7 13  1  0
 14 15  1  0
 15 16  1  0
 16 17  1  0
 17 18  1  1
 17 19  1  0
 19 20  1  0
 20 21  1  6
 20 22  1  0
 22 23  1  0
 22 15  1  0
 14 24  1  0
 15 25  1  1
 16 26  1  1
 17 27  1  0
 20 28  1  0
 22 29  1  1
 23 30  1  0
  8 16  1  0
M  ISO  7   9  14  10  14  11  14  12   8  13   8  18   8  21   8
M  END
>  <DihAtoms>  (1) 
6,7,15,14

>  <DihDeg>  (1) 
-119.3491678202437

$$$$
