
     RDKit          3D

 30 31  0  0  0  0  0  0  0  0999 V2000
   44.3836   35.7605   44.3901 C   0  0  0  0  0  0  0  0  0  0  0  0
   44.6600   35.0542   43.2362 C   0  0  0  0  0  0  0  0  0  0  0  0
   45.2852   33.8197   43.3758 C   0  0  0  0  0  0  0  0  0  0  0  0
   45.5695   33.4140   44.6192 N   0  0  0  0  0  0  0  0  0  0  0  0
   45.2990   34.1034   45.7345 C   0  0  0  0  0  0  0  0  0  0  0  0
   44.6811   35.3317   45.6596 N   0  0  0  0  0  0  0  0  0  0  0  0
   44.2503   35.7116   41.9946 C   0  0  0  0  0  0  0  0  0  0  0  0
   42.9634   35.3879   41.5939 O   0  0  0  0  0  0  0  0  0  0  0  0
   43.8980   36.7337   44.3901 H   0  0  0  0  0  0  0  0  0  0  0  0
   45.4828   33.3034   42.4653 H   0  0  0  0  0  0  0  0  0  0  0  0
   45.5890   33.6457   46.6709 H   0  0  0  0  0  0  0  0  0  0  0  0
   44.4214   36.7978   42.0610 H   0  0  0  0  0  0  0  0  0  0  0  0
   44.9129   35.3080   41.1730 H   0  0  0  0  0  0  0  0  0  0  0  0
   42.3530   34.3583   38.7840 O   0  0  0  0  0  0  0  0  0  0  0  0
   43.2159   35.3524   39.2497 C   0  0  2  0  0  0  0  0  0  0  0  0
   42.5754   36.0001   40.4332 C   0  0  2  0  0  0  0  0  0  0  0  0
   42.8721   37.4763   40.3624 C   0  0  1  0  0  0  0  0  0  0  0  0
   42.5202   38.0373   41.2295 H   0  0  0  0  0  0  0  0  0  0  0  0
   42.1684   37.9191   39.2423 O   0  0  0  0  0  0  0  0  0  0  0  0
   42.8721   37.5834   38.1235 C   0  0  2  0  0  0  0  0  0  0  0  0
   43.5448   38.4438   37.8777 H   0  0  0  0  0  0  0  0  0  0  0  0
   43.5891   36.2878   38.1478 C   0  0  2  0  0  0  0  0  0  0  0  0
   43.5091   35.6158   36.9257 O   0  0  0  0  0  0  0  0  0  0  0  0
   42.8268   33.5641   38.4708 H   0  0  0  0  0  0  0  0  0  0  0  0
   44.1102   34.7938   39.6127 H   0  0  0  0  0  0  0  0  0  0  0  0
   41.4678   35.9065   40.3377 H   0  0  0  0  0  0  0  0  0  0  0  0
   43.9330   37.6999   40.1827 H   0  0  0  0  0  0  0  0  0  0  0  0
   42.1421   37.5753   37.2658 H   0  0  0  0  0  0  0  0  0  0  0  0
   44.6793   36.5121   38.2662 H   0  0  0  0  0  0  0  0  0  0  0  0
   42.7788   35.9207   36.3523 H   0  0  0  0  0  0  0  0  0  0  0  0
  1  6  2  0
  2  3  2  0
  2  1  1  0
  3  4  1  0
  4  5  2  0
  6  5  1  0
  7  2  1  0
  8  7  1  0
  1  9  1  0
  3 10  1  0
  5 11  1  0
  7 12  1  0
  7 13  1  0
 14 15  1  0
 15 16  1  0
 16 17  1  0
 17 18  1  1
 17 19  1  0
 19 20  1  0
 20 21  1  6
 20 22  1  0
 22 23  1  0
 22 15  1  0
 14 24  1  0
 15 25  1  1
 16 26  1  6
 17 27  1  0
 20 28  1  0
 22 29  1  1
 23 30  1  0
  8 16  1  0
M  ISO  7   9  14  10  14  11  14  12   8  13   8  18   8  21   8
M  END
>  <DihAtoms>  (1) 
6,7,15,14

>  <DihDeg>  (1) 
-119.3491678202437

$$$$
