
     RDKit          3D

 30 31  0  0  0  0  0  0  0  0999 V2000
   44.3836   35.7605   44.3901 C   0  0  0  0  0  0  0  0  0  0  0  0
   44.6600   35.0542   43.2362 C   0  0  0  0  0  0  0  0  0  0  0  0
   45.2852   33.8197   43.3758 C   0  0  0  0  0  0  0  0  0  0  0  0
   45.5695   33.4140   44.6192 N   0  0  0  0  0  0  0  0  0  0  0  0
   45.2990   34.1034   45.7345 C   0  0  0  0  0  0  0  0  0  0  0  0
   44.6811   35.3317   45.6596 N   0  0  0  0  0  0  0  0  0  0  0  0
   44.2503   35.7116   41.9946 C   0  0  0  0  0  0  0  0  0  0  0  0
   42.9634   35.3879   41.5939 O   0  0  0  0  0  0  0  0  0  0  0  0
   43.8980   36.7337   44.3901 H   0  0  0  0  0  0  0  0  0  0  0  0
   45.4828   33.3034   42.4653 H   0  0  0  0  0  0  0  0  0  0  0  0
   45.5890   33.6457   46.6709 H   0  0  0  0  0  0  0  0  0  0  0  0
   44.4214   36.7978   42.0610 H   0  0  0  0  0  0  0  0  0  0  0  0
   44.9129   35.3080   41.1730 H   0  0  0  0  0  0  0  0  0  0  0  0
   43.8642   35.1318   38.6868 O   0  0  0  0  0  0  0  0  0  0  0  0
   43.7469   36.2333   39.5368 C   0  0  2  0  0  0  0  0  0  0  0  0
   42.5754   36.0001   40.4332 C   0  0  2  0  0  0  0  0  0  0  0  0
   41.8694   37.3195   40.6149 C   0  0  1  0  0  0  0  0  0  0  0  0
   41.0417   37.2809   41.3247 H   0  0  0  0  0  0  0  0  0  0  0  0
   41.3486   37.6117   39.3542 O   0  0  0  0  0  0  0  0  0  0  0  0
   42.3517   38.0992   38.5695 C   0  0  2  0  0  0  0  0  0  0  0  0
   42.3556   39.2131   38.6810 H   0  0  0  0  0  0  0  0  0  0  0  0
   43.6948   37.5029   38.7533 C   0  0  2  0  0  0  0  0  0  0  0  0
   44.3649   37.3242   37.5407 O   0  0  0  0  0  0  0  0  0  0  0  0
   44.7932   34.8878   38.5116 H   0  0  0  0  0  0  0  0  0  0  0  0
   44.6669   36.1956   40.1660 H   0  0  0  0  0  0  0  0  0  0  0  0
   41.8493   35.3350   39.9088 H   0  0  0  0  0  0  0  0  0  0  0  0
   42.5463   38.1436   40.8803 H   0  0  0  0  0  0  0  0  0  0  0  0
   42.0344   37.9496   37.4992 H   0  0  0  0  0  0  0  0  0  0  0  0
   44.3194   38.2512   39.3037 H   0  0  0  0  0  0  0  0  0  0  0  0
   43.7781   37.3255   36.7592 H   0  0  0  0  0  0  0  0  0  0  0  0
  1  6  2  0
  2  3  2  0
  2  1  1  0
  3  4  1  0
  4  5  2  0
  6  5  1  0
  7  2  1  0
  8  7  1  0
  1  9  1  0
  3 10  1  0
  5 11  1  0
  7 12  1  0
  7 13  1  0
 14 15  1  0
 15 16  1  0
 16 17  1  0
 17 18  1  1
 17 19  1  0
 19 20  1  0
 20 21  1  1
 20 22  1  0
 22 23  1  0
 22 15  1  0
 14 24  1  0
 15 25  1  1
 16 26  1  6
 17 27  1  0
 20 28  1  0
 22 29  1  1
 23 30  1  0
  8 16  1  0
M  ISO  7   9  14  10  14  11  14  12   8  13   8  18   8  21   8
M  END
>  <DihAtoms>  (1) 
6,7,15,14

>  <DihDeg>  (1) 
-119.3491678202437

$$$$
