
     RDKit          3D

 44 46  0  0  0  0  0  0  0  0999 V2000
   44.5614   35.5804   44.7526 C   0  0  0  0  0  0  0  0  0  0  0  0
   45.1467   35.7299   43.4776 C   0  0  0  0  0  0  0  0  0  0  0  0
   46.2083   34.8773   43.1582 C   0  0  0  0  0  0  0  0  0  0  0  0
   46.6134   33.9713   44.0670 N   0  0  0  0  0  0  0  0  0  0  0  0
   46.0429   33.8471   45.2712 C   0  0  0  0  0  0  0  0  0  0  0  0
   45.0081   34.6617   45.6114 N   0  0  0  0  0  0  0  0  0  0  0  0
   45.4089   32.5496   47.3233 C   0  0  1  0  0  0  0  0  0  0  0  0
   46.4557   32.8762   46.3017 C   0  0  1  0  0  0  0  0  0  0  0  0
   46.6056   31.4793   45.6652 C   0  0  0  0  0  0  0  0  0  0  0  0
   46.3545   30.5691   46.6402 O   0  0  0  0  0  0  0  0  0  0  0  0
   45.9616   31.2179   47.8076 C   0  0  0  0  0  0  0  0  0  0  0  0
   45.2467   33.4922   48.2963 O   0  0  0  0  0  0  0  0  0  0  0  0
   46.7626   35.0424   41.9068 O   0  0  0  0  0  0  0  0  0  0  0  0
   48.5704   33.2513   41.1257 O   0  0  0  0  0  0  0  0  0  0  0  0
   48.4075   34.6655   41.6502 P   0  0  1  0  0  0  0  0  0  0  0  0
   49.0486   35.8008   40.6003 O   0  0  0  0  0  0  0  0  0  0  0  0
   49.1619   34.7649   43.1777 O   0  0  0  0  0  0  0  0  0  0  0  0
   43.7292   36.2208   45.0526 H   0  0  0  0  0  0  0  0  0  0  0  0
   44.7347   36.4958   42.8297 H   0  0  0  0  0  0  0  0  0  0  0  0
   44.4132   32.3733   46.8675 H   0  0  0  0  0  0  0  0  0  0  0  0
   47.3906   33.1995   46.7490 H   0  0  0  0  0  0  0  0  0  0  0  0
   47.6678   31.4051   45.3539 H   0  0  0  0  0  0  0  0  0  0  0  0
   45.9919   31.3910   44.7489 H   0  0  0  0  0  0  0  0  0  0  0  0
   46.8042   31.3326   48.4894 H   0  0  0  0  0  0  0  0  0  0  0  0
   45.1003   30.6517   48.2188 H   0  0  0  0  0  0  0  0  0  0  0  0
   45.6916   33.1383   49.1308 H   0  0  0  0  0  0  0  0  0  0  0  0
   48.9089   36.6884   41.0260 H   0  0  0  0  0  0  0  0  0  0  0  0
   51.5886   34.7878   41.1235 O   0  0  0  0  0  0  0  0  0  0  0  0
   51.4477   34.9722   42.4973 C   0  0  1  0  0  0  0  0  0  0  0  0
   50.3603   34.0572   43.0733 C   0  0  1  0  0  0  0  0  0  0  0  0
   50.8447   33.4828   44.3647 C   0  0  2  0  0  0  0  0  0  0  0  0
   51.5934   32.6926   44.1148 H   0  0  0  0  0  0  0  0  0  0  0  0
   51.4969   34.3894   45.1892 O   0  0  0  0  0  0  0  0  0  0  0  0
   52.7021   34.7912   44.6506 C   0  0  1  0  0  0  0  0  0  0  0  0
   52.8019   35.8848   44.8133 H   0  0  0  0  0  0  0  0  0  0  0  0
   52.7649   34.6002   43.1455 C   0  0  2  0  0  0  0  0  0  0  0  0
   53.7558   35.3809   42.5841 O   0  0  0  0  0  0  0  0  0  0  0  0
   51.6417   33.8202   40.9132 H   0  0  0  0  0  0  0  0  0  0  0  0
   51.2018   36.0420   42.6949 H   0  0  0  0  0  0  0  0  0  0  0  0
   50.2961   33.2178   42.3304 H   0  0  0  0  0  0  0  0  0  0  0  0
   50.0359   32.9555   44.8965 H   0  0  0  0  0  0  0  0  0  0  0  0
   53.5189   34.2104   45.0882 H   0  0  0  0  0  0  0  0  0  0  0  0
   52.9778   33.5397   42.8766 H   0  0  0  0  0  0  0  0  0  0  0  0
   53.6793   36.2976   42.9604 H   0  0  0  0  0  0  0  0  0  0  0  0
  1  6  2  0
  2  1  1  0
  3  2  2  0
  3  4  1  0
  4  5  2  0
  5  6  1  0
  7 11  1  0
  7 12  1  0
  8  5  1  0
  8  7  1  0
  9  8  1  0
  9 10  1  0
 10 11  1  0
 13  3  1  0
 14 15  2  0
 15 13  1  1
 15 17  1  0
 16 15  1  0
  1 18  1  0
  2 19  1  0
  7 20  1  6
  8 21  1  1
  9 22  1  0
  9 23  1  0
 11 24  1  0
 11 25  1  0
 12 26  1  0
 16 27  1  0
 28 29  1  0
 29 30  1  0
 30 31  1  0
 31 32  1  6
 31 33  1  0
 33 34  1  0
 34 35  1  6
 34 36  1  0
 36 37  1  0
 36 29  1  0
 28 38  1  0
 29 39  1  6
 30 40  1  6
 31 41  1  0
 34 42  1  0
 36 43  1  1
 37 44  1  0
 17 30  1  0
M  ISO  8  18  14  19  14  20  13  21  13  22  13  23  13  24  13  25  13
M  ISO  4  26   3  27   3  32   8  35   8
M  END
>  <DihAtoms>  (1) 
14,16,29,28

>  <DihDeg>  (1) 
114.7557470372781

$$$$
