
     RDKit          3D

 26 27  0  0  0  0  0  0  0  0999 V2000
   44.1260   35.0600   42.4740 C   0  0  0  0  0  0  0  0  0  0  0  0
   44.1030   33.7900   42.5860 O   0  0  0  0  0  0  0  0  0  0  0  0
   44.9960   35.6950   43.4170 N   0  0  0  0  0  0  0  0  0  0  0  0
   45.5950   34.6550   44.2510 C   0  0  0  0  0  0  0  0  0  0  0  0
   45.2530   34.4200   45.5590 C   0  0  0  0  0  0  0  0  0  0  0  0
   45.9300   33.3840   46.1980 C   0  0  0  0  0  0  0  0  0  0  0  0
   46.8480   32.7120   45.4840 N   0  0  0  0  0  0  0  0  0  0  0  0
   47.1560   32.9690   44.2090 C   0  0  0  0  0  0  0  0  0  0  0  0
   46.5180   33.9710   43.5550 N   0  0  0  0  0  0  0  0  0  0  0  0
   44.2600   35.2340   46.1330 N   0  0  0  0  0  0  0  0  0  0  0  0
   43.3980   35.8230   41.5390 O   0  0  0  0  0  0  0  0  0  0  0  0
   42.1640   35.3400   41.1100 C   0  0  0  0  0  0  0  0  0  0  0  0
   41.0440   36.1440   41.0330 C   0  0  0  0  0  0  0  0  0  0  0  0
   39.8310   35.6670   40.6100 C   0  0  0  0  0  0  0  0  0  0  0  0
   39.6910   34.3260   40.2370 C   0  0  0  0  0  0  0  0  0  0  0  0
   40.8320   33.5530   40.3280 C   0  0  0  0  0  0  0  0  0  0  0  0
   42.0080   34.0520   40.7460 N   0  0  0  0  0  0  0  0  0  0  0  0
   45.1694   36.7074   43.4942 H   0  0  0  0  0  0  0  0  0  0  0  0
   45.7210   33.1261   47.2467 H   0  0  0  0  0  0  0  0  0  0  0  0
   47.9222   32.3714   43.6935 H   0  0  0  0  0  0  0  0  0  0  0  0
   43.9767   35.0876   47.1124 H   0  0  0  0  0  0  0  0  0  0  0  0
   43.8161   35.9765   45.5740 H   0  0  0  0  0  0  0  0  0  0  0  0
   41.1283   37.2024   41.3207 H   0  0  0  0  0  0  0  0  0  0  0  0
   38.9634   36.3416   40.5635 H   0  0  0  0  0  0  0  0  0  0  0  0
   38.7315   33.9127   39.8925 H   0  0  0  0  0  0  0  0  0  0  0  0
   40.7763   32.4906   40.0483 H   0  0  0  0  0  0  0  0  0  0  0  0
  1  2  2  0
  1  3  1  0
  3  4  1  0
  4  5  2  0
  5 10  1  0
  5  6  1  0
  7  6  2  0
  8  7  1  0
  9  8  2  0
  9  4  1  0
 11  1  1  0
 12 11  1  0
 13 12  2  0
 14 13  1  0
 15 16  1  0
 15 14  2  0
 16 17  2  0
 17 12  1  0
  3 18  1  0
  6 19  1  0
  8 20  1  0
 10 21  1  0
 10 22  1  0
 13 23  1  0
 14 24  1  0
 15 25  1  0
 16 26  1  0
M  ISO  6  19  14  20  14  23  14  24  14  25  14  26  14
M  END
>  <minimizedAffinity>  (1) 
-5.3937645

>  <minimizedRMSD>  (1) 
0.784765661

$$$$
