
     RDKit          3D

 33 35  0  0  0  0  0  0  0  0999 V2000
   44.6200   35.5420   45.0730 C   0  0  0  0  0  0  0  0  0  0  0  0
   45.3940   35.0830   43.9920 C   0  0  0  0  0  0  0  0  0  0  0  0
   46.0850   33.9030   44.1840 C   0  0  0  0  0  0  0  0  0  0  0  0
   45.9990   33.2530   45.3580 N   0  0  0  0  0  0  0  0  0  0  0  0
   45.2300   33.7520   46.3650 C   0  0  0  0  0  0  0  0  0  0  0  0
   44.5280   34.8940   46.2540 N   0  0  0  0  0  0  0  0  0  0  0  0
   45.3970   35.9060   42.7770 C   0  0  0  0  0  0  0  0  0  0  0  0
   44.6030   35.2350   41.7750 N   0  0  0  0  0  0  0  0  0  0  0  0
   43.2790   35.3140   41.7870 C   0  0  0  0  0  0  0  0  0  0  0  0
   42.5700   34.6570   40.8110 C   0  0  0  0  0  0  0  0  0  0  0  0
   43.2040   33.9220   39.8300 C   0  0  0  0  0  0  0  0  0  0  0  0
   42.5300   33.3380   38.9610 O   0  0  0  0  0  0  0  0  0  0  0  0
   44.5580   33.8530   39.8350 N   0  0  0  0  0  0  0  0  0  0  0  0
   45.2560   34.5060   40.8010 C   0  0  0  0  0  0  0  0  0  0  0  0
   46.5120   34.4020   40.7500 O   0  0  0  0  0  0  0  0  0  0  0  0
   45.1380   33.0870   47.5930 O   0  0  0  0  0  0  0  0  0  0  0  0
   46.0480   32.0500   47.7760 C   0  0  0  0  0  0  0  0  0  0  0  0
   47.2990   32.2980   48.3030 C   0  0  0  0  0  0  0  0  0  0  0  0
   48.1890   31.2610   48.4770 C   0  0  0  0  0  0  0  0  0  0  0  0
   47.8410   29.9770   48.1290 C   0  0  0  0  0  0  0  0  0  0  0  0
   46.5700   29.7370   47.5950 C   0  0  0  0  0  0  0  0  0  0  0  0
   45.7380   30.7990   47.4480 N   0  0  0  0  0  0  0  0  0  0  0  0
   44.0590   36.4801   44.9495 H   0  0  0  0  0  0  0  0  0  0  0  0
   46.7073   33.4937   43.3746 H   0  0  0  0  0  0  0  0  0  0  0  0
   44.9642   36.8934   42.9952 H   0  0  0  0  0  0  0  0  0  0  0  0
   46.4264   36.0452   42.4152 H   0  0  0  0  0  0  0  0  0  0  0  0
   42.7589   35.8943   42.5634 H   0  0  0  0  0  0  0  0  0  0  0  0
   41.4717   34.7181   40.8114 H   0  0  0  0  0  0  0  0  0  0  0  0
   45.0532   33.3104   39.1130 H   0  0  0  0  0  0  0  0  0  0  0  0
   47.5852   33.3223   48.5838 H   0  0  0  0  0  0  0  0  0  0  0  0
   49.1855   31.4616   48.8975 H   0  0  0  0  0  0  0  0  0  0  0  0
   48.5522   29.1496   48.2685 H   0  0  0  0  0  0  0  0  0  0  0  0
   46.2564   28.7234   47.3047 H   0  0  0  0  0  0  0  0  0  0  0  0
  1  6  2  0
  2  3  2  0
  2  1  1  0
  3  4  1  0
  4  5  2  0
  5 16  1  0
  6  5  1  0
  7  2  1  0
  8  9  1  0
  8  7  1  0
 10  9  2  0
 11 13  1  0
 11 10  1  0
 12 11  2  0
 13 14  1  0
 14  8  1  0
 15 14  2  0
 16 17  1  0
 17 18  2  0
 18 19  1  0
 20 19  2  0
 21 20  1  0
 22 21  2  0
 22 17  1  0
  1 23  1  0
  3 24  1  0
  7 25  1  0
  7 26  1  0
  9 27  1  0
 10 28  1  0
 13 29  1  0
 18 30  1  0
 19 31  1  0
 20 32  1  0
 21 33  1  0
M  ISO  8  23  14  24  14  25   8  26   8  27  14  28  14  29   9  30  14
M  ISO  3  31  14  32  14  33  14
M  END
>  <minimizedAffinity>  (1) 
-5.55375528

>  <minimizedRMSD>  (1) 
2.12039089

$$$$
