
     RDKit          3D

 22 23  0  0  0  0  0  0  0  0999 V2000
   44.5655   36.0041   44.4945 C   0  0  0  0  0  0  0  0  0  0  0  0
   45.3036   35.9220   43.2998 C   0  0  0  0  0  0  0  0  0  0  0  0
   46.1904   34.8674   43.1649 C   0  0  0  0  0  0  0  0  0  0  0  0
   46.3105   33.9580   44.1897 N   0  0  0  0  0  0  0  0  0  0  0  0
   45.5654   34.0918   45.3264 C   0  0  0  0  0  0  0  0  0  0  0  0
   44.7037   35.1019   45.4774 N   0  0  0  0  0  0  0  0  0  0  0  0
   46.9629   34.7698   41.9303 C   0  0  0  0  0  0  0  0  0  0  0  0
   43.8829   36.8471   44.5558 H   0  0  0  0  0  0  0  0  0  0  0  0
   45.1868   36.6533   42.5114 H   0  0  0  0  0  0  0  0  0  0  0  0
   45.7656   33.3041   46.0438 H   0  0  0  0  0  0  0  0  0  0  0  0
   46.3699   35.1878   41.1025 H   0  0  0  0  0  0  0  0  0  0  0  0
   47.1790   33.6809   41.7509 H   0  0  0  0  0  0  0  0  0  0  0  0
   48.2580   35.4796   41.9710 C   0  0  0  0  0  0  0  0  0  0  0  0
   49.3001   35.2406   42.8414 C   0  0  0  0  0  0  0  0  0  0  0  0
   49.1299   34.4360   43.5716 H   0  0  0  0  0  0  0  0  0  0  0  0
   50.4767   35.9540   42.8076 C   0  0  0  0  0  0  0  0  0  0  0  0
   51.2504   35.6934   43.5398 H   0  0  0  0  0  0  0  0  0  0  0  0
   50.6726   36.9633   41.8812 C   0  0  0  0  0  0  0  0  0  0  0  0
   49.6098   37.1804   41.0212 C   0  0  0  0  0  0  0  0  0  0  0  0
   48.4752   36.4719   41.0750 N   0  0  0  0  0  0  0  0  0  0  0  0
   51.5826   37.5120   41.8582 H   0  0  0  0  0  0  0  0  0  0  0  0
   49.7218   37.9648   40.2771 H   0  0  0  0  0  0  0  0  0  0  0  0
  1  6  2  0
  2  1  1  0
  3  2  2  0
  3  4  1  0
  4  5  2  0
  5  6  1  0
  7  3  1  0
  1  8  1  0
  2  9  1  0
  5 10  1  0
  7 11  1  0
  7 12  1  0
 13 14  2  0
 14 15  1  0
 14 16  1  0
 16 17  1  0
 16 18  2  0
 18 19  1  0
 19 20  2  0
 20 13  1  0
 18 21  1  0
 19 22  1  0
  7 13  1  0
M  ISO  7   8  14   9  14  10  14  11   8  12   8  15  15  17  16
M  END
>  <DihAtoms>  (1) 
2,6,12,13

>  <DihDeg>  (1) 
90.00798774017935

$$$$
