
     RDKit          3D

 44 46  0  0  0  0  0  0  0  0999 V2000
   44.6744   35.2806   45.0704 O   0  0  0  0  0  0  0  0  0  0  0  0
   45.4923   34.2504   44.3338 P   0  0  2  0  0  0  0  0  0  0  0  0
   44.5224   33.0665   43.6542 O   0  0  0  0  0  0  0  0  0  0  0  0
   46.5230   33.4601   45.4038 O   0  0  0  0  0  0  0  0  0  0  0  0
   46.2063   32.1403   45.4225 C   0  0  0  0  0  0  0  0  0  0  0  0
   45.7527   32.0469   49.1169 C   0  0  0  0  0  0  0  0  0  0  0  0
   46.0505   32.5222   47.8295 C   0  0  0  0  0  0  0  0  0  0  0  0
   45.8939   31.6455   46.7746 C   0  0  0  0  0  0  0  0  0  0  0  0
   45.4614   30.3684   47.0234 N   0  0  0  0  0  0  0  0  0  0  0  0
   45.1831   29.9391   48.2670 C   0  0  0  0  0  0  0  0  0  0  0  0
   45.3286   30.7724   49.2989 N   0  0  0  0  0  0  0  0  0  0  0  0
   46.4085   35.0294   43.1613 O   0  0  0  0  0  0  0  0  0  0  0  0
   46.9325   34.0901   42.2878 C   0  0  1  0  0  0  0  0  0  0  0  0
   46.3955   34.2623   40.8748 C   0  0  0  0  0  0  0  0  0  0  0  0
   47.3359   33.3769   40.0940 C   0  0  0  0  0  0  0  0  0  0  0  0
   48.6314   33.3460   40.8779 C   0  0  0  0  0  0  0  0  0  0  0  0
   48.4139   34.2911   42.0478 C   0  0  1  0  0  0  0  0  0  0  0  0
   48.7676   35.7146   41.7163 C   0  0  0  0  0  0  0  0  0  0  0  0
   44.8368   32.6402   42.8529 H   0  0  0  0  0  0  0  0  0  0  0  0
   45.4304   31.7773   44.7555 H   0  0  0  0  0  0  0  0  0  0  0  0
   47.1318   31.5680   45.1179 H   0  0  0  0  0  0  0  0  0  0  0  0
   45.8881   32.7614   49.9087 H   0  0  0  0  0  0  0  0  0  0  0  0
   46.3901   33.5294   47.6466 H   0  0  0  0  0  0  0  0  0  0  0  0
   44.8421   28.9383   48.4804 H   0  0  0  0  0  0  0  0  0  0  0  0
   46.8104   33.0387   42.6133 H   0  0  0  0  0  0  0  0  0  0  0  0
   45.3707   33.8164   40.8354 H   0  0  0  0  0  0  0  0  0  0  0  0
   46.4066   35.3109   40.5995 H   0  0  0  0  0  0  0  0  0  0  0  0
   47.5624   33.9007   39.1367 H   0  0  0  0  0  0  0  0  0  0  0  0
   46.9101   32.3640   39.9211 H   0  0  0  0  0  0  0  0  0  0  0  0
   49.5245   33.5564   40.2940 H   0  0  0  0  0  0  0  0  0  0  0  0
   48.6566   32.3199   41.3481 H   0  0  0  0  0  0  0  0  0  0  0  0
   49.0166   33.9389   42.9036 H   0  0  0  0  0  0  0  0  0  0  0  0
   48.2709   36.0622   40.8064 H   0  0  0  0  0  0  0  0  0  0  0  0
   48.4941   36.3481   42.5638 H   0  0  0  0  0  0  0  0  0  0  0  0
   50.2603   35.7274   41.5156 C   0  0  0  0  0  0  0  0  0  0  0  0
   50.7950   35.2046   40.3584 C   0  0  0  0  0  0  0  0  0  0  0  0
   50.1344   34.7928   39.6116 H   0  0  0  0  0  0  0  0  0  0  0  0
   52.1416   35.1961   40.1362 C   0  0  0  0  0  0  0  0  0  0  0  0
   52.5564   34.7785   39.2138 H   0  0  0  0  0  0  0  0  0  0  0  0
   53.0330   35.7171   41.0721 C   0  0  0  0  0  0  0  0  0  0  0  0
   52.4578   36.2295   42.2139 C   0  0  0  0  0  0  0  0  0  0  0  0
   51.1305   36.2191   42.3947 N   0  0  0  0  0  0  0  0  0  0  0  0
   54.0865   35.6819   40.8394 H   0  0  0  0  0  0  0  0  0  0  0  0
   53.1317   36.6419   42.9597 H   0  0  0  0  0  0  0  0  0  0  0  0
  2  1  2  0
  2  4  1  1
  3  2  1  0
  4  5  1  0
  5  8  1  0
  6 11  2  0
  7  6  1  0
  8  9  1  0
  8  7  2  0
  9 10  2  0
 10 11  1  0
 12  2  1  0
 13 12  1  0
 14 13  1  0
 15 16  1  0
 15 14  1  0
 16 17  1  0
 17 13  1  0
 18 17  1  0
  3 19  1  0
  5 20  1  0
  5 21  1  0
  6 22  1  0
  7 23  1  0
 10 24  1  0
 13 25  1  1
 14 26  1  0
 14 27  1  0
 15 28  1  0
 15 29  1  0
 16 30  1  0
 16 31  1  0
 17 32  1  1
 18 33  1  0
 18 34  1  0
 35 36  2  0
 36 37  1  0
 36 38  1  0
 38 39  1  0
 38 40  2  0
 40 41  1  0
 41 42  2  0
 42 35  1  0
 40 43  1  0
 41 44  1  0
 18 35  1  0
M  ISO  8  19   3  20   8  21   8  22  14  23  14  24  14  25  13  26  13
M  ISO  8  27  13  28  13  29  13  30  13  31  13  32  13  33   8  34   8
M  ISO  2  37  15  39  16
M  END
>  <DihAtoms>  (1) 
16,17,34,35

>  <DihDeg>  (1) 
-89.96322184109975

$$$$
