
     RDKit          3D

 35 37  0  0  1  0  0  0  0  0999 V2000
   46.7590   34.5740   42.3180 N   0  0  0  0  0  0  0  0  0  0  0  0
   48.2100   34.5310   42.3430 C   0  0  0  0  0  0  0  0  0  0  0  0
   48.6500   35.3110   41.1050 C   0  0  0  0  0  0  0  0  0  0  0  0
   48.2290   34.5590   39.8730 C   0  0  0  0  0  0  0  0  0  0  0  0
   46.8540   33.9770   39.9330 C   0  0  0  0  0  0  0  0  0  0  0  0
   46.0320   34.4130   41.1070 C   0  0  1  0  0  0  0  0  0  0  0  0
   44.4620   36.0060   44.8850 C   0  0  0  0  0  0  0  0  0  0  0  0
   45.1510   35.8980   43.6660 C   0  0  0  0  0  0  0  0  0  0  0  0
   46.0110   34.7830   43.5150 C   0  0  0  0  0  0  0  0  0  0  0  0
   46.1270   33.8820   44.5480 N   0  0  0  0  0  0  0  0  0  0  0  0
   45.4230   34.0590   45.7020 C   0  0  0  0  0  0  0  0  0  0  0  0
   44.5990   35.1110   45.8650 N   0  0  0  0  0  0  0  0  0  0  0  0
   45.0400   33.4280   41.2970 O   0  0  0  0  0  0  0  0  0  0  0  0
   43.6860   33.6230   41.1280 C   0  0  0  0  0  0  0  0  0  0  0  0
   43.2120   34.8400   40.6400 C   0  0  0  0  0  0  0  0  0  0  0  0
   41.8250   34.9500   40.4990 C   0  0  0  0  0  0  0  0  0  0  0  0
   40.9860   33.9070   40.8290 C   0  0  0  0  0  0  0  0  0  0  0  0
   41.5160   32.7270   41.3090 C   0  0  0  0  0  0  0  0  0  0  0  0
   42.8660   32.6050   41.4510 N   0  0  0  0  0  0  0  0  0  0  0  0
   48.5952   35.0068   43.2569 H   0  0  0  0  0  0  0  0  0  0  0  0
   48.5930   33.4998   42.3394 H   0  0  0  0  0  0  0  0  0  0  0  0
   48.1782   36.3047   41.1090 H   0  0  0  0  0  0  0  0  0  0  0  0
   49.7437   35.4287   41.1111 H   0  0  0  0  0  0  0  0  0  0  0  0
   48.9420   33.7366   39.7138 H   0  0  0  0  0  0  0  0  0  0  0  0
   48.2198   35.2908   39.0518 H   0  0  0  0  0  0  0  0  0  0  0  0
   46.3203   34.2676   39.0161 H   0  0  0  0  0  0  0  0  0  0  0  0
   46.9849   32.8897   40.0366 H   0  0  0  0  0  0  0  0  0  0  0  0
   45.6261   35.4090   40.8764 H   0  0  0  0  0  0  0  0  0  0  0  0
   43.7849   36.8594   45.0374 H   0  0  0  0  0  0  0  0  0  0  0  0
   45.0285   36.6438   42.8667 H   0  0  0  0  0  0  0  0  0  0  0  0
   45.5305   33.3274   46.5164 H   0  0  0  0  0  0  0  0  0  0  0  0
   43.8902   35.6663   40.3807 H   0  0  0  0  0  0  0  0  0  0  0  0
   41.3948   35.8876   40.1171 H   0  0  0  0  0  0  0  0  0  0  0  0
   39.8978   34.0152   40.7100 H   0  0  0  0  0  0  0  0  0  0  0  0
   40.8534   31.8903   41.5753 H   0  0  0  0  0  0  0  0  0  0  0  0
  1  2  1  0
  1  9  1  0
  3  2  1  0
  4  5  1  0
  4  3  1  0
  5  6  1  0
  6 13  1  0
  6  1  1  0
  7 12  2  0
  8  7  1  0
  9  8  2  0
  9 10  1  0
 10 11  2  0
 11 12  1  0
 14 13  1  0
 14 19  1  0
 15 14  2  0
 16 15  1  0
 16 17  2  0
 17 18  1  0
 18 19  2  0
  2 20  1  0
  2 21  1  0
  3 22  1  0
  3 23  1  0
  4 24  1  0
  4 25  1  0
  5 26  1  0
  5 27  1  0
  6 28  1  6
  7 29  1  0
  8 30  1  0
 11 31  1  0
 15 32  1  0
 16 33  1  0
 17 34  1  0
 18 35  1  0
M  ISO  8  20  13  21  13  22  13  23  13  24  13  25  13  26  13  27  13
M  ISO  8  28  13  29  14  30  14  31  14  32  14  33  14  34  14  35  14
M  END
>  <minimizedAffinity>  (1) 
-5.62966251

>  <minimizedRMSD>  (1) 
0.485440701

$$$$
