
     RDKit          3D

 48 51  0  0  1  0  0  0  0  0999 V2000
   47.1180   33.1930   43.0750 C   0  0  0  0  0  0  0  0  0  0  0  0
   48.3110   33.1880   43.4810 O   0  0  0  0  0  0  0  0  0  0  0  0
   46.6270   32.3280   42.0640 N   0  0  0  0  0  0  0  0  0  0  0  0
   45.3750   31.5550   41.9980 C   0  0  0  0  0  0  0  0  0  0  0  0
   44.6650   31.8610   40.6840 C   0  0  0  0  0  0  0  0  0  0  0  0
   45.4870   31.3610   39.5420 C   0  0  0  0  0  0  0  0  0  0  0  0
   46.8980   31.0800   40.0000 C   0  0  0  0  0  0  0  0  0  0  0  0
   47.4430   32.1280   40.9010 C   0  0  2  0  0  0  0  0  0  0  0  0
   45.8310   35.2680   42.9220 C   0  0  0  0  0  0  0  0  0  0  0  0
   46.2100   34.1380   43.6830 C   0  0  0  0  0  0  0  0  0  0  0  0
   45.7190   33.9590   44.9690 C   0  0  0  0  0  0  0  0  0  0  0  0
   44.8750   34.9010   45.4480 N   0  0  0  0  0  0  0  0  0  0  0  0
   44.4960   35.9970   44.7330 C   0  0  0  0  0  0  0  0  0  0  0  0
   44.9850   36.1570   43.4780 N   0  0  0  0  0  0  0  0  0  0  0  0
   46.1320   32.7990   45.7140 C   0  0  0  0  0  0  0  0  0  0  0  0
   45.6510   31.5730   45.4080 C   0  0  0  0  0  0  0  0  0  0  0  0
   46.0660   30.4780   46.1390 C   0  0  0  0  0  0  0  0  0  0  0  0
   46.9690   30.5780   47.1970 C   0  0  0  0  0  0  0  0  0  0  0  0
   47.4320   31.8590   47.4710 C   0  0  0  0  0  0  0  0  0  0  0  0
   47.0070   32.8970   46.7390 N   0  0  0  0  0  0  0  0  0  0  0  0
   48.8830   31.8900   41.1710 C   0  0  0  0  0  0  0  0  0  0  0  0
   49.6890   31.8620   39.8830 C   0  0  0  0  0  0  0  0  0  0  0  0
   49.1810   32.3640   38.6980 C   0  0  0  0  0  0  0  0  0  0  0  0
   50.0310   32.2590   37.6220 C   0  0  0  0  0  0  0  0  0  0  0  0
   51.2670   31.6910   37.7840 C   0  0  0  0  0  0  0  0  0  0  0  0
   51.7210   31.2040   39.0030 C   0  0  0  0  0  0  0  0  0  0  0  0
   50.8980   31.2990   40.0700 N   0  0  0  0  0  0  0  0  0  0  0  0
   45.6031   30.4802   42.0512 H   0  0  0  0  0  0  0  0  0  0  0  0
   44.7255   31.8311   42.8418 H   0  0  0  0  0  0  0  0  0  0  0  0
   43.6837   31.3641   40.6738 H   0  0  0  0  0  0  0  0  0  0  0  0
   44.5284   32.9482   40.5872 H   0  0  0  0  0  0  0  0  0  0  0  0
   45.5073   32.1221   38.7481 H   0  0  0  0  0  0  0  0  0  0  0  0
   45.0417   30.4310   39.1588 H   0  0  0  0  0  0  0  0  0  0  0  0
   46.9063   30.1196   40.5363 H   0  0  0  0  0  0  0  0  0  0  0  0
   47.5338   31.0590   39.1026 H   0  0  0  0  0  0  0  0  0  0  0  0
   47.3968   33.0985   40.3852 H   0  0  0  0  0  0  0  0  0  0  0  0
   46.2168   35.4173   41.9028 H   0  0  0  0  0  0  0  0  0  0  0  0
   43.8069   36.7376   45.1650 H   0  0  0  0  0  0  0  0  0  0  0  0
   44.9344   31.4490   44.5827 H   0  0  0  0  0  0  0  0  0  0  0  0
   45.6684   29.4866   45.8764 H   0  0  0  0  0  0  0  0  0  0  0  0
   47.2932   29.7008   47.7762 H   0  0  0  0  0  0  0  0  0  0  0  0
   48.1483   32.0209   48.2899 H   0  0  0  0  0  0  0  0  0  0  0  0
   49.2648   32.6958   41.8151 H   0  0  0  0  0  0  0  0  0  0  0  0
   48.9865   30.9135   41.6667 H   0  0  0  0  0  0  0  0  0  0  0  0
   48.1787   32.8108   38.6226 H   0  0  0  0  0  0  0  0  0  0  0  0
   49.7194   32.6299   36.6344 H   0  0  0  0  0  0  0  0  0  0  0  0
   51.9298   31.6173   36.9092 H   0  0  0  0  0  0  0  0  0  0  0  0
   52.7206   30.7545   39.0967 H   0  0  0  0  0  0  0  0  0  0  0  0
  1  2  2  0
  1 10  1  0
  3  1  1  0
  4  3  1  0
  5  4  1  0
  6  7  1  0
  6  5  1  0
  7  8  1  0
  8 21  1  0
  8  3  1  0
  9 14  2  0
  9 10  1  0
 10 11  2  0
 11 12  1  0
 11 15  1  0
 13 12  2  0
 14 13  1  0
 15 20  1  0
 16 15  2  0
 16 17  1  0
 17 18  2  0
 18 19  1  0
 20 19  2  0
 22 27  1  0
 22 21  1  0
 23 22  2  0
 24 25  2  0
 24 23  1  0
 25 26  1  0
 26 27  2  0
  4 28  1  0
  4 29  1  0
  5 30  1  0
  5 31  1  0
  6 32  1  0
  6 33  1  0
  7 34  1  0
  7 35  1  0
  8 36  1  6
  9 37  1  0
 13 38  1  0
 16 39  1  0
 17 40  1  0
 18 41  1  0
 19 42  1  0
 21 43  1  0
 21 44  1  0
 23 45  1  0
 24 46  1  0
 25 47  1  0
 26 48  1  0
M  ISO  8  28  13  29  13  30  13  31  13  32  13  33  13  34  13  35  13
M  ISO  8  36  13  37  14  38  14  39  14  40  14  41  14  42  14  43   8
M  ISO  5  44   8  45  14  46  14  47  14  48  14
M  END
>  <minimizedAffinity>  (1) 
-5.15603256

>  <minimizedRMSD>  (1) 
1.10061443

$$$$
