
     RDKit          3D

 35 37  0  0  0  0  0  0  0  0999 V2000
   44.6050   36.2360   43.9640 C   0  0  0  0  0  0  0  0  0  0  0  0
   44.7960   35.4340   45.0880 C   0  0  0  0  0  0  0  0  0  0  0  0
   45.5000   34.2520   44.9310 C   0  0  0  0  0  0  0  0  0  0  0  0
   45.9600   33.9420   43.7010 N   0  0  0  0  0  0  0  0  0  0  0  0
   45.7620   34.7370   42.6210 C   0  0  0  0  0  0  0  0  0  0  0  0
   45.0840   35.8850   42.7530 N   0  0  0  0  0  0  0  0  0  0  0  0
   48.5190   35.6910   42.0110 Cl  0  0  0  0  0  0  0  0  0  0  0  0
   47.5420   34.7080   40.9430 C   0  0  0  0  0  0  0  0  0  0  0  0
   46.2950   34.3270   41.3190 C   0  0  0  0  0  0  0  0  0  0  0  0
   45.4990   33.5410   40.4770 C   0  0  0  0  0  0  0  0  0  0  0  0
   46.0490   33.1860   39.2660 C   0  0  0  0  0  0  0  0  0  0  0  0
   47.3030   33.5760   38.9020 C   0  0  0  0  0  0  0  0  0  0  0  0
   48.0670   34.3380   39.7240 C   0  0  0  0  0  0  0  0  0  0  0  0
   45.7120   33.3900   46.1180 C   0  0  0  0  0  0  0  0  0  0  0  0
   46.3240   32.0490   45.7800 C   0  0  0  0  0  0  0  0  0  0  0  0
   47.1880   31.5280   46.8430 C   0  0  0  0  0  0  0  0  0  0  0  0
   47.5030   32.2310   47.9880 C   0  0  0  0  0  0  0  0  0  0  0  0
   48.3420   31.5920   48.9080 C   0  0  0  0  0  0  0  0  0  0  0  0
   48.7830   30.3220   48.6010 C   0  0  0  0  0  0  0  0  0  0  0  0
   48.4670   29.6210   47.4560 C   0  0  0  0  0  0  0  0  0  0  0  0
   47.6570   30.2830   46.6050 N   0  0  0  0  0  0  0  0  0  0  0  0
   44.0492   37.1796   44.0673 H   0  0  0  0  0  0  0  0  0  0  0  0
   44.3994   35.7311   46.0701 H   0  0  0  0  0  0  0  0  0  0  0  0
   44.4868   33.2237   40.7680 H   0  0  0  0  0  0  0  0  0  0  0  0
   45.4590   32.5695   38.5718 H   0  0  0  0  0  0  0  0  0  0  0  0
   47.7026   33.2675   37.9247 H   0  0  0  0  0  0  0  0  0  0  0  0
   49.0781   34.6520   39.4255 H   0  0  0  0  0  0  0  0  0  0  0  0
   46.3821   33.9141   46.8153 H   0  0  0  0  0  0  0  0  0  0  0  0
   44.7241   33.1956   46.5609 H   0  0  0  0  0  0  0  0  0  0  0  0
   45.5122   31.3280   45.6035 H   0  0  0  0  0  0  0  0  0  0  0  0
   46.9506   32.1897   44.8869 H   0  0  0  0  0  0  0  0  0  0  0  0
   47.1138   33.2438   48.1687 H   0  0  0  0  0  0  0  0  0  0  0  0
   48.6397   32.0862   49.8446 H   0  0  0  0  0  0  0  0  0  0  0  0
   49.4415   29.8269   49.3299 H   0  0  0  0  0  0  0  0  0  0  0  0
   48.8439   28.6075   47.2540 H   0  0  0  0  0  0  0  0  0  0  0  0
  1  2  2  0
  3  2  1  0
  3 14  1  0
  4  3  2  0
  5  6  2  0
  5  4  1  0
  6  1  1  0
  8  9  2  0
  8  7  1  0
  9  5  1  0
 10  9  1  0
 11 10  2  0
 12 11  1  0
 12 13  2  0
 13  8  1  0
 15 14  1  0
 15 16  1  0
 16 17  2  0
 17 18  1  0
 19 18  2  0
 20 19  1  0
 21 16  1  0
 21 20  2  0
  1 22  1  0
  2 23  1  0
 10 24  1  0
 11 25  1  0
 12 26  1  0
 13 27  1  0
 14 28  1  0
 14 29  1  0
 15 30  1  0
 15 31  1  0
 17 32  1  0
 18 33  1  0
 19 34  1  0
 20 35  1  0
M  ISO  8  22  14  23  14  24  14  25  14  26  14  27  14  28   8  29   8
M  ISO  6  30   8  31   8  32  14  33  14  34  14  35  14
M  END
>  <minimizedAffinity>  (1) 
-5.77454233

>  <minimizedRMSD>  (1) 
0.71193397

$$$$
