
     RDKit          3D

 37 40  0  0  0  0  0  0  0  0999 V2000
   45.2510   33.0110   41.1600 Cl  0  0  0  0  0  0  0  0  0  0  0  0
   46.6640   34.0280   41.0510 C   0  0  0  0  0  0  0  0  0  0  0  0
   47.0430   34.8620   42.0590 C   0  0  0  0  0  0  0  0  0  0  0  0
   48.1700   35.6080   41.8510 C   0  0  0  0  0  0  0  0  0  0  0  0
   48.8920   35.5410   40.7080 C   0  0  0  0  0  0  0  0  0  0  0  0
   48.5140   34.7060   39.6950 C   0  0  0  0  0  0  0  0  0  0  0  0
   47.3710   33.9340   39.8810 C   0  0  0  0  0  0  0  0  0  0  0  0
   44.4730   35.8530   44.6640 C   0  0  0  0  0  0  0  0  0  0  0  0
   45.2390   35.8550   43.4830 C   0  0  0  0  0  0  0  0  0  0  0  0
   46.2350   34.8940   43.2580 C   0  0  0  0  0  0  0  0  0  0  0  0
   46.3880   33.9810   44.2590 N   0  0  0  0  0  0  0  0  0  0  0  0
   45.6520   33.9990   45.3680 C   0  0  0  0  0  0  0  0  0  0  0  0
   44.7130   34.9090   45.5790 N   0  0  0  0  0  0  0  0  0  0  0  0
   46.9530   33.0230   38.7840 C   0  0  0  0  0  0  0  0  0  0  0  0
   47.2850   31.6660   38.7550 C   0  0  0  0  0  0  0  0  0  0  0  0
   46.5210   31.0760   37.2160 S   0  0  0  0  0  0  0  0  0  0  0  0
   45.8440   32.8250   36.8380 C   0  0  0  0  0  0  0  0  0  0  0  0
   46.2420   33.3560   37.7370 N   0  0  0  0  0  0  0  0  0  0  0  0
   45.0710   33.1830   35.6940 N   0  0  0  0  0  0  0  0  0  0  0  0
   48.0490   30.8600   39.6870 C   0  0  0  0  0  0  0  0  0  0  0  0
   49.4310   30.8800   39.4570 C   0  0  0  0  0  0  0  0  0  0  0  0
   50.2270   30.1220   40.3220 C   0  0  0  0  0  0  0  0  0  0  0  0
   49.7290   29.3760   41.3670 C   0  0  0  0  0  0  0  0  0  0  0  0
   48.3460   29.4120   41.5260 C   0  0  0  0  0  0  0  0  0  0  0  0
   47.5680   30.1230   40.7180 N   0  0  0  0  0  0  0  0  0  0  0  0
   48.5038   36.2912   42.6459 H   0  0  0  0  0  0  0  0  0  0  0  0
   49.7911   36.1644   40.5938 H   0  0  0  0  0  0  0  0  0  0  0  0
   49.0943   34.6458   38.7624 H   0  0  0  0  0  0  0  0  0  0  0  0
   43.6941   36.6117   44.8301 H   0  0  0  0  0  0  0  0  0  0  0  0
   45.0524   36.6262   42.7211 H   0  0  0  0  0  0  0  0  0  0  0  0
   45.8298   33.2316   46.1358 H   0  0  0  0  0  0  0  0  0  0  0  0
   44.7484   34.1538   35.5736 H   0  0  0  0  0  0  0  0  0  0  0  0
   44.8354   32.4708   34.9882 H   0  0  0  0  0  0  0  0  0  0  0  0
   49.8694   31.4644   38.6347 H   0  0  0  0  0  0  0  0  0  0  0  0
   51.3147   30.1217   40.1579 H   0  0  0  0  0  0  0  0  0  0  0  0
   50.3806   28.7904   42.0322 H   0  0  0  0  0  0  0  0  0  0  0  0
   47.8858   28.8362   42.3425 H   0  0  0  0  0  0  0  0  0  0  0  0
  2  1  1  0
  2  3  2  0
  3 10  1  0
  4  3  1  0
  5  4  2  0
  6  7  2  0
  6  5  1  0
  7  2  1  0
  8 13  2  0
  9  8  1  0
 10  9  2  0
 10 11  1  0
 11 12  2  0
 12 13  1  0
 14  7  1  0
 15 14  2  0
 15 20  1  0
 16 15  1  0
 17 16  1  0
 17 18  2  0
 18 14  1  0
 19 17  1  0
 20 25  1  0
 21 20  2  0
 21 22  1  0
 22 23  2  0
 23 24  1  0
 25 24  2  0
  4 26  1  0
  5 27  1  0
  6 28  1  0
  8 29  1  0
  9 30  1  0
 12 31  1  0
 19 32  1  0
 19 33  1  0
 21 34  1  0
 22 35  1  0
 23 36  1  0
 24 37  1  0
M  ISO  8  26  14  27  14  28  14  29  14  30  14  31  14  34  14  35  14
M  ISO  2  36  14  37  14
M  END
>  <minimizedAffinity>  (1) 
-6.01181841

>  <minimizedRMSD>  (1) 
0.654744208

$$$$
