
     RDKit          3D

 22 23  0  0  0  0  0  0  0  0999 V2000
   45.0930   34.9250   44.8210 C   0  0  0  0  0  0  0  0  0  0  0  0
   45.9660   34.7360   43.7550 C   0  0  0  0  0  0  0  0  0  0  0  0
   46.9110   33.7340   43.8840 C   0  0  0  0  0  0  0  0  0  0  0  0
   46.9610   32.9840   45.0140 N   0  0  0  0  0  0  0  0  0  0  0  0
   46.0860   33.2060   46.0300 C   0  0  0  0  0  0  0  0  0  0  0  0
   45.1610   34.1700   45.9330 N   0  0  0  0  0  0  0  0  0  0  0  0
   46.1430   32.3980   47.2430 C   0  0  0  0  0  0  0  0  0  0  0  0
   45.0100   32.1020   47.9690 C   0  0  0  0  0  0  0  0  0  0  0  0
   44.9930   31.3380   49.1330 C   0  0  0  0  0  0  0  0  0  0  0  0
   46.2470   30.8850   49.5140 C   0  0  0  0  0  0  0  0  0  0  0  0
   47.4030   31.1610   48.8150 C   0  0  0  0  0  0  0  0  0  0  0  0
   47.3340   31.9100   47.6950 N   0  0  0  0  0  0  0  0  0  0  0  0
   45.8030   35.6270   42.5750 C   0  0  0  0  0  0  0  0  0  0  0  0
   45.3080   36.8310   43.0700 F   0  0  0  0  0  0  0  0  0  0  0  0
   44.9270   35.0580   41.7040 F   0  0  0  0  0  0  0  0  0  0  0  0
   47.0760   35.7930   41.9980 F   0  0  0  0  0  0  0  0  0  0  0  0
   44.3273   35.7118   44.7535 H   0  0  0  0  0  0  0  0  0  0  0  0
   47.6241   33.5445   43.0682 H   0  0  0  0  0  0  0  0  0  0  0  0
   44.0509   32.4973   47.6031 H   0  0  0  0  0  0  0  0  0  0  0  0
   44.0743   31.1155   49.6955 H   0  0  0  0  0  0  0  0  0  0  0  0
   46.3237   30.2717   50.4239 H   0  0  0  0  0  0  0  0  0  0  0  0
   48.3710   30.7747   49.1667 H   0  0  0  0  0  0  0  0  0  0  0  0
  1  6  2  0
  2  3  2  0
  2  1  1  0
  3  4  1  0
  4  5  2  0
  5  7  1  0
  6  5  1  0
  7 12  1  0
  7  8  2  0
  8  9  1  0
  9 10  2  0
 11 10  1  0
 12 11  2  0
 13 14  1  0
 13  2  1  0
 15 13  1  0
 16 13  1  0
  1 17  1  0
  3 18  1  0
  8 19  1  0
  9 20  1  0
 10 21  1  0
 11 22  1  0
M  ISO  6  17  14  18  14  19  14  20  14  21  14  22  14
M  END
>  <minimizedAffinity>  (1) 
-5.25379419

>  <minimizedRMSD>  (1) 
0.474416345

$$$$
