
     RDKit          3D

 30 32  0  0  0  0  0  0  0  0999 V2000
   46.1400   32.6510   47.0630 C   0  0  0  0  0  0  0  0  0  0  0  0
   45.0800   32.3780   47.8660 C   0  0  0  0  0  0  0  0  0  0  0  0
   45.2810   31.6340   49.0130 C   0  0  0  0  0  0  0  0  0  0  0  0
   46.5560   31.1720   49.3340 C   0  0  0  0  0  0  0  0  0  0  0  0
   47.6060   31.4750   48.4840 C   0  0  0  0  0  0  0  0  0  0  0  0
   47.3630   32.1910   47.3990 N   0  0  0  0  0  0  0  0  0  0  0  0
   44.9310   35.0220   44.5530 C   0  0  0  0  0  0  0  0  0  0  0  0
   45.8790   34.8720   43.5150 C   0  0  0  0  0  0  0  0  0  0  0  0
   46.9240   33.9570   43.6900 C   0  0  0  0  0  0  0  0  0  0  0  0
   46.9500   33.2720   44.8590 N   0  0  0  0  0  0  0  0  0  0  0  0
   46.0430   33.4310   45.8240 C   0  0  0  0  0  0  0  0  0  0  0  0
   45.0330   34.3090   45.6660 N   0  0  0  0  0  0  0  0  0  0  0  0
   43.8760   35.9520   44.3630 N   0  0  0  0  0  0  0  0  0  0  0  0
   48.9380   30.9880   48.8280 C   0  0  0  0  0  0  0  0  0  0  0  0
   49.7980   31.7980   49.5490 C   0  0  0  0  0  0  0  0  0  0  0  0
   51.0460   31.3220   49.8630 C   0  0  0  0  0  0  0  0  0  0  0  0
   51.3690   30.0530   49.4350 C   0  0  0  0  0  0  0  0  0  0  0  0
   50.4920   29.2460   48.7080 C   0  0  0  0  0  0  0  0  0  0  0  0
   49.2620   29.7370   48.4090 N   0  0  0  0  0  0  0  0  0  0  0  0
   44.0754   32.7438   47.6073 H   0  0  0  0  0  0  0  0  0  0  0  0
   44.4323   31.4058   49.6745 H   0  0  0  0  0  0  0  0  0  0  0  0
   46.7248   30.5784   50.2446 H   0  0  0  0  0  0  0  0  0  0  0  0
   45.7973   35.4615   42.5899 H   0  0  0  0  0  0  0  0  0  0  0  0
   47.6885   33.8013   42.9146 H   0  0  0  0  0  0  0  0  0  0  0  0
   43.8185   36.4942   43.4891 H   0  0  0  0  0  0  0  0  0  0  0  0
   43.1678   36.0848   45.0990 H   0  0  0  0  0  0  0  0  0  0  0  0
   49.4868   32.8048   49.8645 H   0  0  0  0  0  0  0  0  0  0  0  0
   51.7617   31.9308   50.4350 H   0  0  0  0  0  0  0  0  0  0  0  0
   52.3659   29.6565   49.6778 H   0  0  0  0  0  0  0  0  0  0  0  0
   50.7901   28.2375   48.3855 H   0  0  0  0  0  0  0  0  0  0  0  0
  1  6  1  0
  1  2  2  0
  2  3  1  0
  3  4  2  0
  5 14  1  0
  5  4  1  0
  6  5  2  0
  7 12  2  0
  8  9  2  0
  8  7  1  0
  9 10  1  0
 10 11  2  0
 11  1  1  0
 12 11  1  0
 13  7  1  0
 14 15  2  0
 15 16  1  0
 17 16  2  0
 18 17  1  0
 19 18  2  0
 19 14  1  0
  2 20  1  0
  3 21  1  0
  4 22  1  0
  8 23  1  0
  9 24  1  0
 13 25  1  0
 13 26  1  0
 15 27  1  0
 16 28  1  0
 17 29  1  0
 18 30  1  0
M  ISO  8  20  14  21  14  22  14  23  14  24  14  27  14  28  14  29  14
M  ISO  1  30  14
M  END
>  <minimizedAffinity>  (1) 
-6.18889284

>  <minimizedRMSD>  (1) 
0.644037902

$$$$
