
     RDKit          3D

 44 47  0  0  1  0  0  0  0  0999 V2000
   44.5770   35.5900   44.6110 C   0  0  0  0  0  0  0  0  0  0  0  0
   45.2310   35.5970   43.3540 C   0  0  0  0  0  0  0  0  0  0  0  0
   46.3120   34.6810   43.1770 C   0  0  0  0  0  0  0  0  0  0  0  0
   46.6540   33.8660   44.1980 N   0  0  0  0  0  0  0  0  0  0  0  0
   46.0030   33.8980   45.3710 C   0  0  0  0  0  0  0  0  0  0  0  0
   44.9620   34.7560   45.5900 N   0  0  0  0  0  0  0  0  0  0  0  0
   46.4380   32.9700   46.4580 C   0  0  2  0  0  0  0  0  0  0  0  0
   46.9610   31.7430   45.7650 C   0  0  0  0  0  0  0  0  0  0  0  0
   46.1000   30.5560   45.7810 C   0  0  0  0  0  0  0  0  0  0  0  0
   45.7950   30.2940   47.2580 C   0  0  0  0  0  0  0  0  0  0  0  0
   45.0090   31.3680   47.8610 C   0  0  0  0  0  0  0  0  0  0  0  0
   45.3790   32.7370   47.4150 C   0  0  0  0  0  0  0  0  0  0  0  0
   44.6830   33.8730   47.9310 N   0  0  0  0  0  0  0  0  0  0  0  0
   46.9990   34.6640   41.8940 C   0  0  0  0  0  0  0  0  0  0  0  0
   48.1550   35.3670   41.7680 C   0  0  0  0  0  0  0  0  0  0  0  0
   48.7790   35.3200   40.5150 C   0  0  0  0  0  0  0  0  0  0  0  0
   48.1620   34.5700   39.5360 C   0  0  0  0  0  0  0  0  0  0  0  0
   47.0000   33.8670   39.6650 C   0  0  0  0  0  0  0  0  0  0  0  0
   46.4360   33.9460   40.9040 N   0  0  0  0  0  0  0  0  0  0  0  0
   46.4050   33.0930   38.5800 C   0  0  0  0  0  0  0  0  0  0  0  0
   46.7740   33.3640   37.2790 C   0  0  0  0  0  0  0  0  0  0  0  0
   46.1490   32.5740   36.3370 C   0  0  0  0  0  0  0  0  0  0  0  0
   45.2320   31.5980   36.6910 C   0  0  0  0  0  0  0  0  0  0  0  0
   44.8960   31.3680   38.0290 C   0  0  0  0  0  0  0  0  0  0  0  0
   45.5160   32.1500   38.9420 N   0  0  0  0  0  0  0  0  0  0  0  0
   43.7389   36.2802   44.7878 H   0  0  0  0  0  0  0  0  0  0  0  0
   44.9193   36.2788   42.5491 H   0  0  0  0  0  0  0  0  0  0  0  0
   47.2388   33.3924   47.0827 H   0  0  0  0  0  0  0  0  0  0  0  0
   47.9125   31.4702   46.2447 H   0  0  0  0  0  0  0  0  0  0  0  0
   47.0428   32.0245   44.7048 H   0  0  0  0  0  0  0  0  0  0  0  0
   45.1707   30.7472   45.2243 H   0  0  0  0  0  0  0  0  0  0  0  0
   46.5861   29.6919   45.3045 H   0  0  0  0  0  0  0  0  0  0  0  0
   45.2310   29.3533   47.3413 H   0  0  0  0  0  0  0  0  0  0  0  0
   46.7536   30.2366   47.7945 H   0  0  0  0  0  0  0  0  0  0  0  0
   44.2059   31.1783   48.5884 H   0  0  0  0  0  0  0  0  0  0  0  0
   43.9231   33.7447   48.6143 H   0  0  0  0  0  0  0  0  0  0  0  0
   44.9412   34.8203   47.6197 H   0  0  0  0  0  0  0  0  0  0  0  0
   48.5779   35.9420   42.6050 H   0  0  0  0  0  0  0  0  0  0  0  0
   49.7190   35.8572   40.3206 H   0  0  0  0  0  0  0  0  0  0  0  0
   48.6557   34.5351   38.5536 H   0  0  0  0  0  0  0  0  0  0  0  0
   47.5041   34.1433   37.0153 H   0  0  0  0  0  0  0  0  0  0  0  0
   46.3857   32.7234   35.2732 H   0  0  0  0  0  0  0  0  0  0  0  0
   44.7588   30.9920   35.9044 H   0  0  0  0  0  0  0  0  0  0  0  0
   44.1695   30.5957   38.3219 H   0  0  0  0  0  0  0  0  0  0  0  0
  1  6  2  0
  2  1  1  0
  3  2  2  0
  3  4  1  0
  4  5  2  0
  5  6  1  0
  5  7  1  0
  7 12  1  0
  8  9  1  0
  8  7  1  0
  9 10  1  0
 10 11  1  0
 12 11  2  0
 12 13  1  0
 14  3  1  0
 15 14  2  0
 16 15  1  0
 17 18  1  0
 17 16  2  0
 18 19  2  0
 19 14  1  0
 20 25  1  0
 20 18  1  0
 21 20  2  0
 22 23  2  0
 22 21  1  0
 23 24  1  0
 24 25  2  0
  1 26  1  0
  2 27  1  0
  7 28  1  1
  8 29  1  0
  8 30  1  0
  9 31  1  0
  9 32  1  0
 10 33  1  0
 10 34  1  0
 11 35  1  0
 13 36  1  0
 13 37  1  0
 15 38  1  0
 16 39  1  0
 17 40  1  0
 21 41  1  0
 22 42  1  0
 23 43  1  0
 24 44  1  0
M  ISO  8  26  14  27  14  28  13  29  13  30  13  31  13  32  13  33  13
M  ISO  8  34  13  35  13  38  14  39  14  40  14  41  14  42  14  43  14
M  ISO  1  44  14
M  END
>  <minimizedAffinity>  (1) 
-7.35532188

>  <minimizedRMSD>  (1) 
0.169415653

$$$$
