
     RDKit          3D

 26 28  0  0  0  0  0  0  0  0999 V2000
   44.5918   35.8026   44.7290 C   0  0  0  0  0  0  0  0  0  0  0  0
   45.2697   35.5691   43.5053 C   0  0  0  0  0  0  0  0  0  0  0  0
   46.1240   34.4540   43.4157 C   0  0  0  0  0  0  0  0  0  0  0  0
   46.2525   33.6475   44.5324 N   0  0  0  0  0  0  0  0  0  0  0  0
   45.5778   33.9246   45.6714 C   0  0  0  0  0  0  0  0  0  0  0  0
   44.7481   34.9930   45.7843 N   0  0  0  0  0  0  0  0  0  0  0  0
   45.8812   32.9225   46.7072 C   0  0  0  0  0  0  0  0  0  0  0  0
   45.1092   32.7748   47.8940 C   0  0  0  0  0  0  0  0  0  0  0  0
   45.4811   31.8160   48.7791 C   0  0  0  0  0  0  0  0  0  0  0  0
   46.6088   31.0094   48.4917 C   0  0  0  0  0  0  0  0  0  0  0  0
   47.1667   31.6655   46.8570 S   0  0  0  0  0  0  0  0  0  0  0  0
   43.9517   36.6448   44.7843 H   0  0  0  0  0  0  0  0  0  0  0  0
   45.1512   36.2159   42.6468 H   0  0  0  0  0  0  0  0  0  0  0  0
   46.6696   34.2136   42.5232 H   0  0  0  0  0  0  0  0  0  0  0  0
   44.2542   33.4106   48.0777 H   0  0  0  0  0  0  0  0  0  0  0  0
   44.9966   31.6040   49.6917 H   0  0  0  0  0  0  0  0  0  0  0  0
   47.2126   29.9483   49.2277 C   0  0  0  0  0  0  0  0  0  0  0  0
   47.3210   28.6807   48.7051 C   0  0  0  0  0  0  0  0  0  0  0  0
   46.9249   28.5423   47.7149 H   0  0  0  0  0  0  0  0  0  0  0  0
   47.9172   27.7099   49.4788 C   0  0  0  0  0  0  0  0  0  0  0  0
   47.9886   26.7211   49.0409 H   0  0  0  0  0  0  0  0  0  0  0  0
   48.4047   27.9767   50.7561 C   0  0  0  0  0  0  0  0  0  0  0  0
   48.2509   29.2760   51.1944 C   0  0  0  0  0  0  0  0  0  0  0  0
   47.6675   30.2529   50.4539 N   0  0  0  0  0  0  0  0  0  0  0  0
   48.8586   27.1907   51.3167 H   0  0  0  0  0  0  0  0  0  0  0  0
   48.6151   29.5277   52.1806 H   0  0  0  0  0  0  0  0  0  0  0  0
  1  6  2  0
  2  1  1  0
  3  2  2  0
  3  4  1  0
  4  5  2  0
  5  6  1  0
  5  7  1  0
  7 11  1  0
  7  8  2  0
  8  9  1  0
 10  9  2  0
 11 10  1  0
  1 12  1  0
  2 13  1  0
  3 14  1  0
  8 15  1  0
  9 16  1  0
 17 18  2  0
 18 19  1  0
 18 20  1  0
 20 21  1  0
 20 22  2  0
 22 23  1  0
 23 24  2  0
 24 17  1  0
 22 25  1  0
 23 26  1  0
 10 17  1  0
M  ISO  7  12  14  13  14  14  14  15  14  16  14  19  15  21  16
M  END
>  <DihAtoms>  (1) 
8,9,16,17

>  <DihDeg>  (1) 
0.0003063736421829984

$$$$
