
     RDKit          3D

 29 31  0  0  0  0  0  0  0  0999 V2000
   46.7680   33.6440   44.0410 C   0  0  0  0  0  0  0  0  0  0  0  0
   47.4580   32.4960   43.7350 C   0  0  0  0  0  0  0  0  0  0  0  0
   47.2930   31.6060   44.7770 C   0  0  0  0  0  0  0  0  0  0  0  0
   46.4960   32.2560   45.6960 C   0  0  0  0  0  0  0  0  0  0  0  0
   46.2140   33.4440   45.2240 O   0  0  0  0  0  0  0  0  0  0  0  0
   46.0450   31.7110   46.9740 C   0  0  0  0  0  0  0  0  0  0  0  0
   45.5550   30.4220   47.0370 C   0  0  0  0  0  0  0  0  0  0  0  0
   45.1150   29.8660   48.2440 C   0  0  0  0  0  0  0  0  0  0  0  0
   45.2110   30.6990   49.3390 C   0  0  0  0  0  0  0  0  0  0  0  0
   45.6940   31.9800   49.2950 C   0  0  0  0  0  0  0  0  0  0  0  0
   46.1070   32.4610   48.0870 N   0  0  0  0  0  0  0  0  0  0  0  0
   46.5930   34.8570   43.3550 O   0  0  0  0  0  0  0  0  0  0  0  0
   46.4180   34.8520   41.9640 C   0  0  0  0  0  0  0  0  0  0  0  0
   47.4570   34.9200   41.2620 O   0  0  0  0  0  0  0  0  0  0  0  0
   45.0580   34.7690   41.5290 C   0  0  0  0  0  0  0  0  0  0  0  0
   44.8760   33.8520   40.4920 C   0  0  0  0  0  0  0  0  0  0  0  0
   43.5800   33.6950   39.9930 C   0  0  0  0  0  0  0  0  0  0  0  0
   42.5930   34.4320   40.5390 N   0  0  0  0  0  0  0  0  0  0  0  0
   42.8190   35.3160   41.5520 C   0  0  0  0  0  0  0  0  0  0  0  0
   44.0710   35.4850   42.0510 N   0  0  0  0  0  0  0  0  0  0  0  0
   48.0405   32.3173   42.8191 H   0  0  0  0  0  0  0  0  0  0  0  0
   47.7097   30.5912   44.8576 H   0  0  0  0  0  0  0  0  0  0  0  0
   45.5093   29.8185   46.1185 H   0  0  0  0  0  0  0  0  0  0  0  0
   44.7219   28.8410   48.3139 H   0  0  0  0  0  0  0  0  0  0  0  0
   44.8777   30.3089   50.3120 H   0  0  0  0  0  0  0  0  0  0  0  0
   45.7471   32.5995   50.2024 H   0  0  0  0  0  0  0  0  0  0  0  0
   45.7194   33.2758   40.0838 H   0  0  0  0  0  0  0  0  0  0  0  0
   43.3713   32.9885   39.1761 H   0  0  0  0  0  0  0  0  0  0  0  0
   41.9821   35.8961   41.9679 H   0  0  0  0  0  0  0  0  0  0  0  0
  1  5  1  0
  2  1  2  0
  2  3  1  0
  3  4  2  0
  4  6  1  0
  5  4  1  0
  6  7  2  0
  6 11  1  0
  7  8  1  0
  8  9  2  0
 10  9  1  0
 11 10  2  0
 12  1  1  0
 13 12  1  0
 14 13  2  0
 15 13  1  0
 15 20  1  0
 16 15  2  0
 17 16  1  0
 17 18  2  0
 18 19  1  0
 19 20  2  0
  2 21  1  0
  3 22  1  0
  7 23  1  0
  8 24  1  0
  9 25  1  0
 10 26  1  0
 16 27  1  0
 17 28  1  0
 19 29  1  0
M  ISO  8  21  14  22  14  23  14  24  14  25  14  26  14  27  14  28  14
M  ISO  1  29  14
M  END
>  <minimizedAffinity>  (1) 
-5.10383749

>  <minimizedRMSD>  (1) 
8.19597816

$$$$
