
     RDKit          3D

 26 28  0  0  0  0  0  0  0  0999 V2000
   44.5888   35.8921   44.3212 C   0  0  0  0  0  0  0  0  0  0  0  0
   45.3378   35.9161   43.1310 C   0  0  0  0  0  0  0  0  0  0  0  0
   46.3045   34.9410   43.0266 C   0  0  0  0  0  0  0  0  0  0  0  0
   46.4742   34.0350   44.0567 N   0  0  0  0  0  0  0  0  0  0  0  0
   45.7292   34.0562   45.1749 C   0  0  0  0  0  0  0  0  0  0  0  0
   44.7825   35.0023   45.2883 N   0  0  0  0  0  0  0  0  0  0  0  0
   47.0828   34.7899   41.7428 C   0  0  0  0  0  0  0  0  0  0  0  0
   48.4587   35.4600   41.8719 C   0  0  0  0  0  0  0  0  0  0  0  0
   48.2386   33.9215   41.7445 C   0  0  0  0  0  0  0  0  0  0  0  0
   43.8018   36.5562   44.5943 H   0  0  0  0  0  0  0  0  0  0  0  0
   46.0533   33.2517   45.8197 H   0  0  0  0  0  0  0  0  0  0  0  0
   46.6499   35.1906   40.8058 H   0  0  0  0  0  0  0  0  0  0  0  0
   48.8179   35.7974   42.8410 H   0  0  0  0  0  0  0  0  0  0  0  0
   48.9088   35.9292   40.9822 H   0  0  0  0  0  0  0  0  0  0  0  0
   48.4884   33.3408   42.6592 H   0  0  0  0  0  0  0  0  0  0  0  0
   48.6749   33.4667   40.8251 H   0  0  0  0  0  0  0  0  0  0  0  0
   45.0550   36.9348   42.1416 C   0  0  0  0  0  0  0  0  0  0  0  0
   46.0876   37.6684   41.6089 C   0  0  0  0  0  0  0  0  0  0  0  0
   47.1358   37.5712   41.8487 H   0  0  0  0  0  0  0  0  0  0  0  0
   45.9447   38.6650   40.6671 C   0  0  0  0  0  0  0  0  0  0  0  0
   46.7421   39.2553   40.2339 H   0  0  0  0  0  0  0  0  0  0  0  0
   44.6890   38.9848   40.1943 C   0  0  0  0  0  0  0  0  0  0  0  0
   43.6587   38.2479   40.7305 C   0  0  0  0  0  0  0  0  0  0  0  0
   43.8830   37.3067   41.6325 N   0  0  0  0  0  0  0  0  0  0  0  0
   44.3837   39.7208   39.4707 H   0  0  0  0  0  0  0  0  0  0  0  0
   42.6108   38.3450   40.4930 H   0  0  0  0  0  0  0  0  0  0  0  0
  1  6  2  0
  2  1  1  0
  3  2  2  0
  3  4  1  0
  4  5  2  0
  5  6  1  0
  7  8  1  0
  7  9  1  0
  7  3  1  0
  8  9  1  0
  1 10  1  0
  5 11  1  0
  7 12  1  0
  8 13  1  0
  8 14  1  0
  9 15  1  0
  9 16  1  0
 17 18  2  0
 18 19  1  0
 18 20  1  0
 20 21  1  0
 20 22  2  0
 22 23  1  0
 23 24  2  0
 24 17  1  0
 22 25  1  0
 23 26  1  0
  2 17  1  0
M  ISO  8  10  14  11  14  12  13  13  13  14  13  15  13  16  13  19  15
M  ISO  1  21  16
M  END
>  <DihAtoms>  (1) 
0,1,16,17

>  <DihDeg>  (1) 
-4.124894634874738

$$$$
