
     RDKit          3D

 42 45  0  0  1  0  0  0  0  0999 V2000
   46.8960   33.9780   42.5720 C   0  0  2  0  0  0  0  0  0  0  0  0
   48.3340   34.3280   42.7220 C   0  0  0  0  0  0  0  0  0  0  0  0
   48.8040   35.3230   41.7270 C   0  0  0  0  0  0  0  0  0  0  0  0
   48.5220   34.9110   40.3000 C   0  0  0  0  0  0  0  0  0  0  0  0
   47.1700   34.2840   40.1090 C   0  0  0  0  0  0  0  0  0  0  0  0
   46.2680   34.4610   41.2960 C   0  0  1  0  0  0  0  0  0  0  0  0
   46.0780   34.4370   43.7120 C   0  0  0  0  0  0  0  0  0  0  0  0
   45.4290   35.6550   43.5050 C   0  0  0  0  0  0  0  0  0  0  0  0
   44.6140   36.1950   44.5100 C   0  0  0  0  0  0  0  0  0  0  0  0
   44.5160   35.4440   45.6760 N   0  0  0  0  0  0  0  0  0  0  0  0
   45.1610   34.2680   45.8390 C   0  0  0  0  0  0  0  0  0  0  0  0
   45.9360   33.7800   44.8520 N   0  0  0  0  0  0  0  0  0  0  0  0
   45.0390   33.6080   41.0640 C   0  0  2  0  0  0  0  0  0  0  0  0
   44.5650   33.4090   39.6460 C   0  0  0  0  0  0  0  0  0  0  0  0
   43.7690   34.2140   40.6040 C   0  0  1  0  0  0  0  0  0  0  0  0
   42.4570   33.6960   41.0160 C   0  0  0  0  0  0  0  0  0  0  0  0
   41.4220   34.5870   41.1510 C   0  0  0  0  0  0  0  0  0  0  0  0
   40.1480   34.1720   41.5380 C   0  0  0  0  0  0  0  0  0  0  0  0
   40.0040   32.8010   41.7760 C   0  0  0  0  0  0  0  0  0  0  0  0
   41.0400   31.8970   41.6440 C   0  0  0  0  0  0  0  0  0  0  0  0
   42.2420   32.3800   41.2650 N   0  0  0  0  0  0  0  0  0  0  0  0
   46.9030   32.8784   42.5422 H   0  0  0  0  0  0  0  0  0  0  0  0
   48.4891   34.7418   43.7293 H   0  0  0  0  0  0  0  0  0  0  0  0
   48.9118   33.4064   42.5582 H   0  0  0  0  0  0  0  0  0  0  0  0
   48.2975   36.2798   41.9221 H   0  0  0  0  0  0  0  0  0  0  0  0
   49.8955   35.4061   41.8356 H   0  0  0  0  0  0  0  0  0  0  0  0
   48.5838   35.8047   39.6617 H   0  0  0  0  0  0  0  0  0  0  0  0
   49.2701   34.1509   40.0307 H   0  0  0  0  0  0  0  0  0  0  0  0
   46.6906   34.7448   39.2327 H   0  0  0  0  0  0  0  0  0  0  0  0
   47.3249   33.2036   39.9718 H   0  0  0  0  0  0  0  0  0  0  0  0
   46.0465   35.5337   41.3969 H   0  0  0  0  0  0  0  0  0  0  0  0
   45.5569   36.1915   42.5532 H   0  0  0  0  0  0  0  0  0  0  0  0
   44.0859   37.1517   44.3840 H   0  0  0  0  0  0  0  0  0  0  0  0
   45.0528   33.7083   46.7797 H   0  0  0  0  0  0  0  0  0  0  0  0
   45.3164   32.9607   41.9090 H   0  0  0  0  0  0  0  0  0  0  0  0
   44.2024   32.4235   39.3185 H   0  0  0  0  0  0  0  0  0  0  0  0
   44.9930   33.5805   38.6473 H   0  0  0  0  0  0  0  0  0  0  0  0
   43.3744   35.2399   40.6472 H   0  0  0  0  0  0  0  0  0  0  0  0
   41.6014   35.6534   40.9493 H   0  0  0  0  0  0  0  0  0  0  0  0
   39.3108   34.8769   41.6489 H   0  0  0  0  0  0  0  0  0  0  0  0
   39.0172   32.4244   42.0834 H   0  0  0  0  0  0  0  0  0  0  0  0
   40.8912   30.8249   41.8402 H   0  0  0  0  0  0  0  0  0  0  0  0
  1  2  1  0
  1  7  1  0
  3  2  1  0
  4  3  1  0
  5  4  1  0
  5  6  1  0
  6  1  1  0
  7 12  1  0
  8  7  2  0
  8  9  1  0
  9 10  2  0
 10 11  1  0
 12 11  2  0
 13  6  1  0
 14 15  1  0
 14 13  1  0
 15 16  1  0
 15 13  1  0
 16 17  2  0
 16 21  1  0
 17 18  1  0
 18 19  2  0
 20 19  1  0
 21 20  2  0
  1 22  1  6
  2 23  1  0
  2 24  1  0
  3 25  1  0
  3 26  1  0
  4 27  1  0
  4 28  1  0
  5 29  1  0
  5 30  1  0
  6 31  1  1
  8 32  1  0
  9 33  1  0
 11 34  1  0
 13 35  1  1
 14 36  1  0
 14 37  1  0
 15 38  1  6
 17 39  1  0
 18 40  1  0
 19 41  1  0
 20 42  1  0
M  ISO  8  22  13  23  13  24  13  25  13  26  13  27  13  28  13  29  13
M  ISO  8  30  13  31  13  32  14  33  14  34  14  35  13  36  13  37  13
M  ISO  5  38  13  39  14  40  14  41  14  42  14
M  END
>  <minimizedAffinity>  (1) 
-6.37794924

>  <minimizedRMSD>  (1) 
1.3516134

$$$$
