
     RDKit          3D

 33 35  0  0  1  0  0  0  0  0999 V2000
   45.1150   34.0610   41.3690 N   0  0  0  0  0  0  0  0  0  0  0  0
   43.9910   34.3000   40.4760 C   0  0  0  0  0  0  0  0  0  0  0  0
   44.0060   33.3690   39.2920 C   0  0  0  0  0  0  0  0  0  0  0  0
   45.2460   33.3480   38.6020 N   0  0  0  0  0  0  0  0  0  0  0  0
   46.4100   33.4500   39.3860 C   0  0  0  0  0  0  0  0  0  0  0  0
   46.2820   33.4240   40.8640 C   0  0  1  0  0  0  0  0  0  0  0  0
   44.6530   35.9970   44.5470 C   0  0  0  0  0  0  0  0  0  0  0  0
   44.6900   35.7440   43.1620 C   0  0  0  0  0  0  0  0  0  0  0  0
   45.0360   34.4650   42.7280 C   0  0  0  0  0  0  0  0  0  0  0  0
   45.3120   33.5590   43.7010 N   0  0  0  0  0  0  0  0  0  0  0  0
   45.2720   33.8190   45.0240 C   0  0  0  0  0  0  0  0  0  0  0  0
   44.9380   35.0530   45.4390 N   0  0  0  0  0  0  0  0  0  0  0  0
   47.5640   33.9620   41.4230 C   0  0  0  0  0  0  0  0  0  0  0  0
   47.9590   35.2760   41.1500 C   0  0  0  0  0  0  0  0  0  0  0  0
   49.1600   35.7520   41.6850 C   0  0  0  0  0  0  0  0  0  0  0  0
   49.9550   34.9440   42.4730 C   0  0  0  0  0  0  0  0  0  0  0  0
   49.5340   33.6500   42.7210 C   0  0  0  0  0  0  0  0  0  0  0  0
   48.3720   33.2130   42.1970 N   0  0  0  0  0  0  0  0  0  0  0  0
   43.0552   34.1501   41.0343 H   0  0  0  0  0  0  0  0  0  0  0  0
   44.0678   35.3308   40.0999 H   0  0  0  0  0  0  0  0  0  0  0  0
   43.7883   32.3510   39.6472 H   0  0  0  0  0  0  0  0  0  0  0  0
   43.2485   33.7355   38.5835 H   0  0  0  0  0  0  0  0  0  0  0  0
   45.2978   32.4609   38.0812 H   0  0  0  0  0  0  0  0  0  0  0  0
   47.0642   32.6120   39.1036 H   0  0  0  0  0  0  0  0  0  0  0  0
   46.7880   34.4602   39.1699 H   0  0  0  0  0  0  0  0  0  0  0  0
   46.1296   32.3880   41.2008 H   0  0  0  0  0  0  0  0  0  0  0  0
   44.3810   37.0026   44.9003 H   0  0  0  0  0  0  0  0  0  0  0  0
   44.4513   36.5377   42.4388 H   0  0  0  0  0  0  0  0  0  0  0  0
   45.5097   33.0312   45.7539 H   0  0  0  0  0  0  0  0  0  0  0  0
   47.3325   35.9267   40.5222 H   0  0  0  0  0  0  0  0  0  0  0  0
   49.4757   36.7846   41.4751 H   0  0  0  0  0  0  0  0  0  0  0  0
   50.8996   35.3198   42.8931 H   0  0  0  0  0  0  0  0  0  0  0  0
   50.1454   32.9802   43.3436 H   0  0  0  0  0  0  0  0  0  0  0  0
  1  9  1  0
  2  1  1  0
  3  2  1  0
  4  3  1  0
  4  5  1  0
  5  6  1  0
  6  1  1  0
  6 13  1  0
  7 12  2  0
  8  7  1  0
  9  8  2  0
  9 10  1  0
 10 11  2  0
 11 12  1  0
 13 18  1  0
 14 13  2  0
 14 15  1  0
 15 16  2  0
 16 17  1  0
 18 17  2  0
  2 19  1  0
  2 20  1  0
  3 21  1  0
  3 22  1  0
  4 23  1  0
  5 24  1  0
  5 25  1  0
  6 26  1  1
  7 27  1  0
  8 28  1  0
 11 29  1  0
 14 30  1  0
 15 31  1  0
 16 32  1  0
 17 33  1  0
M  ISO  8  19  13  20  13  21  13  22  13  23   5  24  13  25  13  26  13
M  ISO  7  27  14  28  14  29  14  30  14  31  14  32  14  33  14
M  END
>  <minimizedAffinity>  (1) 
-5.43964243

>  <minimizedRMSD>  (1) 
2.98192501

$$$$
