
     RDKit          3D

 22 23  0  0  0  0  0  0  0  0999 V2000
   44.5960   35.4020   45.0470 C   0  0  0  0  0  0  0  0  0  0  0  0
   45.2640   35.2750   43.8280 C   0  0  0  0  0  0  0  0  0  0  0  0
   46.2260   34.2590   43.7190 C   0  0  0  0  0  0  0  0  0  0  0  0
   46.4460   33.4650   44.8020 N   0  0  0  0  0  0  0  0  0  0  0  0
   45.7770   33.6290   45.9520 C   0  0  0  0  0  0  0  0  0  0  0  0
   44.8440   34.5870   46.1130 N   0  0  0  0  0  0  0  0  0  0  0  0
   46.0620   32.7450   47.0720 C   0  0  0  0  0  0  0  0  0  0  0  0
   45.0820   32.3720   47.9680 C   0  0  0  0  0  0  0  0  0  0  0  0
   45.2940   31.5450   49.0370 C   0  0  0  0  0  0  0  0  0  0  0  0
   46.5860   31.0560   49.2230 C   0  0  0  0  0  0  0  0  0  0  0  0
   47.5660   31.4290   48.3280 C   0  0  0  0  0  0  0  0  0  0  0  0
   47.2910   32.2490   47.2920 N   0  0  0  0  0  0  0  0  0  0  0  0
   44.8740   36.2400   42.7810 C   0  0  0  0  0  0  0  0  0  0  0  0
   43.8380   36.1921   45.1528 H   0  0  0  0  0  0  0  0  0  0  0  0
   46.7864   34.1087   42.7844 H   0  0  0  0  0  0  0  0  0  0  0  0
   44.0660   32.7642   47.8133 H   0  0  0  0  0  0  0  0  0  0  0  0
   44.4770   31.2765   49.7228 H   0  0  0  0  0  0  0  0  0  0  0  0
   46.8184   30.3875   50.0650 H   0  0  0  0  0  0  0  0  0  0  0  0
   48.5906   31.0514   48.4607 H   0  0  0  0  0  0  0  0  0  0  0  0
   44.5015   37.1616   43.2521 H   0  0  0  0  0  0  0  0  0  0  0  0
   45.7476   36.4753   42.1554 H   0  0  0  0  0  0  0  0  0  0  0  0
   44.0822   35.8022   42.1554 H   0  0  0  0  0  0  0  0  0  0  0  0
  1  6  2  0
  2  1  1  0
  3  2  2  0
  3  4  1  0
  4  5  2  0
  5  6  1  0
  5  7  1  0
  7 12  1  0
  7  8  2  0
  8  9  1  0
  9 10  2  0
 11 10  1  0
 12 11  2  0
 13  2  1  0
  1 14  1  0
  3 15  1  0
  8 16  1  0
  9 17  1  0
 10 18  1  0
 11 19  1  0
 13 20  1  0
 13 21  1  0
 13 22  1  0
M  ISO  8  14  14  15  14  16  14  17  14  18  14  19  14  20   8  21   8
M  ISO  1  22   8
M  END
>  <minimizedAffinity>  (1) 
-4.80862474

>  <minimizedRMSD>  (1) 
1.09124744

$$$$
