
     RDKit          3D

 35 37  0  0  0  0  0  0  0  0999 V2000
   45.6670   33.8290   42.8580 C   0  0  0  0  0  0  0  0  0  0  0  0
   44.8460   35.0060   42.5070 C   0  0  0  0  0  0  0  0  0  0  0  0
   44.9730   36.1340   43.4900 C   0  0  0  0  0  0  0  0  0  0  0  0
   44.6370   35.6860   44.9030 C   0  0  0  0  0  0  0  0  0  0  0  0
   45.2480   34.3580   45.2700 C   0  0  0  0  0  0  0  0  0  0  0  0
   46.2740   33.9060   44.2530 C   0  0  0  0  0  0  0  0  0  0  0  0
   46.7860   33.6190   41.9190 C   0  0  0  0  0  0  0  0  0  0  0  0
   46.7070   34.3190   40.6960 C   0  0  0  0  0  0  0  0  0  0  0  0
   47.7300   34.1770   39.7550 C   0  0  0  0  0  0  0  0  0  0  0  0
   48.7650   33.3500   40.0840 N   0  0  0  0  0  0  0  0  0  0  0  0
   48.8180   32.6860   41.2710 C   0  0  0  0  0  0  0  0  0  0  0  0
   47.8380   32.8240   42.1690 N   0  0  0  0  0  0  0  0  0  0  0  0
   49.9640   31.8220   41.5410 C   0  0  0  0  0  0  0  0  0  0  0  0
   49.9600   31.0270   42.6680 C   0  0  0  0  0  0  0  0  0  0  0  0
   51.0340   30.2040   42.9380 C   0  0  0  0  0  0  0  0  0  0  0  0
   52.1110   30.2050   42.0440 C   0  0  0  0  0  0  0  0  0  0  0  0
   52.0790   31.0250   40.9130 C   0  0  0  0  0  0  0  0  0  0  0  0
   51.0080   31.8090   40.6930 N   0  0  0  0  0  0  0  0  0  0  0  0
   44.9541   32.9928   42.8083 H   0  0  0  0  0  0  0  0  0  0  0  0
   45.1607   35.3685   41.5173 H   0  0  0  0  0  0  0  0  0  0  0  0
   43.7943   34.6836   42.5156 H   0  0  0  0  0  0  0  0  0  0  0  0
   46.0068   36.5093   43.4709 H   0  0  0  0  0  0  0  0  0  0  0  0
   44.2630   36.9231   43.2015 H   0  0  0  0  0  0  0  0  0  0  0  0
   45.0060   36.4463   45.6071 H   0  0  0  0  0  0  0  0  0  0  0  0
   43.5447   35.5670   44.9553 H   0  0  0  0  0  0  0  0  0  0  0  0
   45.7371   34.4510   46.2509 H   0  0  0  0  0  0  0  0  0  0  0  0
   44.4428   33.6090   45.2966 H   0  0  0  0  0  0  0  0  0  0  0  0
   46.6477   32.9113   44.5375 H   0  0  0  0  0  0  0  0  0  0  0  0
   47.0952   34.6376   44.2366 H   0  0  0  0  0  0  0  0  0  0  0  0
   45.8467   34.9713   40.4853 H   0  0  0  0  0  0  0  0  0  0  0  0
   47.7026   34.7079   38.7920 H   0  0  0  0  0  0  0  0  0  0  0  0
   49.0993   31.0491   43.3526 H   0  0  0  0  0  0  0  0  0  0  0  0
   51.0436   29.5638   43.8325 H   0  0  0  0  0  0  0  0  0  0  0  0
   52.9824   29.5604   42.2317 H   0  0  0  0  0  0  0  0  0  0  0  0
   52.9232   31.0295   40.2078 H   0  0  0  0  0  0  0  0  0  0  0  0
  1  6  1  0
  2  1  1  0
  2  3  1  0
  3  4  1  0
  4  5  1  0
  6  5  1  0
  7 12  1  0
  7  1  1  0
  8  7  2  0
  9 10  2  0
  9  8  1  0
 10 11  1  0
 11 13  1  0
 11 12  2  0
 13 14  2  0
 14 15  1  0
 16 15  2  0
 17 16  1  0
 18 17  2  0
 18 13  1  0
  1 19  1  0
  2 20  1  0
  2 21  1  0
  3 22  1  0
  3 23  1  0
  4 24  1  0
  4 25  1  0
  5 26  1  0
  5 27  1  0
  6 28  1  0
  6 29  1  0
  8 30  1  0
  9 31  1  0
 14 32  1  0
 15 33  1  0
 16 34  1  0
 17 35  1  0
M  ISO  8  19  13  20  13  21  13  22  13  23  13  24  13  25  13  26  13
M  ISO  8  27  13  28  13  29  13  30  14  31  14  32  14  33  14  34  14
M  ISO  1  35  14
M  END
>  <minimizedAffinity>  (1) 
-4.54451752

>  <minimizedRMSD>  (1) 
3.01130772

$$$$
