
     RDKit          3D

 25 26  0  0  0  0  0  0  0  0999 V2000
   44.5848   35.9822   44.5132 C   0  0  0  0  0  0  0  0  0  0  0  0
   45.2184   36.0033   43.2589 C   0  0  0  0  0  0  0  0  0  0  0  0
   46.1021   34.9594   42.9660 C   0  0  0  0  0  0  0  0  0  0  0  0
   46.2935   33.9967   43.9023 N   0  0  0  0  0  0  0  0  0  0  0  0
   45.6683   34.0039   45.1021 C   0  0  0  0  0  0  0  0  0  0  0  0
   44.8198   34.9953   45.3979 N   0  0  0  0  0  0  0  0  0  0  0  0
   46.7258   34.9785   41.7337 O   0  0  0  0  0  0  0  0  0  0  0  0
   48.6457   33.3266   40.9707 O   0  0  0  0  0  0  0  0  0  0  0  0
   48.4061   34.6772   41.6281 P   0  0  0  0  0  0  0  0  0  0  0  0
   49.1197   35.9239   40.7786 O   0  0  0  0  0  0  0  0  0  0  0  0
   48.9908   34.5939   43.2295 O   0  0  0  0  0  0  0  0  0  0  0  0
   43.9138   36.8233   44.6701 H   0  0  0  0  0  0  0  0  0  0  0  0
   45.0288   36.8008   42.5436 H   0  0  0  0  0  0  0  0  0  0  0  0
   49.2982   35.6114   39.8441 H   0  0  0  0  0  0  0  0  0  0  0  0
   48.9545   35.5265   43.5679 H   0  0  0  0  0  0  0  0  0  0  0  0
   45.9257   32.9324   46.0582 C   0  0  0  0  0  0  0  0  0  0  0  0
   46.2517   31.6699   45.6093 C   0  0  0  0  0  0  0  0  0  0  0  0
   46.3163   31.4760   44.5368 H   0  0  0  0  0  0  0  0  0  0  0  0
   46.5059   30.6183   46.4392 C   0  0  0  0  0  0  0  0  0  0  0  0
   46.7613   29.6313   46.0452 H   0  0  0  0  0  0  0  0  0  0  0  0
   46.4304   30.8393   47.7922 C   0  0  0  0  0  0  0  0  0  0  0  0
   46.1018   32.1117   48.2533 C   0  0  0  0  0  0  0  0  0  0  0  0
   45.8562   33.1315   47.3882 N   0  0  0  0  0  0  0  0  0  0  0  0
   46.6285   30.0184   48.4620 H   0  0  0  0  0  0  0  0  0  0  0  0
   46.0375   32.3053   49.3168 H   0  0  0  0  0  0  0  0  0  0  0  0
  1  6  2  0
  2  1  1  0
  3  2  2  0
  3  4  1  0
  4  5  2  0
  5  6  1  0
  7  3  1  0
  8  9  2  0
  9  7  1  0
  9 11  1  0
 10  9  1  0
  1 12  1  0
  2 13  1  0
 10 14  1  0
 11 15  1  0
 16 17  2  0
 17 18  1  0
 17 19  1  0
 19 20  1  0
 19 21  2  0
 21 22  1  0
 22 23  2  0
 23 16  1  0
 21 24  1  0
 22 25  1  0
  5 16  1  0
M  ISO  6  12  14  13  14  14   3  15   3  18  15  20  16
M  END
>  <DihAtoms>  (1) 
3,4,15,16

>  <DihDeg>  (1) 
-0.0013301982833594575

$$$$
