
     RDKit          3D

 25 26  0  0  0  0  0  0  0  0999 V2000
   44.5460   35.9410   44.5420 C   0  0  0  0  0  0  0  0  0  0  0  0
   45.1670   35.8940   43.2830 C   0  0  0  0  0  0  0  0  0  0  0  0
   46.0930   34.8700   43.0590 C   0  0  0  0  0  0  0  0  0  0  0  0
   46.3340   33.9900   44.0630 N   0  0  0  0  0  0  0  0  0  0  0  0
   45.7180   34.0610   45.2660 C   0  0  0  0  0  0  0  0  0  0  0  0
   44.8300   35.0350   45.4960 N   0  0  0  0  0  0  0  0  0  0  0  0
   46.0300   33.0760   46.2970 C   0  0  0  0  0  0  0  0  0  0  0  0
   45.2590   33.0060   47.4390 C   0  0  0  0  0  0  0  0  0  0  0  0
   45.4870   32.1150   48.4460 C   0  0  0  0  0  0  0  0  0  0  0  0
   46.5410   31.2470   48.3050 C   0  0  0  0  0  0  0  0  0  0  0  0
   47.3230   31.3120   47.1540 C   0  0  0  0  0  0  0  0  0  0  0  0
   47.0590   32.2180   46.1750 N   0  0  0  0  0  0  0  0  0  0  0  0
   46.7060   34.8220   41.8220 O   0  0  0  0  0  0  0  0  0  0  0  0
   48.6830   33.2140   41.1150 O   0  0  0  0  0  0  0  0  0  0  0  0
   48.3950   34.5790   41.7200 P   0  0  0  0  0  0  0  0  0  0  0  0
   49.0600   35.8170   40.8200 O   0  0  0  0  0  0  0  0  0  0  0  0
   48.9880   34.5800   43.3220 O   0  0  0  0  0  0  0  0  0  0  0  0
   43.8131   36.7339   44.7524 H   0  0  0  0  0  0  0  0  0  0  0  0
   44.9340   36.6340   42.5032 H   0  0  0  0  0  0  0  0  0  0  0  0
   44.4163   33.7054   47.5427 H   0  0  0  0  0  0  0  0  0  0  0  0
   44.8479   32.0927   49.3410 H   0  0  0  0  0  0  0  0  0  0  0  0
   46.7651   30.5100   49.0903 H   0  0  0  0  0  0  0  0  0  0  0  0
   48.1685   30.6185   47.0351 H   0  0  0  0  0  0  0  0  0  0  0  0
   49.4297   36.5053   41.4280 H   0  0  0  0  0  0  0  0  0  0  0  0
   48.2272   34.5787   43.9555 H   0  0  0  0  0  0  0  0  0  0  0  0
  1  6  2  0
  2  1  1  0
  3  2  2  0
  3  4  1  0
  4  5  2  0
  5  6  1  0
  5  7  1  0
  7  8  2  0
  8  9  1  0
 10  9  2  0
 11 10  1  0
 12  7  1  0
 12 11  2  0
 13  3  1  0
 14 15  2  0
 15 13  1  0
 15 17  1  0
 16 15  1  0
  1 18  1  0
  2 19  1  0
  8 20  1  0
  9 21  1  0
 10 22  1  0
 11 23  1  0
 16 24  1  0
 17 25  1  0
M  ISO  8  18  14  19  14  20  14  21  14  22  14  23  14  24   3  25   3
M  END
>  <minimizedAffinity>  (1) 
-5.78094339

>  <minimizedRMSD>  (1) 
0.342744559

$$$$
