
     RDKit          3D

 45 47  0  0  0  0  0  0  0  0999 V2000
   46.5752   34.9085   43.2488 O   0  0  0  0  0  0  0  0  0  0  0  0
   46.8021   33.9762   42.2301 C   0  0  1  0  0  0  0  0  0  0  0  0
   46.0737   34.4149   40.9557 C   0  0  0  0  0  0  0  0  0  0  0  0
   46.6898   33.4686   39.9524 C   0  0  0  0  0  0  0  0  0  0  0  0
   48.0767   33.1421   40.4768 C   0  0  0  0  0  0  0  0  0  0  0  0
   48.2157   33.9571   41.7400 C   0  0  1  0  0  0  0  0  0  0  0  0
   48.7604   35.3330   41.4589 C   0  0  0  0  0  0  0  0  0  0  0  0
   49.6559   35.7536   42.4167 O   0  0  0  0  0  0  0  0  0  0  0  0
   44.7329   35.3552   44.9985 O   0  0  0  0  0  0  0  0  0  0  0  0
   45.5785   34.2426   44.4119 P   0  0  1  0  0  0  0  0  0  0  0  0
   44.6058   33.0402   43.7183 O   0  0  0  0  0  0  0  0  0  0  0  0
   46.4727   33.4940   45.6039 O   0  0  0  0  0  0  0  0  0  0  0  0
   46.2290   32.1585   45.5712 C   0  0  0  0  0  0  0  0  0  0  0  0
   45.6426   31.8994   49.2340 C   0  0  0  0  0  0  0  0  0  0  0  0
   45.9765   32.4591   47.9946 C   0  0  0  0  0  0  0  0  0  0  0  0
   45.8815   31.6106   46.8933 C   0  0  0  0  0  0  0  0  0  0  0  0
   45.4795   30.3163   47.0755 N   0  0  0  0  0  0  0  0  0  0  0  0
   45.1659   29.8125   48.2878 C   0  0  0  0  0  0  0  0  0  0  0  0
   45.2498   30.6037   49.3487 N   0  0  0  0  0  0  0  0  0  0  0  0
   46.4536   32.9666   42.4533 H   0  0  0  0  0  0  0  0  0  0  0  0
   46.1778   35.4696   40.7292 H   0  0  0  0  0  0  0  0  0  0  0  0
   44.9826   34.1445   41.0500 H   0  0  0  0  0  0  0  0  0  0  0  0
   46.0643   32.5719   39.8254 H   0  0  0  0  0  0  0  0  0  0  0  0
   46.8467   33.9721   38.9731 H   0  0  0  0  0  0  0  0  0  0  0  0
   48.8696   33.3432   39.7465 H   0  0  0  0  0  0  0  0  0  0  0  0
   48.0348   32.0640   40.7964 H   0  0  0  0  0  0  0  0  0  0  0  0
   48.8661   33.4109   42.4833 H   0  0  0  0  0  0  0  0  0  0  0  0
   48.0149   36.1167   41.3357 H   0  0  0  0  0  0  0  0  0  0  0  0
   49.3248   35.2468   40.4922 H   0  0  0  0  0  0  0  0  0  0  0  0
   50.0613   34.9776   42.8995 H   0  0  0  0  0  0  0  0  0  0  0  0
   43.8254   33.4163   43.2452 H   0  0  0  0  0  0  0  0  0  0  0  0
   45.5093   31.7782   44.8529 H   0  0  0  0  0  0  0  0  0  0  0  0
   47.2100   31.6684   45.3015 H   0  0  0  0  0  0  0  0  0  0  0  0
   45.7207   32.5721   50.0854 H   0  0  0  0  0  0  0  0  0  0  0  0
   46.2859   33.4941   47.9350 H   0  0  0  0  0  0  0  0  0  0  0  0
   44.7443   28.4199   48.4069 C   0  0  0  0  0  0  0  0  0  0  0  0
   45.2384   27.4940   47.5006 C   0  0  0  0  0  0  0  0  0  0  0  0
   45.9291   27.8353   46.7239 H   0  0  0  0  0  0  0  0  0  0  0  0
   44.8543   26.1618   47.5899 C   0  0  0  0  0  0  0  0  0  0  0  0
   45.2297   25.4476   46.8981 H   0  0  0  0  0  0  0  0  0  0  0  0
   43.9714   25.8678   48.6253 C   0  0  0  0  0  0  0  0  0  0  0  0
   43.4763   26.7691   49.5255 C   0  0  0  0  0  0  0  0  0  0  0  0
   43.8928   28.0428   49.3773 N   0  0  0  0  0  0  0  0  0  0  0  0
   43.6911   24.8061   48.6636 H   0  0  0  0  0  0  0  0  0  0  0  0
   42.8002   26.3973   50.2742 H   0  0  0  0  0  0  0  0  0  0  0  0
 10  1  1  6
  2  1  1  0
  3  2  1  0
  4  5  1  0
  4  3  1  0
  5  6  1  0
  6  2  1  0
  7  6  1  0
  7  8  1  0
 10  9  2  0
 10 12  1  0
 11 10  1  0
 13 12  1  0
 13 16  1  0
 14 19  2  0
 15 14  1  0
 16 17  1  0
 16 15  2  0
 17 18  2  0
 18 19  1  0
  2 20  1  1
  3 21  1  0
  3 22  1  0
  4 23  1  0
  4 24  1  0
  5 25  1  0
  5 26  1  0
  6 27  1  1
  7 28  1  0
  7 29  1  0
  8 30  1  0
 11 31  1  0
 13 32  1  0
 13 33  1  0
 14 34  1  0
 15 35  1  0
 36 37  2  0
 37 38  1  0
 37 39  1  0
 39 40  1  0
 39 41  2  0
 41 42  1  0
 42 43  2  0
 43 36  1  0
 41 44  1  0
 42 45  1  0
 18 36  1  0
M  ISO  8  20  13  21  13  22  13  23  13  24  13  25  13  26  13  27  13
M  ISO  8  28   8  29   8  30   3  31   3  32   8  33   8  34  14  35  14
M  ISO  2  38  15  40  16
M  END
>  <DihAtoms>  (1) 
16,17,35,36

>  <DihDeg>  (1) 
179.99908242162812

$$$$
