
     RDKit          3D

 37 40  0  0  1  0  0  0  0  0999 V2000
   46.8320   34.9340   42.6390 C   0  0  0  0  0  0  0  0  0  0  0  0
   45.9370   35.9850   42.5860 C   0  0  0  0  0  0  0  0  0  0  0  0
   44.9520   36.0320   43.5630 C   0  0  0  0  0  0  0  0  0  0  0  0
   44.9130   35.0620   44.5120 N   0  0  0  0  0  0  0  0  0  0  0  0
   45.8060   34.0550   44.5270 C   0  0  0  0  0  0  0  0  0  0  0  0
   46.7710   33.9820   43.5930 N   0  0  0  0  0  0  0  0  0  0  0  0
   46.0360   31.6960   45.1510 C   0  0  0  0  0  0  0  0  0  0  0  0
   45.7680   33.0060   45.5500 C   0  0  0  0  0  0  0  0  0  0  0  0
   45.4780   33.2850   46.8810 C   0  0  0  0  0  0  0  0  0  0  0  0
   45.4670   32.2370   47.7760 C   0  0  0  0  0  0  0  0  0  0  0  0
   45.2340   32.1730   49.0920 N   0  0  0  0  0  0  0  0  0  0  0  0
   45.3340   30.9260   49.5590 C   0  0  0  0  0  0  0  0  0  0  0  0
   45.6500   30.1090   48.5080 C   0  0  0  0  0  0  0  0  0  0  0  0
   45.7340   30.9260   47.3920 C   0  0  0  0  0  0  0  0  0  0  0  0
   46.0210   30.6670   46.0590 C   0  0  0  0  0  0  0  0  0  0  0  0
   47.8550   34.9110   41.6020 C   0  0  0  0  0  0  0  0  0  0  0  0
   49.0530   35.3470   41.7740 O   0  0  0  0  0  0  0  0  0  0  0  0
   47.5650   34.3770   40.2720 C   0  0  0  0  0  0  0  0  0  0  0  0
   48.3770   34.6550   39.2150 C   0  0  0  0  0  0  0  0  0  0  0  0
   48.0880   34.1420   37.9650 C   0  0  0  0  0  0  0  0  0  0  0  0
   46.9830   33.3410   37.7420 C   0  0  0  0  0  0  0  0  0  0  0  0
   46.2190   33.1130   38.8630 C   0  0  0  0  0  0  0  0  0  0  0  0
   46.4590   33.5920   40.1120 N   0  0  0  0  0  0  0  0  0  0  0  0
   46.0022   36.7533   41.8015 H   0  0  0  0  0  0  0  0  0  0  0  0
   44.2118   36.8456   43.5682 H   0  0  0  0  0  0  0  0  0  0  0  0
   46.2622   31.4854   44.0953 H   0  0  0  0  0  0  0  0  0  0  0  0
   45.2636   34.3125   47.2101 H   0  0  0  0  0  0  0  0  0  0  0  0
   45.0045   32.9897   49.6762 H   0  0  0  0  0  0  0  0  0  0  0  0
   45.1882   30.6116   50.6030 H   0  0  0  0  0  0  0  0  0  0  0  0
   45.8062   29.0207   48.5421 H   0  0  0  0  0  0  0  0  0  0  0  0
   46.2360   29.6393   45.7310 H   0  0  0  0  0  0  0  0  0  0  0  0
   48.1708   33.9116   41.9357 H   0  0  0  0  0  0  0  0  0  0  0  0
   49.2430   35.4162   42.7431 H   0  0  0  0  0  0  0  0  0  0  0  0
   49.2646   35.2891   39.3564 H   0  0  0  0  0  0  0  0  0  0  0  0
   48.7559   34.3775   37.1233 H   0  0  0  0  0  0  0  0  0  0  0  0
   46.7366   32.9229   36.7549 H   0  0  0  0  0  0  0  0  0  0  0  0
   45.3272   32.4817   38.7362 H   0  0  0  0  0  0  0  0  0  0  0  0
  1  6  1  0
  2  1  2  0
  2  3  1  0
  3  4  2  0
  4  5  1  0
  5  8  1  0
  6  5  2  0
  7  8  2  0
  7 15  1  0
  8  9  1  0
  9 10  2  0
 10 11  1  0
 11 12  1  0
 13 12  2  0
 14 10  1  0
 14 13  1  0
 15 14  2  0
 16 17  1  0
 16  1  1  0
 18 16  1  0
 19 18  2  0
 20 19  1  0
 21 20  2  0
 21 22  1  0
 22 23  2  0
 23 18  1  0
  2 24  1  0
  3 25  1  0
  7 26  1  0
  9 27  1  0
 11 28  1  0
 12 29  1  0
 13 30  1  0
 15 31  1  0
 16 32  1  0
 17 33  1  0
 19 34  1  0
 20 35  1  0
 21 36  1  0
 22 37  1  0
M  ISO  8  24  14  25  14  26  14  27  14  28   9  29  14  30  14  31  14
M  ISO  6  32   8  33   3  34  14  35  14  36  14  37  14
M  END
>  <minimizedAffinity>  (1) 
-6.33306265

>  <minimizedRMSD>  (1) 
0.894877553

$$$$
