
     RDKit          3D

 44 47  0  0  0  0  0  0  0  0999 V2000
   47.5538   29.9713   48.2814 C   0  0  1  0  0  0  0  0  0  0  0  0
   47.4489   28.7788   47.3752 C   0  0  0  0  0  0  0  0  0  0  0  0
   48.7321   28.0252   47.1739 C   0  0  0  0  0  0  0  0  0  0  0  0
   49.5177   27.8434   48.4590 C   0  0  0  0  0  0  0  0  0  0  0  0
   49.5820   29.1015   49.2685 C   0  0  0  0  0  0  0  0  0  0  0  0
   49.0480   30.2901   48.4594 C   0  0  2  0  0  0  0  0  0  0  0  0
   45.9179   33.1472   46.2431 C   0  0  0  0  0  0  0  0  0  0  0  0
   45.3374   32.9336   47.4914 C   0  0  0  0  0  0  0  0  0  0  0  0
   45.7887   31.9282   48.2383 C   0  0  0  0  0  0  0  0  0  0  0  0
   46.8374   31.0997   47.7703 C   0  0  0  0  0  0  0  0  0  0  0  0
   47.1973   31.8163   46.1360 S   0  0  0  0  0  0  0  0  0  0  0  0
   44.4232   36.1019   44.5405 C   0  0  0  0  0  0  0  0  0  0  0  0
   45.0607   36.0191   43.3039 C   0  0  0  0  0  0  0  0  0  0  0  0
   45.9670   34.9723   43.0924 C   0  0  0  0  0  0  0  0  0  0  0  0
   46.1778   34.0837   44.1180 N   0  0  0  0  0  0  0  0  0  0  0  0
   45.5374   34.2092   45.2902 C   0  0  0  0  0  0  0  0  0  0  0  0
   44.6568   35.2190   45.5071 N   0  0  0  0  0  0  0  0  0  0  0  0
   49.1933   31.5108   49.2506 C   0  0  0  0  0  0  0  0  0  0  0  0
   49.9818   31.6148   50.1560 O   0  0  0  0  0  0  0  0  0  0  0  0
   47.1719   29.7103   49.2649 H   0  0  0  0  0  0  0  0  0  0  0  0
   47.1247   29.1496   46.3834 H   0  0  0  0  0  0  0  0  0  0  0  0
   46.6910   28.0714   47.7728 H   0  0  0  0  0  0  0  0  0  0  0  0
   48.4592   27.0088   46.8366 H   0  0  0  0  0  0  0  0  0  0  0  0
   49.3374   28.5166   46.3896 H   0  0  0  0  0  0  0  0  0  0  0  0
   50.5350   27.5166   48.1586 H   0  0  0  0  0  0  0  0  0  0  0  0
   49.0701   26.9943   49.0069 H   0  0  0  0  0  0  0  0  0  0  0  0
   48.9613   28.9352   50.1632 H   0  0  0  0  0  0  0  0  0  0  0  0
   50.6248   29.2852   49.5794 H   0  0  0  0  0  0  0  0  0  0  0  0
   49.5651   30.3145   47.4862 H   0  0  0  0  0  0  0  0  0  0  0  0
   44.5389   33.5751   47.8376 H   0  0  0  0  0  0  0  0  0  0  0  0
   45.4501   31.6292   49.2166 H   0  0  0  0  0  0  0  0  0  0  0  0
   43.7207   36.9046   44.7182 H   0  0  0  0  0  0  0  0  0  0  0  0
   44.9040   36.7039   42.5020 H   0  0  0  0  0  0  0  0  0  0  0  0
   46.4969   34.8434   42.1635 H   0  0  0  0  0  0  0  0  0  0  0  0
   48.6749   32.8597   49.3696 C   0  0  0  0  0  0  0  0  0  0  0  0
   48.5405   33.7783   48.3133 C   0  0  0  0  0  0  0  0  0  0  0  0
   48.8030   33.4079   47.3266 H   0  0  0  0  0  0  0  0  0  0  0  0
   48.1177   35.0857   48.3792 C   0  0  0  0  0  0  0  0  0  0  0  0
   48.0611   35.6815   47.4924 H   0  0  0  0  0  0  0  0  0  0  0  0
   47.7946   35.5188   49.6373 C   0  0  0  0  0  0  0  0  0  0  0  0
   47.9110   34.6555   50.6907 C   0  0  0  0  0  0  0  0  0  0  0  0
   48.3279   33.4089   50.5366 N   0  0  0  0  0  0  0  0  0  0  0  0
   47.4555   36.5190   49.7974 H   0  0  0  0  0  0  0  0  0  0  0  0
   47.6575   34.9789   51.7097 H   0  0  0  0  0  0  0  0  0  0  0  0
  1  6  1  0
  2  1  1  0
  3  2  1  0
  3  4  1  0
  4  5  1  0
  6 18  1  0
  6  5  1  0
  7  8  2  0
  8  9  1  0
 10  1  1  0
 10  9  2  0
 11  7  1  0
 11 10  1  0
 12 17  2  0
 13 12  1  0
 14 13  2  0
 14 15  1  0
 15 16  2  0
 16 17  1  0
 16  7  1  0
 18 19  2  0
  1 20  1  1
  2 21  1  0
  2 22  1  0
  3 23  1  0
  3 24  1  0
  4 25  1  0
  4 26  1  0
  5 27  1  0
  5 28  1  0
  6 29  1  6
  8 30  1  0
  9 31  1  0
 12 32  1  0
 13 33  1  0
 14 34  1  0
 35 36  2  0
 36 37  1  0
 36 38  1  0
 38 39  1  0
 38 40  2  0
 40 41  1  0
 41 42  2  0
 42 35  1  0
 40 43  1  0
 41 44  1  0
 18 35  1  0
M  ISO  8  20  13  21  13  22  13  23  13  24  13  25  13  26  13  27  13
M  ISO  8  28  13  29  13  30  14  31  14  32  14  33  14  34  14  37  15
M  ISO  1  39  16
M  END
>  <DihAtoms>  (1) 
5,17,34,35

>  <DihDeg>  (1) 
130.38110271736568

$$$$
