
     RDKit          3D

 39 41  0  0  0  0  0  0  0  0999 V2000
   44.7638   34.4844   40.4619 C   0  0  0  0  0  0  0  0  0  0  0  0
   45.9192   34.1208   41.0084 N   0  0  0  0  0  0  0  0  0  0  0  0
   46.8338   33.1308   40.5698 C   0  0  0  0  0  0  0  0  0  0  0  0
   47.9012   34.0523   39.9385 C   0  0  0  0  0  0  0  0  0  0  0  0
   48.5031   34.9860   40.8931 C   0  0  0  0  0  0  0  0  0  0  0  0
   47.7593   35.3212   42.1075 C   0  0  0  0  0  0  0  0  0  0  0  0
   46.3230   34.8782   42.1999 C   0  0  0  0  0  0  0  0  0  0  0  0
   45.3048   35.2974   43.5741 S   0  0  0  0  0  0  0  0  0  0  0  0
   43.6401   33.5422   40.7763 C   0  0  0  0  0  0  0  0  0  0  0  0
   42.3751   34.2904   40.5392 C   0  0  0  0  0  0  0  0  0  0  0  0
   41.6323   34.1429   39.3788 C   0  0  0  0  0  0  0  0  0  0  0  0
   40.4768   34.9008   39.2536 C   0  0  0  0  0  0  0  0  0  0  0  0
   40.1257   35.7450   40.2610 N   0  0  0  0  0  0  0  0  0  0  0  0
   40.8646   35.8585   41.3598 C   0  0  0  0  0  0  0  0  0  0  0  0
   41.9814   35.1300   41.4871 N   0  0  0  0  0  0  0  0  0  0  0  0
   44.8664   34.5528   39.3423 H   0  0  0  0  0  0  0  0  0  0  0  0
   44.3540   35.5227   40.6895 H   0  0  0  0  0  0  0  0  0  0  0  0
   47.2321   32.4124   41.2577 H   0  0  0  0  0  0  0  0  0  0  0  0
   46.3958   32.5909   39.6794 H   0  0  0  0  0  0  0  0  0  0  0  0
   47.3502   34.5902   39.1394 H   0  0  0  0  0  0  0  0  0  0  0  0
   48.6795   33.4329   39.4281 H   0  0  0  0  0  0  0  0  0  0  0  0
   49.4895   34.5631   41.2414 H   0  0  0  0  0  0  0  0  0  0  0  0
   48.8076   35.9106   40.3190 H   0  0  0  0  0  0  0  0  0  0  0  0
   48.1058   35.8698   42.9429 H   0  0  0  0  0  0  0  0  0  0  0  0
   45.0205   36.6580   43.6824 H   0  0  0  0  0  0  0  0  0  0  0  0
   43.7064   32.6062   40.2041 H   0  0  0  0  0  0  0  0  0  0  0  0
   43.6997   33.3043   41.8598 H   0  0  0  0  0  0  0  0  0  0  0  0
   41.9691   33.4555   38.6216 H   0  0  0  0  0  0  0  0  0  0  0  0
   39.8780   34.8076   38.3613 H   0  0  0  0  0  0  0  0  0  0  0  0
   40.4212   36.7867   42.3979 C   0  0  0  0  0  0  0  0  0  0  0  0
   40.8255   38.1069   42.3997 C   0  0  0  0  0  0  0  0  0  0  0  0
   41.4861   38.5015   41.6312 H   0  0  0  0  0  0  0  0  0  0  0  0
   40.3931   38.9649   43.3913 C   0  0  0  0  0  0  0  0  0  0  0  0
   40.6563   40.0088   43.4732 H   0  0  0  0  0  0  0  0  0  0  0  0
   39.5620   38.3911   44.3243 C   0  0  0  0  0  0  0  0  0  0  0  0
   39.1246   37.0752   44.3715 C   0  0  0  0  0  0  0  0  0  0  0  0
   39.5999   36.3104   43.3596 N   0  0  0  0  0  0  0  0  0  0  0  0
   39.1986   39.0424   45.1271 H   0  0  0  0  0  0  0  0  0  0  0  0
   38.4761   36.7401   45.1487 H   0  0  0  0  0  0  0  0  0  0  0  0
  1  9  1  0
  1  2  1  0
  2  7  1  0
  3  2  1  0
  4  3  1  0
  4  5  1  0
  5  6  1  0
  6  7  2  0
  7  8  1  0
 10  9  1  0
 10 15  1  0
 11 10  2  0
 12 11  1  0
 12 13  2  0
 13 14  1  0
 14 15  2  0
  1 16  1  0
  1 17  1  0
  3 18  1  0
  3 19  1  0
  4 20  1  0
  4 21  1  0
  5 22  1  0
  5 23  1  0
  6 24  1  0
  8 25  1  0
  9 26  1  0
  9 27  1  0
 11 28  1  0
 12 29  1  0
 30 31  2  0
 31 32  1  0
 31 33  1  0
 33 34  1  0
 33 35  2  0
 35 36  1  0
 36 37  2  0
 37 30  1  0
 35 38  1  0
 36 39  1  0
 14 30  1  0
M  ISO  8  16   8  17   8  18  13  19  13  20  13  21  13  22  13  23  13
M  ISO  8  24  13  25  11  26   8  27   8  28  14  29  14  32  15  34  16
M  END
>  <DihAtoms>  (1) 
12,13,29,30

>  <DihDeg>  (1) 
-179.99797752224666

$$$$
