
     RDKit          3D

 48 51  0  0  1  0  0  0  0  0999 V2000
   48.5700   33.5630   39.2270 N   0  0  0  0  0  0  0  0  0  0  0  0
   47.4780   34.5620   42.4540 N   0  0  0  0  0  0  0  0  0  0  0  0
   47.4310   34.7870   41.0140 C   0  0  0  0  0  0  0  0  0  0  0  0
   48.0990   33.5290   40.5720 C   0  0  2  0  0  0  0  0  0  0  0  0
   49.3180   33.4780   41.4790 C   0  0  0  0  0  0  0  0  0  0  0  0
   48.7880   34.0730   42.7620 C   0  0  0  0  0  0  0  0  0  0  0  0
   44.5690   35.8450   44.4010 C   0  0  0  0  0  0  0  0  0  0  0  0
   45.4980   35.7470   43.3770 C   0  0  0  0  0  0  0  0  0  0  0  0
   46.4840   34.7550   43.4360 C   0  0  0  0  0  0  0  0  0  0  0  0
   46.4610   33.9380   44.5200 N   0  0  0  0  0  0  0  0  0  0  0  0
   45.5730   34.0210   45.5150 C   0  0  0  0  0  0  0  0  0  0  0  0
   44.6200   34.9890   45.4440 N   0  0  0  0  0  0  0  0  0  0  0  0
   48.7770   32.2570   37.1190 C   0  0  0  0  0  0  0  0  0  0  0  0
   48.0560   33.0540   38.0230 C   0  0  0  0  0  0  0  0  0  0  0  0
   46.7660   33.2990   37.6140 C   0  0  0  0  0  0  0  0  0  0  0  0
   46.1870   32.8440   36.4620 C   0  0  0  0  0  0  0  0  0  0  0  0
   46.9330   32.0680   35.6090 C   0  0  0  0  0  0  0  0  0  0  0  0
   48.2340   31.7870   35.9640 C   0  0  0  0  0  0  0  0  0  0  0  0
   49.5360   31.5640   33.8930 C   0  0  0  0  0  0  0  0  0  0  0  0
   49.3300   32.7930   33.6520 O   0  0  0  0  0  0  0  0  0  0  0  0
   48.9850   30.9740   35.0530 N   0  0  0  0  0  0  0  0  0  0  0  0
   50.3510   30.7550   32.9600 C   0  0  0  0  0  0  0  0  0  0  0  0
   51.7230   30.7580   33.1030 C   0  0  0  0  0  0  0  0  0  0  0  0
   52.4360   30.0020   32.2260 C   0  0  0  0  0  0  0  0  0  0  0  0
   51.7670   29.2860   31.2550 C   0  0  0  0  0  0  0  0  0  0  0  0
   50.3770   29.2790   31.1050 C   0  0  0  0  0  0  0  0  0  0  0  0
   49.7280   30.0440   32.0020 N   0  0  0  0  0  0  0  0  0  0  0  0
   51.2470   31.6970   37.7690 N   0  0  0  0  0  0  0  0  0  0  0  0
   50.1590   31.9520   37.4840 C   0  0  0  0  0  0  0  0  0  0  0  0
   49.4655   34.0597   39.1160 H   0  0  0  0  0  0  0  0  0  0  0  0
   46.3994   34.8621   40.6397 H   0  0  0  0  0  0  0  0  0  0  0  0
   47.8912   35.7217   40.6612 H   0  0  0  0  0  0  0  0  0  0  0  0
   47.4019   32.6796   40.6235 H   0  0  0  0  0  0  0  0  0  0  0  0
   49.6590   32.4432   41.6306 H   0  0  0  0  0  0  0  0  0  0  0  0
   50.1915   34.0099   41.0740 H   0  0  0  0  0  0  0  0  0  0  0  0
   49.4350   34.8967   43.0981 H   0  0  0  0  0  0  0  0  0  0  0  0
   48.7622   33.3296   43.5724 H   0  0  0  0  0  0  0  0  0  0  0  0
   43.7898   36.6205   44.3639 H   0  0  0  0  0  0  0  0  0  0  0  0
   45.4608   36.4425   42.5256 H   0  0  0  0  0  0  0  0  0  0  0  0
   45.6115   33.3264   46.3671 H   0  0  0  0  0  0  0  0  0  0  0  0
   46.1421   33.9185   38.2750 H   0  0  0  0  0  0  0  0  0  0  0  0
   45.1430   33.0948   36.2228 H   0  0  0  0  0  0  0  0  0  0  0  0
   46.5050   31.6829   34.6717 H   0  0  0  0  0  0  0  0  0  0  0  0
   49.1216   29.9707   35.2418 H   0  0  0  0  0  0  0  0  0  0  0  0
   52.2178   31.3452   33.8906 H   0  0  0  0  0  0  0  0  0  0  0  0
   53.5334   29.9618   32.2901 H   0  0  0  0  0  0  0  0  0  0  0  0
   52.3643   28.6831   30.5552 H   0  0  0  0  0  0  0  0  0  0  0  0
   49.8607   28.7007   30.3246 H   0  0  0  0  0  0  0  0  0  0  0  0
  1  4  1  0
  2  6  1  0
  2  9  1  0
  3  2  1  0
  4  3  1  0
  4  5  1  0
  5  6  1  0
  7 12  2  0
  8  9  2  0
  8  7  1  0
  9 10  1  0
 10 11  2  0
 12 11  1  0
 13 29  1  0
 13 14  2  0
 14  1  1  0
 15 14  1  0
 16 15  2  0
 17 18  2  0
 17 16  1  0
 18 13  1  0
 19 21  1  0
 20 19  2  0
 21 18  1  0
 22 23  2  0
 22 19  1  0
 24 23  1  0
 25 24  2  0
 26 25  1  0
 26 27  2  0
 27 22  1  0
 29 28  3  0
  1 30  1  0
  3 31  1  0
  3 32  1  0
  4 33  1  6
  5 34  1  0
  5 35  1  0
  6 36  1  0
  6 37  1  0
  7 38  1  0
  8 39  1  0
 11 40  1  0
 15 41  1  0
 16 42  1  0
 17 43  1  0
 21 44  1  0
 23 45  1  0
 24 46  1  0
 25 47  1  0
 26 48  1  0
M  ISO  8  31  13  32  13  33  13  34  13  35  13  36  13  37  13  38  14
M  ISO  8  39  14  40  14  41  14  42  14  43  14  45  14  46  14  47  14
M  ISO  1  48  14
M  END
>  <minimizedAffinity>  (1) 
-5.58535767

>  <minimizedRMSD>  (1) 
0.290725082

$$$$
