
     RDKit          3D

 43 46  0  0  1  0  0  0  0  0999 V2000
   42.0710   33.2630   41.1260 C   0  0  0  0  0  0  0  0  0  0  0  0
   42.7970   34.4000   41.3240 C   0  0  0  0  0  0  0  0  0  0  0  0
   42.1240   35.6320   41.2890 C   0  0  0  0  0  0  0  0  0  0  0  0
   40.7760   35.7470   41.0670 C   0  0  0  0  0  0  0  0  0  0  0  0
   40.0510   34.6030   40.8690 C   0  0  0  0  0  0  0  0  0  0  0  0
   40.6970   33.4040   40.9020 C   0  0  0  0  0  0  0  0  0  0  0  0
   42.7470   31.7180   41.2050 S   0  0  0  0  0  0  0  0  0  0  0  0
   41.6780   30.8740   40.4710 O   0  0  0  0  0  0  0  0  0  0  0  0
   42.8290   31.2050   42.6050 O   0  0  0  0  0  0  0  0  0  0  0  0
   43.9290   31.0070   40.2340 C   0  0  0  0  0  0  0  0  0  0  0  0
   43.9230   31.4500   38.8840 C   0  0  0  0  0  0  0  0  0  0  0  0
   44.8410   31.0540   37.9430 C   0  0  0  0  0  0  0  0  0  0  0  0
   45.7910   30.1850   38.3780 C   0  0  0  0  0  0  0  0  0  0  0  0
   45.8670   29.7120   39.6550 C   0  0  0  0  0  0  0  0  0  0  0  0
   44.9370   30.1520   40.4930 N   0  0  0  0  0  0  0  0  0  0  0  0
   44.2400   34.3780   41.5540 C   0  0  0  0  0  0  0  0  0  0  0  0
   45.1210   34.2940   40.6270 O   0  0  0  0  0  0  0  0  0  0  0  0
   44.5880   34.4640   42.9420 C   0  0  0  0  0  0  0  0  0  0  0  0
   44.3080   35.7130   43.5760 C   0  0  0  0  0  0  0  0  0  0  0  0
   44.6280   35.8140   44.9250 C   0  0  0  0  0  0  0  0  0  0  0  0
   45.1770   34.7370   45.5430 N   0  0  0  0  0  0  0  0  0  0  0  0
   45.4260   33.5570   44.8900 C   0  0  0  0  0  0  0  0  0  0  0  0
   45.1290   33.4680   43.6410 N   0  0  0  0  0  0  0  0  0  0  0  0
   46.0160   32.4420   45.6520 C   0  0  1  0  0  0  0  0  0  0  0  0
   46.9620   32.7500   46.7910 C   0  0  0  0  0  0  0  0  0  0  0  0
   45.5460   32.3360   47.0590 C   0  0  1  0  0  0  0  0  0  0  0  0
   44.7700   33.4060   47.6500 N   0  0  0  0  0  0  0  0  0  0  0  0
   42.7076   36.5508   41.4477 H   0  0  0  0  0  0  0  0  0  0  0  0
   40.2895   36.7334   41.0485 H   0  0  0  0  0  0  0  0  0  0  0  0
   38.9673   34.6508   40.6867 H   0  0  0  0  0  0  0  0  0  0  0  0
   40.1028   32.4920   40.7430 H   0  0  0  0  0  0  0  0  0  0  0  0
   43.1354   32.1526   38.5741 H   0  0  0  0  0  0  0  0  0  0  0  0
   44.8096   31.4164   36.9049 H   0  0  0  0  0  0  0  0  0  0  0  0
   46.5457   29.8417   37.6551 H   0  0  0  0  0  0  0  0  0  0  0  0
   46.6515   29.0086   39.9710 H   0  0  0  0  0  0  0  0  0  0  0  0
   43.8613   36.5532   43.0242 H   0  0  0  0  0  0  0  0  0  0  0  0
   44.4406   36.7455   45.4793 H   0  0  0  0  0  0  0  0  0  0  0  0
   46.0834   31.7821   44.7745 H   0  0  0  0  0  0  0  0  0  0  0  0
   47.7908   32.0644   47.0213 H   0  0  0  0  0  0  0  0  0  0  0  0
   47.5944   33.6044   47.0738 H   0  0  0  0  0  0  0  0  0  0  0  0
   45.0110   31.5337   47.5882 H   0  0  0  0  0  0  0  0  0  0  0  0
   44.8187   33.3388   48.6767 H   0  0  0  0  0  0  0  0  0  0  0  0
   45.1504   34.3139   47.3469 H   0  0  0  0  0  0  0  0  0  0  0  0
  1  7  1  0
  1  2  1  0
  2 16  1  0
  3  2  2  0
  4  3  1  0
  5  6  1  0
  5  4  2  0
  6  1  2  0
  7  9  2  0
  8  7  2  0
 10 15  1  0
 10  7  1  0
 11 10  2  0
 12 13  2  0
 12 11  1  0
 13 14  1  0
 14 15  2  0
 16 18  1  0
 17 16  2  0
 18 19  2  0
 18 23  1  0
 19 20  1  0
 20 21  2  0
 22 21  1  0
 22 24  1  0
 23 22  2  0
 24 25  1  0
 24 26  1  0
 25 26  1  0
 26 27  1  0
  3 28  1  0
  4 29  1  0
  5 30  1  0
  6 31  1  0
 11 32  1  0
 12 33  1  0
 13 34  1  0
 14 35  1  0
 19 36  1  0
 20 37  1  0
 24 38  1  6
 25 39  1  0
 25 40  1  0
 26 41  1  1
 27 42  1  0
 27 43  1  0
M  ISO  8  28  14  29  14  30  14  31  14  32  14  33  14  34  14  35  14
M  ISO  8  36  14  37  14  38  13  39  13  40  13  41  13  42   5  43   5
M  END
>  <minimizedAffinity>  (1) 
-5.75308752

>  <minimizedRMSD>  (1) 
1.53885758

$$$$
