
     RDKit          3D

 26 28  0  0  0  0  0  0  0  0999 V2000
   44.5678   35.8693   44.4121 C   0  0  0  0  0  0  0  0  0  0  0  0
   45.3351   35.9457   43.2227 C   0  0  0  0  0  0  0  0  0  0  0  0
   46.3257   34.9922   43.0508 C   0  0  0  0  0  0  0  0  0  0  0  0
   46.5143   34.0442   44.0115 N   0  0  0  0  0  0  0  0  0  0  0  0
   45.7548   34.0053   45.1411 C   0  0  0  0  0  0  0  0  0  0  0  0
   44.7921   34.9234   45.3193 N   0  0  0  0  0  0  0  0  0  0  0  0
   47.1983   34.9425   41.8751 C   0  0  0  0  0  0  0  0  0  0  0  0
   46.9728   34.2288   40.7192 C   0  0  0  0  0  0  0  0  0  0  0  0
   48.0322   34.4418   39.8409 C   0  0  0  0  0  0  0  0  0  0  0  0
   48.8636   35.2759   40.4918 N   0  0  0  0  0  0  0  0  0  0  0  0
   48.3835   35.5760   41.6866 N   0  0  0  0  0  0  0  0  0  0  0  0
   43.8009   36.5944   44.5619 H   0  0  0  0  0  0  0  0  0  0  0  0
   45.2002   36.6765   42.4671 H   0  0  0  0  0  0  0  0  0  0  0  0
   46.0274   33.1826   45.8200 H   0  0  0  0  0  0  0  0  0  0  0  0
   46.0690   33.6118   40.5938 H   0  0  0  0  0  0  0  0  0  0  0  0
   48.0011   33.9497   38.8904 H   0  0  0  0  0  0  0  0  0  0  0  0
   50.0709   35.7099   39.8752 C   0  0  0  0  0  0  0  0  0  0  0  0
   50.0263   36.1088   38.5408 C   0  0  0  0  0  0  0  0  0  0  0  0
   49.1061   36.0838   38.0106 H   0  0  0  0  0  0  0  0  0  0  0  0
   51.1229   36.5460   37.8398 C   0  0  0  0  0  0  0  0  0  0  0  0
   51.0479   36.8477   36.8033 H   0  0  0  0  0  0  0  0  0  0  0  0
   52.3536   36.5970   38.4917 C   0  0  0  0  0  0  0  0  0  0  0  0
   52.3769   36.1937   39.8265 C   0  0  0  0  0  0  0  0  0  0  0  0
   51.2698   35.7661   40.4889 N   0  0  0  0  0  0  0  0  0  0  0  0
   53.2335   36.9324   37.9803 H   0  0  0  0  0  0  0  0  0  0  0  0
   53.3314   36.2441   40.2970 H   0  0  0  0  0  0  0  0  0  0  0  0
  1  6  2  0
  2  1  1  0
  3  2  2  0
  3  4  1  0
  4  5  2  0
  5  6  1  0
  7  3  1  0
  8  7  1  0
  9 10  1  0
  9  8  2  0
 10 11  1  0
 11  7  2  0
  1 12  1  0
  2 13  1  0
  5 14  1  0
  8 15  1  0
  9 16  1  0
 17 18  2  0
 18 19  1  0
 18 20  1  0
 20 21  1  0
 20 22  2  0
 22 23  1  0
 23 24  2  0
 24 17  1  0
 22 25  1  0
 23 26  1  0
 10 17  1  0
M  ISO  7  12  14  13  14  14  14  15  14  16  14  19  15  21  16
M  END
>  <DihAtoms>  (1) 
8,9,16,17

>  <DihDeg>  (1) 
-135.7592501798382

$$$$
