
     RDKit          3D

 30 32  0  0  1  0  0  0  0  0999 V2000
   44.9060   34.7200   43.2280 C   0  0  0  0  0  0  0  0  0  0  0  0
   44.3870   35.6030   44.2040 C   0  0  0  0  0  0  0  0  0  0  0  0
   44.6020   35.3780   45.5670 C   0  0  0  0  0  0  0  0  0  0  0  0
   45.3320   34.2670   45.8860 N   0  0  0  0  0  0  0  0  0  0  0  0
   45.8120   33.4420   44.9150 C   0  0  0  0  0  0  0  0  0  0  0  0
   45.6090   33.6570   43.6250 N   0  0  0  0  0  0  0  0  0  0  0  0
   44.6260   35.0090   41.8130 C   0  0  1  0  0  0  0  0  0  0  0  0
   43.3740   34.2030   41.3130 C   0  0  1  0  0  0  0  0  0  0  0  0
   43.5000   35.7110   41.3290 C   0  0  0  0  0  0  0  0  0  0  0  0
   43.5520   33.5980   39.9400 C   0  0  0  0  0  0  0  0  0  0  0  0
   42.7980   32.4780   39.7370 F   0  0  0  0  0  0  0  0  0  0  0  0
   43.1670   34.5470   38.9770 F   0  0  0  0  0  0  0  0  0  0  0  0
   44.8930   33.3550   39.6810 F   0  0  0  0  0  0  0  0  0  0  0  0
   46.5320   32.3520   45.3850 O   0  0  0  0  0  0  0  0  0  0  0  0
   46.3570   31.8320   46.6370 C   0  0  0  0  0  0  0  0  0  0  0  0
   47.2530   32.2380   47.6170 C   0  0  0  0  0  0  0  0  0  0  0  0
   47.0620   31.7010   48.8840 C   0  0  0  0  0  0  0  0  0  0  0  0
   46.0150   30.8190   49.0660 C   0  0  0  0  0  0  0  0  0  0  0  0
   45.1330   30.4340   48.0530 C   0  0  0  0  0  0  0  0  0  0  0  0
   45.3460   30.9780   46.8220 N   0  0  0  0  0  0  0  0  0  0  0  0
   43.8051   36.4804   43.8854 H   0  0  0  0  0  0  0  0  0  0  0  0
   44.2067   36.0556   46.3381 H   0  0  0  0  0  0  0  0  0  0  0  0
   45.6900   35.1701   41.5850 H   0  0  0  0  0  0  0  0  0  0  0  0
   42.6881   33.4409   41.7114 H   0  0  0  0  0  0  0  0  0  0  0  0
   43.5755   36.2528   40.3747 H   0  0  0  0  0  0  0  0  0  0  0  0
   42.8756   36.5095   41.7562 H   0  0  0  0  0  0  0  0  0  0  0  0
   48.0680   32.9449   47.4023 H   0  0  0  0  0  0  0  0  0  0  0  0
   47.7259   31.9707   49.7186 H   0  0  0  0  0  0  0  0  0  0  0  0
   45.8664   30.3937   50.0695 H   0  0  0  0  0  0  0  0  0  0  0  0
   44.3098   29.7287   48.2395 H   0  0  0  0  0  0  0  0  0  0  0  0
  1  6  1  0
  1  2  2  0
  2  3  1  0
  3  4  2  0
  5 14  1  0
  5  4  1  0
  6  5  2  0
  7  1  1  0
  8  9  1  0
  8  7  1  0
  9  7  1  0
 10  8  1  0
 11 10  1  0
 12 10  1  0
 13 10  1  0
 14 15  1  0
 15 20  1  0
 15 16  2  0
 16 17  1  0
 17 18  2  0
 19 18  1  0
 20 19  2  0
  2 21  1  0
  3 22  1  0
  7 23  1  6
  8 24  1  1
  9 25  1  0
  9 26  1  0
 16 27  1  0
 17 28  1  0
 18 29  1  0
 19 30  1  0
M  ISO  8  21  14  22  14  23  13  24  13  25  13  26  13  27  14  28  14
M  ISO  2  29  14  30  14
M  END
>  <minimizedAffinity>  (1) 
-5.07433224

>  <minimizedRMSD>  (1) 
3.80601645

$$$$
