
     RDKit          3D

 37 39  0  0  0  0  0  0  0  0999 V2000
   45.6770   33.7660   45.8430 C   0  0  0  0  0  0  0  0  0  0  0  0
   44.8040   34.8120   45.9150 C   0  0  0  0  0  0  0  0  0  0  0  0
   44.5280   35.6660   44.8790 C   0  0  0  0  0  0  0  0  0  0  0  0
   45.1690   35.4670   43.6740 C   0  0  0  0  0  0  0  0  0  0  0  0
   46.0490   34.4300   43.5680 C   0  0  0  0  0  0  0  0  0  0  0  0
   46.3120   33.5780   44.6320 C   0  0  0  0  0  0  0  0  0  0  0  0
   47.5060   31.7950   48.3340 C   0  0  0  0  0  0  0  0  0  0  0  0
   46.4940   31.2320   49.1030 C   0  0  0  0  0  0  0  0  0  0  0  0
   45.1730   31.5280   48.7670 C   0  0  0  0  0  0  0  0  0  0  0  0
   44.8940   32.3520   47.7070 N   0  0  0  0  0  0  0  0  0  0  0  0
   45.9350   32.8860   46.9760 C   0  0  0  0  0  0  0  0  0  0  0  0
   47.1900   32.5920   47.3130 N   0  0  0  0  0  0  0  0  0  0  0  0
   47.2440   32.5570   44.3610 N   0  0  0  0  0  0  0  0  0  0  0  0
   48.1010   32.1210   42.9560 S   0  0  0  0  0  0  0  0  0  0  0  0
   47.1710   32.2720   41.7490 O   0  0  0  0  0  0  0  0  0  0  0  0
   49.3290   32.9320   42.7030 O   0  0  0  0  0  0  0  0  0  0  0  0
   48.4250   30.4680   43.0710 O   0  0  0  0  0  0  0  0  0  0  0  0
   48.9790   29.9200   44.2180 C   0  0  0  0  0  0  0  0  0  0  0  0
   50.3010   29.5230   43.9980 C   0  0  0  0  0  0  0  0  0  0  0  0
   51.0290   28.9460   45.0430 C   0  0  0  0  0  0  0  0  0  0  0  0
   50.4200   28.7870   46.2610 C   0  0  0  0  0  0  0  0  0  0  0  0
   49.1120   29.1970   46.4280 C   0  0  0  0  0  0  0  0  0  0  0  0
   48.4250   29.7440   45.4320 N   0  0  0  0  0  0  0  0  0  0  0  0
   44.2859   34.9817   46.8704 H   0  0  0  0  0  0  0  0  0  0  0  0
   43.8117   36.4912   45.0057 H   0  0  0  0  0  0  0  0  0  0  0  0
   44.9750   36.1296   42.8177 H   0  0  0  0  0  0  0  0  0  0  0  0
   46.5655   34.2640   42.6111 H   0  0  0  0  0  0  0  0  0  0  0  0
   48.5604   31.5844   48.5663 H   0  0  0  0  0  0  0  0  0  0  0  0
   46.7281   30.5724   49.9516 H   0  0  0  0  0  0  0  0  0  0  0  0
   44.3497   31.0977   49.3561 H   0  0  0  0  0  0  0  0  0  0  0  0
   47.4469   31.9560   45.1725 H   0  0  0  0  0  0  0  0  0  0  0  0
   46.2443   32.4225   42.0632 H   0  0  0  0  0  0  0  0  0  0  0  0
   49.7323   33.1984   43.5670 H   0  0  0  0  0  0  0  0  0  0  0  0
   50.7650   29.6634   43.0106 H   0  0  0  0  0  0  0  0  0  0  0  0
   52.0703   28.6258   44.8908 H   0  0  0  0  0  0  0  0  0  0  0  0
   50.9699   28.3356   47.1000 H   0  0  0  0  0  0  0  0  0  0  0  0
   48.6286   29.0676   47.4076 H   0  0  0  0  0  0  0  0  0  0  0  0
  1  2  2  0
  1 11  1  0
  3  2  1  0
  4  3  2  0
  5  4  1  0
  5  6  2  0
  6  1  1  0
  7  8  2  0
  9  8  1  0
 10  9  2  0
 11 12  2  0
 11 10  1  0
 12  7  1  0
 13  6  1  0
 14 17  1  0
 14 13  1  0
 15 14  1  0
 16 14  1  0
 17 18  1  0
 18 23  1  0
 19 18  2  0
 19 20  1  0
 20 21  2  0
 21 22  1  0
 23 22  2  0
  2 24  1  0
  3 25  1  0
  4 26  1  0
  5 27  1  0
  7 28  1  0
  8 29  1  0
  9 30  1  0
 13 31  1  0
 15 32  1  0
 16 33  1  0
 19 34  1  0
 20 35  1  0
 21 36  1  0
 22 37  1  0
M  ISO  8  24  14  25  14  26  14  27  14  28  14  29  14  30  14  32   3
M  ISO  5  33   3  34  14  35  14  36  14  37  14
M  END
>  <minimizedAffinity>  (1) 
-4.96462774

>  <minimizedRMSD>  (1) 
1.15366435

$$$$
