
     RDKit          3D

 31 33  0  0  0  0  0  0  0  0999 V2000
   44.6714   35.3783   45.1434 C   0  0  0  0  0  0  0  0  0  0  0  0
   45.1297   35.6941   43.8380 C   0  0  0  0  0  0  0  0  0  0  0  0
   46.0728   34.8593   43.3371 C   0  0  0  0  0  0  0  0  0  0  0  0
   46.5540   33.7768   44.0568 N   0  0  0  0  0  0  0  0  0  0  0  0
   46.0884   33.5160   45.2971 C   0  0  0  0  0  0  0  0  0  0  0  0
   45.1430   34.3208   45.8406 N   0  0  0  0  0  0  0  0  0  0  0  0
   46.5725   35.0601   41.9259 C   0  0  1  0  0  0  0  0  0  0  0  0
   48.1074   35.3083   41.9220 C   0  0  0  0  0  0  0  0  0  0  0  0
   47.3633   34.0804   41.3088 C   0  0  2  0  0  0  0  0  0  0  0  0
   47.3864   33.8998   39.8111 C   0  0  0  0  0  0  0  0  0  0  0  0
   44.6691   36.8132   43.1282 N   0  0  0  0  0  0  0  0  0  0  0  0
   43.9144   36.0116   45.5952 H   0  0  0  0  0  0  0  0  0  0  0  0
   46.5477   32.6445   45.7447 H   0  0  0  0  0  0  0  0  0  0  0  0
   46.0029   35.8307   41.3653 H   0  0  0  0  0  0  0  0  0  0  0  0
   48.4341   36.0375   41.1717 H   0  0  0  0  0  0  0  0  0  0  0  0
   48.6703   35.1570   42.8447 H   0  0  0  0  0  0  0  0  0  0  0  0
   47.6100   33.1343   41.8806 H   0  0  0  0  0  0  0  0  0  0  0  0
   47.9410   32.9966   39.4828 H   0  0  0  0  0  0  0  0  0  0  0  0
   46.3291   33.7163   39.4982 H   0  0  0  0  0  0  0  0  0  0  0  0
   44.5942   37.7073   43.6737 H   0  0  0  0  0  0  0  0  0  0  0  0
   44.4017   36.8440   42.1418 H   0  0  0  0  0  0  0  0  0  0  0  0
   47.8436   35.1226   39.1085 C   0  0  0  0  0  0  0  0  0  0  0  0
   47.2873   35.7024   37.9922 C   0  0  0  0  0  0  0  0  0  0  0  0
   46.4194   35.1979   37.5939 H   0  0  0  0  0  0  0  0  0  0  0  0
   47.8856   36.8354   37.5183 C   0  0  0  0  0  0  0  0  0  0  0  0
   47.4483   37.2917   36.6401 H   0  0  0  0  0  0  0  0  0  0  0  0
   48.9893   37.3939   38.1039 C   0  0  0  0  0  0  0  0  0  0  0  0
   49.5370   36.7890   39.2354 C   0  0  0  0  0  0  0  0  0  0  0  0
   48.9325   35.6834   39.6771 N   0  0  0  0  0  0  0  0  0  0  0  0
   49.4653   38.2854   37.7362 H   0  0  0  0  0  0  0  0  0  0  0  0
   50.4205   37.1977   39.7410 H   0  0  0  0  0  0  0  0  0  0  0  0
  1  6  2  0
  2  1  1  0
  3  2  2  0
  3  4  1  0
  4  5  2  0
  5  6  1  0
  7  3  1  0
  8  7  1  0
  9  8  1  0
  9  7  1  0
 10  9  1  0
 11  2  1  0
  1 12  1  0
  5 13  1  0
  7 14  1  6
  8 15  1  0
  8 16  1  0
  9 17  1  1
 10 18  1  0
 10 19  1  0
 11 20  1  0
 11 21  1  0
 22 23  2  0
 23 24  1  0
 23 25  1  0
 25 26  1  0
 25 27  2  0
 27 28  1  0
 28 29  2  0
 29 22  1  0
 27 30  1  0
 28 31  1  0
 10 22  1  0
M  ISO  8  12  14  13  14  14  13  15  13  16  13  17  13  18   8  19   8
M  ISO  2  24  15  26  16
M  END
>  <DihAtoms>  (1) 
8,9,21,22

>  <DihDeg>  (1) 
-90.00071277450182

$$$$
