
     RDKit          3D

 36 39  0  0  0  0  0  0  0  0999 V2000
   44.5977   35.9289   44.4246 C   0  0  0  0  0  0  0  0  0  0  0  0
   45.3323   35.8560   43.2209 C   0  0  0  0  0  0  0  0  0  0  0  0
   46.2502   34.8187   43.1423 C   0  0  0  0  0  0  0  0  0  0  0  0
   46.3490   34.0025   44.1953 N   0  0  0  0  0  0  0  0  0  0  0  0
   45.6595   34.0639   45.3346 C   0  0  0  0  0  0  0  0  0  0  0  0
   44.7578   35.0646   45.4386 N   0  0  0  0  0  0  0  0  0  0  0  0
   47.0320   34.7212   41.9032 C   0  0  0  0  0  0  0  0  0  0  0  0
   47.8453   33.6009   41.9458 F   0  0  0  0  0  0  0  0  0  0  0  0
   47.9067   35.8213   41.9105 F   0  0  0  0  0  0  0  0  0  0  0  0
   46.2685   34.6836   40.7844 F   0  0  0  0  0  0  0  0  0  0  0  0
   45.8249   33.1509   46.4486 C   0  0  0  0  0  0  0  0  0  0  0  0
   45.0299   33.1856   47.4332 O   0  0  0  0  0  0  0  0  0  0  0  0
   43.8751   36.7327   44.5126 H   0  0  0  0  0  0  0  0  0  0  0  0
   45.2126   36.5419   42.4089 H   0  0  0  0  0  0  0  0  0  0  0  0
   46.8732   32.1473   46.5470 C   0  0  0  0  0  0  0  0  0  0  0  0
   46.7996   31.0935   47.4312 C   0  0  0  0  0  0  0  0  0  0  0  0
   45.9716   30.9343   48.1022 H   0  0  0  0  0  0  0  0  0  0  0  0
   47.7870   30.1282   47.5333 C   0  0  0  0  0  0  0  0  0  0  0  0
   47.6758   29.3079   48.2623 H   0  0  0  0  0  0  0  0  0  0  0  0
   48.9292   30.1616   46.7389 C   0  0  0  0  0  0  0  0  0  0  0  0
   48.9752   31.2234   45.8666 C   0  0  0  0  0  0  0  0  0  0  0  0
   48.0123   32.1600   45.7724 C   0  0  0  0  0  0  0  0  0  0  0  0
   48.0967   32.9960   45.0622 H   0  0  0  0  0  0  0  0  0  0  0  0
   50.3880   31.3792   44.7912 S   0  0  0  0  0  0  0  0  0  0  0  0
   51.4265   29.9803   45.1592 C   0  0  0  0  0  0  0  0  0  0  0  0
   52.5691   29.8747   44.4355 C   0  0  0  0  0  0  0  0  0  0  0  0
   52.8432   30.5964   43.6728 H   0  0  0  0  0  0  0  0  0  0  0  0
   53.3932   28.7875   44.7122 C   0  0  0  0  0  0  0  0  0  0  0  0
   54.3096   28.6752   44.1578 H   0  0  0  0  0  0  0  0  0  0  0  0
   53.0989   27.8346   45.6736 C   0  0  0  0  0  0  0  0  0  0  0  0
   53.7366   27.0009   45.8879 H   0  0  0  0  0  0  0  0  0  0  0  0
   51.9063   28.0252   46.3661 C   0  0  0  0  0  0  0  0  0  0  0  0
   51.6921   27.2573   47.1249 H   0  0  0  0  0  0  0  0  0  0  0  0
   51.0593   29.0852   46.1261 C   0  0  0  0  0  0  0  0  0  0  0  0
   49.8894   29.1464   46.8842 N   0  0  0  0  0  0  0  0  0  0  0  0
   49.7048   28.4079   47.5970 H   0  0  0  0  0  0  0  0  0  0  0  0
  1  6  2  0
  2  1  1  0
  3  2  2  0
  3  4  1  0
  4  5  2  0
  5  6  1  0
  5 11  1  0
  7  8  1  0
  7  3  1  0
  9  7  1  0
 10  7  1  0
 11 12  2  0
  1 13  1  0
  2 14  1  0
 15 16  2  0
 16 17  1  0
 16 18  1  0
 18 19  1  0
 18 20  2  0
 20 21  1  0
 21 22  2  0
 22 23  1  0
 21 24  1  0
 24 25  1  0
 25 26  2  0
 26 27  1  0
 26 28  1  0
 28 29  1  0
 28 30  2  0
 30 31  1  0
 30 32  1  0
 32 33  1  0
 32 34  2  0
 34 35  1  0
 35 36  1  0
 22 15  1  0
 34 25  1  0
 35 20  1  0
 11 15  1  0
M  ISO  8  13  14  14  14  17  16  19  16  23  16  27  16  29  16  31  16
M  ISO  2  33  16  36   5
M  END
>  <DihAtoms>  (1) 
4,10,14,15

>  <DihDeg>  (1) 
16.95244225262003

$$$$
