
     RDKit          3D

 36 39  0  0  0  0  0  0  0  0999 V2000
   44.5977   35.9289   44.4246 C   0  0  0  0  0  0  0  0  0  0  0  0
   45.3323   35.8560   43.2209 C   0  0  0  0  0  0  0  0  0  0  0  0
   46.2502   34.8187   43.1423 C   0  0  0  0  0  0  0  0  0  0  0  0
   46.3490   34.0025   44.1953 N   0  0  0  0  0  0  0  0  0  0  0  0
   45.6595   34.0639   45.3346 C   0  0  0  0  0  0  0  0  0  0  0  0
   44.7578   35.0646   45.4386 N   0  0  0  0  0  0  0  0  0  0  0  0
   47.0320   34.7212   41.9032 C   0  0  0  0  0  0  0  0  0  0  0  0
   47.8453   33.6009   41.9458 F   0  0  0  0  0  0  0  0  0  0  0  0
   47.9067   35.8213   41.9105 F   0  0  0  0  0  0  0  0  0  0  0  0
   46.2685   34.6836   40.7844 F   0  0  0  0  0  0  0  0  0  0  0  0
   45.8249   33.1509   46.4486 C   0  0  0  0  0  0  0  0  0  0  0  0
   45.0299   33.1856   47.4332 O   0  0  0  0  0  0  0  0  0  0  0  0
   43.8751   36.7327   44.5126 H   0  0  0  0  0  0  0  0  0  0  0  0
   45.2126   36.5419   42.4089 H   0  0  0  0  0  0  0  0  0  0  0  0
   46.8732   32.1473   46.5470 C   0  0  0  0  0  0  0  0  0  0  0  0
   47.3570   31.7080   47.7597 C   0  0  0  0  0  0  0  0  0  0  0  0
   46.9981   32.0661   48.7105 H   0  0  0  0  0  0  0  0  0  0  0  0
   48.3512   30.7504   47.8695 C   0  0  0  0  0  0  0  0  0  0  0  0
   48.7019   30.4391   48.8679 H   0  0  0  0  0  0  0  0  0  0  0  0
   48.9304   30.1637   46.7483 C   0  0  0  0  0  0  0  0  0  0  0  0
   48.4280   30.6211   45.5529 C   0  0  0  0  0  0  0  0  0  0  0  0
   47.4617   31.5535   45.4521 C   0  0  0  0  0  0  0  0  0  0  0  0
   47.0958   31.8927   44.4715 H   0  0  0  0  0  0  0  0  0  0  0  0
   49.0867   29.9463   44.0405 S   0  0  0  0  0  0  0  0  0  0  0  0
   50.3006   28.7437   44.5414 C   0  0  0  0  0  0  0  0  0  0  0  0
   50.9293   28.0743   43.5427 C   0  0  0  0  0  0  0  0  0  0  0  0
   50.7112   28.2540   42.4950 H   0  0  0  0  0  0  0  0  0  0  0  0
   51.8826   27.1317   43.9174 C   0  0  0  0  0  0  0  0  0  0  0  0
   52.4026   26.5844   43.1494 H   0  0  0  0  0  0  0  0  0  0  0  0
   52.2057   26.8588   45.2365 C   0  0  0  0  0  0  0  0  0  0  0  0
   52.9428   26.1360   45.5226 H   0  0  0  0  0  0  0  0  0  0  0  0
   51.5101   27.5943   46.1921 C   0  0  0  0  0  0  0  0  0  0  0  0
   51.7822   27.3620   47.2330 H   0  0  0  0  0  0  0  0  0  0  0  0
   50.5581   28.5364   45.8686 C   0  0  0  0  0  0  0  0  0  0  0  0
   49.9276   29.1906   46.9278 N   0  0  0  0  0  0  0  0  0  0  0  0
   50.1992   28.9547   47.9065 H   0  0  0  0  0  0  0  0  0  0  0  0
  1  6  2  0
  2  1  1  0
  3  2  2  0
  3  4  1  0
  4  5  2  0
  5  6  1  0
  5 11  1  0
  7  8  1  0
  7  3  1  0
  9  7  1  0
 10  7  1  0
 11 12  2  0
  1 13  1  0
  2 14  1  0
 15 16  2  0
 16 17  1  0
 16 18  1  0
 18 19  1  0
 18 20  2  0
 20 21  1  0
 21 22  2  0
 22 23  1  0
 21 24  1  0
 24 25  1  0
 25 26  2  0
 26 27  1  0
 26 28  1  0
 28 29  1  0
 28 30  2  0
 30 31  1  0
 30 32  1  0
 32 33  1  0
 32 34  2  0
 34 35  1  0
 35 36  1  0
 22 15  1  0
 34 25  1  0
 35 20  1  0
 11 15  1  0
M  ISO  8  13  14  14  14  17  16  19  16  23  16  27  16  29  16  31  16
M  ISO  2  33  16  36   5
M  END
>  <DihAtoms>  (1) 
4,10,14,15

>  <DihDeg>  (1) 
16.95244225262003

$$$$
