
     RDKit          3D

 51 55  0  0  0  0  0  0  0  0999 V2000
   44.7667   34.4945   40.4557 C   0  0  0  0  0  0  0  0  0  0  0  0
   45.9209   34.1239   41.0009 N   0  0  0  0  0  0  0  0  0  0  0  0
   46.8350   33.1332   40.5558 C   0  0  0  0  0  0  0  0  0  0  0  0
   47.9052   34.0655   39.9362 C   0  0  0  0  0  0  0  0  0  0  0  0
   48.5068   34.9781   40.9099 C   0  0  0  0  0  0  0  0  0  0  0  0
   47.7585   35.3076   42.1228 C   0  0  0  0  0  0  0  0  0  0  0  0
   46.3272   34.8695   42.1974 C   0  0  0  0  0  0  0  0  0  0  0  0
   45.3027   35.2842   43.5751 S   0  0  0  0  0  0  0  0  0  0  0  0
   43.6405   33.5570   40.7688 C   0  0  0  0  0  0  0  0  0  0  0  0
   42.3755   34.3036   40.5442 C   0  0  0  0  0  0  0  0  0  0  0  0
   41.6297   34.1198   39.3970 C   0  0  0  0  0  0  0  0  0  0  0  0
   40.4579   34.8707   39.2615 C   0  0  0  0  0  0  0  0  0  0  0  0
   40.1091   35.7411   40.2585 N   0  0  0  0  0  0  0  0  0  0  0  0
   40.8819   35.8703   41.3489 C   0  0  0  0  0  0  0  0  0  0  0  0
   41.9864   35.1621   41.4762 N   0  0  0  0  0  0  0  0  0  0  0  0
   44.8416   34.5271   39.3442 H   0  0  0  0  0  0  0  0  0  0  0  0
   44.3630   35.5373   40.6718 H   0  0  0  0  0  0  0  0  0  0  0  0
   47.2393   32.4206   41.2504 H   0  0  0  0  0  0  0  0  0  0  0  0
   46.4054   32.5609   39.7037 H   0  0  0  0  0  0  0  0  0  0  0  0
   48.6597   33.4560   39.4083 H   0  0  0  0  0  0  0  0  0  0  0  0
   47.3660   34.6327   39.1480 H   0  0  0  0  0  0  0  0  0  0  0  0
   48.7453   35.9554   40.4019 H   0  0  0  0  0  0  0  0  0  0  0  0
   49.4997   34.5905   41.2322 H   0  0  0  0  0  0  0  0  0  0  0  0
   48.1088   35.8484   42.9621 H   0  0  0  0  0  0  0  0  0  0  0  0
   45.4605   34.2841   44.5622 H   0  0  0  0  0  0  0  0  0  0  0  0
   43.6615   32.6008   40.2266 H   0  0  0  0  0  0  0  0  0  0  0  0
   43.6979   33.3034   41.8605 H   0  0  0  0  0  0  0  0  0  0  0  0
   41.9345   33.4262   38.6335 H   0  0  0  0  0  0  0  0  0  0  0  0
   39.8938   34.7052   38.3513 H   0  0  0  0  0  0  0  0  0  0  0  0
   40.4751   36.8094   42.3892 C   0  0  0  0  0  0  0  0  0  0  0  0
   40.3237   38.1571   42.1349 C   0  0  0  0  0  0  0  0  0  0  0  0
   40.5081   38.5384   41.1443 H   0  0  0  0  0  0  0  0  0  0  0  0
   39.9362   38.9805   43.1721 C   0  0  0  0  0  0  0  0  0  0  0  0
   39.8368   40.0370   42.8944 H   0  0  0  0  0  0  0  0  0  0  0  0
   39.6843   38.5591   44.4614 C   0  0  0  0  0  0  0  0  0  0  0  0
   39.8476   37.2119   44.6667 C   0  0  0  0  0  0  0  0  0  0  0  0
   40.2308   36.3542   43.6691 C   0  0  0  0  0  0  0  0  0  0  0  0
   40.3482   35.2885   43.8788 H   0  0  0  0  0  0  0  0  0  0  0  0
   39.5489   36.5726   46.2858 S   0  0  0  0  0  0  0  0  0  0  0  0
   39.0763   37.9526   47.3097 C   0  0  0  0  0  0  0  0  0  0  0  0
   38.7925   37.6988   48.6201 C   0  0  0  0  0  0  0  0  0  0  0  0
   38.8544   36.6947   49.0157 H   0  0  0  0  0  0  0  0  0  0  0  0
   38.4221   38.7348   49.4520 C   0  0  0  0  0  0  0  0  0  0  0  0
   38.1933   38.5547   50.4930 H   0  0  0  0  0  0  0  0  0  0  0  0
   38.3494   40.0084   48.9275 C   0  0  0  0  0  0  0  0  0  0  0  0
   38.0618   40.8394   49.5561 H   0  0  0  0  0  0  0  0  0  0  0  0
   38.6495   40.1963   47.5933 C   0  0  0  0  0  0  0  0  0  0  0  0
   38.5705   41.2364   47.2441 H   0  0  0  0  0  0  0  0  0  0  0  0
   39.0239   39.1923   46.7246 C   0  0  0  0  0  0  0  0  0  0  0  0
   39.2970   39.5406   45.3966 N   0  0  0  0  0  0  0  0  0  0  0  0
   39.2124   40.5348   45.0995 H   0  0  0  0  0  0  0  0  0  0  0  0
  1  9  1  0
  1  2  1  0
  2  7  1  0
  3  2  1  0
  4  3  1  0
  4  5  1  0
  5  6  1  0
  6  7  2  0
  7  8  1  0
 10  9  1  0
 10 15  1  0
 11 10  2  0
 12 11  1  0
 12 13  2  0
 13 14  1  0
 14 15  2  0
  1 16  1  0
  1 17  1  0
  3 18  1  0
  3 19  1  0
  4 20  1  0
  4 21  1  0
  5 22  1  0
  5 23  1  0
  6 24  1  0
  8 25  1  0
  9 26  1  0
  9 27  1  0
 11 28  1  0
 12 29  1  0
 30 31  2  0
 31 32  1  0
 31 33  1  0
 33 34  1  0
 33 35  2  0
 35 36  1  0
 36 37  2  0
 37 38  1  0
 36 39  1  0
 39 40  1  0
 40 41  2  0
 41 42  1  0
 41 43  1  0
 43 44  1  0
 43 45  2  0
 45 46  1  0
 45 47  1  0
 47 48  1  0
 47 49  2  0
 49 50  1  0
 50 51  1  0
 37 30  1  0
 49 40  1  0
 50 35  1  0
 14 30  1  0
M  ISO  8  16   8  17   8  18  13  19  13  20  13  21  13  22  13  23  13
M  ISO  8  24  13  25  11  26   8  27   8  28  14  29  14  32  16  34  16
M  ISO  6  38  16  42  16  44  16  46  16  48  16  51   5
M  END
>  <DihAtoms>  (1) 
12,13,29,30

>  <DihDeg>  (1) 
-0.013783611652565348

$$$$
