
     RDKit          3D

 44 48  0  0  0  0  0  0  0  0999 V2000
   44.5999   36.0031   44.4630 C   0  0  0  0  0  0  0  0  0  0  0  0
   45.4046   35.5341   43.3964 C   0  0  0  0  0  0  0  0  0  0  0  0
   46.1306   34.3948   43.5967 C   0  0  0  0  0  0  0  0  0  0  0  0
   46.0553   33.7549   44.8001 N   0  0  0  0  0  0  0  0  0  0  0  0
   45.2987   34.2058   45.7851 C   0  0  0  0  0  0  0  0  0  0  0  0
   44.5735   35.3180   45.6313 N   0  0  0  0  0  0  0  0  0  0  0  0
   47.0194   33.9047   42.5042 C   0  0  0  0  0  0  0  0  0  0  0  0
   47.3408   35.0463   41.5935 C   0  0  0  0  0  0  0  0  0  0  0  0
   48.8315   34.9389   41.4100 C   0  0  1  0  0  0  0  0  0  0  0  0
   49.7163   35.1359   42.5378 C   0  0  0  0  0  0  0  0  0  0  0  0
   49.5514   33.8175   41.7890 C   0  0  1  0  0  0  0  0  0  0  0  0
   43.9901   36.8920   44.4082 H   0  0  0  0  0  0  0  0  0  0  0  0
   45.3105   36.1743   42.5361 H   0  0  0  0  0  0  0  0  0  0  0  0
   45.2126   33.7263   46.7537 H   0  0  0  0  0  0  0  0  0  0  0  0
   47.8848   33.7314   43.1675 H   0  0  0  0  0  0  0  0  0  0  0  0
   46.6230   33.0186   42.0028 H   0  0  0  0  0  0  0  0  0  0  0  0
   47.1924   36.0391   42.1104 H   0  0  0  0  0  0  0  0  0  0  0  0
   46.7860   35.0496   40.6547 H   0  0  0  0  0  0  0  0  0  0  0  0
   49.1054   35.5918   40.5303 H   0  0  0  0  0  0  0  0  0  0  0  0
   49.4231   35.1956   43.5832 H   0  0  0  0  0  0  0  0  0  0  0  0
   50.7489   35.5728   42.3919 H   0  0  0  0  0  0  0  0  0  0  0  0
   50.2681   33.5864   40.9261 H   0  0  0  0  0  0  0  0  0  0  0  0
   49.8764   32.7116   42.6102 C   0  0  0  0  0  0  0  0  0  0  0  0
   48.9355   31.7932   43.1081 C   0  0  0  0  0  0  0  0  0  0  0  0
   47.8930   31.9537   42.8656 H   0  0  0  0  0  0  0  0  0  0  0  0
   49.3707   30.7401   43.8751 C   0  0  0  0  0  0  0  0  0  0  0  0
   48.5561   30.0847   44.2117 H   0  0  0  0  0  0  0  0  0  0  0  0
   50.7102   30.5805   44.1565 C   0  0  0  0  0  0  0  0  0  0  0  0
   51.6670   31.4246   43.7114 C   0  0  0  0  0  0  0  0  0  0  0  0
   51.2133   32.4517   42.9595 C   0  0  0  0  0  0  0  0  0  0  0  0
   51.9544   33.1623   42.5766 H   0  0  0  0  0  0  0  0  0  0  0  0
   53.3607   31.1521   44.1147 S   0  0  0  0  0  0  0  0  0  0  0  0
   53.3902   29.6700   45.1148 C   0  0  0  0  0  0  0  0  0  0  0  0
   54.6387   29.3034   45.5218 C   0  0  0  0  0  0  0  0  0  0  0  0
   55.5473   29.8210   45.2903 H   0  0  0  0  0  0  0  0  0  0  0  0
   54.7648   28.1603   46.3068 C   0  0  0  0  0  0  0  0  0  0  0  0
   55.7063   27.7885   46.6778 H   0  0  0  0  0  0  0  0  0  0  0  0
   53.6310   27.4515   46.6379 C   0  0  0  0  0  0  0  0  0  0  0  0
   53.7108   26.5608   47.2471 H   0  0  0  0  0  0  0  0  0  0  0  0
   52.4316   27.9033   46.1799 C   0  0  0  0  0  0  0  0  0  0  0  0
   51.5592   27.2972   46.4753 H   0  0  0  0  0  0  0  0  0  0  0  0
   52.2103   29.0218   45.3991 C   0  0  0  0  0  0  0  0  0  0  0  0
   50.9459   29.4412   44.9540 N   0  0  0  0  0  0  0  0  0  0  0  0
   50.1860   28.7813   45.3004 H   0  0  0  0  0  0  0  0  0  0  0  0
  1  6  2  0
  2  3  2  0
  2  1  1  0
  3  4  1  0
  4  5  2  0
  6  5  1  0
  7  3  1  0
  8  7  1  0
  9  8  1  0
  9 11  1  0
  9 10  1  0
 11 10  1  0
  1 12  1  0
  2 13  1  0
  5 14  1  0
  7 15  1  0
  7 16  1  0
  8 17  1  0
  8 18  1  0
  9 19  1  6
 10 20  1  0
 10 21  1  0
 11 22  1  6
 23 24  2  0
 24 25  1  0
 24 26  1  0
 26 27  1  0
 26 28  2  0
 28 29  1  0
 29 30  2  0
 30 31  1  0
 29 32  1  0
 32 33  1  0
 33 34  2  0
 34 35  1  0
 34 36  1  0
 36 37  1  0
 36 38  2  0
 38 39  1  0
 38 40  1  0
 40 41  1  0
 40 42  2  0
 42 43  1  0
 43 44  1  0
 30 23  1  0
 42 33  1  0
 43 28  1  0
 11 23  1  0
M  ISO  8  12  14  13  14  14  14  15   8  16   8  17   8  18   8  19  13
M  ISO  8  20  13  21  13  22  13  25  16  27  16  31  16  35  16  37  16
M  ISO  3  39  16  41  16  44   5
M  END
>  <DihAtoms>  (1) 
8,10,22,23

>  <DihDeg>  (1) 
-73.20479766172262

$$$$
