
     RDKit          3D

 47 51  0  0  0  0  0  0  0  0999 V2000
   46.0204   34.3592   41.5103 N   0  0  0  0  0  0  0  0  0  0  0  0
   45.0959   34.0772   40.4665 C   0  0  0  0  0  0  0  0  0  0  0  0
   45.6727   33.2296   39.3697 C   0  0  0  0  0  0  0  0  0  0  0  0
   46.9385   33.6587   38.8786 N   0  0  0  0  0  0  0  0  0  0  0  0
   47.8308   34.2315   39.8274 C   0  0  0  0  0  0  0  0  0  0  0  0
   47.4167   34.3316   41.2380 C   0  0  1  0  0  0  0  0  0  0  0  0
   44.5826   36.0241   44.5029 C   0  0  0  0  0  0  0  0  0  0  0  0
   44.9410   35.8100   43.1821 C   0  0  0  0  0  0  0  0  0  0  0  0
   45.5964   34.6584   42.8167 C   0  0  0  0  0  0  0  0  0  0  0  0
   45.8421   33.7923   43.8377 N   0  0  0  0  0  0  0  0  0  0  0  0
   45.4895   34.0048   45.1270 C   0  0  0  0  0  0  0  0  0  0  0  0
   44.8489   35.1421   45.4624 N   0  0  0  0  0  0  0  0  0  0  0  0
   48.1262   35.3596   41.9401 C   0  0  0  0  0  0  0  0  0  0  0  0
   49.0563   35.9729   41.4215 O   0  0  0  0  0  0  0  0  0  0  0  0
   44.2035   33.5511   40.8570 H   0  0  0  0  0  0  0  0  0  0  0  0
   44.7579   35.0237   40.0078 H   0  0  0  0  0  0  0  0  0  0  0  0
   45.7593   32.1963   39.7678 H   0  0  0  0  0  0  0  0  0  0  0  0
   44.9235   33.1825   38.5572 H   0  0  0  0  0  0  0  0  0  0  0  0
   47.3646   32.8288   38.3692 H   0  0  0  0  0  0  0  0  0  0  0  0
   48.7957   33.6855   39.7621 H   0  0  0  0  0  0  0  0  0  0  0  0
   48.0779   35.2606   39.4595 H   0  0  0  0  0  0  0  0  0  0  0  0
   47.7586   33.3404   41.7232 H   0  0  0  0  0  0  0  0  0  0  0  0
   44.0587   36.9487   44.7920 H   0  0  0  0  0  0  0  0  0  0  0  0
   44.7146   36.5382   42.4173 H   0  0  0  0  0  0  0  0  0  0  0  0
   45.7012   33.2997   45.8966 H   0  0  0  0  0  0  0  0  0  0  0  0
   48.3332   36.1570   43.1351 C   0  0  0  0  0  0  0  0  0  0  0  0
   47.8392   37.4198   43.3723 C   0  0  0  0  0  0  0  0  0  0  0  0
   47.0553   37.7382   42.6573 H   0  0  0  0  0  0  0  0  0  0  0  0
   48.0874   38.3337   44.3599 C   0  0  0  0  0  0  0  0  0  0  0  0
   47.6026   39.2919   44.3877 H   0  0  0  0  0  0  0  0  0  0  0  0
   49.0025   37.8992   45.2874 C   0  0  0  0  0  0  0  0  0  0  0  0
   49.6005   36.6721   45.2237 C   0  0  0  0  0  0  0  0  0  0  0  0
   49.2482   35.8813   44.1820 C   0  0  0  0  0  0  0  0  0  0  0  0
   49.7452   34.9069   44.1548 H   0  0  0  0  0  0  0  0  0  0  0  0
   50.7869   36.1364   46.4444 S   0  0  0  0  0  0  0  0  0  0  0  0
   50.9316   37.5188   47.5750 C   0  0  0  0  0  0  0  0  0  0  0  0
   51.8115   37.3071   48.5820 C   0  0  0  0  0  0  0  0  0  0  0  0
   52.4006   36.4117   48.7389 H   0  0  0  0  0  0  0  0  0  0  0  0
   52.0134   38.3068   49.5322 C   0  0  0  0  0  0  0  0  0  0  0  0
   52.6820   38.2243   50.3512 H   0  0  0  0  0  0  0  0  0  0  0  0
   51.2898   39.4633   49.3785 C   0  0  0  0  0  0  0  0  0  0  0  0
   51.4269   40.2553   50.1014 H   0  0  0  0  0  0  0  0  0  0  0  0
   50.4126   39.5950   48.3202 C   0  0  0  0  0  0  0  0  0  0  0  0
   49.8719   40.5521   48.2680 H   0  0  0  0  0  0  0  0  0  0  0  0
   50.1860   38.6293   47.3606 C   0  0  0  0  0  0  0  0  0  0  0  0
   49.2900   38.8195   46.3081 N   0  0  0  0  0  0  0  0  0  0  0  0
   48.8134   39.7724   46.3414 H   0  0  0  0  0  0  0  0  0  0  0  0
  1  9  1  0
  2  1  1  0
  3  2  1  0
  4  3  1  0
  4  5  1  0
  5  6  1  0
  6  1  1  0
  6 13  1  0
  7 12  2  0
  8  7  1  0
  9  8  2  0
  9 10  1  0
 10 11  2  0
 11 12  1  0
 14 13  2  0
  2 15  1  0
  2 16  1  0
  3 17  1  0
  3 18  1  0
  4 19  1  0
  5 20  1  0
  5 21  1  0
  6 22  1  1
  7 23  1  0
  8 24  1  0
 11 25  1  0
 26 27  2  0
 27 28  1  0
 27 29  1  0
 29 30  1  0
 29 31  2  0
 31 32  1  0
 32 33  2  0
 33 34  1  0
 32 35  1  0
 35 36  1  0
 36 37  2  0
 37 38  1  0
 37 39  1  0
 39 40  1  0
 39 41  2  0
 41 42  1  0
 41 43  1  0
 43 44  1  0
 43 45  2  0
 45 46  1  0
 46 47  1  0
 33 26  1  0
 45 36  1  0
 46 31  1  0
 13 26  1  0
M  ISO  8  15  13  16  13  17  13  18  13  19   5  20  13  21  13  22  13
M  ISO  8  23  14  24  14  25  14  28  16  30  16  34  16  38  16  40  16
M  ISO  3  42  16  44  16  47   5
M  END
>  <DihAtoms>  (1) 
5,12,25,26

>  <DihDeg>  (1) 
38.00123189897647

$$$$
