
     RDKit          3D

 36 39  0  0  0  0  0  0  0  0999 V2000
   44.5977   35.9289   44.4246 C   0  0  0  0  0  0  0  0  0  0  0  0
   45.3323   35.8560   43.2209 C   0  0  0  0  0  0  0  0  0  0  0  0
   46.2502   34.8187   43.1423 C   0  0  0  0  0  0  0  0  0  0  0  0
   46.3490   34.0025   44.1953 N   0  0  0  0  0  0  0  0  0  0  0  0
   45.6595   34.0639   45.3346 C   0  0  0  0  0  0  0  0  0  0  0  0
   44.7578   35.0646   45.4386 N   0  0  0  0  0  0  0  0  0  0  0  0
   47.0320   34.7212   41.9032 C   0  0  0  0  0  0  0  0  0  0  0  0
   47.8453   33.6009   41.9458 F   0  0  0  0  0  0  0  0  0  0  0  0
   47.9067   35.8213   41.9105 F   0  0  0  0  0  0  0  0  0  0  0  0
   46.2685   34.6836   40.7844 F   0  0  0  0  0  0  0  0  0  0  0  0
   45.8249   33.1509   46.4486 C   0  0  0  0  0  0  0  0  0  0  0  0
   45.0299   33.1856   47.4332 O   0  0  0  0  0  0  0  0  0  0  0  0
   43.8751   36.7327   44.5126 H   0  0  0  0  0  0  0  0  0  0  0  0
   45.2126   36.5419   42.4089 H   0  0  0  0  0  0  0  0  0  0  0  0
   46.8732   32.1473   46.5470 C   0  0  0  0  0  0  0  0  0  0  0  0
   46.5951   30.7998   46.6138 C   0  0  0  0  0  0  0  0  0  0  0  0
   45.5967   30.3949   46.5944 H   0  0  0  0  0  0  0  0  0  0  0  0
   47.5819   29.8325   46.7033 C   0  0  0  0  0  0  0  0  0  0  0  0
   47.2998   28.7676   46.7571 H   0  0  0  0  0  0  0  0  0  0  0  0
   48.9331   30.1648   46.7306 C   0  0  0  0  0  0  0  0  0  0  0  0
   49.1803   31.5157   46.6623 C   0  0  0  0  0  0  0  0  0  0  0  0
   48.2163   32.4520   46.5765 C   0  0  0  0  0  0  0  0  0  0  0  0
   48.4634   33.5231   46.5304 H   0  0  0  0  0  0  0  0  0  0  0  0
   50.8733   32.0721   46.6872 S   0  0  0  0  0  0  0  0  0  0  0  0
   51.8621   30.5937   46.7756 C   0  0  0  0  0  0  0  0  0  0  0  0
   53.2070   30.7713   46.7843 C   0  0  0  0  0  0  0  0  0  0  0  0
   53.6640   31.7545   46.7395 H   0  0  0  0  0  0  0  0  0  0  0  0
   53.9944   29.6256   46.8549 C   0  0  0  0  0  0  0  0  0  0  0  0
   55.0660   29.7309   46.8666 H   0  0  0  0  0  0  0  0  0  0  0  0
   53.4705   28.3446   46.9157 C   0  0  0  0  0  0  0  0  0  0  0  0
   54.0782   27.4644   46.9742 H   0  0  0  0  0  0  0  0  0  0  0  0
   52.0810   28.2603   46.9020 C   0  0  0  0  0  0  0  0  0  0  0  0
   51.6861   27.2340   46.9512 H   0  0  0  0  0  0  0  0  0  0  0  0
   51.2618   29.3659   46.8322 C   0  0  0  0  0  0  0  0  0  0  0  0
   49.8857   29.1355   46.8122 N   0  0  0  0  0  0  0  0  0  0  0  0
   49.5324   28.1554   46.8583 H   0  0  0  0  0  0  0  0  0  0  0  0
  1  6  2  0
  2  1  1  0
  3  2  2  0
  3  4  1  0
  4  5  2  0
  5  6  1  0
  5 11  1  0
  7  8  1  0
  7  3  1  0
  9  7  1  0
 10  7  1  0
 11 12  2  0
  1 13  1  0
  2 14  1  0
 15 16  2  0
 16 17  1  0
 16 18  1  0
 18 19  1  0
 18 20  2  0
 20 21  1  0
 21 22  2  0
 22 23  1  0
 21 24  1  0
 24 25  1  0
 25 26  2  0
 26 27  1  0
 26 28  1  0
 28 29  1  0
 28 30  2  0
 30 31  1  0
 30 32  1  0
 32 33  1  0
 32 34  2  0
 34 35  1  0
 35 36  1  0
 22 15  1  0
 34 25  1  0
 35 20  1  0
 11 15  1  0
M  ISO  8  13  14  14  14  17  16  19  16  23  16  27  16  29  16  31  16
M  ISO  2  33  16  36   5
M  END
>  <DihAtoms>  (1) 
4,10,14,15

>  <DihDeg>  (1) 
16.95244225262003

$$$$
