
     RDKit          3D

 40 44  0  0  0  0  0  0  0  0999 V2000
   45.3804   36.0756   43.1967 C   0  0  0  0  0  0  0  0  0  0  0  0
   46.1211   34.8786   43.0834 C   0  0  0  0  0  0  0  0  0  0  0  0
   46.0753   34.0399   44.1766 C   0  0  0  0  0  0  0  0  0  0  0  0
   45.3664   34.3464   45.2794 N   0  0  0  0  0  0  0  0  0  0  0  0
   44.6650   35.5069   45.3539 C   0  0  0  0  0  0  0  0  0  0  0  0
   44.6807   36.3634   44.3035 N   0  0  0  0  0  0  0  0  0  0  0  0
   46.7973   32.8516   44.1354 C   0  0  0  0  0  0  0  0  0  0  0  0
   47.7425   32.3282   43.2785 C   0  0  0  0  0  0  0  0  0  0  0  0
   48.2854   31.1393   43.4769 C   0  0  0  0  0  0  0  0  0  0  0  0
   47.8780   30.4221   44.5834 C   0  0  0  0  0  0  0  0  0  0  0  0
   46.6330   31.5664   45.3620 S   0  0  0  0  0  0  0  0  0  0  0  0
   46.8105   34.6349   41.8655 C   0  0  0  0  0  0  0  0  0  0  0  0
   47.8933   35.3226   41.6949 O   0  0  0  0  0  0  0  0  0  0  0  0
   45.3787   36.7743   42.3719 H   0  0  0  0  0  0  0  0  0  0  0  0
   44.1246   35.6581   46.2909 H   0  0  0  0  0  0  0  0  0  0  0  0
   48.2034   32.7494   42.4194 H   0  0  0  0  0  0  0  0  0  0  0  0
   49.0028   30.4864   43.0240 H   0  0  0  0  0  0  0  0  0  0  0  0
   48.0091   29.4956   45.1321 H   0  0  0  0  0  0  0  0  0  0  0  0
   46.2711   33.6423   40.8708 C   0  0  0  0  0  0  0  0  0  0  0  0
   47.0765   33.4177   39.7740 C   0  0  0  0  0  0  0  0  0  0  0  0
   48.0401   33.9355   39.6721 H   0  0  0  0  0  0  0  0  0  0  0  0
   46.7440   32.5651   38.7564 C   0  0  0  0  0  0  0  0  0  0  0  0
   47.4057   32.4284   37.9246 H   0  0  0  0  0  0  0  0  0  0  0  0
   45.5181   31.8893   38.8425 C   0  0  0  0  0  0  0  0  0  0  0  0
   44.7122   32.1087   39.9357 C   0  0  0  0  0  0  0  0  0  0  0  0
   45.1004   32.9693   40.9145 C   0  0  0  0  0  0  0  0  0  0  0  0
   44.5227   33.1923   41.8037 H   0  0  0  0  0  0  0  0  0  0  0  0
   43.1534   31.2641   40.0841 S   0  0  0  0  0  0  0  0  0  0  0  0
   42.9508   30.3318   38.5783 C   0  0  0  0  0  0  0  0  0  0  0  0
   41.8117   29.6383   38.3591 C   0  0  0  0  0  0  0  0  0  0  0  0
   41.0369   29.6726   39.1382 H   0  0  0  0  0  0  0  0  0  0  0  0
   41.5743   28.8937   37.2305 C   0  0  0  0  0  0  0  0  0  0  0  0
   40.6425   28.3637   37.1258 H   0  0  0  0  0  0  0  0  0  0  0  0
   42.6105   28.8909   36.2833 C   0  0  0  0  0  0  0  0  0  0  0  0
   42.4565   28.3158   35.3862 H   0  0  0  0  0  0  0  0  0  0  0  0
   43.7752   29.6064   36.5210 C   0  0  0  0  0  0  0  0  0  0  0  0
   44.4920   29.5299   35.7289 H   0  0  0  0  0  0  0  0  0  0  0  0
   43.9751   30.3623   37.7057 C   0  0  0  0  0  0  0  0  0  0  0  0
   45.1816   31.0540   37.7650 N   0  0  0  0  0  0  0  0  0  0  0  0
   45.8817   30.9510   36.9723 H   0  0  0  0  0  0  0  0  0  0  0  0
  1  6  2  0
  2  1  1  0
  2  3  2  0
  3  4  1  0
  4  5  2  0
  6  5  1  0
  7  3  1  0
  7 11  1  0
  8  9  1  0
  8  7  2  0
  9 10  2  0
 10 11  1  0
 12  2  1  0
 13 12  2  0
  1 14  1  0
  5 15  1  0
  8 16  1  0
  9 17  1  0
 10 18  1  0
 19 20  2  0
 20 21  1  0
 20 22  1  0
 22 23  1  0
 22 24  2  0
 24 25  1  0
 25 26  2  0
 26 27  1  0
 25 28  1  0
 28 29  1  0
 29 30  2  0
 30 31  1  0
 30 32  1  0
 32 33  1  0
 32 34  2  0
 34 35  1  0
 34 36  1  0
 36 37  1  0
 36 38  2  0
 38 39  1  0
 39 40  1  0
 26 19  1  0
 38 29  1  0
 39 24  1  0
 12 19  1  0
M  ISO  8  14  14  15  14  16  14  17  14  18  14  21  16  23  16  27  16
M  ISO  5  31  16  33  16  35  16  37  16  40   5
M  END
>  <DihAtoms>  (1) 
1,11,18,19

>  <DihDeg>  (1) 
19.611279885680464

$$$$
