
     RDKit          3D

 39 42  0  0  0  0  0  0  0  0999 V2000
   46.1401   35.2814   42.6991 C   0  0  0  0  0  0  0  0  0  0  0  0
   46.6907   34.1860   43.3435 C   0  0  0  0  0  0  0  0  0  0  0  0
   46.2034   33.8369   44.6081 C   0  0  0  0  0  0  0  0  0  0  0  0
   45.2055   34.5988   45.1428 N   0  0  0  0  0  0  0  0  0  0  0  0
   44.6982   35.6484   44.4928 C   0  0  0  0  0  0  0  0  0  0  0  0
   45.1624   35.9803   43.2891 N   0  0  0  0  0  0  0  0  0  0  0  0
   47.7070   33.4826   42.6985 O   0  0  0  0  0  0  0  0  0  0  0  0
   49.5465   35.3639   42.7922 O   0  0  0  0  0  0  0  0  0  0  0  0
   48.9777   34.3051   41.9001 P   0  0  1  0  0  0  0  0  0  0  0  0
   50.2209   33.2458   41.5105 O   0  0  0  0  0  0  0  0  0  0  0  0
   48.4112   35.0206   40.5029 O   0  0  0  0  0  0  0  0  0  0  0  0
   48.0496   34.4070   39.3593 C   0  0  0  0  0  0  0  0  0  0  0  0
   46.9538   33.7322   39.5113 O   0  0  0  0  0  0  0  0  0  0  0  0
   46.4802   35.5993   41.7130 H   0  0  0  0  0  0  0  0  0  0  0  0
   46.6708   32.9878   45.0428 H   0  0  0  0  0  0  0  0  0  0  0  0
   43.9113   36.1594   45.0395 H   0  0  0  0  0  0  0  0  0  0  0  0
   51.0696   33.7056   41.3861 H   0  0  0  0  0  0  0  0  0  0  0  0
   48.4912   34.2435   37.9445 C   0  0  0  0  0  0  0  0  0  0  0  0
   49.6022   34.8276   37.4573 C   0  0  0  0  0  0  0  0  0  0  0  0
   50.2513   35.4551   38.0483 H   0  0  0  0  0  0  0  0  0  0  0  0
   49.8857   34.5769   36.1098 C   0  0  0  0  0  0  0  0  0  0  0  0
   50.7944   35.0663   35.7471 H   0  0  0  0  0  0  0  0  0  0  0  0
   49.1257   33.7973   35.2804 C   0  0  0  0  0  0  0  0  0  0  0  0
   48.0012   33.2192   35.8136 C   0  0  0  0  0  0  0  0  0  0  0  0
   47.7047   33.4430   37.1055 C   0  0  0  0  0  0  0  0  0  0  0  0
   46.7992   32.9722   37.5186 H   0  0  0  0  0  0  0  0  0  0  0  0
   46.9827   32.1959   34.7680 S   0  0  0  0  0  0  0  0  0  0  0  0
   47.7614   32.1971   33.1771 C   0  0  0  0  0  0  0  0  0  0  0  0
   47.1333   31.4652   32.2238 C   0  0  0  0  0  0  0  0  0  0  0  0
   46.2204   30.9058   32.3811 H   0  0  0  0  0  0  0  0  0  0  0  0
   47.6689   31.4022   30.9345 C   0  0  0  0  0  0  0  0  0  0  0  0
   47.2046   30.8325   30.1417 H   0  0  0  0  0  0  0  0  0  0  0  0
   48.8244   32.0891   30.6705 C   0  0  0  0  0  0  0  0  0  0  0  0
   49.2474   32.0489   29.6815 H   0  0  0  0  0  0  0  0  0  0  0  0
   49.3930   32.8047   31.6957 C   0  0  0  0  0  0  0  0  0  0  0  0
   50.3172   33.3288   31.4075 H   0  0  0  0  0  0  0  0  0  0  0  0
   48.9115   32.9042   32.9859 C   0  0  0  0  0  0  0  0  0  0  0  0
   49.5771   33.6632   33.9461 N   0  0  0  0  0  0  0  0  0  0  0  0
   50.4472   34.1412   33.6270 H   0  0  0  0  0  0  0  0  0  0  0  0
  1  6  2  0
  1  2  1  0
  2  3  2  0
  3  4  1  0
  5  4  2  0
  6  5  1  0
  7  2  1  0
  9  7  1  1
  9  8  2  0
 10  9  1  0
 11  9  1  0
 12 13  2  0
 12 11  1  0
  1 14  1  0
  3 15  1  0
  5 16  1  0
 10 17  1  0
 18 19  2  0
 19 20  1  0
 19 21  1  0
 21 22  1  0
 21 23  2  0
 23 24  1  0
 24 25  2  0
 25 26  1  0
 24 27  1  0
 27 28  1  0
 28 29  2  0
 29 30  1  0
 29 31  1  0
 31 32  1  0
 31 33  2  0
 33 34  1  0
 33 35  1  0
 35 36  1  0
 35 37  2  0
 37 38  1  0
 38 39  1  0
 25 18  1  0
 37 28  1  0
 38 23  1  0
 12 18  1  0
M  ISO  8  14  14  15  14  16  14  17   3  20  16  22  16  26  16  30  16
M  ISO  4  32  16  34  16  36  16  39   5
M  END
>  <DihAtoms>  (1) 
12,11,17,18

>  <DihDeg>  (1) 
-0.2890424809283181

$$$$
