
     RDKit          3D

 36 39  0  0  0  0  0  0  0  0999 V2000
   44.5977   35.9289   44.4246 C   0  0  0  0  0  0  0  0  0  0  0  0
   45.3323   35.8560   43.2209 C   0  0  0  0  0  0  0  0  0  0  0  0
   46.2502   34.8187   43.1423 C   0  0  0  0  0  0  0  0  0  0  0  0
   46.3490   34.0025   44.1953 N   0  0  0  0  0  0  0  0  0  0  0  0
   45.6595   34.0639   45.3346 C   0  0  0  0  0  0  0  0  0  0  0  0
   44.7578   35.0646   45.4386 N   0  0  0  0  0  0  0  0  0  0  0  0
   47.0320   34.7212   41.9032 C   0  0  0  0  0  0  0  0  0  0  0  0
   47.8453   33.6009   41.9458 F   0  0  0  0  0  0  0  0  0  0  0  0
   47.9067   35.8213   41.9105 F   0  0  0  0  0  0  0  0  0  0  0  0
   46.2685   34.6836   40.7844 F   0  0  0  0  0  0  0  0  0  0  0  0
   45.8249   33.1509   46.4486 C   0  0  0  0  0  0  0  0  0  0  0  0
   45.0299   33.1856   47.4332 O   0  0  0  0  0  0  0  0  0  0  0  0
   43.8751   36.7327   44.5126 H   0  0  0  0  0  0  0  0  0  0  0  0
   45.2126   36.5419   42.4089 H   0  0  0  0  0  0  0  0  0  0  0  0
   46.8732   32.1473   46.5470 C   0  0  0  0  0  0  0  0  0  0  0  0
   48.0784   32.4030   47.1633 C   0  0  0  0  0  0  0  0  0  0  0  0
   48.3289   33.3488   47.6147 H   0  0  0  0  0  0  0  0  0  0  0  0
   49.0839   31.4569   47.2687 C   0  0  0  0  0  0  0  0  0  0  0  0
   50.0304   31.7192   47.7707 H   0  0  0  0  0  0  0  0  0  0  0  0
   48.9382   30.1723   46.7534 C   0  0  0  0  0  0  0  0  0  0  0  0
   47.7261   29.9460   46.1447 C   0  0  0  0  0  0  0  0  0  0  0  0
   46.7522   30.8705   46.0442 C   0  0  0  0  0  0  0  0  0  0  0  0
   45.8000   30.6441   45.5418 H   0  0  0  0  0  0  0  0  0  0  0  0
   47.4142   28.3370   45.4444 S   0  0  0  0  0  0  0  0  0  0  0  0
   48.8765   27.3775   45.7789 C   0  0  0  0  0  0  0  0  0  0  0  0
   48.8603   26.0903   45.3504 C   0  0  0  0  0  0  0  0  0  0  0  0
   48.0088   25.6605   44.8328 H   0  0  0  0  0  0  0  0  0  0  0  0
   49.9966   25.3269   45.6025 C   0  0  0  0  0  0  0  0  0  0  0  0
   50.0181   24.3019   45.2731 H   0  0  0  0  0  0  0  0  0  0  0  0
   51.1143   25.8188   46.2566 C   0  0  0  0  0  0  0  0  0  0  0  0
   51.9895   25.2308   46.4459 H   0  0  0  0  0  0  0  0  0  0  0  0
   51.0404   27.1495   46.6590 C   0  0  0  0  0  0  0  0  0  0  0  0
   51.9386   27.5198   47.1763 H   0  0  0  0  0  0  0  0  0  0  0  0
   49.9369   27.9428   46.4322 C   0  0  0  0  0  0  0  0  0  0  0  0
   49.9923   29.2556   46.9020 N   0  0  0  0  0  0  0  0  0  0  0  0
   50.8521   29.5861   47.3907 H   0  0  0  0  0  0  0  0  0  0  0  0
  1  6  2  0
  2  1  1  0
  3  2  2  0
  3  4  1  0
  4  5  2  0
  5  6  1  0
  5 11  1  0
  7  8  1  0
  7  3  1  0
  9  7  1  0
 10  7  1  0
 11 12  2  0
  1 13  1  0
  2 14  1  0
 15 16  2  0
 16 17  1  0
 16 18  1  0
 18 19  1  0
 18 20  2  0
 20 21  1  0
 21 22  2  0
 22 23  1  0
 21 24  1  0
 24 25  1  0
 25 26  2  0
 26 27  1  0
 26 28  1  0
 28 29  1  0
 28 30  2  0
 30 31  1  0
 30 32  1  0
 32 33  1  0
 32 34  2  0
 34 35  1  0
 35 36  1  0
 22 15  1  0
 34 25  1  0
 35 20  1  0
 11 15  1  0
M  ISO  8  13  14  14  14  17  16  19  16  23  16  27  16  29  16  31  16
M  ISO  2  33  16  36   5
M  END
>  <DihAtoms>  (1) 
4,10,14,15

>  <DihDeg>  (1) 
16.95244225262003

$$$$
