
     RDKit          3D

 47 52  0  0  0  0  0  0  0  0999 V2000
   46.8250   34.6680   43.1720 C   0  0  0  0  0  0  0  0  0  0  0  0
   45.6340   35.3680   43.4170 C   0  0  0  0  0  0  0  0  0  0  0  0
   44.8980   34.9600   44.5430 C   0  0  0  0  0  0  0  0  0  0  0  0
   45.3760   33.9300   45.3130 N   0  0  0  0  0  0  0  0  0  0  0  0
   46.5210   33.3100   45.0150 C   0  0  0  0  0  0  0  0  0  0  0  0
   47.2490   33.6810   43.9400 N   0  0  0  0  0  0  0  0  0  0  0  0
   47.0130   32.2170   45.8460 C   0  0  0  0  0  0  0  0  0  0  0  0
   47.1190   32.3680   47.2140 C   0  0  0  0  0  0  0  0  0  0  0  0
   47.5850   31.3230   47.9790 C   0  0  0  0  0  0  0  0  0  0  0  0
   47.9670   30.1000   47.4710 C   0  0  0  0  0  0  0  0  0  0  0  0
   47.8560   29.9700   46.1220 C   0  0  0  0  0  0  0  0  0  0  0  0
   47.3950   30.9930   45.3390 C   0  0  0  0  0  0  0  0  0  0  0  0
   48.3320   28.4150   45.3950 S   0  0  0  0  0  0  0  0  0  0  0  0
   48.8670   27.3670   46.7340 C   0  0  0  0  0  0  0  0  0  0  0  0
   49.2850   26.1030   46.4140 C   0  0  0  0  0  0  0  0  0  0  0  0
   49.7080   25.2500   47.4000 C   0  0  0  0  0  0  0  0  0  0  0  0
   49.7020   25.6910   48.7070 C   0  0  0  0  0  0  0  0  0  0  0  0
   49.2670   26.9760   48.9520 C   0  0  0  0  0  0  0  0  0  0  0  0
   48.8310   27.8810   48.0060 C   0  0  0  0  0  0  0  0  0  0  0  0
   48.4180   29.1540   48.4140 N   0  0  0  0  0  0  0  0  0  0  0  0
   47.5630   35.0920   42.0270 C   0  0  0  0  0  0  0  0  0  0  0  0
   48.4390   35.9970   41.9880 O   0  0  0  0  0  0  0  0  0  0  0  0
   46.1990   33.7120   40.4110 C   0  0  0  0  0  0  0  0  0  0  0  0
   47.3420   34.4640   40.7170 C   0  0  0  0  0  0  0  0  0  0  0  0
   48.2880   34.6140   39.7380 C   0  0  0  0  0  0  0  0  0  0  0  0
   48.1960   34.0760   38.4590 C   0  0  0  0  0  0  0  0  0  0  0  0
   48.9920   34.1060   37.3770 N   0  0  0  0  0  0  0  0  0  0  0  0
   48.4070   33.4070   36.3920 C   0  0  0  0  0  0  0  0  0  0  0  0
   47.1960   32.9150   36.8720 C   0  0  0  0  0  0  0  0  0  0  0  0
   47.0570   33.3380   38.1830 C   0  0  0  0  0  0  0  0  0  0  0  0
   46.0880   33.1650   39.1400 C   0  0  0  0  0  0  0  0  0  0  0  0
   45.2960   36.1879   42.7662 H   0  0  0  0  0  0  0  0  0  0  0  0
   43.9529   35.4591   44.8029 H   0  0  0  0  0  0  0  0  0  0  0  0
   46.8328   33.3176   47.6898 H   0  0  0  0  0  0  0  0  0  0  0  0
   47.6572   31.4736   49.0662 H   0  0  0  0  0  0  0  0  0  0  0  0
   47.3258   30.8312   44.2532 H   0  0  0  0  0  0  0  0  0  0  0  0
   49.2813   25.7719   45.3650 H   0  0  0  0  0  0  0  0  0  0  0  0
   50.0460   24.2326   47.1536 H   0  0  0  0  0  0  0  0  0  0  0  0
   50.0338   25.0381   49.5277 H   0  0  0  0  0  0  0  0  0  0  0  0
   49.2675   27.3113   49.9997 H   0  0  0  0  0  0  0  0  0  0  0  0
   48.4437   29.4025   49.4132 H   0  0  0  0  0  0  0  0  0  0  0  0
   45.4086   33.5590   41.1606 H   0  0  0  0  0  0  0  0  0  0  0  0
   49.1851   35.2024   39.9809 H   0  0  0  0  0  0  0  0  0  0  0  0
   49.9010   34.5862   37.3139 H   0  0  0  0  0  0  0  0  0  0  0  0
   48.8132   33.2501   35.3819 H   0  0  0  0  0  0  0  0  0  0  0  0
   46.4779   32.3000   36.3099 H   0  0  0  0  0  0  0  0  0  0  0  0
   45.1944   32.5736   38.8915 H   0  0  0  0  0  0  0  0  0  0  0  0
  1  2  2  0
  1  6  1  0
  2  3  1  0
  3  4  2  0
  5  4  1  0
  5  7  1  0
  6  5  2  0
  7  8  2  0
  8  9  1  0
 10  9  2  0
 10 20  1  0
 11 10  1  0
 12  7  1  0
 12 11  2  0
 13 11  1  0
 13 14  1  0
 14 19  2  0
 15 14  1  0
 15 16  2  0
 16 17  1  0
 17 18  2  0
 19 20  1  0
 19 18  1  0
 21  1  1  0
 22 21  2  0
 23 24  2  0
 24 21  1  0
 25 24  1  0
 26 25  2  0
 27 26  1  0
 28 29  2  0
 28 27  1  0
 29 30  1  0
 30 26  1  0
 30 31  2  0
 31 23  1  0
  2 32  1  0
  3 33  1  0
  8 34  1  0
  9 35  1  0
 12 36  1  0
 15 37  1  0
 16 38  1  0
 17 39  1  0
 18 40  1  0
 20 41  1  0
 23 42  1  0
 25 43  1  0
 27 44  1  0
 28 45  1  0
 29 46  1  0
 31 47  1  0
M  ISO  8  32  14  33  14  34  14  35  14  36  14  37  14  38  14  39  14
M  ISO  7  40  14  42  14  43  14  44   9  45  14  46  14  47  14
M  END
>  <minimizedAffinity>  (1) 
-7.09974241

>  <minimizedRMSD>  (1) 
1.30565441

$$$$
