
     RDKit          3D

 36 39  0  0  0  0  0  0  0  0999 V2000
   44.5977   35.9289   44.4246 C   0  0  0  0  0  0  0  0  0  0  0  0
   45.3323   35.8560   43.2209 C   0  0  0  0  0  0  0  0  0  0  0  0
   46.2502   34.8187   43.1423 C   0  0  0  0  0  0  0  0  0  0  0  0
   46.3490   34.0025   44.1953 N   0  0  0  0  0  0  0  0  0  0  0  0
   45.6595   34.0639   45.3346 C   0  0  0  0  0  0  0  0  0  0  0  0
   44.7578   35.0646   45.4386 N   0  0  0  0  0  0  0  0  0  0  0  0
   47.0320   34.7212   41.9032 C   0  0  0  0  0  0  0  0  0  0  0  0
   47.8453   33.6009   41.9458 F   0  0  0  0  0  0  0  0  0  0  0  0
   47.9067   35.8213   41.9105 F   0  0  0  0  0  0  0  0  0  0  0  0
   46.2685   34.6836   40.7844 F   0  0  0  0  0  0  0  0  0  0  0  0
   45.8249   33.1509   46.4486 C   0  0  0  0  0  0  0  0  0  0  0  0
   45.0299   33.1856   47.4332 O   0  0  0  0  0  0  0  0  0  0  0  0
   43.8751   36.7327   44.5126 H   0  0  0  0  0  0  0  0  0  0  0  0
   45.2126   36.5419   42.4089 H   0  0  0  0  0  0  0  0  0  0  0  0
   46.8732   32.1473   46.5470 C   0  0  0  0  0  0  0  0  0  0  0  0
   48.1698   32.4709   46.8810 C   0  0  0  0  0  0  0  0  0  0  0  0
   48.4982   33.4747   47.0949 H   0  0  0  0  0  0  0  0  0  0  0  0
   49.1774   31.5265   46.9830 C   0  0  0  0  0  0  0  0  0  0  0  0
   50.1990   31.8444   47.2512 H   0  0  0  0  0  0  0  0  0  0  0  0
   48.9404   30.1746   46.7526 C   0  0  0  0  0  0  0  0  0  0  0  0
   47.6384   29.8816   46.4216 C   0  0  0  0  0  0  0  0  0  0  0  0
   46.6629   30.8045   46.3229 C   0  0  0  0  0  0  0  0  0  0  0  0
   45.6355   30.5220   46.0485 H   0  0  0  0  0  0  0  0  0  0  0  0
   47.2045   28.1825   46.1029 S   0  0  0  0  0  0  0  0  0  0  0  0
   48.7026   27.2516   46.3479 C   0  0  0  0  0  0  0  0  0  0  0  0
   48.6086   25.9087   46.1789 C   0  0  0  0  0  0  0  0  0  0  0  0
   47.6776   25.4202   45.9103 H   0  0  0  0  0  0  0  0  0  0  0  0
   49.7713   25.1664   46.3650 C   0  0  0  0  0  0  0  0  0  0  0  0
   49.7325   24.0980   46.2358 H   0  0  0  0  0  0  0  0  0  0  0  0
   50.9889   25.7320   46.7066 C   0  0  0  0  0  0  0  0  0  0  0  0
   51.8836   25.1593   46.8453 H   0  0  0  0  0  0  0  0  0  0  0  0
   50.9895   27.1158   46.8582 C   0  0  0  0  0  0  0  0  0  0  0  0
   51.9664   27.5443   47.1294 H   0  0  0  0  0  0  0  0  0  0  0  0
   49.8637   27.8911   46.6850 C   0  0  0  0  0  0  0  0  0  0  0  0
   50.0036   29.2654   46.8821 N   0  0  0  0  0  0  0  0  0  0  0  0
   50.9376   29.6508   47.1400 H   0  0  0  0  0  0  0  0  0  0  0  0
  1  6  2  0
  2  1  1  0
  3  2  2  0
  3  4  1  0
  4  5  2  0
  5  6  1  0
  5 11  1  0
  7  8  1  0
  7  3  1  0
  9  7  1  0
 10  7  1  0
 11 12  2  0
  1 13  1  0
  2 14  1  0
 15 16  2  0
 16 17  1  0
 16 18  1  0
 18 19  1  0
 18 20  2  0
 20 21  1  0
 21 22  2  0
 22 23  1  0
 21 24  1  0
 24 25  1  0
 25 26  2  0
 26 27  1  0
 26 28  1  0
 28 29  1  0
 28 30  2  0
 30 31  1  0
 30 32  1  0
 32 33  1  0
 32 34  2  0
 34 35  1  0
 35 36  1  0
 22 15  1  0
 34 25  1  0
 35 20  1  0
 11 15  1  0
M  ISO  8  13  14  14  14  17  16  19  16  23  16  27  16  29  16  31  16
M  ISO  2  33  16  36   5
M  END
>  <DihAtoms>  (1) 
4,10,14,15

>  <DihDeg>  (1) 
16.95244225262003

$$$$
