
     RDKit          3D

 50 55  0  0  0  0  0  0  0  0999 V2000
   47.5337   32.8435   43.9072 C   0  0  0  0  0  0  0  0  0  0  0  0
   48.3740   33.3890   43.0157 C   0  0  0  0  0  0  0  0  0  0  0  0
   49.2365   32.4940   42.4160 C   0  0  0  0  0  0  0  0  0  0  0  0
   49.1624   31.1367   42.7842 N   0  0  0  0  0  0  0  0  0  0  0  0
   48.3131   30.6780   43.6700 C   0  0  0  0  0  0  0  0  0  0  0  0
   47.4341   31.5404   44.2887 N   0  0  0  0  0  0  0  0  0  0  0  0
   48.5230   34.7729   42.7347 C   0  0  0  0  0  0  0  0  0  0  0  0
   49.5225   35.3993   42.0586 C   0  0  0  0  0  0  0  0  0  0  0  0
   48.2777   35.2247   41.2325 C   0  0  0  0  0  0  0  0  0  0  0  0
   46.4524   33.5330   44.6225 C   0  0  0  0  0  0  0  0  0  0  0  0
   45.8820   33.8978   45.6191 O   0  0  0  0  0  0  0  0  0  0  0  0
   44.6813   31.6644   42.9270 Cl  0  0  0  0  0  0  0  0  0  0  0  0
   44.6491   33.4215   42.7606 C   0  0  0  0  0  0  0  0  0  0  0  0
   45.5203   34.1228   43.6204 C   0  0  0  0  0  0  0  0  0  0  0  0
   45.4174   35.4884   43.4057 C   0  0  0  0  0  0  0  0  0  0  0  0
   44.6509   36.1707   42.5433 C   0  0  0  0  0  0  0  0  0  0  0  0
   43.8375   35.4134   41.7475 C   0  0  0  0  0  0  0  0  0  0  0  0
   43.8201   34.0637   41.8381 C   0  0  0  0  0  0  0  0  0  0  0  0
   49.9817   32.7481   41.6710 H   0  0  0  0  0  0  0  0  0  0  0  0
   48.3749   29.6101   43.8514 H   0  0  0  0  0  0  0  0  0  0  0  0
   48.0615   35.4333   43.4927 H   0  0  0  0  0  0  0  0  0  0  0  0
   49.8510   36.4648   42.1034 H   0  0  0  0  0  0  0  0  0  0  0  0
   50.3910   34.7930   41.6628 H   0  0  0  0  0  0  0  0  0  0  0  0
   48.2128   34.3775   40.5375 H   0  0  0  0  0  0  0  0  0  0  0  0
   47.5872   36.0749   41.1336 H   0  0  0  0  0  0  0  0  0  0  0  0
   46.0120   36.1925   44.0253 H   0  0  0  0  0  0  0  0  0  0  0  0
   44.6013   37.2210   42.4063 H   0  0  0  0  0  0  0  0  0  0  0  0
   43.1567   35.8038   40.9988 H   0  0  0  0  0  0  0  0  0  0  0  0
   42.9665   33.2035   41.0158 C   0  0  0  0  0  0  0  0  0  0  0  0
   43.6671   32.2707   40.2494 C   0  0  0  0  0  0  0  0  0  0  0  0
   44.7460   32.2000   40.2731 H   0  0  0  0  0  0  0  0  0  0  0  0
   42.9517   31.4006   39.4252 C   0  0  0  0  0  0  0  0  0  0  0  0
   43.5581   30.6894   38.8465 H   0  0  0  0  0  0  0  0  0  0  0  0
   41.5787   31.4001   39.3152 C   0  0  0  0  0  0  0  0  0  0  0  0
   40.9431   32.3354   40.0890 C   0  0  0  0  0  0  0  0  0  0  0  0
   41.5920   33.2106   40.9123 C   0  0  0  0  0  0  0  0  0  0  0  0
   41.1025   33.9383   41.5118 H   0  0  0  0  0  0  0  0  0  0  0  0
   39.1661   32.4172   40.0193 S   0  0  0  0  0  0  0  0  0  0  0  0
   38.6395   31.1621   38.8709 C   0  0  0  0  0  0  0  0  0  0  0  0
   37.3076   30.9894   38.6123 C   0  0  0  0  0  0  0  0  0  0  0  0
   36.5927   31.6404   39.1290 H   0  0  0  0  0  0  0  0  0  0  0  0
   36.8397   30.0377   37.7360 C   0  0  0  0  0  0  0  0  0  0  0  0
   35.7690   29.9819   37.6013 H   0  0  0  0  0  0  0  0  0  0  0  0
   37.7748   29.2414   37.1087 C   0  0  0  0  0  0  0  0  0  0  0  0
   37.4376   28.5002   36.4283 H   0  0  0  0  0  0  0  0  0  0  0  0
   39.1071   29.4494   37.3982 C   0  0  0  0  0  0  0  0  0  0  0  0
   39.7833   28.7711   36.8544 H   0  0  0  0  0  0  0  0  0  0  0  0
   39.6038   30.3936   38.2703 C   0  0  0  0  0  0  0  0  0  0  0  0
   40.9961   30.4576   38.4378 N   0  0  0  0  0  0  0  0  0  0  0  0
   41.6068   29.8020   37.9087 H   0  0  0  0  0  0  0  0  0  0  0  0
  1  6  1  0
  1 10  1  0
  2  1  2  0
  3  4  2  0
  3  2  1  0
  4  5  1  0
  5  6  2  0
  7  2  1  0
  8  7  1  0
  9  8  1  0
  9  7  1  0
 10 11  2  0
 13 12  1  0
 13 14  2  0
 14 10  1  0
 15 14  1  0
 16 15  2  0
 17 18  2  0
 17 16  1  0
 18 13  1  0
  3 19  1  0
  5 20  1  0
  7 21  1  0
  8 22  1  0
  8 23  1  0
  9 24  1  0
  9 25  1  0
 15 26  1  0
 16 27  1  0
 17 28  1  0
 29 30  2  0
 30 31  1  0
 30 32  1  0
 32 33  1  0
 32 34  2  0
 34 35  1  0
 35 36  2  0
 36 37  1  0
 35 38  1  0
 38 39  1  0
 39 40  2  0
 40 41  1  0
 40 42  1  0
 42 43  1  0
 42 44  2  0
 44 45  1  0
 44 46  1  0
 46 47  1  0
 46 48  2  0
 48 49  1  0
 49 50  1  0
 36 29  1  0
 48 39  1  0
 49 34  1  0
 18 29  1  0
M  ISO  8  19  14  20  14  21  13  22  13  23  13  24  13  25  13  26  14
M  ISO  8  27  14  28  14  31  16  33  16  37  16  41  16  43  16  45  16
M  ISO  2  47  16  50   5
M  END
>  <DihAtoms>  (1) 
16,17,28,29

>  <DihDeg>  (1) 
46.50433985907053

$$$$
