
     RDKit          3D

 39 42  0  0  0  0  0  0  0  0999 V2000
   46.1401   35.2814   42.6991 C   0  0  0  0  0  0  0  0  0  0  0  0
   46.6907   34.1860   43.3435 C   0  0  0  0  0  0  0  0  0  0  0  0
   46.2034   33.8369   44.6081 C   0  0  0  0  0  0  0  0  0  0  0  0
   45.2055   34.5988   45.1428 N   0  0  0  0  0  0  0  0  0  0  0  0
   44.6982   35.6484   44.4928 C   0  0  0  0  0  0  0  0  0  0  0  0
   45.1624   35.9803   43.2891 N   0  0  0  0  0  0  0  0  0  0  0  0
   47.7070   33.4826   42.6985 O   0  0  0  0  0  0  0  0  0  0  0  0
   49.5465   35.3639   42.7922 O   0  0  0  0  0  0  0  0  0  0  0  0
   48.9777   34.3051   41.9001 P   0  0  1  0  0  0  0  0  0  0  0  0
   50.2209   33.2458   41.5105 O   0  0  0  0  0  0  0  0  0  0  0  0
   48.4112   35.0206   40.5029 O   0  0  0  0  0  0  0  0  0  0  0  0
   48.0496   34.4070   39.3593 C   0  0  0  0  0  0  0  0  0  0  0  0
   46.9538   33.7322   39.5113 O   0  0  0  0  0  0  0  0  0  0  0  0
   46.4802   35.5993   41.7130 H   0  0  0  0  0  0  0  0  0  0  0  0
   46.6708   32.9878   45.0428 H   0  0  0  0  0  0  0  0  0  0  0  0
   43.9113   36.1594   45.0395 H   0  0  0  0  0  0  0  0  0  0  0  0
   51.0696   33.7056   41.3861 H   0  0  0  0  0  0  0  0  0  0  0  0
   48.4912   34.2435   37.9445 C   0  0  0  0  0  0  0  0  0  0  0  0
   47.7326   34.6198   36.8978 C   0  0  0  0  0  0  0  0  0  0  0  0
   46.7542   35.0629   37.0021 H   0  0  0  0  0  0  0  0  0  0  0  0
   48.2863   34.4038   35.6305 C   0  0  0  0  0  0  0  0  0  0  0  0
   47.6440   34.7208   34.8037 H   0  0  0  0  0  0  0  0  0  0  0  0
   49.5157   33.8500   35.3960 C   0  0  0  0  0  0  0  0  0  0  0  0
   50.2592   33.4794   36.4884 C   0  0  0  0  0  0  0  0  0  0  0  0
   49.7517   33.6752   37.7176 C   0  0  0  0  0  0  0  0  0  0  0  0
   50.3603   33.3726   38.5838 H   0  0  0  0  0  0  0  0  0  0  0  0
   51.8665   32.7539   36.2279 S   0  0  0  0  0  0  0  0  0  0  0  0
   52.0981   32.6989   34.4727 C   0  0  0  0  0  0  0  0  0  0  0  0
   53.2778   32.1729   34.0599 C   0  0  0  0  0  0  0  0  0  0  0  0
   54.0498   31.8017   34.7213 H   0  0  0  0  0  0  0  0  0  0  0  0
   53.5563   32.0854   32.6932 C   0  0  0  0  0  0  0  0  0  0  0  0
   54.4821   31.6740   32.3160 H   0  0  0  0  0  0  0  0  0  0  0  0
   52.6189   32.5386   31.8029 C   0  0  0  0  0  0  0  0  0  0  0  0
   52.8210   32.4770   30.7475 H   0  0  0  0  0  0  0  0  0  0  0  0
   51.4518   33.0562   32.3093 C   0  0  0  0  0  0  0  0  0  0  0  0
   50.7492   33.3991   31.5342 H   0  0  0  0  0  0  0  0  0  0  0  0
   51.1213   33.1683   33.6451 C   0  0  0  0  0  0  0  0  0  0  0  0
   49.9018   33.7130   34.0417 N   0  0  0  0  0  0  0  0  0  0  0  0
   49.2694   34.0237   33.2729 H   0  0  0  0  0  0  0  0  0  0  0  0
  1  6  2  0
  1  2  1  0
  2  3  2  0
  3  4  1  0
  5  4  2  0
  6  5  1  0
  7  2  1  0
  9  7  1  1
  9  8  2  0
 10  9  1  0
 11  9  1  0
 12 13  2  0
 12 11  1  0
  1 14  1  0
  3 15  1  0
  5 16  1  0
 10 17  1  0
 18 19  2  0
 19 20  1  0
 19 21  1  0
 21 22  1  0
 21 23  2  0
 23 24  1  0
 24 25  2  0
 25 26  1  0
 24 27  1  0
 27 28  1  0
 28 29  2  0
 29 30  1  0
 29 31  1  0
 31 32  1  0
 31 33  2  0
 33 34  1  0
 33 35  1  0
 35 36  1  0
 35 37  2  0
 37 38  1  0
 38 39  1  0
 25 18  1  0
 37 28  1  0
 38 23  1  0
 12 18  1  0
M  ISO  8  14  14  15  14  16  14  17   3  20  16  22  16  26  16  30  16
M  ISO  4  32  16  34  16  36  16  39   5
M  END
>  <DihAtoms>  (1) 
12,11,17,18

>  <DihDeg>  (1) 
-0.2890424809283181

$$$$
