
     RDKit          3D

 36 39  0  0  0  0  0  0  0  0999 V2000
   44.5977   35.9289   44.4246 C   0  0  0  0  0  0  0  0  0  0  0  0
   45.3323   35.8560   43.2209 C   0  0  0  0  0  0  0  0  0  0  0  0
   46.2502   34.8187   43.1423 C   0  0  0  0  0  0  0  0  0  0  0  0
   46.3490   34.0025   44.1953 N   0  0  0  0  0  0  0  0  0  0  0  0
   45.6595   34.0639   45.3346 C   0  0  0  0  0  0  0  0  0  0  0  0
   44.7578   35.0646   45.4386 N   0  0  0  0  0  0  0  0  0  0  0  0
   47.0320   34.7212   41.9032 C   0  0  0  0  0  0  0  0  0  0  0  0
   47.8453   33.6009   41.9458 F   0  0  0  0  0  0  0  0  0  0  0  0
   47.9067   35.8213   41.9105 F   0  0  0  0  0  0  0  0  0  0  0  0
   46.2685   34.6836   40.7844 F   0  0  0  0  0  0  0  0  0  0  0  0
   45.8249   33.1509   46.4486 C   0  0  0  0  0  0  0  0  0  0  0  0
   45.0299   33.1856   47.4332 O   0  0  0  0  0  0  0  0  0  0  0  0
   43.8751   36.7327   44.5126 H   0  0  0  0  0  0  0  0  0  0  0  0
   45.2126   36.5419   42.4089 H   0  0  0  0  0  0  0  0  0  0  0  0
   46.8732   32.1473   46.5470 C   0  0  0  0  0  0  0  0  0  0  0  0
   46.6342   30.8111   46.3122 C   0  0  0  0  0  0  0  0  0  0  0  0
   45.6696   30.4165   46.0387 H   0  0  0  0  0  0  0  0  0  0  0  0
   47.6224   29.8449   46.3976 C   0  0  0  0  0  0  0  0  0  0  0  0
   47.3721   28.7886   46.2018 H   0  0  0  0  0  0  0  0  0  0  0  0
   48.9352   30.1668   46.7290 C   0  0  0  0  0  0  0  0  0  0  0  0
   49.1439   31.5066   46.9574 C   0  0  0  0  0  0  0  0  0  0  0  0
   48.1786   32.4417   46.8739 C   0  0  0  0  0  0  0  0  0  0  0  0
   48.3930   33.5026   47.0720 H   0  0  0  0  0  0  0  0  0  0  0  0
   50.7856   32.0493   47.3895 S   0  0  0  0  0  0  0  0  0  0  0  0
   51.7934   30.5812   47.3797 C   0  0  0  0  0  0  0  0  0  0  0  0
   53.1087   30.7548   47.6633 C   0  0  0  0  0  0  0  0  0  0  0  0
   53.5323   31.7292   47.8843 H   0  0  0  0  0  0  0  0  0  0  0  0
   53.9101   29.6167   47.6616 C   0  0  0  0  0  0  0  0  0  0  0  0
   54.9585   29.7186   47.8855 H   0  0  0  0  0  0  0  0  0  0  0  0
   53.4283   28.3468   47.3890 C   0  0  0  0  0  0  0  0  0  0  0  0
   54.0460   27.4717   47.3923 H   0  0  0  0  0  0  0  0  0  0  0  0
   52.0668   28.2658   47.1097 C   0  0  0  0  0  0  0  0  0  0  0  0
   51.7051   27.2484   46.8963 H   0  0  0  0  0  0  0  0  0  0  0  0
   51.2353   29.3644   47.0991 C   0  0  0  0  0  0  0  0  0  0  0  0
   49.8932   29.1410   46.7892 N   0  0  0  0  0  0  0  0  0  0  0  0
   49.5713   28.1696   46.5888 H   0  0  0  0  0  0  0  0  0  0  0  0
  1  6  2  0
  2  1  1  0
  3  2  2  0
  3  4  1  0
  4  5  2  0
  5  6  1  0
  5 11  1  0
  7  8  1  0
  7  3  1  0
  9  7  1  0
 10  7  1  0
 11 12  2  0
  1 13  1  0
  2 14  1  0
 15 16  2  0
 16 17  1  0
 16 18  1  0
 18 19  1  0
 18 20  2  0
 20 21  1  0
 21 22  2  0
 22 23  1  0
 21 24  1  0
 24 25  1  0
 25 26  2  0
 26 27  1  0
 26 28  1  0
 28 29  1  0
 28 30  2  0
 30 31  1  0
 30 32  1  0
 32 33  1  0
 32 34  2  0
 34 35  1  0
 35 36  1  0
 22 15  1  0
 34 25  1  0
 35 20  1  0
 11 15  1  0
M  ISO  8  13  14  14  14  17  16  19  16  23  16  27  16  29  16  31  16
M  ISO  2  33  16  36   5
M  END
>  <DihAtoms>  (1) 
4,10,14,15

>  <DihDeg>  (1) 
16.95244225262003

$$$$
