
     RDKit          3D

 39 42  0  0  0  0  0  0  0  0999 V2000
   46.1401   35.2814   42.6991 C   0  0  0  0  0  0  0  0  0  0  0  0
   46.6907   34.1860   43.3435 C   0  0  0  0  0  0  0  0  0  0  0  0
   46.2034   33.8369   44.6081 C   0  0  0  0  0  0  0  0  0  0  0  0
   45.2055   34.5988   45.1428 N   0  0  0  0  0  0  0  0  0  0  0  0
   44.6982   35.6484   44.4928 C   0  0  0  0  0  0  0  0  0  0  0  0
   45.1624   35.9803   43.2891 N   0  0  0  0  0  0  0  0  0  0  0  0
   47.7070   33.4826   42.6985 O   0  0  0  0  0  0  0  0  0  0  0  0
   49.5465   35.3639   42.7922 O   0  0  0  0  0  0  0  0  0  0  0  0
   48.9777   34.3051   41.9001 P   0  0  1  0  0  0  0  0  0  0  0  0
   50.2209   33.2458   41.5105 O   0  0  0  0  0  0  0  0  0  0  0  0
   48.4112   35.0206   40.5029 O   0  0  0  0  0  0  0  0  0  0  0  0
   48.0496   34.4070   39.3593 C   0  0  0  0  0  0  0  0  0  0  0  0
   46.9538   33.7322   39.5113 O   0  0  0  0  0  0  0  0  0  0  0  0
   46.4802   35.5993   41.7130 H   0  0  0  0  0  0  0  0  0  0  0  0
   46.6708   32.9878   45.0428 H   0  0  0  0  0  0  0  0  0  0  0  0
   43.9113   36.1594   45.0395 H   0  0  0  0  0  0  0  0  0  0  0  0
   51.0696   33.7056   41.3861 H   0  0  0  0  0  0  0  0  0  0  0  0
   48.4912   34.2435   37.9445 C   0  0  0  0  0  0  0  0  0  0  0  0
   49.7695   33.9898   37.6064 C   0  0  0  0  0  0  0  0  0  0  0  0
   50.5658   33.8884   38.3275 H   0  0  0  0  0  0  0  0  0  0  0  0
   50.0269   33.8599   36.2367 C   0  0  0  0  0  0  0  0  0  0  0  0
   51.0744   33.6542   35.9976 H   0  0  0  0  0  0  0  0  0  0  0  0
   49.0869   33.9714   35.2481 C   0  0  0  0  0  0  0  0  0  0  0  0
   47.7952   34.2303   35.6325 C   0  0  0  0  0  0  0  0  0  0  0  0
   47.5195   34.3599   36.9418 C   0  0  0  0  0  0  0  0  0  0  0  0
   46.4785   34.5676   37.2341 H   0  0  0  0  0  0  0  0  0  0  0  0
   46.5392   34.3833   34.3768 S   0  0  0  0  0  0  0  0  0  0  0  0
   47.3649   34.1389   32.8289 C   0  0  0  0  0  0  0  0  0  0  0  0
   46.5729   34.2168   31.7309 C   0  0  0  0  0  0  0  0  0  0  0  0
   45.5088   34.4123   31.7537 H   0  0  0  0  0  0  0  0  0  0  0  0
   47.1298   34.0383   30.4616 C   0  0  0  0  0  0  0  0  0  0  0  0
   46.5395   34.0912   29.5575 H   0  0  0  0  0  0  0  0  0  0  0  0
   48.4731   33.7874   30.3646 C   0  0  0  0  0  0  0  0  0  0  0  0
   48.9145   33.6480   29.3928 H   0  0  0  0  0  0  0  0  0  0  0  0
   49.1992   33.7256   31.5288 C   0  0  0  0  0  0  0  0  0  0  0  0
   50.2692   33.5208   31.3703 H   0  0  0  0  0  0  0  0  0  0  0  0
   48.7059   33.8930   32.8074 C   0  0  0  0  0  0  0  0  0  0  0  0
   49.5422   33.8078   33.9185 N   0  0  0  0  0  0  0  0  0  0  0  0
   50.5470   33.6124   33.7192 H   0  0  0  0  0  0  0  0  0  0  0  0
  1  6  2  0
  1  2  1  0
  2  3  2  0
  3  4  1  0
  5  4  2  0
  6  5  1  0
  7  2  1  0
  9  7  1  1
  9  8  2  0
 10  9  1  0
 11  9  1  0
 12 13  2  0
 12 11  1  0
  1 14  1  0
  3 15  1  0
  5 16  1  0
 10 17  1  0
 18 19  2  0
 19 20  1  0
 19 21  1  0
 21 22  1  0
 21 23  2  0
 23 24  1  0
 24 25  2  0
 25 26  1  0
 24 27  1  0
 27 28  1  0
 28 29  2  0
 29 30  1  0
 29 31  1  0
 31 32  1  0
 31 33  2  0
 33 34  1  0
 33 35  1  0
 35 36  1  0
 35 37  2  0
 37 38  1  0
 38 39  1  0
 25 18  1  0
 37 28  1  0
 38 23  1  0
 12 18  1  0
M  ISO  8  14  14  15  14  16  14  17   3  20  16  22  16  26  16  30  16
M  ISO  4  32  16  34  16  36  16  39   5
M  END
>  <DihAtoms>  (1) 
12,11,17,18

>  <DihDeg>  (1) 
-0.2890424809283181

$$$$
