
     RDKit          3D

 51 55  0  0  0  0  0  0  0  0999 V2000
   44.7667   34.4945   40.4557 C   0  0  0  0  0  0  0  0  0  0  0  0
   45.9209   34.1239   41.0009 N   0  0  0  0  0  0  0  0  0  0  0  0
   46.8350   33.1332   40.5558 C   0  0  0  0  0  0  0  0  0  0  0  0
   47.9052   34.0655   39.9362 C   0  0  0  0  0  0  0  0  0  0  0  0
   48.5068   34.9781   40.9099 C   0  0  0  0  0  0  0  0  0  0  0  0
   47.7585   35.3076   42.1228 C   0  0  0  0  0  0  0  0  0  0  0  0
   46.3272   34.8695   42.1974 C   0  0  0  0  0  0  0  0  0  0  0  0
   45.3027   35.2842   43.5751 S   0  0  0  0  0  0  0  0  0  0  0  0
   43.6405   33.5570   40.7688 C   0  0  0  0  0  0  0  0  0  0  0  0
   42.3755   34.3036   40.5442 C   0  0  0  0  0  0  0  0  0  0  0  0
   41.6297   34.1198   39.3970 C   0  0  0  0  0  0  0  0  0  0  0  0
   40.4579   34.8707   39.2615 C   0  0  0  0  0  0  0  0  0  0  0  0
   40.1091   35.7411   40.2585 N   0  0  0  0  0  0  0  0  0  0  0  0
   40.8819   35.8703   41.3489 C   0  0  0  0  0  0  0  0  0  0  0  0
   41.9864   35.1621   41.4762 N   0  0  0  0  0  0  0  0  0  0  0  0
   44.8416   34.5271   39.3442 H   0  0  0  0  0  0  0  0  0  0  0  0
   44.3630   35.5373   40.6718 H   0  0  0  0  0  0  0  0  0  0  0  0
   47.2393   32.4206   41.2504 H   0  0  0  0  0  0  0  0  0  0  0  0
   46.4054   32.5609   39.7037 H   0  0  0  0  0  0  0  0  0  0  0  0
   48.6597   33.4560   39.4083 H   0  0  0  0  0  0  0  0  0  0  0  0
   47.3660   34.6327   39.1480 H   0  0  0  0  0  0  0  0  0  0  0  0
   48.7453   35.9554   40.4019 H   0  0  0  0  0  0  0  0  0  0  0  0
   49.4997   34.5905   41.2322 H   0  0  0  0  0  0  0  0  0  0  0  0
   48.1088   35.8484   42.9621 H   0  0  0  0  0  0  0  0  0  0  0  0
   45.4605   34.2841   44.5622 H   0  0  0  0  0  0  0  0  0  0  0  0
   43.6615   32.6008   40.2266 H   0  0  0  0  0  0  0  0  0  0  0  0
   43.6979   33.3034   41.8605 H   0  0  0  0  0  0  0  0  0  0  0  0
   41.9345   33.4262   38.6335 H   0  0  0  0  0  0  0  0  0  0  0  0
   39.8938   34.7052   38.3513 H   0  0  0  0  0  0  0  0  0  0  0  0
   40.4751   36.8094   42.3892 C   0  0  0  0  0  0  0  0  0  0  0  0
   41.1037   38.0261   42.5582 C   0  0  0  0  0  0  0  0  0  0  0  0
   41.9188   38.3014   41.9099 H   0  0  0  0  0  0  0  0  0  0  0  0
   40.6602   38.8587   43.5651 C   0  0  0  0  0  0  0  0  0  0  0  0
   41.2073   39.8067   43.6382 H   0  0  0  0  0  0  0  0  0  0  0  0
   39.6245   38.5690   44.4290 C   0  0  0  0  0  0  0  0  0  0  0  0
   39.0299   37.3492   44.2231 C   0  0  0  0  0  0  0  0  0  0  0  0
   39.4344   36.4880   43.2369 C   0  0  0  0  0  0  0  0  0  0  0  0
   38.9312   35.5266   43.1098 H   0  0  0  0  0  0  0  0  0  0  0  0
   37.6923   36.8843   45.2784 S   0  0  0  0  0  0  0  0  0  0  0  0
   37.4450   38.2262   46.4247 C   0  0  0  0  0  0  0  0  0  0  0  0
   36.4507   38.0917   47.3496 C   0  0  0  0  0  0  0  0  0  0  0  0
   35.8394   37.2007   47.3800 H   0  0  0  0  0  0  0  0  0  0  0  0
   36.2211   39.1039   48.2581 C   0  0  0  0  0  0  0  0  0  0  0  0
   35.4386   39.0168   48.9987 H   0  0  0  0  0  0  0  0  0  0  0  0
   37.0123   40.2324   48.2025 C   0  0  0  0  0  0  0  0  0  0  0  0
   36.8550   41.0413   48.9019 H   0  0  0  0  0  0  0  0  0  0  0  0
   38.0010   40.3047   47.2419 C   0  0  0  0  0  0  0  0  0  0  0  0
   38.5922   41.2322   47.2564 H   0  0  0  0  0  0  0  0  0  0  0  0
   38.2668   39.3191   46.3140 C   0  0  0  0  0  0  0  0  0  0  0  0
   39.3049   39.5390   45.4012 N   0  0  0  0  0  0  0  0  0  0  0  0
   39.8446   40.4283   45.4429 H   0  0  0  0  0  0  0  0  0  0  0  0
  1  9  1  0
  1  2  1  0
  2  7  1  0
  3  2  1  0
  4  3  1  0
  4  5  1  0
  5  6  1  0
  6  7  2  0
  7  8  1  0
 10  9  1  0
 10 15  1  0
 11 10  2  0
 12 11  1  0
 12 13  2  0
 13 14  1  0
 14 15  2  0
  1 16  1  0
  1 17  1  0
  3 18  1  0
  3 19  1  0
  4 20  1  0
  4 21  1  0
  5 22  1  0
  5 23  1  0
  6 24  1  0
  8 25  1  0
  9 26  1  0
  9 27  1  0
 11 28  1  0
 12 29  1  0
 30 31  2  0
 31 32  1  0
 31 33  1  0
 33 34  1  0
 33 35  2  0
 35 36  1  0
 36 37  2  0
 37 38  1  0
 36 39  1  0
 39 40  1  0
 40 41  2  0
 41 42  1  0
 41 43  1  0
 43 44  1  0
 43 45  2  0
 45 46  1  0
 45 47  1  0
 47 48  1  0
 47 49  2  0
 49 50  1  0
 50 51  1  0
 37 30  1  0
 49 40  1  0
 50 35  1  0
 14 30  1  0
M  ISO  8  16   8  17   8  18  13  19  13  20  13  21  13  22  13  23  13
M  ISO  8  24  13  25  11  26   8  27   8  28  14  29  14  32  16  34  16
M  ISO  6  38  16  42  16  44  16  46  16  48  16  51   5
M  END
>  <DihAtoms>  (1) 
12,13,29,30

>  <DihDeg>  (1) 
-0.013783611652565348

$$$$
