
     RDKit          3D

 44 48  0  0  1  0  0  0  0  0999 V2000
   49.2680   34.0870   41.6530 C   0  0  1  0  0  0  0  0  0  0  0  0
   50.3940   33.5180   42.3610 C   0  0  0  0  0  0  0  0  0  0  0  0
   49.1460   32.7400   41.9560 C   0  0  1  0  0  0  0  0  0  0  0  0
   48.9360   31.6230   42.7990 C   0  0  0  0  0  0  0  0  0  0  0  0
   49.8580   30.5750   42.9670 C   0  0  0  0  0  0  0  0  0  0  0  0
   49.5580   29.5530   43.8350 C   0  0  0  0  0  0  0  0  0  0  0  0
   48.3700   29.5500   44.5340 C   0  0  0  0  0  0  0  0  0  0  0  0
   47.4410   30.5230   44.4210 C   0  0  0  0  0  0  0  0  0  0  0  0
   47.7590   31.5160   43.5620 C   0  0  0  0  0  0  0  0  0  0  0  0
   45.9450   30.4470   45.3510 S   0  0  0  0  0  0  0  0  0  0  0  0
   46.0470   28.9430   46.3130 C   0  0  0  0  0  0  0  0  0  0  0  0
   44.9600   28.7200   47.1050 C   0  0  0  0  0  0  0  0  0  0  0  0
   44.9450   27.5720   47.8930 C   0  0  0  0  0  0  0  0  0  0  0  0
   46.0230   26.7150   47.8410 C   0  0  0  0  0  0  0  0  0  0  0  0
   47.0580   27.0310   47.0160 C   0  0  0  0  0  0  0  0  0  0  0  0
   47.1600   28.1420   46.2010 C   0  0  0  0  0  0  0  0  0  0  0  0
   48.2570   28.4180   45.3690 N   0  0  0  0  0  0  0  0  0  0  0  0
   48.4220   35.1450   42.3090 C   0  0  0  0  0  0  0  0  0  0  0  0
   47.0260   34.7500   41.9460 C   0  0  0  0  0  0  0  0  0  0  0  0
   44.5330   36.2400   44.3240 C   0  0  0  0  0  0  0  0  0  0  0  0
   45.3320   36.0480   43.1700 C   0  0  0  0  0  0  0  0  0  0  0  0
   46.1430   34.9500   43.1310 C   0  0  0  0  0  0  0  0  0  0  0  0
   46.1540   34.0860   44.1870 N   0  0  0  0  0  0  0  0  0  0  0  0
   45.4020   34.2800   45.2560 C   0  0  0  0  0  0  0  0  0  0  0  0
   44.5950   35.3420   45.3360 N   0  0  0  0  0  0  0  0  0  0  0  0
   49.1618   34.6356   40.7055 H   0  0  0  0  0  0  0  0  0  0  0  0
   51.3526   33.3488   41.8488 H   0  0  0  0  0  0  0  0  0  0  0  0
   50.9458   33.7239   43.2900 H   0  0  0  0  0  0  0  0  0  0  0  0
   48.4577   32.1110   41.3723 H   0  0  0  0  0  0  0  0  0  0  0  0
   50.8071   30.5733   42.4109 H   0  0  0  0  0  0  0  0  0  0  0  0
   50.2732   28.7288   43.9735 H   0  0  0  0  0  0  0  0  0  0  0  0
   47.0216   32.3241   43.4474 H   0  0  0  0  0  0  0  0  0  0  0  0
   44.1179   29.4275   47.1211 H   0  0  0  0  0  0  0  0  0  0  0  0
   44.0873   27.3529   48.5459 H   0  0  0  0  0  0  0  0  0  0  0  0
   46.0462   25.7995   48.4504 H   0  0  0  0  0  0  0  0  0  0  0  0
   47.9032   26.3272   46.9958 H   0  0  0  0  0  0  0  0  0  0  0  0
   49.0365   27.7447   45.3681 H   0  0  0  0  0  0  0  0  0  0  0  0
   48.5612   35.1392   43.4001 H   0  0  0  0  0  0  0  0  0  0  0  0
   48.6784   36.1631   41.9809 H   0  0  0  0  0  0  0  0  0  0  0  0
   46.6711   35.3732   41.1119 H   0  0  0  0  0  0  0  0  0  0  0  0
   47.0055   33.6935   41.6404 H   0  0  0  0  0  0  0  0  0  0  0  0
   43.8669   37.1123   44.3976 H   0  0  0  0  0  0  0  0  0  0  0  0
   45.3002   36.7604   42.3324 H   0  0  0  0  0  0  0  0  0  0  0  0
   45.4406   33.5609   46.0875 H   0  0  0  0  0  0  0  0  0  0  0  0
  1  3  1  0
  1 18  1  0
  1  2  1  0
  3  2  1  0
  3  4  1  0
  4  5  2  0
  4  9  1  0
  5  6  1  0
  6  7  2  0
  7 17  1  0
  8  7  1  0
  8 10  1  0
  9  8  2  0
 10 11  1  0
 11 12  2  0
 12 13  1  0
 14 13  2  0
 15 14  1  0
 16 11  1  0
 16 15  2  0
 17 16  1  0
 19 18  1  0
 19 22  1  0
 20 25  2  0
 21 20  1  0
 22 21  2  0
 22 23  1  0
 23 24  2  0
 24 25  1  0
  1 26  1  6
  2 27  1  0
  2 28  1  0
  3 29  1  6
  5 30  1  0
  6 31  1  0
  9 32  1  0
 12 33  1  0
 13 34  1  0
 14 35  1  0
 15 36  1  0
 17 37  1  0
 18 38  1  0
 18 39  1  0
 19 40  1  0
 19 41  1  0
 20 42  1  0
 21 43  1  0
 24 44  1  0
M  ISO  8  26  13  27  13  28  13  29  13  30  14  31  14  32  14  33  14
M  ISO  8  34  14  35  14  36  14  38   8  39   8  40   8  41   8  42  14
M  ISO  2  43  14  44  14
M  END
>  <minimizedAffinity>  (1) 
-5.52800226

>  <minimizedRMSD>  (1) 
2.2580781

$$$$
