
     RDKit          3D

 36 39  0  0  0  0  0  0  0  0999 V2000
   44.5977   35.9289   44.4246 C   0  0  0  0  0  0  0  0  0  0  0  0
   45.3323   35.8560   43.2209 C   0  0  0  0  0  0  0  0  0  0  0  0
   46.2502   34.8187   43.1423 C   0  0  0  0  0  0  0  0  0  0  0  0
   46.3490   34.0025   44.1953 N   0  0  0  0  0  0  0  0  0  0  0  0
   45.6595   34.0639   45.3346 C   0  0  0  0  0  0  0  0  0  0  0  0
   44.7578   35.0646   45.4386 N   0  0  0  0  0  0  0  0  0  0  0  0
   47.0320   34.7212   41.9032 C   0  0  0  0  0  0  0  0  0  0  0  0
   47.8453   33.6009   41.9458 F   0  0  0  0  0  0  0  0  0  0  0  0
   47.9067   35.8213   41.9105 F   0  0  0  0  0  0  0  0  0  0  0  0
   46.2685   34.6836   40.7844 F   0  0  0  0  0  0  0  0  0  0  0  0
   45.8249   33.1509   46.4486 C   0  0  0  0  0  0  0  0  0  0  0  0
   45.0299   33.1856   47.4332 O   0  0  0  0  0  0  0  0  0  0  0  0
   43.8751   36.7327   44.5126 H   0  0  0  0  0  0  0  0  0  0  0  0
   45.2126   36.5419   42.4089 H   0  0  0  0  0  0  0  0  0  0  0  0
   46.8732   32.1473   46.5470 C   0  0  0  0  0  0  0  0  0  0  0  0
   47.6544   31.7940   45.4688 C   0  0  0  0  0  0  0  0  0  0  0  0
   47.5517   32.2305   44.4890 H   0  0  0  0  0  0  0  0  0  0  0  0
   48.6587   30.8440   45.5479 C   0  0  0  0  0  0  0  0  0  0  0  0
   49.2509   30.5990   44.6502 H   0  0  0  0  0  0  0  0  0  0  0  0
   48.9462   30.1791   46.7362 C   0  0  0  0  0  0  0  0  0  0  0  0
   48.1513   30.5519   47.7944 C   0  0  0  0  0  0  0  0  0  0  0  0
   47.1753   31.4758   47.7113 C   0  0  0  0  0  0  0  0  0  0  0  0
   46.5604   31.7367   48.5855 H   0  0  0  0  0  0  0  0  0  0  0  0
   48.4204   29.7734   49.3750 S   0  0  0  0  0  0  0  0  0  0  0  0
   49.7794   28.6491   49.1299 C   0  0  0  0  0  0  0  0  0  0  0  0
   50.1827   27.9491   50.2198 C   0  0  0  0  0  0  0  0  0  0  0  0
   49.7106   28.0614   51.1904 H   0  0  0  0  0  0  0  0  0  0  0  0
   51.2429   27.0643   50.0447 C   0  0  0  0  0  0  0  0  0  0  0  0
   51.5863   26.4906   50.8888 H   0  0  0  0  0  0  0  0  0  0  0  0
   51.8848   26.8760   48.8316 C   0  0  0  0  0  0  0  0  0  0  0  0
   52.6979   26.1915   48.6980 H   0  0  0  0  0  0  0  0  0  0  0  0
   51.4025   27.6366   47.7700 C   0  0  0  0  0  0  0  0  0  0  0  0
   51.9262   27.4715   46.8161 H   0  0  0  0  0  0  0  0  0  0  0  0
   50.3568   28.5250   47.8961 C   0  0  0  0  0  0  0  0  0  0  0  0
   49.9847   29.2330   46.7528 N   0  0  0  0  0  0  0  0  0  0  0  0
   50.4947   29.0626   45.8593 H   0  0  0  0  0  0  0  0  0  0  0  0
  1  6  2  0
  2  1  1  0
  3  2  2  0
  3  4  1  0
  4  5  2  0
  5  6  1  0
  5 11  1  0
  7  8  1  0
  7  3  1  0
  9  7  1  0
 10  7  1  0
 11 12  2  0
  1 13  1  0
  2 14  1  0
 15 16  2  0
 16 17  1  0
 16 18  1  0
 18 19  1  0
 18 20  2  0
 20 21  1  0
 21 22  2  0
 22 23  1  0
 21 24  1  0
 24 25  1  0
 25 26  2  0
 26 27  1  0
 26 28  1  0
 28 29  1  0
 28 30  2  0
 30 31  1  0
 30 32  1  0
 32 33  1  0
 32 34  2  0
 34 35  1  0
 35 36  1  0
 22 15  1  0
 34 25  1  0
 35 20  1  0
 11 15  1  0
M  ISO  8  13  14  14  14  17  16  19  16  23  16  27  16  29  16  31  16
M  ISO  2  33  16  36   5
M  END
>  <DihAtoms>  (1) 
4,10,14,15

>  <DihDeg>  (1) 
16.95244225262003

$$$$
