
     RDKit          3D

 40 44  0  0  0  0  0  0  0  0999 V2000
   45.3804   36.0756   43.1967 C   0  0  0  0  0  0  0  0  0  0  0  0
   46.1211   34.8786   43.0834 C   0  0  0  0  0  0  0  0  0  0  0  0
   46.0753   34.0399   44.1766 C   0  0  0  0  0  0  0  0  0  0  0  0
   45.3664   34.3464   45.2794 N   0  0  0  0  0  0  0  0  0  0  0  0
   44.6650   35.5069   45.3539 C   0  0  0  0  0  0  0  0  0  0  0  0
   44.6807   36.3634   44.3035 N   0  0  0  0  0  0  0  0  0  0  0  0
   46.7973   32.8516   44.1354 C   0  0  0  0  0  0  0  0  0  0  0  0
   47.7425   32.3282   43.2785 C   0  0  0  0  0  0  0  0  0  0  0  0
   48.2854   31.1393   43.4769 C   0  0  0  0  0  0  0  0  0  0  0  0
   47.8780   30.4221   44.5834 C   0  0  0  0  0  0  0  0  0  0  0  0
   46.6330   31.5664   45.3620 S   0  0  0  0  0  0  0  0  0  0  0  0
   46.8105   34.6349   41.8655 C   0  0  0  0  0  0  0  0  0  0  0  0
   47.8933   35.3226   41.6949 O   0  0  0  0  0  0  0  0  0  0  0  0
   45.3787   36.7743   42.3719 H   0  0  0  0  0  0  0  0  0  0  0  0
   44.1246   35.6581   46.2909 H   0  0  0  0  0  0  0  0  0  0  0  0
   48.2034   32.7494   42.4194 H   0  0  0  0  0  0  0  0  0  0  0  0
   49.0028   30.4864   43.0240 H   0  0  0  0  0  0  0  0  0  0  0  0
   48.0091   29.4956   45.1321 H   0  0  0  0  0  0  0  0  0  0  0  0
   46.2711   33.6423   40.8708 C   0  0  0  0  0  0  0  0  0  0  0  0
   45.0565   33.9780   40.3104 C   0  0  0  0  0  0  0  0  0  0  0  0
   44.5531   34.9149   40.5857 H   0  0  0  0  0  0  0  0  0  0  0  0
   44.4018   33.1906   39.4024 C   0  0  0  0  0  0  0  0  0  0  0  0
   43.4576   33.4974   38.9988 H   0  0  0  0  0  0  0  0  0  0  0  0
   45.0056   31.9810   39.0289 C   0  0  0  0  0  0  0  0  0  0  0  0
   46.2181   31.6429   39.5839 C   0  0  0  0  0  0  0  0  0  0  0  0
   46.8180   32.4698   40.4815 C   0  0  0  0  0  0  0  0  0  0  0  0
   47.7707   32.2737   40.9591 H   0  0  0  0  0  0  0  0  0  0  0  0
   47.0188   30.1205   39.1292 S   0  0  0  0  0  0  0  0  0  0  0  0
   45.8892   29.2738   38.0407 C   0  0  0  0  0  0  0  0  0  0  0  0
   46.1873   28.0373   37.5840 C   0  0  0  0  0  0  0  0  0  0  0  0
   47.1397   27.5918   37.9051 H   0  0  0  0  0  0  0  0  0  0  0  0
   45.3771   27.3163   36.7425 C   0  0  0  0  0  0  0  0  0  0  0  0
   45.6819   26.3361   36.4164 H   0  0  0  0  0  0  0  0  0  0  0  0
   44.1818   27.9510   36.3692 C   0  0  0  0  0  0  0  0  0  0  0  0
   43.5233   27.4127   35.7088 H   0  0  0  0  0  0  0  0  0  0  0  0
   43.8881   29.2210   36.8444 C   0  0  0  0  0  0  0  0  0  0  0  0
   42.9506   29.6017   36.4931 H   0  0  0  0  0  0  0  0  0  0  0  0
   44.7594   29.9282   37.7137 C   0  0  0  0  0  0  0  0  0  0  0  0
   44.2928   31.1721   38.1292 N   0  0  0  0  0  0  0  0  0  0  0  0
   43.3658   31.5330   37.7558 H   0  0  0  0  0  0  0  0  0  0  0  0
  1  6  2  0
  2  1  1  0
  2  3  2  0
  3  4  1  0
  4  5  2  0
  6  5  1  0
  7  3  1  0
  7 11  1  0
  8  9  1  0
  8  7  2  0
  9 10  2  0
 10 11  1  0
 12  2  1  0
 13 12  2  0
  1 14  1  0
  5 15  1  0
  8 16  1  0
  9 17  1  0
 10 18  1  0
 19 20  2  0
 20 21  1  0
 20 22  1  0
 22 23  1  0
 22 24  2  0
 24 25  1  0
 25 26  2  0
 26 27  1  0
 25 28  1  0
 28 29  1  0
 29 30  2  0
 30 31  1  0
 30 32  1  0
 32 33  1  0
 32 34  2  0
 34 35  1  0
 34 36  1  0
 36 37  1  0
 36 38  2  0
 38 39  1  0
 39 40  1  0
 26 19  1  0
 38 29  1  0
 39 24  1  0
 12 19  1  0
M  ISO  8  14  14  15  14  16  14  17  14  18  14  21  16  23  16  27  16
M  ISO  5  31  16  33  16  35  16  37  16  40   5
M  END
>  <DihAtoms>  (1) 
1,11,18,19

>  <DihDeg>  (1) 
19.611279885680464

$$$$
