
     RDKit          3D

 39 42  0  0  0  0  0  0  0  0999 V2000
   46.1401   35.2814   42.6991 C   0  0  0  0  0  0  0  0  0  0  0  0
   46.6907   34.1860   43.3435 C   0  0  0  0  0  0  0  0  0  0  0  0
   46.2034   33.8369   44.6081 C   0  0  0  0  0  0  0  0  0  0  0  0
   45.2055   34.5988   45.1428 N   0  0  0  0  0  0  0  0  0  0  0  0
   44.6982   35.6484   44.4928 C   0  0  0  0  0  0  0  0  0  0  0  0
   45.1624   35.9803   43.2891 N   0  0  0  0  0  0  0  0  0  0  0  0
   47.7070   33.4826   42.6985 O   0  0  0  0  0  0  0  0  0  0  0  0
   49.5465   35.3639   42.7922 O   0  0  0  0  0  0  0  0  0  0  0  0
   48.9777   34.3051   41.9001 P   0  0  1  0  0  0  0  0  0  0  0  0
   50.2209   33.2458   41.5105 O   0  0  0  0  0  0  0  0  0  0  0  0
   48.4112   35.0206   40.5029 O   0  0  0  0  0  0  0  0  0  0  0  0
   48.0496   34.4070   39.3593 C   0  0  0  0  0  0  0  0  0  0  0  0
   46.9538   33.7322   39.5113 O   0  0  0  0  0  0  0  0  0  0  0  0
   46.4802   35.5993   41.7130 H   0  0  0  0  0  0  0  0  0  0  0  0
   46.6708   32.9878   45.0428 H   0  0  0  0  0  0  0  0  0  0  0  0
   43.9113   36.1594   45.0395 H   0  0  0  0  0  0  0  0  0  0  0  0
   51.0696   33.7056   41.3861 H   0  0  0  0  0  0  0  0  0  0  0  0
   48.4912   34.2435   37.9445 C   0  0  0  0  0  0  0  0  0  0  0  0
   48.0990   35.0736   36.9597 C   0  0  0  0  0  0  0  0  0  0  0  0
   47.4388   35.9124   37.1176 H   0  0  0  0  0  0  0  0  0  0  0  0
   48.6007   34.7911   35.6839 C   0  0  0  0  0  0  0  0  0  0  0  0
   48.2623   35.4845   34.9084 H   0  0  0  0  0  0  0  0  0  0  0  0
   49.4412   33.7534   35.3839 C   0  0  0  0  0  0  0  0  0  0  0  0
   49.8185   32.9294   36.4144 C   0  0  0  0  0  0  0  0  0  0  0  0
   49.3515   33.1774   37.6502 C   0  0  0  0  0  0  0  0  0  0  0  0
   49.6633   32.5073   38.4663 H   0  0  0  0  0  0  0  0  0  0  0  0
   50.9125   31.5653   36.0675 S   0  0  0  0  0  0  0  0  0  0  0  0
   51.2522   31.6423   34.3308 C   0  0  0  0  0  0  0  0  0  0  0  0
   52.0787   30.6764   33.8586 C   0  0  0  0  0  0  0  0  0  0  0  0
   52.5206   29.8960   34.4642 H   0  0  0  0  0  0  0  0  0  0  0  0
   52.4084   30.6505   32.5007 C   0  0  0  0  0  0  0  0  0  0  0  0
   53.0626   29.9009   32.0778 H   0  0  0  0  0  0  0  0  0  0  0  0
   51.8810   31.6119   31.6797 C   0  0  0  0  0  0  0  0  0  0  0  0
   52.1270   31.6033   30.6318 H   0  0  0  0  0  0  0  0  0  0  0  0
   51.0530   32.5519   32.2431 C   0  0  0  0  0  0  0  0  0  0  0  0
   50.6691   33.2897   31.5218 H   0  0  0  0  0  0  0  0  0  0  0  0
   50.6920   32.6282   33.5735 C   0  0  0  0  0  0  0  0  0  0  0  0
   49.8410   33.6314   34.0321 N   0  0  0  0  0  0  0  0  0  0  0  0
   49.5030   34.3068   33.3131 H   0  0  0  0  0  0  0  0  0  0  0  0
  1  6  2  0
  1  2  1  0
  2  3  2  0
  3  4  1  0
  5  4  2  0
  6  5  1  0
  7  2  1  0
  9  7  1  1
  9  8  2  0
 10  9  1  0
 11  9  1  0
 12 13  2  0
 12 11  1  0
  1 14  1  0
  3 15  1  0
  5 16  1  0
 10 17  1  0
 18 19  2  0
 19 20  1  0
 19 21  1  0
 21 22  1  0
 21 23  2  0
 23 24  1  0
 24 25  2  0
 25 26  1  0
 24 27  1  0
 27 28  1  0
 28 29  2  0
 29 30  1  0
 29 31  1  0
 31 32  1  0
 31 33  2  0
 33 34  1  0
 33 35  1  0
 35 36  1  0
 35 37  2  0
 37 38  1  0
 38 39  1  0
 25 18  1  0
 37 28  1  0
 38 23  1  0
 12 18  1  0
M  ISO  8  14  14  15  14  16  14  17   3  20  16  22  16  26  16  30  16
M  ISO  4  32  16  34  16  36  16  39   5
M  END
>  <DihAtoms>  (1) 
12,11,17,18

>  <DihDeg>  (1) 
-0.2890424809283181

$$$$
