
     RDKit          3D

 36 39  0  0  0  0  0  0  0  0999 V2000
   44.5977   35.9289   44.4246 C   0  0  0  0  0  0  0  0  0  0  0  0
   45.3323   35.8560   43.2209 C   0  0  0  0  0  0  0  0  0  0  0  0
   46.2502   34.8187   43.1423 C   0  0  0  0  0  0  0  0  0  0  0  0
   46.3490   34.0025   44.1953 N   0  0  0  0  0  0  0  0  0  0  0  0
   45.6595   34.0639   45.3346 C   0  0  0  0  0  0  0  0  0  0  0  0
   44.7578   35.0646   45.4386 N   0  0  0  0  0  0  0  0  0  0  0  0
   47.0320   34.7212   41.9032 C   0  0  0  0  0  0  0  0  0  0  0  0
   47.8453   33.6009   41.9458 F   0  0  0  0  0  0  0  0  0  0  0  0
   47.9067   35.8213   41.9105 F   0  0  0  0  0  0  0  0  0  0  0  0
   46.2685   34.6836   40.7844 F   0  0  0  0  0  0  0  0  0  0  0  0
   45.8249   33.1509   46.4486 C   0  0  0  0  0  0  0  0  0  0  0  0
   45.0299   33.1856   47.4332 O   0  0  0  0  0  0  0  0  0  0  0  0
   43.8751   36.7327   44.5126 H   0  0  0  0  0  0  0  0  0  0  0  0
   45.2126   36.5419   42.4089 H   0  0  0  0  0  0  0  0  0  0  0  0
   46.8732   32.1473   46.5470 C   0  0  0  0  0  0  0  0  0  0  0  0
   47.5674   31.9234   47.7156 C   0  0  0  0  0  0  0  0  0  0  0  0
   47.3859   32.4634   48.6303 H   0  0  0  0  0  0  0  0  0  0  0  0
   48.5645   30.9690   47.8260 C   0  0  0  0  0  0  0  0  0  0  0  0
   49.0893   30.8358   48.7870 H   0  0  0  0  0  0  0  0  0  0  0  0
   48.9318   30.1655   46.7507 C   0  0  0  0  0  0  0  0  0  0  0  0
   48.2225   30.4109   45.5986 C   0  0  0  0  0  0  0  0  0  0  0  0
   47.2544   31.3414   45.4968 C   0  0  0  0  0  0  0  0  0  0  0  0
   46.7180   31.5057   44.5504 H   0  0  0  0  0  0  0  0  0  0  0  0
   48.5974   29.4458   44.1479 S   0  0  0  0  0  0  0  0  0  0  0  0
   49.8811   28.3154   44.6433 C   0  0  0  0  0  0  0  0  0  0  0  0
   50.3191   27.4517   43.6933 C   0  0  0  0  0  0  0  0  0  0  0  0
   49.9158   27.4420   42.6858 H   0  0  0  0  0  0  0  0  0  0  0  0
   51.3238   26.5624   44.0639 C   0  0  0  0  0  0  0  0  0  0  0  0
   51.6966   25.8649   43.3329 H   0  0  0  0  0  0  0  0  0  0  0  0
   51.8792   26.5272   45.3324 C   0  0  0  0  0  0  0  0  0  0  0  0
   52.6553   25.8447   45.6144 H   0  0  0  0  0  0  0  0  0  0  0  0
   51.3677   27.4503   46.2403 C   0  0  0  0  0  0  0  0  0  0  0  0
   51.8228   27.4052   47.2415 H   0  0  0  0  0  0  0  0  0  0  0  0
   50.3734   28.3485   45.9190 C   0  0  0  0  0  0  0  0  0  0  0  0
   49.9446   29.2086   46.9307 N   0  0  0  0  0  0  0  0  0  0  0  0
   50.3880   29.1485   47.8726 H   0  0  0  0  0  0  0  0  0  0  0  0
  1  6  2  0
  2  1  1  0
  3  2  2  0
  3  4  1  0
  4  5  2  0
  5  6  1  0
  5 11  1  0
  7  8  1  0
  7  3  1  0
  9  7  1  0
 10  7  1  0
 11 12  2  0
  1 13  1  0
  2 14  1  0
 15 16  2  0
 16 17  1  0
 16 18  1  0
 18 19  1  0
 18 20  2  0
 20 21  1  0
 21 22  2  0
 22 23  1  0
 21 24  1  0
 24 25  1  0
 25 26  2  0
 26 27  1  0
 26 28  1  0
 28 29  1  0
 28 30  2  0
 30 31  1  0
 30 32  1  0
 32 33  1  0
 32 34  2  0
 34 35  1  0
 35 36  1  0
 22 15  1  0
 34 25  1  0
 35 20  1  0
 11 15  1  0
M  ISO  8  13  14  14  14  17  16  19  16  23  16  27  16  29  16  31  16
M  ISO  2  33  16  36   5
M  END
>  <DihAtoms>  (1) 
4,10,14,15

>  <DihDeg>  (1) 
16.95244225262003

$$$$
