
     RDKit          3D

 40 44  0  0  0  0  0  0  0  0999 V2000
   45.3804   36.0756   43.1967 C   0  0  0  0  0  0  0  0  0  0  0  0
   46.1211   34.8786   43.0834 C   0  0  0  0  0  0  0  0  0  0  0  0
   46.0753   34.0399   44.1766 C   0  0  0  0  0  0  0  0  0  0  0  0
   45.3664   34.3464   45.2794 N   0  0  0  0  0  0  0  0  0  0  0  0
   44.6650   35.5069   45.3539 C   0  0  0  0  0  0  0  0  0  0  0  0
   44.6807   36.3634   44.3035 N   0  0  0  0  0  0  0  0  0  0  0  0
   46.7973   32.8516   44.1354 C   0  0  0  0  0  0  0  0  0  0  0  0
   47.7425   32.3282   43.2785 C   0  0  0  0  0  0  0  0  0  0  0  0
   48.2854   31.1393   43.4769 C   0  0  0  0  0  0  0  0  0  0  0  0
   47.8780   30.4221   44.5834 C   0  0  0  0  0  0  0  0  0  0  0  0
   46.6330   31.5664   45.3620 S   0  0  0  0  0  0  0  0  0  0  0  0
   46.8105   34.6349   41.8655 C   0  0  0  0  0  0  0  0  0  0  0  0
   47.8933   35.3226   41.6949 O   0  0  0  0  0  0  0  0  0  0  0  0
   45.3787   36.7743   42.3719 H   0  0  0  0  0  0  0  0  0  0  0  0
   44.1246   35.6581   46.2909 H   0  0  0  0  0  0  0  0  0  0  0  0
   48.2034   32.7494   42.4194 H   0  0  0  0  0  0  0  0  0  0  0  0
   49.0028   30.4864   43.0240 H   0  0  0  0  0  0  0  0  0  0  0  0
   48.0091   29.4956   45.1321 H   0  0  0  0  0  0  0  0  0  0  0  0
   46.2711   33.6423   40.8708 C   0  0  0  0  0  0  0  0  0  0  0  0
   46.6531   33.8588   39.5634 C   0  0  0  0  0  0  0  0  0  0  0  0
   47.3127   34.6986   39.3051 H   0  0  0  0  0  0  0  0  0  0  0  0
   46.2464   33.0733   38.5192 C   0  0  0  0  0  0  0  0  0  0  0  0
   46.5710   33.2870   37.5204 H   0  0  0  0  0  0  0  0  0  0  0  0
   45.3966   31.9944   38.8035 C   0  0  0  0  0  0  0  0  0  0  0  0
   45.0144   31.7733   40.1065 C   0  0  0  0  0  0  0  0  0  0  0  0
   45.4539   32.5911   41.1002 C   0  0  0  0  0  0  0  0  0  0  0  0
   45.1985   32.4807   42.1474 H   0  0  0  0  0  0  0  0  0  0  0  0
   43.9436   30.4103   40.5076 S   0  0  0  0  0  0  0  0  0  0  0  0
   43.4989   29.6572   38.9543 C   0  0  0  0  0  0  0  0  0  0  0  0
   42.6208   28.6302   38.9263 C   0  0  0  0  0  0  0  0  0  0  0  0
   42.2078   28.2872   39.8856 H   0  0  0  0  0  0  0  0  0  0  0  0
   42.2256   27.9923   37.7768 C   0  0  0  0  0  0  0  0  0  0  0  0
   41.5232   27.1778   37.8318 H   0  0  0  0  0  0  0  0  0  0  0  0
   42.7993   28.4794   36.5916 C   0  0  0  0  0  0  0  0  0  0  0  0
   42.5109   28.0004   35.6714 H   0  0  0  0  0  0  0  0  0  0  0  0
   43.7002   29.5337   36.6343 C   0  0  0  0  0  0  0  0  0  0  0  0
   44.0698   29.8182   35.6701 H   0  0  0  0  0  0  0  0  0  0  0  0
   44.0791   30.1617   37.8495 C   0  0  0  0  0  0  0  0  0  0  0  0
   44.9595   31.2307   37.7092 N   0  0  0  0  0  0  0  0  0  0  0  0
   45.3221   31.4847   36.7432 H   0  0  0  0  0  0  0  0  0  0  0  0
  1  6  2  0
  2  1  1  0
  2  3  2  0
  3  4  1  0
  4  5  2  0
  6  5  1  0
  7  3  1  0
  7 11  1  0
  8  9  1  0
  8  7  2  0
  9 10  2  0
 10 11  1  0
 12  2  1  0
 13 12  2  0
  1 14  1  0
  5 15  1  0
  8 16  1  0
  9 17  1  0
 10 18  1  0
 19 20  2  0
 20 21  1  0
 20 22  1  0
 22 23  1  0
 22 24  2  0
 24 25  1  0
 25 26  2  0
 26 27  1  0
 25 28  1  0
 28 29  1  0
 29 30  2  0
 30 31  1  0
 30 32  1  0
 32 33  1  0
 32 34  2  0
 34 35  1  0
 34 36  1  0
 36 37  1  0
 36 38  2  0
 38 39  1  0
 39 40  1  0
 26 19  1  0
 38 29  1  0
 39 24  1  0
 12 19  1  0
M  ISO  8  14  14  15  14  16  14  17  14  18  14  21  16  23  16  27  16
M  ISO  5  31  16  33  16  35  16  37  16  40   5
M  END
>  <DihAtoms>  (1) 
1,11,18,19

>  <DihDeg>  (1) 
19.611279885680464

$$$$
