
     RDKit          3D

 36 39  0  0  0  0  0  0  0  0999 V2000
   44.5977   35.9289   44.4246 C   0  0  0  0  0  0  0  0  0  0  0  0
   45.3323   35.8560   43.2209 C   0  0  0  0  0  0  0  0  0  0  0  0
   46.2502   34.8187   43.1423 C   0  0  0  0  0  0  0  0  0  0  0  0
   46.3490   34.0025   44.1953 N   0  0  0  0  0  0  0  0  0  0  0  0
   45.6595   34.0639   45.3346 C   0  0  0  0  0  0  0  0  0  0  0  0
   44.7578   35.0646   45.4386 N   0  0  0  0  0  0  0  0  0  0  0  0
   47.0320   34.7212   41.9032 C   0  0  0  0  0  0  0  0  0  0  0  0
   47.8453   33.6009   41.9458 F   0  0  0  0  0  0  0  0  0  0  0  0
   47.9067   35.8213   41.9105 F   0  0  0  0  0  0  0  0  0  0  0  0
   46.2685   34.6836   40.7844 F   0  0  0  0  0  0  0  0  0  0  0  0
   45.8249   33.1509   46.4486 C   0  0  0  0  0  0  0  0  0  0  0  0
   45.0299   33.1856   47.4332 O   0  0  0  0  0  0  0  0  0  0  0  0
   43.8751   36.7327   44.5126 H   0  0  0  0  0  0  0  0  0  0  0  0
   45.2126   36.5419   42.4089 H   0  0  0  0  0  0  0  0  0  0  0  0
   46.8732   32.1473   46.5470 C   0  0  0  0  0  0  0  0  0  0  0  0
   48.1932   32.4362   46.2790 C   0  0  0  0  0  0  0  0  0  0  0  0
   48.5426   33.4123   45.9852 H   0  0  0  0  0  0  0  0  0  0  0  0
   49.2026   31.4930   46.3726 C   0  0  0  0  0  0  0  0  0  0  0  0
   50.2423   31.7809   46.1427 H   0  0  0  0  0  0  0  0  0  0  0  0
   48.9443   30.1783   46.7487 C   0  0  0  0  0  0  0  0  0  0  0  0
   47.6194   29.9193   47.0099 C   0  0  0  0  0  0  0  0  0  0  0  0
   46.6417   30.8405   46.9162 C   0  0  0  0  0  0  0  0  0  0  0  0
   45.5933   30.5839   47.1297 H   0  0  0  0  0  0  0  0  0  0  0  0
   47.1570   28.2703   47.5034 S   0  0  0  0  0  0  0  0  0  0  0  0
   48.6754   27.3410   47.5500 C   0  0  0  0  0  0  0  0  0  0  0  0
   48.5721   26.0420   47.9277 C   0  0  0  0  0  0  0  0  0  0  0  0
   47.6226   25.5862   48.1891 H   0  0  0  0  0  0  0  0  0  0  0  0
   49.7497   25.3009   47.9675 C   0  0  0  0  0  0  0  0  0  0  0  0
   49.7030   24.2657   48.2604 H   0  0  0  0  0  0  0  0  0  0  0  0
   50.9904   25.8255   47.6442 C   0  0  0  0  0  0  0  0  0  0  0  0
   51.8950   25.2522   47.6716 H   0  0  0  0  0  0  0  0  0  0  0  0
   50.9988   27.1658   47.2681 C   0  0  0  0  0  0  0  0  0  0  0  0
   51.9941   27.5620   47.0154 H   0  0  0  0  0  0  0  0  0  0  0  0
   49.8592   27.9384   47.2148 C   0  0  0  0  0  0  0  0  0  0  0  0
   50.0143   29.2720   46.8345 N   0  0  0  0  0  0  0  0  0  0  0  0
   50.9662   29.6278   46.6005 H   0  0  0  0  0  0  0  0  0  0  0  0
  1  6  2  0
  2  1  1  0
  3  2  2  0
  3  4  1  0
  4  5  2  0
  5  6  1  0
  5 11  1  0
  7  8  1  0
  7  3  1  0
  9  7  1  0
 10  7  1  0
 11 12  2  0
  1 13  1  0
  2 14  1  0
 15 16  2  0
 16 17  1  0
 16 18  1  0
 18 19  1  0
 18 20  2  0
 20 21  1  0
 21 22  2  0
 22 23  1  0
 21 24  1  0
 24 25  1  0
 25 26  2  0
 26 27  1  0
 26 28  1  0
 28 29  1  0
 28 30  2  0
 30 31  1  0
 30 32  1  0
 32 33  1  0
 32 34  2  0
 34 35  1  0
 35 36  1  0
 22 15  1  0
 34 25  1  0
 35 20  1  0
 11 15  1  0
M  ISO  8  13  14  14  14  17  16  19  16  23  16  27  16  29  16  31  16
M  ISO  2  33  16  36   5
M  END
>  <DihAtoms>  (1) 
4,10,14,15

>  <DihDeg>  (1) 
16.95244225262003

$$$$
