
     RDKit          3D

 41 44  0  0  0  0  0  0  0  0999 V2000
   46.5267   34.2646   43.0725 C   0  0  0  0  0  0  0  0  0  0  0  0
   47.3840   33.3650   43.6974 C   0  0  0  0  0  0  0  0  0  0  0  0
   47.1342   33.0379   45.0413 C   0  0  0  0  0  0  0  0  0  0  0  0
   46.0806   33.6066   45.6635 N   0  0  0  0  0  0  0  0  0  0  0  0
   45.2781   34.4643   45.0382 C   0  0  0  0  0  0  0  0  0  0  0  0
   45.4998   34.8015   43.7240 N   0  0  0  0  0  0  0  0  0  0  0  0
   45.4949   34.2428   40.8216 C   0  0  0  0  0  0  0  0  0  0  0  0
   44.9512   33.0980   40.9716 O   0  0  0  0  0  0  0  0  0  0  0  0
   46.3120   34.9123   41.8220 N   0  0  0  0  0  0  0  0  0  0  0  0
   48.4209   32.8622   42.9377 O   0  0  0  0  0  0  0  0  0  0  0  0
   50.9089   33.0818   42.0836 O   0  0  0  0  0  0  0  0  0  0  0  0
   49.6594   33.8881   42.3222 P   0  0  1  0  0  0  0  0  0  0  0  0
   49.1811   34.5088   40.8263 O   0  0  0  0  0  0  0  0  0  0  0  0
   49.9803   35.1423   43.3831 O   0  0  0  0  0  0  0  0  0  0  0  0
   47.8257   32.3302   45.4990 H   0  0  0  0  0  0  0  0  0  0  0  0
   44.4261   34.9453   45.4865 H   0  0  0  0  0  0  0  0  0  0  0  0
   45.2534   34.6401   39.8321 H   0  0  0  0  0  0  0  0  0  0  0  0
   46.6825   35.8332   41.5350 H   0  0  0  0  0  0  0  0  0  0  0  0
   49.4478   35.4557   40.7089 H   0  0  0  0  0  0  0  0  0  0  0  0
   51.2269   35.7007   43.6297 C   0  0  0  0  0  0  0  0  0  0  0  0
   51.5927   36.9303   43.1168 C   0  0  0  0  0  0  0  0  0  0  0  0
   50.9136   37.4985   42.5035 H   0  0  0  0  0  0  0  0  0  0  0  0
   52.8077   37.5203   43.3320 C   0  0  0  0  0  0  0  0  0  0  0  0
   53.0636   38.4891   42.9137 H   0  0  0  0  0  0  0  0  0  0  0  0
   53.7527   36.8771   44.1046 C   0  0  0  0  0  0  0  0  0  0  0  0
   53.3738   35.6505   44.6101 C   0  0  0  0  0  0  0  0  0  0  0  0
   52.1701   35.0435   44.4092 C   0  0  0  0  0  0  0  0  0  0  0  0
   51.9045   34.0868   44.8166 H   0  0  0  0  0  0  0  0  0  0  0  0
   54.5356   34.7449   45.6229 S   0  0  0  0  0  0  0  0  0  0  0  0
   56.0061   35.7483   45.7246 C   0  0  0  0  0  0  0  0  0  0  0  0
   57.0265   35.2117   46.4721 C   0  0  0  0  0  0  0  0  0  0  0  0
   57.0422   34.2751   46.9934 H   0  0  0  0  0  0  0  0  0  0  0  0
   58.1980   35.9581   46.5822 C   0  0  0  0  0  0  0  0  0  0  0  0
   59.0572   35.6157   47.1515 H   0  0  0  0  0  0  0  0  0  0  0  0
   58.3120   37.1821   45.9607 C   0  0  0  0  0  0  0  0  0  0  0  0
   59.2128   37.7611   46.0426 H   0  0  0  0  0  0  0  0  0  0  0  0
   57.2741   37.7005   45.2154 C   0  0  0  0  0  0  0  0  0  0  0  0
   57.3073   38.6670   44.6993 H   0  0  0  0  0  0  0  0  0  0  0  0
   56.1083   36.9726   45.0977 C   0  0  0  0  0  0  0  0  0  0  0  0
   55.0199   37.4799   44.3361 N   0  0  0  0  0  0  0  0  0  0  0  0
   55.1712   38.4197   43.8871 H   0  0  0  0  0  0  0  0  0  0  0  0
  1  2  2  0
  1  6  1  0
  2  3  1  0
  3  4  2  0
  5  4  1  0
  6  5  2  0
  7  8  2  0
  7  9  1  0
  9  1  1  0
 10  2  1  0
 11 12  2  0
 12 10  1  1
 12 14  1  0
 13 12  1  0
  3 15  1  0
  5 16  1  0
  7 17  1  0
  9 18  1  0
 13 19  1  0
 20 21  2  0
 21 22  1  0
 21 23  1  0
 23 24  1  0
 23 25  2  0
 25 26  1  0
 26 27  2  0
 27 28  1  0
 26 29  1  0
 29 30  1  0
 30 31  2  0
 31 32  1  0
 31 33  1  0
 33 34  1  0
 33 35  2  0
 35 36  1  0
 35 37  1  0
 37 38  1  0
 37 39  2  0
 39 40  1  0
 40 41  1  0
 27 20  1  0
 39 30  1  0
 40 25  1  0
 14 20  1  0
M  ISO  8  15  14  16  14  17   6  19   3  22  16  24  16  28  16  32  16
M  ISO  4  34  16  36  16  38  16  41   5
M  END
>  <DihAtoms>  (1) 
11,13,19,20

>  <DihDeg>  (1) 
-45.52554362615872

$$$$
