
     RDKit          3D

 41 44  0  0  0  0  0  0  0  0999 V2000
   46.5267   34.2646   43.0725 C   0  0  0  0  0  0  0  0  0  0  0  0
   47.3840   33.3650   43.6974 C   0  0  0  0  0  0  0  0  0  0  0  0
   47.1342   33.0379   45.0413 C   0  0  0  0  0  0  0  0  0  0  0  0
   46.0806   33.6066   45.6635 N   0  0  0  0  0  0  0  0  0  0  0  0
   45.2781   34.4643   45.0382 C   0  0  0  0  0  0  0  0  0  0  0  0
   45.4998   34.8015   43.7240 N   0  0  0  0  0  0  0  0  0  0  0  0
   45.4949   34.2428   40.8216 C   0  0  0  0  0  0  0  0  0  0  0  0
   44.9512   33.0980   40.9716 O   0  0  0  0  0  0  0  0  0  0  0  0
   46.3120   34.9123   41.8220 N   0  0  0  0  0  0  0  0  0  0  0  0
   48.4209   32.8622   42.9377 O   0  0  0  0  0  0  0  0  0  0  0  0
   50.9089   33.0818   42.0836 O   0  0  0  0  0  0  0  0  0  0  0  0
   49.6594   33.8881   42.3222 P   0  0  1  0  0  0  0  0  0  0  0  0
   49.1811   34.5088   40.8263 O   0  0  0  0  0  0  0  0  0  0  0  0
   49.9803   35.1423   43.3831 O   0  0  0  0  0  0  0  0  0  0  0  0
   47.8257   32.3302   45.4990 H   0  0  0  0  0  0  0  0  0  0  0  0
   44.4261   34.9453   45.4865 H   0  0  0  0  0  0  0  0  0  0  0  0
   45.2534   34.6401   39.8321 H   0  0  0  0  0  0  0  0  0  0  0  0
   46.6825   35.8332   41.5350 H   0  0  0  0  0  0  0  0  0  0  0  0
   49.4478   35.4557   40.7089 H   0  0  0  0  0  0  0  0  0  0  0  0
   51.2269   35.7007   43.6297 C   0  0  0  0  0  0  0  0  0  0  0  0
   51.3778   37.0281   43.9820 C   0  0  0  0  0  0  0  0  0  0  0  0
   50.5228   37.6763   44.0768 H   0  0  0  0  0  0  0  0  0  0  0  0
   52.5835   37.6222   44.2343 C   0  0  0  0  0  0  0  0  0  0  0  0
   52.6672   38.6694   44.5093 H   0  0  0  0  0  0  0  0  0  0  0  0
   53.7436   36.8812   44.1411 C   0  0  0  0  0  0  0  0  0  0  0  0
   53.5779   35.5577   43.7887 C   0  0  0  0  0  0  0  0  0  0  0  0
   52.3878   34.9444   43.5327 C   0  0  0  0  0  0  0  0  0  0  0  0
   52.2911   33.9109   43.2601 H   0  0  0  0  0  0  0  0  0  0  0  0
   55.0272   34.5213   43.6439 S   0  0  0  0  0  0  0  0  0  0  0  0
   56.4283   35.5563   44.0254 C   0  0  0  0  0  0  0  0  0  0  0  0
   57.6491   34.9285   43.9663 C   0  0  0  0  0  0  0  0  0  0  0  0
   57.8551   33.9053   43.7216 H   0  0  0  0  0  0  0  0  0  0  0  0
   58.7759   35.6952   44.2563 C   0  0  0  0  0  0  0  0  0  0  0  0
   59.7818   35.2861   44.2353 H   0  0  0  0  0  0  0  0  0  0  0  0
   58.6533   37.0268   44.5869 C   0  0  0  0  0  0  0  0  0  0  0  0
   59.5187   37.6218   44.8113 H   0  0  0  0  0  0  0  0  0  0  0  0
   57.4171   37.6353   44.6398 C   0  0  0  0  0  0  0  0  0  0  0  0
   57.2584   38.6892   44.8963 H   0  0  0  0  0  0  0  0  0  0  0  0
   56.2928   36.8886   44.3552 C   0  0  0  0  0  0  0  0  0  0  0  0
   55.0037   37.4872   44.4011 N   0  0  0  0  0  0  0  0  0  0  0  0
   54.9792   38.5071   44.6600 H   0  0  0  0  0  0  0  0  0  0  0  0
  1  2  2  0
  1  6  1  0
  2  3  1  0
  3  4  2  0
  5  4  1  0
  6  5  2  0
  7  8  2  0
  7  9  1  0
  9  1  1  0
 10  2  1  0
 11 12  2  0
 12 10  1  1
 12 14  1  0
 13 12  1  0
  3 15  1  0
  5 16  1  0
  7 17  1  0
  9 18  1  0
 13 19  1  0
 20 21  2  0
 21 22  1  0
 21 23  1  0
 23 24  1  0
 23 25  2  0
 25 26  1  0
 26 27  2  0
 27 28  1  0
 26 29  1  0
 29 30  1  0
 30 31  2  0
 31 32  1  0
 31 33  1  0
 33 34  1  0
 33 35  2  0
 35 36  1  0
 35 37  1  0
 37 38  1  0
 37 39  2  0
 39 40  1  0
 40 41  1  0
 27 20  1  0
 39 30  1  0
 40 25  1  0
 14 20  1  0
M  ISO  8  15  14  16  14  17   6  19   3  22  16  24  16  28  16  32  16
M  ISO  4  34  16  36  16  38  16  41   5
M  END
>  <DihAtoms>  (1) 
11,13,19,20

>  <DihDeg>  (1) 
-45.52554362615872

$$$$
