
     RDKit          3D

 41 44  0  0  0  0  0  0  0  0999 V2000
   46.5267   34.2646   43.0725 C   0  0  0  0  0  0  0  0  0  0  0  0
   47.3840   33.3650   43.6974 C   0  0  0  0  0  0  0  0  0  0  0  0
   47.1342   33.0379   45.0413 C   0  0  0  0  0  0  0  0  0  0  0  0
   46.0806   33.6066   45.6635 N   0  0  0  0  0  0  0  0  0  0  0  0
   45.2781   34.4643   45.0382 C   0  0  0  0  0  0  0  0  0  0  0  0
   45.4998   34.8015   43.7240 N   0  0  0  0  0  0  0  0  0  0  0  0
   45.4949   34.2428   40.8216 C   0  0  0  0  0  0  0  0  0  0  0  0
   44.9512   33.0980   40.9716 O   0  0  0  0  0  0  0  0  0  0  0  0
   46.3120   34.9123   41.8220 N   0  0  0  0  0  0  0  0  0  0  0  0
   48.4209   32.8622   42.9377 O   0  0  0  0  0  0  0  0  0  0  0  0
   50.9089   33.0818   42.0836 O   0  0  0  0  0  0  0  0  0  0  0  0
   49.6594   33.8881   42.3222 P   0  0  1  0  0  0  0  0  0  0  0  0
   49.1811   34.5088   40.8263 O   0  0  0  0  0  0  0  0  0  0  0  0
   49.9803   35.1423   43.3831 O   0  0  0  0  0  0  0  0  0  0  0  0
   47.8257   32.3302   45.4990 H   0  0  0  0  0  0  0  0  0  0  0  0
   44.4261   34.9453   45.4865 H   0  0  0  0  0  0  0  0  0  0  0  0
   45.2534   34.6401   39.8321 H   0  0  0  0  0  0  0  0  0  0  0  0
   46.6825   35.8332   41.5350 H   0  0  0  0  0  0  0  0  0  0  0  0
   49.4478   35.4557   40.7089 H   0  0  0  0  0  0  0  0  0  0  0  0
   51.2269   35.7007   43.6297 C   0  0  0  0  0  0  0  0  0  0  0  0
   51.5496   36.2609   44.8507 C   0  0  0  0  0  0  0  0  0  0  0  0
   50.8352   36.2811   45.6566 H   0  0  0  0  0  0  0  0  0  0  0  0
   52.7627   36.8221   45.1403 C   0  0  0  0  0  0  0  0  0  0  0  0
   52.9841   37.2544   46.1116 H   0  0  0  0  0  0  0  0  0  0  0  0
   53.7508   36.8488   44.1778 C   0  0  0  0  0  0  0  0  0  0  0  0
   53.4148   36.2861   42.9639 C   0  0  0  0  0  0  0  0  0  0  0  0
   52.2138   35.7217   42.6526 C   0  0  0  0  0  0  0  0  0  0  0  0
   51.9820   35.2912   41.6972 H   0  0  0  0  0  0  0  0  0  0  0  0
   54.6342   36.2762   41.6567 S   0  0  0  0  0  0  0  0  0  0  0  0
   56.0909   37.0631   42.3191 C   0  0  0  0  0  0  0  0  0  0  0  0
   57.1515   37.1506   41.4500 C   0  0  0  0  0  0  0  0  0  0  0  0
   57.2054   36.8068   40.4360 H   0  0  0  0  0  0  0  0  0  0  0  0
   58.3140   37.7578   41.9206 C   0  0  0  0  0  0  0  0  0  0  0  0
   59.2027   37.8722   41.3067 H   0  0  0  0  0  0  0  0  0  0  0  0
   58.3806   38.2450   43.2073 C   0  0  0  0  0  0  0  0  0  0  0  0
   59.2743   38.7136   43.5747 H   0  0  0  0  0  0  0  0  0  0  0  0
   57.3029   38.1457   44.0618 C   0  0  0  0  0  0  0  0  0  0  0  0
   57.2975   38.5145   45.0940 H   0  0  0  0  0  0  0  0  0  0  0  0
   56.1454   37.5471   43.6095 C   0  0  0  0  0  0  0  0  0  0  0  0
   55.0167   37.4295   44.4664 N   0  0  0  0  0  0  0  0  0  0  0  0
   55.1327   37.8216   45.4362 H   0  0  0  0  0  0  0  0  0  0  0  0
  1  2  2  0
  1  6  1  0
  2  3  1  0
  3  4  2  0
  5  4  1  0
  6  5  2  0
  7  8  2  0
  7  9  1  0
  9  1  1  0
 10  2  1  0
 11 12  2  0
 12 10  1  1
 12 14  1  0
 13 12  1  0
  3 15  1  0
  5 16  1  0
  7 17  1  0
  9 18  1  0
 13 19  1  0
 20 21  2  0
 21 22  1  0
 21 23  1  0
 23 24  1  0
 23 25  2  0
 25 26  1  0
 26 27  2  0
 27 28  1  0
 26 29  1  0
 29 30  1  0
 30 31  2  0
 31 32  1  0
 31 33  1  0
 33 34  1  0
 33 35  2  0
 35 36  1  0
 35 37  1  0
 37 38  1  0
 37 39  2  0
 39 40  1  0
 40 41  1  0
 27 20  1  0
 39 30  1  0
 40 25  1  0
 14 20  1  0
M  ISO  8  15  14  16  14  17   6  19   3  22  16  24  16  28  16  32  16
M  ISO  4  34  16  36  16  38  16  41   5
M  END
>  <DihAtoms>  (1) 
11,13,19,20

>  <DihDeg>  (1) 
-45.52554362615872

$$$$
