
     RDKit          3D

 41 44  0  0  0  0  0  0  0  0999 V2000
   46.5267   34.2646   43.0725 C   0  0  0  0  0  0  0  0  0  0  0  0
   47.3840   33.3650   43.6974 C   0  0  0  0  0  0  0  0  0  0  0  0
   47.1342   33.0379   45.0413 C   0  0  0  0  0  0  0  0  0  0  0  0
   46.0806   33.6066   45.6635 N   0  0  0  0  0  0  0  0  0  0  0  0
   45.2781   34.4643   45.0382 C   0  0  0  0  0  0  0  0  0  0  0  0
   45.4998   34.8015   43.7240 N   0  0  0  0  0  0  0  0  0  0  0  0
   45.4949   34.2428   40.8216 C   0  0  0  0  0  0  0  0  0  0  0  0
   44.9512   33.0980   40.9716 O   0  0  0  0  0  0  0  0  0  0  0  0
   46.3120   34.9123   41.8220 N   0  0  0  0  0  0  0  0  0  0  0  0
   48.4209   32.8622   42.9377 O   0  0  0  0  0  0  0  0  0  0  0  0
   50.9089   33.0818   42.0836 O   0  0  0  0  0  0  0  0  0  0  0  0
   49.6594   33.8881   42.3222 P   0  0  1  0  0  0  0  0  0  0  0  0
   49.1811   34.5088   40.8263 O   0  0  0  0  0  0  0  0  0  0  0  0
   49.9803   35.1423   43.3831 O   0  0  0  0  0  0  0  0  0  0  0  0
   47.8257   32.3302   45.4990 H   0  0  0  0  0  0  0  0  0  0  0  0
   44.4261   34.9453   45.4865 H   0  0  0  0  0  0  0  0  0  0  0  0
   45.2534   34.6401   39.8321 H   0  0  0  0  0  0  0  0  0  0  0  0
   46.6825   35.8332   41.5350 H   0  0  0  0  0  0  0  0  0  0  0  0
   49.4478   35.4557   40.7089 H   0  0  0  0  0  0  0  0  0  0  0  0
   51.2269   35.7007   43.6297 C   0  0  0  0  0  0  0  0  0  0  0  0
   51.4927   37.0345   43.3865 C   0  0  0  0  0  0  0  0  0  0  0  0
   50.7318   37.6879   42.9939 H   0  0  0  0  0  0  0  0  0  0  0  0
   52.7034   37.6289   43.6132 C   0  0  0  0  0  0  0  0  0  0  0  0
   52.8791   38.6812   43.4110 H   0  0  0  0  0  0  0  0  0  0  0  0
   53.7484   36.8815   44.1160 C   0  0  0  0  0  0  0  0  0  0  0  0
   53.4687   35.5516   44.3541 C   0  0  0  0  0  0  0  0  0  0  0  0
   52.2714   34.9379   44.1360 C   0  0  0  0  0  0  0  0  0  0  0  0
   52.0844   33.8994   44.3315 H   0  0  0  0  0  0  0  0  0  0  0  0
   54.7643   34.5066   45.0061 S   0  0  0  0  0  0  0  0  0  0  0  0
   56.2026   35.5437   45.1950 C   0  0  0  0  0  0  0  0  0  0  0  0
   57.3162   34.9100   45.6911 C   0  0  0  0  0  0  0  0  0  0  0  0
   57.4204   33.8811   45.9736 H   0  0  0  0  0  0  0  0  0  0  0  0
   58.4669   35.6780   45.8572 C   0  0  0  0  0  0  0  0  0  0  0  0
   59.3943   35.2645   46.2426 H   0  0  0  0  0  0  0  0  0  0  0  0
   58.4708   37.0166   45.5325 C   0  0  0  0  0  0  0  0  0  0  0  0
   59.3551   37.6128   45.6588 H   0  0  0  0  0  0  0  0  0  0  0  0
   57.3406   37.6311   45.0360 C   0  0  0  0  0  0  0  0  0  0  0  0
   57.2845   38.6907   44.7607 H   0  0  0  0  0  0  0  0  0  0  0  0
   56.1942   36.8831   44.8663 C   0  0  0  0  0  0  0  0  0  0  0  0
   55.0124   37.4877   44.3563 N   0  0  0  0  0  0  0  0  0  0  0  0
   55.0819   38.5128   44.1280 H   0  0  0  0  0  0  0  0  0  0  0  0
  1  2  2  0
  1  6  1  0
  2  3  1  0
  3  4  2  0
  5  4  1  0
  6  5  2  0
  7  8  2  0
  7  9  1  0
  9  1  1  0
 10  2  1  0
 11 12  2  0
 12 10  1  1
 12 14  1  0
 13 12  1  0
  3 15  1  0
  5 16  1  0
  7 17  1  0
  9 18  1  0
 13 19  1  0
 20 21  2  0
 21 22  1  0
 21 23  1  0
 23 24  1  0
 23 25  2  0
 25 26  1  0
 26 27  2  0
 27 28  1  0
 26 29  1  0
 29 30  1  0
 30 31  2  0
 31 32  1  0
 31 33  1  0
 33 34  1  0
 33 35  2  0
 35 36  1  0
 35 37  1  0
 37 38  1  0
 37 39  2  0
 39 40  1  0
 40 41  1  0
 27 20  1  0
 39 30  1  0
 40 25  1  0
 14 20  1  0
M  ISO  8  15  14  16  14  17   6  19   3  22  16  24  16  28  16  32  16
M  ISO  4  34  16  36  16  38  16  41   5
M  END
>  <DihAtoms>  (1) 
11,13,19,20

>  <DihDeg>  (1) 
-45.52554362615872

$$$$
