
     RDKit          3D

 58 63  0  0  0  0  0  0  0  0999 V2000
   43.4282   35.2771   42.0797 C   0  0  0  0  0  0  0  0  0  0  0  0
   46.6329   33.5343   42.7207 C   0  0  0  0  0  0  0  0  0  0  0  0
   46.7516   33.7809   44.0474 C   0  0  0  0  0  0  0  0  0  0  0  0
   45.2341   34.7580   44.3796 S   0  0  0  0  0  0  0  0  0  0  0  0
   44.6848   34.6601   42.6093 C   0  0  0  0  0  0  0  0  0  0  0  0
   45.5589   34.0483   42.2127 N   0  0  0  0  0  0  0  0  0  0  0  0
   49.3663   32.5476   40.3237 C   0  0  0  0  0  0  0  0  0  0  0  0
   48.4599   33.3555   41.0262 C   0  0  0  0  0  0  0  0  0  0  0  0
   47.6174   32.7645   41.9368 C   0  0  0  0  0  0  0  0  0  0  0  0
   47.7288   31.3777   42.0976 N   0  0  0  0  0  0  0  0  0  0  0  0
   48.6195   30.6688   41.3909 C   0  0  0  0  0  0  0  0  0  0  0  0
   49.4380   31.2391   40.5071 N   0  0  0  0  0  0  0  0  0  0  0  0
   48.4716   34.7462   40.7482 N   0  0  0  0  0  0  0  0  0  0  0  0
   43.4959   35.4492   40.5993 C   0  0  0  0  0  0  0  0  0  0  0  0
   42.3185   35.0594   39.8576 C   0  0  0  0  0  0  0  0  0  0  0  0
   41.9822   35.3196   38.5489 C   0  0  0  0  0  0  0  0  0  0  0  0
   40.8353   34.9167   37.8953 C   0  0  0  0  0  0  0  0  0  0  0  0
   39.9731   34.1893   38.6567 C   0  0  0  0  0  0  0  0  0  0  0  0
   40.2883   33.9193   39.9603 C   0  0  0  0  0  0  0  0  0  0  0  0
   41.4187   34.3308   40.5622 N   0  0  0  0  0  0  0  0  0  0  0  0
   39.2703   33.1153   40.6970 C   0  0  0  0  0  0  0  0  0  0  0  0
   37.9998   33.6506   40.4528 F   0  0  0  0  0  0  0  0  0  0  0  0
   39.5473   32.9709   42.0272 F   0  0  0  0  0  0  0  0  0  0  0  0
   39.2295   31.8213   40.1626 F   0  0  0  0  0  0  0  0  0  0  0  0
   38.4408   33.6155   37.8893 S   0  0  0  0  0  0  0  0  0  0  0  0
   42.6089   34.5485   42.2914 H   0  0  0  0  0  0  0  0  0  0  0  0
   43.2371   36.2545   42.5834 H   0  0  0  0  0  0  0  0  0  0  0  0
   47.5345   33.4780   44.7185 H   0  0  0  0  0  0  0  0  0  0  0  0
   50.0333   32.9982   39.6061 H   0  0  0  0  0  0  0  0  0  0  0  0
   48.6339   29.5902   41.5844 H   0  0  0  0  0  0  0  0  0  0  0  0
   48.0932   35.0967   39.8224 H   0  0  0  0  0  0  0  0  0  0  0  0
   48.8482   35.4232   41.4454 H   0  0  0  0  0  0  0  0  0  0  0  0
   43.7559   36.5158   40.3656 H   0  0  0  0  0  0  0  0  0  0  0  0
   44.3540   34.8598   40.2142 H   0  0  0  0  0  0  0  0  0  0  0  0
   42.7324   35.9115   38.0073 H   0  0  0  0  0  0  0  0  0  0  0  0
   40.6836   35.1871   36.8531 H   0  0  0  0  0  0  0  0  0  0  0  0
   38.4196   34.1779   36.1938 C   0  0  0  0  0  0  0  0  0  0  0  0
   38.0420   33.2878   35.2110 C   0  0  0  0  0  0  0  0  0  0  0  0
   37.7674   32.2781   35.4659 H   0  0  0  0  0  0  0  0  0  0  0  0
   38.0264   33.7251   33.9020 C   0  0  0  0  0  0  0  0  0  0  0  0
   37.7156   32.9654   33.1672 H   0  0  0  0  0  0  0  0  0  0  0  0
   38.3611   34.9966   33.4842 C   0  0  0  0  0  0  0  0  0  0  0  0
   38.7263   35.8282   34.5125 C   0  0  0  0  0  0  0  0  0  0  0  0
   38.7640   35.4625   35.8266 C   0  0  0  0  0  0  0  0  0  0  0  0
   39.0583   36.1537   36.5991 H   0  0  0  0  0  0  0  0  0  0  0  0
   39.1855   37.5036   34.1227 S   0  0  0  0  0  0  0  0  0  0  0  0
   39.0356   37.6650   32.3559 C   0  0  0  0  0  0  0  0  0  0  0  0
   39.3255   38.8571   31.7501 C   0  0  0  0  0  0  0  0  0  0  0  0
   39.6452   39.6965   32.3524 H   0  0  0  0  0  0  0  0  0  0  0  0
   39.2309   39.0515   30.3877 C   0  0  0  0  0  0  0  0  0  0  0  0
   39.4731   40.0120   29.9759 H   0  0  0  0  0  0  0  0  0  0  0  0
   38.8212   37.9664   29.6416 C   0  0  0  0  0  0  0  0  0  0  0  0
   38.7315   38.0687   28.5686 H   0  0  0  0  0  0  0  0  0  0  0  0
   38.5344   36.7743   30.2747 C   0  0  0  0  0  0  0  0  0  0  0  0
   38.2157   35.9645   29.6021 H   0  0  0  0  0  0  0  0  0  0  0  0
   38.6264   36.5719   31.6354 C   0  0  0  0  0  0  0  0  0  0  0  0
   38.2985   35.3031   32.1079 N   0  0  0  0  0  0  0  0  0  0  0  0
   37.9986   34.5472   31.4586 H   0  0  0  0  0  0  0  0  0  0  0  0
  1  5  1  0
  2  3  2  0
  3  4  1  0
  5  4  1  0
  6  5  2  0
  6  2  1  0
  7 12  2  0
  7  8  1  0
  8  9  2  0
  9 10  1  0
  9  2  1  0
 11 10  2  0
 12 11  1  0
 13  8  1  0
 14  1  1  0
 15 20  1  0
 15 14  1  0
 16 15  2  0
 17 16  1  0
 17 18  2  0
 18 19  1  0
 19 20  2  0
 19 21  1  0
 21 23  1  0
 22 21  1  0
 24 21  1  0
 25 18  1  0
  1 26  1  0
  1 27  1  0
  3 28  1  0
  7 29  1  0
 11 30  1  0
 13 31  1  0
 13 32  1  0
 14 33  1  0
 14 34  1  0
 16 35  1  0
 17 36  1  0
 37 38  2  0
 38 39  1  0
 38 40  1  0
 40 41  1  0
 40 42  2  0
 42 43  1  0
 43 44  2  0
 44 45  1  0
 43 46  1  0
 46 47  1  0
 47 48  2  0
 48 49  1  0
 48 50  1  0
 50 51  1  0
 50 52  2  0
 52 53  1  0
 52 54  1  0
 54 55  1  0
 54 56  2  0
 56 57  1  0
 57 58  1  0
 44 37  1  0
 56 47  1  0
 57 42  1  0
 25 37  1  0
M  ISO  8  26   8  27   8  28  14  29  14  30  14  33   8  34   8  35  14
M  ISO  8  36  14  39  16  41  16  45  16  49  16  51  16  53  16  55  16
M  ISO  1  58   5
M  END
>  <DihAtoms>  (1) 
17,24,36,37

>  <DihDeg>  (1) 
-89.97174423012677

$$$$
