
     RDKit          3D

 49 53  0  0  0  0  0  0  0  0999 V2000
   45.1389   33.5072   41.1571 F   0  0  0  0  0  0  0  0  0  0  0  0
   46.3251   34.0827   41.0441 C   0  0  0  0  0  0  0  0  0  0  0  0
   46.8295   34.7978   42.1142 C   0  0  0  0  0  0  0  0  0  0  0  0
   48.0744   35.4384   42.0873 C   0  0  0  0  0  0  0  0  0  0  0  0
   48.8518   35.3576   40.9312 C   0  0  0  0  0  0  0  0  0  0  0  0
   48.3186   34.6371   39.8856 C   0  0  0  0  0  0  0  0  0  0  0  0
   47.1123   34.0115   39.8980 C   0  0  0  0  0  0  0  0  0  0  0  0
   45.4497   34.0214   45.4236 C   0  0  0  0  0  0  0  0  0  0  0  0
   44.6117   35.1257   45.6585 C   0  0  0  0  0  0  0  0  0  0  0  0
   44.5206   36.1478   44.6681 C   0  0  0  0  0  0  0  0  0  0  0  0
   45.2721   35.9732   43.5385 N   0  0  0  0  0  0  0  0  0  0  0  0
   46.0550   34.9093   43.3552 C   0  0  0  0  0  0  0  0  0  0  0  0
   46.1409   33.9461   44.2885 N   0  0  0  0  0  0  0  0  0  0  0  0
   45.5274   33.0150   46.4193 N   0  0  0  0  0  0  0  0  0  0  0  0
   46.6704   33.3189   38.8004 O   0  0  0  0  0  0  0  0  0  0  0  0
   48.0796   34.6616   36.9980 O   0  0  0  0  0  0  0  0  0  0  0  0
   47.3301   33.3775   37.2506 P   0  0  2  0  0  0  0  0  0  0  0  0
   46.0613   33.1946   36.1260 O   0  0  0  0  0  0  0  0  0  0  0  0
   48.3717   32.0785   36.9337 O   0  0  0  0  0  0  0  0  0  0  0  0
   48.4020   35.9845   42.9746 H   0  0  0  0  0  0  0  0  0  0  0  0
   49.8035   35.8663   40.9557 H   0  0  0  0  0  0  0  0  0  0  0  0
   49.0202   34.6464   39.0605 H   0  0  0  0  0  0  0  0  0  0  0  0
   44.0346   35.2437   46.5440 H   0  0  0  0  0  0  0  0  0  0  0  0
   43.8859   37.0091   44.8182 H   0  0  0  0  0  0  0  0  0  0  0  0
   45.2111   32.0109   46.4096 H   0  0  0  0  0  0  0  0  0  0  0  0
   45.9429   33.1513   47.3700 H   0  0  0  0  0  0  0  0  0  0  0  0
   46.0779   33.9628   35.5343 H   0  0  0  0  0  0  0  0  0  0  0  0
   47.8209   30.8059   36.8448 C   0  0  0  0  0  0  0  0  0  0  0  0
   46.5597   30.6914   36.2942 C   0  0  0  0  0  0  0  0  0  0  0  0
   46.0319   31.5746   35.9484 H   0  0  0  0  0  0  0  0  0  0  0  0
   45.9936   29.4326   36.1968 C   0  0  0  0  0  0  0  0  0  0  0  0
   44.9874   29.4223   35.7475 H   0  0  0  0  0  0  0  0  0  0  0  0
   46.6049   28.2679   36.6149 C   0  0  0  0  0  0  0  0  0  0  0  0
   47.8386   28.4184   37.1487 C   0  0  0  0  0  0  0  0  0  0  0  0
   48.4205   29.6290   37.2592 C   0  0  0  0  0  0  0  0  0  0  0  0
   49.4264   29.7353   37.6964 H   0  0  0  0  0  0  0  0  0  0  0  0
   48.6992   26.9633   37.7145 S   0  0  0  0  0  0  0  0  0  0  0  0
   47.5971   25.5990   37.3901 C   0  0  0  0  0  0  0  0  0  0  0  0
   48.0450   24.3507   37.7454 C   0  0  0  0  0  0  0  0  0  0  0  0
   49.0195   24.1999   38.2005 H   0  0  0  0  0  0  0  0  0  0  0  0
   47.2644   23.2400   37.5337 C   0  0  0  0  0  0  0  0  0  0  0  0
   47.6007   22.2628   37.8053 H   0  0  0  0  0  0  0  0  0  0  0  0
   46.0332   23.4262   36.9591 C   0  0  0  0  0  0  0  0  0  0  0  0
   45.4239   22.5502   36.7949 H   0  0  0  0  0  0  0  0  0  0  0  0
   45.6412   24.6928   36.6266 C   0  0  0  0  0  0  0  0  0  0  0  0
   44.6449   24.7348   36.1752 H   0  0  0  0  0  0  0  0  0  0  0  0
   46.3788   25.8436   36.8141 C   0  0  0  0  0  0  0  0  0  0  0  0
   45.8812   27.0884   36.4370 N   0  0  0  0  0  0  0  0  0  0  0  0
   44.9301   27.0919   36.0106 H   0  0  0  0  0  0  0  0  0  0  0  0
  2  1  1  0
  2  3  2  0
  3 12  1  0
  4  3  1  0
  5  4  2  0
  6  7  2  0
  6  5  1  0
  7  2  1  0
  8  9  2  0
  8 14  1  0
 10  9  1  0
 11 10  2  0
 12 11  1  0
 12 13  2  0
 13  8  1  0
 15  7  1  0
 16 17  2  0
 17 15  1  1
 18 17  1  0
 19 17  1  0
  4 20  1  0
  5 21  1  0
  6 22  1  0
  9 23  1  0
 10 24  1  0
 14 25  1  0
 14 26  1  0
 18 27  1  0
 28 29  2  0
 29 30  1  0
 29 31  1  0
 31 32  1  0
 31 33  2  0
 33 34  1  0
 34 35  2  0
 35 36  1  0
 34 37  1  0
 37 38  1  0
 38 39  2  0
 39 40  1  0
 39 41  1  0
 41 42  1  0
 41 43  2  0
 43 44  1  0
 43 45  1  0
 45 46  1  0
 45 47  2  0
 47 48  1  0
 48 49  1  0
 35 28  1  0
 47 38  1  0
 48 33  1  0
 19 28  1  0
M  ISO  8  20  14  21  14  22  14  23  14  24  14  27   3  30  16  32  16
M  ISO  6  36  16  40  16  42  16  44  16  46  16  49   5
M  END
>  <DihAtoms>  (1) 
16,18,27,28

>  <DihDeg>  (1) 
-55.071409293098284

$$$$
