
     RDKit          3D

 52 56  0  0  0  0  0  0  0  0999 V2000
   45.1952   33.4517   41.1694 F   0  0  0  0  0  0  0  0  0  0  0  0
   46.3735   34.0521   41.0402 C   0  0  0  0  0  0  0  0  0  0  0  0
   46.8411   34.7933   42.1050 C   0  0  0  0  0  0  0  0  0  0  0  0
   48.0762   35.4643   42.0709 C   0  0  0  0  0  0  0  0  0  0  0  0
   48.8648   35.3782   40.9121 C   0  0  0  0  0  0  0  0  0  0  0  0
   48.3464   34.6250   39.8840 C   0  0  0  0  0  0  0  0  0  0  0  0
   47.1637   33.9748   39.8981 C   0  0  0  0  0  0  0  0  0  0  0  0
   45.4690   33.9986   45.4085 C   0  0  0  0  0  0  0  0  0  0  0  0
   44.6193   35.1054   45.6448 C   0  0  0  0  0  0  0  0  0  0  0  0
   44.5261   36.1264   44.6526 C   0  0  0  0  0  0  0  0  0  0  0  0
   45.2771   35.9656   43.5184 N   0  0  0  0  0  0  0  0  0  0  0  0
   46.0599   34.9139   43.3369 C   0  0  0  0  0  0  0  0  0  0  0  0
   46.1569   33.9382   44.2713 N   0  0  0  0  0  0  0  0  0  0  0  0
   45.5425   33.0089   46.3995 N   0  0  0  0  0  0  0  0  0  0  0  0
   46.7543   33.2591   38.8148 O   0  0  0  0  0  0  0  0  0  0  0  0
   48.0463   34.7115   37.0189 O   0  0  0  0  0  0  0  0  0  0  0  0
   47.2921   33.4267   37.2223 P   0  0  2  0  0  0  0  0  0  0  0  0
   45.9607   33.3453   36.1702 O   0  0  0  0  0  0  0  0  0  0  0  0
   48.2956   32.1398   36.7571 O   0  0  0  0  0  0  0  0  0  0  0  0
   47.5419   30.9609   36.5670 C   0  0  0  0  0  0  0  0  0  0  0  0
   47.2086   30.9795   35.2098 F   0  0  0  0  0  0  0  0  0  0  0  0
   48.3352   29.8486   36.7671 F   0  0  0  0  0  0  0  0  0  0  0  0
   46.4638   30.8672   37.3811 F   0  0  0  0  0  0  0  0  0  0  0  0
   48.3838   36.0348   42.9534 H   0  0  0  0  0  0  0  0  0  0  0  0
   49.7934   35.9110   40.9503 H   0  0  0  0  0  0  0  0  0  0  0  0
   49.0641   34.6425   39.0603 H   0  0  0  0  0  0  0  0  0  0  0  0
   44.0434   35.1862   46.5623 H   0  0  0  0  0  0  0  0  0  0  0  0
   43.8859   36.9844   44.8035 H   0  0  0  0  0  0  0  0  0  0  0  0
   45.1531   32.0299   46.2984 H   0  0  0  0  0  0  0  0  0  0  0  0
   46.0316   33.3630   47.2516 H   0  0  0  0  0  0  0  0  0  0  0  0
   45.9406   34.0572   34.9819 C   0  0  0  0  0  0  0  0  0  0  0  0
   47.2178   34.2040   34.4228 C   0  0  0  0  0  0  0  0  0  0  0  0
   48.1197   33.7984   34.8815 H   0  0  0  0  0  0  0  0  0  0  0  0
   47.3860   34.8979   33.2181 C   0  0  0  0  0  0  0  0  0  0  0  0
   48.4049   34.9822   32.8274 H   0  0  0  0  0  0  0  0  0  0  0  0
   46.3313   35.4589   32.5363 C   0  0  0  0  0  0  0  0  0  0  0  0
   45.1041   35.2886   33.1228 C   0  0  0  0  0  0  0  0  0  0  0  0
   44.9076   34.6273   34.2793 C   0  0  0  0  0  0  0  0  0  0  0  0
   43.9533   34.4827   34.7520 H   0  0  0  0  0  0  0  0  0  0  0  0
   43.6779   35.9810   32.3122 S   0  0  0  0  0  0  0  0  0  0  0  0
   44.2832   36.7762   30.8387 C   0  0  0  0  0  0  0  0  0  0  0  0
   43.3449   37.3884   30.0497 C   0  0  0  0  0  0  0  0  0  0  0  0
   42.2967   37.3945   30.2975 H   0  0  0  0  0  0  0  0  0  0  0  0
   43.7470   38.0216   28.8954 C   0  0  0  0  0  0  0  0  0  0  0  0
   42.9856   38.5019   28.2830 H   0  0  0  0  0  0  0  0  0  0  0  0
   45.0838   38.0276   28.5565 C   0  0  0  0  0  0  0  0  0  0  0  0
   45.4157   38.5212   27.6523 H   0  0  0  0  0  0  0  0  0  0  0  0
   45.9733   37.3889   29.4015 C   0  0  0  0  0  0  0  0  0  0  0  0
   47.0157   37.4256   29.0833 H   0  0  0  0  0  0  0  0  0  0  0  0
   45.6264   36.7399   30.5686 C   0  0  0  0  0  0  0  0  0  0  0  0
   46.6357   36.1318   31.3363 N   0  0  0  0  0  0  0  0  0  0  0  0
   47.6139   36.1940   30.9905 H   0  0  0  0  0  0  0  0  0  0  0  0
  2  1  1  0
  2  3  2  0
  3 12  1  0
  4  3  1  0
  5  4  2  0
  6  7  2  0
  6  5  1  0
  7  2  1  0
  8  9  2  0
  8 14  1  0
 10  9  1  0
 11 10  2  0
 12 11  1  0
 12 13  2  0
 13  8  1  0
 15  7  1  0
 17 16  2  0
 17 15  1  1
 18 17  1  0
 19 17  1  0
 20 19  1  0
 20 22  1  0
 20 23  1  0
 21 20  1  0
  4 24  1  0
  5 25  1  0
  6 26  1  0
  9 27  1  0
 10 28  1  0
 14 29  1  0
 14 30  1  0
 31 32  2  0
 32 33  1  0
 32 34  1  0
 34 35  1  0
 34 36  2  0
 36 37  1  0
 37 38  2  0
 38 39  1  0
 37 40  1  0
 40 41  1  0
 41 42  2  0
 42 43  1  0
 42 44  1  0
 44 45  1  0
 44 46  2  0
 46 47  1  0
 46 48  1  0
 48 49  1  0
 48 50  2  0
 50 51  1  0
 51 52  1  0
 38 31  1  0
 50 41  1  0
 51 36  1  0
 18 31  1  0
M  ISO  8  24  14  25  14  26  14  27  14  28  14  33  16  35  16  39  16
M  ISO  5  43  16  45  16  47  16  49  16  52   5
M  END
>  <DihAtoms>  (1) 
16,17,30,31

>  <DihDeg>  (1) 
137.001315350319

$$$$
