
     RDKit          3D

 41 44  0  0  0  0  0  0  0  0999 V2000
   46.5267   34.2646   43.0725 C   0  0  0  0  0  0  0  0  0  0  0  0
   47.3840   33.3650   43.6974 C   0  0  0  0  0  0  0  0  0  0  0  0
   47.1342   33.0379   45.0413 C   0  0  0  0  0  0  0  0  0  0  0  0
   46.0806   33.6066   45.6635 N   0  0  0  0  0  0  0  0  0  0  0  0
   45.2781   34.4643   45.0382 C   0  0  0  0  0  0  0  0  0  0  0  0
   45.4998   34.8015   43.7240 N   0  0  0  0  0  0  0  0  0  0  0  0
   45.4949   34.2428   40.8216 C   0  0  0  0  0  0  0  0  0  0  0  0
   44.9512   33.0980   40.9716 O   0  0  0  0  0  0  0  0  0  0  0  0
   46.3120   34.9123   41.8220 N   0  0  0  0  0  0  0  0  0  0  0  0
   48.4209   32.8622   42.9377 O   0  0  0  0  0  0  0  0  0  0  0  0
   50.9089   33.0818   42.0836 O   0  0  0  0  0  0  0  0  0  0  0  0
   49.6594   33.8881   42.3222 P   0  0  1  0  0  0  0  0  0  0  0  0
   49.1811   34.5088   40.8263 O   0  0  0  0  0  0  0  0  0  0  0  0
   49.9803   35.1423   43.3831 O   0  0  0  0  0  0  0  0  0  0  0  0
   47.8257   32.3302   45.4990 H   0  0  0  0  0  0  0  0  0  0  0  0
   44.4261   34.9453   45.4865 H   0  0  0  0  0  0  0  0  0  0  0  0
   45.2534   34.6401   39.8321 H   0  0  0  0  0  0  0  0  0  0  0  0
   46.6825   35.8332   41.5350 H   0  0  0  0  0  0  0  0  0  0  0  0
   49.4478   35.4557   40.7089 H   0  0  0  0  0  0  0  0  0  0  0  0
   51.2269   35.7007   43.6297 C   0  0  0  0  0  0  0  0  0  0  0  0
   51.7126   36.7624   42.8910 C   0  0  0  0  0  0  0  0  0  0  0  0
   51.1317   37.1932   42.0928 H   0  0  0  0  0  0  0  0  0  0  0  0
   52.9327   37.3451   43.0965 C   0  0  0  0  0  0  0  0  0  0  0  0
   53.2847   38.1794   42.4972 H   0  0  0  0  0  0  0  0  0  0  0  0
   53.7577   36.8700   44.0951 C   0  0  0  0  0  0  0  0  0  0  0  0
   53.2600   35.8100   44.8245 C   0  0  0  0  0  0  0  0  0  0  0  0
   52.0487   35.2136   44.6379 C   0  0  0  0  0  0  0  0  0  0  0  0
   51.6888   34.3888   45.2229 H   0  0  0  0  0  0  0  0  0  0  0  0
   54.2614   35.1289   46.1395 S   0  0  0  0  0  0  0  0  0  0  0  0
   55.7707   36.0781   46.1681 C   0  0  0  0  0  0  0  0  0  0  0  0
   56.6793   35.6980   47.1262 C   0  0  0  0  0  0  0  0  0  0  0  0
   56.5889   34.9100   47.8474 H   0  0  0  0  0  0  0  0  0  0  0  0
   57.8757   36.4095   47.1893 C   0  0  0  0  0  0  0  0  0  0  0  0
   58.6531   36.1817   47.9127 H   0  0  0  0  0  0  0  0  0  0  0  0
   58.1216   37.4487   46.3193 C   0  0  0  0  0  0  0  0  0  0  0  0
   59.0421   38.0001   46.3640 H   0  0  0  0  0  0  0  0  0  0  0  0
   57.1943   37.8122   45.3656 C   0  0  0  0  0  0  0  0  0  0  0  0
   57.3346   38.6288   44.6479 H   0  0  0  0  0  0  0  0  0  0  0  0
   56.0054   37.1167   45.2915 C   0  0  0  0  0  0  0  0  0  0  0  0
   55.0289   37.4673   44.3191 N   0  0  0  0  0  0  0  0  0  0  0  0
   55.2783   38.2697   43.6853 H   0  0  0  0  0  0  0  0  0  0  0  0
  1  2  2  0
  1  6  1  0
  2  3  1  0
  3  4  2  0
  5  4  1  0
  6  5  2  0
  7  8  2  0
  7  9  1  0
  9  1  1  0
 10  2  1  0
 11 12  2  0
 12 10  1  1
 12 14  1  0
 13 12  1  0
  3 15  1  0
  5 16  1  0
  7 17  1  0
  9 18  1  0
 13 19  1  0
 20 21  2  0
 21 22  1  0
 21 23  1  0
 23 24  1  0
 23 25  2  0
 25 26  1  0
 26 27  2  0
 27 28  1  0
 26 29  1  0
 29 30  1  0
 30 31  2  0
 31 32  1  0
 31 33  1  0
 33 34  1  0
 33 35  2  0
 35 36  1  0
 35 37  1  0
 37 38  1  0
 37 39  2  0
 39 40  1  0
 40 41  1  0
 27 20  1  0
 39 30  1  0
 40 25  1  0
 14 20  1  0
M  ISO  8  15  14  16  14  17   6  19   3  22  16  24  16  28  16  32  16
M  ISO  4  34  16  36  16  38  16  41   5
M  END
>  <DihAtoms>  (1) 
11,13,19,20

>  <DihDeg>  (1) 
-45.52554362615872

$$$$
