
     RDKit          3D

 47 51  0  0  1  0  0  0  0  0999 V2000
   46.9810   34.6410   42.3290 N   0  0  0  0  0  0  0  0  0  0  0  0
   48.4160   34.8460   42.3930 C   0  0  0  0  0  0  0  0  0  0  0  0
   48.7150   35.6560   41.1130 C   0  0  0  0  0  0  0  0  0  0  0  0
   48.4760   34.7650   39.9200 C   0  0  0  0  0  0  0  0  0  0  0  0
   47.2180   33.9860   39.9840 C   0  0  0  0  0  0  0  0  0  0  0  0
   46.2900   34.3150   41.1070 C   0  0  1  0  0  0  0  0  0  0  0  0
   44.4850   35.8350   44.8570 C   0  0  0  0  0  0  0  0  0  0  0  0
   45.2220   35.7960   43.6660 C   0  0  0  0  0  0  0  0  0  0  0  0
   46.1790   34.7600   43.5160 C   0  0  0  0  0  0  0  0  0  0  0  0
   46.3200   33.8740   44.5320 N   0  0  0  0  0  0  0  0  0  0  0  0
   45.5870   33.9470   45.6690 C   0  0  0  0  0  0  0  0  0  0  0  0
   44.6700   34.9340   45.8210 N   0  0  0  0  0  0  0  0  0  0  0  0
   45.4650   33.2140   41.3260 O   0  0  0  0  0  0  0  0  0  0  0  0
   44.1010   33.1390   41.1160 C   0  0  0  0  0  0  0  0  0  0  0  0
   43.2620   34.0120   40.4580 C   0  0  0  0  0  0  0  0  0  0  0  0
   41.9180   33.7200   40.3770 C   0  0  0  0  0  0  0  0  0  0  0  0
   41.3220   32.5980   40.9120 C   0  0  0  0  0  0  0  0  0  0  0  0
   42.1590   31.7300   41.5660 C   0  0  0  0  0  0  0  0  0  0  0  0
   43.4960   32.0010   41.6580 C   0  0  0  0  0  0  0  0  0  0  0  0
   41.4570   30.2570   42.2830 S   0  0  0  0  0  0  0  0  0  0  0  0
   39.7210   30.3140   41.9280 C   0  0  0  0  0  0  0  0  0  0  0  0
   38.9800   29.2680   42.3920 C   0  0  0  0  0  0  0  0  0  0  0  0
   37.6190   29.2370   42.1580 C   0  0  0  0  0  0  0  0  0  0  0  0
   37.0490   30.2780   41.4530 C   0  0  0  0  0  0  0  0  0  0  0  0
   37.8590   31.3050   41.0130 C   0  0  0  0  0  0  0  0  0  0  0  0
   39.2210   31.3790   41.2220 C   0  0  0  0  0  0  0  0  0  0  0  0
   39.9290   32.4780   40.7230 N   0  0  0  0  0  0  0  0  0  0  0  0
   48.6934   35.4143   43.2930 H   0  0  0  0  0  0  0  0  0  0  0  0
   48.9836   33.9055   42.4504 H   0  0  0  0  0  0  0  0  0  0  0  0
   48.0498   36.5306   41.0628 H   0  0  0  0  0  0  0  0  0  0  0  0
   49.7581   36.0052   41.1214 H   0  0  0  0  0  0  0  0  0  0  0  0
   49.3155   34.0582   39.8441 H   0  0  0  0  0  0  0  0  0  0  0  0
   48.3934   35.4258   39.0445 H   0  0  0  0  0  0  0  0  0  0  0  0
   46.6745   34.1498   39.0418 H   0  0  0  0  0  0  0  0  0  0  0  0
   47.5275   32.9445   40.1560 H   0  0  0  0  0  0  0  0  0  0  0  0
   45.7123   35.2059   40.8195 H   0  0  0  0  0  0  0  0  0  0  0  0
   43.7361   36.6280   44.9995 H   0  0  0  0  0  0  0  0  0  0  0  0
   45.0638   36.5433   42.8744 H   0  0  0  0  0  0  0  0  0  0  0  0
   45.7357   33.2060   46.4683 H   0  0  0  0  0  0  0  0  0  0  0  0
   43.6605   34.9308   40.0030 H   0  0  0  0  0  0  0  0  0  0  0  0
   41.2726   34.4352   39.8460 H   0  0  0  0  0  0  0  0  0  0  0  0
   44.1340   31.2803   42.1905 H   0  0  0  0  0  0  0  0  0  0  0  0
   39.4636   28.4527   42.9500 H   0  0  0  0  0  0  0  0  0  0  0  0
   37.0037   28.4022   42.5249 H   0  0  0  0  0  0  0  0  0  0  0  0
   35.9688   30.2887   41.2457 H   0  0  0  0  0  0  0  0  0  0  0  0
   37.3839   32.1250   40.4545 H   0  0  0  0  0  0  0  0  0  0  0  0
   39.4237   33.2131   40.2081 H   0  0  0  0  0  0  0  0  0  0  0  0
  1  2  1  0
  1  9  1  0
  3  2  1  0
  4  5  1  0
  4  3  1  0
  5  6  1  0
  6 13  1  0
  6  1  1  0
  7 12  2  0
  8  7  1  0
  9  8  2  0
  9 10  1  0
 10 11  2  0
 11 12  1  0
 14 13  1  0
 14 19  1  0
 15 14  2  0
 16 15  1  0
 16 17  2  0
 17 18  1  0
 18 19  2  0
 18 20  1  0
 21 20  1  0
 21 22  2  0
 23 22  1  0
 24 23  2  0
 25 26  2  0
 25 24  1  0
 26 21  1  0
 27 17  1  0
 27 26  1  0
  2 28  1  0
  2 29  1  0
  3 30  1  0
  3 31  1  0
  4 32  1  0
  4 33  1  0
  5 34  1  0
  5 35  1  0
  6 36  1  6
  7 37  1  0
  8 38  1  0
 11 39  1  0
 15 40  1  0
 16 41  1  0
 19 42  1  0
 22 43  1  0
 23 44  1  0
 24 45  1  0
 25 46  1  0
 27 47  1  0
M  ISO  8  28  13  29  13  30  13  31  13  32  13  33  13  34  13  35  13
M  ISO  8  36  13  37  14  38  14  39  14  40  14  41  14  42  14  43  14
M  ISO  3  44  14  45  14  46  14
M  END
>  <minimizedAffinity>  (1) 
-7.3871212

>  <minimizedRMSD>  (1) 
0.521477163

$$$$
