
     RDKit          3D

 41 44  0  0  0  0  0  0  0  0999 V2000
   46.5267   34.2646   43.0725 C   0  0  0  0  0  0  0  0  0  0  0  0
   47.3840   33.3650   43.6974 C   0  0  0  0  0  0  0  0  0  0  0  0
   47.1342   33.0379   45.0413 C   0  0  0  0  0  0  0  0  0  0  0  0
   46.0806   33.6066   45.6635 N   0  0  0  0  0  0  0  0  0  0  0  0
   45.2781   34.4643   45.0382 C   0  0  0  0  0  0  0  0  0  0  0  0
   45.4998   34.8015   43.7240 N   0  0  0  0  0  0  0  0  0  0  0  0
   45.4949   34.2428   40.8216 C   0  0  0  0  0  0  0  0  0  0  0  0
   44.9512   33.0980   40.9716 O   0  0  0  0  0  0  0  0  0  0  0  0
   46.3120   34.9123   41.8220 N   0  0  0  0  0  0  0  0  0  0  0  0
   48.4209   32.8622   42.9377 O   0  0  0  0  0  0  0  0  0  0  0  0
   50.9089   33.0818   42.0836 O   0  0  0  0  0  0  0  0  0  0  0  0
   49.6594   33.8881   42.3222 P   0  0  1  0  0  0  0  0  0  0  0  0
   49.1811   34.5088   40.8263 O   0  0  0  0  0  0  0  0  0  0  0  0
   49.9803   35.1423   43.3831 O   0  0  0  0  0  0  0  0  0  0  0  0
   47.8257   32.3302   45.4990 H   0  0  0  0  0  0  0  0  0  0  0  0
   44.4261   34.9453   45.4865 H   0  0  0  0  0  0  0  0  0  0  0  0
   45.2534   34.6401   39.8321 H   0  0  0  0  0  0  0  0  0  0  0  0
   46.6825   35.8332   41.5350 H   0  0  0  0  0  0  0  0  0  0  0  0
   49.4478   35.4557   40.7089 H   0  0  0  0  0  0  0  0  0  0  0  0
   51.2269   35.7007   43.6297 C   0  0  0  0  0  0  0  0  0  0  0  0
   52.3702   35.2455   43.0016 C   0  0  0  0  0  0  0  0  0  0  0  0
   52.3275   34.4346   42.2939 H   0  0  0  0  0  0  0  0  0  0  0  0
   53.6185   35.7631   43.2119 C   0  0  0  0  0  0  0  0  0  0  0  0
   54.4976   35.3817   42.7011 H   0  0  0  0  0  0  0  0  0  0  0  0
   53.7855   36.8059   44.0998 C   0  0  0  0  0  0  0  0  0  0  0  0
   52.6356   37.2501   44.7194 C   0  0  0  0  0  0  0  0  0  0  0  0
   51.3824   36.7503   44.5259 C   0  0  0  0  0  0  0  0  0  0  0  0
   50.5057   37.1179   45.0239 H   0  0  0  0  0  0  0  0  0  0  0  0
   52.7571   38.5988   45.8865 S   0  0  0  0  0  0  0  0  0  0  0  0
   54.4791   39.0574   45.9508 C   0  0  0  0  0  0  0  0  0  0  0  0
   54.7746   40.0917   46.8057 C   0  0  0  0  0  0  0  0  0  0  0  0
   54.1019   40.6468   47.4291 H   0  0  0  0  0  0  0  0  0  0  0  0
   56.1077   40.4877   46.8918 C   0  0  0  0  0  0  0  0  0  0  0  0
   56.4364   41.2951   47.5398 H   0  0  0  0  0  0  0  0  0  0  0  0
   57.0774   39.8575   46.1435 C   0  0  0  0  0  0  0  0  0  0  0  0
   58.1062   40.1591   46.2063 H   0  0  0  0  0  0  0  0  0  0  0  0
   56.7568   38.8214   45.2919 C   0  0  0  0  0  0  0  0  0  0  0  0
   57.4843   38.2835   44.6730 H   0  0  0  0  0  0  0  0  0  0  0  0
   55.4410   38.4187   45.1965 C   0  0  0  0  0  0  0  0  0  0  0  0
   55.0783   37.3532   44.3273 N   0  0  0  0  0  0  0  0  0  0  0  0
   55.8659   36.9144   43.7841 H   0  0  0  0  0  0  0  0  0  0  0  0
  1  2  2  0
  1  6  1  0
  2  3  1  0
  3  4  2  0
  5  4  1  0
  6  5  2  0
  7  8  2  0
  7  9  1  0
  9  1  1  0
 10  2  1  0
 11 12  2  0
 12 10  1  1
 12 14  1  0
 13 12  1  0
  3 15  1  0
  5 16  1  0
  7 17  1  0
  9 18  1  0
 13 19  1  0
 20 21  2  0
 21 22  1  0
 21 23  1  0
 23 24  1  0
 23 25  2  0
 25 26  1  0
 26 27  2  0
 27 28  1  0
 26 29  1  0
 29 30  1  0
 30 31  2  0
 31 32  1  0
 31 33  1  0
 33 34  1  0
 33 35  2  0
 35 36  1  0
 35 37  1  0
 37 38  1  0
 37 39  2  0
 39 40  1  0
 40 41  1  0
 27 20  1  0
 39 30  1  0
 40 25  1  0
 14 20  1  0
M  ISO  8  15  14  16  14  17   6  19   3  22  16  24  16  28  16  32  16
M  ISO  4  34  16  36  16  38  16  41   5
M  END
>  <DihAtoms>  (1) 
11,13,19,20

>  <DihDeg>  (1) 
-45.52554362615872

$$$$
