
     RDKit          3D

 52 56  0  0  0  0  0  0  0  0999 V2000
   45.1952   33.4517   41.1694 F   0  0  0  0  0  0  0  0  0  0  0  0
   46.3735   34.0521   41.0402 C   0  0  0  0  0  0  0  0  0  0  0  0
   46.8411   34.7933   42.1050 C   0  0  0  0  0  0  0  0  0  0  0  0
   48.0762   35.4643   42.0709 C   0  0  0  0  0  0  0  0  0  0  0  0
   48.8648   35.3782   40.9121 C   0  0  0  0  0  0  0  0  0  0  0  0
   48.3464   34.6250   39.8840 C   0  0  0  0  0  0  0  0  0  0  0  0
   47.1637   33.9748   39.8981 C   0  0  0  0  0  0  0  0  0  0  0  0
   45.4690   33.9986   45.4085 C   0  0  0  0  0  0  0  0  0  0  0  0
   44.6193   35.1054   45.6448 C   0  0  0  0  0  0  0  0  0  0  0  0
   44.5261   36.1264   44.6526 C   0  0  0  0  0  0  0  0  0  0  0  0
   45.2771   35.9656   43.5184 N   0  0  0  0  0  0  0  0  0  0  0  0
   46.0599   34.9139   43.3369 C   0  0  0  0  0  0  0  0  0  0  0  0
   46.1569   33.9382   44.2713 N   0  0  0  0  0  0  0  0  0  0  0  0
   45.5425   33.0089   46.3995 N   0  0  0  0  0  0  0  0  0  0  0  0
   46.7543   33.2591   38.8148 O   0  0  0  0  0  0  0  0  0  0  0  0
   48.0463   34.7115   37.0189 O   0  0  0  0  0  0  0  0  0  0  0  0
   47.2921   33.4267   37.2223 P   0  0  2  0  0  0  0  0  0  0  0  0
   45.9607   33.3453   36.1702 O   0  0  0  0  0  0  0  0  0  0  0  0
   48.2956   32.1398   36.7571 O   0  0  0  0  0  0  0  0  0  0  0  0
   47.5419   30.9609   36.5670 C   0  0  0  0  0  0  0  0  0  0  0  0
   47.2086   30.9795   35.2098 F   0  0  0  0  0  0  0  0  0  0  0  0
   48.3352   29.8486   36.7671 F   0  0  0  0  0  0  0  0  0  0  0  0
   46.4638   30.8672   37.3811 F   0  0  0  0  0  0  0  0  0  0  0  0
   48.3838   36.0348   42.9534 H   0  0  0  0  0  0  0  0  0  0  0  0
   49.7934   35.9110   40.9503 H   0  0  0  0  0  0  0  0  0  0  0  0
   49.0641   34.6425   39.0603 H   0  0  0  0  0  0  0  0  0  0  0  0
   44.0434   35.1862   46.5623 H   0  0  0  0  0  0  0  0  0  0  0  0
   43.8859   36.9844   44.8035 H   0  0  0  0  0  0  0  0  0  0  0  0
   45.1531   32.0299   46.2984 H   0  0  0  0  0  0  0  0  0  0  0  0
   46.0316   33.3630   47.2516 H   0  0  0  0  0  0  0  0  0  0  0  0
   45.9406   34.0572   34.9819 C   0  0  0  0  0  0  0  0  0  0  0  0
   44.9101   33.6436   34.1262 C   0  0  0  0  0  0  0  0  0  0  0  0
   44.2083   32.8487   34.3786 H   0  0  0  0  0  0  0  0  0  0  0  0
   44.7399   34.2556   32.8781 C   0  0  0  0  0  0  0  0  0  0  0  0
   43.9196   33.8931   32.2509 H   0  0  0  0  0  0  0  0  0  0  0  0
   45.5562   35.2710   32.4369 C   0  0  0  0  0  0  0  0  0  0  0  0
   46.5480   35.6394   33.3085 C   0  0  0  0  0  0  0  0  0  0  0  0
   46.7390   35.0722   34.5149 C   0  0  0  0  0  0  0  0  0  0  0  0
   47.5094   35.3494   35.2110 H   0  0  0  0  0  0  0  0  0  0  0  0
   47.6553   36.9467   32.8234 S   0  0  0  0  0  0  0  0  0  0  0  0
   47.1330   37.4615   31.2011 C   0  0  0  0  0  0  0  0  0  0  0  0
   47.8562   38.4713   30.6222 C   0  0  0  0  0  0  0  0  0  0  0  0
   48.6959   38.9348   31.1121 H   0  0  0  0  0  0  0  0  0  0  0  0
   47.5041   38.9167   29.3681 C   0  0  0  0  0  0  0  0  0  0  0  0
   48.0918   39.7196   28.9261 H   0  0  0  0  0  0  0  0  0  0  0  0
   46.4325   38.3389   28.7202 C   0  0  0  0  0  0  0  0  0  0  0  0
   46.1433   38.6779   27.7338 H   0  0  0  0  0  0  0  0  0  0  0  0
   45.7496   37.3246   29.3667 C   0  0  0  0  0  0  0  0  0  0  0  0
   44.9123   36.9059   28.8075 H   0  0  0  0  0  0  0  0  0  0  0  0
   46.0583   36.8396   30.6210 C   0  0  0  0  0  0  0  0  0  0  0  0
   45.2792   35.8007   31.1609 N   0  0  0  0  0  0  0  0  0  0  0  0
   44.4917   35.4356   30.5890 H   0  0  0  0  0  0  0  0  0  0  0  0
  2  1  1  0
  2  3  2  0
  3 12  1  0
  4  3  1  0
  5  4  2  0
  6  7  2  0
  6  5  1  0
  7  2  1  0
  8  9  2  0
  8 14  1  0
 10  9  1  0
 11 10  2  0
 12 11  1  0
 12 13  2  0
 13  8  1  0
 15  7  1  0
 17 16  2  0
 17 15  1  1
 18 17  1  0
 19 17  1  0
 20 19  1  0
 20 22  1  0
 20 23  1  0
 21 20  1  0
  4 24  1  0
  5 25  1  0
  6 26  1  0
  9 27  1  0
 10 28  1  0
 14 29  1  0
 14 30  1  0
 31 32  2  0
 32 33  1  0
 32 34  1  0
 34 35  1  0
 34 36  2  0
 36 37  1  0
 37 38  2  0
 38 39  1  0
 37 40  1  0
 40 41  1  0
 41 42  2  0
 42 43  1  0
 42 44  1  0
 44 45  1  0
 44 46  2  0
 46 47  1  0
 46 48  1  0
 48 49  1  0
 48 50  2  0
 50 51  1  0
 51 52  1  0
 38 31  1  0
 50 41  1  0
 51 36  1  0
 18 31  1  0
M  ISO  8  24  14  25  14  26  14  27  14  28  14  33  16  35  16  39  16
M  ISO  5  43  16  45  16  47  16  49  16  52   5
M  END
>  <DihAtoms>  (1) 
16,17,30,31

>  <DihDeg>  (1) 
137.001315350319

$$$$
