
     RDKit          3D

 49 53  0  0  0  0  0  0  0  0999 V2000
   47.8490   33.9470   36.8080 O   0  0  0  0  0  0  0  0  0  0  0  0
   46.5920   33.1740   37.1230 P   0  0  2  0  0  0  0  0  0  0  0  0
   45.2180   34.0150   36.5640 O   0  0  0  0  0  0  0  0  0  0  0  0
   46.4070   32.9060   38.7760 O   0  0  0  0  0  0  0  0  0  0  0  0
   44.9830   33.2750   41.1790 F   0  0  0  0  0  0  0  0  0  0  0  0
   46.1500   33.8590   40.9590 C   0  0  0  0  0  0  0  0  0  0  0  0
   46.6890   34.6740   41.9360 C   0  0  0  0  0  0  0  0  0  0  0  0
   47.9160   35.3310   41.7940 C   0  0  0  0  0  0  0  0  0  0  0  0
   48.6410   35.1630   40.6130 C   0  0  0  0  0  0  0  0  0  0  0  0
   48.0760   34.3430   39.6620 C   0  0  0  0  0  0  0  0  0  0  0  0
   46.8840   33.7000   39.7870 C   0  0  0  0  0  0  0  0  0  0  0  0
   45.3950   34.1150   45.3240 C   0  0  0  0  0  0  0  0  0  0  0  0
   44.6320   35.2770   45.5410 C   0  0  0  0  0  0  0  0  0  0  0  0
   44.5630   36.2620   44.5130 C   0  0  0  0  0  0  0  0  0  0  0  0
   45.2580   35.9970   43.3650 N   0  0  0  0  0  0  0  0  0  0  0  0
   45.9700   34.8810   43.1990 C   0  0  0  0  0  0  0  0  0  0  0  0
   46.0360   33.9530   44.1680 N   0  0  0  0  0  0  0  0  0  0  0  0
   45.4510   33.1470   46.3570 N   0  0  0  0  0  0  0  0  0  0  0  0
   46.6090   31.7360   36.2240 O   0  0  0  0  0  0  0  0  0  0  0  0
   45.3960   31.2390   35.7660 C   0  0  0  0  0  0  0  0  0  0  0  0
   45.3000   30.9230   34.4260 C   0  0  0  0  0  0  0  0  0  0  0  0
   44.1000   30.4250   33.9490 C   0  0  0  0  0  0  0  0  0  0  0  0
   42.9770   30.2200   34.7260 C   0  0  0  0  0  0  0  0  0  0  0  0
   43.1090   30.5410   36.0330 C   0  0  0  0  0  0  0  0  0  0  0  0
   44.2620   31.0270   36.5310 C   0  0  0  0  0  0  0  0  0  0  0  0
   41.7050   30.3060   37.1060 S   0  0  0  0  0  0  0  0  0  0  0  0
   40.4090   29.6570   36.0660 C   0  0  0  0  0  0  0  0  0  0  0  0
   39.2080   29.3910   36.6760 C   0  0  0  0  0  0  0  0  0  0  0  0
   38.1520   28.8890   35.9540 C   0  0  0  0  0  0  0  0  0  0  0  0
   38.3440   28.6680   34.6140 C   0  0  0  0  0  0  0  0  0  0  0  0
   39.5620   28.9520   34.0620 C   0  0  0  0  0  0  0  0  0  0  0  0
   40.6560   29.4560   34.7340 C   0  0  0  0  0  0  0  0  0  0  0  0
   41.8550   29.7110   34.0710 N   0  0  0  0  0  0  0  0  0  0  0  0
   44.6911   34.3375   37.3376 H   0  0  0  0  0  0  0  0  0  0  0  0
   48.3036   35.9703   42.6009 H   0  0  0  0  0  0  0  0  0  0  0  0
   49.6098   35.6582   40.4511 H   0  0  0  0  0  0  0  0  0  0  0  0
   48.6338   34.1961   38.7254 H   0  0  0  0  0  0  0  0  0  0  0  0
   44.0963   35.4233   46.4905 H   0  0  0  0  0  0  0  0  0  0  0  0
   43.9810   37.1873   44.6364 H   0  0  0  0  0  0  0  0  0  0  0  0
   46.0015   32.2863   46.2269 H   0  0  0  0  0  0  0  0  0  0  0  0
   44.9412   33.3040   47.2381 H   0  0  0  0  0  0  0  0  0  0  0  0
   46.1580   31.0638   33.7522 H   0  0  0  0  0  0  0  0  0  0  0  0
   44.0366   30.1758   32.8795 H   0  0  0  0  0  0  0  0  0  0  0  0
   44.3049   31.2685   37.6033 H   0  0  0  0  0  0  0  0  0  0  0  0
   39.0900   29.5816   37.7529 H   0  0  0  0  0  0  0  0  0  0  0  0
   37.1863   28.6720   36.4340 H   0  0  0  0  0  0  0  0  0  0  0  0
   37.5295   28.2679   33.9923 H   0  0  0  0  0  0  0  0  0  0  0  0
   39.6802   28.7614   32.9851 H   0  0  0  0  0  0  0  0  0  0  0  0
   41.9151   29.5168   33.0613 H   0  0  0  0  0  0  0  0  0  0  0  0
  2  1  2  0
  2  4  1  0
  3  2  1  0
  4 11  1  0
  6  5  1  0
  6  7  2  0
  7 16  1  0
  8  7  1  0
  9  8  2  0
 10 11  2  0
 10  9  1  0
 11  6  1  0
 12 13  2  0
 12 18  1  0
 14 13  1  0
 15 14  2  0
 16 15  1  0
 16 17  2  0
 17 12  1  0
 19  2  1  0
 20 19  1  0
 20 25  1  0
 21 20  2  0
 22 21  1  0
 22 23  2  0
 23 24  1  0
 24 25  2  0
 24 26  1  0
 27 28  2  0
 27 26  1  0
 29 28  1  0
 30 29  2  0
 31 30  1  0
 31 32  2  0
 32 27  1  0
 33 23  1  0
 33 32  1  0
  3 34  1  0
  8 35  1  0
  9 36  1  0
 10 37  1  0
 13 38  1  0
 14 39  1  0
 18 40  1  0
 18 41  1  0
 21 42  1  0
 22 43  1  0
 25 44  1  0
 28 45  1  0
 29 46  1  0
 30 47  1  0
 31 48  1  0
 33 49  1  0
M  ISO  8  34   3  35  14  36  14  37  14  38  14  39  14  42  14  43  14
M  ISO  5  44  14  45  14  46  14  47  14  48  14
M  END
>  <minimizedAffinity>  (1) 
-7.70287561

>  <minimizedRMSD>  (1) 
3.2345221

$$$$
