
     RDKit          3D

 52 57  0  0  0  0  0  0  0  0999 V2000
   45.9437   33.5129   45.8486 C   0  0  0  0  0  0  0  0  0  0  0  0
   46.6963   33.6184   44.6515 C   0  0  0  0  0  0  0  0  0  0  0  0
   47.2967   32.4324   44.1312 C   0  0  0  0  0  0  0  0  0  0  0  0
   47.1215   31.2545   44.8044 N   0  0  0  0  0  0  0  0  0  0  0  0
   46.3899   31.2190   45.9453 C   0  0  0  0  0  0  0  0  0  0  0  0
   45.8126   32.3350   46.4540 N   0  0  0  0  0  0  0  0  0  0  0  0
   46.2681   29.9676   46.5657 N   0  0  0  0  0  0  0  0  0  0  0  0
   47.4209   29.2542   47.0059 C   0  0  2  0  0  0  0  0  0  0  0  0
   47.1672   27.8422   47.4057 C   0  0  0  0  0  0  0  0  0  0  0  0
   45.8907   27.5360   47.9290 N   0  0  0  0  0  0  0  0  0  0  0  0
   45.0267   28.6594   48.0761 C   0  0  0  0  0  0  0  0  0  0  0  0
   44.9540   29.3904   46.7650 C   0  0  0  0  0  0  0  0  0  0  0  0
   48.1864   30.0135   48.0229 C   0  0  0  0  0  0  0  0  0  0  0  0
   47.8040   30.8268   49.0682 C   0  0  0  0  0  0  0  0  0  0  0  0
   48.8584   31.2995   49.7415 N   0  0  0  0  0  0  0  0  0  0  0  0
   49.9259   30.7861   49.1243 C   0  0  0  0  0  0  0  0  0  0  0  0
   49.5281   30.0230   48.1047 N   0  0  0  0  0  0  0  0  0  0  0  0
   45.5145   34.4287   46.1975 H   0  0  0  0  0  0  0  0  0  0  0  0
   46.8616   34.5146   44.0900 H   0  0  0  0  0  0  0  0  0  0  0  0
   47.8729   32.4611   43.2325 H   0  0  0  0  0  0  0  0  0  0  0  0
   48.0838   29.1605   46.0903 H   0  0  0  0  0  0  0  0  0  0  0  0
   47.3881   27.1104   46.6025 H   0  0  0  0  0  0  0  0  0  0  0  0
   47.9241   27.6074   48.2072 H   0  0  0  0  0  0  0  0  0  0  0  0
   45.9136   27.0354   48.8507 H   0  0  0  0  0  0  0  0  0  0  0  0
   43.9896   28.2374   48.2465 H   0  0  0  0  0  0  0  0  0  0  0  0
   45.2250   29.2958   48.9523 H   0  0  0  0  0  0  0  0  0  0  0  0
   44.1359   30.1287   46.7277 H   0  0  0  0  0  0  0  0  0  0  0  0
   44.8155   28.6319   45.9787 H   0  0  0  0  0  0  0  0  0  0  0  0
   46.7762   31.0543   49.3093 H   0  0  0  0  0  0  0  0  0  0  0  0
   48.8651   31.9351   50.5740 H   0  0  0  0  0  0  0  0  0  0  0  0
   51.3351   30.9786   49.4491 C   0  0  0  0  0  0  0  0  0  0  0  0
   51.9081   30.6350   50.6553 C   0  0  0  0  0  0  0  0  0  0  0  0
   51.2812   30.1933   51.4176 H   0  0  0  0  0  0  0  0  0  0  0  0
   53.2451   30.8604   50.8546 C   0  0  0  0  0  0  0  0  0  0  0  0
   53.6150   30.5570   51.8408 H   0  0  0  0  0  0  0  0  0  0  0  0
   54.0929   31.4178   49.9255 C   0  0  0  0  0  0  0  0  0  0  0  0
   53.4943   31.7485   48.7373 C   0  0  0  0  0  0  0  0  0  0  0  0
   52.1640   31.5387   48.5023 C   0  0  0  0  0  0  0  0  0  0  0  0
   51.7381   31.8168   47.5478 H   0  0  0  0  0  0  0  0  0  0  0  0
   54.4950   32.4780   47.4585 S   0  0  0  0  0  0  0  0  0  0  0  0
   56.1451   32.5944   48.1163 C   0  0  0  0  0  0  0  0  0  0  0  0
   57.1350   33.1258   47.3353 C   0  0  0  0  0  0  0  0  0  0  0  0
   56.9139   33.4694   46.3325 H   0  0  0  0  0  0  0  0  0  0  0  0
   58.4340   33.2453   47.7825 C   0  0  0  0  0  0  0  0  0  0  0  0
   59.2645   33.6532   47.2240 H   0  0  0  0  0  0  0  0  0  0  0  0
   58.7005   32.8035   49.0615 C   0  0  0  0  0  0  0  0  0  0  0  0
   59.7051   32.8781   49.4525 H   0  0  0  0  0  0  0  0  0  0  0  0
   57.6756   32.2740   49.8171 C   0  0  0  0  0  0  0  0  0  0  0  0
   57.9712   31.9461   50.8229 H   0  0  0  0  0  0  0  0  0  0  0  0
   56.3729   32.1456   49.3906 C   0  0  0  0  0  0  0  0  0  0  0  0
   55.4425   31.5806   50.2913 N   0  0  0  0  0  0  0  0  0  0  0  0
   55.7603   31.2832   51.2325 H   0  0  0  0  0  0  0  0  0  0  0  0
  1  6  2  0
  2  1  1  0
  3  2  2  0
  3  4  1  0
  4  5  2  0
  5  6  1  0
  5  7  1  0
  7 12  1  0
  7  8  1  0
  8  9  1  0
  8 13  1  0
  9 10  1  0
 10 11  1  0
 12 11  1  0
 13 17  1  0
 13 14  2  0
 14 15  1  0
 16 15  1  0
 17 16  2  0
  1 18  1  0
  2 19  1  0
  3 20  1  0
  8 21  1  6
  9 22  1  0
  9 23  1  0
 10 24  1  0
 11 25  1  0
 11 26  1  0
 12 27  1  0
 12 28  1  0
 14 29  1  0
 15 30  1  0
 31 32  2  0
 32 33  1  0
 32 34  1  0
 34 35  1  0
 34 36  2  0
 36 37  1  0
 37 38  2  0
 38 39  1  0
 37 40  1  0
 40 41  1  0
 41 42  2  0
 42 43  1  0
 42 44  1  0
 44 45  1  0
 44 46  2  0
 46 47  1  0
 46 48  1  0
 48 49  1  0
 48 50  2  0
 50 51  1  0
 51 52  1  0
 38 31  1  0
 50 41  1  0
 51 36  1  0
 16 31  1  0
M  ISO  8  18  14  19  14  20  14  21  13  22  13  23  13  24   5  25  13
M  ISO  8  26  13  27  13  28  13  29  14  30   9  33  16  35  16  39  16
M  ISO  5  43  16  45  16  47  16  49  16  52   5
M  END
>  <DihAtoms>  (1) 
14,15,30,31

>  <DihDeg>  (1) 
-179.9987733050967

$$$$
