
     RDKit          3D

 38 41  0  0  0  0  0  0  0  0999 V2000
   47.7380   34.8555   42.0880 C   0  0  0  0  0  0  0  0  0  0  0  0
   48.3109   33.8064   42.8308 C   0  0  0  0  0  0  0  0  0  0  0  0
   47.5994   33.2953   43.9078 C   0  0  0  0  0  0  0  0  0  0  0  0
   46.3692   33.8250   44.2120 N   0  0  0  0  0  0  0  0  0  0  0  0
   45.8643   34.8275   43.4714 C   0  0  0  0  0  0  0  0  0  0  0  0
   46.5264   35.3352   42.4338 N   0  0  0  0  0  0  0  0  0  0  0  0
   49.9073   33.1370   42.4165 S   0  0  0  0  0  0  0  0  0  0  0  0
   48.5585   35.3429   40.9586 C   0  0  0  0  0  0  0  0  0  0  0  0
   48.1910   34.7042   39.6501 C   0  0  0  0  0  0  0  0  0  0  0  0
   47.9845   32.4874   44.5203 H   0  0  0  0  0  0  0  0  0  0  0  0
   44.8861   35.2124   43.7532 H   0  0  0  0  0  0  0  0  0  0  0  0
   49.7651   31.9851   41.6160 H   0  0  0  0  0  0  0  0  0  0  0  0
   48.3652   36.4484   40.8731 H   0  0  0  0  0  0  0  0  0  0  0  0
   49.6391   35.2446   41.1963 H   0  0  0  0  0  0  0  0  0  0  0  0
   48.3180   33.6084   39.7466 H   0  0  0  0  0  0  0  0  0  0  0  0
   47.1315   34.9583   39.4503 H   0  0  0  0  0  0  0  0  0  0  0  0
   49.0887   35.2845   38.6179 C   0  0  0  0  0  0  0  0  0  0  0  0
   48.7172   36.4210   37.9356 C   0  0  0  0  0  0  0  0  0  0  0  0
   47.7624   36.8654   38.1780 H   0  0  0  0  0  0  0  0  0  0  0  0
   49.5520   36.9408   36.9917 C   0  0  0  0  0  0  0  0  0  0  0  0
   49.1771   37.8407   36.5023 H   0  0  0  0  0  0  0  0  0  0  0  0
   50.7761   36.4144   36.6461 C   0  0  0  0  0  0  0  0  0  0  0  0
   51.1108   35.2841   37.3464 C   0  0  0  0  0  0  0  0  0  0  0  0
   50.2959   34.7375   38.2994 C   0  0  0  0  0  0  0  0  0  0  0  0
   50.6059   33.8358   38.8311 H   0  0  0  0  0  0  0  0  0  0  0  0
   52.6740   34.5113   36.9860 S   0  0  0  0  0  0  0  0  0  0  0  0
   53.4486   35.4863   35.7131 C   0  0  0  0  0  0  0  0  0  0  0  0
   54.6772   35.1060   35.2468 C   0  0  0  0  0  0  0  0  0  0  0  0
   55.1724   34.2304   35.6410 H   0  0  0  0  0  0  0  0  0  0  0  0
   55.3242   35.8230   34.2620 C   0  0  0  0  0  0  0  0  0  0  0  0
   56.2924   35.5914   33.8397 H   0  0  0  0  0  0  0  0  0  0  0  0
   54.6821   36.9390   33.7665 C   0  0  0  0  0  0  0  0  0  0  0  0
   55.1556   37.5287   32.9935 H   0  0  0  0  0  0  0  0  0  0  0  0
   53.4439   37.2829   34.2682 C   0  0  0  0  0  0  0  0  0  0  0  0
   53.0016   38.1859   33.8187 H   0  0  0  0  0  0  0  0  0  0  0  0
   52.7777   36.5881   35.2471 C   0  0  0  0  0  0  0  0  0  0  0  0
   51.5134   37.0793   35.6464 N   0  0  0  0  0  0  0  0  0  0  0  0
   51.1297   37.9257   35.2057 H   0  0  0  0  0  0  0  0  0  0  0  0
  1  6  1  0
  1  2  2  0
  2  3  1  0
  3  4  2  0
  5  4  1  0
  6  5  2  0
  7  2  1  0
  8  1  1  0
  9  8  1  0
  3 10  1  0
  5 11  1  0
  7 12  1  0
  8 13  1  0
  8 14  1  0
  9 15  1  0
  9 16  1  0
 17 18  2  0
 18 19  1  0
 18 20  1  0
 20 21  1  0
 20 22  2  0
 22 23  1  0
 23 24  2  0
 24 25  1  0
 23 26  1  0
 26 27  1  0
 27 28  2  0
 28 29  1  0
 28 30  1  0
 30 31  1  0
 30 32  2  0
 32 33  1  0
 32 34  1  0
 34 35  1  0
 34 36  2  0
 36 37  1  0
 37 38  1  0
 24 17  1  0
 36 27  1  0
 37 22  1  0
  9 17  1  0
M  ISO  8  10  14  11  14  12  11  13   8  14   8  15   8  16   8  19  16
M  ISO  7  21  16  25  16  29  16  31  16  33  16  35  16  38   5
M  END
>  <DihAtoms>  (1) 
7,8,16,17

>  <DihDeg>  (1) 
-89.99931781763166

$$$$
