
     RDKit          3D

 38 41  0  0  0  0  0  0  0  0999 V2000
   47.7380   34.8555   42.0880 C   0  0  0  0  0  0  0  0  0  0  0  0
   48.3109   33.8064   42.8308 C   0  0  0  0  0  0  0  0  0  0  0  0
   47.5994   33.2953   43.9078 C   0  0  0  0  0  0  0  0  0  0  0  0
   46.3692   33.8250   44.2120 N   0  0  0  0  0  0  0  0  0  0  0  0
   45.8643   34.8275   43.4714 C   0  0  0  0  0  0  0  0  0  0  0  0
   46.5264   35.3352   42.4338 N   0  0  0  0  0  0  0  0  0  0  0  0
   49.9073   33.1370   42.4165 S   0  0  0  0  0  0  0  0  0  0  0  0
   48.5585   35.3429   40.9586 C   0  0  0  0  0  0  0  0  0  0  0  0
   48.1910   34.7042   39.6501 C   0  0  0  0  0  0  0  0  0  0  0  0
   47.9845   32.4874   44.5203 H   0  0  0  0  0  0  0  0  0  0  0  0
   44.8861   35.2124   43.7532 H   0  0  0  0  0  0  0  0  0  0  0  0
   49.7651   31.9851   41.6160 H   0  0  0  0  0  0  0  0  0  0  0  0
   48.3652   36.4484   40.8731 H   0  0  0  0  0  0  0  0  0  0  0  0
   49.6391   35.2446   41.1963 H   0  0  0  0  0  0  0  0  0  0  0  0
   48.3180   33.6084   39.7466 H   0  0  0  0  0  0  0  0  0  0  0  0
   47.1315   34.9583   39.4503 H   0  0  0  0  0  0  0  0  0  0  0  0
   49.0887   35.2845   38.6179 C   0  0  0  0  0  0  0  0  0  0  0  0
   49.0846   36.6402   38.3784 C   0  0  0  0  0  0  0  0  0  0  0  0
   48.4132   37.2535   38.9622 H   0  0  0  0  0  0  0  0  0  0  0  0
   49.9142   37.1568   37.4281 C   0  0  0  0  0  0  0  0  0  0  0  0
   49.8441   38.2385   37.3061 H   0  0  0  0  0  0  0  0  0  0  0  0
   50.7865   36.4206   36.6587 C   0  0  0  0  0  0  0  0  0  0  0  0
   50.7618   35.0760   36.9259 C   0  0  0  0  0  0  0  0  0  0  0  0
   49.9416   34.5263   37.8725 C   0  0  0  0  0  0  0  0  0  0  0  0
   49.9574   33.4491   38.0497 H   0  0  0  0  0  0  0  0  0  0  0  0
   51.8490   34.0194   35.9919 S   0  0  0  0  0  0  0  0  0  0  0  0
   52.7501   35.0699   34.8716 C   0  0  0  0  0  0  0  0  0  0  0  0
   53.6652   34.5027   34.0275 C   0  0  0  0  0  0  0  0  0  0  0  0
   53.8413   33.4368   34.0371 H   0  0  0  0  0  0  0  0  0  0  0  0
   54.3920   35.2673   33.1388 C   0  0  0  0  0  0  0  0  0  0  0  0
   55.1313   34.8992   32.4407 H   0  0  0  0  0  0  0  0  0  0  0  0
   54.1585   36.6270   33.1357 C   0  0  0  0  0  0  0  0  0  0  0  0
   54.7077   37.2618   32.4540 H   0  0  0  0  0  0  0  0  0  0  0  0
   53.2258   37.1530   34.0055 C   0  0  0  0  0  0  0  0  0  0  0  0
   53.1009   38.2452   33.9384 H   0  0  0  0  0  0  0  0  0  0  0  0
   52.4891   36.4161   34.8994 C   0  0  0  0  0  0  0  0  0  0  0  0
   51.5741   37.1156   35.7196 N   0  0  0  0  0  0  0  0  0  0  0  0
   51.4825   38.1362   35.6309 H   0  0  0  0  0  0  0  0  0  0  0  0
  1  6  1  0
  1  2  2  0
  2  3  1  0
  3  4  2  0
  5  4  1  0
  6  5  2  0
  7  2  1  0
  8  1  1  0
  9  8  1  0
  3 10  1  0
  5 11  1  0
  7 12  1  0
  8 13  1  0
  8 14  1  0
  9 15  1  0
  9 16  1  0
 17 18  2  0
 18 19  1  0
 18 20  1  0
 20 21  1  0
 20 22  2  0
 22 23  1  0
 23 24  2  0
 24 25  1  0
 23 26  1  0
 26 27  1  0
 27 28  2  0
 28 29  1  0
 28 30  1  0
 30 31  1  0
 30 32  2  0
 32 33  1  0
 32 34  1  0
 34 35  1  0
 34 36  2  0
 36 37  1  0
 37 38  1  0
 24 17  1  0
 36 27  1  0
 37 22  1  0
  9 17  1  0
M  ISO  8  10  14  11  14  12  11  13   8  14   8  15   8  16   8  19  16
M  ISO  7  21  16  25  16  29  16  31  16  33  16  35  16  38   5
M  END
>  <DihAtoms>  (1) 
7,8,16,17

>  <DihDeg>  (1) 
-89.99931781763166

$$$$
