
     RDKit          3D

 41 45  0  0  0  0  0  0  0  0999 V2000
   45.5336   34.1467   44.4175 C   0  0  0  0  0  0  0  0  0  0  0  0
   46.4874   33.5877   43.5289 C   0  0  0  0  0  0  0  0  0  0  0  0
   47.3606   32.6648   44.0645 C   0  0  0  0  0  0  0  0  0  0  0  0
   47.2694   32.3430   45.3788 N   0  0  0  0  0  0  0  0  0  0  0  0
   46.3477   32.8987   46.1833 C   0  0  0  0  0  0  0  0  0  0  0  0
   45.4813   33.8031   45.6900 N   0  0  0  0  0  0  0  0  0  0  0  0
   46.4206   32.4025   47.5894 C   0  0  0  0  0  0  0  0  0  0  0  0
   45.3790   32.8996   48.3491 F   0  0  0  0  0  0  0  0  0  0  0  0
   47.6165   32.7499   48.1716 F   0  0  0  0  0  0  0  0  0  0  0  0
   46.3834   30.9922   47.5663 F   0  0  0  0  0  0  0  0  0  0  0  0
   44.6088   35.1550   43.8568 C   0  0  1  0  0  0  0  0  0  0  0  0
   44.8297   36.5927   44.3249 C   0  0  0  0  0  0  0  0  0  0  0  0
   44.9999   36.1811   42.9069 C   0  0  1  0  0  0  0  0  0  0  0  0
   46.5829   33.8206   42.4747 H   0  0  0  0  0  0  0  0  0  0  0  0
   48.1272   32.1906   43.4339 H   0  0  0  0  0  0  0  0  0  0  0  0
   43.5477   34.8013   43.8628 H   0  0  0  0  0  0  0  0  0  0  0  0
   45.6895   36.7441   45.0117 H   0  0  0  0  0  0  0  0  0  0  0  0
   43.9058   37.0926   44.6600 H   0  0  0  0  0  0  0  0  0  0  0  0
   44.1847   36.5393   42.2053 H   0  0  0  0  0  0  0  0  0  0  0  0
   46.3395   36.4790   42.4028 C   0  0  0  0  0  0  0  0  0  0  0  0
   47.5030   35.7584   42.6451 C   0  0  0  0  0  0  0  0  0  0  0  0
   47.4183   34.8883   43.2827 H   0  0  0  0  0  0  0  0  0  0  0  0
   48.7295   36.1052   42.1217 C   0  0  0  0  0  0  0  0  0  0  0  0
   49.5720   35.4509   42.3901 H   0  0  0  0  0  0  0  0  0  0  0  0
   48.8821   37.2085   41.3105 C   0  0  0  0  0  0  0  0  0  0  0  0
   47.7656   37.9590   41.0368 C   0  0  0  0  0  0  0  0  0  0  0  0
   46.5804   37.5832   41.5711 C   0  0  0  0  0  0  0  0  0  0  0  0
   45.7136   38.2117   41.3264 H   0  0  0  0  0  0  0  0  0  0  0  0
   47.9328   39.3916   39.9904 S   0  0  0  0  0  0  0  0  0  0  0  0
   49.6565   39.4665   39.5464 C   0  0  0  0  0  0  0  0  0  0  0  0
   49.9787   40.5190   38.7335 C   0  0  0  0  0  0  0  0  0  0  0  0
   49.2932   41.2548   38.3719 H   0  0  0  0  0  0  0  0  0  0  0  0
   51.3080   40.6666   38.3276 C   0  0  0  0  0  0  0  0  0  0  0  0
   51.6208   41.4605   37.6986 H   0  0  0  0  0  0  0  0  0  0  0  0
   52.2383   39.7507   38.7602 C   0  0  0  0  0  0  0  0  0  0  0  0
   53.2510   39.8652   38.4496 H   0  0  0  0  0  0  0  0  0  0  0  0
   51.8104   38.7201   39.5818 C   0  0  0  0  0  0  0  0  0  0  0  0
   52.6209   38.0351   39.8788 H   0  0  0  0  0  0  0  0  0  0  0  0
   50.5200   38.5110   40.0219 C   0  0  0  0  0  0  0  0  0  0  0  0
   50.1823   37.4380   40.8532 N   0  0  0  0  0  0  0  0  0  0  0  0
   50.9825   36.8205   41.1053 H   0  0  0  0  0  0  0  0  0  0  0  0
  1  6  2  0
  2  3  2  0
  2  1  1  0
  3  4  1  0
  4  5  2  0
  5  7  1  0
  6  5  1  0
  7  9  1  0
  7  8  1  0
 10  7  1  0
 11 12  1  0
 11  1  1  0
 13 11  1  0
 13 12  1  0
  2 14  1  0
  3 15  1  0
 11 16  1  6
 12 17  1  0
 12 18  1  0
 13 19  1  6
 20 21  2  0
 21 22  1  0
 21 23  1  0
 23 24  1  0
 23 25  2  0
 25 26  1  0
 26 27  2  0
 27 28  1  0
 26 29  1  0
 29 30  1  0
 30 31  2  0
 31 32  1  0
 31 33  1  0
 33 34  1  0
 33 35  2  0
 35 36  1  0
 35 37  1  0
 37 38  1  0
 37 39  2  0
 39 40  1  0
 40 41  1  0
 27 20  1  0
 39 30  1  0
 40 25  1  0
 13 20  1  0
M  ISO  8  14  14  15  14  16  13  17  13  18  13  19  13  22  16  24  16
M  ISO  6  28  16  32  16  34  16  36  16  38  16  41   5
M  END
>  <DihAtoms>  (1) 
10,12,19,20

>  <DihDeg>  (1) 
-38.893139644763195

$$$$
