
     RDKit          3D

 41 45  0  0  0  0  0  0  0  0999 V2000
   45.5336   34.1467   44.4175 C   0  0  0  0  0  0  0  0  0  0  0  0
   46.4874   33.5877   43.5289 C   0  0  0  0  0  0  0  0  0  0  0  0
   47.3606   32.6648   44.0645 C   0  0  0  0  0  0  0  0  0  0  0  0
   47.2694   32.3430   45.3788 N   0  0  0  0  0  0  0  0  0  0  0  0
   46.3477   32.8987   46.1833 C   0  0  0  0  0  0  0  0  0  0  0  0
   45.4813   33.8031   45.6900 N   0  0  0  0  0  0  0  0  0  0  0  0
   46.4206   32.4025   47.5894 C   0  0  0  0  0  0  0  0  0  0  0  0
   45.3790   32.8996   48.3491 F   0  0  0  0  0  0  0  0  0  0  0  0
   47.6165   32.7499   48.1716 F   0  0  0  0  0  0  0  0  0  0  0  0
   46.3834   30.9922   47.5663 F   0  0  0  0  0  0  0  0  0  0  0  0
   44.6088   35.1550   43.8568 C   0  0  1  0  0  0  0  0  0  0  0  0
   44.8297   36.5927   44.3249 C   0  0  0  0  0  0  0  0  0  0  0  0
   44.9999   36.1811   42.9069 C   0  0  1  0  0  0  0  0  0  0  0  0
   46.5829   33.8206   42.4747 H   0  0  0  0  0  0  0  0  0  0  0  0
   48.1272   32.1906   43.4339 H   0  0  0  0  0  0  0  0  0  0  0  0
   43.5477   34.8013   43.8628 H   0  0  0  0  0  0  0  0  0  0  0  0
   45.6895   36.7441   45.0117 H   0  0  0  0  0  0  0  0  0  0  0  0
   43.9058   37.0926   44.6600 H   0  0  0  0  0  0  0  0  0  0  0  0
   44.1847   36.5393   42.2053 H   0  0  0  0  0  0  0  0  0  0  0  0
   46.3395   36.4790   42.4028 C   0  0  0  0  0  0  0  0  0  0  0  0
   46.7726   37.6711   41.8345 C   0  0  0  0  0  0  0  0  0  0  0  0
   46.0432   38.4651   41.7423 H   0  0  0  0  0  0  0  0  0  0  0  0
   48.0613   37.8722   41.3905 C   0  0  0  0  0  0  0  0  0  0  0  0
   48.2756   38.8618   40.9606 H   0  0  0  0  0  0  0  0  0  0  0  0
   49.0190   36.8859   41.4836 C   0  0  0  0  0  0  0  0  0  0  0  0
   48.6475   35.6857   42.0370 C   0  0  0  0  0  0  0  0  0  0  0  0
   47.3716   35.5301   42.4605 C   0  0  0  0  0  0  0  0  0  0  0  0
   47.1177   34.5546   42.8964 H   0  0  0  0  0  0  0  0  0  0  0  0
   49.8651   34.3915   42.1705 S   0  0  0  0  0  0  0  0  0  0  0  0
   51.3652   35.0678   41.4877 C   0  0  0  0  0  0  0  0  0  0  0  0
   52.4260   34.2036   41.5049 C   0  0  0  0  0  0  0  0  0  0  0  0
   52.4048   33.2043   41.8831 H   0  0  0  0  0  0  0  0  0  0  0  0
   53.6506   34.6394   40.9911 C   0  0  0  0  0  0  0  0  0  0  0  0
   54.5092   34.0178   40.9760 H   0  0  0  0  0  0  0  0  0  0  0  0
   53.7416   35.9167   40.4893 C   0  0  0  0  0  0  0  0  0  0  0  0
   54.6760   36.2468   40.0982 H   0  0  0  0  0  0  0  0  0  0  0  0
   52.6087   36.7142   40.5177 C   0  0  0  0  0  0  0  0  0  0  0  0
   52.7731   37.7191   40.0966 H   0  0  0  0  0  0  0  0  0  0  0  0
   51.3705   36.3539   41.0074 C   0  0  0  0  0  0  0  0  0  0  0  0
   50.2810   37.2309   40.9933 N   0  0  0  0  0  0  0  0  0  0  0  0
   50.4875   38.1671   40.5857 H   0  0  0  0  0  0  0  0  0  0  0  0
  1  6  2  0
  2  3  2  0
  2  1  1  0
  3  4  1  0
  4  5  2  0
  5  7  1  0
  6  5  1  0
  7  9  1  0
  7  8  1  0
 10  7  1  0
 11 12  1  0
 11  1  1  0
 13 11  1  0
 13 12  1  0
  2 14  1  0
  3 15  1  0
 11 16  1  6
 12 17  1  0
 12 18  1  0
 13 19  1  6
 20 21  2  0
 21 22  1  0
 21 23  1  0
 23 24  1  0
 23 25  2  0
 25 26  1  0
 26 27  2  0
 27 28  1  0
 26 29  1  0
 29 30  1  0
 30 31  2  0
 31 32  1  0
 31 33  1  0
 33 34  1  0
 33 35  2  0
 35 36  1  0
 35 37  1  0
 37 38  1  0
 37 39  2  0
 39 40  1  0
 40 41  1  0
 27 20  1  0
 39 30  1  0
 40 25  1  0
 13 20  1  0
M  ISO  8  14  14  15  14  16  13  17  13  18  13  19  13  22  16  24  16
M  ISO  6  28  16  32  16  34  16  36  16  38  16  41   5
M  END
>  <DihAtoms>  (1) 
10,12,19,20

>  <DihDeg>  (1) 
-38.893139644763195

$$$$
