
     RDKit          3D

 41 45  0  0  0  0  0  0  0  0999 V2000
   45.5336   34.1467   44.4175 C   0  0  0  0  0  0  0  0  0  0  0  0
   46.4874   33.5877   43.5289 C   0  0  0  0  0  0  0  0  0  0  0  0
   47.3606   32.6648   44.0645 C   0  0  0  0  0  0  0  0  0  0  0  0
   47.2694   32.3430   45.3788 N   0  0  0  0  0  0  0  0  0  0  0  0
   46.3477   32.8987   46.1833 C   0  0  0  0  0  0  0  0  0  0  0  0
   45.4813   33.8031   45.6900 N   0  0  0  0  0  0  0  0  0  0  0  0
   46.4206   32.4025   47.5894 C   0  0  0  0  0  0  0  0  0  0  0  0
   45.3790   32.8996   48.3491 F   0  0  0  0  0  0  0  0  0  0  0  0
   47.6165   32.7499   48.1716 F   0  0  0  0  0  0  0  0  0  0  0  0
   46.3834   30.9922   47.5663 F   0  0  0  0  0  0  0  0  0  0  0  0
   44.6088   35.1550   43.8568 C   0  0  1  0  0  0  0  0  0  0  0  0
   44.8297   36.5927   44.3249 C   0  0  0  0  0  0  0  0  0  0  0  0
   44.9999   36.1811   42.9069 C   0  0  1  0  0  0  0  0  0  0  0  0
   46.5829   33.8206   42.4747 H   0  0  0  0  0  0  0  0  0  0  0  0
   48.1272   32.1906   43.4339 H   0  0  0  0  0  0  0  0  0  0  0  0
   43.5477   34.8013   43.8628 H   0  0  0  0  0  0  0  0  0  0  0  0
   45.6895   36.7441   45.0117 H   0  0  0  0  0  0  0  0  0  0  0  0
   43.9058   37.0926   44.6600 H   0  0  0  0  0  0  0  0  0  0  0  0
   44.1847   36.5393   42.2053 H   0  0  0  0  0  0  0  0  0  0  0  0
   46.3395   36.4790   42.4028 C   0  0  0  0  0  0  0  0  0  0  0  0
   47.3044   37.2725   43.0120 C   0  0  0  0  0  0  0  0  0  0  0  0
   47.0394   37.7308   43.9557 H   0  0  0  0  0  0  0  0  0  0  0  0
   48.5513   37.4960   42.4701 C   0  0  0  0  0  0  0  0  0  0  0  0
   49.2226   38.1437   43.0529 H   0  0  0  0  0  0  0  0  0  0  0  0
   48.9265   36.9366   41.2680 C   0  0  0  0  0  0  0  0  0  0  0  0
   48.0128   36.1428   40.6203 C   0  0  0  0  0  0  0  0  0  0  0  0
   46.7994   35.9492   41.1875 C   0  0  0  0  0  0  0  0  0  0  0  0
   46.0995   35.3076   40.6357 H   0  0  0  0  0  0  0  0  0  0  0  0
   48.4705   35.4059   39.0638 S   0  0  0  0  0  0  0  0  0  0  0  0
   50.1366   35.9495   38.7438 C   0  0  0  0  0  0  0  0  0  0  0  0
   50.6632   35.4767   37.5727 C   0  0  0  0  0  0  0  0  0  0  0  0
   50.1592   34.8369   36.8806 H   0  0  0  0  0  0  0  0  0  0  0  0
   51.9668   35.8460   37.2296 C   0  0  0  0  0  0  0  0  0  0  0  0
   52.4309   35.5130   36.3365 H   0  0  0  0  0  0  0  0  0  0  0  0
   52.6679   36.6684   38.0803 C   0  0  0  0  0  0  0  0  0  0  0  0
   53.6614   36.9486   37.8169 H   0  0  0  0  0  0  0  0  0  0  0  0
   52.0446   37.0933   39.2428 C   0  0  0  0  0  0  0  0  0  0  0  0
   52.6790   37.7469   39.8629 H   0  0  0  0  0  0  0  0  0  0  0  0
   50.7655   36.7710   39.6461 C   0  0  0  0  0  0  0  0  0  0  0  0
   50.2195   37.2503   40.8413 N   0  0  0  0  0  0  0  0  0  0  0  0
   50.8580   37.8633   41.3908 H   0  0  0  0  0  0  0  0  0  0  0  0
  1  6  2  0
  2  3  2  0
  2  1  1  0
  3  4  1  0
  4  5  2  0
  5  7  1  0
  6  5  1  0
  7  9  1  0
  7  8  1  0
 10  7  1  0
 11 12  1  0
 11  1  1  0
 13 11  1  0
 13 12  1  0
  2 14  1  0
  3 15  1  0
 11 16  1  6
 12 17  1  0
 12 18  1  0
 13 19  1  6
 20 21  2  0
 21 22  1  0
 21 23  1  0
 23 24  1  0
 23 25  2  0
 25 26  1  0
 26 27  2  0
 27 28  1  0
 26 29  1  0
 29 30  1  0
 30 31  2  0
 31 32  1  0
 31 33  1  0
 33 34  1  0
 33 35  2  0
 35 36  1  0
 35 37  1  0
 37 38  1  0
 37 39  2  0
 39 40  1  0
 40 41  1  0
 27 20  1  0
 39 30  1  0
 40 25  1  0
 13 20  1  0
M  ISO  8  14  14  15  14  16  13  17  13  18  13  19  13  22  16  24  16
M  ISO  6  28  16  32  16  34  16  36  16  38  16  41   5
M  END
>  <DihAtoms>  (1) 
10,12,19,20

>  <DihDeg>  (1) 
-38.893139644763195

$$$$
