
     RDKit          3D

 57 62  0  0  1  0  0  0  0  0999 V2000
   46.0300   32.3750   47.4260 C   0  0  0  0  0  0  0  0  0  0  0  0
   44.9010   31.8400   48.0040 C   0  0  0  0  0  0  0  0  0  0  0  0
   45.0390   31.0290   49.1240 C   0  0  0  0  0  0  0  0  0  0  0  0
   46.3280   30.8260   49.5700 C   0  0  0  0  0  0  0  0  0  0  0  0
   47.4590   31.3490   49.0080 C   0  0  0  0  0  0  0  0  0  0  0  0
   47.2860   32.1330   47.9200 N   0  0  0  0  0  0  0  0  0  0  0  0
   48.8040   31.1360   49.4760 C   0  0  0  0  0  0  0  0  0  0  0  0
   49.7220   32.1580   49.3710 C   0  0  0  0  0  0  0  0  0  0  0  0
   51.0220   31.9480   49.8240 C   0  0  0  0  0  0  0  0  0  0  0  0
   51.4750   30.7720   50.3830 C   0  0  0  0  0  0  0  0  0  0  0  0
   50.5220   29.7880   50.4640 C   0  0  0  0  0  0  0  0  0  0  0  0
   49.2470   29.9550   50.0330 C   0  0  0  0  0  0  0  0  0  0  0  0
   51.0130   28.2280   51.1730 S   0  0  0  0  0  0  0  0  0  0  0  0
   52.7220   28.3740   51.6170 C   0  0  0  0  0  0  0  0  0  0  0  0
   53.3390   27.2940   52.1870 C   0  0  0  0  0  0  0  0  0  0  0  0
   54.6670   27.3490   52.5520 C   0  0  0  0  0  0  0  0  0  0  0  0
   55.3540   28.5230   52.3250 C   0  0  0  0  0  0  0  0  0  0  0  0
   54.6820   29.5800   51.7470 C   0  0  0  0  0  0  0  0  0  0  0  0
   53.3570   29.5650   51.3670 C   0  0  0  0  0  0  0  0  0  0  0  0
   52.8270   30.7330   50.7890 N   0  0  0  0  0  0  0  0  0  0  0  0
   44.9120   34.9740   45.1340 C   0  0  0  0  0  0  0  0  0  0  0  0
   45.7560   34.8020   44.0260 C   0  0  0  0  0  0  0  0  0  0  0  0
   46.7160   33.7850   44.0690 C   0  0  0  0  0  0  0  0  0  0  0  0
   46.7440   33.0380   45.2060 N   0  0  0  0  0  0  0  0  0  0  0  0
   45.9210   33.2270   46.2520 C   0  0  0  0  0  0  0  0  0  0  0  0
   44.9940   34.2090   46.2130 N   0  0  0  0  0  0  0  0  0  0  0  0
   47.6340   33.5000   43.0190 N   0  0  0  0  0  0  0  0  0  0  0  0
   47.4660   32.3170   42.2080 C   0  0  0  0  0  0  0  0  0  0  0  0
   48.7600   31.9240   41.5330 C   0  0  0  0  0  0  0  0  0  0  0  0
   49.4150   32.9710   40.8550 N   0  0  0  0  0  0  0  0  0  0  0  0
   49.3460   34.2630   41.4380 C   0  0  2  0  0  0  0  0  0  0  0  0
   48.7300   34.3900   42.7700 C   0  0  0  0  0  0  0  0  0  0  0  0
   48.5850   35.1770   40.4950 C   0  0  0  0  0  0  0  0  0  0  0  0
   49.2360   36.3990   40.3830 F   0  0  0  0  0  0  0  0  0  0  0  0
   47.3780   35.4490   41.1140 F   0  0  0  0  0  0  0  0  0  0  0  0
   48.4390   34.6550   39.2400 F   0  0  0  0  0  0  0  0  0  0  0  0
   43.9056   32.0510   47.5861 H   0  0  0  0  0  0  0  0  0  0  0  0
   44.1711   30.5757   49.6253 H   0  0  0  0  0  0  0  0  0  0  0  0
   46.4575   30.1870   50.4560 H   0  0  0  0  0  0  0  0  0  0  0  0
   49.4323   33.1258   48.9357 H   0  0  0  0  0  0  0  0  0  0  0  0
   51.7373   32.7783   49.7292 H   0  0  0  0  0  0  0  0  0  0  0  0
   48.5404   29.1177   50.1314 H   0  0  0  0  0  0  0  0  0  0  0  0
   52.7676   26.3694   52.3562 H   0  0  0  0  0  0  0  0  0  0  0  0
   55.1643   26.4818   53.0109 H   0  0  0  0  0  0  0  0  0  0  0  0
   56.4154   28.6146   52.5990 H   0  0  0  0  0  0  0  0  0  0  0  0
   55.2479   30.5076   51.5759 H   0  0  0  0  0  0  0  0  0  0  0  0
   53.4261   31.5611   50.6617 H   0  0  0  0  0  0  0  0  0  0  0  0
   44.1556   35.7721   45.1058 H   0  0  0  0  0  0  0  0  0  0  0  0
   45.6648   35.4522   43.1434 H   0  0  0  0  0  0  0  0  0  0  0  0
   47.1303   31.4883   42.8488 H   0  0  0  0  0  0  0  0  0  0  0  0
   46.7205   32.5339   41.4288 H   0  0  0  0  0  0  0  0  0  0  0  0
   49.4428   31.5349   42.3026 H   0  0  0  0  0  0  0  0  0  0  0  0
   48.4963   31.1779   40.7690 H   0  0  0  0  0  0  0  0  0  0  0  0
   49.0052   33.0340   39.9121 H   0  0  0  0  0  0  0  0  0  0  0  0
   50.4013   34.5320   41.5929 H   0  0  0  0  0  0  0  0  0  0  0  0
   49.5061   34.1948   43.5247 H   0  0  0  0  0  0  0  0  0  0  0  0
   48.3165   35.4080   42.8212 H   0  0  0  0  0  0  0  0  0  0  0  0
  1  6  1  0
  1  2  2  0
  2  3  1  0
  3  4  2  0
  5  7  1  0
  5  4  1  0
  6  5  2  0
  7 12  1  0
  8  7  2  0
  8  9  1  0
  9 10  2  0
 10 11  1  0
 10 20  1  0
 11 13  1  0
 12 11  2  0
 13 14  1  0
 14 15  2  0
 15 16  1  0
 17 16  2  0
 18 17  1  0
 19 14  1  0
 19 18  2  0
 20 19  1  0
 21 26  2  0
 22 23  2  0
 22 21  1  0
 23 24  1  0
 24 25  2  0
 25  1  1  0
 26 25  1  0
 27 23  1  0
 28 27  1  0
 29 28  1  0
 30 31  1  0
 30 29  1  0
 31 32  1  0
 32 27  1  0
 33 35  1  0
 33 31  1  0
 34 33  1  0
 36 33  1  0
  2 37  1  0
  3 38  1  0
  4 39  1  0
  8 40  1  0
  9 41  1  0
 12 42  1  0
 15 43  1  0
 16 44  1  0
 17 45  1  0
 18 46  1  0
 20 47  1  0
 21 48  1  0
 22 49  1  0
 28 50  1  0
 28 51  1  0
 29 52  1  0
 29 53  1  0
 30 54  1  0
 31 55  1  1
 32 56  1  0
 32 57  1  0
M  ISO  8  37  14  38  14  39  14  40  14  41  14  42  14  43  14  44  14
M  ISO  8  45  14  46  14  48  14  49  14  50  13  51  13  52  13  53  13
M  ISO  4  54   5  55  13  56  13  57  13
M  END
>  <minimizedAffinity>  (1) 
-8.31794357

>  <minimizedRMSD>  (1) 
0.957149446

$$$$
