
     RDKit          3D

 37 40  0  0  0  0  0  0  0  0999 V2000
   44.5540   36.0435   44.4879 C   0  0  0  0  0  0  0  0  0  0  0  0
   45.2131   35.9519   43.2431 C   0  0  0  0  0  0  0  0  0  0  0  0
   46.0848   34.8739   43.0232 C   0  0  0  0  0  0  0  0  0  0  0  0
   46.2408   33.9725   44.0398 N   0  0  0  0  0  0  0  0  0  0  0  0
   45.5956   34.1013   45.2002 C   0  0  0  0  0  0  0  0  0  0  0  0
   44.7623   35.1116   45.4406 N   0  0  0  0  0  0  0  0  0  0  0  0
   46.7872   34.7616   41.7217 C   0  0  0  0  0  0  0  0  0  0  0  0
   48.1801   35.3085   41.8845 C   0  0  0  0  0  0  0  0  0  0  0  0
   43.8995   36.8998   44.5830 H   0  0  0  0  0  0  0  0  0  0  0  0
   45.0442   36.6999   42.4820 H   0  0  0  0  0  0  0  0  0  0  0  0
   45.7142   33.3869   46.0167 H   0  0  0  0  0  0  0  0  0  0  0  0
   46.8984   33.6717   41.5376 H   0  0  0  0  0  0  0  0  0  0  0  0
   46.2296   35.1893   40.8988 H   0  0  0  0  0  0  0  0  0  0  0  0
   48.7526   35.1992   40.9187 H   0  0  0  0  0  0  0  0  0  0  0  0
   48.7483   34.6804   42.6016 H   0  0  0  0  0  0  0  0  0  0  0  0
   48.2748   36.7025   42.2931 C   0  0  0  0  0  0  0  0  0  0  0  0
   47.4972   37.6978   41.7194 C   0  0  0  0  0  0  0  0  0  0  0  0
   46.7967   37.4253   40.9412 H   0  0  0  0  0  0  0  0  0  0  0  0
   47.6265   39.0063   42.1442 C   0  0  0  0  0  0  0  0  0  0  0  0
   46.9799   39.7234   41.6424 H   0  0  0  0  0  0  0  0  0  0  0  0
   48.5039   39.4042   43.1315 C   0  0  0  0  0  0  0  0  0  0  0  0
   49.2551   38.3958   43.6753 C   0  0  0  0  0  0  0  0  0  0  0  0
   49.1337   37.1068   43.2629 C   0  0  0  0  0  0  0  0  0  0  0  0
   49.7536   36.3436   43.7270 H   0  0  0  0  0  0  0  0  0  0  0  0
   50.4100   38.8173   44.9519 S   0  0  0  0  0  0  0  0  0  0  0  0
   50.2868   40.5756   45.2187 C   0  0  0  0  0  0  0  0  0  0  0  0
   51.0733   41.1547   46.1535 C   0  0  0  0  0  0  0  0  0  0  0  0
   51.7757   40.5601   46.7398 H   0  0  0  0  0  0  0  0  0  0  0  0
   51.0201   42.5264   46.4056 C   0  0  0  0  0  0  0  0  0  0  0  0
   51.6570   42.9537   47.1532 H   0  0  0  0  0  0  0  0  0  0  0  0
   50.1252   43.2565   45.6524 C   0  0  0  0  0  0  0  0  0  0  0  0
   50.0822   44.3093   45.8438 H   0  0  0  0  0  0  0  0  0  0  0  0
   49.3537   42.6220   44.7208 C   0  0  0  0  0  0  0  0  0  0  0  0
   48.6839   43.2774   44.1814 H   0  0  0  0  0  0  0  0  0  0  0  0
   49.3871   41.2688   44.4525 C   0  0  0  0  0  0  0  0  0  0  0  0
   48.5210   40.7734   43.4550 N   0  0  0  0  0  0  0  0  0  0  0  0
   47.8918   41.4376   42.9592 H   0  0  0  0  0  0  0  0  0  0  0  0
  1  6  2  0
  2  1  1  0
  3  2  2  0
  3  4  1  0
  4  5  2  0
  5  6  1  0
  7  8  1  0
  7  3  1  0
  1  9  1  0
  2 10  1  0
  5 11  1  0
  7 12  1  0
  7 13  1  0
  8 14  1  0
  8 15  1  0
 16 17  2  0
 17 18  1  0
 17 19  1  0
 19 20  1  0
 19 21  2  0
 21 22  1  0
 22 23  2  0
 23 24  1  0
 22 25  1  0
 25 26  1  0
 26 27  2  0
 27 28  1  0
 27 29  1  0
 29 30  1  0
 29 31  2  0
 31 32  1  0
 31 33  1  0
 33 34  1  0
 33 35  2  0
 35 36  1  0
 36 37  1  0
 23 16  1  0
 35 26  1  0
 36 21  1  0
  8 16  1  0
M  ISO  8   9  14  10  14  11  14  12   8  13   8  14   8  15   8  18  16
M  ISO  7  20  16  24  16  28  16  30  16  32  16  34  16  37   5
M  END
>  <DihAtoms>  (1) 
6,7,15,16

>  <DihDeg>  (1) 
90.00157489352902

$$$$
