
     RDKit          3D

 37 40  0  0  0  0  0  0  0  0999 V2000
   44.5540   36.0435   44.4879 C   0  0  0  0  0  0  0  0  0  0  0  0
   45.2131   35.9519   43.2431 C   0  0  0  0  0  0  0  0  0  0  0  0
   46.0848   34.8739   43.0232 C   0  0  0  0  0  0  0  0  0  0  0  0
   46.2408   33.9725   44.0398 N   0  0  0  0  0  0  0  0  0  0  0  0
   45.5956   34.1013   45.2002 C   0  0  0  0  0  0  0  0  0  0  0  0
   44.7623   35.1116   45.4406 N   0  0  0  0  0  0  0  0  0  0  0  0
   46.7872   34.7616   41.7217 C   0  0  0  0  0  0  0  0  0  0  0  0
   48.1801   35.3085   41.8845 C   0  0  0  0  0  0  0  0  0  0  0  0
   43.8995   36.8998   44.5830 H   0  0  0  0  0  0  0  0  0  0  0  0
   45.0442   36.6999   42.4820 H   0  0  0  0  0  0  0  0  0  0  0  0
   45.7142   33.3869   46.0167 H   0  0  0  0  0  0  0  0  0  0  0  0
   46.8984   33.6717   41.5376 H   0  0  0  0  0  0  0  0  0  0  0  0
   46.2296   35.1893   40.8988 H   0  0  0  0  0  0  0  0  0  0  0  0
   48.7526   35.1992   40.9187 H   0  0  0  0  0  0  0  0  0  0  0  0
   48.7483   34.6804   42.6016 H   0  0  0  0  0  0  0  0  0  0  0  0
   48.2748   36.7025   42.2931 C   0  0  0  0  0  0  0  0  0  0  0  0
   48.9063   37.0902   43.4659 C   0  0  0  0  0  0  0  0  0  0  0  0
   49.3427   36.3274   44.0969 H   0  0  0  0  0  0  0  0  0  0  0  0
   48.9681   38.4276   43.8074 C   0  0  0  0  0  0  0  0  0  0  0  0
   49.4807   38.6449   44.7424 H   0  0  0  0  0  0  0  0  0  0  0  0
   48.4279   39.4369   43.0376 C   0  0  0  0  0  0  0  0  0  0  0  0
   47.8126   39.0178   41.8875 C   0  0  0  0  0  0  0  0  0  0  0  0
   47.7476   37.7045   41.5450 C   0  0  0  0  0  0  0  0  0  0  0  0
   47.2477   37.4242   40.6210 H   0  0  0  0  0  0  0  0  0  0  0  0
   47.0899   40.2489   40.8372 S   0  0  0  0  0  0  0  0  0  0  0  0
   47.3712   41.8327   41.6056 C   0  0  0  0  0  0  0  0  0  0  0  0
   46.9121   42.9490   40.9965 C   0  0  0  0  0  0  0  0  0  0  0  0
   46.3762   42.8884   40.0480 H   0  0  0  0  0  0  0  0  0  0  0  0
   47.1029   44.2154   41.5512 C   0  0  0  0  0  0  0  0  0  0  0  0
   46.7265   45.0797   41.0430 H   0  0  0  0  0  0  0  0  0  0  0  0
   47.7826   44.2664   42.7499 C   0  0  0  0  0  0  0  0  0  0  0  0
   47.9304   45.2369   43.1778 H   0  0  0  0  0  0  0  0  0  0  0  0
   48.2253   43.1083   43.3230 C   0  0  0  0  0  0  0  0  0  0  0  0
   48.7464   43.2502   44.2599 H   0  0  0  0  0  0  0  0  0  0  0  0
   48.0499   41.8453   42.7958 C   0  0  0  0  0  0  0  0  0  0  0  0
   48.5715   40.7514   43.5182 N   0  0  0  0  0  0  0  0  0  0  0  0
   49.0664   40.9308   44.4158 H   0  0  0  0  0  0  0  0  0  0  0  0
  1  6  2  0
  2  1  1  0
  3  2  2  0
  3  4  1  0
  4  5  2  0
  5  6  1  0
  7  8  1  0
  7  3  1  0
  1  9  1  0
  2 10  1  0
  5 11  1  0
  7 12  1  0
  7 13  1  0
  8 14  1  0
  8 15  1  0
 16 17  2  0
 17 18  1  0
 17 19  1  0
 19 20  1  0
 19 21  2  0
 21 22  1  0
 22 23  2  0
 23 24  1  0
 22 25  1  0
 25 26  1  0
 26 27  2  0
 27 28  1  0
 27 29  1  0
 29 30  1  0
 29 31  2  0
 31 32  1  0
 31 33  1  0
 33 34  1  0
 33 35  2  0
 35 36  1  0
 36 37  1  0
 23 16  1  0
 35 26  1  0
 36 21  1  0
  8 16  1  0
M  ISO  8   9  14  10  14  11  14  12   8  13   8  14   8  15   8  18  16
M  ISO  7  20  16  24  16  28  16  30  16  32  16  34  16  37   5
M  END
>  <DihAtoms>  (1) 
6,7,15,16

>  <DihDeg>  (1) 
90.00157489352902

$$$$
