
     RDKit          3D

 37 40  0  0  0  0  0  0  0  0999 V2000
   44.5540   36.0435   44.4879 C   0  0  0  0  0  0  0  0  0  0  0  0
   45.2131   35.9519   43.2431 C   0  0  0  0  0  0  0  0  0  0  0  0
   46.0848   34.8739   43.0232 C   0  0  0  0  0  0  0  0  0  0  0  0
   46.2408   33.9725   44.0398 N   0  0  0  0  0  0  0  0  0  0  0  0
   45.5956   34.1013   45.2002 C   0  0  0  0  0  0  0  0  0  0  0  0
   44.7623   35.1116   45.4406 N   0  0  0  0  0  0  0  0  0  0  0  0
   46.7872   34.7616   41.7217 C   0  0  0  0  0  0  0  0  0  0  0  0
   48.1801   35.3085   41.8845 C   0  0  0  0  0  0  0  0  0  0  0  0
   43.8995   36.8998   44.5830 H   0  0  0  0  0  0  0  0  0  0  0  0
   45.0442   36.6999   42.4820 H   0  0  0  0  0  0  0  0  0  0  0  0
   45.7142   33.3869   46.0167 H   0  0  0  0  0  0  0  0  0  0  0  0
   46.8984   33.6717   41.5376 H   0  0  0  0  0  0  0  0  0  0  0  0
   46.2296   35.1893   40.8988 H   0  0  0  0  0  0  0  0  0  0  0  0
   48.7526   35.1992   40.9187 H   0  0  0  0  0  0  0  0  0  0  0  0
   48.7483   34.6804   42.6016 H   0  0  0  0  0  0  0  0  0  0  0  0
   48.2748   36.7025   42.2931 C   0  0  0  0  0  0  0  0  0  0  0  0
   48.6239   37.0750   43.5830 C   0  0  0  0  0  0  0  0  0  0  0  0
   48.8325   36.3000   44.3085 H   0  0  0  0  0  0  0  0  0  0  0  0
   48.6992   38.4132   43.9189 C   0  0  0  0  0  0  0  0  0  0  0  0
   48.9795   38.6180   44.9502 H   0  0  0  0  0  0  0  0  0  0  0  0
   48.4431   39.4377   43.0313 C   0  0  0  0  0  0  0  0  0  0  0  0
   48.1016   39.0333   41.7676 C   0  0  0  0  0  0  0  0  0  0  0  0
   48.0254   37.7194   41.4298 C   0  0  0  0  0  0  0  0  0  0  0  0
   47.7499   37.4512   40.4128 H   0  0  0  0  0  0  0  0  0  0  0  0
   47.7552   40.2846   40.5612 S   0  0  0  0  0  0  0  0  0  0  0  0
   47.9554   41.8640   41.3633 C   0  0  0  0  0  0  0  0  0  0  0  0
   47.7459   42.9937   40.6507 C   0  0  0  0  0  0  0  0  0  0  0  0
   47.4582   42.9464   39.5992 H   0  0  0  0  0  0  0  0  0  0  0  0
   47.8878   44.2575   41.2257 C   0  0  0  0  0  0  0  0  0  0  0  0
   47.7144   45.1327   40.6332 H   0  0  0  0  0  0  0  0  0  0  0  0
   48.2519   44.2916   42.5552 C   0  0  0  0  0  0  0  0  0  0  0  0
   48.3615   45.2601   42.9989 H   0  0  0  0  0  0  0  0  0  0  0  0
   48.4514   43.1205   43.2292 C   0  0  0  0  0  0  0  0  0  0  0  0
   48.7338   43.2495   44.2650 H   0  0  0  0  0  0  0  0  0  0  0  0
   48.3178   41.8596   42.6846 C   0  0  0  0  0  0  0  0  0  0  0  0
   48.5613   40.7509   43.5224 N   0  0  0  0  0  0  0  0  0  0  0  0
   48.8310   40.9182   44.5134 H   0  0  0  0  0  0  0  0  0  0  0  0
  1  6  2  0
  2  1  1  0
  3  2  2  0
  3  4  1  0
  4  5  2  0
  5  6  1  0
  7  8  1  0
  7  3  1  0
  1  9  1  0
  2 10  1  0
  5 11  1  0
  7 12  1  0
  7 13  1  0
  8 14  1  0
  8 15  1  0
 16 17  2  0
 17 18  1  0
 17 19  1  0
 19 20  1  0
 19 21  2  0
 21 22  1  0
 22 23  2  0
 23 24  1  0
 22 25  1  0
 25 26  1  0
 26 27  2  0
 27 28  1  0
 27 29  1  0
 29 30  1  0
 29 31  2  0
 31 32  1  0
 31 33  1  0
 33 34  1  0
 33 35  2  0
 35 36  1  0
 36 37  1  0
 23 16  1  0
 35 26  1  0
 36 21  1  0
  8 16  1  0
M  ISO  8   9  14  10  14  11  14  12   8  13   8  14   8  15   8  18  16
M  ISO  7  20  16  24  16  28  16  30  16  32  16  34  16  37   5
M  END
>  <DihAtoms>  (1) 
6,7,15,16

>  <DihDeg>  (1) 
90.00157489352902

$$$$
