
     RDKit          3D

 37 40  0  0  0  0  0  0  0  0999 V2000
   44.5540   36.0435   44.4879 C   0  0  0  0  0  0  0  0  0  0  0  0
   45.2131   35.9519   43.2431 C   0  0  0  0  0  0  0  0  0  0  0  0
   46.0848   34.8739   43.0232 C   0  0  0  0  0  0  0  0  0  0  0  0
   46.2408   33.9725   44.0398 N   0  0  0  0  0  0  0  0  0  0  0  0
   45.5956   34.1013   45.2002 C   0  0  0  0  0  0  0  0  0  0  0  0
   44.7623   35.1116   45.4406 N   0  0  0  0  0  0  0  0  0  0  0  0
   46.7872   34.7616   41.7217 C   0  0  0  0  0  0  0  0  0  0  0  0
   48.1801   35.3085   41.8845 C   0  0  0  0  0  0  0  0  0  0  0  0
   43.8995   36.8998   44.5830 H   0  0  0  0  0  0  0  0  0  0  0  0
   45.0442   36.6999   42.4820 H   0  0  0  0  0  0  0  0  0  0  0  0
   45.7142   33.3869   46.0167 H   0  0  0  0  0  0  0  0  0  0  0  0
   46.8984   33.6717   41.5376 H   0  0  0  0  0  0  0  0  0  0  0  0
   46.2296   35.1893   40.8988 H   0  0  0  0  0  0  0  0  0  0  0  0
   48.7526   35.1992   40.9187 H   0  0  0  0  0  0  0  0  0  0  0  0
   48.7483   34.6804   42.6016 H   0  0  0  0  0  0  0  0  0  0  0  0
   48.2748   36.7025   42.2931 C   0  0  0  0  0  0  0  0  0  0  0  0
   48.0222   37.7501   41.4194 C   0  0  0  0  0  0  0  0  0  0  0  0
   47.7453   37.5197   40.3992 H   0  0  0  0  0  0  0  0  0  0  0  0
   48.1265   39.0560   41.8586 C   0  0  0  0  0  0  0  0  0  0  0  0
   47.9118   39.8162   41.1101 H   0  0  0  0  0  0  0  0  0  0  0  0
   48.4757   39.4014   43.1477 C   0  0  0  0  0  0  0  0  0  0  0  0
   48.7177   38.3423   43.9824 C   0  0  0  0  0  0  0  0  0  0  0  0
   48.6173   37.0554   43.5579 C   0  0  0  0  0  0  0  0  0  0  0  0
   48.8199   36.2507   44.2605 H   0  0  0  0  0  0  0  0  0  0  0  0
   49.1731   38.6942   45.6587 S   0  0  0  0  0  0  0  0  0  0  0  0
   49.2006   40.4675   45.8394 C   0  0  0  0  0  0  0  0  0  0  0  0
   49.5230   41.0004   47.0393 C   0  0  0  0  0  0  0  0  0  0  0  0
   49.7641   40.3598   47.8892 H   0  0  0  0  0  0  0  0  0  0  0  0
   49.5608   42.3811   47.2395 C   0  0  0  0  0  0  0  0  0  0  0  0
   49.8201   42.7709   48.2028 H   0  0  0  0  0  0  0  0  0  0  0  0
   49.2526   43.1696   46.1511 C   0  0  0  0  0  0  0  0  0  0  0  0
   49.2808   44.2295   46.3019 H   0  0  0  0  0  0  0  0  0  0  0  0
   48.9335   42.5801   44.9610 C   0  0  0  0  0  0  0  0  0  0  0  0
   48.7074   43.2797   44.1681 H   0  0  0  0  0  0  0  0  0  0  0  0
   48.8890   41.2192   44.7371 C   0  0  0  0  0  0  0  0  0  0  0  0
   48.5400   40.7753   43.4442 N   0  0  0  0  0  0  0  0  0  0  0  0
   48.3297   41.4811   42.7092 H   0  0  0  0  0  0  0  0  0  0  0  0
  1  6  2  0
  2  1  1  0
  3  2  2  0
  3  4  1  0
  4  5  2  0
  5  6  1  0
  7  8  1  0
  7  3  1  0
  1  9  1  0
  2 10  1  0
  5 11  1  0
  7 12  1  0
  7 13  1  0
  8 14  1  0
  8 15  1  0
 16 17  2  0
 17 18  1  0
 17 19  1  0
 19 20  1  0
 19 21  2  0
 21 22  1  0
 22 23  2  0
 23 24  1  0
 22 25  1  0
 25 26  1  0
 26 27  2  0
 27 28  1  0
 27 29  1  0
 29 30  1  0
 29 31  2  0
 31 32  1  0
 31 33  1  0
 33 34  1  0
 33 35  2  0
 35 36  1  0
 36 37  1  0
 23 16  1  0
 35 26  1  0
 36 21  1  0
  8 16  1  0
M  ISO  8   9  14  10  14  11  14  12   8  13   8  14   8  15   8  18  16
M  ISO  7  20  16  24  16  28  16  30  16  32  16  34  16  37   5
M  END
>  <DihAtoms>  (1) 
6,7,15,16

>  <DihDeg>  (1) 
90.00157489352902

$$$$
