
     RDKit          3D

 37 40  0  0  0  0  0  0  0  0999 V2000
   44.5540   36.0435   44.4879 C   0  0  0  0  0  0  0  0  0  0  0  0
   45.2131   35.9519   43.2431 C   0  0  0  0  0  0  0  0  0  0  0  0
   46.0848   34.8739   43.0232 C   0  0  0  0  0  0  0  0  0  0  0  0
   46.2408   33.9725   44.0398 N   0  0  0  0  0  0  0  0  0  0  0  0
   45.5956   34.1013   45.2002 C   0  0  0  0  0  0  0  0  0  0  0  0
   44.7623   35.1116   45.4406 N   0  0  0  0  0  0  0  0  0  0  0  0
   46.7872   34.7616   41.7217 C   0  0  0  0  0  0  0  0  0  0  0  0
   48.1801   35.3085   41.8845 C   0  0  0  0  0  0  0  0  0  0  0  0
   43.8995   36.8998   44.5830 H   0  0  0  0  0  0  0  0  0  0  0  0
   45.0442   36.6999   42.4820 H   0  0  0  0  0  0  0  0  0  0  0  0
   45.7142   33.3869   46.0167 H   0  0  0  0  0  0  0  0  0  0  0  0
   46.8984   33.6717   41.5376 H   0  0  0  0  0  0  0  0  0  0  0  0
   46.2296   35.1893   40.8988 H   0  0  0  0  0  0  0  0  0  0  0  0
   48.7526   35.1992   40.9187 H   0  0  0  0  0  0  0  0  0  0  0  0
   48.7483   34.6804   42.6016 H   0  0  0  0  0  0  0  0  0  0  0  0
   48.2748   36.7025   42.2931 C   0  0  0  0  0  0  0  0  0  0  0  0
   49.3353   37.1838   43.0469 C   0  0  0  0  0  0  0  0  0  0  0  0
   50.1178   36.4966   43.3399 H   0  0  0  0  0  0  0  0  0  0  0  0
   49.3767   38.5168   43.4085 C   0  0  0  0  0  0  0  0  0  0  0  0
   50.2421   38.8111   43.9988 H   0  0  0  0  0  0  0  0  0  0  0  0
   48.4048   39.4318   43.0602 C   0  0  0  0  0  0  0  0  0  0  0  0
   47.3734   38.9219   42.3164 C   0  0  0  0  0  0  0  0  0  0  0  0
   47.3257   37.6124   41.9571 C   0  0  0  0  0  0  0  0  0  0  0  0
   46.4847   37.2577   41.3661 H   0  0  0  0  0  0  0  0  0  0  0  0
   46.0792   40.0282   41.8244 S   0  0  0  0  0  0  0  0  0  0  0  0
   46.4837   41.6389   42.4725 C   0  0  0  0  0  0  0  0  0  0  0  0
   45.6454   42.6724   42.2338 C   0  0  0  0  0  0  0  0  0  0  0  0
   44.7325   42.5294   41.6534 H   0  0  0  0  0  0  0  0  0  0  0  0
   45.9106   43.9550   42.7159 C   0  0  0  0  0  0  0  0  0  0  0  0
   45.2256   44.7519   42.5089 H   0  0  0  0  0  0  0  0  0  0  0  0
   47.0697   44.1107   43.4464 C   0  0  0  0  0  0  0  0  0  0  0  0
   47.2756   45.0939   43.8176 H   0  0  0  0  0  0  0  0  0  0  0  0
   47.8820   43.0333   43.6585 C   0  0  0  0  0  0  0  0  0  0  0  0
   48.7657   43.2543   44.2412 H   0  0  0  0  0  0  0  0  0  0  0  0
   47.6430   41.7564   43.1933 C   0  0  0  0  0  0  0  0  0  0  0  0
   48.5871   40.7548   43.5031 N   0  0  0  0  0  0  0  0  0  0  0  0
   49.4242   41.0089   44.0665 H   0  0  0  0  0  0  0  0  0  0  0  0
  1  6  2  0
  2  1  1  0
  3  2  2  0
  3  4  1  0
  4  5  2  0
  5  6  1  0
  7  8  1  0
  7  3  1  0
  1  9  1  0
  2 10  1  0
  5 11  1  0
  7 12  1  0
  7 13  1  0
  8 14  1  0
  8 15  1  0
 16 17  2  0
 17 18  1  0
 17 19  1  0
 19 20  1  0
 19 21  2  0
 21 22  1  0
 22 23  2  0
 23 24  1  0
 22 25  1  0
 25 26  1  0
 26 27  2  0
 27 28  1  0
 27 29  1  0
 29 30  1  0
 29 31  2  0
 31 32  1  0
 31 33  1  0
 33 34  1  0
 33 35  2  0
 35 36  1  0
 36 37  1  0
 23 16  1  0
 35 26  1  0
 36 21  1  0
  8 16  1  0
M  ISO  8   9  14  10  14  11  14  12   8  13   8  14   8  15   8  18  16
M  ISO  7  20  16  24  16  28  16  30  16  32  16  34  16  37   5
M  END
>  <DihAtoms>  (1) 
6,7,15,16

>  <DihDeg>  (1) 
90.00157489352902

$$$$
