
     RDKit          3D

 37 40  0  0  0  0  0  0  0  0999 V2000
   44.5540   36.0435   44.4879 C   0  0  0  0  0  0  0  0  0  0  0  0
   45.2131   35.9519   43.2431 C   0  0  0  0  0  0  0  0  0  0  0  0
   46.0848   34.8739   43.0232 C   0  0  0  0  0  0  0  0  0  0  0  0
   46.2408   33.9725   44.0398 N   0  0  0  0  0  0  0  0  0  0  0  0
   45.5956   34.1013   45.2002 C   0  0  0  0  0  0  0  0  0  0  0  0
   44.7623   35.1116   45.4406 N   0  0  0  0  0  0  0  0  0  0  0  0
   46.7872   34.7616   41.7217 C   0  0  0  0  0  0  0  0  0  0  0  0
   48.1801   35.3085   41.8845 C   0  0  0  0  0  0  0  0  0  0  0  0
   43.8995   36.8998   44.5830 H   0  0  0  0  0  0  0  0  0  0  0  0
   45.0442   36.6999   42.4820 H   0  0  0  0  0  0  0  0  0  0  0  0
   45.7142   33.3869   46.0167 H   0  0  0  0  0  0  0  0  0  0  0  0
   46.8984   33.6717   41.5376 H   0  0  0  0  0  0  0  0  0  0  0  0
   46.2296   35.1893   40.8988 H   0  0  0  0  0  0  0  0  0  0  0  0
   48.7526   35.1992   40.9187 H   0  0  0  0  0  0  0  0  0  0  0  0
   48.7483   34.6804   42.6016 H   0  0  0  0  0  0  0  0  0  0  0  0
   48.2748   36.7025   42.2931 C   0  0  0  0  0  0  0  0  0  0  0  0
   47.3108   37.6413   41.9555 C   0  0  0  0  0  0  0  0  0  0  0  0
   46.4600   37.3231   41.3679 H   0  0  0  0  0  0  0  0  0  0  0  0
   47.4490   38.9524   42.3690 C   0  0  0  0  0  0  0  0  0  0  0  0
   46.6491   39.6231   42.0615 H   0  0  0  0  0  0  0  0  0  0  0  0
   48.5139   39.4072   43.1188 C   0  0  0  0  0  0  0  0  0  0  0  0
   49.4459   38.4537   43.4336 C   0  0  0  0  0  0  0  0  0  0  0  0
   49.3170   37.1625   43.0306 C   0  0  0  0  0  0  0  0  0  0  0  0
   50.0850   36.4442   43.3071 H   0  0  0  0  0  0  0  0  0  0  0  0
   50.8490   38.9505   44.3956 S   0  0  0  0  0  0  0  0  0  0  0  0
   50.6723   40.6926   44.7301 C   0  0  0  0  0  0  0  0  0  0  0  0
   51.6235   41.3217   45.4562 C   0  0  0  0  0  0  0  0  0  0  0  0
   52.4897   40.7768   45.8350 H   0  0  0  0  0  0  0  0  0  0  0  0
   51.5381   42.6836   45.7492 C   0  0  0  0  0  0  0  0  0  0  0  0
   52.3089   43.1516   46.3270 H   0  0  0  0  0  0  0  0  0  0  0  0
   50.4348   43.3506   45.2599 C   0  0  0  0  0  0  0  0  0  0  0  0
   50.3667   44.3957   45.4832 H   0  0  0  0  0  0  0  0  0  0  0  0
   49.5029   42.6673   44.5317 C   0  0  0  0  0  0  0  0  0  0  0  0
   48.6755   43.2749   44.1919 H   0  0  0  0  0  0  0  0  0  0  0  0
   49.5638   41.3225   44.2284 C   0  0  0  0  0  0  0  0  0  0  0  0
   48.5142   40.7714   43.4635 N   0  0  0  0  0  0  0  0  0  0  0  0
   47.7364   41.3904   43.1561 H   0  0  0  0  0  0  0  0  0  0  0  0
  1  6  2  0
  2  1  1  0
  3  2  2  0
  3  4  1  0
  4  5  2  0
  5  6  1  0
  7  8  1  0
  7  3  1  0
  1  9  1  0
  2 10  1  0
  5 11  1  0
  7 12  1  0
  7 13  1  0
  8 14  1  0
  8 15  1  0
 16 17  2  0
 17 18  1  0
 17 19  1  0
 19 20  1  0
 19 21  2  0
 21 22  1  0
 22 23  2  0
 23 24  1  0
 22 25  1  0
 25 26  1  0
 26 27  2  0
 27 28  1  0
 27 29  1  0
 29 30  1  0
 29 31  2  0
 31 32  1  0
 31 33  1  0
 33 34  1  0
 33 35  2  0
 35 36  1  0
 36 37  1  0
 23 16  1  0
 35 26  1  0
 36 21  1  0
  8 16  1  0
M  ISO  8   9  14  10  14  11  14  12   8  13   8  14   8  15   8  18  16
M  ISO  7  20  16  24  16  28  16  30  16  32  16  34  16  37   5
M  END
>  <DihAtoms>  (1) 
6,7,15,16

>  <DihDeg>  (1) 
90.00157489352902

$$$$
