
     RDKit          3D

 34 37  0  0  0  0  0  0  0  0999 V2000
   46.4780   34.6080   42.0870 C   0  0  0  0  0  0  0  0  0  0  0  0
   47.7400   35.1340   41.9030 C   0  0  0  0  0  0  0  0  0  0  0  0
   48.3650   34.9180   40.6750 C   0  0  0  0  0  0  0  0  0  0  0  0
   47.8050   34.2130   39.6310 C   0  0  0  0  0  0  0  0  0  0  0  0
   46.5490   33.7160   39.8760 C   0  0  0  0  0  0  0  0  0  0  0  0
   45.9210   33.9090   41.0530 C   0  0  0  0  0  0  0  0  0  0  0  0
   45.7570   32.7920   38.5750 S   0  0  0  0  0  0  0  0  0  0  0  0
   46.8870   32.7630   37.2150 C   0  0  0  0  0  0  0  0  0  0  0  0
   46.5180   32.1060   36.0710 C   0  0  0  0  0  0  0  0  0  0  0  0
   47.3310   32.0290   34.9610 C   0  0  0  0  0  0  0  0  0  0  0  0
   48.5570   32.6540   35.0500 C   0  0  0  0  0  0  0  0  0  0  0  0
   48.8960   33.3050   36.2190 C   0  0  0  0  0  0  0  0  0  0  0  0
   48.0990   33.3950   37.3430 C   0  0  0  0  0  0  0  0  0  0  0  0
   48.5750   34.0910   38.4600 N   0  0  0  0  0  0  0  0  0  0  0  0
   44.4510   36.0540   44.9160 C   0  0  0  0  0  0  0  0  0  0  0  0
   45.0280   35.9420   43.6180 C   0  0  0  0  0  0  0  0  0  0  0  0
   45.8300   34.8390   43.3740 C   0  0  0  0  0  0  0  0  0  0  0  0
   46.0260   33.9380   44.3550 N   0  0  0  0  0  0  0  0  0  0  0  0
   45.4650   34.0690   45.5800 C   0  0  0  0  0  0  0  0  0  0  0  0
   44.6780   35.1320   45.8530 N   0  0  0  0  0  0  0  0  0  0  0  0
   45.8000   32.9690   46.5240 C   0  0  0  0  0  0  0  0  0  0  0  0
   44.9750   32.9540   47.6080 F   0  0  0  0  0  0  0  0  0  0  0  0
   47.1200   33.0710   46.9290 F   0  0  0  0  0  0  0  0  0  0  0  0
   45.7310   31.7480   45.8400 F   0  0  0  0  0  0  0  0  0  0  0  0
   48.2378   35.7059   42.6999 H   0  0  0  0  0  0  0  0  0  0  0  0
   49.3713   35.3379   40.5299 H   0  0  0  0  0  0  0  0  0  0  0  0
   44.9150   33.4849   41.1873 H   0  0  0  0  0  0  0  0  0  0  0  0
   45.5319   31.6198   36.0370 H   0  0  0  0  0  0  0  0  0  0  0  0
   47.0181   31.4964   34.0508 H   0  0  0  0  0  0  0  0  0  0  0  0
   49.2556   32.6340   34.2006 H   0  0  0  0  0  0  0  0  0  0  0  0
   49.8816   33.7919   36.2584 H   0  0  0  0  0  0  0  0  0  0  0  0
   49.5092   34.5232   38.4239 H   0  0  0  0  0  0  0  0  0  0  0  0
   43.8076   36.9152   45.1493 H   0  0  0  0  0  0  0  0  0  0  0  0
   44.8443   36.6997   42.8420 H   0  0  0  0  0  0  0  0  0  0  0  0
  1 17  1  0
  2  1  2  0
  3  2  1  0
  4  5  1  0
  4  3  2  0
  5  6  2  0
  6  1  1  0
  7  5  1  0
  8 13  2  0
  8  7  1  0
  9  8  1  0
 10 11  1  0
 10  9  2  0
 11 12  2  0
 12 13  1  0
 13 14  1  0
 14  4  1  0
 15 20  2  0
 16 15  1  0
 17 16  2  0
 17 18  1  0
 18 19  2  0
 19 20  1  0
 19 21  1  0
 21 23  1  0
 21 22  1  0
 24 21  1  0
  2 25  1  0
  3 26  1  0
  6 27  1  0
  9 28  1  0
 10 29  1  0
 11 30  1  0
 12 31  1  0
 14 32  1  0
 15 33  1  0
 16 34  1  0
M  ISO  8  25  14  26  14  27  14  28  14  29  14  30  14  31  14  33  14
M  ISO  1  34  14
M  END
>  <minimizedAffinity>  (1) 
-7.36543941

>  <minimizedRMSD>  (1) 
1.59859204

$$$$
