
     RDKit          3D

 33 35  0  0  0  0  0  0  0  0999 V2000
   44.2530   34.2520   41.5680 C   0  0  0  0  0  0  0  0  0  0  0  0
   43.5000   35.1330   40.7750 C   0  0  0  0  0  0  0  0  0  0  0  0
   42.9960   34.6230   39.5560 C   0  0  0  0  0  0  0  0  0  0  0  0
   43.2740   33.3090   39.2320 N   0  0  0  0  0  0  0  0  0  0  0  0
   44.0110   32.5280   40.0580 C   0  0  0  0  0  0  0  0  0  0  0  0
   44.4900   32.9800   41.1980 N   0  0  0  0  0  0  0  0  0  0  0  0
   44.7910   34.7670   42.8550 C   0  0  0  0  0  0  0  0  0  0  0  0
   46.2700   35.2470   42.7350 C   0  0  0  0  0  0  0  0  0  0  0  0
   45.1220   36.1380   43.0810 C   0  0  0  0  0  0  0  0  0  0  0  0
   42.1940   35.4960   38.6750 C   0  0  0  0  0  0  0  0  0  0  0  0
   40.8200   35.7550   39.2200 C   0  0  0  0  0  0  0  0  0  0  0  0
   40.0830   34.4400   41.7500 Cl  0  0  0  0  0  0  0  0  0  0  0  0
   39.4450   34.0900   40.1350 C   0  0  0  0  0  0  0  0  0  0  0  0
   39.8160   34.7330   38.9460 C   0  0  0  0  0  0  0  0  0  0  0  0
   39.2080   34.3160   37.8040 C   0  0  0  0  0  0  0  0  0  0  0  0
   38.2660   33.3070   37.7980 C   0  0  0  0  0  0  0  0  0  0  0  0
   37.9080   32.6790   38.9790 C   0  0  0  0  0  0  0  0  0  0  0  0
   38.5020   33.0760   40.1420 C   0  0  0  0  0  0  0  0  0  0  0  0
   43.3111   36.1707   41.0872 H   0  0  0  0  0  0  0  0  0  0  0  0
   44.2150   31.4867   39.7680 H   0  0  0  0  0  0  0  0  0  0  0  0
   44.1748   34.0732   43.4456 H   0  0  0  0  0  0  0  0  0  0  0  0
   47.0140   34.9689   43.4960 H   0  0  0  0  0  0  0  0  0  0  0  0
   47.0627   35.2197   41.9729 H   0  0  0  0  0  0  0  0  0  0  0  0
   44.7931   36.8967   42.3556 H   0  0  0  0  0  0  0  0  0  0  0  0
   44.9326   36.8280   43.9165 H   0  0  0  0  0  0  0  0  0  0  0  0
   42.0982   35.0126   37.6916 H   0  0  0  0  0  0  0  0  0  0  0  0
   42.7123   36.4634   38.6010 H   0  0  0  0  0  0  0  0  0  0  0  0
   40.9057   35.8573   40.3119 H   0  0  0  0  0  0  0  0  0  0  0  0
   40.4656   36.6613   38.7071 H   0  0  0  0  0  0  0  0  0  0  0  0
   39.4757   34.7989   36.8526 H   0  0  0  0  0  0  0  0  0  0  0  0
   37.7978   33.0005   36.8510 H   0  0  0  0  0  0  0  0  0  0  0  0
   37.1580   31.8743   38.9799 H   0  0  0  0  0  0  0  0  0  0  0  0
   38.2302   32.5880   41.0896 H   0  0  0  0  0  0  0  0  0  0  0  0
  1  7  1  0
  2  1  2  0
  3  2  1  0
  4  3  2  0
  4  5  1  0
  5  6  2  0
  6  1  1  0
  7  9  1  0
  8  7  1  0
  8  9  1  0
 10 11  1  0
 10  3  1  0
 13 18  2  0
 13 12  1  0
 14 11  1  0
 14 13  1  0
 15 14  2  0
 16 15  1  0
 16 17  2  0
 17 18  1  0
  2 19  1  0
  5 20  1  0
  7 21  1  0
  8 22  1  0
  8 23  1  0
  9 24  1  0
  9 25  1  0
 10 26  1  0
 10 27  1  0
 11 28  1  0
 11 29  1  0
 15 30  1  0
 16 31  1  0
 17 32  1  0
 18 33  1  0
M  ISO  8  19  14  20  14  21  13  22  13  23  13  24  13  25  13  26   8
M  ISO  7  27   8  28   8  29   8  30  14  31  14  32  14  33  14
M  END
>  <minimizedAffinity>  (1) 
-5.33673573

>  <minimizedRMSD>  (1) 
2.88582993

$$$$
