
     RDKit          3D

 37 39  0  0  0  0  0  0  0  0999 V2000
   44.5490   34.4480   40.7160 C   0  0  0  0  0  0  0  0  0  0  0  0
   43.8920   35.2130   41.7150 C   0  0  0  0  0  0  0  0  0  0  0  0
   44.5960   35.5760   42.8690 C   0  0  0  0  0  0  0  0  0  0  0  0
   45.8930   35.1670   42.9680 N   0  0  0  0  0  0  0  0  0  0  0  0
   46.4800   34.4440   42.0010 C   0  0  0  0  0  0  0  0  0  0  0  0
   45.8110   34.1000   40.9070 N   0  0  0  0  0  0  0  0  0  0  0  0
   48.5540   36.2810   41.9250 F   0  0  0  0  0  0  0  0  0  0  0  0
   48.8910   34.9730   42.1310 C   0  0  0  0  0  0  0  0  0  0  0  0
   47.8710   34.0410   42.1720 C   0  0  0  0  0  0  0  0  0  0  0  0
   48.1410   32.6970   42.3770 C   0  0  0  0  0  0  0  0  0  0  0  0
   49.4660   32.3150   42.5390 C   0  0  0  0  0  0  0  0  0  0  0  0
   50.5110   33.2580   42.4990 C   0  0  0  0  0  0  0  0  0  0  0  0
   50.2060   34.6130   42.2900 C   0  0  0  0  0  0  0  0  0  0  0  0
   42.4890   35.6380   41.5730 C   0  0  0  0  0  0  0  0  0  0  0  0
   41.7890   35.4770   40.4620 C   0  0  0  0  0  0  0  0  0  0  0  0
   40.3650   35.9210   40.3480 C   0  0  0  0  0  0  0  0  0  0  0  0
   40.7890   35.9370   37.3180 Cl  0  0  0  0  0  0  0  0  0  0  0  0
   39.7930   34.8160   38.1880 C   0  0  0  0  0  0  0  0  0  0  0  0
   39.6520   34.8730   39.5560 C   0  0  0  0  0  0  0  0  0  0  0  0
   38.8630   33.9860   40.2580 C   0  0  0  0  0  0  0  0  0  0  0  0
   38.2070   33.0200   39.5240 C   0  0  0  0  0  0  0  0  0  0  0  0
   38.2890   32.8870   38.1520 C   0  0  0  0  0  0  0  0  0  0  0  0
   39.1070   33.8200   37.5060 C   0  0  0  0  0  0  0  0  0  0  0  0
   44.0185   34.1499   39.7997 H   0  0  0  0  0  0  0  0  0  0  0  0
   44.1214   36.1683   43.6652 H   0  0  0  0  0  0  0  0  0  0  0  0
   47.3296   31.9550   42.4104 H   0  0  0  0  0  0  0  0  0  0  0  0
   49.7044   31.2536   42.7020 H   0  0  0  0  0  0  0  0  0  0  0  0
   51.5549   32.9369   42.6300 H   0  0  0  0  0  0  0  0  0  0  0  0
   51.0038   35.3695   42.2545 H   0  0  0  0  0  0  0  0  0  0  0  0
   41.9980   36.1136   42.4348 H   0  0  0  0  0  0  0  0  0  0  0  0
   42.2695   35.0014   39.5943 H   0  0  0  0  0  0  0  0  0  0  0  0
   39.9151   36.0128   41.3476 H   0  0  0  0  0  0  0  0  0  0  0  0
   40.2943   36.9038   39.8590 H   0  0  0  0  0  0  0  0  0  0  0  0
   38.7617   34.0461   41.3517 H   0  0  0  0  0  0  0  0  0  0  0  0
   37.5739   32.3051   40.0700 H   0  0  0  0  0  0  0  0  0  0  0  0
   37.7481   32.1011   37.6045 H   0  0  0  0  0  0  0  0  0  0  0  0
   39.2110   33.7622   36.4125 H   0  0  0  0  0  0  0  0  0  0  0  0
  1  6  2  0
  1  2  1  0
  2  3  2  0
  3  4  1  0
  5  9  1  0
  5  4  2  0
  6  5  1  0
  7  8  1  0
  8  9  2  0
  8 13  1  0
  9 10  1  0
 10 11  2  0
 12 11  1  0
 13 12  2  0
 14  2  1  0
 15 14  2  0
 16 15  1  0
 17 18  1  0
 18 19  2  0
 19 20  1  0
 19 16  1  0
 21 20  2  0
 22 21  1  0
 23 22  2  0
 23 18  1  0
  1 24  1  0
  3 25  1  0
 10 26  1  0
 11 27  1  0
 12 28  1  0
 13 29  1  0
 14 30  1  0
 15 31  1  0
 16 32  1  0
 16 33  1  0
 20 34  1  0
 21 35  1  0
 22 36  1  0
 23 37  1  0
M  ISO  8  24  14  25  14  26  14  27  14  28  14  29  14  32   8  33   8
M  ISO  4  34  14  35  14  36  14  37  14
M  END
>  <minimizedAffinity>  (1) 
-7.15105486

>  <minimizedRMSD>  (1) 
8.68711948

$$$$
