
     RDKit          3D

 49 52  0  0  1  0  0  0  0  0999 V2000
   46.0860   31.5430   43.7050 C   0  0  0  0  0  0  0  0  0  0  0  0
   44.8890   31.1310   43.8220 O   0  0  0  0  0  0  0  0  0  0  0  0
   46.4140   32.8820   43.3650 N   0  0  0  0  0  0  0  0  0  0  0  0
   47.4250   33.7860   43.9340 C   0  0  0  0  0  0  0  0  0  0  0  0
   48.2700   34.3570   42.7990 C   0  0  0  0  0  0  0  0  0  0  0  0
   47.4320   35.2120   41.9080 C   0  0  0  0  0  0  0  0  0  0  0  0
   45.9640   34.9630   42.1930 C   0  0  0  0  0  0  0  0  0  0  0  0
   45.6640   33.5050   42.3030 C   0  0  2  0  0  0  0  0  0  0  0  0
   47.8460   30.1150   42.7990 C   0  0  0  0  0  0  0  0  0  0  0  0
   47.1520   30.6000   43.9290 C   0  0  0  0  0  0  0  0  0  0  0  0
   47.4990   30.1770   45.2040 C   0  0  0  0  0  0  0  0  0  0  0  0
   48.5160   29.2920   45.3140 N   0  0  0  0  0  0  0  0  0  0  0  0
   49.1990   28.8100   44.2310 C   0  0  0  0  0  0  0  0  0  0  0  0
   48.8470   29.2330   42.9960 N   0  0  0  0  0  0  0  0  0  0  0  0
   46.7640   30.6900   46.3290 C   0  0  0  0  0  0  0  0  0  0  0  0
   47.1220   31.8530   46.9210 C   0  0  0  0  0  0  0  0  0  0  0  0
   46.3960   32.3220   47.9970 C   0  0  0  0  0  0  0  0  0  0  0  0
   45.2950   31.6430   48.5130 C   0  0  0  0  0  0  0  0  0  0  0  0
   44.9640   30.4460   47.8700 C   0  0  0  0  0  0  0  0  0  0  0  0
   45.6930   30.0300   46.8320 N   0  0  0  0  0  0  0  0  0  0  0  0
   44.1910   33.2780   42.3730 C   0  0  0  0  0  0  0  0  0  0  0  0
   44.8390   31.3400   40.0710 Cl  0  0  0  0  0  0  0  0  0  0  0  0
   43.9110   32.8140   39.8980 C   0  0  0  0  0  0  0  0  0  0  0  0
   43.6700   33.6180   40.9920 C   0  0  0  0  0  0  0  0  0  0  0  0
   42.9350   34.7870   40.8830 C   0  0  0  0  0  0  0  0  0  0  0  0
   42.4100   35.2020   39.6770 C   0  0  0  0  0  0  0  0  0  0  0  0
   42.6430   34.4070   38.5730 C   0  0  0  0  0  0  0  0  0  0  0  0
   43.3790   33.2390   38.6880 C   0  0  0  0  0  0  0  0  0  0  0  0
   46.9267   34.6058   44.4722 H   0  0  0  0  0  0  0  0  0  0  0  0
   48.0670   33.2336   44.6359 H   0  0  0  0  0  0  0  0  0  0  0  0
   49.0842   34.9633   43.2226 H   0  0  0  0  0  0  0  0  0  0  0  0
   48.6855   33.5262   42.2098 H   0  0  0  0  0  0  0  0  0  0  0  0
   47.6472   34.9664   40.8576 H   0  0  0  0  0  0  0  0  0  0  0  0
   47.6647   36.2707   42.0952 H   0  0  0  0  0  0  0  0  0  0  0  0
   45.6960   35.4548   43.1397 H   0  0  0  0  0  0  0  0  0  0  0  0
   45.3776   35.3723   41.3572 H   0  0  0  0  0  0  0  0  0  0  0  0
   46.0068   32.9992   41.3883 H   0  0  0  0  0  0  0  0  0  0  0  0
   47.5774   30.4476   41.7855 H   0  0  0  0  0  0  0  0  0  0  0  0
   50.0206   28.0905   44.3628 H   0  0  0  0  0  0  0  0  0  0  0  0
   47.9864   32.4212   46.5469 H   0  0  0  0  0  0  0  0  0  0  0  0
   46.6991   33.2699   48.4657 H   0  0  0  0  0  0  0  0  0  0  0  0
   44.7223   32.0239   49.3715 H   0  0  0  0  0  0  0  0  0  0  0  0
   44.1072   29.8503   48.2179 H   0  0  0  0  0  0  0  0  0  0  0  0
   43.9739   32.2282   42.6194 H   0  0  0  0  0  0  0  0  0  0  0  0
   43.7174   33.8917   43.1534 H   0  0  0  0  0  0  0  0  0  0  0  0
   42.7658   35.3997   41.7808 H   0  0  0  0  0  0  0  0  0  0  0  0
   41.8274   36.1317   39.5980 H   0  0  0  0  0  0  0  0  0  0  0  0
   42.2407   34.7035   37.5931 H   0  0  0  0  0  0  0  0  0  0  0  0
   43.5478   32.6271   37.7896 H   0  0  0  0  0  0  0  0  0  0  0  0
  1  2  2  0
  1 10  1  0
  3  1  1  0
  3  4  1  0
  5  4  1  0
  6  7  1  0
  6  5  1  0
  7  8  1  0
  8 21  1  0
  8  3  1  0
  9 14  2  0
  9 10  1  0
 10 11  2  0
 11 12  1  0
 11 15  1  0
 13 12  2  0
 14 13  1  0
 15 20  1  0
 15 16  2  0
 16 17  1  0
 17 18  2  0
 19 18  1  0
 20 19  2  0
 23 22  1  0
 23 24  2  0
 24 21  1  0
 25 24  1  0
 26 25  2  0
 27 28  2  0
 27 26  1  0
 28 23  1  0
  4 29  1  0
  4 30  1  0
  5 31  1  0
  5 32  1  0
  6 33  1  0
  6 34  1  0
  7 35  1  0
  7 36  1  0
  8 37  1  6
  9 38  1  0
 13 39  1  0
 16 40  1  0
 17 41  1  0
 18 42  1  0
 19 43  1  0
 21 44  1  0
 21 45  1  0
 25 46  1  0
 26 47  1  0
 27 48  1  0
 28 49  1  0
M  ISO  8  29  13  30  13  31  13  32  13  33  13  34  13  35  13  36  13
M  ISO  8  37  13  38  14  39  14  40  14  41  14  42  14  43  14  44   8
M  ISO  5  45   8  46  14  47  14  48  14  49  14
M  END
>  <minimizedAffinity>  (1) 
-5.2184577

>  <minimizedRMSD>  (1) 
5.63838673

$$$$
