
     RDKit          3D

 33 35  0  0  0  0  0  0  0  0999 V2000
   46.5985   34.4080   41.4482 C   0  0  0  0  0  0  0  0  0  0  0  0
   47.8798   34.9028   41.2352 C   0  0  0  0  0  0  0  0  0  0  0  0
   48.5320   34.6651   40.0507 C   0  0  0  0  0  0  0  0  0  0  0  0
   47.8822   33.9273   39.0886 C   0  0  0  0  0  0  0  0  0  0  0  0
   46.6147   33.4188   39.2575 C   0  0  0  0  0  0  0  0  0  0  0  0
   46.0032   33.6934   40.4819 C   0  0  0  0  0  0  0  0  0  0  0  0
   44.6882   36.0658   44.2672 C   0  0  0  0  0  0  0  0  0  0  0  0
   45.2356   35.8422   42.9909 C   0  0  0  0  0  0  0  0  0  0  0  0
   45.9973   34.7155   42.7340 C   0  0  0  0  0  0  0  0  0  0  0  0
   46.1697   33.8756   43.7651 N   0  0  0  0  0  0  0  0  0  0  0  0
   45.6502   34.0792   44.9923 C   0  0  0  0  0  0  0  0  0  0  0  0
   44.9112   35.1658   45.2539 N   0  0  0  0  0  0  0  0  0  0  0  0
   48.5665   35.7054   42.3025 C   0  0  0  0  0  0  0  0  0  0  0  0
   49.5307   35.0411   39.8633 H   0  0  0  0  0  0  0  0  0  0  0  0
   48.4138   33.7484   38.1560 H   0  0  0  0  0  0  0  0  0  0  0  0
   46.1303   32.8389   38.4743 H   0  0  0  0  0  0  0  0  0  0  0  0
   45.0091   33.2980   40.6222 H   0  0  0  0  0  0  0  0  0  0  0  0
   44.0931   36.9587   44.4446 H   0  0  0  0  0  0  0  0  0  0  0  0
   45.0727   36.5494   42.1778 H   0  0  0  0  0  0  0  0  0  0  0  0
   45.8914   33.2941   45.7086 H   0  0  0  0  0  0  0  0  0  0  0  0
   48.5588   35.0898   43.2016 H   0  0  0  0  0  0  0  0  0  0  0  0
   47.9156   36.6059   42.4969 H   0  0  0  0  0  0  0  0  0  0  0  0
   49.8404   37.8672   44.0289 Cl  0  0  0  0  0  0  0  0  0  0  0  0
   50.5736   37.1216   42.6212 C   0  0  0  0  0  0  0  0  0  0  0  0
   49.9203   36.1460   41.8965 C   0  0  0  0  0  0  0  0  0  0  0  0
   50.4940   35.5478   40.7774 C   0  0  0  0  0  0  0  0  0  0  0  0
   49.9329   34.7908   40.2526 H   0  0  0  0  0  0  0  0  0  0  0  0
   51.7517   35.9192   40.3545 C   0  0  0  0  0  0  0  0  0  0  0  0
   52.1364   35.4105   39.4741 H   0  0  0  0  0  0  0  0  0  0  0  0
   52.4014   36.8797   41.0635 C   0  0  0  0  0  0  0  0  0  0  0  0
   51.8502   37.4920   42.1840 C   0  0  0  0  0  0  0  0  0  0  0  0
   53.3985   37.1509   40.7000 H   0  0  0  0  0  0  0  0  0  0  0  0
   52.4020   38.2476   42.7135 H   0  0  0  0  0  0  0  0  0  0  0  0
  1  9  1  0
  2  1  1  0
  2 13  1  0
  3  2  2  0
  4  5  2  0
  4  3  1  0
  5  6  1  0
  6  1  2  0
  7 12  2  0
  8  7  1  0
  9  8  2  0
  9 10  1  0
 10 11  2  0
 11 12  1  0
  3 14  1  0
  4 15  1  0
  5 16  1  0
  6 17  1  0
  7 18  1  0
  8 19  1  0
 11 20  1  0
 13 21  1  0
 13 22  1  0
 23 24  1  0
 24 25  2  0
 25 26  1  0
 26 27  1  0
 26 28  2  0
 28 29  1  0
 28 30  1  0
 30 31  2  0
 31 24  1  0
 30 32  1  0
 31 33  1  0
 13 25  1  0
M  ISO  8  14  14  15  14  16  14  17  14  18  14  19  14  20  14  21   8
M  ISO  3  22   8  27  15  29  16
M  END
>  <DihAtoms>  (1) 
1,12,24,23

>  <DihDeg>  (1) 
76.01734917311221

$$$$
