
     RDKit          3D

 38 40  0  0  1  0  0  0  0  0999 V2000
   46.8370   32.8380   45.0500 N   0  0  0  0  0  0  0  0  0  0  0  0
   46.2210   33.1890   46.3360 C   0  0  0  0  0  0  0  0  0  0  0  0
   47.0370   32.4820   47.4080 C   0  0  0  0  0  0  0  0  0  0  0  0
   46.7590   31.0070   47.2940 C   0  0  0  0  0  0  0  0  0  0  0  0
   47.0060   30.5810   45.8810 C   0  0  0  0  0  0  0  0  0  0  0  0
   47.5570   31.6360   44.9920 C   0  0  1  0  0  0  0  0  0  0  0  0
   44.9330   30.5450   43.6820 Cl  0  0  0  0  0  0  0  0  0  0  0  0
   46.5220   30.4310   43.0050 C   0  0  0  0  0  0  0  0  0  0  0  0
   47.6500   30.9390   43.6620 C   0  0  0  0  0  0  0  0  0  0  0  0
   48.8800   30.7310   43.0060 C   0  0  0  0  0  0  0  0  0  0  0  0
   48.9780   30.0770   41.7990 C   0  0  0  0  0  0  0  0  0  0  0  0
   47.8340   29.5990   41.1950 C   0  0  0  0  0  0  0  0  0  0  0  0
   46.6060   29.7750   41.7960 C   0  0  0  0  0  0  0  0  0  0  0  0
   47.5910   34.9810   42.1400 C   0  0  0  0  0  0  0  0  0  0  0  0
   47.7770   34.1680   43.2560 C   0  0  0  0  0  0  0  0  0  0  0  0
   46.6810   33.6980   43.9500 C   0  0  0  0  0  0  0  0  0  0  0  0
   45.4500   34.0610   43.5050 N   0  0  0  0  0  0  0  0  0  0  0  0
   45.2740   34.8520   42.4250 C   0  0  0  0  0  0  0  0  0  0  0  0
   46.3510   35.3110   41.7410 N   0  0  0  0  0  0  0  0  0  0  0  0
   48.8190   35.4230   41.3930 C   0  0  0  0  0  0  0  0  0  0  0  0
   48.6040   35.4360   40.0190 F   0  0  0  0  0  0  0  0  0  0  0  0
   49.1450   36.6750   41.8590 F   0  0  0  0  0  0  0  0  0  0  0  0
   49.8730   34.5620   41.6720 F   0  0  0  0  0  0  0  0  0  0  0  0
   46.2532   34.2778   46.4891 H   0  0  0  0  0  0  0  0  0  0  0  0
   45.1652   32.8823   46.3703 H   0  0  0  0  0  0  0  0  0  0  0  0
   48.1086   32.6748   47.2516 H   0  0  0  0  0  0  0  0  0  0  0  0
   46.7627   32.8503   48.4075 H   0  0  0  0  0  0  0  0  0  0  0  0
   47.4253   30.4512   47.9702 H   0  0  0  0  0  0  0  0  0  0  0  0
   45.7150   30.7994   47.5714 H   0  0  0  0  0  0  0  0  0  0  0  0
   47.7182   29.7429   45.8973 H   0  0  0  0  0  0  0  0  0  0  0  0
   46.0234   30.3128   45.4656 H   0  0  0  0  0  0  0  0  0  0  0  0
   48.5464   32.0165   45.2858 H   0  0  0  0  0  0  0  0  0  0  0  0
   49.7996   31.1069   43.4782 H   0  0  0  0  0  0  0  0  0  0  0  0
   49.9587   29.9370   41.3209 H   0  0  0  0  0  0  0  0  0  0  0  0
   47.9017   29.0753   40.2300 H   0  0  0  0  0  0  0  0  0  0  0  0
   45.6953   29.3927   41.3117 H   0  0  0  0  0  0  0  0  0  0  0  0
   48.7932   33.9020   43.5824 H   0  0  0  0  0  0  0  0  0  0  0  0
   44.2586   35.1236   42.1006 H   0  0  0  0  0  0  0  0  0  0  0  0
  1  2  1  0
  2  3  1  0
  4  3  1  0
  5  4  1  0
  6  1  1  0
  6  5  1  0
  8  9  2  0
  8  7  1  0
  9  6  1  0
 10  9  1  0
 11 10  2  0
 12 13  2  0
 12 11  1  0
 13  8  1  0
 14 15  2  0
 15 16  1  0
 16  1  1  0
 17 16  2  0
 18 17  1  0
 19 14  1  0
 19 18  2  0
 20 23  1  0
 20 22  1  0
 20 14  1  0
 21 20  1  0
  2 24  1  0
  2 25  1  0
  3 26  1  0
  3 27  1  0
  4 28  1  0
  4 29  1  0
  5 30  1  0
  5 31  1  0
  6 32  1  1
 10 33  1  0
 11 34  1  0
 12 35  1  0
 13 36  1  0
 15 37  1  0
 18 38  1  0
M  ISO  8  24  13  25  13  26  13  27  13  28  13  29  13  30  13  31  13
M  ISO  7  32  13  33  14  34  14  35  14  36  14  37  14  38  14
M  END
>  <minimizedAffinity>  (1) 
-5.22970676

>  <minimizedRMSD>  (1) 
2.0101347

$$$$
