
     RDKit          3D

 35 37  0  0  1  0  0  0  0  0999 V2000
   46.0950   34.3070   41.0570 N   0  0  0  0  0  0  0  0  0  0  0  0
   46.8910   33.9650   39.8780 C   0  0  0  0  0  0  0  0  0  0  0  0
   48.1750   33.3600   40.4150 C   0  0  0  0  0  0  0  0  0  0  0  0
   48.9460   34.3320   41.2430 C   0  0  0  0  0  0  0  0  0  0  0  0
   48.1170   35.3090   42.0210 C   0  0  0  0  0  0  0  0  0  0  0  0
   46.6810   34.9040   42.2010 C   0  0  2  0  0  0  0  0  0  0  0  0
   42.7380   32.6920   41.3200 C   0  0  0  0  0  0  0  0  0  0  0  0
   44.1210   32.8400   41.3140 C   0  0  0  0  0  0  0  0  0  0  0  0
   44.7020   34.0770   41.0560 C   0  0  0  0  0  0  0  0  0  0  0  0
   43.8310   35.1200   40.8100 N   0  0  0  0  0  0  0  0  0  0  0  0
   42.4820   34.9430   40.8230 C   0  0  0  0  0  0  0  0  0  0  0  0
   41.9500   33.7310   41.0780 N   0  0  0  0  0  0  0  0  0  0  0  0
   44.6110   36.3080   43.9360 Cl  0  0  0  0  0  0  0  0  0  0  0  0
   45.5070   34.8610   44.4360 C   0  0  0  0  0  0  0  0  0  0  0  0
   46.4200   34.3080   43.5210 C   0  0  0  0  0  0  0  0  0  0  0  0
   47.0260   33.1900   44.0760 C   0  0  0  0  0  0  0  0  0  0  0  0
   46.7940   32.6780   45.3180 C   0  0  0  0  0  0  0  0  0  0  0  0
   45.8810   33.2900   46.1390 C   0  0  0  0  0  0  0  0  0  0  0  0
   45.2230   34.3990   45.7000 C   0  0  0  0  0  0  0  0  0  0  0  0
   47.1091   34.8667   39.2870 H   0  0  0  0  0  0  0  0  0  0  0  0
   46.3581   33.2675   39.2151 H   0  0  0  0  0  0  0  0  0  0  0  0
   47.9242   32.4862   41.0343 H   0  0  0  0  0  0  0  0  0  0  0  0
   48.8005   33.0727   39.5570 H   0  0  0  0  0  0  0  0  0  0  0  0
   49.5573   33.7606   41.9570 H   0  0  0  0  0  0  0  0  0  0  0  0
   49.5390   34.9309   40.5361 H   0  0  0  0  0  0  0  0  0  0  0  0
   48.5684   35.4257   43.0173 H   0  0  0  0  0  0  0  0  0  0  0  0
   48.1079   36.2433   41.4405 H   0  0  0  0  0  0  0  0  0  0  0  0
   46.0789   35.8232   42.2506 H   0  0  0  0  0  0  0  0  0  0  0  0
   42.2949   31.7067   41.5268 H   0  0  0  0  0  0  0  0  0  0  0  0
   44.7622   31.9692   41.5155 H   0  0  0  0  0  0  0  0  0  0  0  0
   41.8188   35.7976   40.6234 H   0  0  0  0  0  0  0  0  0  0  0  0
   47.7657   32.6657   43.4532 H   0  0  0  0  0  0  0  0  0  0  0  0
   47.3340   31.7823   45.6588 H   0  0  0  0  0  0  0  0  0  0  0  0
   45.6819   32.8884   47.1436 H   0  0  0  0  0  0  0  0  0  0  0  0
   44.4864   34.9099   46.3375 H   0  0  0  0  0  0  0  0  0  0  0  0
  1  6  1  0
  2  3  1  0
  2  1  1  0
  3  4  1  0
  4  5  1  0
  5  6  1  0
  6 15  1  0
  8  7  2  0
  9  1  1  0
  9  8  1  0
 10 11  1  0
 10  9  2  0
 11 12  2  0
 12  7  1  0
 13 14  1  0
 14 19  2  0
 15 16  2  0
 15 14  1  0
 16 17  1  0
 17 18  2  0
 19 18  1  0
  2 20  1  0
  2 21  1  0
  3 22  1  0
  3 23  1  0
  4 24  1  0
  4 25  1  0
  5 26  1  0
  5 27  1  0
  6 28  1  1
  7 29  1  0
  8 30  1  0
 11 31  1  0
 16 32  1  0
 17 33  1  0
 18 34  1  0
 19 35  1  0
M  ISO  8  20  13  21  13  22  13  23  13  24  13  25  13  26  13  27  13
M  ISO  8  28  13  29  14  30  14  31  14  32  14  33  14  34  14  35  14
M  END
>  <minimizedAffinity>  (1) 
-5.37383509

>  <minimizedRMSD>  (1) 
4.71976089

$$$$
