
     RDKit          3D

 30 32  0  0  0  0  0  0  0  0999 V2000
   44.4820   35.8660   44.9460 C   0  0  0  0  0  0  0  0  0  0  0  0
   45.1400   35.7940   43.7140 C   0  0  0  0  0  0  0  0  0  0  0  0
   46.0310   34.7630   43.4260 C   0  0  0  0  0  0  0  0  0  0  0  0
   46.2190   33.8420   44.4060 N   0  0  0  0  0  0  0  0  0  0  0  0
   45.5800   33.9250   45.5870 C   0  0  0  0  0  0  0  0  0  0  0  0
   44.7280   34.9210   45.8450 N   0  0  0  0  0  0  0  0  0  0  0  0
   44.5860   33.1430   41.4560 Cl  0  0  0  0  0  0  0  0  0  0  0  0
   46.1190   33.9270   41.1430 C   0  0  0  0  0  0  0  0  0  0  0  0
   46.7270   34.6740   42.1390 C   0  0  0  0  0  0  0  0  0  0  0  0
   47.9380   35.2820   41.8590 C   0  0  0  0  0  0  0  0  0  0  0  0
   48.5300   35.1500   40.6220 C   0  0  0  0  0  0  0  0  0  0  0  0
   47.8810   34.3900   39.6540 C   0  0  0  0  0  0  0  0  0  0  0  0
   48.6360   34.2260   38.0880 Cl  0  0  0  0  0  0  0  0  0  0  0  0
   46.6810   33.7720   39.8900 C   0  0  0  0  0  0  0  0  0  0  0  0
   47.4350   31.7930   44.7050 Cl  0  0  0  0  0  0  0  0  0  0  0  0
   46.6870   31.8400   46.3030 C   0  0  0  0  0  0  0  0  0  0  0  0
   45.8330   32.8930   46.5980 C   0  0  0  0  0  0  0  0  0  0  0  0
   45.2480   32.9400   47.8330 C   0  0  0  0  0  0  0  0  0  0  0  0
   45.5310   31.9270   48.7530 C   0  0  0  0  0  0  0  0  0  0  0  0
   46.3910   30.8740   48.4430 C   0  0  0  0  0  0  0  0  0  0  0  0
   46.9640   30.8520   47.1940 C   0  0  0  0  0  0  0  0  0  0  0  0
   43.7795   36.6838   45.1641 H   0  0  0  0  0  0  0  0  0  0  0  0
   44.9497   36.5683   42.9562 H   0  0  0  0  0  0  0  0  0  0  0  0
   48.4359   35.8802   42.6363 H   0  0  0  0  0  0  0  0  0  0  0  0
   49.4935   35.6343   40.4047 H   0  0  0  0  0  0  0  0  0  0  0  0
   46.1837   33.1750   39.1114 H   0  0  0  0  0  0  0  0  0  0  0  0
   44.5660   33.7615   48.0979 H   0  0  0  0  0  0  0  0  0  0  0  0
   45.0631   31.9611   49.7479 H   0  0  0  0  0  0  0  0  0  0  0  0
   46.6047   30.0834   49.1773 H   0  0  0  0  0  0  0  0  0  0  0  0
   47.6463   30.0353   46.9158 H   0  0  0  0  0  0  0  0  0  0  0  0
  1  6  2  0
  2  1  1  0
  3  2  2  0
  3  4  1  0
  4  5  2  0
  5  6  1  0
  5 17  1  0
  8  7  1  0
  8  9  2  0
  9  3  1  0
 10  9  1  0
 11 10  2  0
 12 14  2  0
 12 11  1  0
 13 12  1  0
 14  8  1  0
 15 16  1  0
 16 17  2  0
 16 21  1  0
 17 18  1  0
 18 19  2  0
 20 19  1  0
 21 20  2  0
  1 22  1  0
  2 23  1  0
 10 24  1  0
 11 25  1  0
 14 26  1  0
 18 27  1  0
 19 28  1  0
 20 29  1  0
 21 30  1  0
M  ISO  8  22  14  23  14  24  14  25  14  26  14  27  14  28  14  29  14
M  ISO  1  30  14
M  END
>  <minimizedAffinity>  (1) 
-6.87839079

>  <minimizedRMSD>  (1) 
0.276424438

$$$$
