
     RDKit          3D

 41 44  0  0  1  0  0  0  0  0999 V2000
   46.6720   33.5200   44.7540 N   0  0  0  0  0  0  0  0  0  0  0  0
   47.3460   34.0000   43.6150 C   0  0  1  0  0  0  0  0  0  0  0  0
   48.4420   33.0300   43.2490 C   0  0  0  0  0  0  0  0  0  0  0  0
   47.7620   31.7880   42.8720 N   0  0  0  0  0  0  0  0  0  0  0  0
   47.0900   31.1870   43.9950 C   0  0  0  0  0  0  0  0  0  0  0  0
   46.3590   32.1580   44.8650 C   0  0  1  0  0  0  0  0  0  0  0  0
   44.8180   29.6320   45.6290 Cl  0  0  0  0  0  0  0  0  0  0  0  0
   45.7600   30.6150   46.7580 C   0  0  0  0  0  0  0  0  0  0  0  0
   46.4240   31.7510   46.2960 C   0  0  0  0  0  0  0  0  0  0  0  0
   47.1610   32.5150   47.1970 C   0  0  0  0  0  0  0  0  0  0  0  0
   47.2430   32.1660   48.5320 C   0  0  0  0  0  0  0  0  0  0  0  0
   46.5620   31.0260   48.9330 C   0  0  0  0  0  0  0  0  0  0  0  0
   45.8200   30.2410   48.0720 C   0  0  0  0  0  0  0  0  0  0  0  0
   44.7100   34.5190   41.2820 C   0  0  0  0  0  0  0  0  0  0  0  0
   45.7100   34.1480   40.4190 C   0  0  0  0  0  0  0  0  0  0  0  0
   46.8270   33.9040   41.1510 C   0  0  0  0  0  0  0  0  0  0  0  0
   46.5090   34.1220   42.4510 N   0  0  0  0  0  0  0  0  0  0  0  0
   45.2310   34.4920   42.5050 N   0  0  0  0  0  0  0  0  0  0  0  0
   41.1960   35.5890   41.5100 C   0  0  0  0  0  0  0  0  0  0  0  0
   40.7640   35.5300   40.1810 C   0  0  0  0  0  0  0  0  0  0  0  0
   41.7010   35.1170   39.2120 C   0  0  0  0  0  0  0  0  0  0  0  0
   42.9410   34.8110   39.6400 N   0  0  0  0  0  0  0  0  0  0  0  0
   43.3320   34.8750   40.9230 C   0  0  0  0  0  0  0  0  0  0  0  0
   42.4570   35.2650   41.8550 N   0  0  0  0  0  0  0  0  0  0  0  0
   45.7816   34.0346   44.8107 H   0  0  0  0  0  0  0  0  0  0  0  0
   47.7173   34.9997   43.8847 H   0  0  0  0  0  0  0  0  0  0  0  0
   49.0304   33.4170   42.4040 H   0  0  0  0  0  0  0  0  0  0  0  0
   49.1410   32.8731   44.0837 H   0  0  0  0  0  0  0  0  0  0  0  0
   47.0679   31.9963   42.1400 H   0  0  0  0  0  0  0  0  0  0  0  0
   46.3647   30.4545   43.6110 H   0  0  0  0  0  0  0  0  0  0  0  0
   47.8699   30.7282   44.6205 H   0  0  0  0  0  0  0  0  0  0  0  0
   45.3382   32.0924   44.4603 H   0  0  0  0  0  0  0  0  0  0  0  0
   47.6875   33.4124   46.8400 H   0  0  0  0  0  0  0  0  0  0  0  0
   47.8241   32.7673   49.2467 H   0  0  0  0  0  0  0  0  0  0  0  0
   46.6156   30.7318   49.9916 H   0  0  0  0  0  0  0  0  0  0  0  0
   45.2944   29.3441   48.4317 H   0  0  0  0  0  0  0  0  0  0  0  0
   45.6221   34.0631   39.3258 H   0  0  0  0  0  0  0  0  0  0  0  0
   47.8065   33.5886   40.7623 H   0  0  0  0  0  0  0  0  0  0  0  0
   40.4899   35.9072   42.2911 H   0  0  0  0  0  0  0  0  0  0  0  0
   39.7334   35.7955   39.9028 H   0  0  0  0  0  0  0  0  0  0  0  0
   41.4301   35.0474   38.1482 H   0  0  0  0  0  0  0  0  0  0  0  0
  1  6  1  0
  2  1  1  0
  3  2  1  0
  4  3  1  0
  4  5  1  0
  5  6  1  0
  6  9  1  0
  7  8  1  0
  8 13  2  0
  9  8  1  0
  9 10  2  0
 10 11  1  0
 11 12  2  0
 13 12  1  0
 14 18  2  0
 15 16  2  0
 15 14  1  0
 16 17  1  0
 17 18  1  0
 17  2  1  0
 19 24  2  0
 20 19  1  0
 21 22  1  0
 21 20  2  0
 22 23  2  0
 23 14  1  0
 23 24  1  0
  1 25  1  0
  2 26  1  1
  3 27  1  0
  3 28  1  0
  4 29  1  0
  5 30  1  0
  5 31  1  0
  6 32  1  6
 10 33  1  0
 11 34  1  0
 12 35  1  0
 13 36  1  0
 15 37  1  0
 16 38  1  0
 19 39  1  0
 20 40  1  0
 21 41  1  0
M  ISO  8  25   5  26  13  27  13  28  13  29   5  30  13  31  13  32  13
M  ISO  8  33  14  34  14  35  14  36  14  37  14  38  14  39  14  40  14
M  ISO  1  41  14
M  END
>  <minimizedAffinity>  (1) 
-5.76640892

>  <minimizedRMSD>  (1) 
4.8770051

$$$$
