
     RDKit          3D

 42 45  0  0  1  0  0  0  0  0999 V2000
   49.4630   33.4930   41.3220 N   0  0  0  0  0  0  0  0  0  0  0  0
   50.6750   33.0970   41.9940 C   0  0  0  0  0  0  0  0  0  0  0  0
   51.2370   31.7830   41.5960 C   0  0  0  0  0  0  0  0  0  0  0  0
   50.2610   30.6820   41.9740 C   0  0  0  0  0  0  0  0  0  0  0  0
   48.8620   31.1520   41.7910 C   0  0  0  0  0  0  0  0  0  0  0  0
   48.7630   32.3120   40.8510 C   0  0  2  0  0  0  0  0  0  0  0  0
   48.3290   34.4180   38.5530 Cl  0  0  0  0  0  0  0  0  0  0  0  0
   48.8610   32.7980   38.3050 C   0  0  0  0  0  0  0  0  0  0  0  0
   48.9570   32.0200   39.4300 C   0  0  0  0  0  0  0  0  0  0  0  0
   49.3480   30.6880   39.2400 C   0  0  0  0  0  0  0  0  0  0  0  0
   49.6180   30.2210   37.9470 C   0  0  0  0  0  0  0  0  0  0  0  0
   49.5060   31.0520   36.8450 C   0  0  0  0  0  0  0  0  0  0  0  0
   49.1210   32.3600   37.0380 C   0  0  0  0  0  0  0  0  0  0  0  0
   47.3200   34.7900   41.9470 C   0  0  1  0  0  0  0  0  0  0  0  0
   48.4700   35.7030   41.8280 C   0  0  0  0  0  0  0  0  0  0  0  0
   48.7030   34.2920   42.2200 C   0  0  2  0  0  0  0  0  0  0  0  0
   45.5300   36.0710   43.1640 C   0  0  0  0  0  0  0  0  0  0  0  0
   46.3790   34.9490   43.0850 C   0  0  0  0  0  0  0  0  0  0  0  0
   46.2970   33.9930   44.1080 C   0  0  0  0  0  0  0  0  0  0  0  0
   45.4080   34.2050   45.1070 N   0  0  0  0  0  0  0  0  0  0  0  0
   44.6040   35.2890   45.1600 C   0  0  0  0  0  0  0  0  0  0  0  0
   44.6600   36.2380   44.1800 N   0  0  0  0  0  0  0  0  0  0  0  0
   51.4374   33.8642   41.7938 H   0  0  0  0  0  0  0  0  0  0  0  0
   50.4072   32.9968   43.0562 H   0  0  0  0  0  0  0  0  0  0  0  0
   52.1930   31.6202   42.1151 H   0  0  0  0  0  0  0  0  0  0  0  0
   51.4043   31.7687   40.5089 H   0  0  0  0  0  0  0  0  0  0  0  0
   50.4365   29.8050   41.3337 H   0  0  0  0  0  0  0  0  0  0  0  0
   50.4144   30.4126   43.0294 H   0  0  0  0  0  0  0  0  0  0  0  0
   48.2610   30.3221   41.3909 H   0  0  0  0  0  0  0  0  0  0  0  0
   48.4915   31.4853   42.7717 H   0  0  0  0  0  0  0  0  0  0  0  0
   47.6929   32.5651   40.8796 H   0  0  0  0  0  0  0  0  0  0  0  0
   49.4426   30.0118   40.1024 H   0  0  0  0  0  0  0  0  0  0  0  0
   49.9248   29.1743   37.8045 H   0  0  0  0  0  0  0  0  0  0  0  0
   49.7205   30.6744   35.8344 H   0  0  0  0  0  0  0  0  0  0  0  0
   49.0241   33.0438   36.1818 H   0  0  0  0  0  0  0  0  0  0  0  0
   46.4979   34.4881   41.2814 H   0  0  0  0  0  0  0  0  0  0  0  0
   48.7890   36.0559   40.8362 H   0  0  0  0  0  0  0  0  0  0  0  0
   48.7304   36.6794   42.2625 H   0  0  0  0  0  0  0  0  0  0  0  0
   49.1306   33.7277   43.0619 H   0  0  0  0  0  0  0  0  0  0  0  0
   45.5787   36.8335   42.3727 H   0  0  0  0  0  0  0  0  0  0  0  0
   46.9359   33.0976   44.0990 H   0  0  0  0  0  0  0  0  0  0  0  0
   43.9004   35.4079   45.9971 H   0  0  0  0  0  0  0  0  0  0  0  0
  1  2  1  0
  1 16  1  0
  3  4  1  0
  3  2  1  0
  5  4  1  0
  6  1  1  0
  6  5  1  0
  8  7  1  0
  8  9  2  0
  9  6  1  0
 10  9  1  0
 11 10  2  0
 12 13  2  0
 12 11  1  0
 13  8  1  0
 14 16  1  0
 14 18  1  0
 15 14  1  0
 15 16  1  0
 17 22  2  0
 18 17  1  0
 18 19  2  0
 19 20  1  0
 20 21  2  0
 22 21  1  0
  2 23  1  0
  2 24  1  0
  3 25  1  0
  3 26  1  0
  4 27  1  0
  4 28  1  0
  5 29  1  0
  5 30  1  0
  6 31  1  6
 10 32  1  0
 11 33  1  0
 12 34  1  0
 13 35  1  0
 14 36  1  6
 15 37  1  0
 15 38  1  0
 16 39  1  1
 17 40  1  0
 19 41  1  0
 21 42  1  0
M  ISO  8  23  13  24  13  25  13  26  13  27  13  28  13  29  13  30  13
M  ISO  8  31  13  32  14  33  14  34  14  35  14  36  13  37  13  38  13
M  ISO  4  39  13  40  14  41  14  42  14
M  END
>  <minimizedAffinity>  (1) 
-5.26918316

>  <minimizedRMSD>  (1) 
1.12020421

$$$$
