
     RDKit          3D

 28 30  0  0  0  0  0  0  0  0999 V2000
   45.2920   33.9810   44.8420 C   0  0  0  0  0  0  0  0  0  0  0  0
   45.1160   33.2810   43.6380 C   0  0  0  0  0  0  0  0  0  0  0  0
   45.6530   32.0050   43.5160 C   0  0  0  0  0  0  0  0  0  0  0  0
   46.3390   31.4840   44.5880 N   0  0  0  0  0  0  0  0  0  0  0  0
   46.4850   32.1890   45.7270 C   0  0  0  0  0  0  0  0  0  0  0  0
   45.9710   33.4260   45.8620 N   0  0  0  0  0  0  0  0  0  0  0  0
   47.2200   31.6010   46.8450 C   0  0  0  0  0  0  0  0  0  0  0  0
   47.5560   30.2880   46.8880 C   0  0  0  0  0  0  0  0  0  0  0  0
   48.2440   29.7170   47.9240 C   0  0  0  0  0  0  0  0  0  0  0  0
   48.5960   30.5450   48.9570 N   0  0  0  0  0  0  0  0  0  0  0  0
   48.2620   31.8400   48.9120 C   0  0  0  0  0  0  0  0  0  0  0  0
   47.5820   32.4170   47.8920 N   0  0  0  0  0  0  0  0  0  0  0  0
   45.3800   36.2900   43.1970 Cl  0  0  0  0  0  0  0  0  0  0  0  0
   44.3750   35.2690   42.2200 C   0  0  0  0  0  0  0  0  0  0  0  0
   44.3720   33.9230   42.5600 C   0  0  0  0  0  0  0  0  0  0  0  0
   43.5960   33.0430   41.8290 C   0  0  0  0  0  0  0  0  0  0  0  0
   42.8210   33.4930   40.7600 C   0  0  0  0  0  0  0  0  0  0  0  0
   42.8110   34.8450   40.4040 C   0  0  0  0  0  0  0  0  0  0  0  0
   43.6060   35.7070   41.1620 C   0  0  0  0  0  0  0  0  0  0  0  0
   44.8713   34.9914   44.9522 H   0  0  0  0  0  0  0  0  0  0  0  0
   45.5326   31.4276   42.5875 H   0  0  0  0  0  0  0  0  0  0  0  0
   47.2595   29.6472   46.0445 H   0  0  0  0  0  0  0  0  0  0  0  0
   48.5013   28.6475   47.9271 H   0  0  0  0  0  0  0  0  0  0  0  0
   48.5587   32.4774   49.7580 H   0  0  0  0  0  0  0  0  0  0  0  0
   43.5896   31.9753   42.0934 H   0  0  0  0  0  0  0  0  0  0  0  0
   42.2110   32.7762   40.1908 H   0  0  0  0  0  0  0  0  0  0  0  0
   42.2038   35.2133   39.5640 H   0  0  0  0  0  0  0  0  0  0  0  0
   43.6196   36.7766   40.9055 H   0  0  0  0  0  0  0  0  0  0  0  0
  1  6  2  0
  2  1  1  0
  3  2  2  0
  3  4  1  0
  4  5  2  0
  5  6  1  0
  5  7  1  0
  7  8  2  0
  7 12  1  0
  8  9  1  0
  9 10  2  0
 11 10  1  0
 12 11  2  0
 14 15  2  0
 14 13  1  0
 15  2  1  0
 16 15  1  0
 17 16  2  0
 18 17  1  0
 18 19  2  0
 19 14  1  0
  1 20  1  0
  3 21  1  0
  8 22  1  0
  9 23  1  0
 11 24  1  0
 16 25  1  0
 17 26  1  0
 18 27  1  0
 19 28  1  0
M  ISO  8  20  14  21  14  22  14  23  14  24  14  25  14  26  14  27  14
M  ISO  1  28  14
M  END
>  <minimizedAffinity>  (1) 
-4.86627626

>  <minimizedRMSD>  (1) 
2.67765999

$$$$
