
     RDKit          3D

 43 46  0  0  0  0  0  0  0  0999 V2000
   48.2150   33.6000   41.9870 C   0  0  0  0  0  0  0  0  0  0  0  0
   49.5390   34.1750   42.4980 C   0  0  0  0  0  0  0  0  0  0  0  0
   49.1460   32.8090   42.7820 C   0  0  0  0  0  0  0  0  0  0  0  0
   48.1910   33.3920   40.5050 C   0  0  0  0  0  0  0  0  0  0  0  0
   48.1200   34.6550   39.6800 C   0  0  0  0  0  0  0  0  0  0  0  0
   48.2920   34.1680   38.2270 C   0  0  0  0  0  0  0  0  0  0  0  0
   47.0620   33.6180   37.8770 O   0  0  0  0  0  0  0  0  0  0  0  0
   47.0440   32.3680   38.5730 C   0  0  0  0  0  0  0  0  0  0  0  0
   46.9540   32.6250   40.0680 C   0  0  0  0  0  0  0  0  0  0  0  0
   46.5770   35.4540   42.3800 C   0  0  0  0  0  0  0  0  0  0  0  0
   46.9670   34.1230   42.6150 C   0  0  0  0  0  0  0  0  0  0  0  0
   46.1610   33.3490   43.4590 C   0  0  0  0  0  0  0  0  0  0  0  0
   45.0600   33.8840   44.0150 N   0  0  0  0  0  0  0  0  0  0  0  0
   44.7310   35.1760   43.7510 C   0  0  0  0  0  0  0  0  0  0  0  0
   45.4600   35.9720   42.9520 N   0  0  0  0  0  0  0  0  0  0  0  0
   43.5670   35.7860   44.2800 N   0  0  0  0  0  0  0  0  0  0  0  0
   45.2310   30.8690   41.8590 Cl  0  0  0  0  0  0  0  0  0  0  0  0
   46.2110   30.7660   43.3290 C   0  0  0  0  0  0  0  0  0  0  0  0
   46.3910   31.9990   43.8650 C   0  0  0  0  0  0  0  0  0  0  0  0
   47.1280   31.9880   45.0700 C   0  0  0  0  0  0  0  0  0  0  0  0
   47.5880   30.7710   45.5800 C   0  0  0  0  0  0  0  0  0  0  0  0
   47.3280   29.5710   44.9130 C   0  0  0  0  0  0  0  0  0  0  0  0
   46.6060   29.5160   43.7220 C   0  0  0  0  0  0  0  0  0  0  0  0
   50.3612   34.3807   41.7968 H   0  0  0  0  0  0  0  0  0  0  0  0
   49.8388   35.0480   43.0964 H   0  0  0  0  0  0  0  0  0  0  0  0
   48.8744   32.5281   43.8103 H   0  0  0  0  0  0  0  0  0  0  0  0
   49.6329   31.8346   42.6287 H   0  0  0  0  0  0  0  0  0  0  0  0
   49.1397   32.8637   40.3295 H   0  0  0  0  0  0  0  0  0  0  0  0
   47.1482   35.1531   39.8120 H   0  0  0  0  0  0  0  0  0  0  0  0
   48.8836   35.3915   39.9706 H   0  0  0  0  0  0  0  0  0  0  0  0
   48.5399   35.0106   37.5648 H   0  0  0  0  0  0  0  0  0  0  0  0
   49.1098   33.4384   38.1326 H   0  0  0  0  0  0  0  0  0  0  0  0
   46.1731   31.7796   38.2485 H   0  0  0  0  0  0  0  0  0  0  0  0
   47.9654   31.8099   38.3506 H   0  0  0  0  0  0  0  0  0  0  0  0
   46.0538   33.2176   40.2883 H   0  0  0  0  0  0  0  0  0  0  0  0
   46.8940   31.6696   40.6099 H   0  0  0  0  0  0  0  0  0  0  0  0
   47.1886   36.0870   41.7203 H   0  0  0  0  0  0  0  0  0  0  0  0
   43.3531   36.7683   44.0558 H   0  0  0  0  0  0  0  0  0  0  0  0
   42.9346   35.2472   44.8888 H   0  0  0  0  0  0  0  0  0  0  0  0
   47.3377   32.9279   45.6016 H   0  0  0  0  0  0  0  0  0  0  0  0
   48.1620   30.7575   46.5183 H   0  0  0  0  0  0  0  0  0  0  0  0
   47.7079   28.6333   45.3446 H   0  0  0  0  0  0  0  0  0  0  0  0
   46.3832   28.5904   43.1709 H   0  0  0  0  0  0  0  0  0  0  0  0
  1  2  1  0
  1 11  1  0
  1  3  1  0
  2  3  1  0
  4  1  1  0
  5  4  1  0
  6  5  1  0
  7  6  1  0
  7  8  1  0
  8  9  1  0
  9  4  1  0
 10 11  2  0
 10 15  1  0
 11 12  1  0
 12 19  1  0
 12 13  2  0
 14 13  1  0
 14 16  1  0
 15 14  2  0
 17 18  1  0
 18 23  2  0
 18 19  1  0
 19 20  2  0
 20 21  1  0
 22 21  2  0
 23 22  1  0
  2 24  1  0
  2 25  1  0
  3 26  1  0
  3 27  1  0
  4 28  1  0
  5 29  1  0
  5 30  1  0
  6 31  1  0
  6 32  1  0
  8 33  1  0
  8 34  1  0
  9 35  1  0
  9 36  1  0
 10 37  1  0
 16 38  1  0
 16 39  1  0
 20 40  1  0
 21 41  1  0
 22 42  1  0
 23 43  1  0
M  ISO  8  24  13  25  13  26  13  27  13  28  13  29  13  30  13  31  13
M  ISO  8  32  13  33  13  34  13  35  13  36  13  37  14  40  14  41  14
M  ISO  2  42  14  43  14
M  END
>  <minimizedAffinity>  (1) 
-5.15826797

>  <minimizedRMSD>  (1) 
1.78152716

$$$$
