
     RDKit          3D

 29 31  0  0  1  0  0  0  0  0999 V2000
   46.7870   32.5240   46.0380 C   0  0  1  0  0  0  0  0  0  0  0  0
   47.0090   32.7820   47.4860 C   0  0  0  0  0  0  0  0  0  0  0  0
   45.7950   32.0920   47.0800 C   0  0  2  0  0  0  0  0  0  0  0  0
   45.1200   30.5010   49.6420 Cl  0  0  0  0  0  0  0  0  0  0  0  0
   45.2120   29.8000   48.0480 C   0  0  0  0  0  0  0  0  0  0  0  0
   45.5220   30.6670   47.0250 C   0  0  0  0  0  0  0  0  0  0  0  0
   45.5820   30.0580   45.7630 C   0  0  0  0  0  0  0  0  0  0  0  0
   45.3510   28.7180   45.5680 C   0  0  0  0  0  0  0  0  0  0  0  0
   45.0440   27.9110   46.6450 C   0  0  0  0  0  0  0  0  0  0  0  0
   44.9720   28.4530   47.9110 C   0  0  0  0  0  0  0  0  0  0  0  0
   46.4200   34.7320   43.1410 C   0  0  0  0  0  0  0  0  0  0  0  0
   45.3390   35.5740   43.4940 C   0  0  0  0  0  0  0  0  0  0  0  0
   44.7490   35.3540   44.7500 C   0  0  0  0  0  0  0  0  0  0  0  0
   45.2460   34.3590   45.5390 N   0  0  0  0  0  0  0  0  0  0  0  0
   46.2880   33.5930   45.1270 C   0  0  0  0  0  0  0  0  0  0  0  0
   46.8820   33.7550   43.9540 N   0  0  0  0  0  0  0  0  0  0  0  0
   46.9930   35.0020   41.8500 C   0  0  0  0  0  0  0  0  0  0  0  0
   48.1690   35.4470   41.6590 O   0  0  0  0  0  0  0  0  0  0  0  0
   47.4152   32.0762   45.2539 H   0  0  0  0  0  0  0  0  0  0  0  0
   47.7954   32.2326   48.0243 H   0  0  0  0  0  0  0  0  0  0  0  0
   47.2199   33.6809   48.0840 H   0  0  0  0  0  0  0  0  0  0  0  0
   44.7683   32.2643   47.4353 H   0  0  0  0  0  0  0  0  0  0  0  0
   45.8250   30.6815   44.8900 H   0  0  0  0  0  0  0  0  0  0  0  0
   45.4105   28.2894   44.5567 H   0  0  0  0  0  0  0  0  0  0  0  0
   44.8571   26.8376   46.4937 H   0  0  0  0  0  0  0  0  0  0  0  0
   44.7303   27.8279   48.7832 H   0  0  0  0  0  0  0  0  0  0  0  0
   44.9779   36.3628   42.8177 H   0  0  0  0  0  0  0  0  0  0  0  0
   43.9042   35.9712   45.0896 H   0  0  0  0  0  0  0  0  0  0  0  0
   46.3696   34.8099   40.9643 H   0  0  0  0  0  0  0  0  0  0  0  0
  1  3  1  0
  1  2  1  0
  3  2  1  0
  5  4  1  0
  6  3  1  0
  6  5  2  0
  7  6  1  0
  8  7  2  0
  8  9  1  0
  9 10  2  0
 10  5  1  0
 11 12  2  0
 11 16  1  0
 12 13  1  0
 13 14  2  0
 15 14  1  0
 15  1  1  0
 16 15  2  0
 17 11  1  0
 18 17  2  0
  1 19  1  6
  2 20  1  0
  2 21  1  0
  3 22  1  6
  7 23  1  0
  8 24  1  0
  9 25  1  0
 10 26  1  0
 12 27  1  0
 13 28  1  0
 17 29  1  0
M  ISO  8  19  13  20  13  21  13  22  13  23  14  24  14  25  14  26  14
M  ISO  3  27  14  28  14  29   6
M  END
>  <minimizedAffinity>  (1) 
-4.95248747

>  <minimizedRMSD>  (1) 
1.52463651

$$$$
