
     RDKit          3D

 48 52  0  0  1  0  0  0  0  0999 V2000
   48.8880   29.8780   46.2390 N   0  0  0  0  0  0  0  0  0  0  0  0
   48.5900   29.6290   44.8730 C   0  0  1  0  0  0  0  0  0  0  0  0
   47.5740   28.5370   44.7760 C   0  0  0  0  0  0  0  0  0  0  0  0
   46.3690   29.0840   45.3660 N   0  0  0  0  0  0  0  0  0  0  0  0
   46.5260   29.3050   46.7800 C   0  0  0  0  0  0  0  0  0  0  0  0
   47.8460   29.8860   47.1860 C   0  0  2  0  0  0  0  0  0  0  0  0
   46.9670   32.6390   43.9240 C   0  0  0  0  0  0  0  0  0  0  0  0
   47.5660   32.2930   42.7220 C   0  0  0  0  0  0  0  0  0  0  0  0
   48.2450   31.1350   42.9060 C   0  0  0  0  0  0  0  0  0  0  0  0
   48.0660   30.7800   44.1940 N   0  0  0  0  0  0  0  0  0  0  0  0
   47.3060   31.6850   44.7770 N   0  0  0  0  0  0  0  0  0  0  0  0
   44.7550   35.0830   45.5620 C   0  0  0  0  0  0  0  0  0  0  0  0
   44.6130   36.0700   44.5740 C   0  0  0  0  0  0  0  0  0  0  0  0
   45.2770   35.8740   43.3720 C   0  0  0  0  0  0  0  0  0  0  0  0
   46.0200   34.7570   43.2120 N   0  0  0  0  0  0  0  0  0  0  0  0
   46.1370   33.8270   44.1780 C   0  0  0  0  0  0  0  0  0  0  0  0
   45.5080   33.9780   45.3600 N   0  0  0  0  0  0  0  0  0  0  0  0
   47.5810   31.2640   47.7640 C   0  0  1  0  0  0  0  0  0  0  0  0
   46.9600   31.2550   49.1610 C   0  0  0  0  0  0  0  0  0  0  0  0
   48.3120   31.8120   48.8990 C   0  0  1  0  0  0  0  0  0  0  0  0
   50.7550   33.5000   49.7920 Cl  0  0  0  0  0  0  0  0  0  0  0  0
   50.5740   31.7750   50.0230 C   0  0  0  0  0  0  0  0  0  0  0  0
   49.4270   31.1360   49.6020 C   0  0  0  0  0  0  0  0  0  0  0  0
   49.4560   29.7890   49.8970 C   0  0  0  0  0  0  0  0  0  0  0  0
   50.4770   29.1220   50.5280 C   0  0  0  0  0  0  0  0  0  0  0  0
   51.5930   29.8300   50.9160 C   0  0  0  0  0  0  0  0  0  0  0  0
   51.6410   31.1800   50.6580 C   0  0  0  0  0  0  0  0  0  0  0  0
   49.3401   30.8024   46.2833 H   0  0  0  0  0  0  0  0  0  0  0  0
   49.5385   29.3489   44.3914 H   0  0  0  0  0  0  0  0  0  0  0  0
   47.3993   28.2652   43.7245 H   0  0  0  0  0  0  0  0  0  0  0  0
   47.9041   27.6222   45.2900 H   0  0  0  0  0  0  0  0  0  0  0  0
   46.1505   29.9811   44.9095 H   0  0  0  0  0  0  0  0  0  0  0  0
   45.7341   29.9945   47.1079 H   0  0  0  0  0  0  0  0  0  0  0  0
   46.4661   28.3147   47.2551 H   0  0  0  0  0  0  0  0  0  0  0  0
   48.2667   29.2001   47.9361 H   0  0  0  0  0  0  0  0  0  0  0  0
   47.5011   32.8605   41.7819 H   0  0  0  0  0  0  0  0  0  0  0  0
   48.8295   30.5898   42.1502 H   0  0  0  0  0  0  0  0  0  0  0  0
   44.2404   35.2117   46.5256 H   0  0  0  0  0  0  0  0  0  0  0  0
   43.9980   36.9656   44.7466 H   0  0  0  0  0  0  0  0  0  0  0  0
   45.1999   36.6153   42.5630 H   0  0  0  0  0  0  0  0  0  0  0  0
   47.3751   31.6738   46.7642 H   0  0  0  0  0  0  0  0  0  0  0  0
   46.1200   31.9236   49.4004 H   0  0  0  0  0  0  0  0  0  0  0  0
   46.5348   30.4943   49.8323 H   0  0  0  0  0  0  0  0  0  0  0  0
   48.8368   32.7733   49.0010 H   0  0  0  0  0  0  0  0  0  0  0  0
   48.5801   29.1939   49.5992 H   0  0  0  0  0  0  0  0  0  0  0  0
   50.4049   28.0413   50.7202 H   0  0  0  0  0  0  0  0  0  0  0  0
   52.4293   29.3256   51.4222 H   0  0  0  0  0  0  0  0  0  0  0  0
   52.5176   31.7748   50.9542 H   0  0  0  0  0  0  0  0  0  0  0  0
  1  6  1  0
  2  1  1  0
  3  2  1  0
  3  4  1  0
  4  5  1  0
  5  6  1  0
  6 18  1  0
  7 16  1  0
  7 11  2  0
  8  9  2  0
  8  7  1  0
  9 10  1  0
 10 11  1  0
 10  2  1  0
 13 12  2  0
 14 13  1  0
 15 14  2  0
 15 16  1  0
 16 17  2  0
 17 12  1  0
 18 20  1  0
 18 19  1  0
 20 19  1  0
 20 23  1  0
 21 22  1  0
 22 27  2  0
 23 24  2  0
 23 22  1  0
 24 25  1  0
 25 26  2  0
 27 26  1  0
  1 28  1  0
  2 29  1  6
  3 30  1  0
  3 31  1  0
  4 32  1  0
  5 33  1  0
  5 34  1  0
  6 35  1  1
  8 36  1  0
  9 37  1  0
 12 38  1  0
 13 39  1  0
 14 40  1  0
 18 41  1  6
 19 42  1  0
 19 43  1  0
 20 44  1  6
 24 45  1  0
 25 46  1  0
 26 47  1  0
 27 48  1  0
M  ISO  8  28   5  29  13  30  13  31  13  32   5  33  13  34  13  35  13
M  ISO  8  36  14  37  14  38  14  39  14  40  14  41  13  42  13  43  13
M  ISO  5  44  13  45  14  46  14  47  14  48  14
M  END
>  <minimizedAffinity>  (1) 
-5.45033979

>  <minimizedRMSD>  (1) 
1.94063711

$$$$
