
     RDKit          3D

 27 29  0  0  0  0  0  0  0  0999 V2000
   44.5658   35.7857   44.7134 C   0  0  0  0  0  0  0  0  0  0  0  0
   45.2747   35.5753   43.5030 C   0  0  0  0  0  0  0  0  0  0  0  0
   46.1531   34.4759   43.4369 C   0  0  0  0  0  0  0  0  0  0  0  0
   46.2737   33.6736   44.5409 N   0  0  0  0  0  0  0  0  0  0  0  0
   45.5732   33.9206   45.6699 C   0  0  0  0  0  0  0  0  0  0  0  0
   44.7215   34.9741   45.7556 N   0  0  0  0  0  0  0  0  0  0  0  0
   45.8697   32.9297   46.6990 C   0  0  0  0  0  0  0  0  0  0  0  0
   45.1454   32.7945   47.9138 C   0  0  0  0  0  0  0  0  0  0  0  0
   45.5226   31.8331   48.7841 C   0  0  0  0  0  0  0  0  0  0  0  0
   46.6108   30.9856   48.4892 C   0  0  0  0  0  0  0  0  0  0  0  0
   47.1006   31.6309   46.8611 S   0  0  0  0  0  0  0  0  0  0  0  0
   43.8864   36.6213   44.7898 H   0  0  0  0  0  0  0  0  0  0  0  0
   45.1420   36.2465   42.6501 H   0  0  0  0  0  0  0  0  0  0  0  0
   46.7111   34.2786   42.5384 H   0  0  0  0  0  0  0  0  0  0  0  0
   44.3065   33.4857   48.0861 H   0  0  0  0  0  0  0  0  0  0  0  0
   44.9808   31.7230   49.7056 H   0  0  0  0  0  0  0  0  0  0  0  0
   46.1626   30.4354   51.4749 Cl  0  0  0  0  0  0  0  0  0  0  0  0
   47.2016   29.5251   50.4101 C   0  0  0  0  0  0  0  0  0  0  0  0
   47.2614   29.9393   49.0989 C   0  0  0  0  0  0  0  0  0  0  0  0
   48.1260   29.1297   48.3528 C   0  0  0  0  0  0  0  0  0  0  0  0
   48.3078   29.2997   47.2844 H   0  0  0  0  0  0  0  0  0  0  0  0
   48.8272   28.0597   48.8556 C   0  0  0  0  0  0  0  0  0  0  0  0
   49.4844   27.4605   48.2452 H   0  0  0  0  0  0  0  0  0  0  0  0
   48.6813   27.7466   50.1862 C   0  0  0  0  0  0  0  0  0  0  0  0
   47.8565   28.4756   51.0142 C   0  0  0  0  0  0  0  0  0  0  0  0
   49.2343   26.9050   50.5768 H   0  0  0  0  0  0  0  0  0  0  0  0
   47.7504   28.2236   52.0472 H   0  0  0  0  0  0  0  0  0  0  0  0
  1  6  2  0
  2  1  1  0
  3  2  2  0
  3  4  1  0
  4  5  2  0
  5  6  1  0
  5  7  1  0
  7 11  1  0
  7  8  2  0
  8  9  1  0
 10  9  2  0
 11 10  1  0
  1 12  1  0
  2 13  1  0
  3 14  1  0
  8 15  1  0
  9 16  1  0
 17 18  1  0
 18 19  2  0
 19 20  1  0
 20 21  1  0
 20 22  2  0
 22 23  1  0
 22 24  1  0
 24 25  2  0
 25 18  1  0
 24 26  1  0
 25 27  1  0
 10 19  1  0
M  ISO  7  12  14  13  14  14  14  15  14  16  14  21  15  23  16
M  END
>  <DihAtoms>  (1) 
8,9,18,17

>  <DihDeg>  (1) 
0.002131958250114288

$$$$
