
     RDKit          3D

 33 35  0  0  0  0  0  0  0  0999 V2000
   45.7190   31.7220   47.0960 C   0  0  0  0  0  0  0  0  0  0  0  0
   45.5480   32.1790   48.4070 C   0  0  0  0  0  0  0  0  0  0  0  0
   45.3330   31.3330   49.4760 C   0  0  0  0  0  0  0  0  0  0  0  0
   45.2900   29.9900   49.2130 C   0  0  0  0  0  0  0  0  0  0  0  0
   45.4590   29.5240   47.9190 C   0  0  0  0  0  0  0  0  0  0  0  0
   45.6660   30.3930   46.9140 N   0  0  0  0  0  0  0  0  0  0  0  0
   44.7360   36.7170   43.8480 C   0  0  0  0  0  0  0  0  0  0  0  0
   45.5840   36.4260   42.7770 C   0  0  0  0  0  0  0  0  0  0  0  0
   46.2340   35.1870   42.7860 C   0  0  0  0  0  0  0  0  0  0  0  0
   46.0060   34.3330   43.8320 N   0  0  0  0  0  0  0  0  0  0  0  0
   45.1800   34.6600   44.8400 C   0  0  0  0  0  0  0  0  0  0  0  0
   44.5320   35.8560   44.8640 N   0  0  0  0  0  0  0  0  0  0  0  0
   45.9430   32.6610   45.9990 C   0  0  0  0  0  0  0  0  0  0  0  0
   46.9150   32.5040   45.2280 O   0  0  0  0  0  0  0  0  0  0  0  0
   44.9840   33.7350   45.8970 N   0  0  0  0  0  0  0  0  0  0  0  0
   48.1070   28.2350   47.6760 Cl  0  0  0  0  0  0  0  0  0  0  0  0
   46.5810   27.3760   47.4810 C   0  0  0  0  0  0  0  0  0  0  0  0
   45.4160   28.1000   47.6200 C   0  0  0  0  0  0  0  0  0  0  0  0
   44.2700   27.3560   47.4520 C   0  0  0  0  0  0  0  0  0  0  0  0
   44.2850   26.0060   47.1700 C   0  0  0  0  0  0  0  0  0  0  0  0
   45.4810   25.3310   47.0410 C   0  0  0  0  0  0  0  0  0  0  0  0
   46.6620   26.0270   47.2000 C   0  0  0  0  0  0  0  0  0  0  0  0
   45.5867   33.2622   48.5945 H   0  0  0  0  0  0  0  0  0  0  0  0
   45.2017   31.7215   50.4967 H   0  0  0  0  0  0  0  0  0  0  0  0
   45.1204   29.2771   50.0334 H   0  0  0  0  0  0  0  0  0  0  0  0
   44.2150   37.6857   43.8625 H   0  0  0  0  0  0  0  0  0  0  0  0
   45.7351   37.1438   41.9573 H   0  0  0  0  0  0  0  0  0  0  0  0
   46.9145   34.9045   41.9692 H   0  0  0  0  0  0  0  0  0  0  0  0
   44.1986   33.8249   46.5572 H   0  0  0  0  0  0  0  0  0  0  0  0
   43.2976   27.8614   47.5470 H   0  0  0  0  0  0  0  0  0  0  0  0
   43.3360   25.4635   47.0470 H   0  0  0  0  0  0  0  0  0  0  0  0
   45.4932   24.2546   46.8149 H   0  0  0  0  0  0  0  0  0  0  0  0
   47.6355   25.5235   47.1059 H   0  0  0  0  0  0  0  0  0  0  0  0
  1  2  2  0
  2  3  1  0
  4  3  2  0
  5  4  1  0
  6  1  1  0
  6  5  2  0
  7 12  2  0
  8  9  2  0
  8  7  1  0
  9 10  1  0
 10 11  2  0
 11 12  1  0
 11 15  1  0
 13  1  1  0
 14 13  2  0
 15 13  1  0
 17 18  2  0
 17 16  1  0
 18  5  1  0
 19 18  1  0
 20 19  2  0
 21 20  1  0
 21 22  2  0
 22 17  1  0
  2 23  1  0
  3 24  1  0
  4 25  1  0
  7 26  1  0
  8 27  1  0
  9 28  1  0
 15 29  1  0
 19 30  1  0
 20 31  1  0
 21 32  1  0
 22 33  1  0
M  ISO  8  23  14  24  14  25  14  26  14  27  14  28  14  30  14  31  14
M  ISO  2  32  14  33  14
M  END
>  <minimizedAffinity>  (1) 
-5.55855799

>  <minimizedRMSD>  (1) 
0.500126004

$$$$
