
     RDKit          3D

 33 36  0  0  0  0  0  0  0  0999 V2000
   44.4540   35.9550   44.8970 C   0  0  0  0  0  0  0  0  0  0  0  0
   45.0570   35.9040   43.6220 C   0  0  0  0  0  0  0  0  0  0  0  0
   45.9170   34.8650   43.3240 C   0  0  0  0  0  0  0  0  0  0  0  0
   46.1570   33.9150   44.2740 N   0  0  0  0  0  0  0  0  0  0  0  0
   45.5630   33.9830   45.5010 C   0  0  0  0  0  0  0  0  0  0  0  0
   44.7240   35.0000   45.7880 N   0  0  0  0  0  0  0  0  0  0  0  0
   47.8690   35.2070   41.9340 C   0  0  0  0  0  0  0  0  0  0  0  0
   46.5970   34.7050   42.0470 C   0  0  0  0  0  0  0  0  0  0  0  0
   46.0220   34.0750   40.9530 C   0  0  0  0  0  0  0  0  0  0  0  0
   46.6940   33.9360   39.7480 C   0  0  0  0  0  0  0  0  0  0  0  0
   46.3510   33.3730   38.5650 N   0  0  0  0  0  0  0  0  0  0  0  0
   47.4230   33.5300   37.7200 C   0  0  0  0  0  0  0  0  0  0  0  0
   48.4100   34.1880   38.3920 N   0  0  0  0  0  0  0  0  0  0  0  0
   47.9860   34.4480   39.6410 C   0  0  0  0  0  0  0  0  0  0  0  0
   48.5560   35.0740   40.7290 C   0  0  0  0  0  0  0  0  0  0  0  0
   47.5150   31.9700   44.5340 Cl  0  0  0  0  0  0  0  0  0  0  0  0
   46.7600   31.9520   46.1170 C   0  0  0  0  0  0  0  0  0  0  0  0
   45.8610   32.9360   46.4760 C   0  0  0  0  0  0  0  0  0  0  0  0
   45.2220   32.9980   47.6970 C   0  0  0  0  0  0  0  0  0  0  0  0
   45.5510   31.9690   48.5830 C   0  0  0  0  0  0  0  0  0  0  0  0
   46.4400   30.9680   48.2690 C   0  0  0  0  0  0  0  0  0  0  0  0
   47.0440   30.9640   47.0320 C   0  0  0  0  0  0  0  0  0  0  0  0
   43.7674   36.7752   45.1536 H   0  0  0  0  0  0  0  0  0  0  0  0
   44.8446   36.6825   42.8744 H   0  0  0  0  0  0  0  0  0  0  0  0
   48.3433   35.7111   42.7890 H   0  0  0  0  0  0  0  0  0  0  0  0
   45.0020   33.6735   41.0441 H   0  0  0  0  0  0  0  0  0  0  0  0
   45.4564   32.9142   38.3412 H   0  0  0  0  0  0  0  0  0  0  0  0
   47.4759   33.1833   36.6774 H   0  0  0  0  0  0  0  0  0  0  0  0
   49.5758   35.4775   40.6440 H   0  0  0  0  0  0  0  0  0  0  0  0
   44.5090   33.7955   47.9531 H   0  0  0  0  0  0  0  0  0  0  0  0
   45.0778   31.9592   49.5760 H   0  0  0  0  0  0  0  0  0  0  0  0
   46.6665   30.1776   48.9997 H   0  0  0  0  0  0  0  0  0  0  0  0
   47.7571   30.1673   46.7736 H   0  0  0  0  0  0  0  0  0  0  0  0
  1  6  2  0
  2  1  1  0
  3  2  2  0
  3  4  1  0
  4  5  2  0
  5  6  1  0
  5 18  1  0
  7  8  2  0
  8  3  1  0
  9  8  1  0
 10  9  2  0
 11 10  1  0
 12 13  2  0
 12 11  1  0
 13 14  1  0
 14 10  1  0
 14 15  2  0
 15  7  1  0
 16 17  1  0
 17 18  2  0
 17 22  1  0
 18 19  1  0
 19 20  2  0
 21 20  1  0
 22 21  2  0
  1 23  1  0
  2 24  1  0
  7 25  1  0
  9 26  1  0
 11 27  1  0
 12 28  1  0
 15 29  1  0
 19 30  1  0
 20 31  1  0
 21 32  1  0
 22 33  1  0
M  ISO  8  23  14  24  14  25  14  26  14  27   9  28  14  29  14  30  14
M  ISO  3  31  14  32  14  33  14
M  END
>  <minimizedAffinity>  (1) 
-7.19708014

>  <minimizedRMSD>  (1) 
0.228879511

$$$$
