
     RDKit          3D

 37 39  0  0  0  0  0  0  0  0999 V2000
   44.9340   35.0560   44.5260 C   0  0  0  0  0  0  0  0  0  0  0  0
   44.7530   34.3930   43.2850 C   0  0  0  0  0  0  0  0  0  0  0  0
   45.0030   33.0340   43.2200 C   0  0  0  0  0  0  0  0  0  0  0  0
   45.4130   32.4170   44.3640 N   0  0  0  0  0  0  0  0  0  0  0  0
   45.5800   33.0560   45.5330 C   0  0  0  0  0  0  0  0  0  0  0  0
   45.3370   34.3700   45.5930 N   0  0  0  0  0  0  0  0  0  0  0  0
   47.8240   31.0410   45.1010 Cl  0  0  0  0  0  0  0  0  0  0  0  0
   47.0380   31.4150   46.6110 C   0  0  0  0  0  0  0  0  0  0  0  0
   46.0210   32.3470   46.7300 C   0  0  0  0  0  0  0  0  0  0  0  0
   45.4300   32.6060   47.9530 C   0  0  0  0  0  0  0  0  0  0  0  0
   45.8520   31.9270   49.1000 C   0  0  0  0  0  0  0  0  0  0  0  0
   46.8660   31.0090   48.9350 C   0  0  0  0  0  0  0  0  0  0  0  0
   47.4800   30.7220   47.7350 C   0  0  0  0  0  0  0  0  0  0  0  0
   44.3070   35.1360   42.0990 C   0  0  0  0  0  0  0  0  0  0  0  0
   43.1950   34.9280   41.4450 C   0  0  0  0  0  0  0  0  0  0  0  0
   42.7940   35.7100   40.2480 C   0  0  0  0  0  0  0  0  0  0  0  0
   42.2300   35.8460   37.5150 F   0  0  0  0  0  0  0  0  0  0  0  0
   41.2720   35.3210   38.3330 C   0  0  0  0  0  0  0  0  0  0  0  0
   41.5210   35.2370   39.7170 C   0  0  0  0  0  0  0  0  0  0  0  0
   40.4800   34.6930   40.4070 C   0  0  0  0  0  0  0  0  0  0  0  0
   39.2820   34.2450   39.9310 C   0  0  0  0  0  0  0  0  0  0  0  0
   39.1320   34.3720   38.5440 C   0  0  0  0  0  0  0  0  0  0  0  0
   40.0940   34.9000   37.7170 C   0  0  0  0  0  0  0  0  0  0  0  0
   44.7415   36.1360   44.6064 H   0  0  0  0  0  0  0  0  0  0  0  0
   44.8759   32.4735   42.2821 H   0  0  0  0  0  0  0  0  0  0  0  0
   44.6233   33.3504   48.0239 H   0  0  0  0  0  0  0  0  0  0  0  0
   45.3977   32.1160   50.0838 H   0  0  0  0  0  0  0  0  0  0  0  0
   47.2109   30.4651   49.8267 H   0  0  0  0  0  0  0  0  0  0  0  0
   48.2859   29.9763   47.6679 H   0  0  0  0  0  0  0  0  0  0  0  0
   44.9655   35.9360   41.7297 H   0  0  0  0  0  0  0  0  0  0  0  0
   42.5218   34.1334   41.7991 H   0  0  0  0  0  0  0  0  0  0  0  0
   42.6960   36.7696   40.5268 H   0  0  0  0  0  0  0  0  0  0  0  0
   43.5649   35.5850   39.4734 H   0  0  0  0  0  0  0  0  0  0  0  0
   40.6244   34.6027   41.4937 H   0  0  0  0  0  0  0  0  0  0  0  0
   38.5018   33.8209   40.5802 H   0  0  0  0  0  0  0  0  0  0  0  0
   38.1900   34.0294   38.0909 H   0  0  0  0  0  0  0  0  0  0  0  0
   39.9434   34.9857   36.6307 H   0  0  0  0  0  0  0  0  0  0  0  0
  1  6  2  0
  2  1  1  0
  3  2  2  0
  3  4  1  0
  4  5  2  0
  5  6  1  0
  5  9  1  0
  7  8  1  0
  8  9  2  0
  8 13  1  0
  9 10  1  0
 10 11  2  0
 12 11  1  0
 13 12  2  0
 14  2  1  0
 15 14  2  0
 16 15  1  0
 17 18  1  0
 18 19  2  0
 19 16  1  0
 19 20  1  0
 21 20  2  0
 22 21  1  0
 23 18  1  0
 23 22  2  0
  1 24  1  0
  3 25  1  0
 10 26  1  0
 11 27  1  0
 12 28  1  0
 13 29  1  0
 14 30  1  0
 15 31  1  0
 16 32  1  0
 16 33  1  0
 20 34  1  0
 21 35  1  0
 22 36  1  0
 23 37  1  0
M  ISO  8  24  14  25  14  26  14  27  14  28  14  29  14  32   8  33   8
M  ISO  4  34  14  35  14  36  14  37  14
M  END
>  <minimizedAffinity>  (1) 
-6.53171825

>  <minimizedRMSD>  (1) 
1.40079391

$$$$
