
     RDKit          3D

 32 34  0  0  0  0  0  0  0  0999 V2000
   44.6680   30.4610   47.5930 Cl  0  0  0  0  0  0  0  0  0  0  0  0
   46.0400   29.8590   46.6590 C   0  0  0  0  0  0  0  0  0  0  0  0
   47.0340   30.7080   46.2960 C   0  0  0  0  0  0  0  0  0  0  0  0
   48.0850   30.1940   45.5820 C   0  0  0  0  0  0  0  0  0  0  0  0
   48.1360   28.8650   45.2410 C   0  0  0  0  0  0  0  0  0  0  0  0
   47.0960   27.9870   45.6220 C   0  0  0  0  0  0  0  0  0  0  0  0
   46.0320   28.5120   46.3460 C   0  0  0  0  0  0  0  0  0  0  0  0
   43.5320   28.2100   44.6180 Cl  0  0  0  0  0  0  0  0  0  0  0  0
   43.7660   27.3370   46.1080 C   0  0  0  0  0  0  0  0  0  0  0  0
   44.9560   27.6070   46.7420 C   0  0  0  0  0  0  0  0  0  0  0  0
   45.2720   26.9730   47.9490 C   0  0  0  0  0  0  0  0  0  0  0  0
   44.3760   26.0620   48.5120 C   0  0  0  0  0  0  0  0  0  0  0  0
   43.1750   25.7940   47.8620 C   0  0  0  0  0  0  0  0  0  0  0  0
   42.8860   26.4360   46.6680 C   0  0  0  0  0  0  0  0  0  0  0  0
   46.9600   32.1090   46.6560 C   0  0  0  0  0  0  0  0  0  0  0  0
   47.4080   32.4170   47.7970 O   0  0  0  0  0  0  0  0  0  0  0  0
   44.8660   34.8150   45.4440 C   0  0  0  0  0  0  0  0  0  0  0  0
   45.3290   35.0590   44.1370 C   0  0  0  0  0  0  0  0  0  0  0  0
   46.3840   34.2480   43.6990 C   0  0  0  0  0  0  0  0  0  0  0  0
   46.8810   33.3040   44.5400 N   0  0  0  0  0  0  0  0  0  0  0  0
   46.4100   33.1070   45.7770 C   0  0  0  0  0  0  0  0  0  0  0  0
   45.4010   33.8740   46.2090 N   0  0  0  0  0  0  0  0  0  0  0  0
   48.9049   30.8603   45.2757 H   0  0  0  0  0  0  0  0  0  0  0  0
   48.9923   28.4809   44.6672 H   0  0  0  0  0  0  0  0  0  0  0  0
   47.1277   26.9207   45.3537 H   0  0  0  0  0  0  0  0  0  0  0  0
   46.2247   27.1920   48.4534 H   0  0  0  0  0  0  0  0  0  0  0  0
   44.6173   25.5606   49.4609 H   0  0  0  0  0  0  0  0  0  0  0  0
   42.4600   25.0776   48.2928 H   0  0  0  0  0  0  0  0  0  0  0  0
   41.9355   26.2222   46.1573 H   0  0  0  0  0  0  0  0  0  0  0  0
   44.0384   35.4213   45.8408 H   0  0  0  0  0  0  0  0  0  0  0  0
   44.8890   35.8392   43.4984 H   0  0  0  0  0  0  0  0  0  0  0  0
   46.8034   34.3736   42.6899 H   0  0  0  0  0  0  0  0  0  0  0  0
  2  1  1  0
  3 15  1  0
  3  2  2  0
  4  3  1  0
  5  4  2  0
  5  6  1  0
  6  7  2  0
  7  2  1  0
  7 10  1  0
  8  9  1  0
  9 14  2  0
  9 10  1  0
 10 11  2  0
 11 12  1  0
 13 12  2  0
 14 13  1  0
 15 16  2  0
 17 22  2  0
 18 17  1  0
 19 18  2  0
 19 20  1  0
 20 21  2  0
 21 22  1  0
 21 15  1  0
  4 23  1  0
  5 24  1  0
  6 25  1  0
 11 26  1  0
 12 27  1  0
 13 28  1  0
 14 29  1  0
 17 30  1  0
 18 31  1  0
 19 32  1  0
M  ISO  8  23  14  24  14  25  14  26  14  27  14  28  14  29  14  30  14
M  ISO  2  31  14  32  14
M  END
>  <minimizedAffinity>  (1) 
-5.03308344

>  <minimizedRMSD>  (1) 
2.36645126

$$$$
