
     RDKit          3D

 47 51  0  0  0  0  0  0  0  0999 V2000
   47.5351   32.6655   44.2702 C   0  0  0  0  0  0  0  0  0  0  0  0
   46.8357   33.6383   43.5588 C   0  0  0  0  0  0  0  0  0  0  0  0
   45.7809   34.3646   44.0947 C   0  0  0  0  0  0  0  0  0  0  0  0
   45.3907   34.1165   45.4149 C   0  0  0  0  0  0  0  0  0  0  0  0
   44.4498   34.6022   46.2450 N   0  0  0  0  0  0  0  0  0  0  0  0
   44.5315   33.9771   47.4387 C   0  0  0  0  0  0  0  0  0  0  0  0
   45.5444   33.0951   47.3248 N   0  0  0  0  0  0  0  0  0  0  0  0
   46.0918   33.1547   46.0990 C   0  0  0  0  0  0  0  0  0  0  0  0
   47.1446   32.4187   45.5883 C   0  0  0  0  0  0  0  0  0  0  0  0
   47.0724   33.4327   39.8997 C   0  0  0  0  0  0  0  0  0  0  0  0
   47.9755   34.4458   39.5964 C   0  0  0  0  0  0  0  0  0  0  0  0
   48.4990   35.1931   40.6371 C   0  0  0  0  0  0  0  0  0  0  0  0
   48.1120   34.9117   41.9270 N   0  0  0  0  0  0  0  0  0  0  0  0
   47.2276   33.9134   42.1764 C   0  0  0  0  0  0  0  0  0  0  0  0
   46.6936   33.1603   41.1854 N   0  0  0  0  0  0  0  0  0  0  0  0
   44.9060   35.5992   43.1664 S   0  0  0  0  0  0  0  0  0  0  0  0
   42.3124   35.5681   42.6989 N   0  0  0  0  0  0  0  0  0  0  0  0
   43.5209   34.9445   42.2176 C   0  0  1  0  0  0  0  0  0  0  0  0
   43.8065   35.3115   40.7579 C   0  0  0  0  0  0  0  0  0  0  0  0
   42.6762   35.2975   39.9630 O   0  0  0  0  0  0  0  0  0  0  0  0
   41.5508   34.7582   40.5314 C   0  0  0  0  0  0  0  0  0  0  0  0
   41.2267   35.5634   41.7756 C   0  0  1  0  0  0  0  0  0  0  0  0
   48.3448   32.1501   43.7674 H   0  0  0  0  0  0  0  0  0  0  0  0
   43.7760   35.3512   45.9683 H   0  0  0  0  0  0  0  0  0  0  0  0
   43.9062   34.1524   48.3105 H   0  0  0  0  0  0  0  0  0  0  0  0
   47.6767   31.6719   46.1441 H   0  0  0  0  0  0  0  0  0  0  0  0
   46.6636   32.8489   39.0856 H   0  0  0  0  0  0  0  0  0  0  0  0
   48.2839   34.6733   38.5926 H   0  0  0  0  0  0  0  0  0  0  0  0
   49.1964   35.9931   40.5366 H   0  0  0  0  0  0  0  0  0  0  0  0
   42.4541   36.4380   43.2249 H   0  0  0  0  0  0  0  0  0  0  0  0
   43.4801   33.8337   42.2725 H   0  0  0  0  0  0  0  0  0  0  0  0
   44.2251   36.3524   40.7879 H   0  0  0  0  0  0  0  0  0  0  0  0
   44.4658   34.5779   40.3061 H   0  0  0  0  0  0  0  0  0  0  0  0
   40.7344   34.8400   39.8191 H   0  0  0  0  0  0  0  0  0  0  0  0
   41.6834   33.7062   40.8641 H   0  0  0  0  0  0  0  0  0  0  0  0
   41.0709   36.6131   41.4472 H   0  0  0  0  0  0  0  0  0  0  0  0
   39.0190   35.1535   39.8424 Cl  0  0  0  0  0  0  0  0  0  0  0  0
   38.8195   34.8862   41.5773 C   0  0  0  0  0  0  0  0  0  0  0  0
   39.9398   35.1151   42.3846 C   0  0  0  0  0  0  0  0  0  0  0  0
   39.7863   34.9058   43.7498 C   0  0  0  0  0  0  0  0  0  0  0  0
   40.6604   35.0864   44.3634 H   0  0  0  0  0  0  0  0  0  0  0  0
   38.5732   34.4897   44.2707 C   0  0  0  0  0  0  0  0  0  0  0  0
   38.4811   34.3338   45.3413 H   0  0  0  0  0  0  0  0  0  0  0  0
   37.5058   34.2812   43.4207 C   0  0  0  0  0  0  0  0  0  0  0  0
   37.5922   34.4714   42.0523 C   0  0  0  0  0  0  0  0  0  0  0  0
   36.5460   33.9532   43.8229 H   0  0  0  0  0  0  0  0  0  0  0  0
   36.7808   34.3175   41.3684 H   0  0  0  0  0  0  0  0  0  0  0  0
  1  9  2  0
  2  3  2  0
  2  1  1  0
  3  4  1  0
  4  8  2  0
  4  5  1  0
  5  6  1  0
  7  6  2  0
  8  7  1  0
  9  8  1  0
 10 15  2  0
 11 10  1  0
 11 12  2  0
 12 13  1  0
 13 14  2  0
 14  2  1  0
 15 14  1  0
 16  3  1  0
 18 17  1  0
 18 16  1  0
 19 18  1  0
 20 21  1  0
 20 19  1  0
 21 22  1  0
 22 17  1  0
  1 23  1  0
  5 24  1  0
  6 25  1  0
  9 26  1  0
 10 27  1  0
 11 28  1  0
 12 29  1  0
 17 30  1  0
 18 31  1  6
 19 32  1  0
 19 33  1  0
 21 34  1  0
 21 35  1  0
 22 36  1  6
 37 38  1  0
 38 39  2  0
 39 40  1  0
 40 41  1  0
 40 42  2  0
 42 43  1  0
 42 44  1  0
 44 45  2  0
 45 38  1  0
 44 46  1  0
 45 47  1  0
 22 39  1  0
M  ISO  8  23  14  24   9  25  14  26  14  27  14  28  14  29  14  30   5
M  ISO  8  31  13  32  13  33  13  34  13  35  13  36  13  41  15  43  16
M  END
>  <DihAtoms>  (1) 
20,21,38,37

>  <DihDeg>  (1) 
-90.00385456636484

$$$$
