
     RDKit          3D

 30 32  0  0  0  0  0  0  0  0999 V2000
   44.5290   35.7810   44.9230 C   0  0  0  0  0  0  0  0  0  0  0  0
   45.1390   35.7270   43.6450 C   0  0  0  0  0  0  0  0  0  0  0  0
   46.0090   34.6510   43.4020 C   0  0  0  0  0  0  0  0  0  0  0  0
   46.2170   33.7380   44.3830 N   0  0  0  0  0  0  0  0  0  0  0  0
   45.6240   33.8170   45.5860 C   0  0  0  0  0  0  0  0  0  0  0  0
   44.7780   34.8330   45.8680 N   0  0  0  0  0  0  0  0  0  0  0  0
   46.6290   34.5890   42.1200 N   0  0  0  0  0  0  0  0  0  0  0  0
   47.8770   35.1160   42.0090 C   0  0  0  0  0  0  0  0  0  0  0  0
   48.5090   35.0760   40.7690 C   0  0  0  0  0  0  0  0  0  0  0  0
   47.8170   34.4970   39.7230 C   0  0  0  0  0  0  0  0  0  0  0  0
   48.4080   34.4650   38.5890 O   0  0  0  0  0  0  0  0  0  0  0  0
   46.5670   33.9660   39.8280 N   0  0  0  0  0  0  0  0  0  0  0  0
   46.0260   34.0450   41.0620 C   0  0  0  0  0  0  0  0  0  0  0  0
   44.8940   33.5950   41.2760 O   0  0  0  0  0  0  0  0  0  0  0  0
   47.4330   31.6530   44.7160 Cl  0  0  0  0  0  0  0  0  0  0  0  0
   46.7180   31.7420   46.3130 C   0  0  0  0  0  0  0  0  0  0  0  0
   45.8840   32.8040   46.6070 C   0  0  0  0  0  0  0  0  0  0  0  0
   45.3010   32.9070   47.8620 C   0  0  0  0  0  0  0  0  0  0  0  0
   45.5290   31.9570   48.8580 C   0  0  0  0  0  0  0  0  0  0  0  0
   46.3620   30.9160   48.5340 C   0  0  0  0  0  0  0  0  0  0  0  0
   46.9560   30.7880   47.2930 C   0  0  0  0  0  0  0  0  0  0  0  0
   43.8399   36.6061   45.1564 H   0  0  0  0  0  0  0  0  0  0  0  0
   44.9407   36.4915   42.8794 H   0  0  0  0  0  0  0  0  0  0  0  0
   48.3770   35.5645   42.8802 H   0  0  0  0  0  0  0  0  0  0  0  0
   49.5188   35.4889   40.6280 H   0  0  0  0  0  0  0  0  0  0  0  0
   46.0747   33.5389   39.0305 H   0  0  0  0  0  0  0  0  0  0  0  0
   44.6414   33.7605   48.0774 H   0  0  0  0  0  0  0  0  0  0  0  0
   45.0648   32.0384   49.8519 H   0  0  0  0  0  0  0  0  0  0  0  0
   46.5660   30.1493   49.2960 H   0  0  0  0  0  0  0  0  0  0  0  0
   47.6153   29.9330   47.0823 H   0  0  0  0  0  0  0  0  0  0  0  0
  1  6  2  0
  2  1  1  0
  3  2  2  0
  3  4  1  0
  4  5  2  0
  5  6  1  0
  5 17  1  0
  7  3  1  0
  8  7  1  0
  9  8  2  0
 10 12  1  0
 10  9  1  0
 11 10  2  0
 12 13  1  0
 13 14  2  0
 13  7  1  0
 15 16  1  0
 16 17  2  0
 16 21  1  0
 17 18  1  0
 18 19  2  0
 20 19  1  0
 21 20  2  0
  1 22  1  0
  2 23  1  0
  8 24  1  0
  9 25  1  0
 12 26  1  0
 18 27  1  0
 19 28  1  0
 20 29  1  0
 21 30  1  0
M  ISO  8  22  14  23  14  24  14  25  14  26   9  27  14  28  14  29  14
M  ISO  1  30  14
M  END
>  <minimizedAffinity>  (1) 
-6.78252983

>  <minimizedRMSD>  (1) 
0.49501428

$$$$
