
     RDKit          3D

 43 46  0  0  0  0  0  0  0  0999 V2000
   45.8015   33.2340   46.3612 C   0  0  0  0  0  0  0  0  0  0  0  0
   45.1935   33.1327   47.6208 C   0  0  0  0  0  0  0  0  0  0  0  0
   45.7572   32.3186   48.5319 C   0  0  0  0  0  0  0  0  0  0  0  0
   46.9225   31.5950   48.2200 C   0  0  0  0  0  0  0  0  0  0  0  0
   47.2357   32.1154   46.5007 S   0  0  0  0  0  0  0  0  0  0  0  0
   44.3396   35.9205   44.2435 C   0  0  0  0  0  0  0  0  0  0  0  0
   44.5077   35.3274   42.9642 C   0  0  0  0  0  0  0  0  0  0  0  0
   45.1007   34.0645   42.8861 C   0  0  0  0  0  0  0  0  0  0  0  0
   45.4910   33.4613   44.0526 N   0  0  0  0  0  0  0  0  0  0  0  0
   45.3092   34.0700   45.2623 C   0  0  0  0  0  0  0  0  0  0  0  0
   44.7351   35.2978   45.3651 N   0  0  0  0  0  0  0  0  0  0  0  0
   47.7836   30.6609   48.8544 C   0  0  1  0  0  0  0  0  0  0  0  0
   48.1624   29.4992   47.9965 C   0  0  0  0  0  0  0  0  0  0  0  0
   49.5808   29.0428   48.1414 C   0  0  0  0  0  0  0  0  0  0  0  0
   50.1094   29.0467   49.5390 C   0  0  0  0  0  0  0  0  0  0  0  0
   49.6522   30.2499   50.3511 C   0  0  0  0  0  0  0  0  0  0  0  0
   49.0869   31.2733   49.3851 C   0  0  2  0  0  0  0  0  0  0  0  0
   44.2989   33.6841   47.8700 H   0  0  0  0  0  0  0  0  0  0  0  0
   45.4449   32.1104   49.5358 H   0  0  0  0  0  0  0  0  0  0  0  0
   43.8924   36.8873   44.3793 H   0  0  0  0  0  0  0  0  0  0  0  0
   44.1812   35.8532   42.0998 H   0  0  0  0  0  0  0  0  0  0  0  0
   45.2465   33.5801   41.9373 H   0  0  0  0  0  0  0  0  0  0  0  0
   47.2343   30.2374   49.7474 H   0  0  0  0  0  0  0  0  0  0  0  0
   47.4536   28.6443   48.1218 H   0  0  0  0  0  0  0  0  0  0  0  0
   48.0229   29.8249   46.9267 H   0  0  0  0  0  0  0  0  0  0  0  0
   50.2131   29.5527   47.3946 H   0  0  0  0  0  0  0  0  0  0  0  0
   49.5826   27.9605   47.8165 H   0  0  0  0  0  0  0  0  0  0  0  0
   49.7896   28.1343   50.0802 H   0  0  0  0  0  0  0  0  0  0  0  0
   51.2268   29.0229   49.4649 H   0  0  0  0  0  0  0  0  0  0  0  0
   48.9068   29.9241   51.1047 H   0  0  0  0  0  0  0  0  0  0  0  0
   50.5142   30.6773   50.8665 H   0  0  0  0  0  0  0  0  0  0  0  0
   49.7811   31.2138   48.4933 H   0  0  0  0  0  0  0  0  0  0  0  0
   47.1075   32.1585   51.6511 Cl  0  0  0  0  0  0  0  0  0  0  0  0
   48.2048   33.2035   50.8159 C   0  0  0  0  0  0  0  0  0  0  0  0
   48.9965   32.6311   49.8458 C   0  0  0  0  0  0  0  0  0  0  0  0
   49.8380   33.5792   49.2410 C   0  0  0  0  0  0  0  0  0  0  0  0
   50.5209   33.2622   48.4540 H   0  0  0  0  0  0  0  0  0  0  0  0
   49.8898   34.9202   49.5553 C   0  0  0  0  0  0  0  0  0  0  0  0
   50.5689   35.5843   49.0396 H   0  0  0  0  0  0  0  0  0  0  0  0
   49.0534   35.3917   50.5439 C   0  0  0  0  0  0  0  0  0  0  0  0
   48.2024   34.5221   51.1800 C   0  0  0  0  0  0  0  0  0  0  0  0
   49.1086   36.4407   50.7748 H   0  0  0  0  0  0  0  0  0  0  0  0
   47.5569   34.9007   51.9469 H   0  0  0  0  0  0  0  0  0  0  0  0
  1  5  1  0
  1  2  2  0
  2  3  1  0
  4  3  2  0
  4 12  1  0
  5  4  1  0
  6 11  2  0
  7  6  1  0
  8  7  2  0
  8  9  1  0
  9 10  2  0
 10 11  1  0
 10  1  1  0
 12 17  1  0
 13 14  1  0
 13 12  1  0
 14 15  1  0
 15 16  1  0
 17 16  1  0
  2 18  1  0
  3 19  1  0
  6 20  1  0
  7 21  1  0
  8 22  1  0
 12 23  1  1
 13 24  1  0
 13 25  1  0
 14 26  1  0
 14 27  1  0
 15 28  1  0
 15 29  1  0
 16 30  1  0
 16 31  1  0
 17 32  1  6
 33 34  1  0
 34 35  2  0
 35 36  1  0
 36 37  1  0
 36 38  2  0
 38 39  1  0
 38 40  1  0
 40 41  2  0
 41 34  1  0
 40 42  1  0
 41 43  1  0
 17 35  1  0
M  ISO  8  18  14  19  14  20  14  21  14  22  14  23  13  24  13  25  13
M  ISO  8  26  13  27  13  28  13  29  13  30  13  31  13  32  13  37  15
M  ISO  1  39  16
M  END
>  <DihAtoms>  (1) 
11,16,34,33

>  <DihDeg>  (1) 
87.7180801666126

$$$$
