
     RDKit          3D

 26 27  0  0  0  0  0  0  0  0999 V2000
   44.5852   35.9924   44.5101 C   0  0  0  0  0  0  0  0  0  0  0  0
   45.2258   35.9935   43.2622 C   0  0  0  0  0  0  0  0  0  0  0  0
   46.0983   34.9543   42.9714 C   0  0  0  0  0  0  0  0  0  0  0  0
   46.2976   33.9755   43.9087 N   0  0  0  0  0  0  0  0  0  0  0  0
   45.6648   34.0128   45.0896 C   0  0  0  0  0  0  0  0  0  0  0  0
   44.8167   35.0031   45.3990 N   0  0  0  0  0  0  0  0  0  0  0  0
   46.7229   34.9737   41.7300 O   0  0  0  0  0  0  0  0  0  0  0  0
   48.6370   33.3269   40.9682 O   0  0  0  0  0  0  0  0  0  0  0  0
   48.4087   34.6713   41.6371 P   0  0  0  0  0  0  0  0  0  0  0  0
   49.1198   35.9359   40.7869 O   0  0  0  0  0  0  0  0  0  0  0  0
   48.9983   34.6015   43.2179 O   0  0  0  0  0  0  0  0  0  0  0  0
   43.8912   36.7803   44.7938 H   0  0  0  0  0  0  0  0  0  0  0  0
   45.0204   36.8014   42.5680 H   0  0  0  0  0  0  0  0  0  0  0  0
   49.0311   35.8478   39.8238 H   0  0  0  0  0  0  0  0  0  0  0  0
   49.9623   34.8440   43.1842 H   0  0  0  0  0  0  0  0  0  0  0  0
   44.9619   31.2590   44.2267 Cl  0  0  0  0  0  0  0  0  0  0  0  0
   45.6130   31.6532   45.8219 C   0  0  0  0  0  0  0  0  0  0  0  0
   45.8888   32.9622   46.0761 C   0  0  0  0  0  0  0  0  0  0  0  0
   46.3958   33.2387   47.3292 C   0  0  0  0  0  0  0  0  0  0  0  0
   46.6462   34.2525   47.6245 H   0  0  0  0  0  0  0  0  0  0  0  0
   46.6217   32.2737   48.2894 C   0  0  0  0  0  0  0  0  0  0  0  0
   47.0149   32.4813   49.2639 H   0  0  0  0  0  0  0  0  0  0  0  0
   46.3217   30.9708   47.9682 C   0  0  0  0  0  0  0  0  0  0  0  0
   45.8126   30.6339   46.7315 C   0  0  0  0  0  0  0  0  0  0  0  0
   46.4889   30.1970   48.7010 H   0  0  0  0  0  0  0  0  0  0  0  0
   45.5610   29.6386   46.4264 H   0  0  0  0  0  0  0  0  0  0  0  0
  1  6  2  0
  2  1  1  0
  3  2  2  0
  3  4  1  0
  4  5  2  0
  5  6  1  0
  7  3  1  0
  8  9  2  0
  9  7  1  0
  9 11  1  0
 10  9  1  0
  1 12  1  0
  2 13  1  0
 10 14  1  0
 11 15  1  0
 16 17  1  0
 17 18  2  0
 18 19  1  0
 19 20  1  0
 19 21  2  0
 21 22  1  0
 21 23  1  0
 23 24  2  0
 24 17  1  0
 23 25  1  0
 24 26  1  0
  5 18  1  0
M  ISO  6  12  14  13  14  14   3  15   3  20  15  22  16
M  END
>  <DihAtoms>  (1) 
3,4,17,16

>  <DihDeg>  (1) 
-179.99986009379228

$$$$
