
     RDKit          3D

 36 38  0  0  0  0  0  0  0  0999 V2000
   46.0669   34.3130   41.5351 N   0  0  0  0  0  0  0  0  0  0  0  0
   45.1016   34.0563   40.4847 C   0  0  0  0  0  0  0  0  0  0  0  0
   45.6894   33.2206   39.3754 C   0  0  0  0  0  0  0  0  0  0  0  0
   46.9310   33.6968   38.8711 N   0  0  0  0  0  0  0  0  0  0  0  0
   47.7797   34.3161   39.7904 C   0  0  0  0  0  0  0  0  0  0  0  0
   47.4785   34.2163   41.2586 C   0  0  1  0  0  0  0  0  0  0  0  0
   44.6211   36.0702   44.5073 C   0  0  0  0  0  0  0  0  0  0  0  0
   45.0099   35.8329   43.1936 C   0  0  0  0  0  0  0  0  0  0  0  0
   45.6143   34.6581   42.8187 C   0  0  0  0  0  0  0  0  0  0  0  0
   45.7786   33.7885   43.8442 N   0  0  0  0  0  0  0  0  0  0  0  0
   45.4107   34.0003   45.1175 C   0  0  0  0  0  0  0  0  0  0  0  0
   44.8290   35.1507   45.4436 N   0  0  0  0  0  0  0  0  0  0  0  0
   48.2287   35.2140   41.9855 C   0  0  0  0  0  0  0  0  0  0  0  0
   48.9186   36.1182   41.3553 O   0  0  0  0  0  0  0  0  0  0  0  0
   44.6434   34.9778   40.1233 H   0  0  0  0  0  0  0  0  0  0  0  0
   44.2966   33.4373   40.9547 H   0  0  0  0  0  0  0  0  0  0  0  0
   45.7188   32.1712   39.7412 H   0  0  0  0  0  0  0  0  0  0  0  0
   44.9509   33.2811   38.5252 H   0  0  0  0  0  0  0  0  0  0  0  0
   47.3357   33.0207   38.2212 H   0  0  0  0  0  0  0  0  0  0  0  0
   48.8157   33.9137   39.6627 H   0  0  0  0  0  0  0  0  0  0  0  0
   47.8764   35.4025   39.5486 H   0  0  0  0  0  0  0  0  0  0  0  0
   47.7683   33.1565   41.5294 H   0  0  0  0  0  0  0  0  0  0  0  0
   44.1438   37.0315   44.7351 H   0  0  0  0  0  0  0  0  0  0  0  0
   44.8483   36.5709   42.4173 H   0  0  0  0  0  0  0  0  0  0  0  0
   45.6197   33.2013   45.7985 H   0  0  0  0  0  0  0  0  0  0  0  0
   46.4597   37.3950   43.4282 Cl  0  0  0  0  0  0  0  0  0  0  0  0
   48.0301   36.7674   43.9661 C   0  0  0  0  0  0  0  0  0  0  0  0
   48.6357   35.7662   43.2521 C   0  0  0  0  0  0  0  0  0  0  0  0
   49.8327   35.4148   43.8410 C   0  0  0  0  0  0  0  0  0  0  0  0
   50.5181   34.6766   43.3876 H   0  0  0  0  0  0  0  0  0  0  0  0
   50.4778   35.8754   44.9637 C   0  0  0  0  0  0  0  0  0  0  0  0
   51.4166   35.5661   45.3879 H   0  0  0  0  0  0  0  0  0  0  0  0
   49.7592   36.8736   45.5799 C   0  0  0  0  0  0  0  0  0  0  0  0
   48.5607   37.3367   45.1230 C   0  0  0  0  0  0  0  0  0  0  0  0
   50.0889   37.3727   46.4800 H   0  0  0  0  0  0  0  0  0  0  0  0
   47.9900   38.1151   45.5927 H   0  0  0  0  0  0  0  0  0  0  0  0
  1  9  1  0
  2  1  1  0
  3  2  1  0
  4  3  1  0
  4  5  1  0
  5  6  1  0
  6  1  1  0
  6 13  1  0
  7 12  2  0
  8  7  1  0
  9  8  2  0
  9 10  1  0
 10 11  2  0
 11 12  1  0
 14 13  2  0
  2 15  1  0
  2 16  1  0
  3 17  1  0
  3 18  1  0
  4 19  1  0
  5 20  1  0
  5 21  1  0
  6 22  1  1
  7 23  1  0
  8 24  1  0
 11 25  1  0
 26 27  1  0
 27 28  2  0
 28 29  1  0
 29 30  1  0
 29 31  2  0
 31 32  1  0
 31 33  1  0
 33 34  2  0
 34 27  1  0
 33 35  1  0
 34 36  1  0
 13 28  1  0
M  ISO  8  15  13  16  13  17  13  18  13  19   5  20  13  21  13  22  13
M  ISO  5  23  14  24  14  25  14  30  15  32  16
M  END
>  <DihAtoms>  (1) 
5,12,27,26

>  <DihDeg>  (1) 
-166.87776797146904

$$$$
