
     RDKit          3D

 33 35  0  0  0  0  0  0  0  0999 V2000
   46.6889   34.2354   40.6997 C   0  0  0  0  0  0  0  0  0  0  0  0
   48.0356   34.1842   41.3002 C   0  0  0  0  0  0  0  0  0  0  0  0
   48.7442   32.9727   41.1784 C   0  0  0  0  0  0  0  0  0  0  0  0
   50.0087   32.8814   41.7264 C   0  0  0  0  0  0  0  0  0  0  0  0
   50.5278   33.9702   42.3677 N   0  0  0  0  0  0  0  0  0  0  0  0
   49.8170   35.1149   42.4637 C   0  0  0  0  0  0  0  0  0  0  0  0
   48.6069   35.1964   41.9372 N   0  0  0  0  0  0  0  0  0  0  0  0
   47.9972   31.5763   40.3182 S   0  0  0  0  0  0  0  0  0  0  0  0
   45.5997   34.5411   41.6809 C   0  0  0  0  0  0  0  0  0  0  0  0
   44.2484   34.6448   41.0677 C   0  0  0  0  0  0  0  0  0  0  0  0
   43.2258   35.4186   41.7297 C   0  0  0  0  0  0  0  0  0  0  0  0
   41.7981   35.2151   40.5718 S   0  0  0  0  0  0  0  0  0  0  0  0
   42.8387   34.1398   39.4309 C   0  0  0  0  0  0  0  0  0  0  0  0
   43.8450   34.0972   39.9455 N   0  0  0  0  0  0  0  0  0  0  0  0
   46.4394   33.3299   40.1586 H   0  0  0  0  0  0  0  0  0  0  0  0
   46.6532   35.0585   39.9261 H   0  0  0  0  0  0  0  0  0  0  0  0
   50.5209   31.9318   41.6112 H   0  0  0  0  0  0  0  0  0  0  0  0
   50.3254   35.9153   42.9935 H   0  0  0  0  0  0  0  0  0  0  0  0
   47.2856   30.7826   41.2444 H   0  0  0  0  0  0  0  0  0  0  0  0
   45.8710   35.5219   42.1611 H   0  0  0  0  0  0  0  0  0  0  0  0
   45.6014   33.8109   42.5208 H   0  0  0  0  0  0  0  0  0  0  0  0
   43.3289   35.9498   42.6512 H   0  0  0  0  0  0  0  0  0  0  0  0
   43.2408   31.1885   38.6761 Cl  0  0  0  0  0  0  0  0  0  0  0  0
   42.2868   32.3249   37.7768 C   0  0  0  0  0  0  0  0  0  0  0  0
   42.1616   33.6108   38.1802 C   0  0  0  0  0  0  0  0  0  0  0  0
   41.4433   34.5808   37.5556 C   0  0  0  0  0  0  0  0  0  0  0  0
   41.3537   35.6045   37.8916 H   0  0  0  0  0  0  0  0  0  0  0  0
   40.7779   34.2250   36.4018 C   0  0  0  0  0  0  0  0  0  0  0  0
   40.1757   34.9011   35.8153 H   0  0  0  0  0  0  0  0  0  0  0  0
   40.8739   32.9180   35.9454 C   0  0  0  0  0  0  0  0  0  0  0  0
   41.6208   31.9386   36.6082 C   0  0  0  0  0  0  0  0  0  0  0  0
   40.3473   32.6379   35.0330 H   0  0  0  0  0  0  0  0  0  0  0  0
   41.6844   30.9301   36.2404 H   0  0  0  0  0  0  0  0  0  0  0  0
  1  2  1  0
  1  9  1  0
  2  7  1  0
  3  2  2  0
  3  4  1  0
  4  5  2  0
  5  6  1  0
  7  6  2  0
  8  3  1  0
 10  9  1  0
 10 11  2  0
 12 11  1  0
 13 14  2  0
 13 12  1  0
 14 10  1  0
  1 15  1  0
  1 16  1  0
  4 17  1  0
  6 18  1  0
  8 19  1  0
  9 20  1  0
  9 21  1  0
 11 22  1  0
 23 24  1  0
 24 25  2  0
 25 26  1  0
 26 27  1  0
 26 28  2  0
 28 29  1  0
 28 30  1  0
 30 31  2  0
 31 24  1  0
 30 32  1  0
 31 33  1  0
 13 25  1  0
M  ISO  8  15   8  16   8  17  14  18  14  19  11  20   8  21   8  22  14
M  ISO  2  27  15  29  16
M  END
>  <DihAtoms>  (1) 
13,12,24,23

>  <DihDeg>  (1) 
179.99303726310933

$$$$
