
     RDKit          3D

 21 22  0  0  0  0  0  0  0  0999 V2000
   44.5406   36.0311   44.5262 C   0  0  0  0  0  0  0  0  0  0  0  0
   45.2566   35.8990   43.3182 C   0  0  0  0  0  0  0  0  0  0  0  0
   46.1273   34.8018   43.2032 C   0  0  0  0  0  0  0  0  0  0  0  0
   46.2330   33.9364   44.2479 N   0  0  0  0  0  0  0  0  0  0  0  0
   45.5250   34.0985   45.3970 C   0  0  0  0  0  0  0  0  0  0  0  0
   44.6928   35.1316   45.5293 N   0  0  0  0  0  0  0  0  0  0  0  0
   47.0758   34.5546   41.7073 S   0  0  0  0  0  0  0  0  0  0  0  0
   43.8637   36.8752   44.6283 H   0  0  0  0  0  0  0  0  0  0  0  0
   45.1494   36.6055   42.5062 H   0  0  0  0  0  0  0  0  0  0  0  0
   48.4150   34.8967   42.0015 H   0  0  0  0  0  0  0  0  0  0  0  0
   43.6450   31.7161   45.3352 Cl  0  0  0  0  0  0  0  0  0  0  0  0
   44.8894   32.0103   46.5408 C   0  0  0  0  0  0  0  0  0  0  0  0
   45.6914   33.1276   46.4755 C   0  0  0  0  0  0  0  0  0  0  0  0
   46.6672   33.3431   47.4347 C   0  0  0  0  0  0  0  0  0  0  0  0
   47.3103   34.2110   47.4079 H   0  0  0  0  0  0  0  0  0  0  0  0
   46.8388   32.4453   48.4528 C   0  0  0  0  0  0  0  0  0  0  0  0
   47.6126   32.6351   49.1965 H   0  0  0  0  0  0  0  0  0  0  0  0
   46.0272   31.3096   48.5235 C   0  0  0  0  0  0  0  0  0  0  0  0
   45.0626   31.1092   47.5640 C   0  0  0  0  0  0  0  0  0  0  0  0
   46.2408   30.6581   49.3680 H   0  0  0  0  0  0  0  0  0  0  0  0
   44.4546   30.1997   47.6702 H   0  0  0  0  0  0  0  0  0  0  0  0
  1  6  2  0
  2  1  1  0
  3  2  2  0
  3  4  1  0
  4  5  2  0
  5  6  1  0
  7  3  1  0
  1  8  1  0
  2  9  1  0
  7 10  1  0
 11 12  1  0
 12 13  2  0
 13 14  1  0
 14 15  1  0
 14 16  2  0
 16 17  1  0
 16 18  1  0
 18 19  2  0
 19 12  1  0
 18 20  1  0
 19 21  1  0
  5 13  1  0
M  ISO  5   8  14   9  14  10  11  15  15  17  16
M  END
>  <DihAtoms>  (1) 
3,4,12,11

>  <DihDeg>  (1) 
-0.0014213318770318793

$$$$
