
     RDKit          3D

 30 32  0  0  0  0  0  0  0  0999 V2000
   45.6006   34.0392   45.3389 C   0  0  0  0  0  0  0  0  0  0  0  0
   44.6991   35.0947   45.5941 C   0  0  0  0  0  0  0  0  0  0  0  0
   44.5308   36.0453   44.5714 C   0  0  0  0  0  0  0  0  0  0  0  0
   45.2306   35.8966   43.4207 N   0  0  0  0  0  0  0  0  0  0  0  0
   46.0949   34.8603   43.2102 C   0  0  0  0  0  0  0  0  0  0  0  0
   46.2619   33.9470   44.1827 N   0  0  0  0  0  0  0  0  0  0  0  0
   44.5834   33.1355   41.1837 Br  0  0  0  0  0  0  0  0  0  0  0  0
   46.2899   33.9998   40.9483 C   0  0  0  0  0  0  0  0  0  0  0  0
   46.8251   34.7380   41.9628 C   0  0  0  0  0  0  0  0  0  0  0  0
   48.0600   35.3660   41.7987 C   0  0  0  0  0  0  0  0  0  0  0  0
   48.7090   35.2214   40.6063 C   0  0  0  0  0  0  0  0  0  0  0  0
   48.1311   34.4707   39.6188 C   0  0  0  0  0  0  0  0  0  0  0  0
   46.9257   33.8406   39.7394 C   0  0  0  0  0  0  0  0  0  0  0  0
   45.7113   33.3269   46.1351 H   0  0  0  0  0  0  0  0  0  0  0  0
   44.1361   35.2260   46.5035 H   0  0  0  0  0  0  0  0  0  0  0  0
   43.8666   36.9025   44.6465 H   0  0  0  0  0  0  0  0  0  0  0  0
   48.4926   35.9509   42.5911 H   0  0  0  0  0  0  0  0  0  0  0  0
   49.6782   35.7104   40.4681 H   0  0  0  0  0  0  0  0  0  0  0  0
   48.7133   34.4053   38.6991 H   0  0  0  0  0  0  0  0  0  0  0  0
   47.0531   30.8963   40.0729 Cl  0  0  0  0  0  0  0  0  0  0  0  0
   46.3334   31.6698   38.6666 C   0  0  0  0  0  0  0  0  0  0  0  0
   46.3496   33.0499   38.6564 C   0  0  0  0  0  0  0  0  0  0  0  0
   45.7761   33.6457   37.5368 C   0  0  0  0  0  0  0  0  0  0  0  0
   45.7908   34.7415   37.5319 H   0  0  0  0  0  0  0  0  0  0  0  0
   45.2360   32.8825   36.5218 C   0  0  0  0  0  0  0  0  0  0  0  0
   44.8240   33.4943   35.7119 H   0  0  0  0  0  0  0  0  0  0  0  0
   45.2360   31.5151   36.5630 C   0  0  0  0  0  0  0  0  0  0  0  0
   45.8008   30.8814   37.6672 C   0  0  0  0  0  0  0  0  0  0  0  0
   44.7962   30.9765   35.7342 H   0  0  0  0  0  0  0  0  0  0  0  0
   45.8113   29.8022   37.7197 H   0  0  0  0  0  0  0  0  0  0  0  0
  1  2  2  0
  3  2  1  0
  4  3  2  0
  5  4  1  0
  5  6  2  0
  6  1  1  0
  8  7  1  0
  8  9  2  0
  9  5  1  0
 10  9  1  0
 11 10  2  0
 12 13  2  0
 12 11  1  0
 13  8  1  0
  1 14  1  0
  2 15  1  0
  3 16  1  0
 10 17  1  0
 11 18  1  0
 12 19  1  0
 20 21  1  0
 21 22  2  0
 22 23  1  0
 23 24  1  0
 23 25  2  0
 25 26  1  0
 25 27  1  0
 27 28  2  0
 28 21  1  0
 27 29  1  0
 28 30  1  0
 13 22  1  0
M  ISO  8  14  14  15  14  16  14  17  14  18  14  19  14  24  15  26  16
M  END
>  <DihAtoms>  (1) 
11,12,21,20

>  <DihDeg>  (1) 
89.99862254137697

$$$$
