
     RDKit          3D

 47 50  0  0  1  0  0  0  0  0999 V2000
   47.4440   34.2590   41.9300 C   0  0  0  0  0  0  0  0  0  0  0  0
   48.2250   35.4610   41.4340 C   0  0  0  0  0  0  0  0  0  0  0  0
   48.8690   34.3110   42.0630 C   0  0  0  0  0  0  0  0  0  0  0  0
   46.8620   33.4460   40.8040 C   0  0  0  0  0  0  0  0  0  0  0  0
   47.4530   33.7240   39.4360 C   0  0  0  0  0  0  0  0  0  0  0  0
   46.7870   32.7250   38.4960 C   0  0  0  0  0  0  0  0  0  0  0  0
   45.4840   33.2130   38.2700 O   0  0  0  0  0  0  0  0  0  0  0  0
   44.8360   32.8990   39.4930 C   0  0  0  0  0  0  0  0  0  0  0  0
   45.3690   33.8130   40.5920 C   0  0  0  0  0  0  0  0  0  0  0  0
   45.8390   35.6670   43.2400 C   0  0  0  0  0  0  0  0  0  0  0  0
   46.5770   34.4830   43.1180 C   0  0  0  0  0  0  0  0  0  0  0  0
   46.4560   33.5520   44.1470 C   0  0  0  0  0  0  0  0  0  0  0  0
   45.6480   33.8190   45.2030 N   0  0  0  0  0  0  0  0  0  0  0  0
   44.9680   34.9720   45.2600 C   0  0  0  0  0  0  0  0  0  0  0  0
   45.0450   35.8830   44.3190 N   0  0  0  0  0  0  0  0  0  0  0  0
   44.1130   35.2880   46.3710 N   0  0  0  0  0  0  0  0  0  0  0  0
   47.1790   32.3070   44.1520 C   0  0  0  0  0  0  0  0  0  0  0  0
   47.6650   31.7180   45.2010 O   0  0  0  0  0  0  0  0  0  0  0  0
   45.0430   30.8350   42.8040 Cl  0  0  0  0  0  0  0  0  0  0  0  0
   46.7590   30.4480   42.5750 C   0  0  0  0  0  0  0  0  0  0  0  0
   47.6700   31.2650   43.2670 C   0  0  0  0  0  0  0  0  0  0  0  0
   48.9770   30.8990   43.0310 C   0  0  0  0  0  0  0  0  0  0  0  0
   49.3380   29.8510   42.2100 C   0  0  0  0  0  0  0  0  0  0  0  0
   48.3700   29.1280   41.5920 C   0  0  0  0  0  0  0  0  0  0  0  0
   47.0310   29.3870   41.7400 C   0  0  0  0  0  0  0  0  0  0  0  0
   48.3411   35.6433   40.3554 H   0  0  0  0  0  0  0  0  0  0  0  0
   48.2007   36.5473   41.6052 H   0  0  0  0  0  0  0  0  0  0  0  0
   49.3152   34.4207   43.0624 H   0  0  0  0  0  0  0  0  0  0  0  0
   49.6840   33.6379   41.7585 H   0  0  0  0  0  0  0  0  0  0  0  0
   47.0622   32.4110   41.1181 H   0  0  0  0  0  0  0  0  0  0  0  0
   47.2301   34.7546   39.1228 H   0  0  0  0  0  0  0  0  0  0  0  0
   48.5480   33.6193   39.4347 H   0  0  0  0  0  0  0  0  0  0  0  0
   47.3418   32.6636   37.5482 H   0  0  0  0  0  0  0  0  0  0  0  0
   46.7690   31.7142   38.9295 H   0  0  0  0  0  0  0  0  0  0  0  0
   43.7517   33.0485   39.3838 H   0  0  0  0  0  0  0  0  0  0  0  0
   45.0333   31.8495   39.7570 H   0  0  0  0  0  0  0  0  0  0  0  0
   45.2787   34.8654   40.2848 H   0  0  0  0  0  0  0  0  0  0  0  0
   44.7970   33.6825   41.5225 H   0  0  0  0  0  0  0  0  0  0  0  0
   45.9038   36.4312   42.4515 H   0  0  0  0  0  0  0  0  0  0  0  0
   43.6016   36.1819   46.3893 H   0  0  0  0  0  0  0  0  0  0  0  0
   44.0116   34.6206   47.1489 H   0  0  0  0  0  0  0  0  0  0  0  0
   48.1238   32.8551   44.0221 H   0  0  0  0  0  0  0  0  0  0  0  0
   47.3083   32.1503   46.0171 H   0  0  0  0  0  0  0  0  0  0  0  0
   49.7755   31.4732   43.5237 H   0  0  0  0  0  0  0  0  0  0  0  0
   50.3990   29.6040   42.0579 H   0  0  0  0  0  0  0  0  0  0  0  0
   48.6735   28.2946   40.9414 H   0  0  0  0  0  0  0  0  0  0  0  0
   46.2468   28.8013   41.2380 H   0  0  0  0  0  0  0  0  0  0  0  0
  1  3  1  0
  1 11  1  0
  2  1  1  0
  2  3  1  0
  4  1  1  0
  5  4  1  0
  6  5  1  0
  7  6  1  0
  7  8  1  0
  8  9  1  0
  9  4  1  0
 10 15  2  0
 11 10  1  0
 11 12  2  0
 12 17  1  0
 12 13  1  0
 13 14  2  0
 14 16  1  0
 15 14  1  0
 17 18  1  0
 20 19  1  0
 20 21  2  0
 21 17  1  0
 22 21  1  0
 23 22  2  0
 24 25  2  0
 24 23  1  0
 25 20  1  0
  2 26  1  0
  2 27  1  0
  3 28  1  0
  3 29  1  0
  4 30  1  0
  5 31  1  0
  5 32  1  0
  6 33  1  0
  6 34  1  0
  8 35  1  0
  8 36  1  0
  9 37  1  0
  9 38  1  0
 10 39  1  0
 16 40  1  0
 16 41  1  0
 17 42  1  0
 18 43  1  0
 22 44  1  0
 23 45  1  0
 24 46  1  0
 25 47  1  0
M  ISO  8  26  13  27  13  28  13  29  13  30  13  31  13  32  13  33  13
M  ISO  8  34  13  35  13  36  13  37  13  38  13  39  14  42   8  43   3
M  ISO  4  44  14  45  14  46  14  47  14
M  END
>  <minimizedAffinity>  (1) 
-5.32924843

>  <minimizedRMSD>  (1) 
1.96381879

$$$$
