
     RDKit          3D

 30 32  0  0  0  0  0  0  0  0999 V2000
   46.0845   34.1576   41.0155 C   0  0  0  0  0  0  0  0  0  0  0  0
   46.6123   34.8344   42.1086 C   0  0  0  0  0  0  0  0  0  0  0  0
   47.9373   35.2832   41.9835 C   0  0  0  0  0  0  0  0  0  0  0  0
   48.6044   35.0290   40.8182 N   0  0  0  0  0  0  0  0  0  0  0  0
   48.0469   34.3757   39.8050 C   0  0  0  0  0  0  0  0  0  0  0  0
   46.7842   33.9296   39.8826 N   0  0  0  0  0  0  0  0  0  0  0  0
   45.8078   35.0451   43.2934 C   0  0  0  0  0  0  0  0  0  0  0  0
   45.0539   36.1806   43.4988 C   0  0  0  0  0  0  0  0  0  0  0  0
   44.4661   35.9660   44.7232 C   0  0  0  0  0  0  0  0  0  0  0  0
   44.8381   34.7671   45.2394 N   0  0  0  0  0  0  0  0  0  0  0  0
   45.6480   34.2365   44.3519 N   0  0  0  0  0  0  0  0  0  0  0  0
   44.7780   33.6986   41.0998 O   0  0  0  0  0  0  0  0  0  0  0  0
   43.6914   34.1884   40.4298 C   0  0  0  0  0  0  0  0  0  0  0  0
   43.2571   35.3972   40.4134 O   0  0  0  0  0  0  0  0  0  0  0  0
   48.3630   35.8147   42.8325 H   0  0  0  0  0  0  0  0  0  0  0  0
   48.6273   34.2050   38.9067 H   0  0  0  0  0  0  0  0  0  0  0  0
   44.9308   37.0586   42.8625 H   0  0  0  0  0  0  0  0  0  0  0  0
   43.7923   36.6276   45.2484 H   0  0  0  0  0  0  0  0  0  0  0  0
   44.5922   34.2899   46.1265 H   0  0  0  0  0  0  0  0  0  0  0  0
   44.4795   33.8730   37.5161 Cl  0  0  0  0  0  0  0  0  0  0  0  0
   43.0540   33.0956   38.2244 C   0  0  0  0  0  0  0  0  0  0  0  0
   42.8144   33.3301   39.5824 C   0  0  0  0  0  0  0  0  0  0  0  0
   41.6877   32.6819   40.0278 C   0  0  0  0  0  0  0  0  0  0  0  0
   41.4133   32.8006   41.0746 H   0  0  0  0  0  0  0  0  0  0  0  0
   40.8772   31.8958   39.2633 C   0  0  0  0  0  0  0  0  0  0  0  0
   40.0104   31.4223   39.6917 H   0  0  0  0  0  0  0  0  0  0  0  0
   41.1982   31.7273   37.9382 C   0  0  0  0  0  0  0  0  0  0  0  0
   42.3046   32.3311   37.3897 C   0  0  0  0  0  0  0  0  0  0  0  0
   40.5396   31.0998   37.3553 H   0  0  0  0  0  0  0  0  0  0  0  0
   42.5643   32.2049   36.3518 H   0  0  0  0  0  0  0  0  0  0  0  0
  1 12  1  0
  1  2  1  0
  2  7  1  0
  3  2  2  0
  4  3  1  0
  5  6  1  0
  5  4  2  0
  6  1  2  0
  7  8  1  0
  7 11  2  0
  8  9  2  0
  9 10  1  0
 11 10  1  0
 13 14  2  0
 13 12  1  0
  3 15  1  0
  5 16  1  0
  8 17  1  0
  9 18  1  0
 10 19  1  0
 20 21  1  0
 21 22  2  0
 22 23  1  0
 23 24  1  0
 23 25  2  0
 25 26  1  0
 25 27  1  0
 27 28  2  0
 28 21  1  0
 27 29  1  0
 28 30  1  0
 13 22  1  0
M  ISO  7  15  14  16  14  17  14  18  14  19   9  24  15  26  16
M  END
>  <DihAtoms>  (1) 
13,12,21,20

>  <DihDeg>  (1) 
-178.57389045430608

$$$$
