
     RDKit          3D

 22 23  0  0  0  0  0  0  0  0999 V2000
   45.5260   33.1720   46.5900 C   0  0  0  0  0  0  0  0  0  0  0  0
   44.9940   33.4730   47.6850 O   0  0  0  0  0  0  0  0  0  0  0  0
   44.6070   35.9870   44.4820 C   0  0  0  0  0  0  0  0  0  0  0  0
   45.3240   35.8040   43.2950 C   0  0  0  0  0  0  0  0  0  0  0  0
   46.1390   34.6680   43.2480 C   0  0  0  0  0  0  0  0  0  0  0  0
   46.2000   33.8170   44.3230 N   0  0  0  0  0  0  0  0  0  0  0  0
   45.4810   34.0550   45.4380 C   0  0  0  0  0  0  0  0  0  0  0  0
   44.6920   35.1400   45.5020 N   0  0  0  0  0  0  0  0  0  0  0  0
   44.7360   31.2540   48.7020 Cl  0  0  0  0  0  0  0  0  0  0  0  0
   45.9170   30.9210   47.4320 C   0  0  0  0  0  0  0  0  0  0  0  0
   46.2040   31.8800   46.5110 C   0  0  0  0  0  0  0  0  0  0  0  0
   47.1340   31.5690   45.5370 C   0  0  0  0  0  0  0  0  0  0  0  0
   47.7390   30.3320   45.5170 C   0  0  0  0  0  0  0  0  0  0  0  0
   47.4360   29.3530   46.4710 C   0  0  0  0  0  0  0  0  0  0  0  0
   46.5060   29.6760   47.4360 C   0  0  0  0  0  0  0  0  0  0  0  0
   43.9491   36.8637   44.5743 H   0  0  0  0  0  0  0  0  0  0  0  0
   45.2517   36.5079   42.4528 H   0  0  0  0  0  0  0  0  0  0  0  0
   46.7328   34.4561   42.3466 H   0  0  0  0  0  0  0  0  0  0  0  0
   47.3930   32.3155   44.7717 H   0  0  0  0  0  0  0  0  0  0  0  0
   48.4775   30.1079   44.7332 H   0  0  0  0  0  0  0  0  0  0  0  0
   47.9206   28.3657   46.4513 H   0  0  0  0  0  0  0  0  0  0  0  0
   46.2348   28.9407   48.2079 H   0  0  0  0  0  0  0  0  0  0  0  0
  1  2  2  0
  3  8  2  0
  4  3  1  0
  5  4  2  0
  5  6  1  0
  6  7  2  0
  7  8  1  0
  7  1  1  0
 10 15  2  0
 10  9  1  0
 11  1  1  0
 11 10  1  0
 12 11  2  0
 13 12  1  0
 13 14  2  0
 14 15  1  0
  3 16  1  0
  4 17  1  0
  5 18  1  0
 12 19  1  0
 13 20  1  0
 14 21  1  0
 15 22  1  0
M  ISO  7  16  14  17  14  18  14  19  14  20  14  21  14  22  14
M  END
>  <minimizedAffinity>  (1) 
-4.55785036

>  <minimizedRMSD>  (1) 
1.00050426

$$$$
