
     RDKit          3D

 44 47  0  0  1  0  0  0  0  0999 V2000
   42.0500   33.2500   41.1280 C   0  0  0  0  0  0  0  0  0  0  0  0
   42.7920   34.3840   41.3090 C   0  0  0  0  0  0  0  0  0  0  0  0
   42.1190   35.6220   41.2720 C   0  0  0  0  0  0  0  0  0  0  0  0
   40.7650   35.7410   41.0650 C   0  0  0  0  0  0  0  0  0  0  0  0
   40.0290   34.5990   40.8870 C   0  0  0  0  0  0  0  0  0  0  0  0
   40.6760   33.3990   40.9220 C   0  0  0  0  0  0  0  0  0  0  0  0
   42.7120   31.7060   41.2420 S   0  0  0  0  0  0  0  0  0  0  0  0
   41.6430   30.8840   40.4550 O   0  0  0  0  0  0  0  0  0  0  0  0
   42.7280   31.1810   42.6290 O   0  0  0  0  0  0  0  0  0  0  0  0
   42.7510   32.6070   38.3320 Cl  0  0  0  0  0  0  0  0  0  0  0  0
   43.8980   31.3940   38.9400 C   0  0  0  0  0  0  0  0  0  0  0  0
   43.8700   30.9390   40.2900 C   0  0  0  0  0  0  0  0  0  0  0  0
   44.8700   29.9980   40.5010 C   0  0  0  0  0  0  0  0  0  0  0  0
   45.8250   29.4590   39.6750 C   0  0  0  0  0  0  0  0  0  0  0  0
   45.6960   30.0100   38.4310 C   0  0  0  0  0  0  0  0  0  0  0  0
   44.7960   30.9440   38.0050 C   0  0  0  0  0  0  0  0  0  0  0  0
   44.2250   34.3670   41.5340 C   0  0  0  0  0  0  0  0  0  0  0  0
   45.0950   34.2890   40.6160 O   0  0  0  0  0  0  0  0  0  0  0  0
   44.5800   34.4490   42.9310 C   0  0  0  0  0  0  0  0  0  0  0  0
   44.3100   35.7110   43.5650 C   0  0  0  0  0  0  0  0  0  0  0  0
   44.6390   35.8140   44.9050 C   0  0  0  0  0  0  0  0  0  0  0  0
   45.1860   34.7370   45.5240 N   0  0  0  0  0  0  0  0  0  0  0  0
   45.4240   33.5540   44.8710 C   0  0  0  0  0  0  0  0  0  0  0  0
   45.1200   33.4500   43.6230 N   0  0  0  0  0  0  0  0  0  0  0  0
   46.0130   32.4320   45.6290 C   0  0  1  0  0  0  0  0  0  0  0  0
   46.9690   32.7310   46.7600 C   0  0  0  0  0  0  0  0  0  0  0  0
   45.5530   32.3220   47.0340 C   0  0  1  0  0  0  0  0  0  0  0  0
   44.7750   33.3940   47.6330 N   0  0  0  0  0  0  0  0  0  0  0  0
   42.7074   36.5402   41.4162 H   0  0  0  0  0  0  0  0  0  0  0  0
   40.2838   36.7299   41.0428 H   0  0  0  0  0  0  0  0  0  0  0  0
   38.9429   34.6489   40.7200 H   0  0  0  0  0  0  0  0  0  0  0  0
   40.0765   32.4880   40.7786 H   0  0  0  0  0  0  0  0  0  0  0  0
   44.9030   29.6093   41.5295 H   0  0  0  0  0  0  0  0  0  0  0  0
   46.5722   28.7063   39.9669 H   0  0  0  0  0  0  0  0  0  0  0  0
   46.4107   29.6545   37.6741 H   0  0  0  0  0  0  0  0  0  0  0  0
   44.7910   31.3153   36.9696 H   0  0  0  0  0  0  0  0  0  0  0  0
   43.8646   36.5517   43.0129 H   0  0  0  0  0  0  0  0  0  0  0  0
   44.4611   36.7488   45.4569 H   0  0  0  0  0  0  0  0  0  0  0  0
   46.0698   31.7746   44.7489 H   0  0  0  0  0  0  0  0  0  0  0  0
   47.7964   32.0408   46.9814 H   0  0  0  0  0  0  0  0  0  0  0  0
   47.6077   33.5810   47.0421 H   0  0  0  0  0  0  0  0  0  0  0  0
   45.0205   31.5196   47.5656 H   0  0  0  0  0  0  0  0  0  0  0  0
   44.8263   33.3233   48.6593 H   0  0  0  0  0  0  0  0  0  0  0  0
   45.1544   34.3031   47.3321 H   0  0  0  0  0  0  0  0  0  0  0  0
  1  7  1  0
  1  2  1  0
  2 17  1  0
  3  2  2  0
  4  3  1  0
  5  6  1  0
  5  4  2  0
  6  1  2  0
  7  9  2  0
  8  7  2  0
 10 11  1  0
 11 12  2  0
 12 13  1  0
 12  7  1  0
 14 13  2  0
 15 14  1  0
 16 15  2  0
 16 11  1  0
 17 19  1  0
 18 17  2  0
 19 20  2  0
 19 24  1  0
 20 21  1  0
 21 22  2  0
 23 22  1  0
 23 25  1  0
 24 23  2  0
 25 26  1  0
 25 27  1  0
 26 27  1  0
 27 28  1  0
  3 29  1  0
  4 30  1  0
  5 31  1  0
  6 32  1  0
 13 33  1  0
 14 34  1  0
 15 35  1  0
 16 36  1  0
 20 37  1  0
 21 38  1  0
 25 39  1  6
 26 40  1  0
 26 41  1  0
 27 42  1  1
 28 43  1  0
 28 44  1  0
M  ISO  8  29  14  30  14  31  14  32  14  33  14  34  14  35  14  36  14
M  ISO  8  37  14  38  14  39  13  40  13  41  13  42  13  43   5  44   5
M  END
>  <minimizedAffinity>  (1) 
-5.88277721

>  <minimizedRMSD>  (1) 
1.27341485

$$$$
