
     RDKit          3D

 27 29  0  0  0  0  0  0  0  0999 V2000
   44.5664   35.8866   44.4029 C   0  0  0  0  0  0  0  0  0  0  0  0
   45.3435   35.9470   43.2221 C   0  0  0  0  0  0  0  0  0  0  0  0
   46.3396   34.9692   43.0606 C   0  0  0  0  0  0  0  0  0  0  0  0
   46.5129   34.0288   44.0197 N   0  0  0  0  0  0  0  0  0  0  0  0
   45.7483   34.0030   45.1384 C   0  0  0  0  0  0  0  0  0  0  0  0
   44.7902   34.9308   45.3099 N   0  0  0  0  0  0  0  0  0  0  0  0
   47.1977   34.9341   41.8872 C   0  0  0  0  0  0  0  0  0  0  0  0
   46.9909   34.2316   40.7314 C   0  0  0  0  0  0  0  0  0  0  0  0
   48.0244   34.4513   39.8481 C   0  0  0  0  0  0  0  0  0  0  0  0
   48.8554   35.2910   40.4799 N   0  0  0  0  0  0  0  0  0  0  0  0
   48.3706   35.5717   41.6708 N   0  0  0  0  0  0  0  0  0  0  0  0
   43.8277   36.6807   44.4342 H   0  0  0  0  0  0  0  0  0  0  0  0
   45.2529   36.6677   42.4272 H   0  0  0  0  0  0  0  0  0  0  0  0
   45.9127   33.2347   45.8895 H   0  0  0  0  0  0  0  0  0  0  0  0
   46.1598   33.5786   40.4775 H   0  0  0  0  0  0  0  0  0  0  0  0
   48.2560   34.1091   38.8581 H   0  0  0  0  0  0  0  0  0  0  0  0
   49.2150   37.9845   41.6566 Cl  0  0  0  0  0  0  0  0  0  0  0  0
   50.4055   37.1941   40.6434 C   0  0  0  0  0  0  0  0  0  0  0  0
   50.0957   35.9195   40.1585 C   0  0  0  0  0  0  0  0  0  0  0  0
   50.9766   35.2249   39.3533 C   0  0  0  0  0  0  0  0  0  0  0  0
   50.7437   34.2358   38.9731 H   0  0  0  0  0  0  0  0  0  0  0  0
   52.1983   35.8235   39.0264 C   0  0  0  0  0  0  0  0  0  0  0  0
   52.8886   35.2816   38.3966 H   0  0  0  0  0  0  0  0  0  0  0  0
   52.5198   37.0935   39.5029 C   0  0  0  0  0  0  0  0  0  0  0  0
   51.6283   37.7770   40.3081 C   0  0  0  0  0  0  0  0  0  0  0  0
   53.4753   37.5368   39.2347 H   0  0  0  0  0  0  0  0  0  0  0  0
   51.8467   38.7642   40.6946 H   0  0  0  0  0  0  0  0  0  0  0  0
  1  6  2  0
  2  1  1  0
  3  2  2  0
  3  4  1  0
  4  5  2  0
  5  6  1  0
  7  3  1  0
  8  7  1  0
  9 10  1  0
  9  8  2  0
 10 11  1  0
 11  7  2  0
  1 12  1  0
  2 13  1  0
  5 14  1  0
  8 15  1  0
  9 16  1  0
 17 18  1  0
 18 19  2  0
 19 20  1  0
 20 21  1  0
 20 22  2  0
 22 23  1  0
 22 24  1  0
 24 25  2  0
 25 18  1  0
 24 26  1  0
 25 27  1  0
 10 19  1  0
M  ISO  7  12  14  13  14  14  14  15  14  16  14  21  15  23  16
M  END
>  <DihAtoms>  (1) 
8,9,18,17

>  <DihDeg>  (1) 
-108.03933305860528

$$$$
