
     RDKit          3D

 41 43  0  0  0  0  0  0  0  0999 V2000
   46.3470   32.8320   41.1810 F   0  0  0  0  0  0  0  0  0  0  0  0
   47.5910   33.1180   41.5070 C   0  0  0  0  0  0  0  0  0  0  0  0
   47.8000   33.9670   42.5770 C   0  0  0  0  0  0  0  0  0  0  0  0
   49.0880   34.3410   43.0160 C   0  0  0  0  0  0  0  0  0  0  0  0
   50.2010   33.8300   42.3410 C   0  0  0  0  0  0  0  0  0  0  0  0
   49.9360   32.9940   41.2890 C   0  0  0  0  0  0  0  0  0  0  0  0
   48.7120   32.6250   40.8540 C   0  0  0  0  0  0  0  0  0  0  0  0
   45.3450   34.4650   45.2520 C   0  0  0  0  0  0  0  0  0  0  0  0
   44.5750   35.5460   44.7400 C   0  0  0  0  0  0  0  0  0  0  0  0
   44.9140   36.0960   43.4660 C   0  0  0  0  0  0  0  0  0  0  0  0
   45.9740   35.5330   42.8160 N   0  0  0  0  0  0  0  0  0  0  0  0
   46.6680   34.5270   43.3250 C   0  0  0  0  0  0  0  0  0  0  0  0
   46.3590   33.9930   44.5330 N   0  0  0  0  0  0  0  0  0  0  0  0
   44.9840   33.9570   46.5000 N   0  0  0  0  0  0  0  0  0  0  0  0
   48.5770   31.7830   39.7880 O   0  0  0  0  0  0  0  0  0  0  0  0
   47.6420   33.4410   37.9520 O   0  0  0  0  0  0  0  0  0  0  0  0
   48.4870   32.2130   38.1630 P   0  0  2  0  0  0  0  0  0  0  0  0
   47.8500   30.9110   37.2720 O   0  0  0  0  0  0  0  0  0  0  0  0
   48.9950   31.0800   34.6070 Cl  0  0  0  0  0  0  0  0  0  0  0  0
   47.3100   31.2300   35.0670 C   0  0  0  0  0  0  0  0  0  0  0  0
   46.8170   31.1400   36.3740 C   0  0  0  0  0  0  0  0  0  0  0  0
   45.4620   31.2780   36.5920 C   0  0  0  0  0  0  0  0  0  0  0  0
   44.6240   31.5030   35.5220 C   0  0  0  0  0  0  0  0  0  0  0  0
   45.1050   31.5930   34.2340 C   0  0  0  0  0  0  0  0  0  0  0  0
   46.4470   31.4570   34.0050 C   0  0  0  0  0  0  0  0  0  0  0  0
   50.0200   32.4920   37.4890 O   0  0  0  0  0  0  0  0  0  0  0  0
   50.9050   31.4440   37.8110 C   0  0  0  0  0  0  0  0  0  0  0  0
   51.7690   31.3520   36.7170 F   0  0  0  0  0  0  0  0  0  0  0  0
   51.6720   31.7720   38.9050 F   0  0  0  0  0  0  0  0  0  0  0  0
   50.2820   30.2530   38.0640 F   0  0  0  0  0  0  0  0  0  0  0  0
   49.2139   35.0206   43.8717 H   0  0  0  0  0  0  0  0  0  0  0  0
   51.2292   34.0846   42.6376 H   0  0  0  0  0  0  0  0  0  0  0  0
   50.8016   32.5847   40.7475 H   0  0  0  0  0  0  0  0  0  0  0  0
   43.7310   35.9524   45.3166 H   0  0  0  0  0  0  0  0  0  0  0  0
   44.3483   36.9326   43.0300 H   0  0  0  0  0  0  0  0  0  0  0  0
   45.5132   33.1743   46.9101 H   0  0  0  0  0  0  0  0  0  0  0  0
   44.1882   34.3646   47.0114 H   0  0  0  0  0  0  0  0  0  0  0  0
   45.0541   31.2090   37.6113 H   0  0  0  0  0  0  0  0  0  0  0  0
   43.5442   31.6135   35.7003 H   0  0  0  0  0  0  0  0  0  0  0  0
   44.4153   31.7728   33.3962 H   0  0  0  0  0  0  0  0  0  0  0  0
   46.8410   31.5276   32.9804 H   0  0  0  0  0  0  0  0  0  0  0  0
  1  2  1  0
  2  3  2  0
  3  4  1  0
  3 12  1  0
  5  4  2  0
  6  5  1  0
  7  6  2  0
  7  2  1  0
  8 14  1  0
  9  8  2  0
 10  9  1  0
 11 12  1  0
 11 10  2  0
 12 13  2  0
 13  8  1  0
 15  7  1  0
 17 16  2  0
 17 15  1  0
 18 17  1  0
 19 20  1  0
 20 21  2  0
 21 22  1  0
 21 18  1  0
 23 22  2  0
 24 23  1  0
 25 24  2  0
 25 20  1  0
 26 27  1  0
 26 17  1  0
 27 30  1  0
 27 29  1  0
 28 27  1  0
  4 31  1  0
  5 32  1  0
  6 33  1  0
  9 34  1  0
 10 35  1  0
 14 36  1  0
 14 37  1  0
 22 38  1  0
 23 39  1  0
 24 40  1  0
 25 41  1  0
M  ISO  8  31  14  32  14  33  14  34  14  35  14  38  14  39  14  40  14
M  ISO  1  41  14
M  END
>  <minimizedAffinity>  (1) 
-5.4648304

>  <minimizedRMSD>  (1) 
2.83156943

$$$$
