
     RDKit          3D

 41 43  0  0  0  0  0  0  0  0999 V2000
   42.2031   34.1739   40.1944 C   0  0  0  0  0  0  0  0  0  0  0  0
   42.2898   35.1363   41.1916 C   0  0  0  0  0  0  0  0  0  0  0  0
   41.2406   36.0174   41.3414 C   0  0  0  0  0  0  0  0  0  0  0  0
   40.1498   35.9366   40.5252 C   0  0  0  0  0  0  0  0  0  0  0  0
   40.0413   34.9982   39.5367 C   0  0  0  0  0  0  0  0  0  0  0  0
   41.1105   34.1329   39.4157 C   0  0  0  0  0  0  0  0  0  0  0  0
   44.6160   31.2961   40.5949 C   0  0  0  0  0  0  0  0  0  0  0  0
   43.4627   32.0903   40.7968 C   0  0  0  0  0  0  0  0  0  0  0  0
   43.3385   33.2685   40.0791 C   0  0  0  0  0  0  0  0  0  0  0  0
   44.3406   33.5839   39.2233 N   0  0  0  0  0  0  0  0  0  0  0  0
   45.4352   32.8219   39.0371 C   0  0  0  0  0  0  0  0  0  0  0  0
   45.5758   31.6822   39.7182 N   0  0  0  0  0  0  0  0  0  0  0  0
   43.4865   35.2105   42.0730 C   0  0  0  0  0  0  0  0  0  0  0  0
   43.2226   35.6689   43.4015 N   0  0  0  0  0  0  0  0  0  0  0  0
   44.6593   35.8367   44.3410 S   0  0  0  0  0  0  0  0  0  0  0  0
   45.8247   35.2089   43.6500 O   0  0  0  0  0  0  0  0  0  0  0  0
   44.4925   35.3099   45.7063 O   0  0  0  0  0  0  0  0  0  0  0  0
   44.9235   37.5127   44.4398 O   0  0  0  0  0  0  0  0  0  0  0  0
   41.3264   36.7663   42.1297 H   0  0  0  0  0  0  0  0  0  0  0  0
   39.3825   36.6710   40.7225 H   0  0  0  0  0  0  0  0  0  0  0  0
   39.1662   34.9906   38.9375 H   0  0  0  0  0  0  0  0  0  0  0  0
   41.0483   33.3724   38.6320 H   0  0  0  0  0  0  0  0  0  0  0  0
   44.6787   30.3757   41.1775 H   0  0  0  0  0  0  0  0  0  0  0  0
   42.6758   31.8234   41.4820 H   0  0  0  0  0  0  0  0  0  0  0  0
   46.1764   33.1542   38.3370 H   0  0  0  0  0  0  0  0  0  0  0  0
   44.3221   35.7715   41.6523 H   0  0  0  0  0  0  0  0  0  0  0  0
   43.8363   34.1502   42.1722 H   0  0  0  0  0  0  0  0  0  0  0  0
   42.5062   35.1360   43.9092 H   0  0  0  0  0  0  0  0  0  0  0  0
   45.7360   34.2877   43.2715 H   0  0  0  0  0  0  0  0  0  0  0  0
   44.9203   34.5963   46.2029 H   0  0  0  0  0  0  0  0  0  0  0  0
   45.2722   36.7329   47.3418 Cl  0  0  0  0  0  0  0  0  0  0  0  0
   44.1912   37.9961   46.7900 C   0  0  0  0  0  0  0  0  0  0  0  0
   44.1904   38.1838   45.4234 C   0  0  0  0  0  0  0  0  0  0  0  0
   43.3781   39.1549   44.8487 C   0  0  0  0  0  0  0  0  0  0  0  0
   43.2934   39.3922   43.7926 H   0  0  0  0  0  0  0  0  0  0  0  0
   42.5482   39.9590   45.6363 C   0  0  0  0  0  0  0  0  0  0  0  0
   41.9021   40.7249   45.2272 H   0  0  0  0  0  0  0  0  0  0  0  0
   42.5702   39.7473   47.0086 C   0  0  0  0  0  0  0  0  0  0  0  0
   43.3774   38.7834   47.5725 C   0  0  0  0  0  0  0  0  0  0  0  0
   41.9490   40.3441   47.6367 H   0  0  0  0  0  0  0  0  0  0  0  0
   43.4303   38.5791   48.6432 H   0  0  0  0  0  0  0  0  0  0  0  0
  1  2  1  0
  2  3  2  0
  2 13  1  0
  4  3  1  0
  5  4  2  0
  6  5  1  0
  6  1  2  0
  7  8  2  0
  9  1  1  0
  9  8  1  0
 10  9  2  0
 11 10  1  0
 11 12  2  0
 12  7  1  0
 13 14  1  0
 14 15  1  0
 15 18  1  0
 15 17  1  0
 16 15  1  0
  3 19  1  0
  4 20  1  0
  5 21  1  0
  6 22  1  0
  7 23  1  0
  8 24  1  0
 11 25  1  0
 13 26  1  0
 13 27  1  0
 14 28  1  0
 16 29  1  0
 17 30  1  0
 31 32  1  0
 32 33  2  0
 33 34  1  0
 34 35  1  0
 34 36  2  0
 36 37  1  0
 36 38  1  0
 38 39  2  0
 39 32  1  0
 38 40  1  0
 39 41  1  0
 18 33  1  0
M  ISO  8  19  14  20  14  21  14  22  14  23  14  24  14  25  14  26   8
M  ISO  6  27   8  28   5  29   3  30   3  35  15  37  16
M  END
>  <DihAtoms>  (1) 
14,17,32,31

>  <DihDeg>  (1) 
89.99981668587914

$$$$
