
     RDKit          3D

 27 29  0  0  0  0  0  0  0  0999 V2000
   45.9470   33.5960   45.7350 C   0  0  0  0  0  0  0  0  0  0  0  0
   45.0060   34.6220   45.5810 C   0  0  0  0  0  0  0  0  0  0  0  0
   45.1470   35.1400   44.3340 C   0  0  0  0  0  0  0  0  0  0  0  0
   46.1370   34.4590   43.7380 N   0  0  0  0  0  0  0  0  0  0  0  0
   46.6200   33.5260   44.5850 N   0  0  0  0  0  0  0  0  0  0  0  0
   47.5290   31.6610   48.4150 C   0  0  0  0  0  0  0  0  0  0  0  0
   46.4300   31.2670   49.2020 C   0  0  0  0  0  0  0  0  0  0  0  0
   45.1330   31.6830   48.7870 C   0  0  0  0  0  0  0  0  0  0  0  0
   45.0320   32.4340   47.6610 N   0  0  0  0  0  0  0  0  0  0  0  0
   46.1150   32.7910   46.9330 C   0  0  0  0  0  0  0  0  0  0  0  0
   47.3610   32.4110   47.3010 N   0  0  0  0  0  0  0  0  0  0  0  0
   44.7400   32.9790   41.5640 Cl  0  0  0  0  0  0  0  0  0  0  0  0
   46.2380   33.8540   41.3640 C   0  0  0  0  0  0  0  0  0  0  0  0
   46.7720   34.4950   42.4630 C   0  0  0  0  0  0  0  0  0  0  0  0
   47.9510   35.2170   42.4270 C   0  0  0  0  0  0  0  0  0  0  0  0
   48.6520   35.3130   41.2200 C   0  0  0  0  0  0  0  0  0  0  0  0
   48.0930   34.6600   40.1380 C   0  0  0  0  0  0  0  0  0  0  0  0
   46.9140   33.9360   40.1700 C   0  0  0  0  0  0  0  0  0  0  0  0
   44.2793   34.9508   46.3385 H   0  0  0  0  0  0  0  0  0  0  0  0
   44.5611   35.9615   43.8960 H   0  0  0  0  0  0  0  0  0  0  0  0
   48.5428   31.3536   48.7110 H   0  0  0  0  0  0  0  0  0  0  0  0
   46.5688   30.6580   50.1075 H   0  0  0  0  0  0  0  0  0  0  0  0
   44.2383   31.4036   49.3627 H   0  0  0  0  0  0  0  0  0  0  0  0
   48.3321   35.7087   43.3342 H   0  0  0  0  0  0  0  0  0  0  0  0
   49.5936   35.8757   41.1371 H   0  0  0  0  0  0  0  0  0  0  0  0
   48.6260   34.7203   39.1777 H   0  0  0  0  0  0  0  0  0  0  0  0
   46.5291   33.4407   39.2664 H   0  0  0  0  0  0  0  0  0  0  0  0
  1 10  1  0
  2  1  1  0
  3  2  2  0
  4  3  1  0
  4  5  1  0
  5  1  2  0
  6  7  2  0
  8  7  1  0
  9  8  2  0
 10 11  2  0
 10  9  1  0
 11  6  1  0
 13 12  1  0
 13 14  2  0
 14  4  1  0
 15 14  1  0
 16 15  2  0
 17 18  2  0
 17 16  1  0
 18 13  1  0
  2 19  1  0
  3 20  1  0
  6 21  1  0
  7 22  1  0
  8 23  1  0
 15 24  1  0
 16 25  1  0
 17 26  1  0
 18 27  1  0
M  ISO  8  19  14  20  14  21  14  22  14  23  14  24  14  25  14  26  14
M  ISO  1  27  14
M  END
>  <minimizedAffinity>  (1) 
-5.76728106

>  <minimizedRMSD>  (1) 
7.47546768

$$$$
