
     RDKit          3D

 29 30  0  0  0  0  0  0  0  0999 V2000
   45.4230   30.8900   49.4830 O   0  0  0  0  0  0  0  0  0  0  0  0
   45.7320   31.0090   47.9890 P   0  0  1  0  0  0  0  0  0  0  0  0
   44.4650   30.2340   47.1790 O   0  0  0  0  0  0  0  0  0  0  0  0
   45.8400   32.6540   47.6450 O   0  0  0  0  0  0  0  0  0  0  0  0
   45.3150   34.6670   44.7000 C   0  0  0  0  0  0  0  0  0  0  0  0
   46.2680   34.1400   43.8220 C   0  0  0  0  0  0  0  0  0  0  0  0
   47.0590   33.0900   44.3100 C   0  0  0  0  0  0  0  0  0  0  0  0
   46.8600   32.6610   45.5670 N   0  0  0  0  0  0  0  0  0  0  0  0
   45.9180   33.2090   46.3790 C   0  0  0  0  0  0  0  0  0  0  0  0
   45.1420   34.2240   45.9300 N   0  0  0  0  0  0  0  0  0  0  0  0
   44.4700   35.7940   44.1670 C   0  0  0  0  0  0  0  0  0  0  0  0
   47.1660   30.2170   47.5990 O   0  0  0  0  0  0  0  0  0  0  0  0
   48.6660   27.7430   47.8620 Cl  0  0  0  0  0  0  0  0  0  0  0  0
   49.0740   29.3190   48.5280 C   0  0  0  0  0  0  0  0  0  0  0  0
   48.3000   30.4710   48.3580 C   0  0  0  0  0  0  0  0  0  0  0  0
   48.7070   31.6640   48.9220 C   0  0  0  0  0  0  0  0  0  0  0  0
   49.8840   31.7040   49.6510 C   0  0  0  0  0  0  0  0  0  0  0  0
   50.6300   30.5560   49.8050 C   0  0  0  0  0  0  0  0  0  0  0  0
   50.2670   29.3220   49.2580 C   0  0  0  0  0  0  0  0  0  0  0  0
   43.8366   29.8496   47.8404 H   0  0  0  0  0  0  0  0  0  0  0  0
   46.3907   34.5295   42.8006 H   0  0  0  0  0  0  0  0  0  0  0  0
   47.8283   32.6263   43.6750 H   0  0  0  0  0  0  0  0  0  0  0  0
   44.0441   36.3620   45.0072 H   0  0  0  0  0  0  0  0  0  0  0  0
   45.0930   36.4603   43.5522 H   0  0  0  0  0  0  0  0  0  0  0  0
   43.6558   35.3828   43.5522 H   0  0  0  0  0  0  0  0  0  0  0  0
   48.1022   32.5738   48.7935 H   0  0  0  0  0  0  0  0  0  0  0  0
   50.2214   32.6476   50.1047 H   0  0  0  0  0  0  0  0  0  0  0  0
   51.5603   30.6136   50.3892 H   0  0  0  0  0  0  0  0  0  0  0  0
   50.8770   28.4165   49.3923 H   0  0  0  0  0  0  0  0  0  0  0  0
  2  1  2  0
  3  2  1  0
  4  2  1  0
  5 10  2  0
  6  7  2  0
  6  5  1  0
  7  8  1  0
  8  9  2  0
  9  4  1  0
 10  9  1  0
 11  5  1  0
 12  2  1  0
 12 15  1  0
 13 14  1  0
 14 19  2  0
 15 14  1  0
 15 16  2  0
 16 17  1  0
 17 18  2  0
 19 18  1  0
  3 20  1  0
  6 21  1  0
  7 22  1  0
 11 23  1  0
 11 24  1  0
 11 25  1  0
 16 26  1  0
 17 27  1  0
 18 28  1  0
 19 29  1  0
M  ISO  8  20   3  21  14  22  14  23   8  24   8  25   8  26  14  27  14
M  ISO  2  28  14  29  14
M  END
>  <minimizedAffinity>  (1) 
-5.04448986

>  <minimizedRMSD>  (1) 
1.45249248

$$$$
