
     RDKit          3D

 35 37  0  0  0  0  0  0  0  0999 V2000
   48.3820   33.1550   41.2220 C   0  0  0  0  0  0  0  0  0  0  0  0
   47.9910   34.3480   41.7910 C   0  0  0  0  0  0  0  0  0  0  0  0
   48.9360   35.0810   42.4950 C   0  0  0  0  0  0  0  0  0  0  0  0
   50.2300   34.5980   42.6070 C   0  0  0  0  0  0  0  0  0  0  0  0
   50.5470   33.4140   42.0220 C   0  0  0  0  0  0  0  0  0  0  0  0
   49.6430   32.6340   41.3020 C   0  0  0  0  0  0  0  0  0  0  0  0
   46.5790   34.7390   41.5920 C   0  0  0  0  0  0  0  0  0  0  0  0
   45.9140   34.9290   42.9330 C   0  0  0  0  0  0  0  0  0  0  0  0
   46.0190   33.8790   43.8590 C   0  0  0  0  0  0  0  0  0  0  0  0
   45.4150   34.0570   45.0950 C   0  0  0  0  0  0  0  0  0  0  0  0
   44.7680   35.2190   45.3340 N   0  0  0  0  0  0  0  0  0  0  0  0
   44.6840   36.2150   44.4210 C   0  0  0  0  0  0  0  0  0  0  0  0
   45.2570   36.0630   43.2270 N   0  0  0  0  0  0  0  0  0  0  0  0
   47.4900   32.3370   40.4860 O   0  0  0  0  0  0  0  0  0  0  0  0
   50.0770   31.4460   40.7470 O   0  0  0  0  0  0  0  0  0  0  0  0
   49.5990   32.1430   37.8820 Cl  0  0  0  0  0  0  0  0  0  0  0  0
   51.1000   31.6870   38.6150 C   0  0  0  0  0  0  0  0  0  0  0  0
   51.2020   31.3880   39.9500 C   0  0  0  0  0  0  0  0  0  0  0  0
   52.4360   31.0330   40.4580 C   0  0  0  0  0  0  0  0  0  0  0  0
   53.5770   30.9730   39.6530 C   0  0  0  0  0  0  0  0  0  0  0  0
   53.4210   31.2830   38.3220 C   0  0  0  0  0  0  0  0  0  0  0  0
   52.2230   31.6350   37.7870 C   0  0  0  0  0  0  0  0  0  0  0  0
   48.6599   36.0385   42.9608 H   0  0  0  0  0  0  0  0  0  0  0  0
   50.9906   35.1662   43.1625 H   0  0  0  0  0  0  0  0  0  0  0  0
   51.5796   33.0482   42.1223 H   0  0  0  0  0  0  0  0  0  0  0  0
   46.5361   35.6807   41.0251 H   0  0  0  0  0  0  0  0  0  0  0  0
   46.0560   33.9492   41.0329 H   0  0  0  0  0  0  0  0  0  0  0  0
   46.5586   32.9522   43.6142 H   0  0  0  0  0  0  0  0  0  0  0  0
   45.4616   33.2706   45.8627 H   0  0  0  0  0  0  0  0  0  0  0  0
   44.1464   37.1437   44.6628 H   0  0  0  0  0  0  0  0  0  0  0  0
   46.5483   32.6168   40.3637 H   0  0  0  0  0  0  0  0  0  0  0  0
   52.5236   30.7904   41.5273 H   0  0  0  0  0  0  0  0  0  0  0  0
   54.5567   30.6903   40.0657 H   0  0  0  0  0  0  0  0  0  0  0  0
   54.3019   31.2443   37.6643 H   0  0  0  0  0  0  0  0  0  0  0  0
   52.1389   31.8756   36.7169 H   0  0  0  0  0  0  0  0  0  0  0  0
  1  6  2  0
  1  2  1  0
  2  3  2  0
  3  4  1  0
  5  4  2  0
  6  5  1  0
  7  2  1  0
  7  8  1  0
  8 13  1  0
  8  9  2  0
  9 10  1  0
 10 11  2  0
 12 11  1  0
 13 12  2  0
 14  1  1  0
 15  6  1  0
 16 17  1  0
 17 18  2  0
 18 19  1  0
 18 15  1  0
 20 19  2  0
 21 20  1  0
 22 21  2  0
 22 17  1  0
  3 23  1  0
  4 24  1  0
  5 25  1  0
  7 26  1  0
  7 27  1  0
  9 28  1  0
 10 29  1  0
 12 30  1  0
 14 31  1  0
 19 32  1  0
 20 33  1  0
 21 34  1  0
 22 35  1  0
M  ISO  8  23  14  24  14  25  14  26   8  27   8  28  14  29  14  30  14
M  ISO  5  31   3  32  14  33  14  34  14  35  14
M  END
>  <minimizedAffinity>  (1) 
-5.63958263

>  <minimizedRMSD>  (1) 
1.8840903

$$$$
