
     RDKit          3D

 34 37  0  0  0  0  0  0  0  0999 V2000
   48.1853   35.0644   41.9382 C   0  0  0  0  0  0  0  0  0  0  0  0
   47.0736   34.2730   42.0993 C   0  0  0  0  0  0  0  0  0  0  0  0
   46.5067   33.6710   40.9904 C   0  0  0  0  0  0  0  0  0  0  0  0
   47.0110   33.8306   39.7204 C   0  0  0  0  0  0  0  0  0  0  0  0
   46.6552   33.3657   38.5063 N   0  0  0  0  0  0  0  0  0  0  0  0
   47.5437   33.8648   37.5785 C   0  0  0  0  0  0  0  0  0  0  0  0
   48.4482   34.6414   38.2415 N   0  0  0  0  0  0  0  0  0  0  0  0
   48.1352   34.6291   39.5463 C   0  0  0  0  0  0  0  0  0  0  0  0
   48.7036   35.2313   40.6498 C   0  0  0  0  0  0  0  0  0  0  0  0
   45.1172   34.6110   45.3128 C   0  0  0  0  0  0  0  0  0  0  0  0
   45.5299   34.8740   43.9803 C   0  0  0  0  0  0  0  0  0  0  0  0
   46.5491   34.1129   43.4564 C   0  0  0  0  0  0  0  0  0  0  0  0
   47.1181   33.1487   44.2224 N   0  0  0  0  0  0  0  0  0  0  0  0
   46.7034   32.9187   45.4947 C   0  0  0  0  0  0  0  0  0  0  0  0
   45.7244   33.6415   46.0141 N   0  0  0  0  0  0  0  0  0  0  0  0
   44.0803   35.3940   45.8256 O   0  0  0  0  0  0  0  0  0  0  0  0
   48.6483   35.5448   42.7765 H   0  0  0  0  0  0  0  0  0  0  0  0
   45.6241   33.0453   41.1340 H   0  0  0  0  0  0  0  0  0  0  0  0
   45.8381   32.7371   38.3444 H   0  0  0  0  0  0  0  0  0  0  0  0
   47.4033   33.5882   36.5419 H   0  0  0  0  0  0  0  0  0  0  0  0
   49.5784   35.8439   40.4615 H   0  0  0  0  0  0  0  0  0  0  0  0
   45.1033   35.6249   43.3514 H   0  0  0  0  0  0  0  0  0  0  0  0
   47.2215   32.1246   46.0276 H   0  0  0  0  0  0  0  0  0  0  0  0
   42.3651   37.5183   47.1283 Cl  0  0  0  0  0  0  0  0  0  0  0  0
   42.8907   36.0184   47.8433 C   0  0  0  0  0  0  0  0  0  0  0  0
   43.6755   35.1368   47.1286 C   0  0  0  0  0  0  0  0  0  0  0  0
   44.0263   33.9875   47.8004 C   0  0  0  0  0  0  0  0  0  0  0  0
   44.6502   33.2720   47.2515 H   0  0  0  0  0  0  0  0  0  0  0  0
   43.6610   33.6678   49.0912 C   0  0  0  0  0  0  0  0  0  0  0  0
   43.9957   32.7218   49.5347 H   0  0  0  0  0  0  0  0  0  0  0  0
   42.8755   34.5784   49.7693 C   0  0  0  0  0  0  0  0  0  0  0  0
   42.4950   35.7403   49.1518 C   0  0  0  0  0  0  0  0  0  0  0  0
   42.5763   34.3617   50.7675 H   0  0  0  0  0  0  0  0  0  0  0  0
   41.8788   36.4522   49.6874 H   0  0  0  0  0  0  0  0  0  0  0  0
  1  2  2  0
  2 12  1  0
  3  2  1  0
  4  3  2  0
  5  4  1  0
  6  7  2  0
  6  5  1  0
  7  8  1  0
  8  4  1  0
  8  9  2  0
  9  1  1  0
 10 16  1  0
 10 15  1  0
 11 10  2  0
 12 11  1  0
 12 13  2  0
 13 14  1  0
 14 15  2  0
  1 17  1  0
  3 18  1  0
  5 19  1  0
  6 20  1  0
  9 21  1  0
 11 22  1  0
 14 23  1  0
 24 25  1  0
 25 26  2  0
 26 27  1  0
 27 28  1  0
 27 29  2  0
 29 30  1  0
 29 31  1  0
 31 32  2  0
 32 25  1  0
 31 33  1  0
 32 34  1  0
 16 26  1  0
M  ISO  8  17  14  18  14  19   9  20  14  21  14  22  14  23  14  28  15
M  ISO  1  30  16
M  END
>  <DihAtoms>  (1) 
9,15,25,24

>  <DihDeg>  (1) 
-59.99875364468603

$$$$
