
     RDKit          3D

 38 40  0  0  0  0  0  0  0  0999 V2000
   46.1870   33.8430   44.7460 C   0  0  0  0  0  0  0  0  0  0  0  0
   45.1440   34.6560   45.0680 C   0  0  0  0  0  0  0  0  0  0  0  0
   44.6820   35.6900   44.3010 C   0  0  0  0  0  0  0  0  0  0  0  0
   45.3110   35.9440   43.1020 C   0  0  0  0  0  0  0  0  0  0  0  0
   46.3680   35.1500   42.7390 C   0  0  0  0  0  0  0  0  0  0  0  0
   46.8030   34.1100   43.5490 C   0  0  0  0  0  0  0  0  0  0  0  0
   47.2670   30.5020   45.8010 C   0  0  0  0  0  0  0  0  0  0  0  0
   47.4720   30.6400   47.1630 C   0  0  0  0  0  0  0  0  0  0  0  0
   47.2400   31.8830   47.7300 C   0  0  0  0  0  0  0  0  0  0  0  0
   46.8220   32.9380   46.9580 N   0  0  0  0  0  0  0  0  0  0  0  0
   46.6300   32.7590   45.6070 C   0  0  0  0  0  0  0  0  0  0  0  0
   46.8590   31.5510   45.0780 N   0  0  0  0  0  0  0  0  0  0  0  0
   47.8980   33.3950   43.0270 N   0  0  0  0  0  0  0  0  0  0  0  0
   49.4590   33.8650   42.5030 S   0  0  0  0  0  0  0  0  0  0  0  0
   49.4010   34.1550   41.0150 O   0  0  0  0  0  0  0  0  0  0  0  0
   49.9980   35.0730   43.1900 O   0  0  0  0  0  0  0  0  0  0  0  0
   50.4520   32.5170   42.6800 O   0  0  0  0  0  0  0  0  0  0  0  0
   48.4340   30.3320   42.1320 Cl  0  0  0  0  0  0  0  0  0  0  0  0
   49.8690   30.6670   41.1540 C   0  0  0  0  0  0  0  0  0  0  0  0
   50.6850   31.7210   41.5650 C   0  0  0  0  0  0  0  0  0  0  0  0
   51.7870   31.9320   40.7620 C   0  0  0  0  0  0  0  0  0  0  0  0
   52.1440   31.2260   39.6310 C   0  0  0  0  0  0  0  0  0  0  0  0
   51.2780   30.1860   39.2820 C   0  0  0  0  0  0  0  0  0  0  0  0
   50.1610   29.9200   40.0370 C   0  0  0  0  0  0  0  0  0  0  0  0
   44.6311   34.4661   46.0224 H   0  0  0  0  0  0  0  0  0  0  0  0
   43.8307   36.3025   44.6328 H   0  0  0  0  0  0  0  0  0  0  0  0
   44.9733   36.7642   42.4515 H   0  0  0  0  0  0  0  0  0  0  0  0
   46.8823   35.3411   41.7856 H   0  0  0  0  0  0  0  0  0  0  0  0
   47.4394   29.5310   45.3138 H   0  0  0  0  0  0  0  0  0  0  0  0
   47.8082   29.7904   47.7755 H   0  0  0  0  0  0  0  0  0  0  0  0
   47.3924   32.0256   48.8100 H   0  0  0  0  0  0  0  0  0  0  0  0
   47.7247   32.3831   42.9433 H   0  0  0  0  0  0  0  0  0  0  0  0
   49.2088   35.1158   40.8733 H   0  0  0  0  0  0  0  0  0  0  0  0
   49.9420   34.9476   44.1704 H   0  0  0  0  0  0  0  0  0  0  0  0
   52.4556   32.7546   41.0560 H   0  0  0  0  0  0  0  0  0  0  0  0
   53.0449   31.4646   39.0466 H   0  0  0  0  0  0  0  0  0  0  0  0
   51.4928   29.5739   38.3936 H   0  0  0  0  0  0  0  0  0  0  0  0
   49.4912   29.0982   39.7438 H   0  0  0  0  0  0  0  0  0  0  0  0
  1  2  2  0
  1 11  1  0
  3  2  1  0
  4  3  2  0
  5  4  1  0
  5  6  2  0
  6  1  1  0
  7  8  2  0
  8  9  1  0
 10  9  2  0
 11 10  1  0
 12 11  2  0
 12  7  1  0
 13  6  1  0
 14 17  1  0
 14 13  1  0
 14 16  1  0
 15 14  1  0
 19 20  2  0
 19 18  1  0
 20 17  1  0
 21 20  1  0
 22 21  2  0
 23 22  1  0
 23 24  2  0
 24 19  1  0
  2 25  1  0
  3 26  1  0
  4 27  1  0
  5 28  1  0
  7 29  1  0
  8 30  1  0
  9 31  1  0
 13 32  1  0
 15 33  1  0
 16 34  1  0
 21 35  1  0
 22 36  1  0
 23 37  1  0
 24 38  1  0
M  ISO  8  25  14  26  14  27  14  28  14  29  14  30  14  31  14  33   3
M  ISO  5  34   3  35  14  36  14  37  14  38  14
M  END
>  <minimizedAffinity>  (1) 
-5.86305332

>  <minimizedRMSD>  (1) 
2.54537296

$$$$
