
     RDKit          3D

 26 27  0  0  0  0  0  0  0  0999 V2000
   47.0450   32.4680   48.1610 O   0  0  0  0  0  0  0  0  0  0  0  0
   45.5730   32.2270   47.8030 P   0  0  1  0  0  0  0  0  0  0  0  0
   44.6820   31.7160   49.1250 O   0  0  0  0  0  0  0  0  0  0  0  0
   44.9930   33.6940   47.2000 O   0  0  0  0  0  0  0  0  0  0  0  0
   44.6760   35.8980   44.4320 C   0  0  0  0  0  0  0  0  0  0  0  0
   45.5320   35.3640   43.4410 C   0  0  0  0  0  0  0  0  0  0  0  0
   46.2240   34.1940   43.7930 C   0  0  0  0  0  0  0  0  0  0  0  0
   46.0430   33.6530   45.0250 N   0  0  0  0  0  0  0  0  0  0  0  0
   45.2090   34.2060   45.9370 C   0  0  0  0  0  0  0  0  0  0  0  0
   44.5330   35.3270   45.6310 N   0  0  0  0  0  0  0  0  0  0  0  0
   45.5580   30.9940   46.6500 O   0  0  0  0  0  0  0  0  0  0  0  0
   44.9910   28.4320   48.1310 Cl  0  0  0  0  0  0  0  0  0  0  0  0
   46.4590   28.8440   47.2890 C   0  0  0  0  0  0  0  0  0  0  0  0
   46.5850   30.0580   46.6500 C   0  0  0  0  0  0  0  0  0  0  0  0
   47.7920   30.2720   46.0170 C   0  0  0  0  0  0  0  0  0  0  0  0
   48.8390   29.3720   45.9910 C   0  0  0  0  0  0  0  0  0  0  0  0
   48.6680   28.1520   46.6530 C   0  0  0  0  0  0  0  0  0  0  0  0
   47.4690   27.8870   47.3070 C   0  0  0  0  0  0  0  0  0  0  0  0
   45.1457   31.9820   49.9583 H   0  0  0  0  0  0  0  0  0  0  0  0
   44.1093   36.8138   44.2080 H   0  0  0  0  0  0  0  0  0  0  0  0
   45.6486   35.8364   42.4545 H   0  0  0  0  0  0  0  0  0  0  0  0
   46.9085   33.7187   43.0750 H   0  0  0  0  0  0  0  0  0  0  0  0
   47.9305   31.2301   45.4946 H   0  0  0  0  0  0  0  0  0  0  0  0
   49.7770   29.6070   45.4667 H   0  0  0  0  0  0  0  0  0  0  0  0
   49.4767   27.4064   46.6566 H   0  0  0  0  0  0  0  0  0  0  0  0
   47.3211   26.9319   47.8323 H   0  0  0  0  0  0  0  0  0  0  0  0
  2  1  2  0
  2  3  1  0
  4  2  1  0
  5 10  2  0
  6  7  2  0
  6  5  1  0
  7  8  1  0
  8  9  2  0
  9  4  1  0
 10  9  1  0
 11 14  1  0
 11  2  1  0
 13 18  2  0
 13 12  1  0
 14 13  1  0
 15 14  2  0
 16 15  1  0
 16 17  2  0
 17 18  1  0
  3 19  1  0
  5 20  1  0
  6 21  1  0
  7 22  1  0
 15 23  1  0
 16 24  1  0
 17 25  1  0
 18 26  1  0
M  ISO  8  19   3  20  14  21  14  22  14  23  14  24  14  25  14  26  14
M  END
>  <minimizedAffinity>  (1) 
-4.62892675

>  <minimizedRMSD>  (1) 
3.12721062

$$$$
