
     RDKit          3D

 43 46  0  0  0  0  0  0  0  0999 V2000
   45.6730   34.6600   44.2080 C   0  0  0  0  0  0  0  0  0  0  0  0
   46.7380   33.9400   43.6390 C   0  0  0  0  0  0  0  0  0  0  0  0
   47.3090   32.8810   44.3710 C   0  0  0  0  0  0  0  0  0  0  0  0
   46.7950   32.6190   45.5880 N   0  0  0  0  0  0  0  0  0  0  0  0
   45.7690   33.3270   46.1150 C   0  0  0  0  0  0  0  0  0  0  0  0
   45.2240   34.3310   45.4260 N   0  0  0  0  0  0  0  0  0  0  0  0
   45.0950   35.7220   43.4760 N   0  0  0  0  0  0  0  0  0  0  0  0
   47.2750   34.2460   42.3250 C   0  0  0  0  0  0  0  0  0  0  0  0
   48.2780   35.1380   42.0060 C   0  0  0  0  0  0  0  0  0  0  0  0
   48.6800   35.3200   40.6990 C   0  0  0  0  0  0  0  0  0  0  0  0
   48.0820   34.6060   39.6530 C   0  0  0  0  0  0  0  0  0  0  0  0
   48.5240   34.8380   38.4120 N   0  0  0  0  0  0  0  0  0  0  0  0
   47.9610   34.1620   37.3790 C   0  0  0  0  0  0  0  0  0  0  0  0
   46.9550   33.2640   37.6760 C   0  0  0  0  0  0  0  0  0  0  0  0
   46.4880   33.0130   38.9500 C   0  0  0  0  0  0  0  0  0  0  0  0
   47.0810   33.7170   39.9800 C   0  0  0  0  0  0  0  0  0  0  0  0
   46.6810   33.5380   41.2990 C   0  0  0  0  0  0  0  0  0  0  0  0
   45.2760   32.9570   47.4810 C   0  0  0  0  0  0  0  0  0  0  0  0
   46.3860   32.1840   48.2040 C   0  0  0  0  0  0  0  0  0  0  0  0
   48.9220   30.6170   48.2180 Cl  0  0  0  0  0  0  0  0  0  0  0  0
   47.3280   29.9780   47.8860 C   0  0  0  0  0  0  0  0  0  0  0  0
   46.1620   30.7490   47.8940 C   0  0  0  0  0  0  0  0  0  0  0  0
   44.9180   30.1950   47.6260 C   0  0  0  0  0  0  0  0  0  0  0  0
   44.7850   28.8400   47.3380 C   0  0  0  0  0  0  0  0  0  0  0  0
   45.9680   28.1350   47.3460 C   0  0  0  0  0  0  0  0  0  0  0  0
   47.2310   28.6100   47.6000 C   0  0  0  0  0  0  0  0  0  0  0  0
   48.1431   32.2903   43.9643 H   0  0  0  0  0  0  0  0  0  0  0  0
   45.4554   35.9588   42.5406 H   0  0  0  0  0  0  0  0  0  0  0  0
   44.3134   36.2591   43.8780 H   0  0  0  0  0  0  0  0  0  0  0  0
   48.7651   35.7135   42.8070 H   0  0  0  0  0  0  0  0  0  0  0  0
   49.4831   36.0374   40.4747 H   0  0  0  0  0  0  0  0  0  0  0  0
   48.2938   34.3234   36.3430 H   0  0  0  0  0  0  0  0  0  0  0  0
   46.4957   32.7125   36.8424 H   0  0  0  0  0  0  0  0  0  0  0  0
   45.6825   32.2874   39.1363 H   0  0  0  0  0  0  0  0  0  0  0  0
   45.8789   32.8213   41.5291 H   0  0  0  0  0  0  0  0  0  0  0  0
   45.0291   33.8679   48.0461 H   0  0  0  0  0  0  0  0  0  0  0  0
   44.3728   32.3343   47.4007 H   0  0  0  0  0  0  0  0  0  0  0  0
   47.3732   32.5034   47.8386 H   0  0  0  0  0  0  0  0  0  0  0  0
   46.3615   32.3681   49.2882 H   0  0  0  0  0  0  0  0  0  0  0  0
   44.0243   30.8362   47.6415 H   0  0  0  0  0  0  0  0  0  0  0  0
   43.8141   28.3704   47.1216 H   0  0  0  0  0  0  0  0  0  0  0  0
   45.8918   27.0608   47.1216 H   0  0  0  0  0  0  0  0  0  0  0  0
   48.1145   27.9550   47.5801 H   0  0  0  0  0  0  0  0  0  0  0  0
  1  6  2  0
  2  1  1  0
  2  3  2  0
  3  4  1  0
  4  5  2  0
  5 18  1  0
  6  5  1  0
  7  1  1  0
  8  2  1  0
  9  8  2  0
 10  9  1  0
 11 16  1  0
 11 10  2  0
 12 11  1  0
 13 14  1  0
 13 12  2  0
 14 15  2  0
 15 16  1  0
 16 17  2  0
 17  8  1  0
 18 19  1  0
 21 22  2  0
 21 20  1  0
 22 19  1  0
 23 22  1  0
 24 25  1  0
 24 23  2  0
 25 26  2  0
 26 21  1  0
  3 27  1  0
  7 28  1  0
  7 29  1  0
  9 30  1  0
 10 31  1  0
 13 32  1  0
 14 33  1  0
 15 34  1  0
 17 35  1  0
 18 36  1  0
 18 37  1  0
 19 38  1  0
 19 39  1  0
 23 40  1  0
 24 41  1  0
 25 42  1  0
 26 43  1  0
M  ISO  8  27  14  30  14  31  14  32  14  33  14  34  14  35  14  36   8
M  ISO  7  37   8  38   8  39   8  40  14  41  14  42  14  43  14
M  END
>  <minimizedAffinity>  (1) 
-6.630445

>  <minimizedRMSD>  (1) 
2.80775332

$$$$
