
     RDKit          3D

 36 38  0  0  0  0  0  0  0  0999 V2000
   45.2720   36.1619   43.1674 C   0  0  0  0  0  0  0  0  0  0  0  0
   45.8654   34.9098   42.9182 C   0  0  0  0  0  0  0  0  0  0  0  0
   45.8244   33.9492   43.9025 C   0  0  0  0  0  0  0  0  0  0  0  0
   45.2223   34.2292   45.0702 N   0  0  0  0  0  0  0  0  0  0  0  0
   44.6470   35.4376   45.3172 C   0  0  0  0  0  0  0  0  0  0  0  0
   44.6847   36.3758   44.3614 N   0  0  0  0  0  0  0  0  0  0  0  0
   46.4427   32.6553   43.6325 C   0  0  0  0  0  0  0  0  0  0  0  0
   45.6674   31.5720   43.2953 C   0  0  0  0  0  0  0  0  0  0  0  0
   46.2840   30.3713   43.0484 C   0  0  0  0  0  0  0  0  0  0  0  0
   47.6542   30.1878   43.1204 C   0  0  0  0  0  0  0  0  0  0  0  0
   48.3824   31.3112   43.4636 C   0  0  0  0  0  0  0  0  0  0  0  0
   47.7636   32.4783   43.7019 N   0  0  0  0  0  0  0  0  0  0  0  0
   46.4895   34.6892   41.6436 C   0  0  0  0  0  0  0  0  0  0  0  0
   47.6705   35.1294   41.4664 O   0  0  0  0  0  0  0  0  0  0  0  0
   45.2891   36.9429   42.4057 H   0  0  0  0  0  0  0  0  0  0  0  0
   44.1628   35.6357   46.2810 H   0  0  0  0  0  0  0  0  0  0  0  0
   44.5945   31.6159   43.2140 H   0  0  0  0  0  0  0  0  0  0  0  0
   45.7275   29.4605   42.7731 H   0  0  0  0  0  0  0  0  0  0  0  0
   48.1882   29.2735   42.9380 H   0  0  0  0  0  0  0  0  0  0  0  0
   49.4677   31.3456   43.5656 H   0  0  0  0  0  0  0  0  0  0  0  0
   45.7452   33.9819   40.6349 N   0  0  0  0  0  0  0  0  0  0  0  0
   45.1826   32.6454   40.6224 C   0  0  0  0  0  0  0  0  0  0  0  0
   43.6982   32.7153   40.2418 C   0  0  0  0  0  0  0  0  0  0  0  0
   43.5817   33.2209   38.8175 C   0  0  0  0  0  0  0  0  0  0  0  0
   42.7446   33.9560   38.7493 H   0  0  0  0  0  0  0  0  0  0  0  0
   44.9023   33.8142   38.3725 C   0  0  0  0  0  0  0  0  0  0  0  0
   45.5021   34.7127   39.4054 C   0  0  0  0  0  0  0  0  0  0  0  0
   45.6749   32.0014   39.8896 H   0  0  0  0  0  0  0  0  0  0  0  0
   45.2047   32.1792   41.6218 H   0  0  0  0  0  0  0  0  0  0  0  0
   43.1445   33.3862   40.9304 H   0  0  0  0  0  0  0  0  0  0  0  0
   43.3307   31.6689   40.3375 H   0  0  0  0  0  0  0  0  0  0  0  0
   43.2952   32.3530   38.1900 H   0  0  0  0  0  0  0  0  0  0  0  0
   44.6526   34.4366   37.4733 H   0  0  0  0  0  0  0  0  0  0  0  0
   45.5842   32.9909   38.0983 H   0  0  0  0  0  0  0  0  0  0  0  0
   46.4516   35.1089   38.9624 H   0  0  0  0  0  0  0  0  0  0  0  0
   44.8085   35.5658   39.5861 H   0  0  0  0  0  0  0  0  0  0  0  0
  1  6  2  0
  2  1  1  0
  2  3  2  0
  3  4  1  0
  4  5  2  0
  6  5  1  0
  7 12  1  0
  7  3  1  0
  8  7  2  0
  9 10  2  0
  9  8  1  0
 10 11  1  0
 11 12  2  0
 13  2  1  0
 14 13  2  0
  1 15  1  0
  5 16  1  0
  8 17  1  0
  9 18  1  0
 10 19  1  0
 11 20  1  0
 21 22  1  0
 22 23  1  0
 23 24  1  0
 24 25  1  0
 24 26  1  0
 26 27  1  0
 27 21  1  0
 22 28  1  0
 22 29  1  0
 23 30  1  0
 23 31  1  0
 24 32  1  0
 26 33  1  0
 26 34  1  0
 27 35  1  0
 27 36  1  0
 13 21  1  0
M  ISO  7  15  14  16  14  17  14  18  14  19  14  20  14  25  15
M  END
>  <DihAtoms>  (1) 
1,12,20,21

>  <DihDeg>  (1) 
-0.00424746044924652

$$$$
