
     RDKit          3D

 35 37  0  0  0  0  0  0  0  0999 V2000
   46.0760   34.1501   41.0039 C   0  0  0  0  0  0  0  0  0  0  0  0
   46.6123   34.8273   42.1089 C   0  0  0  0  0  0  0  0  0  0  0  0
   47.9390   35.2753   41.9862 C   0  0  0  0  0  0  0  0  0  0  0  0
   48.6117   35.0286   40.8208 N   0  0  0  0  0  0  0  0  0  0  0  0
   48.0510   34.3821   39.8085 C   0  0  0  0  0  0  0  0  0  0  0  0
   46.7809   33.9377   39.8901 N   0  0  0  0  0  0  0  0  0  0  0  0
   45.8119   35.0352   43.2962 C   0  0  0  0  0  0  0  0  0  0  0  0
   45.0495   36.1800   43.4963 C   0  0  0  0  0  0  0  0  0  0  0  0
   44.4640   35.9672   44.7233 C   0  0  0  0  0  0  0  0  0  0  0  0
   44.8429   34.7762   45.2354 N   0  0  0  0  0  0  0  0  0  0  0  0
   45.6526   34.2430   44.3518 N   0  0  0  0  0  0  0  0  0  0  0  0
   44.7776   33.7011   41.0992 O   0  0  0  0  0  0  0  0  0  0  0  0
   43.6961   34.1972   40.4212 C   0  0  0  0  0  0  0  0  0  0  0  0
   43.2445   35.3877   40.4211 O   0  0  0  0  0  0  0  0  0  0  0  0
   48.3509   35.7986   42.8423 H   0  0  0  0  0  0  0  0  0  0  0  0
   48.5763   34.1893   38.8982 H   0  0  0  0  0  0  0  0  0  0  0  0
   44.9464   37.0248   42.8450 H   0  0  0  0  0  0  0  0  0  0  0  0
   43.7882   36.6279   45.2487 H   0  0  0  0  0  0  0  0  0  0  0  0
   44.5611   34.3507   46.1436 H   0  0  0  0  0  0  0  0  0  0  0  0
   42.7449   33.5758   39.5212 N   0  0  0  0  0  0  0  0  0  0  0  0
   42.7420   32.1268   39.5415 C   0  0  0  0  0  0  0  0  0  0  0  0
   43.5598   31.7099   38.3125 C   0  0  0  0  0  0  0  0  0  0  0  0
   43.2540   32.7354   37.2180 C   0  0  0  0  0  0  0  0  0  0  0  0
   44.0041   33.5320   37.3116 H   0  0  0  0  0  0  0  0  0  0  0  0
   41.8466   33.2976   37.3601 C   0  0  0  0  0  0  0  0  0  0  0  0
   41.7960   34.1984   38.6024 C   0  0  0  0  0  0  0  0  0  0  0  0
   43.0918   31.6761   40.4675 H   0  0  0  0  0  0  0  0  0  0  0  0
   41.6815   31.7723   39.3812 H   0  0  0  0  0  0  0  0  0  0  0  0
   43.2423   30.6976   38.0003 H   0  0  0  0  0  0  0  0  0  0  0  0
   44.6222   31.7711   38.6338 H   0  0  0  0  0  0  0  0  0  0  0  0
   43.3387   32.2145   36.2550 H   0  0  0  0  0  0  0  0  0  0  0  0
   41.1408   32.4540   37.4443 H   0  0  0  0  0  0  0  0  0  0  0  0
   41.6068   33.8369   36.4449 H   0  0  0  0  0  0  0  0  0  0  0  0
   42.0321   35.2395   38.3626 H   0  0  0  0  0  0  0  0  0  0  0  0
   40.7775   34.0508   39.0271 H   0  0  0  0  0  0  0  0  0  0  0  0
  1 12  1  0
  1  2  1  0
  2  7  1  0
  3  2  2  0
  4  3  1  0
  5  6  1  0
  5  4  2  0
  6  1  2  0
  7  8  1  0
  7 11  2  0
  8  9  2  0
  9 10  1  0
 11 10  1  0
 13 14  2  0
 13 12  1  0
  3 15  1  0
  5 16  1  0
  8 17  1  0
  9 18  1  0
 10 19  1  0
 20 21  1  0
 21 22  1  0
 22 23  1  0
 23 24  1  0
 23 25  1  0
 25 26  1  0
 26 20  1  0
 21 27  1  0
 21 28  1  0
 22 29  1  0
 22 30  1  0
 23 31  1  0
 25 32  1  0
 25 33  1  0
 26 34  1  0
 26 35  1  0
 13 20  1  0
M  ISO  6  15  14  16  14  17  14  18  14  19   9  24  15
M  END
>  <DihAtoms>  (1) 
13,12,19,20

>  <DihDeg>  (1) 
0.04411613907032106

$$$$
