
     RDKit          3D

 35 37  0  0  0  0  0  0  0  0999 V2000
   46.0760   34.1501   41.0039 C   0  0  0  0  0  0  0  0  0  0  0  0
   46.6123   34.8273   42.1089 C   0  0  0  0  0  0  0  0  0  0  0  0
   47.9390   35.2753   41.9862 C   0  0  0  0  0  0  0  0  0  0  0  0
   48.6117   35.0286   40.8208 N   0  0  0  0  0  0  0  0  0  0  0  0
   48.0510   34.3821   39.8085 C   0  0  0  0  0  0  0  0  0  0  0  0
   46.7809   33.9377   39.8901 N   0  0  0  0  0  0  0  0  0  0  0  0
   45.8119   35.0352   43.2962 C   0  0  0  0  0  0  0  0  0  0  0  0
   45.0495   36.1800   43.4963 C   0  0  0  0  0  0  0  0  0  0  0  0
   44.4640   35.9672   44.7233 C   0  0  0  0  0  0  0  0  0  0  0  0
   44.8429   34.7762   45.2354 N   0  0  0  0  0  0  0  0  0  0  0  0
   45.6526   34.2430   44.3518 N   0  0  0  0  0  0  0  0  0  0  0  0
   44.7776   33.7011   41.0992 O   0  0  0  0  0  0  0  0  0  0  0  0
   43.6961   34.1972   40.4212 C   0  0  0  0  0  0  0  0  0  0  0  0
   43.2445   35.3877   40.4211 O   0  0  0  0  0  0  0  0  0  0  0  0
   48.3509   35.7986   42.8423 H   0  0  0  0  0  0  0  0  0  0  0  0
   48.5763   34.1893   38.8982 H   0  0  0  0  0  0  0  0  0  0  0  0
   44.9464   37.0248   42.8450 H   0  0  0  0  0  0  0  0  0  0  0  0
   43.7882   36.6279   45.2487 H   0  0  0  0  0  0  0  0  0  0  0  0
   44.5611   34.3507   46.1436 H   0  0  0  0  0  0  0  0  0  0  0  0
   42.7449   33.5758   39.5212 N   0  0  0  0  0  0  0  0  0  0  0  0
   43.2678   32.4638   38.7530 C   0  0  0  0  0  0  0  0  0  0  0  0
   43.5787   33.0475   37.3690 C   0  0  0  0  0  0  0  0  0  0  0  0
   42.4958   34.0910   37.0834 C   0  0  0  0  0  0  0  0  0  0  0  0
   42.8762   35.0522   37.4541 H   0  0  0  0  0  0  0  0  0  0  0  0
   41.1825   33.7300   37.7633 C   0  0  0  0  0  0  0  0  0  0  0  0
   41.3440   33.9095   39.2796 C   0  0  0  0  0  0  0  0  0  0  0  0
   44.1113   31.9459   39.2038 H   0  0  0  0  0  0  0  0  0  0  0  0
   42.4429   31.7029   38.6243 H   0  0  0  0  0  0  0  0  0  0  0  0
   43.5433   32.2322   36.6226 H   0  0  0  0  0  0  0  0  0  0  0  0
   44.5779   33.5241   37.4703 H   0  0  0  0  0  0  0  0  0  0  0  0
   42.3453   34.1105   35.9959 H   0  0  0  0  0  0  0  0  0  0  0  0
   40.9309   32.6875   37.5049 H   0  0  0  0  0  0  0  0  0  0  0  0
   40.4038   34.3686   37.3493 H   0  0  0  0  0  0  0  0  0  0  0  0
   41.0681   34.9174   39.6039 H   0  0  0  0  0  0  0  0  0  0  0  0
   40.7274   33.1021   39.7350 H   0  0  0  0  0  0  0  0  0  0  0  0
  1 12  1  0
  1  2  1  0
  2  7  1  0
  3  2  2  0
  4  3  1  0
  5  6  1  0
  5  4  2  0
  6  1  2  0
  7  8  1  0
  7 11  2  0
  8  9  2  0
  9 10  1  0
 11 10  1  0
 13 14  2  0
 13 12  1  0
  3 15  1  0
  5 16  1  0
  8 17  1  0
  9 18  1  0
 10 19  1  0
 20 21  1  0
 21 22  1  0
 22 23  1  0
 23 24  1  0
 23 25  1  0
 25 26  1  0
 26 20  1  0
 21 27  1  0
 21 28  1  0
 22 29  1  0
 22 30  1  0
 23 31  1  0
 25 32  1  0
 25 33  1  0
 26 34  1  0
 26 35  1  0
 13 20  1  0
M  ISO  6  15  14  16  14  17  14  18  14  19   9  24  15
M  END
>  <DihAtoms>  (1) 
13,12,19,20

>  <DihDeg>  (1) 
0.04411613907032106

$$$$
