
     RDKit          3D

 31 32  0  0  0  0  0  0  0  0999 V2000
   45.3020   34.5572   45.0311 C   0  0  0  0  0  0  0  0  0  0  0  0
   45.2727   33.9351   46.2643 C   0  0  0  0  0  0  0  0  0  0  0  0
   46.1685   32.9060   46.4800 C   0  0  0  0  0  0  0  0  0  0  0  0
   47.0012   32.5841   45.4805 N   0  0  0  0  0  0  0  0  0  0  0  0
   47.0129   33.2022   44.2888 C   0  0  0  0  0  0  0  0  0  0  0  0
   46.1546   34.2103   44.0403 N   0  0  0  0  0  0  0  0  0  0  0  0
   43.9766   35.3850   43.2952 C   0  0  0  0  0  0  0  0  0  0  0  0
   44.4097   34.2908   42.8427 O   0  0  0  0  0  0  0  0  0  0  0  0
   44.4444   35.6542   44.6133 N   0  0  0  0  0  0  0  0  0  0  0  0
   44.3113   34.4261   47.1928 N   0  0  0  0  0  0  0  0  0  0  0  0
   46.1277   32.4338   47.4520 H   0  0  0  0  0  0  0  0  0  0  0  0
   47.7261   32.8797   43.5209 H   0  0  0  0  0  0  0  0  0  0  0  0
   44.1756   36.5061   45.1207 H   0  0  0  0  0  0  0  0  0  0  0  0
   44.6674   34.7571   48.1170 H   0  0  0  0  0  0  0  0  0  0  0  0
   43.2799   34.4996   47.0682 H   0  0  0  0  0  0  0  0  0  0  0  0
   43.1145   36.2827   42.6019 N   0  0  0  0  0  0  0  0  0  0  0  0
   43.6442   37.3281   41.7768 C   0  0  0  0  0  0  0  0  0  0  0  0
   42.7204   37.4106   40.5568 C   0  0  0  0  0  0  0  0  0  0  0  0
   41.3332   37.8245   40.9613 C   0  0  0  0  0  0  0  0  0  0  0  0
   40.6129   37.4426   40.2052 H   0  0  0  0  0  0  0  0  0  0  0  0
   40.9357   37.3697   42.3290 C   0  0  0  0  0  0  0  0  0  0  0  0
   41.6844   36.1013   42.7608 C   0  0  0  0  0  0  0  0  0  0  0  0
   44.6706   37.1466   41.4302 H   0  0  0  0  0  0  0  0  0  0  0  0
   43.5870   38.3128   42.3085 H   0  0  0  0  0  0  0  0  0  0  0  0
   42.6793   36.3682   40.1370 H   0  0  0  0  0  0  0  0  0  0  0  0
   43.1434   38.0412   39.7716 H   0  0  0  0  0  0  0  0  0  0  0  0
   41.3266   38.9543   40.9609 H   0  0  0  0  0  0  0  0  0  0  0  0
   39.8635   37.0582   42.3220 H   0  0  0  0  0  0  0  0  0  0  0  0
   41.0723   38.1214   43.1288 H   0  0  0  0  0  0  0  0  0  0  0  0
   41.3989   35.2403   42.1302 H   0  0  0  0  0  0  0  0  0  0  0  0
   41.3958   35.9375   43.8237 H   0  0  0  0  0  0  0  0  0  0  0  0
  1  2  2  0
  2  3  1  0
  2 10  1  0
  4  3  2  0
  5  4  1  0
  6  5  2  0
  6  1  1  0
  7  9  1  0
  8  7  2  0
  9  1  1  0
  3 11  1  0
  5 12  1  0
  9 13  1  0
 10 14  1  0
 10 15  1  0
 16 17  1  0
 17 18  1  0
 18 19  1  0
 19 20  1  0
 19 21  1  0
 21 22  1  0
 22 16  1  0
 17 23  1  0
 17 24  1  0
 18 25  1  0
 18 26  1  0
 19 27  1  0
 21 28  1  0
 21 29  1  0
 22 30  1  0
 22 31  1  0
  7 16  1  0
M  ISO  3  11  14  12  14  20  15
M  END
>  <DihAtoms>  (1) 
8,6,15,16

>  <DihDeg>  (1) 
-179.99861045120247

$$$$
