
     RDKit          3D

 31 32  0  0  0  0  0  0  0  0999 V2000
   45.3020   34.5572   45.0311 C   0  0  0  0  0  0  0  0  0  0  0  0
   45.2727   33.9351   46.2643 C   0  0  0  0  0  0  0  0  0  0  0  0
   46.1685   32.9060   46.4800 C   0  0  0  0  0  0  0  0  0  0  0  0
   47.0012   32.5841   45.4805 N   0  0  0  0  0  0  0  0  0  0  0  0
   47.0129   33.2022   44.2888 C   0  0  0  0  0  0  0  0  0  0  0  0
   46.1546   34.2103   44.0403 N   0  0  0  0  0  0  0  0  0  0  0  0
   43.9766   35.3850   43.2952 C   0  0  0  0  0  0  0  0  0  0  0  0
   44.4097   34.2908   42.8427 O   0  0  0  0  0  0  0  0  0  0  0  0
   44.4444   35.6542   44.6133 N   0  0  0  0  0  0  0  0  0  0  0  0
   44.3113   34.4261   47.1928 N   0  0  0  0  0  0  0  0  0  0  0  0
   46.1277   32.4338   47.4520 H   0  0  0  0  0  0  0  0  0  0  0  0
   47.7261   32.8797   43.5209 H   0  0  0  0  0  0  0  0  0  0  0  0
   44.1756   36.5061   45.1207 H   0  0  0  0  0  0  0  0  0  0  0  0
   44.6674   34.7571   48.1170 H   0  0  0  0  0  0  0  0  0  0  0  0
   43.2799   34.4996   47.0682 H   0  0  0  0  0  0  0  0  0  0  0  0
   43.1145   36.2827   42.6019 N   0  0  0  0  0  0  0  0  0  0  0  0
   41.8149   35.8686   42.1616 C   0  0  0  0  0  0  0  0  0  0  0  0
   40.8904   37.0692   42.3903 C   0  0  0  0  0  0  0  0  0  0  0  0
   41.2998   38.2329   41.5314 C   0  0  0  0  0  0  0  0  0  0  0  0
   40.9566   39.1722   42.0173 H   0  0  0  0  0  0  0  0  0  0  0  0
   42.7679   38.3005   41.2560 C   0  0  0  0  0  0  0  0  0  0  0  0
   43.5981   37.6280   42.3579 C   0  0  0  0  0  0  0  0  0  0  0  0
   41.4127   35.0047   42.7080 H   0  0  0  0  0  0  0  0  0  0  0  0
   41.8241   35.6566   41.0613 H   0  0  0  0  0  0  0  0  0  0  0  0
   41.0230   37.3521   43.4705 H   0  0  0  0  0  0  0  0  0  0  0  0
   39.8391   36.7981   42.2708 H   0  0  0  0  0  0  0  0  0  0  0  0
   40.7718   38.0978   40.5419 H   0  0  0  0  0  0  0  0  0  0  0  0
   43.1036   39.3651   41.2801 H   0  0  0  0  0  0  0  0  0  0  0  0
   43.0825   37.8604   40.2912 H   0  0  0  0  0  0  0  0  0  0  0  0
   43.5083   38.1784   43.3116 H   0  0  0  0  0  0  0  0  0  0  0  0
   44.6465   37.6375   41.9827 H   0  0  0  0  0  0  0  0  0  0  0  0
  1  2  2  0
  2  3  1  0
  2 10  1  0
  4  3  2  0
  5  4  1  0
  6  5  2  0
  6  1  1  0
  7  9  1  0
  8  7  2  0
  9  1  1  0
  3 11  1  0
  5 12  1  0
  9 13  1  0
 10 14  1  0
 10 15  1  0
 16 17  1  0
 17 18  1  0
 18 19  1  0
 19 20  1  0
 19 21  1  0
 21 22  1  0
 22 16  1  0
 17 23  1  0
 17 24  1  0
 18 25  1  0
 18 26  1  0
 19 27  1  0
 21 28  1  0
 21 29  1  0
 22 30  1  0
 22 31  1  0
  7 16  1  0
M  ISO  3  11  14  12  14  20  15
M  END
>  <DihAtoms>  (1) 
8,6,15,16

>  <DihDeg>  (1) 
-179.99861045120247

$$$$
