
     RDKit          3D

 31 32  0  0  0  0  0  0  0  0999 V2000
   45.3020   34.5572   45.0311 C   0  0  0  0  0  0  0  0  0  0  0  0
   45.2727   33.9351   46.2643 C   0  0  0  0  0  0  0  0  0  0  0  0
   46.1685   32.9060   46.4800 C   0  0  0  0  0  0  0  0  0  0  0  0
   47.0012   32.5841   45.4805 N   0  0  0  0  0  0  0  0  0  0  0  0
   47.0129   33.2022   44.2888 C   0  0  0  0  0  0  0  0  0  0  0  0
   46.1546   34.2103   44.0403 N   0  0  0  0  0  0  0  0  0  0  0  0
   43.9766   35.3850   43.2952 C   0  0  0  0  0  0  0  0  0  0  0  0
   44.4097   34.2908   42.8427 O   0  0  0  0  0  0  0  0  0  0  0  0
   44.4444   35.6542   44.6133 N   0  0  0  0  0  0  0  0  0  0  0  0
   44.3113   34.4261   47.1928 N   0  0  0  0  0  0  0  0  0  0  0  0
   46.1277   32.4338   47.4520 H   0  0  0  0  0  0  0  0  0  0  0  0
   47.7261   32.8797   43.5209 H   0  0  0  0  0  0  0  0  0  0  0  0
   44.1756   36.5061   45.1207 H   0  0  0  0  0  0  0  0  0  0  0  0
   44.6674   34.7571   48.1170 H   0  0  0  0  0  0  0  0  0  0  0  0
   43.2799   34.4996   47.0682 H   0  0  0  0  0  0  0  0  0  0  0  0
   43.1145   36.2827   42.6019 N   0  0  0  0  0  0  0  0  0  0  0  0
   43.1458   36.3828   41.1725 C   0  0  0  0  0  0  0  0  0  0  0  0
   41.6885   36.5536   40.7302 C   0  0  0  0  0  0  0  0  0  0  0  0
   41.1167   37.8418   41.2527 C   0  0  0  0  0  0  0  0  0  0  0  0
   40.0127   37.7356   41.3309 H   0  0  0  0  0  0  0  0  0  0  0  0
   41.6880   38.2744   42.5650 C   0  0  0  0  0  0  0  0  0  0  0  0
   42.2058   37.0902   43.3928 C   0  0  0  0  0  0  0  0  0  0  0  0
   43.5649   35.4993   40.6721 H   0  0  0  0  0  0  0  0  0  0  0  0
   43.7025   37.3028   40.8571 H   0  0  0  0  0  0  0  0  0  0  0  0
   41.1290   35.6950   41.1931 H   0  0  0  0  0  0  0  0  0  0  0  0
   41.5790   36.4441   39.6490 H   0  0  0  0  0  0  0  0  0  0  0  0
   41.3728   38.6348   40.4899 H   0  0  0  0  0  0  0  0  0  0  0  0
   40.8789   38.7105   43.1989 H   0  0  0  0  0  0  0  0  0  0  0  0
   42.5090   39.0124   42.4960 H   0  0  0  0  0  0  0  0  0  0  0  0
   41.3752   36.4298   43.6999 H   0  0  0  0  0  0  0  0  0  0  0  0
   42.7074   37.5465   44.2761 H   0  0  0  0  0  0  0  0  0  0  0  0
  1  2  2  0
  2  3  1  0
  2 10  1  0
  4  3  2  0
  5  4  1  0
  6  5  2  0
  6  1  1  0
  7  9  1  0
  8  7  2  0
  9  1  1  0
  3 11  1  0
  5 12  1  0
  9 13  1  0
 10 14  1  0
 10 15  1  0
 16 17  1  0
 17 18  1  0
 18 19  1  0
 19 20  1  0
 19 21  1  0
 21 22  1  0
 22 16  1  0
 17 23  1  0
 17 24  1  0
 18 25  1  0
 18 26  1  0
 19 27  1  0
 21 28  1  0
 21 29  1  0
 22 30  1  0
 22 31  1  0
  7 16  1  0
M  ISO  3  11  14  12  14  20  15
M  END
>  <DihAtoms>  (1) 
8,6,15,16

>  <DihDeg>  (1) 
-179.99861045120247

$$$$
