
     RDKit          3D

 31 32  0  0  0  0  0  0  0  0999 V2000
   45.3020   34.5572   45.0311 C   0  0  0  0  0  0  0  0  0  0  0  0
   45.2727   33.9351   46.2643 C   0  0  0  0  0  0  0  0  0  0  0  0
   46.1685   32.9060   46.4800 C   0  0  0  0  0  0  0  0  0  0  0  0
   47.0012   32.5841   45.4805 N   0  0  0  0  0  0  0  0  0  0  0  0
   47.0129   33.2022   44.2888 C   0  0  0  0  0  0  0  0  0  0  0  0
   46.1546   34.2103   44.0403 N   0  0  0  0  0  0  0  0  0  0  0  0
   43.9766   35.3850   43.2952 C   0  0  0  0  0  0  0  0  0  0  0  0
   44.4097   34.2908   42.8427 O   0  0  0  0  0  0  0  0  0  0  0  0
   44.4444   35.6542   44.6133 N   0  0  0  0  0  0  0  0  0  0  0  0
   44.3113   34.4261   47.1928 N   0  0  0  0  0  0  0  0  0  0  0  0
   46.1277   32.4338   47.4520 H   0  0  0  0  0  0  0  0  0  0  0  0
   47.7261   32.8797   43.5209 H   0  0  0  0  0  0  0  0  0  0  0  0
   44.1756   36.5061   45.1207 H   0  0  0  0  0  0  0  0  0  0  0  0
   44.6674   34.7571   48.1170 H   0  0  0  0  0  0  0  0  0  0  0  0
   43.2799   34.4996   47.0682 H   0  0  0  0  0  0  0  0  0  0  0  0
   43.1145   36.2827   42.6019 N   0  0  0  0  0  0  0  0  0  0  0  0
   43.6138   37.5043   42.0427 C   0  0  0  0  0  0  0  0  0  0  0  0
   42.8852   37.6846   40.7066 C   0  0  0  0  0  0  0  0  0  0  0  0
   41.4085   37.8657   40.9209 C   0  0  0  0  0  0  0  0  0  0  0  0
   40.8726   37.5366   40.0040 H   0  0  0  0  0  0  0  0  0  0  0  0
   40.8735   37.1468   42.1178 C   0  0  0  0  0  0  0  0  0  0  0  0
   41.7162   35.9170   42.4825 C   0  0  0  0  0  0  0  0  0  0  0  0
   44.6963   37.5004   41.8563 H   0  0  0  0  0  0  0  0  0  0  0  0
   43.3396   38.3735   42.6946 H   0  0  0  0  0  0  0  0  0  0  0  0
   43.0541   36.7291   40.1383 H   0  0  0  0  0  0  0  0  0  0  0  0
   43.3316   38.4812   40.1073 H   0  0  0  0  0  0  0  0  0  0  0  0
   41.2452   38.9716   41.0846 H   0  0  0  0  0  0  0  0  0  0  0  0
   39.8688   36.7218   41.8798 H   0  0  0  0  0  0  0  0  0  0  0  0
   40.7803   37.7649   43.0304 H   0  0  0  0  0  0  0  0  0  0  0  0
   41.6530   35.1467   41.6931 H   0  0  0  0  0  0  0  0  0  0  0  0
   41.2939   35.5464   43.4439 H   0  0  0  0  0  0  0  0  0  0  0  0
  1  2  2  0
  2  3  1  0
  2 10  1  0
  4  3  2  0
  5  4  1  0
  6  5  2  0
  6  1  1  0
  7  9  1  0
  8  7  2  0
  9  1  1  0
  3 11  1  0
  5 12  1  0
  9 13  1  0
 10 14  1  0
 10 15  1  0
 16 17  1  0
 17 18  1  0
 18 19  1  0
 19 20  1  0
 19 21  1  0
 21 22  1  0
 22 16  1  0
 17 23  1  0
 17 24  1  0
 18 25  1  0
 18 26  1  0
 19 27  1  0
 21 28  1  0
 21 29  1  0
 22 30  1  0
 22 31  1  0
  7 16  1  0
M  ISO  3  11  14  12  14  20  15
M  END
>  <DihAtoms>  (1) 
8,6,15,16

>  <DihDeg>  (1) 
-179.99861045120247

$$$$
