
     RDKit          3D

 31 32  0  0  0  0  0  0  0  0999 V2000
   45.3020   34.5572   45.0311 C   0  0  0  0  0  0  0  0  0  0  0  0
   45.2727   33.9351   46.2643 C   0  0  0  0  0  0  0  0  0  0  0  0
   46.1685   32.9060   46.4800 C   0  0  0  0  0  0  0  0  0  0  0  0
   47.0012   32.5841   45.4805 N   0  0  0  0  0  0  0  0  0  0  0  0
   47.0129   33.2022   44.2888 C   0  0  0  0  0  0  0  0  0  0  0  0
   46.1546   34.2103   44.0403 N   0  0  0  0  0  0  0  0  0  0  0  0
   43.9766   35.3850   43.2952 C   0  0  0  0  0  0  0  0  0  0  0  0
   44.4097   34.2908   42.8427 O   0  0  0  0  0  0  0  0  0  0  0  0
   44.4444   35.6542   44.6133 N   0  0  0  0  0  0  0  0  0  0  0  0
   44.3113   34.4261   47.1928 N   0  0  0  0  0  0  0  0  0  0  0  0
   46.1277   32.4338   47.4520 H   0  0  0  0  0  0  0  0  0  0  0  0
   47.7261   32.8797   43.5209 H   0  0  0  0  0  0  0  0  0  0  0  0
   44.1756   36.5061   45.1207 H   0  0  0  0  0  0  0  0  0  0  0  0
   44.6674   34.7571   48.1170 H   0  0  0  0  0  0  0  0  0  0  0  0
   43.2799   34.4996   47.0682 H   0  0  0  0  0  0  0  0  0  0  0  0
   43.1145   36.2827   42.6019 N   0  0  0  0  0  0  0  0  0  0  0  0
   41.8261   36.6256   43.1280 C   0  0  0  0  0  0  0  0  0  0  0  0
   41.6302   38.1149   42.8245 C   0  0  0  0  0  0  0  0  0  0  0  0
   41.5833   38.3588   41.3420 C   0  0  0  0  0  0  0  0  0  0  0  0
   41.9023   39.4051   41.1430 H   0  0  0  0  0  0  0  0  0  0  0  0
   42.4109   37.4054   40.5409 C   0  0  0  0  0  0  0  0  0  0  0  0
   43.5863   36.8360   41.3471 C   0  0  0  0  0  0  0  0  0  0  0  0
   41.7306   36.4710   44.2112 H   0  0  0  0  0  0  0  0  0  0  0  0
   41.0210   36.0641   42.5874 H   0  0  0  0  0  0  0  0  0  0  0  0
   42.5346   38.6319   43.2481 H   0  0  0  0  0  0  0  0  0  0  0  0
   40.7666   38.5248   43.3532 H   0  0  0  0  0  0  0  0  0  0  0  0
   40.5057   38.2208   41.0319 H   0  0  0  0  0  0  0  0  0  0  0  0
   42.9026   37.9525   39.7010 H   0  0  0  0  0  0  0  0  0  0  0  0
   41.8556   36.5477   40.1171 H   0  0  0  0  0  0  0  0  0  0  0  0
   44.3127   37.6289   41.5998 H   0  0  0  0  0  0  0  0  0  0  0  0
   44.0446   36.0618   40.6909 H   0  0  0  0  0  0  0  0  0  0  0  0
  1  2  2  0
  2  3  1  0
  2 10  1  0
  4  3  2  0
  5  4  1  0
  6  5  2  0
  6  1  1  0
  7  9  1  0
  8  7  2  0
  9  1  1  0
  3 11  1  0
  5 12  1  0
  9 13  1  0
 10 14  1  0
 10 15  1  0
 16 17  1  0
 17 18  1  0
 18 19  1  0
 19 20  1  0
 19 21  1  0
 21 22  1  0
 22 16  1  0
 17 23  1  0
 17 24  1  0
 18 25  1  0
 18 26  1  0
 19 27  1  0
 21 28  1  0
 21 29  1  0
 22 30  1  0
 22 31  1  0
  7 16  1  0
M  ISO  3  11  14  12  14  20  15
M  END
>  <DihAtoms>  (1) 
8,6,15,16

>  <DihDeg>  (1) 
-179.99861045120247

$$$$
