
     RDKit          3D

 29 30  0  0  0  0  0  0  0  0999 V2000
   44.5328   36.0452   44.5582 C   0  0  0  0  0  0  0  0  0  0  0  0
   45.2463   36.0065   43.3524 C   0  0  0  0  0  0  0  0  0  0  0  0
   46.1321   34.9551   43.1495 C   0  0  0  0  0  0  0  0  0  0  0  0
   46.2847   34.0021   44.1100 N   0  0  0  0  0  0  0  0  0  0  0  0
   45.5759   34.0714   45.2680 C   0  0  0  0  0  0  0  0  0  0  0  0
   44.7089   35.0811   45.4917 N   0  0  0  0  0  0  0  0  0  0  0  0
   46.3947   34.2017   40.7856 C   0  0  0  0  0  0  0  0  0  0  0  0
   45.2126   33.7351   40.9408 O   0  0  0  0  0  0  0  0  0  0  0  0
   46.8960   34.8428   41.9497 N   0  0  0  0  0  0  0  0  0  0  0  0
   43.8526   36.8817   44.6765 H   0  0  0  0  0  0  0  0  0  0  0  0
   45.1544   36.7428   42.5646 H   0  0  0  0  0  0  0  0  0  0  0  0
   45.7294   33.2945   45.9998 H   0  0  0  0  0  0  0  0  0  0  0  0
   47.8498   35.2460   41.9346 H   0  0  0  0  0  0  0  0  0  0  0  0
   47.1228   34.0844   39.5674 N   0  0  0  0  0  0  0  0  0  0  0  0
   48.5285   34.3270   39.5299 C   0  0  0  0  0  0  0  0  0  0  0  0
   49.2603   33.7037   38.3939 C   0  0  0  0  0  0  0  0  0  0  0  0
   48.4377   33.8689   37.1352 C   0  0  0  0  0  0  0  0  0  0  0  0
   48.9928   33.5620   36.2168 H   0  0  0  0  0  0  0  0  0  0  0  0
   47.1892   33.0375   37.3381 C   0  0  0  0  0  0  0  0  0  0  0  0
   46.3592   33.7095   38.3886 C   0  0  0  0  0  0  0  0  0  0  0  0
   49.0073   33.9536   40.4818 H   0  0  0  0  0  0  0  0  0  0  0  0
   48.7020   35.4225   39.5138 H   0  0  0  0  0  0  0  0  0  0  0  0
   49.4487   32.6167   38.5351 H   0  0  0  0  0  0  0  0  0  0  0  0
   50.1976   34.2783   38.2427 H   0  0  0  0  0  0  0  0  0  0  0  0
   48.1021   34.9338   37.1010 H   0  0  0  0  0  0  0  0  0  0  0  0
   46.6400   33.0211   36.3973 H   0  0  0  0  0  0  0  0  0  0  0  0
   47.4786   32.0126   37.5906 H   0  0  0  0  0  0  0  0  0  0  0  0
   46.0369   34.6964   37.9431 H   0  0  0  0  0  0  0  0  0  0  0  0
   45.4385   33.1544   38.6505 H   0  0  0  0  0  0  0  0  0  0  0  0
  1  6  2  0
  2  1  1  0
  3  2  2  0
  3  4  1  0
  4  5  2  0
  5  6  1  0
  7  8  2  0
  7  9  1  0
  9  3  1  0
  1 10  1  0
  2 11  1  0
  5 12  1  0
  9 13  1  0
 14 15  1  0
 15 16  1  0
 16 17  1  0
 17 18  1  0
 17 19  1  0
 19 20  1  0
 20 14  1  0
 15 21  1  0
 15 22  1  0
 16 23  1  0
 16 24  1  0
 17 25  1  0
 19 26  1  0
 19 27  1  0
 20 28  1  0
 20 29  1  0
  7 14  1  0
M  ISO  4  10  14  11  14  12  14  18  15
M  END
>  <DihAtoms>  (1) 
7,6,13,14

>  <DihDeg>  (1) 
-179.99861423340718

$$$$
