
     RDKit          3D

 29 30  0  0  0  0  0  0  0  0999 V2000
   44.5328   36.0452   44.5582 C   0  0  0  0  0  0  0  0  0  0  0  0
   45.2463   36.0065   43.3524 C   0  0  0  0  0  0  0  0  0  0  0  0
   46.1321   34.9551   43.1495 C   0  0  0  0  0  0  0  0  0  0  0  0
   46.2847   34.0021   44.1100 N   0  0  0  0  0  0  0  0  0  0  0  0
   45.5759   34.0714   45.2680 C   0  0  0  0  0  0  0  0  0  0  0  0
   44.7089   35.0811   45.4917 N   0  0  0  0  0  0  0  0  0  0  0  0
   46.3947   34.2017   40.7856 C   0  0  0  0  0  0  0  0  0  0  0  0
   45.2126   33.7351   40.9408 O   0  0  0  0  0  0  0  0  0  0  0  0
   46.8960   34.8428   41.9497 N   0  0  0  0  0  0  0  0  0  0  0  0
   43.8526   36.8817   44.6765 H   0  0  0  0  0  0  0  0  0  0  0  0
   45.1544   36.7428   42.5646 H   0  0  0  0  0  0  0  0  0  0  0  0
   45.7294   33.2945   45.9998 H   0  0  0  0  0  0  0  0  0  0  0  0
   47.8498   35.2460   41.9346 H   0  0  0  0  0  0  0  0  0  0  0  0
   47.1228   34.0844   39.5674 N   0  0  0  0  0  0  0  0  0  0  0  0
   48.5478   34.0105   39.5719 C   0  0  0  0  0  0  0  0  0  0  0  0
   49.1653   33.3927   38.3671 C   0  0  0  0  0  0  0  0  0  0  0  0
   48.4453   33.8992   37.1368 C   0  0  0  0  0  0  0  0  0  0  0  0
   48.9522   33.5983   36.1891 H   0  0  0  0  0  0  0  0  0  0  0  0
   47.0380   33.3477   37.2179 C   0  0  0  0  0  0  0  0  0  0  0  0
   46.3387   34.0455   38.3440 C   0  0  0  0  0  0  0  0  0  0  0  0
   48.8980   33.4192   40.4679 H   0  0  0  0  0  0  0  0  0  0  0  0
   48.9585   35.0323   39.7047 H   0  0  0  0  0  0  0  0  0  0  0  0
   49.1047   32.2822   38.3617 H   0  0  0  0  0  0  0  0  0  0  0  0
   50.2109   33.7586   38.3007 H   0  0  0  0  0  0  0  0  0  0  0  0
   48.3536   35.0073   37.2442 H   0  0  0  0  0  0  0  0  0  0  0  0
   46.5331   33.5766   36.2800 H   0  0  0  0  0  0  0  0  0  0  0  0
   47.0855   32.2602   37.3318 H   0  0  0  0  0  0  0  0  0  0  0  0
   46.2576   35.1287   38.0335 H   0  0  0  0  0  0  0  0  0  0  0  0
   45.3095   33.6803   38.5228 H   0  0  0  0  0  0  0  0  0  0  0  0
  1  6  2  0
  2  1  1  0
  3  2  2  0
  3  4  1  0
  4  5  2  0
  5  6  1  0
  7  8  2  0
  7  9  1  0
  9  3  1  0
  1 10  1  0
  2 11  1  0
  5 12  1  0
  9 13  1  0
 14 15  1  0
 15 16  1  0
 16 17  1  0
 17 18  1  0
 17 19  1  0
 19 20  1  0
 20 14  1  0
 15 21  1  0
 15 22  1  0
 16 23  1  0
 16 24  1  0
 17 25  1  0
 19 26  1  0
 19 27  1  0
 20 28  1  0
 20 29  1  0
  7 14  1  0
M  ISO  4  10  14  11  14  12  14  18  15
M  END
>  <DihAtoms>  (1) 
7,6,13,14

>  <DihDeg>  (1) 
-179.99861423340718

$$$$
