
     RDKit          3D

 39 42  0  0  0  0  0  0  0  0999 V2000
   47.4654   31.6740   44.8208 C   0  0  0  0  0  0  0  0  0  0  0  0
   46.7806   32.8618   44.5427 C   0  0  0  0  0  0  0  0  0  0  0  0
   45.9028   33.4598   45.4326 C   0  0  0  0  0  0  0  0  0  0  0  0
   45.6840   32.8553   46.6703 C   0  0  0  0  0  0  0  0  0  0  0  0
   44.9299   33.1306   47.7582 N   0  0  0  0  0  0  0  0  0  0  0  0
   45.1177   32.1699   48.6913 C   0  0  0  0  0  0  0  0  0  0  0  0
   45.9929   31.3096   48.1587 N   0  0  0  0  0  0  0  0  0  0  0  0
   46.3587   31.6953   46.9304 C   0  0  0  0  0  0  0  0  0  0  0  0
   47.2414   31.0768   46.0586 C   0  0  0  0  0  0  0  0  0  0  0  0
   46.3843   33.8139   41.0194 C   0  0  0  0  0  0  0  0  0  0  0  0
   47.4216   34.7123   40.8211 C   0  0  0  0  0  0  0  0  0  0  0  0
   48.2559   34.9902   41.8974 C   0  0  0  0  0  0  0  0  0  0  0  0
   48.0205   34.3711   43.0958 N   0  0  0  0  0  0  0  0  0  0  0  0
   47.0025   33.5047   43.2479 C   0  0  0  0  0  0  0  0  0  0  0  0
   46.1853   33.2227   42.2211 N   0  0  0  0  0  0  0  0  0  0  0  0
   45.0485   34.9688   45.0505 S   0  0  0  0  0  0  0  0  0  0  0  0
   48.1463   31.2425   44.0871 H   0  0  0  0  0  0  0  0  0  0  0  0
   44.3020   33.9588   47.8571 H   0  0  0  0  0  0  0  0  0  0  0  0
   44.6211   32.1539   49.6738 H   0  0  0  0  0  0  0  0  0  0  0  0
   47.7472   30.1587   46.3189 H   0  0  0  0  0  0  0  0  0  0  0  0
   45.7601   33.6296   40.1492 H   0  0  0  0  0  0  0  0  0  0  0  0
   47.6695   35.2340   39.9213 H   0  0  0  0  0  0  0  0  0  0  0  0
   49.0874   35.6562   41.8888 H   0  0  0  0  0  0  0  0  0  0  0  0
   40.7283   36.2526   42.1777 H   0  0  0  0  0  0  0  0  0  0  0  0
   41.1741   35.5198   42.7822 N   0  0  0  0  0  0  0  0  0  0  0  0
   42.3524   35.0721   42.1073 C   0  0  0  0  0  0  0  0  0  0  0  0
   43.5664   35.4455   42.8911 C   0  0  0  0  0  0  0  0  0  0  0  0
   43.4699   34.7348   44.2412 C   0  0  0  0  0  0  0  0  0  0  0  0
   42.2952   35.3003   44.9695 C   0  0  0  0  0  0  0  0  0  0  0  0
   41.3888   36.1074   44.0692 C   0  0  0  0  0  0  0  0  0  0  0  0
   42.3696   33.9795   41.9263 H   0  0  0  0  0  0  0  0  0  0  0  0
   42.4620   35.5265   41.0849 H   0  0  0  0  0  0  0  0  0  0  0  0
   43.6729   36.5115   43.0883 H   0  0  0  0  0  0  0  0  0  0  0  0
   44.5084   35.0902   42.4312 H   0  0  0  0  0  0  0  0  0  0  0  0
   43.3042   33.6658   43.9961 H   0  0  0  0  0  0  0  0  0  0  0  0
   42.5225   35.9181   45.8399 H   0  0  0  0  0  0  0  0  0  0  0  0
   41.6608   34.4383   45.3309 H   0  0  0  0  0  0  0  0  0  0  0  0
   41.7479   37.1552   44.0531 H   0  0  0  0  0  0  0  0  0  0  0  0
   40.3798   36.1323   44.5719 H   0  0  0  0  0  0  0  0  0  0  0  0
  1  9  2  0
  2  1  1  0
  2  3  2  0
  3  4  1  0
  4  8  2  0
  4  5  1  0
  5  6  1  0
  7  6  2  0
  8  7  1  0
  9  8  1  0
 10 15  2  0
 11 10  1  0
 11 12  2  0
 12 13  1  0
 13 14  2  0
 14  2  1  0
 15 14  1  0
 16  3  1  0
  1 17  1  0
  5 18  1  0
  6 19  1  0
  9 20  1  0
 10 21  1  0
 11 22  1  0
 12 23  1  0
 24 25  1  0
 25 26  1  0
 26 27  1  0
 27 28  1  0
 28 29  1  0
 29 30  1  0
 30 25  1  0
 26 31  1  0
 26 32  1  0
 27 33  1  0
 27 34  1  0
 28 35  1  0
 29 36  1  0
 29 37  1  0
 30 38  1  0
 30 39  1  0
 16 28  1  0
M  ISO  8  17  14  18   9  19  14  20  14  21  14  22  14  23  14  24   5
M  END
>  <DihAtoms>  (1) 
2,15,27,26

>  <DihDeg>  (1) 
179.90250208483738

$$$$
