
     RDKit          3D

 39 42  0  0  0  0  0  0  0  0999 V2000
   47.8040   32.2140   44.0390 C   0  0  0  0  0  0  0  0  0  0  0  0
   47.1250   33.3200   43.5160 C   0  0  0  0  0  0  0  0  0  0  0  0
   46.1430   34.0080   44.2110 C   0  0  0  0  0  0  0  0  0  0  0  0
   45.8080   33.5850   45.4970 C   0  0  0  0  0  0  0  0  0  0  0  0
   44.9360   33.9890   46.4480 N   0  0  0  0  0  0  0  0  0  0  0  0
   45.0460   33.1850   47.5300 C   0  0  0  0  0  0  0  0  0  0  0  0
   45.9930   32.2910   47.2260 N   0  0  0  0  0  0  0  0  0  0  0  0
   46.4790   32.5040   45.9970 C   0  0  0  0  0  0  0  0  0  0  0  0
   47.4630   31.7990   45.3240 C   0  0  0  0  0  0  0  0  0  0  0  0
   47.2860   33.5310   39.8540 C   0  0  0  0  0  0  0  0  0  0  0  0
   48.1150   34.6230   39.6420 C   0  0  0  0  0  0  0  0  0  0  0  0
   48.6170   35.2840   40.7560 C   0  0  0  0  0  0  0  0  0  0  0  0
   48.2750   34.8350   42.0040 N   0  0  0  0  0  0  0  0  0  0  0  0
   47.4680   33.7720   42.1680 C   0  0  0  0  0  0  0  0  0  0  0  0
   46.9720   33.1190   41.1050 N   0  0  0  0  0  0  0  0  0  0  0  0
   45.2990   35.4090   43.5190 S   0  0  0  0  0  0  0  0  0  0  0  0
   42.3770   33.7750   40.4770 N   0  0  0  0  0  0  0  0  0  0  0  0
   42.6070   33.0820   41.7060 C   0  0  0  0  0  0  0  0  0  0  0  0
   43.9180   33.4940   42.2890 C   0  0  0  0  0  0  0  0  0  0  0  0
   43.8370   34.9930   42.5750 C   0  0  0  0  0  0  0  0  0  0  0  0
   43.7070   35.6990   41.2650 C   0  0  0  0  0  0  0  0  0  0  0  0
   43.3570   34.7600   40.1340 C   0  0  0  0  0  0  0  0  0  0  0  0
   48.5779   31.6920   43.4572 H   0  0  0  0  0  0  0  0  0  0  0  0
   44.2885   34.7854   46.3619 H   0  0  0  0  0  0  0  0  0  0  0  0
   44.4742   33.2525   48.4672 H   0  0  0  0  0  0  0  0  0  0  0  0
   47.9608   30.9363   45.7909 H   0  0  0  0  0  0  0  0  0  0  0  0
   46.8758   32.9893   38.9889 H   0  0  0  0  0  0  0  0  0  0  0  0
   48.3669   34.9550   38.6240 H   0  0  0  0  0  0  0  0  0  0  0  0
   49.2789   36.1545   40.6376 H   0  0  0  0  0  0  0  0  0  0  0  0
   42.3490   33.0776   39.7195 H   0  0  0  0  0  0  0  0  0  0  0  0
   41.8015   33.3223   42.4156 H   0  0  0  0  0  0  0  0  0  0  0  0
   42.6235   31.9994   41.5116 H   0  0  0  0  0  0  0  0  0  0  0  0
   44.1051   32.9423   43.2221 H   0  0  0  0  0  0  0  0  0  0  0  0
   44.7404   33.2743   41.5923 H   0  0  0  0  0  0  0  0  0  0  0  0
   42.9656   35.2999   43.1721 H   0  0  0  0  0  0  0  0  0  0  0  0
   42.9159   36.4585   41.3506 H   0  0  0  0  0  0  0  0  0  0  0  0
   44.6811   36.1541   41.0324 H   0  0  0  0  0  0  0  0  0  0  0  0
   44.2741   34.2405   39.8194 H   0  0  0  0  0  0  0  0  0  0  0  0
   42.9225   35.3754   39.3325 H   0  0  0  0  0  0  0  0  0  0  0  0
  1  9  2  0
  2  1  1  0
  2  3  2  0
  3  4  1  0
  4  8  2  0
  4  5  1  0
  5  6  1  0
  7  6  2  0
  8  7  1  0
  9  8  1  0
 10 15  2  0
 11 10  1  0
 11 12  2  0
 12 13  1  0
 13 14  2  0
 14  2  1  0
 15 14  1  0
 16  3  1  0
 17 18  1  0
 18 19  1  0
 19 20  1  0
 20 16  1  0
 21 20  1  0
 22 17  1  0
 22 21  1  0
  1 23  1  0
  5 24  1  0
  6 25  1  0
  9 26  1  0
 10 27  1  0
 11 28  1  0
 12 29  1  0
 17 30  1  0
 18 31  1  0
 18 32  1  0
 19 33  1  0
 19 34  1  0
 20 35  1  0
 21 36  1  0
 21 37  1  0
 22 38  1  0
 22 39  1  0
M  ISO  8  23  14  24   9  25  14  26  14  27  14  28  14  29  14  30   5
M  ISO  8  31  13  32  13  33  13  34  13  35  13  36  13  37  13  38  13
M  ISO  1  39  13
M  END
>  <minimizedAffinity>  (1) 
-5.26503897

>  <minimizedRMSD>  (1) 
1.45489037

$$$$
