
     RDKit          3D

 52 54  0  0  1  0  0  0  0  0999 V2000
   46.8060   34.3660   43.6210 N   0  0  0  0  0  0  0  0  0  0  0  0
   46.3920   35.2130   42.5540 C   0  0  0  0  0  0  0  0  0  0  0  0
   44.8920   35.3530   42.3950 C   0  0  0  0  0  0  0  0  0  0  0  0
   44.1260   35.3140   43.6810 C   0  0  0  0  0  0  0  0  0  0  0  0
   45.0370   35.2080   44.8770 C   0  0  0  0  0  0  0  0  0  0  0  0
   45.8970   33.9320   44.5720 C   0  0  2  0  0  0  0  0  0  0  0  0
   47.9380   33.5530   43.3130 C   0  0  0  0  0  0  0  0  0  0  0  0
   47.4770   32.3420   42.5590 C   0  0  0  0  0  0  0  0  0  0  0  0
   50.1140   31.6830   39.9690 C   0  0  0  0  0  0  0  0  0  0  0  0
   49.4470   31.7480   41.2020 C   0  0  0  0  0  0  0  0  0  0  0  0
   48.1740   32.2760   41.2560 C   0  0  0  0  0  0  0  0  0  0  0  0
   47.6250   32.7100   40.1040 N   0  0  0  0  0  0  0  0  0  0  0  0
   48.2810   32.6400   38.9270 C   0  0  0  0  0  0  0  0  0  0  0  0
   49.5210   32.1300   38.8440 N   0  0  0  0  0  0  0  0  0  0  0  0
   46.5090   33.7020   45.7930 O   0  0  0  0  0  0  0  0  0  0  0  0
   45.6790   31.2200   45.3450 O   0  0  0  0  0  0  0  0  0  0  0  0
   46.1670   32.1850   46.4310 P   0  0  2  0  0  0  0  0  0  0  0  0
   44.8210   32.3940   47.4660 O   0  0  0  0  0  0  0  0  0  0  0  0
   47.4070   31.5500   47.3370 O   0  0  0  0  0  0  0  0  0  0  0  0
   48.0470   27.5430   48.0860 N   0  0  0  0  0  0  0  0  0  0  0  0
   46.8720   27.9290   47.3580 C   0  0  0  0  0  0  0  0  0  0  0  0
   46.5710   29.3740   47.7180 C   0  0  0  0  0  0  0  0  0  0  0  0
   47.6800   30.2180   47.1090 C   0  0  0  0  0  0  0  0  0  0  0  0
   48.9670   29.7840   47.7760 C   0  0  0  0  0  0  0  0  0  0  0  0
   49.1680   28.3080   47.6130 C   0  0  0  0  0  0  0  0  0  0  0  0
   46.8117   36.2144   42.7303 H   0  0  0  0  0  0  0  0  0  0  0  0
   46.7575   34.7439   41.6286 H   0  0  0  0  0  0  0  0  0  0  0  0
   44.6869   36.3145   41.9017 H   0  0  0  0  0  0  0  0  0  0  0  0
   44.5574   34.4873   41.8046 H   0  0  0  0  0  0  0  0  0  0  0  0
   43.5310   36.2351   43.7682 H   0  0  0  0  0  0  0  0  0  0  0  0
   43.4803   34.4236   43.6654 H   0  0  0  0  0  0  0  0  0  0  0  0
   45.6748   36.0998   44.9654 H   0  0  0  0  0  0  0  0  0  0  0  0
   44.4884   35.1371   45.8278 H   0  0  0  0  0  0  0  0  0  0  0  0
   45.3816   33.0314   44.2069 H   0  0  0  0  0  0  0  0  0  0  0  0
   48.6460   34.1250   42.6952 H   0  0  0  0  0  0  0  0  0  0  0  0
   48.4385   33.2444   44.2426 H   0  0  0  0  0  0  0  0  0  0  0  0
   47.7051   31.4380   43.1428 H   0  0  0  0  0  0  0  0  0  0  0  0
   46.3918   32.4065   42.3909 H   0  0  0  0  0  0  0  0  0  0  0  0
   51.1297   31.2636   39.9201 H   0  0  0  0  0  0  0  0  0  0  0  0
   49.9350   31.3812   42.1170 H   0  0  0  0  0  0  0  0  0  0  0  0
   47.7893   33.0089   38.0148 H   0  0  0  0  0  0  0  0  0  0  0  0
   45.1194   32.3477   48.4088 H   0  0  0  0  0  0  0  0  0  0  0  0
   47.9053   27.7241   49.0900 H   0  0  0  0  0  0  0  0  0  0  0  0
   46.0255   27.2864   47.6417 H   0  0  0  0  0  0  0  0  0  0  0  0
   47.0329   27.8232   46.2750 H   0  0  0  0  0  0  0  0  0  0  0  0
   45.5967   29.6726   47.3037 H   0  0  0  0  0  0  0  0  0  0  0  0
   46.5262   29.5082   48.8089 H   0  0  0  0  0  0  0  0  0  0  0  0
   47.7629   30.0835   46.0204 H   0  0  0  0  0  0  0  0  0  0  0  0
   49.8116   30.3178   47.3159 H   0  0  0  0  0  0  0  0  0  0  0  0
   48.9100   30.0200   48.8489 H   0  0  0  0  0  0  0  0  0  0  0  0
   49.3194   28.0886   46.5458 H   0  0  0  0  0  0  0  0  0  0  0  0
   50.0441   28.0223   48.2136 H   0  0  0  0  0  0  0  0  0  0  0  0
  1  6  1  0
  2  1  1  0
  3  2  1  0
  3  4  1  0
  4  5  1  0
  6  5  1  0
  6 15  1  0
  7  1  1  0
  8  7  1  0
  9 10  2  0
 10 11  1  0
 11  8  1  0
 12 11  2  0
 13 12  1  0
 14 13  2  0
 14  9  1  0
 15 17  1  0
 17 16  2  0
 17 19  1  0
 17 18  1  0
 21 22  1  0
 21 20  1  0
 23 19  1  0
 23 22  1  0
 23 24  1  0
 25 24  1  0
 25 20  1  0
  2 26  1  0
  2 27  1  0
  3 28  1  0
  3 29  1  0
  4 30  1  0
  4 31  1  0
  5 32  1  0
  5 33  1  0
  6 34  1  6
  7 35  1  0
  7 36  1  0
  8 37  1  0
  8 38  1  0
  9 39  1  0
 10 40  1  0
 13 41  1  0
 18 42  1  0
 20 43  1  0
 21 44  1  0
 21 45  1  0
 22 46  1  0
 22 47  1  0
 23 48  1  0
 24 49  1  0
 24 50  1  0
 25 51  1  0
 25 52  1  0
M  ISO  8  26  13  27  13  28  13  29  13  30  13  31  13  32  13  33  13
M  ISO  8  34  13  35   8  36   8  37   8  38   8  39  14  40  14  41  14
M  ISO  8  42   3  43   5  44  13  45  13  46  13  47  13  48  13  49  13
M  ISO  3  50  13  51  13  52  13
M  END
>  <minimizedAffinity>  (1) 
-4.62086678

>  <minimizedRMSD>  (1) 
2.12547922

$$$$
