
     RDKit          3D

 34 35  0  0  0  0  0  0  0  0999 V2000
   47.1585   33.9831   42.4766 C   0  0  0  0  0  0  0  0  0  0  0  0
   45.2967   34.2256   45.6931 C   0  0  0  0  0  0  0  0  0  0  0  0
   46.1659   33.7544   44.6938 C   0  0  0  0  0  0  0  0  0  0  0  0
   46.2637   34.4603   43.5163 C   0  0  0  0  0  0  0  0  0  0  0  0
   45.5045   35.5979   43.3705 N   0  0  0  0  0  0  0  0  0  0  0  0
   44.6764   36.0228   44.3562 C   0  0  0  0  0  0  0  0  0  0  0  0
   44.5751   35.3487   45.4957 N   0  0  0  0  0  0  0  0  0  0  0  0
   48.3185   33.4169   43.0160 O   0  0  0  0  0  0  0  0  0  0  0  0
   50.6633   33.1020   41.9082 O   0  0  0  0  0  0  0  0  0  0  0  0
   49.6339   34.1524   42.2339 P   0  0  2  0  0  0  0  0  0  0  0  0
   50.2063   35.3647   43.2448 O   0  0  0  0  0  0  0  0  0  0  0  0
   49.0582   34.7971   40.7817 O   0  0  0  0  0  0  0  0  0  0  0  0
   47.3873   34.8629   41.8128 H   0  0  0  0  0  0  0  0  0  0  0  0
   46.6005   33.2628   41.8304 H   0  0  0  0  0  0  0  0  0  0  0  0
   45.2075   33.6771   46.6333 H   0  0  0  0  0  0  0  0  0  0  0  0
   46.7040   32.8506   44.9342 H   0  0  0  0  0  0  0  0  0  0  0  0
   44.0767   36.9177   44.2463 H   0  0  0  0  0  0  0  0  0  0  0  0
   51.0396   35.1087   43.7317 H   0  0  0  0  0  0  0  0  0  0  0  0
   49.5932   35.2282   35.9621 H   0  0  0  0  0  0  0  0  0  0  0  0
   50.0621   34.8823   36.8156 N   0  0  0  0  0  0  0  0  0  0  0  0
   50.1530   35.9020   37.8434 C   0  0  0  0  0  0  0  0  0  0  0  0
   50.6407   35.2803   39.1292 C   0  0  0  0  0  0  0  0  0  0  0  0
   49.6580   34.2641   39.6728 C   0  0  0  0  0  0  0  0  0  0  0  0
   48.6888   33.9275   38.5673 C   0  0  0  0  0  0  0  0  0  0  0  0
   49.5410   33.6356   37.3299 C   0  0  0  0  0  0  0  0  0  0  0  0
   49.2596   36.5153   37.9592 H   0  0  0  0  0  0  0  0  0  0  0  0
   50.9787   36.5951   37.5169 H   0  0  0  0  0  0  0  0  0  0  0  0
   50.8397   36.1214   39.8190 H   0  0  0  0  0  0  0  0  0  0  0  0
   51.6151   34.7970   38.9361 H   0  0  0  0  0  0  0  0  0  0  0  0
   50.1982   33.3365   39.9506 H   0  0  0  0  0  0  0  0  0  0  0  0
   48.0260   34.7552   38.3154 H   0  0  0  0  0  0  0  0  0  0  0  0
   48.0934   33.0139   38.7503 H   0  0  0  0  0  0  0  0  0  0  0  0
   50.3562   32.9191   37.5563 H   0  0  0  0  0  0  0  0  0  0  0  0
   48.8577   33.1394   36.6013 H   0  0  0  0  0  0  0  0  0  0  0  0
  1  8  1  0
  1  4  1  0
  3  2  2  0
  4  3  1  0
  5  4  2  0
  5  6  1  0
  6  7  2  0
  7  2  1  0
  9 10  2  0
 10  8  1  1
 10 11  1  0
 12 10  1  0
  1 13  1  0
  1 14  1  0
  2 15  1  0
  3 16  1  0
  6 17  1  0
 11 18  1  0
 19 20  1  0
 20 21  1  0
 21 22  1  0
 22 23  1  0
 23 24  1  0
 24 25  1  0
 25 20  1  0
 21 26  1  0
 21 27  1  0
 22 28  1  0
 22 29  1  0
 23 30  1  0
 24 31  1  0
 24 32  1  0
 25 33  1  0
 25 34  1  0
 12 23  1  0
M  ISO  7  13   8  14   8  15  14  16  14  17  14  18   3  19   5
M  END
>  <DihAtoms>  (1) 
9,11,22,21

>  <DihDeg>  (1) 
-119.52033412483071

$$$$
