
     RDKit          3D

 39 41  0  0  0  0  0  0  0  0999 V2000
   47.0550   32.7420   43.9840 C   0  0  0  0  0  0  0  0  0  0  0  0
   45.9470   31.9420   43.6180 C   0  0  0  0  0  0  0  0  0  0  0  0
   45.5390   30.6020   43.8130 C   0  0  0  0  0  0  0  0  0  0  0  0
   44.3780   30.1440   43.2890 C   0  0  0  0  0  0  0  0  0  0  0  0
   43.5960   31.0750   42.5400 C   0  0  0  0  0  0  0  0  0  0  0  0
   44.5270   32.6160   42.5840 S   0  0  0  0  0  0  0  0  0  0  0  0
   42.4590   30.8630   41.9510 O   0  0  0  0  0  0  0  0  0  0  0  0
   39.9360   28.0320   42.9400 N   0  0  0  0  0  0  0  0  0  0  0  0
   39.7090   29.1990   43.7710 C   0  0  0  0  0  0  0  0  0  0  0  0
   40.7100   30.2800   43.4190 C   0  0  0  0  0  0  0  0  0  0  0  0
   41.6490   29.7620   42.3390 C   0  0  0  0  0  0  0  0  0  0  0  0
   40.7770   29.4030   41.1550 C   0  0  0  0  0  0  0  0  0  0  0  0
   39.7900   28.3410   41.5310 C   0  0  0  0  0  0  0  0  0  0  0  0
   48.3120   32.5790   43.2320 C   0  0  0  0  0  0  0  0  0  0  0  0
   48.4860   33.6770   42.2820 C   0  0  0  0  0  0  0  0  0  0  0  0
   49.1430   34.8390   42.6330 C   0  0  0  0  0  0  0  0  0  0  0  0
   49.2690   35.8380   41.6820 C   0  0  0  0  0  0  0  0  0  0  0  0
   48.7390   35.6290   40.4490 N   0  0  0  0  0  0  0  0  0  0  0  0
   48.1040   34.4790   40.1450 C   0  0  0  0  0  0  0  0  0  0  0  0
   47.9800   33.5270   41.0370 N   0  0  0  0  0  0  0  0  0  0  0  0
   46.7468   33.7928   43.8798 H   0  0  0  0  0  0  0  0  0  0  0  0
   47.3034   32.4124   45.0036 H   0  0  0  0  0  0  0  0  0  0  0  0
   46.1745   29.9219   44.3992 H   0  0  0  0  0  0  0  0  0  0  0  0
   44.0521   29.1033   43.4334 H   0  0  0  0  0  0  0  0  0  0  0  0
   40.8903   27.6829   43.1081 H   0  0  0  0  0  0  0  0  0  0  0  0
   38.6895   29.5757   43.6015 H   0  0  0  0  0  0  0  0  0  0  0  0
   39.8297   28.9217   44.8286 H   0  0  0  0  0  0  0  0  0  0  0  0
   40.1771   31.1679   43.0479 H   0  0  0  0  0  0  0  0  0  0  0  0
   41.2902   30.5511   44.3134 H   0  0  0  0  0  0  0  0  0  0  0  0
   42.2550   28.9078   42.6753 H   0  0  0  0  0  0  0  0  0  0  0  0
   41.4124   29.0329   40.3369 H   0  0  0  0  0  0  0  0  0  0  0  0
   40.2278   30.3003   40.8336 H   0  0  0  0  0  0  0  0  0  0  0  0
   38.7692   28.7022   41.3374 H   0  0  0  0  0  0  0  0  0  0  0  0
   39.9747   27.4363   40.9331 H   0  0  0  0  0  0  0  0  0  0  0  0
   49.1570   32.5722   43.9363 H   0  0  0  0  0  0  0  0  0  0  0  0
   48.2740   31.6303   42.6765 H   0  0  0  0  0  0  0  0  0  0  0  0
   49.5567   34.9686   43.6440 H   0  0  0  0  0  0  0  0  0  0  0  0
   49.7864   36.7791   41.9198 H   0  0  0  0  0  0  0  0  0  0  0  0
   47.6856   34.3384   39.1375 H   0  0  0  0  0  0  0  0  0  0  0  0
  2  3  2  0
  2  1  1  0
  4  3  1  0
  5  6  1  0
  5  4  2  0
  6  2  1  0
  7 11  1  0
  7  5  1  0
  8  9  1  0
 10  9  1  0
 11 10  1  0
 12 13  1  0
 12 11  1  0
 13  8  1  0
 14  1  1  0
 15 16  2  0
 15 14  1  0
 17 16  1  0
 18 17  2  0
 19 18  1  0
 19 20  2  0
 20 15  1  0
  1 21  1  0
  1 22  1  0
  3 23  1  0
  4 24  1  0
  8 25  1  0
  9 26  1  0
  9 27  1  0
 10 28  1  0
 10 29  1  0
 11 30  1  0
 12 31  1  0
 12 32  1  0
 13 33  1  0
 13 34  1  0
 14 35  1  0
 14 36  1  0
 16 37  1  0
 17 38  1  0
 19 39  1  0
M  ISO  8  21   8  22   8  23  14  24  14  25   5  26  13  27  13  28  13
M  ISO  8  29  13  30  13  31  13  32  13  33  13  34  13  35   8  36   8
M  ISO  3  37  14  38  14  39  14
M  END
>  <minimizedAffinity>  (1) 
-3.64889121

>  <minimizedRMSD>  (1) 
9.11559486

$$$$
