
     RDKit          3D

 34 35  0  0  0  0  0  0  0  0999 V2000
   47.1585   33.9831   42.4766 C   0  0  0  0  0  0  0  0  0  0  0  0
   45.2967   34.2256   45.6931 C   0  0  0  0  0  0  0  0  0  0  0  0
   46.1659   33.7544   44.6938 C   0  0  0  0  0  0  0  0  0  0  0  0
   46.2637   34.4603   43.5163 C   0  0  0  0  0  0  0  0  0  0  0  0
   45.5045   35.5979   43.3705 N   0  0  0  0  0  0  0  0  0  0  0  0
   44.6764   36.0228   44.3562 C   0  0  0  0  0  0  0  0  0  0  0  0
   44.5751   35.3487   45.4957 N   0  0  0  0  0  0  0  0  0  0  0  0
   48.3185   33.4169   43.0160 O   0  0  0  0  0  0  0  0  0  0  0  0
   50.6633   33.1020   41.9082 O   0  0  0  0  0  0  0  0  0  0  0  0
   49.6339   34.1524   42.2339 P   0  0  2  0  0  0  0  0  0  0  0  0
   50.2063   35.3647   43.2448 O   0  0  0  0  0  0  0  0  0  0  0  0
   49.0582   34.7971   40.7817 O   0  0  0  0  0  0  0  0  0  0  0  0
   47.3873   34.8629   41.8128 H   0  0  0  0  0  0  0  0  0  0  0  0
   46.6005   33.2628   41.8304 H   0  0  0  0  0  0  0  0  0  0  0  0
   45.2075   33.6771   46.6333 H   0  0  0  0  0  0  0  0  0  0  0  0
   46.7040   32.8506   44.9342 H   0  0  0  0  0  0  0  0  0  0  0  0
   44.0767   36.9177   44.2463 H   0  0  0  0  0  0  0  0  0  0  0  0
   51.0396   35.1087   43.7317 H   0  0  0  0  0  0  0  0  0  0  0  0
   52.6366   35.3839   37.5334 H   0  0  0  0  0  0  0  0  0  0  0  0
   52.0521   34.6676   37.9953 N   0  0  0  0  0  0  0  0  0  0  0  0
   52.1006   34.7687   39.4416 C   0  0  0  0  0  0  0  0  0  0  0  0
   51.0664   33.8510   40.0465 C   0  0  0  0  0  0  0  0  0  0  0  0
   49.6580   34.2641   39.6728 C   0  0  0  0  0  0  0  0  0  0  0  0
   49.7551   35.2296   38.5182 C   0  0  0  0  0  0  0  0  0  0  0  0
   50.6965   34.5810   37.5005 C   0  0  0  0  0  0  0  0  0  0  0  0
   52.0706   35.7866   39.8299 H   0  0  0  0  0  0  0  0  0  0  0  0
   53.0953   34.3373   39.7470 H   0  0  0  0  0  0  0  0  0  0  0  0
   51.2571   33.8516   41.1357 H   0  0  0  0  0  0  0  0  0  0  0  0
   51.2636   32.8225   39.6951 H   0  0  0  0  0  0  0  0  0  0  0  0
   49.0886   33.3761   39.3314 H   0  0  0  0  0  0  0  0  0  0  0  0
   50.1933   36.1871   38.7994 H   0  0  0  0  0  0  0  0  0  0  0  0
   48.7999   35.3970   37.9870 H   0  0  0  0  0  0  0  0  0  0  0  0
   50.4086   33.5311   37.2905 H   0  0  0  0  0  0  0  0  0  0  0  0
   50.5625   35.1560   36.5541 H   0  0  0  0  0  0  0  0  0  0  0  0
  1  8  1  0
  1  4  1  0
  3  2  2  0
  4  3  1  0
  5  4  2  0
  5  6  1  0
  6  7  2  0
  7  2  1  0
  9 10  2  0
 10  8  1  1
 10 11  1  0
 12 10  1  0
  1 13  1  0
  1 14  1  0
  2 15  1  0
  3 16  1  0
  6 17  1  0
 11 18  1  0
 19 20  1  0
 20 21  1  0
 21 22  1  0
 22 23  1  0
 23 24  1  0
 24 25  1  0
 25 20  1  0
 21 26  1  0
 21 27  1  0
 22 28  1  0
 22 29  1  0
 23 30  1  0
 24 31  1  0
 24 32  1  0
 25 33  1  0
 25 34  1  0
 12 23  1  0
M  ISO  7  13   8  14   8  15  14  16  14  17  14  18   3  19   5
M  END
>  <DihAtoms>  (1) 
9,11,22,21

>  <DihDeg>  (1) 
-119.52033412483071

$$$$
