
     RDKit          3D

 49 53  0  0  1  0  0  0  0  0999 V2000
   45.4950   32.9810   42.3100 C   0  0  0  0  0  0  0  0  0  0  0  0
   44.6810   31.9170   42.4820 N   0  0  0  0  0  0  0  0  0  0  0  0
   43.4290   32.2160   42.1180 C   0  0  0  0  0  0  0  0  0  0  0  0
   43.4510   33.5100   41.7020 N   0  0  0  0  0  0  0  0  0  0  0  0
   44.6730   33.9800   41.8110 N   0  0  0  0  0  0  0  0  0  0  0  0
   40.4520   32.7710   41.4570 O   0  0  0  0  0  0  0  0  0  0  0  0
   41.2340   33.4350   40.7070 C   0  0  0  0  0  0  0  0  0  0  0  0
   42.3320   34.2940   41.2070 C   0  0  2  0  0  0  0  0  0  0  0  0
   42.7320   35.0940   39.9820 C   0  0  0  0  0  0  0  0  0  0  0  0
   42.5130   34.0750   38.8670 C   0  0  0  0  0  0  0  0  0  0  0  0
   41.2360   33.5020   39.2660 N   0  0  0  0  0  0  0  0  0  0  0  0
   38.2830   32.2440   36.9770 N   0  0  0  0  0  0  0  0  0  0  0  0
   38.6180   31.2180   37.9220 C   0  0  0  0  0  0  0  0  0  0  0  0
   39.7550   31.5950   38.8330 C   0  0  0  0  0  0  0  0  0  0  0  0
   40.1010   33.0410   38.5220 C   0  0  0  0  0  0  0  0  0  0  0  0
   38.8470   33.8420   38.7170 C   0  0  0  0  0  0  0  0  0  0  0  0
   37.9310   33.5040   37.5600 C   0  0  0  0  0  0  0  0  0  0  0  0
   47.6070   33.0390   43.8730 C   0  0  1  0  0  0  0  0  0  0  0  0
   46.9320   33.1520   42.5510 C   0  0  2  0  0  0  0  0  0  0  0  0
   47.3750   34.3490   43.2320 C   0  0  0  0  0  0  0  0  0  0  0  0
   46.9290   31.3110   45.5230 C   0  0  0  0  0  0  0  0  0  0  0  0
   46.8820   32.6350   45.0900 C   0  0  0  0  0  0  0  0  0  0  0  0
   46.1510   33.5060   45.8610 C   0  0  0  0  0  0  0  0  0  0  0  0
   45.5350   33.0320   46.9730 N   0  0  0  0  0  0  0  0  0  0  0  0
   45.5960   31.7670   47.3640 C   0  0  0  0  0  0  0  0  0  0  0  0
   46.3070   30.9070   46.6170 N   0  0  0  0  0  0  0  0  0  0  0  0
   42.5557   31.5479   42.1491 H   0  0  0  0  0  0  0  0  0  0  0  0
   42.0230   34.9197   42.0573 H   0  0  0  0  0  0  0  0  0  0  0  0
   42.0890   35.9769   39.8513 H   0  0  0  0  0  0  0  0  0  0  0  0
   43.7540   35.4985   40.0250 H   0  0  0  0  0  0  0  0  0  0  0  0
   43.3093   33.3163   38.8502 H   0  0  0  0  0  0  0  0  0  0  0  0
   42.5233   34.5012   37.8530 H   0  0  0  0  0  0  0  0  0  0  0  0
   37.4836   31.9154   36.4168 H   0  0  0  0  0  0  0  0  0  0  0  0
   37.7315   31.0085   38.5386 H   0  0  0  0  0  0  0  0  0  0  0  0
   38.9403   30.3379   37.3463 H   0  0  0  0  0  0  0  0  0  0  0  0
   39.4473   31.4963   39.8845 H   0  0  0  0  0  0  0  0  0  0  0  0
   40.6229   30.9375   38.6763 H   0  0  0  0  0  0  0  0  0  0  0  0
   40.4324   33.1589   37.4798 H   0  0  0  0  0  0  0  0  0  0  0  0
   38.3691   33.5721   39.6703 H   0  0  0  0  0  0  0  0  0  0  0  0
   39.0662   34.9195   38.7466 H   0  0  0  0  0  0  0  0  0  0  0  0
   38.0133   34.2899   36.7947 H   0  0  0  0  0  0  0  0  0  0  0  0
   36.8997   33.4394   37.9372 H   0  0  0  0  0  0  0  0  0  0  0  0
   48.4787   32.4945   44.2651 H   0  0  0  0  0  0  0  0  0  0  0  0
   47.1085   32.6424   41.5923 H   0  0  0  0  0  0  0  0  0  0  0  0
   48.2260   34.9211   42.8339 H   0  0  0  0  0  0  0  0  0  0  0  0
   46.8862   35.2838   43.5439 H   0  0  0  0  0  0  0  0  0  0  0  0
   47.5022   30.5788   44.9354 H   0  0  0  0  0  0  0  0  0  0  0  0
   46.0668   34.5668   45.5822 H   0  0  0  0  0  0  0  0  0  0  0  0
   45.0787   31.4311   48.2748 H   0  0  0  0  0  0  0  0  0  0  0  0
  1  2  1  0
  1 19  1  0
  3  2  2  0
  4  5  1  0
  4  3  1  0
  5  1  2  0
  7  8  1  0
  7  6  2  0
  8  4  1  0
  9  8  1  0
 10 11  1  0
 10  9  1  0
 11  7  1  0
 12 17  1  0
 12 13  1  0
 13 14  1  0
 15 16  1  0
 15 14  1  0
 15 11  1  0
 17 16  1  0
 18 22  1  0
 19 20  1  0
 19 18  1  0
 20 18  1  0
 21 26  2  0
 22 21  1  0
 22 23  2  0
 23 24  1  0
 24 25  2  0
 26 25  1  0
  3 27  1  0
  8 28  1  1
  9 29  1  0
  9 30  1  0
 10 31  1  0
 10 32  1  0
 12 33  1  0
 13 34  1  0
 13 35  1  0
 14 36  1  0
 14 37  1  0
 15 38  1  0
 16 39  1  0
 16 40  1  0
 17 41  1  0
 17 42  1  0
 18 43  1  6
 19 44  1  6
 20 45  1  0
 20 46  1  0
 21 47  1  0
 23 48  1  0
 25 49  1  0
M  ISO  8  27  14  28  13  29  13  30  13  31  13  32  13  33   5  34  13
M  ISO  8  35  13  36  13  37  13  38  13  39  13  40  13  41  13  42  13
M  ISO  7  43  13  44  13  45  13  46  13  47  14  48  14  49  14
M  END
>  <minimizedAffinity>  (1) 
-5.577075

>  <minimizedRMSD>  (1) 
1.61747944

$$$$
