
     RDKit          3D

 48 51  0  0  0  0  0  0  0  0999 V2000
   45.2842   35.2974   43.1142 Cl  0  0  0  0  0  0  0  0  0  0  0  0
   45.1712   34.5422   41.5527 C   0  0  0  0  0  0  0  0  0  0  0  0
   46.2725   34.1590   40.8777 C   0  0  0  0  0  0  0  0  0  0  0  0
   46.0720   33.5610   39.6404 C   0  0  0  0  0  0  0  0  0  0  0  0
   44.8208   33.3646   39.1164 C   0  0  0  0  0  0  0  0  0  0  0  0
   43.7237   33.7572   39.8118 C   0  0  0  0  0  0  0  0  0  0  0  0
   43.9089   34.3503   41.0400 C   0  0  0  0  0  0  0  0  0  0  0  0
   49.5468   35.7418   41.8938 C   0  0  0  0  0  0  0  0  0  0  0  0
   48.2889   35.5452   41.3159 C   0  0  0  0  0  0  0  0  0  0  0  0
   47.5729   34.3736   41.4671 C   0  0  0  0  0  0  0  0  0  0  0  0
   48.1853   33.4243   42.2220 N   0  0  0  0  0  0  0  0  0  0  0  0
   49.3923   33.6075   42.7790 C   0  0  0  0  0  0  0  0  0  0  0  0
   50.0634   34.7539   42.6154 N   0  0  0  0  0  0  0  0  0  0  0  0
   47.7934   31.8830   38.9875 C   0  0  0  0  0  0  0  0  0  0  0  0
   47.2243   33.1168   38.8775 C   0  0  0  0  0  0  0  0  0  0  0  0
   47.7590   34.0244   37.9844 C   0  0  0  0  0  0  0  0  0  0  0  0
   48.8479   33.6874   37.2176 C   0  0  0  0  0  0  0  0  0  0  0  0
   49.4459   32.4334   37.3105 C   0  0  0  0  0  0  0  0  0  0  0  0
   48.9003   31.5348   38.2094 C   0  0  0  0  0  0  0  0  0  0  0  0
   47.1938   30.7127   40.0423 S   0  0  0  0  0  0  0  0  0  0  0  0
   46.7898   29.4425   39.3172 O   0  0  0  0  0  0  0  0  0  0  0  0
   48.4456   30.2907   40.8591 O   0  0  0  0  0  0  0  0  0  0  0  0
   44.6987   32.8974   38.1494 H   0  0  0  0  0  0  0  0  0  0  0  0
   42.7097   33.6202   39.4344 H   0  0  0  0  0  0  0  0  0  0  0  0
   43.0204   34.6626   41.5922 H   0  0  0  0  0  0  0  0  0  0  0  0
   50.0910   36.6799   41.7574 H   0  0  0  0  0  0  0  0  0  0  0  0
   47.8810   36.3555   40.7325 H   0  0  0  0  0  0  0  0  0  0  0  0
   49.8182   32.7997   43.3710 H   0  0  0  0  0  0  0  0  0  0  0  0
   47.3219   35.0228   37.8767 H   0  0  0  0  0  0  0  0  0  0  0  0
   49.2396   34.4118   36.5353 H   0  0  0  0  0  0  0  0  0  0  0  0
   50.3021   32.1338   36.7233 H   0  0  0  0  0  0  0  0  0  0  0  0
   49.3677   30.5517   38.2835 H   0  0  0  0  0  0  0  0  0  0  0  0
   43.2926   33.3758   42.6044 H   0  0  0  0  0  0  0  0  0  0  0  0
   43.9744   32.6287   42.4532 N   0  0  0  0  0  0  0  0  0  0  0  0
   43.6610   31.6771   41.4201 C   0  0  0  0  0  0  0  0  0  0  0  0
   44.8106   31.5681   40.4964 C   0  0  0  0  0  0  0  0  0  0  0  0
   46.0046   30.8404   41.2259 C   0  0  0  0  0  0  0  0  0  0  0  0
   46.2277   31.8549   42.3443 C   0  0  0  0  0  0  0  0  0  0  0  0
   45.3479   33.0546   42.3040 C   0  0  0  0  0  0  0  0  0  0  0  0
   43.3949   30.6953   41.8086 H   0  0  0  0  0  0  0  0  0  0  0  0
   42.8092   32.0597   40.8593 H   0  0  0  0  0  0  0  0  0  0  0  0
   45.1553   32.4831   40.0179 H   0  0  0  0  0  0  0  0  0  0  0  0
   44.5517   30.8689   39.6749 H   0  0  0  0  0  0  0  0  0  0  0  0
   45.3861   29.9784   41.5360 H   0  0  0  0  0  0  0  0  0  0  0  0
   47.2901   32.1562   42.3936 H   0  0  0  0  0  0  0  0  0  0  0  0
   45.8826   31.3127   43.2758 H   0  0  0  0  0  0  0  0  0  0  0  0
   45.5355   33.7872   41.5243 H   0  0  0  0  0  0  0  0  0  0  0  0
   45.5683   33.5969   43.2730 H   0  0  0  0  0  0  0  0  0  0  0  0
  2  1  1  0
  3 10  1  0
  3  2  2  0
  4  3  1  0
  5  4  2  0
  5  6  1  0
  6  7  2  0
  7  2  1  0
  8 13  2  0
  9 10  2  0
  9  8  1  0
 10 11  1  0
 11 12  2  0
 13 12  1  0
 14 20  1  0
 15 14  1  0
 15  4  1  0
 16 15  2  0
 17 18  2  0
 17 16  1  0
 18 19  1  0
 19 14  2  0
 20 22  2  0
 21 20  2  0
  5 23  1  0
  6 24  1  0
  7 25  1  0
  8 26  1  0
  9 27  1  0
 12 28  1  0
 16 29  1  0
 17 30  1  0
 18 31  1  0
 19 32  1  0
 33 34  1  0
 34 35  1  0
 35 36  1  0
 36 37  1  0
 37 38  1  0
 38 39  1  0
 39 34  1  0
 35 40  1  0
 35 41  1  0
 36 42  1  0
 36 43  1  0
 37 44  1  0
 38 45  1  0
 38 46  1  0
 39 47  1  0
 39 48  1  0
 20 37  1  0
M  ISO  8  23  14  24  14  25  14  26  14  27  14  28  14  29  14  30  14
M  ISO  3  31  14  32  14  33   5
M  END
>  <DihAtoms>  (1) 
13,19,36,35

>  <DihDeg>  (1) 
-161.75718352574123

$$$$
