
     RDKit          3D

 39 42  0  0  0  0  0  0  0  0999 V2000
   48.1832   35.0532   41.9350 C   0  0  0  0  0  0  0  0  0  0  0  0
   47.0608   34.2586   42.0998 C   0  0  0  0  0  0  0  0  0  0  0  0
   46.5176   33.6785   40.9838 C   0  0  0  0  0  0  0  0  0  0  0  0
   47.0234   33.8421   39.7196 C   0  0  0  0  0  0  0  0  0  0  0  0
   46.6492   33.3697   38.5050 N   0  0  0  0  0  0  0  0  0  0  0  0
   47.5345   33.8661   37.5782 C   0  0  0  0  0  0  0  0  0  0  0  0
   48.4411   34.6377   38.2387 N   0  0  0  0  0  0  0  0  0  0  0  0
   48.1357   34.6284   39.5486 C   0  0  0  0  0  0  0  0  0  0  0  0
   48.7218   35.2385   40.6568 C   0  0  0  0  0  0  0  0  0  0  0  0
   45.1046   34.6238   45.3076 C   0  0  0  0  0  0  0  0  0  0  0  0
   45.5278   34.8602   43.9755 C   0  0  0  0  0  0  0  0  0  0  0  0
   46.5471   34.1033   43.4502 C   0  0  0  0  0  0  0  0  0  0  0  0
   47.1230   33.1460   44.2248 N   0  0  0  0  0  0  0  0  0  0  0  0
   46.7116   32.9261   45.4995 C   0  0  0  0  0  0  0  0  0  0  0  0
   45.7215   33.6530   46.0266 N   0  0  0  0  0  0  0  0  0  0  0  0
   44.0820   35.3867   45.8272 O   0  0  0  0  0  0  0  0  0  0  0  0
   48.6506   35.5354   42.7919 H   0  0  0  0  0  0  0  0  0  0  0  0
   45.6405   33.0592   41.1223 H   0  0  0  0  0  0  0  0  0  0  0  0
   45.8506   32.7467   38.2697 H   0  0  0  0  0  0  0  0  0  0  0  0
   47.5807   33.7257   36.5128 H   0  0  0  0  0  0  0  0  0  0  0  0
   49.6003   35.8660   40.5623 H   0  0  0  0  0  0  0  0  0  0  0  0
   45.0771   35.6162   43.3556 H   0  0  0  0  0  0  0  0  0  0  0  0
   47.2456   32.1393   46.0138 H   0  0  0  0  0  0  0  0  0  0  0  0
   43.3532   32.8528   49.8076 H   0  0  0  0  0  0  0  0  0  0  0  0
   43.0567   33.8088   49.5958 N   0  0  0  0  0  0  0  0  0  0  0  0
   42.0408   33.9491   48.5850 C   0  0  0  0  0  0  0  0  0  0  0  0
   42.5481   34.1438   47.1972 C   0  0  0  0  0  0  0  0  0  0  0  0
   43.6402   35.1832   47.1303 C   0  0  0  0  0  0  0  0  0  0  0  0
   44.7556   34.6685   48.0489 C   0  0  0  0  0  0  0  0  0  0  0  0
   44.1370   34.7557   49.4483 C   0  0  0  0  0  0  0  0  0  0  0  0
   41.4771   32.9703   48.5740 H   0  0  0  0  0  0  0  0  0  0  0  0
   41.3351   34.7390   48.9268 H   0  0  0  0  0  0  0  0  0  0  0  0
   42.9906   33.1796   46.8586 H   0  0  0  0  0  0  0  0  0  0  0  0
   41.6978   34.4592   46.5685 H   0  0  0  0  0  0  0  0  0  0  0  0
   43.2491   36.1336   47.5800 H   0  0  0  0  0  0  0  0  0  0  0  0
   44.9902   33.6176   47.7950 H   0  0  0  0  0  0  0  0  0  0  0  0
   45.6397   35.3089   48.0511 H   0  0  0  0  0  0  0  0  0  0  0  0
   44.8738   34.5473   50.2460 H   0  0  0  0  0  0  0  0  0  0  0  0
   43.7721   35.7836   49.5719 H   0  0  0  0  0  0  0  0  0  0  0  0
  1  2  2  0
  2 12  1  0
  3  2  1  0
  4  3  2  0
  5  4  1  0
  6  7  2  0
  6  5  1  0
  7  8  1  0
  8  4  1  0
  8  9  2  0
  9  1  1  0
 10 16  1  0
 10 15  1  0
 11 10  2  0
 12 11  1  0
 12 13  2  0
 13 14  1  0
 14 15  2  0
  1 17  1  0
  3 18  1  0
  5 19  1  0
  6 20  1  0
  9 21  1  0
 11 22  1  0
 14 23  1  0
 24 25  1  0
 25 26  1  0
 26 27  1  0
 27 28  1  0
 28 29  1  0
 29 30  1  0
 30 25  1  0
 26 31  1  0
 26 32  1  0
 27 33  1  0
 27 34  1  0
 28 35  1  0
 29 36  1  0
 29 37  1  0
 30 38  1  0
 30 39  1  0
 16 28  1  0
M  ISO  8  17  14  18  14  19   9  20  14  21  14  22  14  23  14  24   5
M  END
>  <DihAtoms>  (1) 
9,15,27,26

>  <DihDeg>  (1) 
121.19116208293399

$$$$
