
     RDKit          3D

 39 42  0  0  0  0  0  0  0  0999 V2000
   48.1832   35.0532   41.9350 C   0  0  0  0  0  0  0  0  0  0  0  0
   47.0608   34.2586   42.0998 C   0  0  0  0  0  0  0  0  0  0  0  0
   46.5176   33.6785   40.9838 C   0  0  0  0  0  0  0  0  0  0  0  0
   47.0234   33.8421   39.7196 C   0  0  0  0  0  0  0  0  0  0  0  0
   46.6492   33.3697   38.5050 N   0  0  0  0  0  0  0  0  0  0  0  0
   47.5345   33.8661   37.5782 C   0  0  0  0  0  0  0  0  0  0  0  0
   48.4411   34.6377   38.2387 N   0  0  0  0  0  0  0  0  0  0  0  0
   48.1357   34.6284   39.5486 C   0  0  0  0  0  0  0  0  0  0  0  0
   48.7218   35.2385   40.6568 C   0  0  0  0  0  0  0  0  0  0  0  0
   45.1046   34.6238   45.3076 C   0  0  0  0  0  0  0  0  0  0  0  0
   45.5278   34.8602   43.9755 C   0  0  0  0  0  0  0  0  0  0  0  0
   46.5471   34.1033   43.4502 C   0  0  0  0  0  0  0  0  0  0  0  0
   47.1230   33.1460   44.2248 N   0  0  0  0  0  0  0  0  0  0  0  0
   46.7116   32.9261   45.4995 C   0  0  0  0  0  0  0  0  0  0  0  0
   45.7215   33.6530   46.0266 N   0  0  0  0  0  0  0  0  0  0  0  0
   44.0820   35.3867   45.8272 O   0  0  0  0  0  0  0  0  0  0  0  0
   48.6506   35.5354   42.7919 H   0  0  0  0  0  0  0  0  0  0  0  0
   45.6405   33.0592   41.1223 H   0  0  0  0  0  0  0  0  0  0  0  0
   45.8506   32.7467   38.2697 H   0  0  0  0  0  0  0  0  0  0  0  0
   47.5807   33.7257   36.5128 H   0  0  0  0  0  0  0  0  0  0  0  0
   49.6003   35.8660   40.5623 H   0  0  0  0  0  0  0  0  0  0  0  0
   45.0771   35.6162   43.3556 H   0  0  0  0  0  0  0  0  0  0  0  0
   47.2456   32.1393   46.0138 H   0  0  0  0  0  0  0  0  0  0  0  0
   42.5450   36.7390   50.1406 H   0  0  0  0  0  0  0  0  0  0  0  0
   42.7601   35.7964   49.8056 N   0  0  0  0  0  0  0  0  0  0  0  0
   44.1483   35.5170   49.5444 C   0  0  0  0  0  0  0  0  0  0  0  0
   44.5938   35.7663   48.1441 C   0  0  0  0  0  0  0  0  0  0  0  0
   43.6402   35.1832   47.1303 C   0  0  0  0  0  0  0  0  0  0  0  0
   42.2896   35.8591   47.3988 C   0  0  0  0  0  0  0  0  0  0  0  0
   41.8796   35.3099   48.7696 C   0  0  0  0  0  0  0  0  0  0  0  0
   44.7357   36.2351   50.1887 H   0  0  0  0  0  0  0  0  0  0  0  0
   44.3577   34.4876   49.9123 H   0  0  0  0  0  0  0  0  0  0  0  0
   44.6108   36.8682   47.9840 H   0  0  0  0  0  0  0  0  0  0  0  0
   45.5905   35.3088   48.0210 H   0  0  0  0  0  0  0  0  0  0  0  0
   43.5167   34.0904   47.3516 H   0  0  0  0  0  0  0  0  0  0  0  0
   42.4265   36.9558   47.4471 H   0  0  0  0  0  0  0  0  0  0  0  0
   41.5129   35.5622   46.6915 H   0  0  0  0  0  0  0  0  0  0  0  0
   40.8487   35.5991   49.0456 H   0  0  0  0  0  0  0  0  0  0  0  0
   41.9274   34.2154   48.7016 H   0  0  0  0  0  0  0  0  0  0  0  0
  1  2  2  0
  2 12  1  0
  3  2  1  0
  4  3  2  0
  5  4  1  0
  6  7  2  0
  6  5  1  0
  7  8  1  0
  8  4  1  0
  8  9  2  0
  9  1  1  0
 10 16  1  0
 10 15  1  0
 11 10  2  0
 12 11  1  0
 12 13  2  0
 13 14  1  0
 14 15  2  0
  1 17  1  0
  3 18  1  0
  5 19  1  0
  6 20  1  0
  9 21  1  0
 11 22  1  0
 14 23  1  0
 24 25  1  0
 25 26  1  0
 26 27  1  0
 27 28  1  0
 28 29  1  0
 29 30  1  0
 30 25  1  0
 26 31  1  0
 26 32  1  0
 27 33  1  0
 27 34  1  0
 28 35  1  0
 29 36  1  0
 29 37  1  0
 30 38  1  0
 30 39  1  0
 16 28  1  0
M  ISO  8  17  14  18  14  19   9  20  14  21  14  22  14  23  14  24   5
M  END
>  <DihAtoms>  (1) 
9,15,27,26

>  <DihDeg>  (1) 
121.19116208293399

$$$$
