
     RDKit          3D

 39 42  0  0  0  0  0  0  0  0999 V2000
   48.1832   35.0532   41.9350 C   0  0  0  0  0  0  0  0  0  0  0  0
   47.0608   34.2586   42.0998 C   0  0  0  0  0  0  0  0  0  0  0  0
   46.5176   33.6785   40.9838 C   0  0  0  0  0  0  0  0  0  0  0  0
   47.0234   33.8421   39.7196 C   0  0  0  0  0  0  0  0  0  0  0  0
   46.6492   33.3697   38.5050 N   0  0  0  0  0  0  0  0  0  0  0  0
   47.5345   33.8661   37.5782 C   0  0  0  0  0  0  0  0  0  0  0  0
   48.4411   34.6377   38.2387 N   0  0  0  0  0  0  0  0  0  0  0  0
   48.1357   34.6284   39.5486 C   0  0  0  0  0  0  0  0  0  0  0  0
   48.7218   35.2385   40.6568 C   0  0  0  0  0  0  0  0  0  0  0  0
   45.1046   34.6238   45.3076 C   0  0  0  0  0  0  0  0  0  0  0  0
   45.5278   34.8602   43.9755 C   0  0  0  0  0  0  0  0  0  0  0  0
   46.5471   34.1033   43.4502 C   0  0  0  0  0  0  0  0  0  0  0  0
   47.1230   33.1460   44.2248 N   0  0  0  0  0  0  0  0  0  0  0  0
   46.7116   32.9261   45.4995 C   0  0  0  0  0  0  0  0  0  0  0  0
   45.7215   33.6530   46.0266 N   0  0  0  0  0  0  0  0  0  0  0  0
   44.0820   35.3867   45.8272 O   0  0  0  0  0  0  0  0  0  0  0  0
   48.6506   35.5354   42.7919 H   0  0  0  0  0  0  0  0  0  0  0  0
   45.6405   33.0592   41.1223 H   0  0  0  0  0  0  0  0  0  0  0  0
   45.8506   32.7467   38.2697 H   0  0  0  0  0  0  0  0  0  0  0  0
   47.5807   33.7257   36.5128 H   0  0  0  0  0  0  0  0  0  0  0  0
   49.6003   35.8660   40.5623 H   0  0  0  0  0  0  0  0  0  0  0  0
   45.0771   35.6162   43.3556 H   0  0  0  0  0  0  0  0  0  0  0  0
   47.2456   32.1393   46.0138 H   0  0  0  0  0  0  0  0  0  0  0  0
   44.2693   35.8065   50.5795 H   0  0  0  0  0  0  0  0  0  0  0  0
   43.6084   35.2708   50.0112 N   0  0  0  0  0  0  0  0  0  0  0  0
   44.1451   34.1237   49.3257 C   0  0  0  0  0  0  0  0  0  0  0  0
   44.6294   34.3811   47.9399 C   0  0  0  0  0  0  0  0  0  0  0  0
   43.6402   35.1832   47.1303 C   0  0  0  0  0  0  0  0  0  0  0  0
   43.4549   36.5005   47.8940 C   0  0  0  0  0  0  0  0  0  0  0  0
   42.7407   36.0722   49.1805 C   0  0  0  0  0  0  0  0  0  0  0  0
   45.0536   33.8062   49.9171 H   0  0  0  0  0  0  0  0  0  0  0  0
   43.3932   33.3066   49.4009 H   0  0  0  0  0  0  0  0  0  0  0  0
   45.5619   34.9854   48.0124 H   0  0  0  0  0  0  0  0  0  0  0  0
   44.7989   33.4043   47.4552 H   0  0  0  0  0  0  0  0  0  0  0  0
   42.6553   34.6464   47.1464 H   0  0  0  0  0  0  0  0  0  0  0  0
   44.4445   36.9361   48.1282 H   0  0  0  0  0  0  0  0  0  0  0  0
   42.7952   37.2041   47.3827 H   0  0  0  0  0  0  0  0  0  0  0  0
   42.4084   36.9375   49.7834 H   0  0  0  0  0  0  0  0  0  0  0  0
   41.8550   35.4989   48.8775 H   0  0  0  0  0  0  0  0  0  0  0  0
  1  2  2  0
  2 12  1  0
  3  2  1  0
  4  3  2  0
  5  4  1  0
  6  7  2  0
  6  5  1  0
  7  8  1  0
  8  4  1  0
  8  9  2  0
  9  1  1  0
 10 16  1  0
 10 15  1  0
 11 10  2  0
 12 11  1  0
 12 13  2  0
 13 14  1  0
 14 15  2  0
  1 17  1  0
  3 18  1  0
  5 19  1  0
  6 20  1  0
  9 21  1  0
 11 22  1  0
 14 23  1  0
 24 25  1  0
 25 26  1  0
 26 27  1  0
 27 28  1  0
 28 29  1  0
 29 30  1  0
 30 25  1  0
 26 31  1  0
 26 32  1  0
 27 33  1  0
 27 34  1  0
 28 35  1  0
 29 36  1  0
 29 37  1  0
 30 38  1  0
 30 39  1  0
 16 28  1  0
M  ISO  8  17  14  18  14  19   9  20  14  21  14  22  14  23  14  24   5
M  END
>  <DihAtoms>  (1) 
9,15,27,26

>  <DihDeg>  (1) 
121.19116208293399

$$$$
