
     RDKit          3D

 46 48  0  0  0  0  0  0  0  0999 V2000
   42.1997   34.1812   40.1940 C   0  0  0  0  0  0  0  0  0  0  0  0
   42.2880   35.1309   41.1906 C   0  0  0  0  0  0  0  0  0  0  0  0
   41.2376   36.0095   41.3448 C   0  0  0  0  0  0  0  0  0  0  0  0
   40.1495   35.9328   40.5312 C   0  0  0  0  0  0  0  0  0  0  0  0
   40.0363   35.0019   39.5363 C   0  0  0  0  0  0  0  0  0  0  0  0
   41.1179   34.1337   39.4134 C   0  0  0  0  0  0  0  0  0  0  0  0
   44.6106   31.2984   40.5988 C   0  0  0  0  0  0  0  0  0  0  0  0
   43.4775   32.0982   40.7854 C   0  0  0  0  0  0  0  0  0  0  0  0
   43.3437   33.2729   40.0741 C   0  0  0  0  0  0  0  0  0  0  0  0
   44.3391   33.5840   39.2221 N   0  0  0  0  0  0  0  0  0  0  0  0
   45.4382   32.8217   39.0321 C   0  0  0  0  0  0  0  0  0  0  0  0
   45.5670   31.6719   39.7296 N   0  0  0  0  0  0  0  0  0  0  0  0
   43.4824   35.2072   42.0760 C   0  0  0  0  0  0  0  0  0  0  0  0
   43.2235   35.6711   43.4061 N   0  0  0  0  0  0  0  0  0  0  0  0
   44.6570   35.8393   44.3422 S   0  0  0  0  0  0  0  0  0  0  0  0
   45.8310   35.2092   43.6517 O   0  0  0  0  0  0  0  0  0  0  0  0
   44.4847   35.3045   45.7076 O   0  0  0  0  0  0  0  0  0  0  0  0
   44.9294   37.5175   44.4300 O   0  0  0  0  0  0  0  0  0  0  0  0
   41.2757   36.7752   42.1259 H   0  0  0  0  0  0  0  0  0  0  0  0
   39.3444   36.6577   40.7001 H   0  0  0  0  0  0  0  0  0  0  0  0
   39.1809   34.9233   38.8785 H   0  0  0  0  0  0  0  0  0  0  0  0
   41.0726   33.3724   38.6319 H   0  0  0  0  0  0  0  0  0  0  0  0
   44.6806   30.3897   41.1705 H   0  0  0  0  0  0  0  0  0  0  0  0
   42.6642   31.8739   41.4612 H   0  0  0  0  0  0  0  0  0  0  0  0
   46.1339   33.2261   38.3097 H   0  0  0  0  0  0  0  0  0  0  0  0
   43.9974   34.2023   42.0544 H   0  0  0  0  0  0  0  0  0  0  0  0
   44.2025   35.8964   41.5552 H   0  0  0  0  0  0  0  0  0  0  0  0
   42.6343   34.9328   43.8880 H   0  0  0  0  0  0  0  0  0  0  0  0
   46.2301   34.3205   43.8778 H   0  0  0  0  0  0  0  0  0  0  0  0
   44.9987   35.5953   46.4813 H   0  0  0  0  0  0  0  0  0  0  0  0
   41.2609   40.7605   45.7083 H   0  0  0  0  0  0  0  0  0  0  0  0
   41.6211   39.7644   45.6887 N   0  0  0  0  0  0  0  0  0  0  0  0
   42.8753   39.8051   46.4124 C   0  0  0  0  0  0  0  0  0  0  0  0
   43.6967   38.5466   46.2517 C   0  0  0  0  0  0  0  0  0  0  0  0
   43.7162   38.0617   44.8249 C   0  0  0  0  0  0  0  0  0  0  0  0
   43.2872   39.2439   43.9607 C   0  0  0  0  0  0  0  0  0  0  0  0
   41.8021   39.4359   44.2902 C   0  0  0  0  0  0  0  0  0  0  0  0
   42.6304   39.9231   47.4868 H   0  0  0  0  0  0  0  0  0  0  0  0
   43.4491   40.7140   46.1141 H   0  0  0  0  0  0  0  0  0  0  0  0
   43.2771   37.7479   46.8830 H   0  0  0  0  0  0  0  0  0  0  0  0
   44.7068   38.7893   46.6545 H   0  0  0  0  0  0  0  0  0  0  0  0
   42.8931   37.3141   44.7003 H   0  0  0  0  0  0  0  0  0  0  0  0
   43.8481   40.1623   44.1806 H   0  0  0  0  0  0  0  0  0  0  0  0
   43.3445   39.0398   42.8888 H   0  0  0  0  0  0  0  0  0  0  0  0
   41.3495   38.4385   44.0763 H   0  0  0  0  0  0  0  0  0  0  0  0
   41.3423   40.1608   43.6173 H   0  0  0  0  0  0  0  0  0  0  0  0
  1  2  1  0
  2  3  2  0
  2 13  1  0
  4  3  1  0
  5  4  2  0
  6  5  1  0
  6  1  2  0
  7  8  2  0
  9  1  1  0
  9  8  1  0
 10  9  2  0
 11 10  1  0
 11 12  2  0
 12  7  1  0
 13 14  1  0
 14 15  1  0
 15 18  1  0
 15 17  1  0
 16 15  1  0
  3 19  1  0
  4 20  1  0
  5 21  1  0
  6 22  1  0
  7 23  1  0
  8 24  1  0
 11 25  1  0
 13 26  1  0
 13 27  1  0
 14 28  1  0
 16 29  1  0
 17 30  1  0
 31 32  1  0
 32 33  1  0
 33 34  1  0
 34 35  1  0
 35 36  1  0
 36 37  1  0
 37 32  1  0
 33 38  1  0
 33 39  1  0
 34 40  1  0
 34 41  1  0
 35 42  1  0
 36 43  1  0
 36 44  1  0
 37 45  1  0
 37 46  1  0
 18 35  1  0
M  ISO  8  19  14  20  14  21  14  22  14  23  14  24  14  25  14  26   8
M  ISO  5  27   8  28   5  29   3  30   3  31   5
M  END
>  <DihAtoms>  (1) 
14,17,34,33

>  <DihDeg>  (1) 
121.98255321485198

$$$$
