
     RDKit          3D

 46 48  0  0  0  0  0  0  0  0999 V2000
   42.1997   34.1812   40.1940 C   0  0  0  0  0  0  0  0  0  0  0  0
   42.2880   35.1309   41.1906 C   0  0  0  0  0  0  0  0  0  0  0  0
   41.2376   36.0095   41.3448 C   0  0  0  0  0  0  0  0  0  0  0  0
   40.1495   35.9328   40.5312 C   0  0  0  0  0  0  0  0  0  0  0  0
   40.0363   35.0019   39.5363 C   0  0  0  0  0  0  0  0  0  0  0  0
   41.1179   34.1337   39.4134 C   0  0  0  0  0  0  0  0  0  0  0  0
   44.6106   31.2984   40.5988 C   0  0  0  0  0  0  0  0  0  0  0  0
   43.4775   32.0982   40.7854 C   0  0  0  0  0  0  0  0  0  0  0  0
   43.3437   33.2729   40.0741 C   0  0  0  0  0  0  0  0  0  0  0  0
   44.3391   33.5840   39.2221 N   0  0  0  0  0  0  0  0  0  0  0  0
   45.4382   32.8217   39.0321 C   0  0  0  0  0  0  0  0  0  0  0  0
   45.5670   31.6719   39.7296 N   0  0  0  0  0  0  0  0  0  0  0  0
   43.4824   35.2072   42.0760 C   0  0  0  0  0  0  0  0  0  0  0  0
   43.2235   35.6711   43.4061 N   0  0  0  0  0  0  0  0  0  0  0  0
   44.6570   35.8393   44.3422 S   0  0  0  0  0  0  0  0  0  0  0  0
   45.8310   35.2092   43.6517 O   0  0  0  0  0  0  0  0  0  0  0  0
   44.4847   35.3045   45.7076 O   0  0  0  0  0  0  0  0  0  0  0  0
   44.9294   37.5175   44.4300 O   0  0  0  0  0  0  0  0  0  0  0  0
   41.2757   36.7752   42.1259 H   0  0  0  0  0  0  0  0  0  0  0  0
   39.3444   36.6577   40.7001 H   0  0  0  0  0  0  0  0  0  0  0  0
   39.1809   34.9233   38.8785 H   0  0  0  0  0  0  0  0  0  0  0  0
   41.0726   33.3724   38.6319 H   0  0  0  0  0  0  0  0  0  0  0  0
   44.6806   30.3897   41.1705 H   0  0  0  0  0  0  0  0  0  0  0  0
   42.6642   31.8739   41.4612 H   0  0  0  0  0  0  0  0  0  0  0  0
   46.1339   33.2261   38.3097 H   0  0  0  0  0  0  0  0  0  0  0  0
   43.9974   34.2023   42.0544 H   0  0  0  0  0  0  0  0  0  0  0  0
   44.2025   35.8964   41.5552 H   0  0  0  0  0  0  0  0  0  0  0  0
   42.6343   34.9328   43.8880 H   0  0  0  0  0  0  0  0  0  0  0  0
   46.2301   34.3205   43.8778 H   0  0  0  0  0  0  0  0  0  0  0  0
   44.9987   35.5953   46.4813 H   0  0  0  0  0  0  0  0  0  0  0  0
   41.3924   40.3153   46.7258 H   0  0  0  0  0  0  0  0  0  0  0  0
   41.6343   39.4689   46.1366 N   0  0  0  0  0  0  0  0  0  0  0  0
   42.5527   38.6970   46.9485 C   0  0  0  0  0  0  0  0  0  0  0  0
   43.2470   37.5966   46.1795 C   0  0  0  0  0  0  0  0  0  0  0  0
   43.7162   38.0617   44.8249 C   0  0  0  0  0  0  0  0  0  0  0  0
   43.7386   39.5866   44.8754 C   0  0  0  0  0  0  0  0  0  0  0  0
   42.2597   39.9863   44.9375 C   0  0  0  0  0  0  0  0  0  0  0  0
   41.9602   38.2303   47.7604 H   0  0  0  0  0  0  0  0  0  0  0  0
   43.2832   39.3822   47.4397 H   0  0  0  0  0  0  0  0  0  0  0  0
   42.5546   36.7526   46.0349 H   0  0  0  0  0  0  0  0  0  0  0  0
   44.0710   37.2383   46.8385 H   0  0  0  0  0  0  0  0  0  0  0  0
   42.9180   37.8208   44.0787 H   0  0  0  0  0  0  0  0  0  0  0  0
   44.2765   39.9794   45.7489 H   0  0  0  0  0  0  0  0  0  0  0  0
   44.1471   40.0437   43.9708 H   0  0  0  0  0  0  0  0  0  0  0  0
   41.8126   39.4980   44.0392 H   0  0  0  0  0  0  0  0  0  0  0  0
   42.1404   41.0645   44.8238 H   0  0  0  0  0  0  0  0  0  0  0  0
  1  2  1  0
  2  3  2  0
  2 13  1  0
  4  3  1  0
  5  4  2  0
  6  5  1  0
  6  1  2  0
  7  8  2  0
  9  1  1  0
  9  8  1  0
 10  9  2  0
 11 10  1  0
 11 12  2  0
 12  7  1  0
 13 14  1  0
 14 15  1  0
 15 18  1  0
 15 17  1  0
 16 15  1  0
  3 19  1  0
  4 20  1  0
  5 21  1  0
  6 22  1  0
  7 23  1  0
  8 24  1  0
 11 25  1  0
 13 26  1  0
 13 27  1  0
 14 28  1  0
 16 29  1  0
 17 30  1  0
 31 32  1  0
 32 33  1  0
 33 34  1  0
 34 35  1  0
 35 36  1  0
 36 37  1  0
 37 32  1  0
 33 38  1  0
 33 39  1  0
 34 40  1  0
 34 41  1  0
 35 42  1  0
 36 43  1  0
 36 44  1  0
 37 45  1  0
 37 46  1  0
 18 35  1  0
M  ISO  8  19  14  20  14  21  14  22  14  23  14  24  14  25  14  26   8
M  ISO  5  27   8  28   5  29   3  30   3  31   5
M  END
>  <DihAtoms>  (1) 
14,17,34,33

>  <DihDeg>  (1) 
121.98255321485198

$$$$
