
     RDKit          3D

 35 37  0  0  0  0  0  0  0  0999 V2000
   45.6241   32.2013   48.4631 C   0  0  0  0  0  0  0  0  0  0  0  0
   45.3458   33.1440   47.4774 C   0  0  0  0  0  0  0  0  0  0  0  0
   46.0298   33.0433   46.2619 C   0  0  0  0  0  0  0  0  0  0  0  0
   46.9233   32.0347   46.1138 N   0  0  0  0  0  0  0  0  0  0  0  0
   47.1664   31.1394   47.0927 C   0  0  0  0  0  0  0  0  0  0  0  0
   46.5206   31.2239   48.2577 N   0  0  0  0  0  0  0  0  0  0  0  0
   45.7691   34.0055   45.2086 C   0  0  0  0  0  0  0  0  0  0  0  0
   46.4314   33.9109   44.0064 C   0  0  0  0  0  0  0  0  0  0  0  0
   46.1212   34.8707   43.0587 C   0  0  0  0  0  0  0  0  0  0  0  0
   45.1870   35.8515   43.3558 C   0  0  0  0  0  0  0  0  0  0  0  0
   44.5353   35.9102   44.5955 C   0  0  0  0  0  0  0  0  0  0  0  0
   44.8667   34.9527   45.4961 N   0  0  0  0  0  0  0  0  0  0  0  0
   44.4433   34.1668   47.6204 O   0  0  0  0  0  0  0  0  0  0  0  0
   45.1009   32.2689   49.4085 H   0  0  0  0  0  0  0  0  0  0  0  0
   47.9069   30.4035   46.8060 H   0  0  0  0  0  0  0  0  0  0  0  0
   47.1509   33.1484   43.7895 H   0  0  0  0  0  0  0  0  0  0  0  0
   46.5764   34.8932   42.0880 H   0  0  0  0  0  0  0  0  0  0  0  0
   44.9075   36.6281   42.6475 H   0  0  0  0  0  0  0  0  0  0  0  0
   43.8100   36.6867   44.8012 H   0  0  0  0  0  0  0  0  0  0  0  0
   43.1757   35.7597   51.6486 H   0  0  0  0  0  0  0  0  0  0  0  0
   44.0129   35.1648   51.5018 N   0  0  0  0  0  0  0  0  0  0  0  0
   44.8628   35.7059   50.4550 C   0  0  0  0  0  0  0  0  0  0  0  0
   44.0595   35.8459   49.1983 C   0  0  0  0  0  0  0  0  0  0  0  0
   43.6588   34.4563   48.7288 C   0  0  0  0  0  0  0  0  0  0  0  0
   44.0043   33.3976   49.7759 C   0  0  0  0  0  0  0  0  0  0  0  0
   43.5801   33.8409   51.1510 C   0  0  0  0  0  0  0  0  0  0  0  0
   45.6757   34.9732   50.2472 H   0  0  0  0  0  0  0  0  0  0  0  0
   45.3349   36.6513   50.7465 H   0  0  0  0  0  0  0  0  0  0  0  0
   43.1631   36.4873   49.3960 H   0  0  0  0  0  0  0  0  0  0  0  0
   44.6766   36.3841   48.4494 H   0  0  0  0  0  0  0  0  0  0  0  0
   42.5818   34.4420   48.5817 H   0  0  0  0  0  0  0  0  0  0  0  0
   43.3742   32.5067   49.5129 H   0  0  0  0  0  0  0  0  0  0  0  0
   45.0668   33.0933   49.7290 H   0  0  0  0  0  0  0  0  0  0  0  0
   42.4585   33.7529   51.1850 H   0  0  0  0  0  0  0  0  0  0  0  0
   43.9669   33.1286   51.8867 H   0  0  0  0  0  0  0  0  0  0  0  0
  2 13  1  0
  2  1  2  0
  3  2  1  0
  4  3  2  0
  4  5  1  0
  5  6  2  0
  6  1  1  0
  7 12  1  0
  7  3  1  0
  8  7  2  0
  9 10  2  0
  9  8  1  0
 10 11  1  0
 11 12  2  0
  1 14  1  0
  5 15  1  0
  8 16  1  0
  9 17  1  0
 10 18  1  0
 11 19  1  0
 20 21  1  0
 21 22  1  0
 22 23  1  0
 23 24  1  0
 24 25  1  0
 25 26  1  0
 26 21  1  0
 22 27  1  0
 22 28  1  0
 23 29  1  0
 23 30  1  0
 24 31  1  0
 25 32  1  0
 25 33  1  0
 26 34  1  0
 26 35  1  0
 13 24  1  0
M  ISO  7  14  14  15  14  16  14  17  14  18  14  19  14  20   5
M  END
>  <DihAtoms>  (1) 
1,12,23,22

>  <DihDeg>  (1) 
-121.28406580163957

$$$$
