
     RDKit          3D

 35 37  0  0  0  0  0  0  0  0999 V2000
   45.6241   32.2013   48.4631 C   0  0  0  0  0  0  0  0  0  0  0  0
   45.3458   33.1440   47.4774 C   0  0  0  0  0  0  0  0  0  0  0  0
   46.0298   33.0433   46.2619 C   0  0  0  0  0  0  0  0  0  0  0  0
   46.9233   32.0347   46.1138 N   0  0  0  0  0  0  0  0  0  0  0  0
   47.1664   31.1394   47.0927 C   0  0  0  0  0  0  0  0  0  0  0  0
   46.5206   31.2239   48.2577 N   0  0  0  0  0  0  0  0  0  0  0  0
   45.7691   34.0055   45.2086 C   0  0  0  0  0  0  0  0  0  0  0  0
   46.4314   33.9109   44.0064 C   0  0  0  0  0  0  0  0  0  0  0  0
   46.1212   34.8707   43.0587 C   0  0  0  0  0  0  0  0  0  0  0  0
   45.1870   35.8515   43.3558 C   0  0  0  0  0  0  0  0  0  0  0  0
   44.5353   35.9102   44.5955 C   0  0  0  0  0  0  0  0  0  0  0  0
   44.8667   34.9527   45.4961 N   0  0  0  0  0  0  0  0  0  0  0  0
   44.4433   34.1668   47.6204 O   0  0  0  0  0  0  0  0  0  0  0  0
   45.1009   32.2689   49.4085 H   0  0  0  0  0  0  0  0  0  0  0  0
   47.9069   30.4035   46.8060 H   0  0  0  0  0  0  0  0  0  0  0  0
   47.1509   33.1484   43.7895 H   0  0  0  0  0  0  0  0  0  0  0  0
   46.5764   34.8932   42.0880 H   0  0  0  0  0  0  0  0  0  0  0  0
   44.9075   36.6281   42.6475 H   0  0  0  0  0  0  0  0  0  0  0  0
   43.8100   36.6867   44.8012 H   0  0  0  0  0  0  0  0  0  0  0  0
   40.8196   34.7032   50.2569 H   0  0  0  0  0  0  0  0  0  0  0  0
   40.9192   35.1366   49.3195 N   0  0  0  0  0  0  0  0  0  0  0  0
   41.2663   34.1432   48.3176 C   0  0  0  0  0  0  0  0  0  0  0  0
   42.5233   33.4451   48.7381 C   0  0  0  0  0  0  0  0  0  0  0  0
   43.6588   34.4563   48.7288 C   0  0  0  0  0  0  0  0  0  0  0  0
   43.1339   35.8756   48.5126 C   0  0  0  0  0  0  0  0  0  0  0  0
   41.9379   36.1469   49.3864 C   0  0  0  0  0  0  0  0  0  0  0  0
   41.4854   34.6697   47.3607 H   0  0  0  0  0  0  0  0  0  0  0  0
   40.4496   33.4371   48.1283 H   0  0  0  0  0  0  0  0  0  0  0  0
   42.3809   32.9964   49.7541 H   0  0  0  0  0  0  0  0  0  0  0  0
   42.7023   32.6012   48.0401 H   0  0  0  0  0  0  0  0  0  0  0  0
   44.1519   34.4262   49.6971 H   0  0  0  0  0  0  0  0  0  0  0  0
   43.9564   36.5512   48.8686 H   0  0  0  0  0  0  0  0  0  0  0  0
   42.9468   36.0948   47.4446 H   0  0  0  0  0  0  0  0  0  0  0  0
   42.3277   36.2685   50.4354 H   0  0  0  0  0  0  0  0  0  0  0  0
   41.5066   37.1127   49.1047 H   0  0  0  0  0  0  0  0  0  0  0  0
  2 13  1  0
  2  1  2  0
  3  2  1  0
  4  3  2  0
  4  5  1  0
  5  6  2  0
  6  1  1  0
  7 12  1  0
  7  3  1  0
  8  7  2  0
  9 10  2  0
  9  8  1  0
 10 11  1  0
 11 12  2  0
  1 14  1  0
  5 15  1  0
  8 16  1  0
  9 17  1  0
 10 18  1  0
 11 19  1  0
 20 21  1  0
 21 22  1  0
 22 23  1  0
 23 24  1  0
 24 25  1  0
 25 26  1  0
 26 21  1  0
 22 27  1  0
 22 28  1  0
 23 29  1  0
 23 30  1  0
 24 31  1  0
 25 32  1  0
 25 33  1  0
 26 34  1  0
 26 35  1  0
 13 24  1  0
M  ISO  7  14  14  15  14  16  14  17  14  18  14  19  14  20   5
M  END
>  <DihAtoms>  (1) 
1,12,23,22

>  <DihDeg>  (1) 
-121.28406580163957

$$$$
