
     RDKit          3D

 34 36  0  0  0  0  0  0  0  0999 V2000
   45.8051   32.7542   45.8626 C   0  0  1  0  0  0  0  0  0  0  0  0
   46.8667   32.8031   46.9209 C   0  0  0  0  0  0  0  0  0  0  0  0
   45.3627   32.8069   47.2601 C   0  0  2  0  0  0  0  0  0  0  0  0
   44.6149   36.0266   44.5655 C   0  0  0  0  0  0  0  0  0  0  0  0
   45.2968   36.0793   43.3003 C   0  0  0  0  0  0  0  0  0  0  0  0
   46.1486   34.9911   42.9362 C   0  0  0  0  0  0  0  0  0  0  0  0
   46.2818   33.9655   43.7804 N   0  0  0  0  0  0  0  0  0  0  0  0
   45.6158   33.9469   44.9826 C   0  0  0  0  0  0  0  0  0  0  0  0
   44.7943   34.9716   45.3601 N   0  0  0  0  0  0  0  0  0  0  0  0
   44.8893   31.6737   47.9743 N   0  0  0  0  0  0  0  0  0  0  0  0
   45.7147   31.7987   45.3105 H   0  0  0  0  0  0  0  0  0  0  0  0
   47.4270   31.8862   47.0749 H   0  0  0  0  0  0  0  0  0  0  0  0
   47.3995   33.7789   46.9778 H   0  0  0  0  0  0  0  0  0  0  0  0
   45.0240   33.7855   47.7148 H   0  0  0  0  0  0  0  0  0  0  0  0
   43.9778   36.8617   44.8148 H   0  0  0  0  0  0  0  0  0  0  0  0
   45.1402   36.9424   42.6685 H   0  0  0  0  0  0  0  0  0  0  0  0
   46.6371   35.0802   41.9760 H   0  0  0  0  0  0  0  0  0  0  0  0
   43.9932   31.3456   47.5171 H   0  0  0  0  0  0  0  0  0  0  0  0
   45.4190   34.8132   51.6350 H   0  0  0  0  0  0  0  0  0  0  0  0
   45.8196   34.1585   50.9106 N   0  0  0  0  0  0  0  0  0  0  0  0
   45.2355   34.3841   49.6046 C   0  0  0  0  0  0  0  0  0  0  0  0
   44.0640   33.4729   49.3450 C   0  0  0  0  0  0  0  0  0  0  0  0
   44.5283   32.0307   49.3329 C   0  0  0  0  0  0  0  0  0  0  0  0
   45.7248   31.8361   50.2584 C   0  0  0  0  0  0  0  0  0  0  0  0
   45.6297   32.8259   51.3978 C   0  0  0  0  0  0  0  0  0  0  0  0
   46.0005   34.2185   48.8199 H   0  0  0  0  0  0  0  0  0  0  0  0
   44.8586   35.4300   49.5594 H   0  0  0  0  0  0  0  0  0  0  0  0
   43.6700   33.7016   48.3408 H   0  0  0  0  0  0  0  0  0  0  0  0
   43.2671   33.6573   50.1094 H   0  0  0  0  0  0  0  0  0  0  0  0
   43.7263   31.4213   49.7544 H   0  0  0  0  0  0  0  0  0  0  0  0
   45.6965   30.8231   50.7384 H   0  0  0  0  0  0  0  0  0  0  0  0
   46.6784   31.9839   49.7248 H   0  0  0  0  0  0  0  0  0  0  0  0
   44.6824   32.7378   51.9305 H   0  0  0  0  0  0  0  0  0  0  0  0
   46.5137   32.5979   52.0554 H   0  0  0  0  0  0  0  0  0  0  0  0
  1  2  1  0
  1  3  1  0
  2  3  1  0
  3 10  1  0
  4  9  2  0
  5  4  1  0
  6  5  2  0
  6  7  1  0
  7  8  2  0
  8  9  1  0
  8  1  1  0
  1 11  1  6
  2 12  1  0
  2 13  1  0
  3 14  1  6
  4 15  1  0
  5 16  1  0
  6 17  1  0
 10 18  1  0
 19 20  1  0
 20 21  1  0
 21 22  1  0
 22 23  1  0
 23 24  1  0
 24 25  1  0
 25 20  1  0
 21 26  1  0
 21 27  1  0
 22 28  1  0
 22 29  1  0
 23 30  1  0
 24 31  1  0
 24 32  1  0
 25 33  1  0
 25 34  1  0
 10 23  1  0
M  ISO  8  11  13  12  13  13  13  14  13  15  14  16  14  17  14  18   5
M  ISO  1  19   5
M  END
>  <DihAtoms>  (1) 
2,9,22,21

>  <DihDeg>  (1) 
179.99732139848516

$$$$
