
     RDKit          3D

 34 36  0  0  0  0  0  0  0  0999 V2000
   45.8051   32.7542   45.8626 C   0  0  1  0  0  0  0  0  0  0  0  0
   46.8667   32.8031   46.9209 C   0  0  0  0  0  0  0  0  0  0  0  0
   45.3627   32.8069   47.2601 C   0  0  2  0  0  0  0  0  0  0  0  0
   44.6149   36.0266   44.5655 C   0  0  0  0  0  0  0  0  0  0  0  0
   45.2968   36.0793   43.3003 C   0  0  0  0  0  0  0  0  0  0  0  0
   46.1486   34.9911   42.9362 C   0  0  0  0  0  0  0  0  0  0  0  0
   46.2818   33.9655   43.7804 N   0  0  0  0  0  0  0  0  0  0  0  0
   45.6158   33.9469   44.9826 C   0  0  0  0  0  0  0  0  0  0  0  0
   44.7943   34.9716   45.3601 N   0  0  0  0  0  0  0  0  0  0  0  0
   44.8893   31.6737   47.9743 N   0  0  0  0  0  0  0  0  0  0  0  0
   45.7147   31.7987   45.3105 H   0  0  0  0  0  0  0  0  0  0  0  0
   47.4270   31.8862   47.0749 H   0  0  0  0  0  0  0  0  0  0  0  0
   47.3995   33.7789   46.9778 H   0  0  0  0  0  0  0  0  0  0  0  0
   45.0240   33.7855   47.7148 H   0  0  0  0  0  0  0  0  0  0  0  0
   43.9778   36.8617   44.8148 H   0  0  0  0  0  0  0  0  0  0  0  0
   45.1402   36.9424   42.6685 H   0  0  0  0  0  0  0  0  0  0  0  0
   46.6371   35.0802   41.9760 H   0  0  0  0  0  0  0  0  0  0  0  0
   43.9932   31.3456   47.5171 H   0  0  0  0  0  0  0  0  0  0  0  0
   41.8365   34.0828   50.8750 H   0  0  0  0  0  0  0  0  0  0  0  0
   42.5053   34.0466   50.0593 N   0  0  0  0  0  0  0  0  0  0  0  0
   42.2270   32.9227   49.1893 C   0  0  0  0  0  0  0  0  0  0  0  0
   43.0604   31.7174   49.5396 C   0  0  0  0  0  0  0  0  0  0  0  0
   44.5283   32.0307   49.3329 C   0  0  0  0  0  0  0  0  0  0  0  0
   44.8087   33.5102   49.5750 C   0  0  0  0  0  0  0  0  0  0  0  0
   43.8297   34.0331   50.6023 C   0  0  0  0  0  0  0  0  0  0  0  0
   42.4294   33.2062   48.1371 H   0  0  0  0  0  0  0  0  0  0  0  0
   41.1592   32.6344   49.3110 H   0  0  0  0  0  0  0  0  0  0  0  0
   42.7947   30.9048   48.8431 H   0  0  0  0  0  0  0  0  0  0  0  0
   42.8369   31.3974   50.5889 H   0  0  0  0  0  0  0  0  0  0  0  0
   45.0923   31.4938   50.0983 H   0  0  0  0  0  0  0  0  0  0  0  0
   45.8241   33.6542   50.0284 H   0  0  0  0  0  0  0  0  0  0  0  0
   44.7133   34.0981   48.6471 H   0  0  0  0  0  0  0  0  0  0  0  0
   43.8659   33.4539   51.5253 H   0  0  0  0  0  0  0  0  0  0  0  0
   44.1206   35.1086   50.7598 H   0  0  0  0  0  0  0  0  0  0  0  0
  1  2  1  0
  1  3  1  0
  2  3  1  0
  3 10  1  0
  4  9  2  0
  5  4  1  0
  6  5  2  0
  6  7  1  0
  7  8  2  0
  8  9  1  0
  8  1  1  0
  1 11  1  6
  2 12  1  0
  2 13  1  0
  3 14  1  6
  4 15  1  0
  5 16  1  0
  6 17  1  0
 10 18  1  0
 19 20  1  0
 20 21  1  0
 21 22  1  0
 22 23  1  0
 23 24  1  0
 24 25  1  0
 25 20  1  0
 21 26  1  0
 21 27  1  0
 22 28  1  0
 22 29  1  0
 23 30  1  0
 24 31  1  0
 24 32  1  0
 25 33  1  0
 25 34  1  0
 10 23  1  0
M  ISO  8  11  13  12  13  13  13  14  13  15  14  16  14  17  14  18   5
M  ISO  1  19   5
M  END
>  <DihAtoms>  (1) 
2,9,22,21

>  <DihDeg>  (1) 
179.99732139848516

$$$$
