
     RDKit          3D

 34 36  0  0  0  0  0  0  0  0999 V2000
   45.8051   32.7542   45.8626 C   0  0  1  0  0  0  0  0  0  0  0  0
   46.8667   32.8031   46.9209 C   0  0  0  0  0  0  0  0  0  0  0  0
   45.3627   32.8069   47.2601 C   0  0  2  0  0  0  0  0  0  0  0  0
   44.6149   36.0266   44.5655 C   0  0  0  0  0  0  0  0  0  0  0  0
   45.2968   36.0793   43.3003 C   0  0  0  0  0  0  0  0  0  0  0  0
   46.1486   34.9911   42.9362 C   0  0  0  0  0  0  0  0  0  0  0  0
   46.2818   33.9655   43.7804 N   0  0  0  0  0  0  0  0  0  0  0  0
   45.6158   33.9469   44.9826 C   0  0  0  0  0  0  0  0  0  0  0  0
   44.7943   34.9716   45.3601 N   0  0  0  0  0  0  0  0  0  0  0  0
   44.8893   31.6737   47.9743 N   0  0  0  0  0  0  0  0  0  0  0  0
   45.7147   31.7987   45.3105 H   0  0  0  0  0  0  0  0  0  0  0  0
   47.4270   31.8862   47.0749 H   0  0  0  0  0  0  0  0  0  0  0  0
   47.3995   33.7789   46.9778 H   0  0  0  0  0  0  0  0  0  0  0  0
   45.0240   33.7855   47.7148 H   0  0  0  0  0  0  0  0  0  0  0  0
   43.9778   36.8617   44.8148 H   0  0  0  0  0  0  0  0  0  0  0  0
   45.1402   36.9424   42.6685 H   0  0  0  0  0  0  0  0  0  0  0  0
   46.6371   35.0802   41.9760 H   0  0  0  0  0  0  0  0  0  0  0  0
   43.9932   31.3456   47.5171 H   0  0  0  0  0  0  0  0  0  0  0  0
   41.5204   31.5279   51.4624 H   0  0  0  0  0  0  0  0  0  0  0  0
   41.8272   31.7609   50.4798 N   0  0  0  0  0  0  0  0  0  0  0  0
   42.5415   30.6598   49.8675 C   0  0  0  0  0  0  0  0  0  0  0  0
   44.0326   30.7871   50.0424 C   0  0  0  0  0  0  0  0  0  0  0  0
   44.5283   32.0307   49.3329 C   0  0  0  0  0  0  0  0  0  0  0  0
   43.4550   33.1142   49.3194 C   0  0  0  0  0  0  0  0  0  0  0  0
   42.5942   32.9673   50.5541 C   0  0  0  0  0  0  0  0  0  0  0  0
   42.3088   30.6200   48.7846 H   0  0  0  0  0  0  0  0  0  0  0  0
   42.2290   29.7137   50.3628 H   0  0  0  0  0  0  0  0  0  0  0  0
   44.5083   29.9184   49.5577 H   0  0  0  0  0  0  0  0  0  0  0  0
   44.2846   30.7901   51.1332 H   0  0  0  0  0  0  0  0  0  0  0  0
   45.3537   32.4395   49.9193 H   0  0  0  0  0  0  0  0  0  0  0  0
   43.9168   34.1332   49.3957 H   0  0  0  0  0  0  0  0  0  0  0  0
   42.8198   33.0446   48.4208 H   0  0  0  0  0  0  0  0  0  0  0  0
   43.1902   32.9937   51.4667 H   0  0  0  0  0  0  0  0  0  0  0  0
   41.8585   33.8167   50.4982 H   0  0  0  0  0  0  0  0  0  0  0  0
  1  2  1  0
  1  3  1  0
  2  3  1  0
  3 10  1  0
  4  9  2  0
  5  4  1  0
  6  5  2  0
  6  7  1  0
  7  8  2  0
  8  9  1  0
  8  1  1  0
  1 11  1  6
  2 12  1  0
  2 13  1  0
  3 14  1  6
  4 15  1  0
  5 16  1  0
  6 17  1  0
 10 18  1  0
 19 20  1  0
 20 21  1  0
 21 22  1  0
 22 23  1  0
 23 24  1  0
 24 25  1  0
 25 20  1  0
 21 26  1  0
 21 27  1  0
 22 28  1  0
 22 29  1  0
 23 30  1  0
 24 31  1  0
 24 32  1  0
 25 33  1  0
 25 34  1  0
 10 23  1  0
M  ISO  8  11  13  12  13  13  13  14  13  15  14  16  14  17  14  18   5
M  ISO  1  19   5
M  END
>  <DihAtoms>  (1) 
2,9,22,21

>  <DihDeg>  (1) 
179.99732139848516

$$$$
