
     RDKit          3D

 52 55  0  0  0  0  0  0  0  0999 V2000
   46.4810   32.5327   46.6934 C   0  0  2  0  0  0  0  0  0  0  0  0
   46.2663   31.1082   46.1877 C   0  0  0  0  0  0  0  0  0  0  0  0
   46.9375   30.1785   47.1913 C   0  0  0  0  0  0  0  0  0  0  0  0
   46.4799   30.3949   48.5977 C   0  0  0  0  0  0  0  0  0  0  0  0
   46.5160   31.8174   48.9900 C   0  0  0  0  0  0  0  0  0  0  0  0
   45.7724   32.6597   47.9887 C   0  0  2  0  0  0  0  0  0  0  0  0
   46.0651   33.5350   45.7199 C   0  0  0  0  0  0  0  0  0  0  0  0
   45.0084   34.4160   46.0534 C   0  0  0  0  0  0  0  0  0  0  0  0
   44.6060   35.3580   45.0914 C   0  0  0  0  0  0  0  0  0  0  0  0
   45.2686   35.3659   43.8760 N   0  0  0  0  0  0  0  0  0  0  0  0
   46.2767   34.4829   43.6342 C   0  0  0  0  0  0  0  0  0  0  0  0
   46.6749   33.5799   44.5350 N   0  0  0  0  0  0  0  0  0  0  0  0
   46.9255   34.5451   42.3190 C   0  0  0  0  0  0  0  0  0  0  0  0
   48.0231   35.2883   42.0884 C   0  0  0  0  0  0  0  0  0  0  0  0
   48.6322   35.3457   40.8419 C   0  0  0  0  0  0  0  0  0  0  0  0
   48.0675   34.6050   39.8309 C   0  0  0  0  0  0  0  0  0  0  0  0
   46.9549   33.8472   40.0505 C   0  0  0  0  0  0  0  0  0  0  0  0
   46.3783   33.8109   41.2881 N   0  0  0  0  0  0  0  0  0  0  0  0
   44.4128   32.3217   47.9135 N   0  0  0  0  0  0  0  0  0  0  0  0
   47.5755   32.6009   46.8512 H   0  0  0  0  0  0  0  0  0  0  0  0
   46.8554   31.0424   45.2540 H   0  0  0  0  0  0  0  0  0  0  0  0
   45.2247   30.8377   46.0411 H   0  0  0  0  0  0  0  0  0  0  0  0
   46.6936   29.1460   46.8428 H   0  0  0  0  0  0  0  0  0  0  0  0
   48.0416   30.2825   47.1434 H   0  0  0  0  0  0  0  0  0  0  0  0
   47.1621   29.8114   49.2478 H   0  0  0  0  0  0  0  0  0  0  0  0
   45.4620   29.9879   48.7266 H   0  0  0  0  0  0  0  0  0  0  0  0
   47.5443   32.1794   49.0624 H   0  0  0  0  0  0  0  0  0  0  0  0
   46.0551   31.9115   50.0120 H   0  0  0  0  0  0  0  0  0  0  0  0
   45.8925   33.6809   48.4577 H   0  0  0  0  0  0  0  0  0  0  0  0
   44.4757   34.4571   46.9586 H   0  0  0  0  0  0  0  0  0  0  0  0
   43.8223   36.0681   45.2366 H   0  0  0  0  0  0  0  0  0  0  0  0
   48.4086   35.8426   42.9315 H   0  0  0  0  0  0  0  0  0  0  0  0
   49.4969   35.9516   40.7246 H   0  0  0  0  0  0  0  0  0  0  0  0
   48.4962   34.6093   38.8400 H   0  0  0  0  0  0  0  0  0  0  0  0
   46.4513   33.2373   39.3089 H   0  0  0  0  0  0  0  0  0  0  0  0
   43.9943   32.1193   47.0237 H   0  0  0  0  0  0  0  0  0  0  0  0
   40.0777   33.4572   49.7043 H   0  0  0  0  0  0  0  0  0  0  0  0
   40.8430   32.8139   49.9721 N   0  0  0  0  0  0  0  0  0  0  0  0
   41.9510   33.5763   50.4584 C   0  0  0  0  0  0  0  0  0  0  0  0
   42.9446   33.6997   49.3217 C   0  0  0  0  0  0  0  0  0  0  0  0
   43.6119   32.3610   49.0670 C   0  0  0  0  0  0  0  0  0  0  0  0
   42.5314   31.3040   48.9793 C   0  0  0  0  0  0  0  0  0  0  0  0
   41.1531   31.9127   48.8907 C   0  0  0  0  0  0  0  0  0  0  0  0
   42.4637   33.1067   51.3243 H   0  0  0  0  0  0  0  0  0  0  0  0
   41.6117   34.5856   50.7255 H   0  0  0  0  0  0  0  0  0  0  0  0
   43.7197   34.4107   49.6053 H   0  0  0  0  0  0  0  0  0  0  0  0
   42.3944   34.0274   48.4281 H   0  0  0  0  0  0  0  0  0  0  0  0
   44.2548   32.0983   49.9532 H   0  0  0  0  0  0  0  0  0  0  0  0
   42.5305   30.6507   49.8741 H   0  0  0  0  0  0  0  0  0  0  0  0
   42.6500   30.6625   48.0825 H   0  0  0  0  0  0  0  0  0  0  0  0
   40.9687   32.4308   47.9294 H   0  0  0  0  0  0  0  0  0  0  0  0
   40.4199   31.0814   48.9234 H   0  0  0  0  0  0  0  0  0  0  0  0
  1  6  1  0
  2  1  1  0
  2  3  1  0
  3  4  1  0
  4  5  1  0
  6  5  1  0
  7  8  2  0
  7  1  1  0
  9  8  1  0
 10  9  2  0
 11 10  1  0
 11 12  2  0
 12  7  1  0
 13 11  1  0
 14 13  2  0
 15 14  1  0
 16 17  1  0
 16 15  2  0
 17 18  2  0
 18 13  1  0
 19  6  1  0
  1 20  1  1
  2 21  1  0
  2 22  1  0
  3 23  1  0
  3 24  1  0
  4 25  1  0
  4 26  1  0
  5 27  1  0
  5 28  1  0
  6 29  1  1
  8 30  1  0
  9 31  1  0
 14 32  1  0
 15 33  1  0
 16 34  1  0
 17 35  1  0
 19 36  1  0
 37 38  1  0
 38 39  1  0
 39 40  1  0
 40 41  1  0
 41 42  1  0
 42 43  1  0
 43 38  1  0
 39 44  1  0
 39 45  1  0
 40 46  1  0
 40 47  1  0
 41 48  1  0
 42 49  1  0
 42 50  1  0
 43 51  1  0
 43 52  1  0
 19 41  1  0
M  ISO  8  20  13  21  13  22  13  23  13  24  13  25  13  26  13  27  13
M  ISO  8  28  13  29  13  30  14  31  14  32  14  33  14  34  14  35  14
M  ISO  2  36   5  37   5
M  END
>  <DihAtoms>  (1) 
5,18,40,39

>  <DihDeg>  (1) 
59.80471264270915

$$$$
