
     RDKit          3D

 43 45  0  0  0  0  0  0  0  0999 V2000
   44.7831   35.5061   45.3519 C   0  0  0  0  0  0  0  0  0  0  0  0
   45.4389   35.6241   44.1286 C   0  0  0  0  0  0  0  0  0  0  0  0
   46.2091   34.5931   43.6962 C   0  0  0  0  0  0  0  0  0  0  0  0
   46.2962   33.4701   44.4969 N   0  0  0  0  0  0  0  0  0  0  0  0
   45.6476   33.3788   45.6749 C   0  0  0  0  0  0  0  0  0  0  0  0
   44.8877   34.3942   46.1118 N   0  0  0  0  0  0  0  0  0  0  0  0
   46.9421   34.7097   42.4582 C   0  0  0  0  0  0  0  0  0  0  0  0
   48.1273   35.4081   42.2405 C   0  0  0  0  0  0  0  0  0  0  0  0
   48.6952   35.4069   40.9873 C   0  0  0  0  0  0  0  0  0  0  0  0
   48.0729   34.7052   39.9566 C   0  0  0  0  0  0  0  0  0  0  0  0
   46.8978   34.0118   40.1689 C   0  0  0  0  0  0  0  0  0  0  0  0
   46.3427   34.0275   41.4422 C   0  0  0  0  0  0  0  0  0  0  0  0
   45.2286   36.8488   43.3448 C   0  0  0  0  0  0  0  0  0  0  0  0
   44.9276   37.9051   44.2077 N   0  0  0  0  0  0  0  0  0  0  0  0
   45.3885   39.1979   43.7202 C   0  0  0  0  0  0  0  0  0  0  0  0
   46.7310   39.3909   43.6062 F   0  0  0  0  0  0  0  0  0  0  0  0
   44.8878   40.2507   44.4539 F   0  0  0  0  0  0  0  0  0  0  0  0
   44.9130   39.2860   42.4173 F   0  0  0  0  0  0  0  0  0  0  0  0
   44.1668   36.1890   45.8936 H   0  0  0  0  0  0  0  0  0  0  0  0
   45.8341   32.4317   46.1549 H   0  0  0  0  0  0  0  0  0  0  0  0
   48.5122   35.9089   43.1070 H   0  0  0  0  0  0  0  0  0  0  0  0
   49.6101   35.9753   40.9189 H   0  0  0  0  0  0  0  0  0  0  0  0
   48.5911   34.7667   39.0278 H   0  0  0  0  0  0  0  0  0  0  0  0
   46.4673   33.4871   39.3215 H   0  0  0  0  0  0  0  0  0  0  0  0
   45.4274   33.4523   41.4865 H   0  0  0  0  0  0  0  0  0  0  0  0
   46.1233   37.0652   42.7013 H   0  0  0  0  0  0  0  0  0  0  0  0
   44.4291   36.5988   42.5872 H   0  0  0  0  0  0  0  0  0  0  0  0
   40.5978   38.7941   45.7912 H   0  0  0  0  0  0  0  0  0  0  0  0
   40.7879   38.3449   44.8917 N   0  0  0  0  0  0  0  0  0  0  0  0
   41.3881   39.1633   43.8776 C   0  0  0  0  0  0  0  0  0  0  0  0
   42.8966   39.3825   44.1422 C   0  0  0  0  0  0  0  0  0  0  0  0
   43.4669   37.9764   44.2759 C   0  0  0  0  0  0  0  0  0  0  0  0
   42.8683   37.4089   45.5138 C   0  0  0  0  0  0  0  0  0  0  0  0
   41.4245   37.0857   45.1155 C   0  0  0  0  0  0  0  0  0  0  0  0
   40.8718   40.1370   43.8820 H   0  0  0  0  0  0  0  0  0  0  0  0
   41.3190   38.6376   42.9124 H   0  0  0  0  0  0  0  0  0  0  0  0
   43.2163   39.9038   43.2230 H   0  0  0  0  0  0  0  0  0  0  0  0
   42.9107   39.9665   45.0668 H   0  0  0  0  0  0  0  0  0  0  0  0
   43.0072   37.5227   43.3385 H   0  0  0  0  0  0  0  0  0  0  0  0
   42.7165   38.1741   46.3248 H   0  0  0  0  0  0  0  0  0  0  0  0
   43.3805   36.5152   45.9060 H   0  0  0  0  0  0  0  0  0  0  0  0
   40.8947   36.5547   45.9038 H   0  0  0  0  0  0  0  0  0  0  0  0
   41.5340   36.4784   44.1820 H   0  0  0  0  0  0  0  0  0  0  0  0
  1  6  2  0
  2  1  1  0
  3  2  2  0
  3  4  1  0
  4  5  2  0
  5  6  1  0
  7  3  1  0
  8  7  2  0
  9  8  1  0
 10 11  1  0
 10  9  2  0
 11 12  2  0
 12  7  1  0
 13  2  1  0
 13 14  1  0
 15 14  1  0
 15 17  1  0
 16 15  1  0
 18 15  1  0
  1 19  1  0
  5 20  1  0
  8 21  1  0
  9 22  1  0
 10 23  1  0
 11 24  1  0
 12 25  1  0
 13 26  1  0
 13 27  1  0
 28 29  1  0
 29 30  1  0
 30 31  1  0
 31 32  1  0
 32 33  1  0
 33 34  1  0
 34 29  1  0
 30 35  1  0
 30 36  1  0
 31 37  1  0
 31 38  1  0
 32 39  1  0
 33 40  1  0
 33 41  1  0
 34 42  1  0
 34 43  1  0
 14 32  1  0
M  ISO  8  19  14  20  14  21  14  22  14  23  14  24  14  25  14  26   8
M  ISO  2  27   8  28   5
M  END
>  <DihAtoms>  (1) 
12,13,31,30

>  <DihDeg>  (1) 
-74.13451449199299

$$$$
