
     RDKit          3D

 43 45  0  0  0  0  0  0  0  0999 V2000
   44.7831   35.5061   45.3519 C   0  0  0  0  0  0  0  0  0  0  0  0
   45.4389   35.6241   44.1286 C   0  0  0  0  0  0  0  0  0  0  0  0
   46.2091   34.5931   43.6962 C   0  0  0  0  0  0  0  0  0  0  0  0
   46.2962   33.4701   44.4969 N   0  0  0  0  0  0  0  0  0  0  0  0
   45.6476   33.3788   45.6749 C   0  0  0  0  0  0  0  0  0  0  0  0
   44.8877   34.3942   46.1118 N   0  0  0  0  0  0  0  0  0  0  0  0
   46.9421   34.7097   42.4582 C   0  0  0  0  0  0  0  0  0  0  0  0
   48.1273   35.4081   42.2405 C   0  0  0  0  0  0  0  0  0  0  0  0
   48.6952   35.4069   40.9873 C   0  0  0  0  0  0  0  0  0  0  0  0
   48.0729   34.7052   39.9566 C   0  0  0  0  0  0  0  0  0  0  0  0
   46.8978   34.0118   40.1689 C   0  0  0  0  0  0  0  0  0  0  0  0
   46.3427   34.0275   41.4422 C   0  0  0  0  0  0  0  0  0  0  0  0
   45.2286   36.8488   43.3448 C   0  0  0  0  0  0  0  0  0  0  0  0
   44.9276   37.9051   44.2077 N   0  0  0  0  0  0  0  0  0  0  0  0
   45.3885   39.1979   43.7202 C   0  0  0  0  0  0  0  0  0  0  0  0
   46.7310   39.3909   43.6062 F   0  0  0  0  0  0  0  0  0  0  0  0
   44.8878   40.2507   44.4539 F   0  0  0  0  0  0  0  0  0  0  0  0
   44.9130   39.2860   42.4173 F   0  0  0  0  0  0  0  0  0  0  0  0
   44.1668   36.1890   45.8936 H   0  0  0  0  0  0  0  0  0  0  0  0
   45.8341   32.4317   46.1549 H   0  0  0  0  0  0  0  0  0  0  0  0
   48.5122   35.9089   43.1070 H   0  0  0  0  0  0  0  0  0  0  0  0
   49.6101   35.9753   40.9189 H   0  0  0  0  0  0  0  0  0  0  0  0
   48.5911   34.7667   39.0278 H   0  0  0  0  0  0  0  0  0  0  0  0
   46.4673   33.4871   39.3215 H   0  0  0  0  0  0  0  0  0  0  0  0
   45.4274   33.4523   41.4865 H   0  0  0  0  0  0  0  0  0  0  0  0
   46.1233   37.0652   42.7013 H   0  0  0  0  0  0  0  0  0  0  0  0
   44.4291   36.5988   42.5872 H   0  0  0  0  0  0  0  0  0  0  0  0
   40.4650   36.7430   45.0905 H   0  0  0  0  0  0  0  0  0  0  0  0
   40.7407   37.6192   44.6398 N   0  0  0  0  0  0  0  0  0  0  0  0
   41.4331   38.5735   45.4573 C   0  0  0  0  0  0  0  0  0  0  0  0
   42.9091   38.1671   45.6804 C   0  0  0  0  0  0  0  0  0  0  0  0
   43.4669   37.9764   44.2759 C   0  0  0  0  0  0  0  0  0  0  0  0
   42.7544   36.7998   43.7098 C   0  0  0  0  0  0  0  0  0  0  0  0
   41.3556   37.3329   43.3825 C   0  0  0  0  0  0  0  0  0  0  0  0
   40.9168   38.6207   46.4298 H   0  0  0  0  0  0  0  0  0  0  0  0
   41.4572   39.5397   44.9293 H   0  0  0  0  0  0  0  0  0  0  0  0
   43.3138   39.0529   46.2005 H   0  0  0  0  0  0  0  0  0  0  0  0
   42.8339   37.2467   46.2665 H   0  0  0  0  0  0  0  0  0  0  0  0
   43.0994   38.9522   43.8191 H   0  0  0  0  0  0  0  0  0  0  0  0
   42.5245   36.0087   44.4764 H   0  0  0  0  0  0  0  0  0  0  0  0
   43.2287   36.3585   42.8181 H   0  0  0  0  0  0  0  0  0  0  0  0
   40.7543   36.5973   42.8520 H   0  0  0  0  0  0  0  0  0  0  0  0
   41.5547   38.2503   42.7734 H   0  0  0  0  0  0  0  0  0  0  0  0
  1  6  2  0
  2  1  1  0
  3  2  2  0
  3  4  1  0
  4  5  2  0
  5  6  1  0
  7  3  1  0
  8  7  2  0
  9  8  1  0
 10 11  1  0
 10  9  2  0
 11 12  2  0
 12  7  1  0
 13  2  1  0
 13 14  1  0
 15 14  1  0
 15 17  1  0
 16 15  1  0
 18 15  1  0
  1 19  1  0
  5 20  1  0
  8 21  1  0
  9 22  1  0
 10 23  1  0
 11 24  1  0
 12 25  1  0
 13 26  1  0
 13 27  1  0
 28 29  1  0
 29 30  1  0
 30 31  1  0
 31 32  1  0
 32 33  1  0
 33 34  1  0
 34 29  1  0
 30 35  1  0
 30 36  1  0
 31 37  1  0
 31 38  1  0
 32 39  1  0
 33 40  1  0
 33 41  1  0
 34 42  1  0
 34 43  1  0
 14 32  1  0
M  ISO  8  19  14  20  14  21  14  22  14  23  14  24  14  25  14  26   8
M  ISO  2  27   8  28   5
M  END
>  <DihAtoms>  (1) 
12,13,31,30

>  <DihDeg>  (1) 
-74.13451449199299

$$$$
