
     RDKit          3D

 39 41  0  0  1  0  0  0  0  0999 V2000
   45.2200   33.8090   41.4030 N   0  0  0  0  0  0  0  0  0  0  0  0
   46.2620   33.2390   40.6320 C   0  0  1  0  0  0  0  0  0  0  0  0
   46.0480   33.2800   39.1640 C   0  0  0  0  0  0  0  0  0  0  0  0
   44.7510   32.9340   38.7560 N   0  0  0  0  0  0  0  0  0  0  0  0
   43.6850   33.3760   39.5600 C   0  0  0  0  0  0  0  0  0  0  0  0
   44.1400   34.3470   40.6290 C   0  0  0  0  0  0  0  0  0  0  0  0
   45.1290   35.0160   43.4670 C   0  0  0  0  0  0  0  0  0  0  0  0
   45.3260   33.8030   42.8150 C   0  0  0  0  0  0  0  0  0  0  0  0
   45.6110   32.6950   43.5930 C   0  0  0  0  0  0  0  0  0  0  0  0
   45.6950   32.7920   44.9470 N   0  0  0  0  0  0  0  0  0  0  0  0
   45.4940   34.0060   45.5440 C   0  0  0  0  0  0  0  0  0  0  0  0
   45.2140   35.1000   44.8070 N   0  0  0  0  0  0  0  0  0  0  0  0
   47.5770   33.7530   40.9520 N   0  0  0  0  0  0  0  0  0  0  0  0
   48.3810   32.9290   41.7860 C   0  0  0  0  0  0  0  0  0  0  0  0
   48.9340   33.6810   42.9650 C   0  0  0  0  0  0  0  0  0  0  0  0
   49.6360   34.9550   42.5610 C   0  0  0  0  0  0  0  0  0  0  0  0
   48.9120   35.6630   41.4330 C   0  0  0  0  0  0  0  0  0  0  0  0
   47.4830   35.1180   41.4330 C   0  0  0  0  0  0  0  0  0  0  0  0
   46.2239   32.1817   40.9331 H   0  0  0  0  0  0  0  0  0  0  0  0
   46.2571   34.3018   38.8146 H   0  0  0  0  0  0  0  0  0  0  0  0
   46.7241   32.5299   38.7278 H   0  0  0  0  0  0  0  0  0  0  0  0
   44.6091   33.3220   37.8125 H   0  0  0  0  0  0  0  0  0  0  0  0
   42.9423   33.8755   38.9205 H   0  0  0  0  0  0  0  0  0  0  0  0
   43.2540   32.4976   40.0627 H   0  0  0  0  0  0  0  0  0  0  0  0
   44.4745   35.2777   40.1474 H   0  0  0  0  0  0  0  0  0  0  0  0
   43.2931   34.5378   41.3046 H   0  0  0  0  0  0  0  0  0  0  0  0
   44.9009   35.9176   42.8796 H   0  0  0  0  0  0  0  0  0  0  0  0
   45.7722   31.7205   43.1089 H   0  0  0  0  0  0  0  0  0  0  0  0
   45.5616   34.0910   46.6386 H   0  0  0  0  0  0  0  0  0  0  0  0
   47.7681   32.0933   42.1548 H   0  0  0  0  0  0  0  0  0  0  0  0
   49.2303   32.5690   41.1868 H   0  0  0  0  0  0  0  0  0  0  0  0
   48.1049   33.9346   43.6420 H   0  0  0  0  0  0  0  0  0  0  0  0
   49.6744   33.0332   43.4570 H   0  0  0  0  0  0  0  0  0  0  0  0
   49.6833   35.6267   43.4308 H   0  0  0  0  0  0  0  0  0  0  0  0
   50.6446   34.6929   42.2087 H   0  0  0  0  0  0  0  0  0  0  0  0
   48.9056   36.7492   41.6067 H   0  0  0  0  0  0  0  0  0  0  0  0
   49.4075   35.4873   40.4667 H   0  0  0  0  0  0  0  0  0  0  0  0
   46.8457   35.7159   40.7649 H   0  0  0  0  0  0  0  0  0  0  0  0
   47.0344   35.1621   42.4364 H   0  0  0  0  0  0  0  0  0  0  0  0
  1  8  1  0
  2 13  1  0
  2  1  1  0
  3  2  1  0
  4  3  1  0
  4  5  1  0
  5  6  1  0
  6  1  1  0
  7 12  2  0
  8  7  1  0
  8  9  2  0
  9 10  1  0
 10 11  2  0
 12 11  1  0
 13 18  1  0
 13 14  1  0
 14 15  1  0
 16 15  1  0
 17 16  1  0
 18 17  1  0
  2 19  1  1
  3 20  1  0
  3 21  1  0
  4 22  1  0
  5 23  1  0
  5 24  1  0
  6 25  1  0
  6 26  1  0
  7 27  1  0
  9 28  1  0
 11 29  1  0
 14 30  1  0
 14 31  1  0
 15 32  1  0
 15 33  1  0
 16 34  1  0
 16 35  1  0
 17 36  1  0
 17 37  1  0
 18 38  1  0
 18 39  1  0
M  ISO  8  19  13  20  13  21  13  22   5  23  13  24  13  25  13  26  13
M  ISO  8  27  14  28  14  29  14  30  13  31  13  32  13  33  13  34  13
M  ISO  5  35  13  36  13  37  13  38  13  39  13
M  END
>  <minimizedAffinity>  (1) 
-4.61334658

>  <minimizedRMSD>  (1) 
2.37350988

$$$$
