
     RDKit          3D

 42 44  0  0  0  0  0  0  0  0999 V2000
   44.9010   35.0060   44.5960 C   0  0  0  0  0  0  0  0  0  0  0  0
   44.9760   34.2930   43.4270 C   0  0  0  0  0  0  0  0  0  0  0  0
   45.4190   32.9460   43.4250 C   0  0  0  0  0  0  0  0  0  0  0  0
   45.7630   32.4100   44.6380 N   0  0  0  0  0  0  0  0  0  0  0  0
   45.6820   33.1180   45.7560 C   0  0  0  0  0  0  0  0  0  0  0  0
   45.2580   34.3920   45.7340 N   0  0  0  0  0  0  0  0  0  0  0  0
   46.0530   32.5230   47.0290 C   0  0  0  0  0  0  0  0  0  0  0  0
   47.3410   32.2350   47.3620 C   0  0  0  0  0  0  0  0  0  0  0  0
   47.7160   31.6770   48.5520 C   0  0  0  0  0  0  0  0  0  0  0  0
   46.7220   31.4050   49.4330 N   0  0  0  0  0  0  0  0  0  0  0  0
   45.4670   31.6850   49.1100 C   0  0  0  0  0  0  0  0  0  0  0  0
   45.0730   32.2350   47.9460 N   0  0  0  0  0  0  0  0  0  0  0  0
   44.5860   34.9200   42.1700 C   0  0  0  0  0  0  0  0  0  0  0  0
   45.3970   34.8860   41.2270 O   0  0  0  0  0  0  0  0  0  0  0  0
   43.4560   35.5760   41.7780 O   0  0  0  0  0  0  0  0  0  0  0  0
   42.8200   35.3250   40.5660 C   0  0  0  0  0  0  0  0  0  0  0  0
   41.3500   35.1080   40.6970 C   0  0  0  0  0  0  0  0  0  0  0  0
   40.9020   34.0810   39.8160 N   0  0  0  0  0  0  0  0  0  0  0  0
   39.7000   33.4790   40.3270 C   0  0  0  0  0  0  0  0  0  0  0  0
   38.4250   33.9870   39.7510 C   0  0  0  0  0  0  0  0  0  0  0  0
   38.5160   33.6070   38.2640 C   0  0  0  0  0  0  0  0  0  0  0  0
   39.5930   34.5190   37.7350 C   0  0  0  0  0  0  0  0  0  0  0  0
   40.9020   34.3620   38.4310 C   0  0  0  0  0  0  0  0  0  0  0  0
   44.5580   36.0512   44.6004 H   0  0  0  0  0  0  0  0  0  0  0  0
   45.4833   32.3606   42.4959 H   0  0  0  0  0  0  0  0  0  0  0  0
   48.1280   32.4654   46.6288 H   0  0  0  0  0  0  0  0  0  0  0  0
   48.7694   31.4599   48.7829 H   0  0  0  0  0  0  0  0  0  0  0  0
   44.6877   31.4499   49.8499 H   0  0  0  0  0  0  0  0  0  0  0  0
   43.2661   34.4243   40.1191 H   0  0  0  0  0  0  0  0  0  0  0  0
   42.9598   36.2168   39.9374 H   0  0  0  0  0  0  0  0  0  0  0  0
   41.1207   34.8178   41.7330 H   0  0  0  0  0  0  0  0  0  0  0  0
   40.8341   36.0433   40.4340 H   0  0  0  0  0  0  0  0  0  0  0  0
   39.7531   32.3984   40.1283 H   0  0  0  0  0  0  0  0  0  0  0  0
   39.6682   33.7367   41.3959 H   0  0  0  0  0  0  0  0  0  0  0  0
   37.5597   33.5024   40.2269 H   0  0  0  0  0  0  0  0  0  0  0  0
   38.2894   35.0676   39.9060 H   0  0  0  0  0  0  0  0  0  0  0  0
   38.8006   32.5512   38.1444 H   0  0  0  0  0  0  0  0  0  0  0  0
   37.5593   33.7195   37.7330 H   0  0  0  0  0  0  0  0  0  0  0  0
   39.7389   34.3019   36.6665 H   0  0  0  0  0  0  0  0  0  0  0  0
   39.2563   35.5515   37.9096 H   0  0  0  0  0  0  0  0  0  0  0  0
   41.4374   33.5400   37.9333 H   0  0  0  0  0  0  0  0  0  0  0  0
   41.3652   35.3571   38.3591 H   0  0  0  0  0  0  0  0  0  0  0  0
  1  6  2  0
  2  1  1  0
  3  2  2  0
  3  4  1  0
  4  5  2  0
  5  7  1  0
  6  5  1  0
  7  8  2  0
  7 12  1  0
  8  9  1  0
  9 10  2  0
 11 10  1  0
 12 11  2  0
 13  2  1  0
 14 13  2  0
 15 13  1  0
 16 17  1  0
 16 15  1  0
 18 19  1  0
 18 17  1  0
 20 19  1  0
 21 20  1  0
 22 21  1  0
 22 23  1  0
 23 18  1  0
  1 24  1  0
  3 25  1  0
  8 26  1  0
  9 27  1  0
 11 28  1  0
 16 29  1  0
 16 30  1  0
 17 31  1  0
 17 32  1  0
 19 33  1  0
 19 34  1  0
 20 35  1  0
 20 36  1  0
 21 37  1  0
 21 38  1  0
 22 39  1  0
 22 40  1  0
 23 41  1  0
 23 42  1  0
M  ISO  8  24  14  25  14  26  14  27  14  28  14  29   8  30   8  31   8
M  ISO  8  32   8  33  13  34  13  35  13  36  13  37  13  38  13  39  13
M  ISO  3  40  13  41  13  42  13
M  END
>  <minimizedAffinity>  (1) 
-5.90307093

>  <minimizedRMSD>  (1) 
2.25963378

$$$$
