
     RDKit          3D

 50 52  0  0  0  0  0  0  0  0999 V2000
   44.6786   35.2840   45.0774 O   0  0  0  0  0  0  0  0  0  0  0  0
   45.4857   34.2603   44.3391 P   0  0  2  0  0  0  0  0  0  0  0  0
   44.5322   33.0621   43.6488 O   0  0  0  0  0  0  0  0  0  0  0  0
   46.5072   33.4601   45.4049 O   0  0  0  0  0  0  0  0  0  0  0  0
   46.2037   32.1488   45.4250 C   0  0  0  0  0  0  0  0  0  0  0  0
   45.7504   32.0262   49.1117 C   0  0  0  0  0  0  0  0  0  0  0  0
   46.0505   32.5174   47.8277 C   0  0  0  0  0  0  0  0  0  0  0  0
   45.8947   31.6558   46.7748 C   0  0  0  0  0  0  0  0  0  0  0  0
   45.4618   30.3870   47.0379 N   0  0  0  0  0  0  0  0  0  0  0  0
   45.1813   29.9379   48.2631 C   0  0  0  0  0  0  0  0  0  0  0  0
   45.3296   30.7681   49.2963 N   0  0  0  0  0  0  0  0  0  0  0  0
   46.4183   35.0307   43.1648 O   0  0  0  0  0  0  0  0  0  0  0  0
   46.9402   34.0781   42.2854 C   0  0  1  0  0  0  0  0  0  0  0  0
   46.3940   34.2617   40.8816 C   0  0  0  0  0  0  0  0  0  0  0  0
   47.3368   33.3684   40.0943 C   0  0  0  0  0  0  0  0  0  0  0  0
   48.6393   33.3430   40.8662 C   0  0  0  0  0  0  0  0  0  0  0  0
   48.4221   34.2928   42.0429 C   0  0  1  0  0  0  0  0  0  0  0  0
   48.7477   35.7204   41.7132 C   0  0  0  0  0  0  0  0  0  0  0  0
   43.7155   33.4975   43.2653 H   0  0  0  0  0  0  0  0  0  0  0  0
   47.1147   31.5927   45.0897 H   0  0  0  0  0  0  0  0  0  0  0  0
   45.4054   31.7842   44.7682 H   0  0  0  0  0  0  0  0  0  0  0  0
   45.8382   32.6259   50.0000 H   0  0  0  0  0  0  0  0  0  0  0  0
   46.3844   33.5236   47.7026 H   0  0  0  0  0  0  0  0  0  0  0  0
   44.8433   28.9129   48.3580 H   0  0  0  0  0  0  0  0  0  0  0  0
   46.7436   33.0504   42.5771 H   0  0  0  0  0  0  0  0  0  0  0  0
   46.3920   35.2899   40.5451 H   0  0  0  0  0  0  0  0  0  0  0  0
   45.3559   33.8732   40.8493 H   0  0  0  0  0  0  0  0  0  0  0  0
   46.9026   32.3483   40.1603 H   0  0  0  0  0  0  0  0  0  0  0  0
   47.4478   33.6836   39.0545 H   0  0  0  0  0  0  0  0  0  0  0  0
   48.9278   32.3291   41.2074 H   0  0  0  0  0  0  0  0  0  0  0  0
   49.4343   33.8102   40.2428 H   0  0  0  0  0  0  0  0  0  0  0  0
   48.9991   33.9850   42.9131 H   0  0  0  0  0  0  0  0  0  0  0  0
   49.8609   35.7620   41.6049 H   0  0  0  0  0  0  0  0  0  0  0  0
   48.3060   36.1113   40.7917 H   0  0  0  0  0  0  0  0  0  0  0  0
   48.3316   36.5186   42.8425 N   0  0  0  0  0  0  0  0  0  0  0  0
   48.9769   37.7889   42.8933 C   0  0  0  0  0  0  0  0  0  0  0  0
   48.0933   38.8447   43.4652 C   0  0  0  0  0  0  0  0  0  0  0  0
   46.7835   38.9626   42.7363 C   0  0  0  0  0  0  0  0  0  0  0  0
   46.9280   39.6459   41.8493 H   0  0  0  0  0  0  0  0  0  0  0  0
   46.2590   37.6274   42.3281 C   0  0  0  0  0  0  0  0  0  0  0  0
   46.9340   36.5277   43.1092 C   0  0  0  0  0  0  0  0  0  0  0  0
   49.2862   38.0909   41.8672 H   0  0  0  0  0  0  0  0  0  0  0  0
   49.8970   37.7360   43.5227 H   0  0  0  0  0  0  0  0  0  0  0  0
   47.8867   38.6618   44.5517 H   0  0  0  0  0  0  0  0  0  0  0  0
   48.6589   39.8142   43.3892 H   0  0  0  0  0  0  0  0  0  0  0  0
   46.0285   39.4395   43.4298 H   0  0  0  0  0  0  0  0  0  0  0  0
   45.1661   37.5649   42.5056 H   0  0  0  0  0  0  0  0  0  0  0  0
   46.5094   37.4719   41.2519 H   0  0  0  0  0  0  0  0  0  0  0  0
   46.7439   36.6780   44.2051 H   0  0  0  0  0  0  0  0  0  0  0  0
   46.5065   35.5464   42.7732 H   0  0  0  0  0  0  0  0  0  0  0  0
  2  1  2  0
  2  4  1  1
  3  2  1  0
  4  5  1  0
  5  8  1  0
  6 11  2  0
  7  6  1  0
  8  9  1  0
  8  7  2  0
  9 10  2  0
 10 11  1  0
 12  2  1  0
 13 12  1  0
 14 13  1  0
 15 16  1  0
 15 14  1  0
 16 17  1  0
 17 13  1  0
 18 17  1  0
  3 19  1  0
  5 20  1  0
  5 21  1  0
  6 22  1  0
  7 23  1  0
 10 24  1  0
 13 25  1  1
 14 26  1  0
 14 27  1  0
 15 28  1  0
 15 29  1  0
 16 30  1  0
 16 31  1  0
 17 32  1  1
 18 33  1  0
 18 34  1  0
 35 36  1  0
 36 37  1  0
 37 38  1  0
 38 39  1  0
 38 40  1  0
 40 41  1  0
 41 35  1  0
 36 42  1  0
 36 43  1  0
 37 44  1  0
 37 45  1  0
 38 46  1  0
 40 47  1  0
 40 48  1  0
 41 49  1  0
 41 50  1  0
 18 35  1  0
M  ISO  8  19   3  20   8  21   8  22  14  23  14  24  14  25  13  26  13
M  ISO  8  27  13  28  13  29  13  30  13  31  13  32  13  33   8  34   8
M  ISO  1  39  15
M  END
>  <DihAtoms>  (1) 
16,17,34,35

>  <DihDeg>  (1) 
69.3319124716927

$$$$
