
     RDKit          3D

 32 33  0  0  0  0  0  0  0  0999 V2000
   45.0440   34.8940   44.3930 C   0  0  0  0  0  0  0  0  0  0  0  0
   44.9720   34.1670   43.1730 C   0  0  0  0  0  0  0  0  0  0  0  0
   45.2740   32.7950   43.2220 C   0  0  0  0  0  0  0  0  0  0  0  0
   45.6160   32.2480   44.4270 N   0  0  0  0  0  0  0  0  0  0  0  0
   45.6730   32.9790   45.5630 C   0  0  0  0  0  0  0  0  0  0  0  0
   45.3840   34.2990   45.5280 N   0  0  0  0  0  0  0  0  0  0  0  0
   46.0320   32.3820   46.8040 N   0  0  0  0  0  0  0  0  0  0  0  0
   45.2940   32.6550   48.0180 C   0  0  0  0  0  0  0  0  0  0  0  0
   45.0040   31.3790   48.7840 C   0  0  0  0  0  0  0  0  0  0  0  0
   46.3510   30.7970   49.1520 C   0  0  0  0  0  0  0  0  0  0  0  0
   47.0090   30.3740   47.8630 C   0  0  0  0  0  0  0  0  0  0  0  0
   47.1620   31.4750   46.8710 C   0  0  0  0  0  0  0  0  0  0  0  0
   44.7290   36.3140   44.3360 C   0  0  0  0  0  0  0  0  0  0  0  0
   45.3860   37.0960   43.5040 C   0  0  0  0  0  0  0  0  0  0  0  0
   45.1190   38.5450   43.3910 C   0  0  0  0  0  0  0  0  0  0  0  0
   44.6915   34.6581   42.2296 H   0  0  0  0  0  0  0  0  0  0  0  0
   45.2360   32.1768   42.3129 H   0  0  0  0  0  0  0  0  0  0  0  0
   45.8871   33.3282   48.6544 H   0  0  0  0  0  0  0  0  0  0  0  0
   44.3361   33.1219   47.7450 H   0  0  0  0  0  0  0  0  0  0  0  0
   44.4233   31.6017   49.6913 H   0  0  0  0  0  0  0  0  0  0  0  0
   44.4118   30.6740   48.1821 H   0  0  0  0  0  0  0  0  0  0  0  0
   46.9652   31.5552   49.6598 H   0  0  0  0  0  0  0  0  0  0  0  0
   46.2387   29.9435   49.8367 H   0  0  0  0  0  0  0  0  0  0  0  0
   48.0083   29.9789   48.0982 H   0  0  0  0  0  0  0  0  0  0  0  0
   46.3530   29.6202   47.4032 H   0  0  0  0  0  0  0  0  0  0  0  0
   47.3018   31.0255   45.8768 H   0  0  0  0  0  0  0  0  0  0  0  0
   48.0260   32.0731   47.1963 H   0  0  0  0  0  0  0  0  0  0  0  0
   43.9456   36.7324   44.9850 H   0  0  0  0  0  0  0  0  0  0  0  0
   46.1654   36.6521   42.8672 H   0  0  0  0  0  0  0  0  0  0  0  0
   45.0384   38.9825   44.3970 H   0  0  0  0  0  0  0  0  0  0  0  0
   45.9432   39.0283   42.8459 H   0  0  0  0  0  0  0  0  0  0  0  0
   44.1767   38.7028   42.8459 H   0  0  0  0  0  0  0  0  0  0  0  0
  1  6  2  0
  2  3  2  0
  2  1  1  0
  3  4  1  0
  4  5  2  0
  5  7  1  0
  6  5  1  0
  7 12  1  0
  7  8  1  0
  8  9  1  0
  9 10  1  0
 11 10  1  0
 12 11  1  0
 13  1  1  0
 14 13  2  0
 15 14  1  0
  2 16  1  0
  3 17  1  0
  8 18  1  0
  8 19  1  0
  9 20  1  0
  9 21  1  0
 10 22  1  0
 10 23  1  0
 11 24  1  0
 11 25  1  0
 12 26  1  0
 12 27  1  0
 13 28  1  0
 14 29  1  0
 15 30  1  0
 15 31  1  0
 15 32  1  0
M  ISO  8  16  14  17  14  18  13  19  13  20  13  21  13  22  13  23  13
M  ISO  7  24  13  25  13  26  13  27  13  30   8  31   8  32   8
M  END
>  <minimizedAffinity>  (1) 
-4.1359024

>  <minimizedRMSD>  (1) 
2.47584677

$$$$
