
     RDKit          3D

 27 28  0  0  0  0  0  0  0  0999 V2000
   44.6300   35.3330   45.2710 C   0  0  0  0  0  0  0  0  0  0  0  0
   45.2220   35.4880   44.0030 C   0  0  0  0  0  0  0  0  0  0  0  0
   46.1720   34.5540   43.6050 C   0  0  0  0  0  0  0  0  0  0  0  0
   46.4790   33.5350   44.4680 N   0  0  0  0  0  0  0  0  0  0  0  0
   45.8960   33.4180   45.6680 C   0  0  0  0  0  0  0  0  0  0  0  0
   44.9830   34.3030   46.0640 N   0  0  0  0  0  0  0  0  0  0  0  0
   46.2840   32.3220   46.4910 N   0  0  0  0  0  0  0  0  0  0  0  0
   47.1520   32.5560   47.6330 C   0  0  0  0  0  0  0  0  0  0  0  0
   46.3340   32.2010   48.8410 C   0  0  0  0  0  0  0  0  0  0  0  0
   45.5840   30.9280   48.7710 C   0  0  0  0  0  0  0  0  0  0  0  0
   45.1810   30.4130   47.4530 C   0  0  0  0  0  0  0  0  0  0  0  0
   45.8520   30.9620   46.2460 C   0  0  0  0  0  0  0  0  0  0  0  0
   46.7900   34.6690   42.3490 N   0  0  0  0  0  0  0  0  0  0  0  0
   43.8760   36.0561   45.6155 H   0  0  0  0  0  0  0  0  0  0  0  0
   44.9409   36.3242   43.3459 H   0  0  0  0  0  0  0  0  0  0  0  0
   48.0457   31.9175   47.5733 H   0  0  0  0  0  0  0  0  0  0  0  0
   47.5031   33.5978   47.6708 H   0  0  0  0  0  0  0  0  0  0  0  0
   47.0157   32.1419   49.7023 H   0  0  0  0  0  0  0  0  0  0  0  0
   45.5702   32.9885   48.9210 H   0  0  0  0  0  0  0  0  0  0  0  0
   46.2120   30.1568   49.2409 H   0  0  0  0  0  0  0  0  0  0  0  0
   44.6304   31.1539   49.2706 H   0  0  0  0  0  0  0  0  0  0  0  0
   45.3593   29.3276   47.4592 H   0  0  0  0  0  0  0  0  0  0  0  0
   44.1326   30.7288   47.3476 H   0  0  0  0  0  0  0  0  0  0  0  0
   45.1473   30.9509   45.4014 H   0  0  0  0  0  0  0  0  0  0  0  0
   46.7300   30.3429   46.0097 H   0  0  0  0  0  0  0  0  0  0  0  0
   47.4935   33.9762   42.0558 H   0  0  0  0  0  0  0  0  0  0  0  0
   46.5397   35.4462   41.7211 H   0  0  0  0  0  0  0  0  0  0  0  0
  1  6  2  0
  2  1  1  0
  3  2  2  0
  3  4  1  0
  4  5  2  0
  5  6  1  0
  5  7  1  0
  7  8  1  0
  8  9  1  0
 10  9  1  0
 11 10  1  0
 12  7  1  0
 12 11  1  0
 13  3  1  0
  1 14  1  0
  2 15  1  0
  8 16  1  0
  8 17  1  0
  9 18  1  0
  9 19  1  0
 10 20  1  0
 10 21  1  0
 11 22  1  0
 11 23  1  0
 12 24  1  0
 12 25  1  0
 13 26  1  0
 13 27  1  0
M  ISO  8  14  14  15  14  16  13  17  13  18  13  19  13  20  13  21  13
M  ISO  4  22  13  23  13  24  13  25  13
M  END
>  <minimizedAffinity>  (1) 
-4.63529539

>  <minimizedRMSD>  (1) 
0.971734703

$$$$
