
     RDKit          3D

 32 34  0  0  1  0  0  0  0  0999 V2000
   42.7410   35.2690   40.2490 C   0  0  1  0  0  0  0  0  0  0  0  0
   42.2040   35.3100   41.6590 C   0  0  0  0  0  0  0  0  0  0  0  0
   43.7020   35.5330   41.3090 C   0  0  1  0  0  0  0  0  0  0  0  0
   43.2400   32.2690   38.0140 C   0  0  0  0  0  0  0  0  0  0  0  0
   43.3900   33.5830   38.4860 C   0  0  0  0  0  0  0  0  0  0  0  0
   42.6740   33.9230   39.6240 C   0  0  0  0  0  0  0  0  0  0  0  0
   41.8860   32.9850   40.2050 N   0  0  0  0  0  0  0  0  0  0  0  0
   41.7480   31.7200   39.7420 C   0  0  0  0  0  0  0  0  0  0  0  0
   42.4410   31.3700   38.6310 N   0  0  0  0  0  0  0  0  0  0  0  0
   44.5230   34.5380   41.9370 N   0  0  0  0  0  0  0  0  0  0  0  0
   44.7630   34.6870   43.3260 C   0  0  0  0  0  0  0  0  0  0  0  0
   45.8700   33.7170   43.7680 C   0  0  0  0  0  0  0  0  0  0  0  0
   47.1700   34.3080   43.2730 C   0  0  0  0  0  0  0  0  0  0  0  0
   46.9130   34.9390   41.9350 C   0  0  0  0  0  0  0  0  0  0  0  0
   45.7510   34.2870   41.2260 C   0  0  0  0  0  0  0  0  0  0  0  0
   42.5438   35.7989   39.3054 H   0  0  0  0  0  0  0  0  0  0  0  0
   41.5773   36.1496   41.9943 H   0  0  0  0  0  0  0  0  0  0  0  0
   41.6302   34.6369   42.3130 H   0  0  0  0  0  0  0  0  0  0  0  0
   44.4915   36.2973   41.3583 H   0  0  0  0  0  0  0  0  0  0  0  0
   43.7906   31.9612   37.1128 H   0  0  0  0  0  0  0  0  0  0  0  0
   44.0436   34.3073   37.9779 H   0  0  0  0  0  0  0  0  0  0  0  0
   41.0932   30.9982   40.2522 H   0  0  0  0  0  0  0  0  0  0  0  0
   45.0780   35.7203   43.5337 H   0  0  0  0  0  0  0  0  0  0  0  0
   43.8400   34.4632   43.8810 H   0  0  0  0  0  0  0  0  0  0  0  0
   45.8842   33.6285   44.8643 H   0  0  0  0  0  0  0  0  0  0  0  0
   45.7065   32.7088   43.3595 H   0  0  0  0  0  0  0  0  0  0  0  0
   47.5280   35.0690   43.9820 H   0  0  0  0  0  0  0  0  0  0  0  0
   47.9370   33.5245   43.1850 H   0  0  0  0  0  0  0  0  0  0  0  0
   46.6887   36.0060   42.0809 H   0  0  0  0  0  0  0  0  0  0  0  0
   47.8118   34.8072   41.3146 H   0  0  0  0  0  0  0  0  0  0  0  0
   45.6709   34.6973   40.2085 H   0  0  0  0  0  0  0  0  0  0  0  0
   45.9229   33.2013   41.1836 H   0  0  0  0  0  0  0  0  0  0  0  0
  1  3  1  0
  1  2  1  0
  3  2  1  0
  3 10  1  0
  4  5  2  0
  4  9  1  0
  5  6  1  0
  6  7  2  0
  6  1  1  0
  8  7  1  0
  9  8  2  0
 10 11  1  0
 11 12  1  0
 13 12  1  0
 14 13  1  0
 15 14  1  0
 15 10  1  0
  1 16  1  6
  2 17  1  0
  2 18  1  0
  3 19  1  6
  4 20  1  0
  5 21  1  0
  8 22  1  0
 11 23  1  0
 11 24  1  0
 12 25  1  0
 12 26  1  0
 13 27  1  0
 13 28  1  0
 14 29  1  0
 14 30  1  0
 15 31  1  0
 15 32  1  0
M  ISO  8  16  13  17  13  18  13  19  13  20  14  21  14  22  14  23  13
M  ISO  8  24  13  25  13  26  13  27  13  28  13  29  13  30  13  31  13
M  ISO  1  32  13
M  END
>  <minimizedAffinity>  (1) 
-3.69301057

>  <minimizedRMSD>  (1) 
5.49952078

$$$$
