
     RDKit          3D

 45 48  0  0  1  0  0  0  0  0999 V2000
   44.5130   34.7340   41.7830 C   0  0  2  0  0  0  0  0  0  0  0  0
   43.1680   35.3330   41.4470 C   0  0  0  0  0  0  0  0  0  0  0  0
   43.1630   35.0670   39.9360 C   0  0  0  0  0  0  0  0  0  0  0  0
   43.9040   33.7610   39.7660 C   0  0  1  0  0  0  0  0  0  0  0  0
   44.3230   33.3660   41.1460 C   0  0  0  0  0  0  0  0  0  0  0  0
   44.6440   35.4010   45.4950 C   0  0  0  0  0  0  0  0  0  0  0  0
   44.3630   35.6150   44.1400 C   0  0  0  0  0  0  0  0  0  0  0  0
   44.7430   34.6080   43.2480 C   0  0  0  0  0  0  0  0  0  0  0  0
   45.3720   33.4580   43.7160 N   0  0  0  0  0  0  0  0  0  0  0  0
   45.6150   33.3160   45.0400 C   0  0  0  0  0  0  0  0  0  0  0  0
   45.2530   34.2790   45.9160 N   0  0  0  0  0  0  0  0  0  0  0  0
   43.0520   32.6370   39.2560 C   0  0  2  0  0  0  0  0  0  0  0  0
   43.1230   31.3510   39.9210 C   0  0  0  0  0  0  0  0  0  0  0  0
   43.5240   31.5270   38.4620 C   0  0  2  0  0  0  0  0  0  0  0  0
   44.8760   31.3430   38.0360 N   0  0  0  0  0  0  0  0  0  0  0  0
   45.9050   31.7800   38.9040 C   0  0  0  0  0  0  0  0  0  0  0  0
   47.0970   32.1660   38.0470 C   0  0  0  0  0  0  0  0  0  0  0  0
   46.8070   33.3850   37.2260 C   0  0  0  0  0  0  0  0  0  0  0  0
   45.4040   33.3260   36.6850 C   0  0  0  0  0  0  0  0  0  0  0  0
   45.0110   31.8550   36.7080 C   0  0  0  0  0  0  0  0  0  0  0  0
   45.3761   35.3229   41.4391 H   0  0  0  0  0  0  0  0  0  0  0  0
   42.3449   34.8146   41.9606 H   0  0  0  0  0  0  0  0  0  0  0  0
   43.0278   36.3826   41.7449 H   0  0  0  0  0  0  0  0  0  0  0  0
   42.1322   34.9780   39.5626 H   0  0  0  0  0  0  0  0  0  0  0  0
   43.6333   35.8853   39.3710 H   0  0  0  0  0  0  0  0  0  0  0  0
   44.7160   33.9168   39.0405 H   0  0  0  0  0  0  0  0  0  0  0  0
   43.5406   32.7857   41.6570 H   0  0  0  0  0  0  0  0  0  0  0  0
   45.2092   32.7156   41.1864 H   0  0  0  0  0  0  0  0  0  0  0  0
   44.3602   36.1677   46.2309 H   0  0  0  0  0  0  0  0  0  0  0  0
   43.8661   36.5332   43.7935 H   0  0  0  0  0  0  0  0  0  0  0  0
   46.1128   32.4063   45.4070 H   0  0  0  0  0  0  0  0  0  0  0  0
   42.2726   33.3855   39.0504 H   0  0  0  0  0  0  0  0  0  0  0  0
   43.8884   31.1643   40.6886 H   0  0  0  0  0  0  0  0  0  0  0  0
   42.4219   30.7093   40.4747 H   0  0  0  0  0  0  0  0  0  0  0  0
   43.2374   31.1046   37.4876 H   0  0  0  0  0  0  0  0  0  0  0  0
   45.5624   32.6500   39.4834 H   0  0  0  0  0  0  0  0  0  0  0  0
   46.1794   30.9820   39.6096 H   0  0  0  0  0  0  0  0  0  0  0  0
   47.9570   32.3713   38.7014 H   0  0  0  0  0  0  0  0  0  0  0  0
   47.3171   31.3324   37.3639 H   0  0  0  0  0  0  0  0  0  0  0  0
   46.9165   34.2809   37.8547 H   0  0  0  0  0  0  0  0  0  0  0  0
   47.5144   33.4276   36.3847 H   0  0  0  0  0  0  0  0  0  0  0  0
   45.3737   33.7144   35.6563 H   0  0  0  0  0  0  0  0  0  0  0  0
   44.7136   33.9385   37.2835 H   0  0  0  0  0  0  0  0  0  0  0  0
   44.0496   31.7389   36.1862 H   0  0  0  0  0  0  0  0  0  0  0  0
   45.8127   31.2880   36.2121 H   0  0  0  0  0  0  0  0  0  0  0  0
  1  8  1  0
  2  1  1  0
  3  2  1  0
  4  3  1  0
  4  5  1  0
  5  1  1  0
  6 11  2  0
  7  6  1  0
  8  9  1  0
  8  7  2  0
  9 10  2  0
 10 11  1  0
 12  4  1  0
 12 13  1  0
 14 12  1  0
 14 13  1  0
 15 14  1  0
 15 16  1  0
 17 16  1  0
 18 17  1  0
 19 20  1  0
 19 18  1  0
 20 15  1  0
  1 21  1  6
  2 22  1  0
  2 23  1  0
  3 24  1  0
  3 25  1  0
  4 26  1  6
  5 27  1  0
  5 28  1  0
  6 29  1  0
  7 30  1  0
 10 31  1  0
 12 32  1  6
 13 33  1  0
 13 34  1  0
 14 35  1  6
 16 36  1  0
 16 37  1  0
 17 38  1  0
 17 39  1  0
 18 40  1  0
 18 41  1  0
 19 42  1  0
 19 43  1  0
 20 44  1  0
 20 45  1  0
M  ISO  8  21  13  22  13  23  13  24  13  25  13  26  13  27  13  28  13
M  ISO  8  29  14  30  14  31  14  32  13  33  13  34  13  35  13  36  13
M  ISO  8  37  13  38  13  39  13  40  13  41  13  42  13  43  13  44  13
M  ISO  1  45  13
M  END
>  <minimizedAffinity>  (1) 
-4.26318359

>  <minimizedRMSD>  (1) 
5.8008709

$$$$
