
     RDKit          3D

 32 33  0  0  0  0  0  0  0  0999 V2000
   47.0580   34.2310   43.0520 C   0  0  0  0  0  0  0  0  0  0  0  0
   45.8670   34.6210   43.6760 C   0  0  0  0  0  0  0  0  0  0  0  0
   45.2910   33.7460   44.6040 C   0  0  0  0  0  0  0  0  0  0  0  0
   45.9100   32.5670   44.8530 N   0  0  0  0  0  0  0  0  0  0  0  0
   47.0580   32.2260   44.2300 C   0  0  0  0  0  0  0  0  0  0  0  0
   47.6320   33.0490   43.3340 N   0  0  0  0  0  0  0  0  0  0  0  0
   47.6400   30.9670   44.5510 N   0  0  0  0  0  0  0  0  0  0  0  0
   47.1830   30.2700   45.7390 C   0  0  0  0  0  0  0  0  0  0  0  0
   48.4040   29.9310   46.5510 C   0  0  0  0  0  0  0  0  0  0  0  0
   49.4540   29.2170   45.7730 C   0  0  0  0  0  0  0  0  0  0  0  0
   49.2730   29.1830   44.2970 C   0  0  0  0  0  0  0  0  0  0  0  0
   48.6580   30.4090   43.7120 C   0  0  0  0  0  0  0  0  0  0  0  0
   45.2650   35.9340   43.3300 C   0  0  0  0  0  0  0  0  0  0  0  0
   46.2500   36.8510   43.0380 F   0  0  0  0  0  0  0  0  0  0  0  0
   44.5240   35.7630   42.1660 F   0  0  0  0  0  0  0  0  0  0  0  0
   44.4790   36.4770   44.2900 F   0  0  0  0  0  0  0  0  0  0  0  0
   47.5990   35.0830   42.1620 O   0  0  0  0  0  0  0  0  0  0  0  0
   48.9560   35.1790   41.8030 C   0  0  0  0  0  0  0  0  0  0  0  0
   49.6900   35.3030   42.9790 F   0  0  0  0  0  0  0  0  0  0  0  0
   49.3200   34.0880   41.0590 F   0  0  0  0  0  0  0  0  0  0  0  0
   49.1750   36.3720   41.1220 F   0  0  0  0  0  0  0  0  0  0  0  0
   44.3560   34.0098   45.1200 H   0  0  0  0  0  0  0  0  0  0  0  0
   46.5107   30.9175   46.3211 H   0  0  0  0  0  0  0  0  0  0  0  0
   46.6274   29.3598   45.4692 H   0  0  0  0  0  0  0  0  0  0  0  0
   48.8340   30.8656   46.9404 H   0  0  0  0  0  0  0  0  0  0  0  0
   48.0805   29.2543   47.3556 H   0  0  0  0  0  0  0  0  0  0  0  0
   50.4166   29.7070   45.9813 H   0  0  0  0  0  0  0  0  0  0  0  0
   49.3979   28.1680   46.0992 H   0  0  0  0  0  0  0  0  0  0  0  0
   50.2611   29.0423   43.8346 H   0  0  0  0  0  0  0  0  0  0  0  0
   48.5746   28.3586   44.0905 H   0  0  0  0  0  0  0  0  0  0  0  0
   49.4456   31.1626   43.5646 H   0  0  0  0  0  0  0  0  0  0  0  0
   48.1867   30.1242   42.7598 H   0  0  0  0  0  0  0  0  0  0  0  0
  1  6  2  0
  1  2  1  0
  2  3  2  0
  3  4  1  0
  5  7  1  0
  5  4  2  0
  6  5  1  0
  7  8  1  0
  8  9  1  0
 10  9  1  0
 11 10  1  0
 12 11  1  0
 12  7  1  0
 13  2  1  0
 13 16  1  0
 14 13  1  0
 15 13  1  0
 17  1  1  0
 18 17  1  0
 18 19  1  0
 20 18  1  0
 21 18  1  0
  3 22  1  0
  8 23  1  0
  8 24  1  0
  9 25  1  0
  9 26  1  0
 10 27  1  0
 10 28  1  0
 11 29  1  0
 11 30  1  0
 12 31  1  0
 12 32  1  0
M  ISO  8  22  14  23  13  24  13  25  13  26  13  27  13  28  13  29  13
M  ISO  3  30  13  31  13  32  13
M  END
>  <minimizedAffinity>  (1) 
-5.28504944

>  <minimizedRMSD>  (1) 
0.882177114

$$$$
