
     RDKit          3D

 50 53  0  0  0  0  0  0  0  0999 V2000
   47.5710   29.9736   48.2622 C   0  0  1  0  0  0  0  0  0  0  0  0
   47.4409   28.7824   47.3904 C   0  0  0  0  0  0  0  0  0  0  0  0
   48.7397   28.0441   47.1676 C   0  0  0  0  0  0  0  0  0  0  0  0
   49.5138   27.8453   48.4542 C   0  0  0  0  0  0  0  0  0  0  0  0
   49.5880   29.1092   49.2619 C   0  0  0  0  0  0  0  0  0  0  0  0
   49.0697   30.3062   48.4308 C   0  0  2  0  0  0  0  0  0  0  0  0
   45.9141   33.1428   46.2499 C   0  0  0  0  0  0  0  0  0  0  0  0
   45.3292   32.9518   47.4978 C   0  0  0  0  0  0  0  0  0  0  0  0
   45.8041   31.9315   48.2408 C   0  0  0  0  0  0  0  0  0  0  0  0
   46.8378   31.1122   47.7638 C   0  0  0  0  0  0  0  0  0  0  0  0
   47.1926   31.8184   46.1212 S   0  0  0  0  0  0  0  0  0  0  0  0
   44.4412   36.1110   44.5532 C   0  0  0  0  0  0  0  0  0  0  0  0
   45.0553   36.0145   43.2899 C   0  0  0  0  0  0  0  0  0  0  0  0
   45.9442   34.9420   43.0761 C   0  0  0  0  0  0  0  0  0  0  0  0
   46.1552   34.0640   44.1040 N   0  0  0  0  0  0  0  0  0  0  0  0
   45.5408   34.2041   45.2921 C   0  0  0  0  0  0  0  0  0  0  0  0
   44.6752   35.2356   45.5232 N   0  0  0  0  0  0  0  0  0  0  0  0
   49.2099   31.5101   49.2385 C   0  0  0  0  0  0  0  0  0  0  0  0
   49.9362   31.5672   50.2375 O   0  0  0  0  0  0  0  0  0  0  0  0
   47.2001   29.7798   49.2875 H   0  0  0  0  0  0  0  0  0  0  0  0
   46.7623   28.0498   47.9077 H   0  0  0  0  0  0  0  0  0  0  0  0
   46.9917   28.9633   46.4048 H   0  0  0  0  0  0  0  0  0  0  0  0
   48.4794   27.0638   46.7657 H   0  0  0  0  0  0  0  0  0  0  0  0
   49.3400   28.6071   46.4285 H   0  0  0  0  0  0  0  0  0  0  0  0
   50.5654   27.6022   48.1322 H   0  0  0  0  0  0  0  0  0  0  0  0
   49.1134   26.9919   49.0042 H   0  0  0  0  0  0  0  0  0  0  0  0
   50.5819   29.3269   49.6694 H   0  0  0  0  0  0  0  0  0  0  0  0
   48.8472   29.0047   50.0999 H   0  0  0  0  0  0  0  0  0  0  0  0
   49.5729   30.3576   47.4460 H   0  0  0  0  0  0  0  0  0  0  0  0
   44.5345   33.5888   47.8539 H   0  0  0  0  0  0  0  0  0  0  0  0
   45.4743   31.6366   49.2238 H   0  0  0  0  0  0  0  0  0  0  0  0
   43.7647   36.9214   44.7265 H   0  0  0  0  0  0  0  0  0  0  0  0
   44.8914   36.6967   42.4908 H   0  0  0  0  0  0  0  0  0  0  0  0
   46.4599   34.7914   42.1357 H   0  0  0  0  0  0  0  0  0  0  0  0
   49.0804   32.7889   49.7217 N   0  0  0  0  0  0  0  0  0  0  0  0
   49.1661   33.9811   48.8983 C   0  0  0  0  0  0  0  0  0  0  0  0
   49.7978   35.1210   49.6879 C   0  0  0  0  0  0  0  0  0  0  0  0
   48.7899   35.6585   50.6995 C   0  0  0  0  0  0  0  0  0  0  0  0
   48.1870   36.4920   50.3101 H   0  0  0  0  0  0  0  0  0  0  0  0
   47.8903   34.4700   51.0944 C   0  0  0  0  0  0  0  0  0  0  0  0
   48.8214   33.2718   51.0793 C   0  0  0  0  0  0  0  0  0  0  0  0
   49.7458   33.8959   47.9839 H   0  0  0  0  0  0  0  0  0  0  0  0
   48.1476   34.3436   48.6046 H   0  0  0  0  0  0  0  0  0  0  0  0
   50.7485   34.8157   50.1315 H   0  0  0  0  0  0  0  0  0  0  0  0
   49.9865   35.9292   48.9674 H   0  0  0  0  0  0  0  0  0  0  0  0
   49.3684   36.0157   51.5710 H   0  0  0  0  0  0  0  0  0  0  0  0
   47.0568   34.4017   50.3927 H   0  0  0  0  0  0  0  0  0  0  0  0
   47.5992   34.6399   52.1307 H   0  0  0  0  0  0  0  0  0  0  0  0
   48.4705   32.4746   51.7528 H   0  0  0  0  0  0  0  0  0  0  0  0
   49.8001   33.6107   51.4768 H   0  0  0  0  0  0  0  0  0  0  0  0
  1  6  1  0
  2  1  1  0
  3  2  1  0
  3  4  1  0
  4  5  1  0
  6 18  1  0
  6  5  1  0
  7  8  2  0
  8  9  1  0
 10  1  1  0
 10  9  2  0
 11  7  1  0
 11 10  1  0
 12 17  2  0
 13 12  1  0
 14 13  2  0
 14 15  1  0
 15 16  2  0
 16 17  1  0
 16  7  1  0
 18 19  2  0
  1 20  1  1
  2 21  1  0
  2 22  1  0
  3 23  1  0
  3 24  1  0
  4 25  1  0
  4 26  1  0
  5 27  1  0
  5 28  1  0
  6 29  1  6
  8 30  1  0
  9 31  1  0
 12 32  1  0
 13 33  1  0
 14 34  1  0
 35 36  1  0
 36 37  1  0
 37 38  1  0
 38 39  1  0
 38 40  1  0
 40 41  1  0
 41 35  1  0
 36 42  1  0
 36 43  1  0
 37 44  1  0
 37 45  1  0
 38 46  1  0
 40 47  1  0
 40 48  1  0
 41 49  1  0
 41 50  1  0
 18 35  1  0
M  ISO  8  20  13  21  13  22  13  23  13  24  13  25  13  26  13  27  13
M  ISO  8  28  13  29  13  30  14  31  14  32  14  33  14  34  14  39  15
M  END
>  <DihAtoms>  (1) 
5,17,34,35

>  <DihDeg>  (1) 
177.6411717165583

$$$$
