
     RDKit          3D

 29 30  0  0  0  0  0  0  0  0999 V2000
   47.1611   33.9895   42.4711 C   0  0  0  0  0  0  0  0  0  0  0  0
   45.3069   34.2321   45.6936 C   0  0  0  0  0  0  0  0  0  0  0  0
   46.1759   33.7538   44.7100 C   0  0  0  0  0  0  0  0  0  0  0  0
   46.2618   34.4590   43.5259 C   0  0  0  0  0  0  0  0  0  0  0  0
   45.5004   35.5815   43.3715 N   0  0  0  0  0  0  0  0  0  0  0  0
   44.6588   36.0295   44.3460 C   0  0  0  0  0  0  0  0  0  0  0  0
   44.5759   35.3487   45.4895 N   0  0  0  0  0  0  0  0  0  0  0  0
   48.3128   33.4203   43.0090 O   0  0  0  0  0  0  0  0  0  0  0  0
   50.6588   33.0962   41.9038 O   0  0  0  0  0  0  0  0  0  0  0  0
   49.6336   34.1546   42.2267 P   0  0  2  0  0  0  0  0  0  0  0  0
   50.2097   35.3540   43.2542 O   0  0  0  0  0  0  0  0  0  0  0  0
   49.0654   34.8068   40.7855 O   0  0  0  0  0  0  0  0  0  0  0  0
   47.3902   34.8882   41.8356 H   0  0  0  0  0  0  0  0  0  0  0  0
   46.7163   33.2514   41.7743 H   0  0  0  0  0  0  0  0  0  0  0  0
   45.1989   33.7176   46.6451 H   0  0  0  0  0  0  0  0  0  0  0  0
   46.7600   32.8559   44.8815 H   0  0  0  0  0  0  0  0  0  0  0  0
   44.1369   36.9316   44.0488 H   0  0  0  0  0  0  0  0  0  0  0  0
   50.4770   34.9228   44.1139 H   0  0  0  0  0  0  0  0  0  0  0  0
   48.3257   35.2624   38.2387 F   0  0  0  0  0  0  0  0  0  0  0  0
   49.3803   35.8950   38.8085 C   0  0  0  0  0  0  0  0  0  0  0  0
   49.8460   35.7348   40.1094 C   0  0  0  0  0  0  0  0  0  0  0  0
   50.9372   36.4550   40.5423 C   0  0  0  0  0  0  0  0  0  0  0  0
   51.1987   36.2406   41.5698 H   0  0  0  0  0  0  0  0  0  0  0  0
   51.5543   37.3299   39.6704 C   0  0  0  0  0  0  0  0  0  0  0  0
   52.4078   37.8655   40.0753 H   0  0  0  0  0  0  0  0  0  0  0  0
   51.1136   37.5006   38.3939 C   0  0  0  0  0  0  0  0  0  0  0  0
   50.0074   36.7820   37.9277 C   0  0  0  0  0  0  0  0  0  0  0  0
   51.6065   38.1897   37.7204 H   0  0  0  0  0  0  0  0  0  0  0  0
   49.6931   36.9500   36.9066 H   0  0  0  0  0  0  0  0  0  0  0  0
  1  8  1  0
  1  4  1  0
  3  2  2  0
  4  3  1  0
  5  4  2  0
  5  6  1  0
  6  7  2  0
  7  2  1  0
  9 10  2  0
 10  8  1  1
 10 11  1  0
 12 10  1  0
  1 13  1  0
  1 14  1  0
  2 15  1  0
  3 16  1  0
  6 17  1  0
 11 18  1  0
 19 20  1  0
 20 21  2  0
 21 22  1  0
 22 23  1  0
 22 24  2  0
 24 25  1  0
 24 26  1  0
 26 27  2  0
 27 20  1  0
 26 28  1  0
 27 29  1  0
 12 21  1  0
M  ISO  8  13   8  14   8  15  14  16  14  17  14  18   3  23  15  25  16
M  END
>  <DihAtoms>  (1) 
9,11,20,19

>  <DihDeg>  (1) 
-179.9993544214106

$$$$
