
     RDKit          3D

 39 41  0  0  0  0  0  0  0  0999 V2000
   45.6250   29.8890   44.8010 Br  0  0  0  0  0  0  0  0  0  0  0  0
   45.6690   30.5600   46.6000 C   0  0  0  0  0  0  0  0  0  0  0  0
   46.3400   31.7420   46.7800 C   0  0  0  0  0  0  0  0  0  0  0  0
   46.3530   32.2060   48.1100 C   0  0  0  0  0  0  0  0  0  0  0  0
   45.7490   31.5420   49.1520 C   0  0  0  0  0  0  0  0  0  0  0  0
   45.0950   30.3640   48.8900 C   0  0  0  0  0  0  0  0  0  0  0  0
   45.0480   29.8590   47.6130 C   0  0  0  0  0  0  0  0  0  0  0  0
   47.0200   32.5430   45.7700 C   0  0  0  0  0  0  0  0  0  0  0  0
   44.5360   35.3100   45.4260 C   0  0  0  0  0  0  0  0  0  0  0  0
   44.7520   35.7190   44.1100 C   0  0  0  0  0  0  0  0  0  0  0  0
   45.7270   35.0580   43.3630 C   0  0  0  0  0  0  0  0  0  0  0  0
   46.4220   34.0490   43.9440 N   0  0  0  0  0  0  0  0  0  0  0  0
   46.1990   33.6620   45.2340 C   0  0  0  0  0  0  0  0  0  0  0  0
   45.2570   34.3130   45.9280 N   0  0  0  0  0  0  0  0  0  0  0  0
   44.3820   28.6570   47.3460 O   0  0  0  0  0  0  0  0  0  0  0  0
   44.2950   26.0910   46.9890 O   0  0  0  0  0  0  0  0  0  0  0  0
   44.9680   27.1430   47.8490 P   0  0  2  0  0  0  0  0  0  0  0  0
   44.5300   26.9260   49.4580 O   0  0  0  0  0  0  0  0  0  0  0  0
   46.6320   27.0120   47.6650 O   0  0  0  0  0  0  0  0  0  0  0  0
   47.5340   25.8790   45.3820 F   0  0  0  0  0  0  0  0  0  0  0  0
   47.8380   25.3600   46.6160 C   0  0  0  0  0  0  0  0  0  0  0  0
   47.4050   25.8930   47.8370 C   0  0  0  0  0  0  0  0  0  0  0  0
   47.7930   25.2590   48.9870 C   0  0  0  0  0  0  0  0  0  0  0  0
   48.5890   24.1270   48.9060 C   0  0  0  0  0  0  0  0  0  0  0  0
   49.0180   23.5970   47.7040 C   0  0  0  0  0  0  0  0  0  0  0  0
   48.6300   24.2310   46.5640 C   0  0  0  0  0  0  0  0  0  0  0  0
   46.8742   33.1501   48.3268 H   0  0  0  0  0  0  0  0  0  0  0  0
   45.7892   31.9465   50.1741 H   0  0  0  0  0  0  0  0  0  0  0  0
   44.6040   29.8192   49.7099 H   0  0  0  0  0  0  0  0  0  0  0  0
   47.9308   32.9660   46.2190 H   0  0  0  0  0  0  0  0  0  0  0  0
   47.2372   31.8733   44.9248 H   0  0  0  0  0  0  0  0  0  0  0  0
   43.7746   35.8090   46.0435 H   0  0  0  0  0  0  0  0  0  0  0  0
   44.1681   36.5421   43.6723 H   0  0  0  0  0  0  0  0  0  0  0  0
   45.9284   35.3499   42.3217 H   0  0  0  0  0  0  0  0  0  0  0  0
   45.2443   27.2799   50.0451 H   0  0  0  0  0  0  0  0  0  0  0  0
   47.4757   25.6448   49.9670 H   0  0  0  0  0  0  0  0  0  0  0  0
   48.8923   23.6291   49.8388 H   0  0  0  0  0  0  0  0  0  0  0  0
   49.6492   22.6968   47.6700 H   0  0  0  0  0  0  0  0  0  0  0  0
   48.9519   23.8384   45.5882 H   0  0  0  0  0  0  0  0  0  0  0  0
  1  2  1  0
  2  3  2  0
  2  7  1  0
  3  4  1  0
  4  5  2  0
  6  5  1  0
  7  6  2  0
  8  3  1  0
  9 14  2  0
 10  9  1  0
 11 12  1  0
 11 10  2  0
 12 13  2  0
 13  8  1  0
 13 14  1  0
 15  7  1  0
 15 17  1  0
 17 16  2  0
 17 18  1  0
 19 22  1  0
 19 17  1  0
 20 21  1  0
 21 22  2  0
 22 23  1  0
 24 23  2  0
 25 24  1  0
 26 21  1  0
 26 25  2  0
  4 27  1  0
  5 28  1  0
  6 29  1  0
  8 30  1  0
  8 31  1  0
  9 32  1  0
 10 33  1  0
 11 34  1  0
 18 35  1  0
 23 36  1  0
 24 37  1  0
 25 38  1  0
 26 39  1  0
M  ISO  8  27  14  28  14  29  14  30   8  31   8  32  14  33  14  34  14
M  ISO  5  35   3  36  14  37  14  38  14  39  14
M  END
>  <minimizedAffinity>  (1) 
-5.17623663

>  <minimizedRMSD>  (1) 
1.50672853

$$$$
