
     RDKit          3D

 46 49  0  0  0  0  0  0  0  0999 V2000
   45.1318   36.0146   42.9172 C   0  0  0  0  0  0  0  0  0  0  0  0
   45.3715   34.6475   42.9078 C   0  0  0  0  0  0  0  0  0  0  0  0
   45.2136   33.9206   44.0618 C   0  0  0  0  0  0  0  0  0  0  0  0
   44.8129   34.6112   45.1919 N   0  0  0  0  0  0  0  0  0  0  0  0
   44.5856   35.9224   45.1886 C   0  0  0  0  0  0  0  0  0  0  0  0
   44.7501   36.6139   44.0401 N   0  0  0  0  0  0  0  0  0  0  0  0
   45.4184   32.5314   44.2200 C   0  0  0  0  0  0  0  0  0  0  0  0
   44.9397   31.5640   43.3296 C   0  0  0  0  0  0  0  0  0  0  0  0
   45.0797   30.2113   43.5157 C   0  0  0  0  0  0  0  0  0  0  0  0
   45.7291   29.7354   44.6430 C   0  0  0  0  0  0  0  0  0  0  0  0
   46.2200   30.7066   45.5515 C   0  0  0  0  0  0  0  0  0  0  0  0
   46.8640   30.2492   46.6739 C   0  0  0  0  0  0  0  0  0  0  0  0
   47.3710   31.1360   47.6045 C   0  0  0  0  0  0  0  0  0  0  0  0
   47.2229   32.5113   47.3908 C   0  0  0  0  0  0  0  0  0  0  0  0
   46.5547   32.9367   46.2258 C   0  0  0  0  0  0  0  0  0  0  0  0
   46.0601   32.0344   45.3249 C   0  0  0  0  0  0  0  0  0  0  0  0
   45.7556   34.0916   41.7273 O   0  0  0  0  0  0  0  0  0  0  0  0
   47.6849   32.4242   41.0911 O   0  0  0  0  0  0  0  0  0  0  0  0
   47.3633   33.8802   41.2373 P   0  0  1  0  0  0  0  0  0  0  0  0
   47.6650   34.6123   39.7502 O   0  0  0  0  0  0  0  0  0  0  0  0
   48.3582   34.5935   42.3878 O   0  0  0  0  0  0  0  0  0  0  0  0
   49.5328   35.2903   42.1476 C   0  0  0  0  0  0  0  0  0  0  0  0
   49.2001   36.2051   41.3686 O   0  0  0  0  0  0  0  0  0  0  0  0
   50.6359   34.7063   42.8648 N   0  0  0  0  0  0  0  0  0  0  0  0
   45.2513   36.6120   42.0145 H   0  0  0  0  0  0  0  0  0  0  0  0
   44.2728   36.3949   46.1183 H   0  0  0  0  0  0  0  0  0  0  0  0
   44.4303   31.9423   42.4463 H   0  0  0  0  0  0  0  0  0  0  0  0
   44.6722   29.5463   42.7644 H   0  0  0  0  0  0  0  0  0  0  0  0
   45.8379   28.6878   44.7909 H   0  0  0  0  0  0  0  0  0  0  0  0
   46.9676   29.1736   46.8168 H   0  0  0  0  0  0  0  0  0  0  0  0
   47.8578   30.6972   48.4522 H   0  0  0  0  0  0  0  0  0  0  0  0
   47.6501   33.1287   48.1664 H   0  0  0  0  0  0  0  0  0  0  0  0
   46.5657   34.0053   46.2354 H   0  0  0  0  0  0  0  0  0  0  0  0
   51.4602   34.1795   42.4785 H   0  0  0  0  0  0  0  0  0  0  0  0
   50.5914   34.8346   43.9062 H   0  0  0  0  0  0  0  0  0  0  0  0
   46.4804   36.3111   37.8037 F   0  0  0  0  0  0  0  0  0  0  0  0
   46.3312   34.9763   37.6477 C   0  0  0  0  0  0  0  0  0  0  0  0
   46.9383   34.2423   38.6383 C   0  0  0  0  0  0  0  0  0  0  0  0
   46.8383   32.8484   38.5647 C   0  0  0  0  0  0  0  0  0  0  0  0
   47.2654   32.1222   39.2740 H   0  0  0  0  0  0  0  0  0  0  0  0
   46.1544   32.2198   37.5345 C   0  0  0  0  0  0  0  0  0  0  0  0
   46.0559   31.1489   37.4440 H   0  0  0  0  0  0  0  0  0  0  0  0
   45.5504   32.9692   36.5476 C   0  0  0  0  0  0  0  0  0  0  0  0
   45.6536   34.3424   36.6275 C   0  0  0  0  0  0  0  0  0  0  0  0
   44.9979   32.6332   35.7051 H   0  0  0  0  0  0  0  0  0  0  0  0
   45.2289   35.0585   35.9224 H   0  0  0  0  0  0  0  0  0  0  0  0
  1  6  2  0
  2  1  1  0
  2  3  2  0
  3  7  1  0
  3  4  1  0
  5  4  2  0
  6  5  1  0
  7 16  2  0
  8  9  2  0
  8  7  1  0
  9 10  1  0
 10 11  2  0
 11 12  1  0
 12 13  2  0
 14 13  1  0
 15 14  2  0
 16 11  1  0
 16 15  1  0
 17  2  1  0
 19 18  2  0
 19 17  1  1
 19 21  1  0
 20 19  1  0
 22 21  1  0
 22 24  1  0
 23 22  2  0
  1 25  1  0
  5 26  1  0
  8 27  1  0
  9 28  1  0
 10 29  1  0
 12 30  1  0
 13 31  1  0
 14 32  1  0
 15 33  1  0
 24 34  1  0
 24 35  1  0
 36 37  1  0
 37 38  2  0
 38 39  1  0
 39 40  1  0
 39 41  2  0
 41 42  1  0
 41 43  1  0
 43 44  2  0
 44 37  1  0
 43 45  1  0
 44 46  1  0
 20 38  1  0
M  ISO  8  25  14  26  14  27  14  28  14  29  14  30  14  31  14  32  14
M  ISO  3  33  14  40  15  42  16
M  END
>  <DihAtoms>  (1) 
18,19,37,36

>  <DihDeg>  (1) 
-0.0785550397004517

$$$$
