
     RDKit          3D

 43 45  0  0  0  0  0  0  0  0999 V2000
   46.1560   34.5470   43.5890 C   0  0  0  0  0  0  0  0  0  0  0  0
   46.1820   33.7720   44.7310 C   0  0  0  0  0  0  0  0  0  0  0  0
   45.3720   34.1490   45.7670 C   0  0  0  0  0  0  0  0  0  0  0  0
   44.5890   35.2590   45.6210 N   0  0  0  0  0  0  0  0  0  0  0  0
   44.5670   35.9990   44.5220 C   0  0  0  0  0  0  0  0  0  0  0  0
   45.3530   35.6300   43.5230 N   0  0  0  0  0  0  0  0  0  0  0  0
   47.0690   34.1320   42.5200 C   0  0  0  0  0  0  0  0  0  0  0  0
   48.4190   34.6710   42.5790 C   0  0  0  0  0  0  0  0  0  0  0  0
   48.7340   35.6040   41.4850 C   0  0  0  0  0  0  0  0  0  0  0  0
   48.5320   34.9510   40.1210 C   0  0  0  0  0  0  0  0  0  0  0  0
   47.2970   34.1220   40.0460 C   0  0  0  0  0  0  0  0  0  0  0  0
   46.3610   34.4210   41.1980 C   0  0  0  0  0  0  0  0  0  0  0  0
   46.8430   32.6880   45.0750 O   0  0  0  0  0  0  0  0  0  0  0  0
   47.0280   31.9560   46.2010 C   0  0  0  0  0  0  0  0  0  0  0  0
   47.5820   30.5730   46.0170 C   0  0  0  0  0  0  0  0  0  0  0  0
   45.2120   31.1800   47.4050 F   0  0  0  0  0  0  0  0  0  0  0  0
   45.6650   29.8930   47.2780 C   0  0  0  0  0  0  0  0  0  0  0  0
   46.8290   29.4850   46.6160 C   0  0  0  0  0  0  0  0  0  0  0  0
   47.0570   28.1290   46.6340 C   0  0  0  0  0  0  0  0  0  0  0  0
   46.2610   27.1860   47.2280 C   0  0  0  0  0  0  0  0  0  0  0  0
   45.1210   27.5850   47.8780 C   0  0  0  0  0  0  0  0  0  0  0  0
   44.8430   28.9540   47.8880 C   0  0  0  0  0  0  0  0  0  0  0  0
   45.3515   33.5686   46.7012 H   0  0  0  0  0  0  0  0  0  0  0  0
   43.9206   36.8855   44.4430 H   0  0  0  0  0  0  0  0  0  0  0  0
   47.2710   33.0576   42.6421 H   0  0  0  0  0  0  0  0  0  0  0  0
   48.5385   35.2033   43.5342 H   0  0  0  0  0  0  0  0  0  0  0  0
   49.1087   33.8195   42.4827 H   0  0  0  0  0  0  0  0  0  0  0  0
   48.0757   36.4818   41.5626 H   0  0  0  0  0  0  0  0  0  0  0  0
   49.7899   35.8989   41.5747 H   0  0  0  0  0  0  0  0  0  0  0  0
   48.4687   35.7428   39.3600 H   0  0  0  0  0  0  0  0  0  0  0  0
   49.3872   34.2809   39.9489 H   0  0  0  0  0  0  0  0  0  0  0  0
   46.7793   34.3357   39.0993 H   0  0  0  0  0  0  0  0  0  0  0  0
   47.5871   33.0624   40.1013 H   0  0  0  0  0  0  0  0  0  0  0  0
   46.0656   35.4801   41.1646 H   0  0  0  0  0  0  0  0  0  0  0  0
   45.4659   33.7869   41.1161 H   0  0  0  0  0  0  0  0  0  0  0  0
   47.7219   32.5105   46.8499 H   0  0  0  0  0  0  0  0  0  0  0  0
   46.0227   31.8131   46.6240 H   0  0  0  0  0  0  0  0  0  0  0  0
   47.6445   30.3798   44.9359 H   0  0  0  0  0  0  0  0  0  0  0  0
   48.5502   30.5770   46.5390 H   0  0  0  0  0  0  0  0  0  0  0  0
   47.9625   27.7683   46.1241 H   0  0  0  0  0  0  0  0  0  0  0  0
   46.5328   26.1210   47.1843 H   0  0  0  0  0  0  0  0  0  0  0  0
   44.4557   26.8597   48.3692 H   0  0  0  0  0  0  0  0  0  0  0  0
   43.9346   29.3032   48.4007 H   0  0  0  0  0  0  0  0  0  0  0  0
  1  2  1  0
  2 13  1  0
  2  3  2  0
  4  3  1  0
  5  4  2  0
  6  1  2  0
  6  5  1  0
  7  8  1  0
  7  1  1  0
  9  8  1  0
 10  9  1  0
 11 10  1  0
 11 12  1  0
 12  7  1  0
 13 14  1  0
 15 14  1  0
 15 18  1  0
 17 16  1  0
 17 22  2  0
 18 19  2  0
 18 17  1  0
 19 20  1  0
 20 21  2  0
 21 22  1  0
  3 23  1  0
  5 24  1  0
  7 25  1  0
  8 26  1  0
  8 27  1  0
  9 28  1  0
  9 29  1  0
 10 30  1  0
 10 31  1  0
 11 32  1  0
 11 33  1  0
 12 34  1  0
 12 35  1  0
 14 36  1  0
 14 37  1  0
 15 38  1  0
 15 39  1  0
 19 40  1  0
 20 41  1  0
 21 42  1  0
 22 43  1  0
M  ISO  8  23  14  24  14  25  13  26  13  27  13  28  13  29  13  30  13
M  ISO  8  31  13  32  13  33  13  34  13  35  13  36   8  37   8  38   8
M  ISO  5  39   8  40  14  41  14  42  14  43  14
M  END
>  <minimizedAffinity>  (1) 
-5.80565453

>  <minimizedRMSD>  (1) 
2.3612473

$$$$
