
     RDKit          3D

 43 45  0  0  0  0  0  0  0  0999 V2000
   45.4360   35.5580   43.4470 C   0  0  0  0  0  0  0  0  0  0  0  0
   46.3100   34.4750   43.7310 C   0  0  0  0  0  0  0  0  0  0  0  0
   46.2150   33.8660   44.9710 C   0  0  0  0  0  0  0  0  0  0  0  0
   45.2940   34.3260   45.8610 N   0  0  0  0  0  0  0  0  0  0  0  0
   44.4730   35.3560   45.5750 C   0  0  0  0  0  0  0  0  0  0  0  0
   44.5500   35.9610   44.3750 N   0  0  0  0  0  0  0  0  0  0  0  0
   47.2050   34.1270   42.6930 N   0  0  0  0  0  0  0  0  0  0  0  0
   48.6310   34.3920   42.7420 C   0  0  0  0  0  0  0  0  0  0  0  0
   49.3090   33.7850   41.5440 C   0  0  0  0  0  0  0  0  0  0  0  0
   48.6920   34.1340   40.2990 N   0  0  0  0  0  0  0  0  0  0  0  0
   47.2730   33.9630   40.2490 C   0  0  0  0  0  0  0  0  0  0  0  0
   46.6500   33.4640   41.5140 C   0  0  0  0  0  0  0  0  0  0  0  0
   47.0750   32.8220   45.2150 O   0  0  0  0  0  0  0  0  0  0  0  0
   45.4190   30.8090   44.7360 O   0  0  0  0  0  0  0  0  0  0  0  0
   46.4420   31.2980   45.7570 P   0  0  1  0  0  0  0  0  0  0  0  0
   47.7180   30.2640   45.9590 O   0  0  0  0  0  0  0  0  0  0  0  0
   49.8750   29.3280   47.2660 F   0  0  0  0  0  0  0  0  0  0  0  0
   48.7550   28.5750   47.2290 C   0  0  0  0  0  0  0  0  0  0  0  0
   47.6140   29.0260   46.5610 C   0  0  0  0  0  0  0  0  0  0  0  0
   46.5150   28.1960   46.5730 C   0  0  0  0  0  0  0  0  0  0  0  0
   46.4990   26.9780   47.1980 C   0  0  0  0  0  0  0  0  0  0  0  0
   47.6250   26.5200   47.8640 C   0  0  0  0  0  0  0  0  0  0  0  0
   48.7220   27.3440   47.8540 C   0  0  0  0  0  0  0  0  0  0  0  0
   45.6410   31.6290   47.2110 O   0  0  0  0  0  0  0  0  0  0  0  0
   46.4830   31.9240   48.2480 C   0  0  0  0  0  0  0  0  0  0  0  0
   47.6200   32.6070   47.8520 F   0  0  0  0  0  0  0  0  0  0  0  0
   46.8560   30.8410   49.0050 F   0  0  0  0  0  0  0  0  0  0  0  0
   45.7680   32.7620   49.1030 F   0  0  0  0  0  0  0  0  0  0  0  0
   45.4836   36.0650   42.4720 H   0  0  0  0  0  0  0  0  0  0  0  0
   43.7417   35.7014   46.3206 H   0  0  0  0  0  0  0  0  0  0  0  0
   48.7996   35.4790   42.7440 H   0  0  0  0  0  0  0  0  0  0  0  0
   49.0494   33.9477   43.6572 H   0  0  0  0  0  0  0  0  0  0  0  0
   50.3534   34.1297   41.5235 H   0  0  0  0  0  0  0  0  0  0  0  0
   49.2315   32.6927   41.6479 H   0  0  0  0  0  0  0  0  0  0  0  0
   48.8997   35.1246   40.1080 H   0  0  0  0  0  0  0  0  0  0  0  0
   46.8207   34.9360   40.0069 H   0  0  0  0  0  0  0  0  0  0  0  0
   47.0837   33.1911   39.4885 H   0  0  0  0  0  0  0  0  0  0  0  0
   45.5671   33.6535   41.4761 H   0  0  0  0  0  0  0  0  0  0  0  0
   46.8613   32.3877   41.5968 H   0  0  0  0  0  0  0  0  0  0  0  0
   45.6039   28.5286   46.0541 H   0  0  0  0  0  0  0  0  0  0  0  0
   45.5891   26.3605   47.1715 H   0  0  0  0  0  0  0  0  0  0  0  0
   47.6384   25.5457   48.3745 H   0  0  0  0  0  0  0  0  0  0  0  0
   49.6292   27.0038   48.3748 H   0  0  0  0  0  0  0  0  0  0  0  0
  1  2  2  0
  1  6  1  0
  2  3  1  0
  3 13  1  0
  3  4  2  0
  5  4  1  0
  6  5  2  0
  7  8  1  0
  7  2  1  0
  9  8  1  0
 10  9  1  0
 11 10  1  0
 11 12  1  0
 12  7  1  0
 13 15  1  0
 15 14  2  0
 15 16  1  0
 15 24  1  0
 16 19  1  0
 18 17  1  0
 18 23  2  0
 19 20  2  0
 19 18  1  0
 20 21  1  0
 21 22  2  0
 23 22  1  0
 24 25  1  0
 25 27  1  0
 25 28  1  0
 26 25  1  0
  1 29  1  0
  5 30  1  0
  8 31  1  0
  8 32  1  0
  9 33  1  0
  9 34  1  0
 10 35  1  0
 11 36  1  0
 11 37  1  0
 12 38  1  0
 12 39  1  0
 20 40  1  0
 21 41  1  0
 22 42  1  0
 23 43  1  0
M  ISO  8  29  14  30  14  31  13  32  13  33  13  34  13  35   5  36  13
M  ISO  7  37  13  38  13  39  13  40  14  41  14  42  14  43  14
M  END
>  <minimizedAffinity>  (1) 
-5.42286253

>  <minimizedRMSD>  (1) 
0.875040948

$$$$
