
     RDKit          3D

 42 45  0  0  1  0  0  0  0  0999 V2000
   46.2190   32.5670   38.8730 C   0  0  2  0  0  0  0  0  0  0  0  0
   47.1630   31.6580   38.1810 C   0  0  0  0  0  0  0  0  0  0  0  0
   46.4090   32.7720   37.4490 C   0  0  1  0  0  0  0  0  0  0  0  0
   46.5970   34.6220   41.9070 C   0  0  0  0  0  0  0  0  0  0  0  0
   47.7930   35.2290   41.5680 C   0  0  0  0  0  0  0  0  0  0  0  0
   48.5000   35.0100   40.4000 C   0  0  0  0  0  0  0  0  0  0  0  0
   47.9650   34.1100   39.4970 C   0  0  0  0  0  0  0  0  0  0  0  0
   46.7820   33.5210   39.8510 C   0  0  0  0  0  0  0  0  0  0  0  0
   46.1500   33.7710   40.9860 N   0  0  0  0  0  0  0  0  0  0  0  0
   44.5230   36.1110   44.6690 C   0  0  0  0  0  0  0  0  0  0  0  0
   45.1200   36.0100   43.4030 C   0  0  0  0  0  0  0  0  0  0  0  0
   45.9010   34.8940   43.1610 C   0  0  0  0  0  0  0  0  0  0  0  0
   46.0500   33.9710   44.1380 N   0  0  0  0  0  0  0  0  0  0  0  0
   45.4520   34.1090   45.3550 C   0  0  0  0  0  0  0  0  0  0  0  0
   44.7000   35.1740   45.5990 N   0  0  0  0  0  0  0  0  0  0  0  0
   45.4340   32.3470   36.5320 O   0  0  0  0  0  0  0  0  0  0  0  0
   45.9420   30.7080   34.6440 O   0  0  0  0  0  0  0  0  0  0  0  0
   46.0470   32.1990   34.9570 P   0  0  1  0  0  0  0  0  0  0  0  0
   45.0040   32.9810   33.8760 O   0  0  0  0  0  0  0  0  0  0  0  0
   47.6350   32.6380   34.7900 O   0  0  0  0  0  0  0  0  0  0  0  0
   50.0900   31.1250   35.2420 F   0  0  0  0  0  0  0  0  0  0  0  0
   49.7930   31.5110   33.9840 C   0  0  0  0  0  0  0  0  0  0  0  0
   48.6100   32.2090   33.9440 C   0  0  0  0  0  0  0  0  0  0  0  0
   48.2270   32.6510   32.6640 C   0  0  0  0  0  0  0  0  0  0  0  0
   49.0080   32.3860   31.5290 C   0  0  0  0  0  0  0  0  0  0  0  0
   50.1850   31.6760   31.6490 C   0  0  0  0  0  0  0  0  0  0  0  0
   50.5790   31.2340   32.8940 C   0  0  0  0  0  0  0  0  0  0  0  0
   45.3182   32.4310   39.4895 H   0  0  0  0  0  0  0  0  0  0  0  0
   48.2457   31.7410   38.3567 H   0  0  0  0  0  0  0  0  0  0  0  0
   47.2745   30.5696   38.0667 H   0  0  0  0  0  0  0  0  0  0  0  0
   46.6597   33.6542   36.8417 H   0  0  0  0  0  0  0  0  0  0  0  0
   48.2167   35.9453   42.2873 H   0  0  0  0  0  0  0  0  0  0  0  0
   49.4481   35.5299   40.1978 H   0  0  0  0  0  0  0  0  0  0  0  0
   48.4642   33.8797   38.5442 H   0  0  0  0  0  0  0  0  0  0  0  0
   43.8944   36.9840   44.8986 H   0  0  0  0  0  0  0  0  0  0  0  0
   44.9733   36.7848   42.6361 H   0  0  0  0  0  0  0  0  0  0  0  0
   45.5922   33.3415   46.1304 H   0  0  0  0  0  0  0  0  0  0  0  0
   44.3241   33.4908   34.3838 H   0  0  0  0  0  0  0  0  0  0  0  0
   47.2916   33.2186   32.5505 H   0  0  0  0  0  0  0  0  0  0  0  0
   48.6815   32.7449   30.5418 H   0  0  0  0  0  0  0  0  0  0  0  0
   50.8012   31.4653   30.7625 H   0  0  0  0  0  0  0  0  0  0  0  0
   51.5133   30.6655   33.0122 H   0  0  0  0  0  0  0  0  0  0  0  0
  1  8  1  0
  2  1  1  0
  3  2  1  0
  3  1  1  0
  4 12  1  0
  5  4  2  0
  6  5  1  0
  7  8  1  0
  7  6  2  0
  8  9  2  0
  9  4  1  0
 10 15  2  0
 11 10  1  0
 12 11  2  0
 12 13  1  0
 13 14  2  0
 14 15  1  0
 16  3  1  0
 18 17  2  0
 18 16  1  0
 19 18  1  0
 20 18  1  0
 22 21  1  0
 23 22  2  0
 23 20  1  0
 24 23  1  0
 25 26  1  0
 25 24  2  0
 26 27  2  0
 27 22  1  0
  1 28  1  6
  2 29  1  0
  2 30  1  0
  3 31  1  1
  5 32  1  0
  6 33  1  0
  7 34  1  0
 10 35  1  0
 11 36  1  0
 14 37  1  0
 19 38  1  0
 24 39  1  0
 25 40  1  0
 26 41  1  0
 27 42  1  0
M  ISO  8  28  13  29  13  30  13  31  13  32  14  33  14  34  14  35  14
M  ISO  7  36  14  37  14  38   3  39  14  40  14  41  14  42  14
M  END
>  <minimizedAffinity>  (1) 
-6.95217419

>  <minimizedRMSD>  (1) 
1.32228768

$$$$
