
     RDKit          3D

 26 27  0  0  0  0  0  0  0  0999 V2000
   46.6000   32.9400   46.5170 C   0  0  0  0  0  0  0  0  0  0  0  0
   46.0220   31.9050   47.3660 C   0  0  0  0  0  0  0  0  0  0  0  0
   45.6930   30.6440   46.8890 C   0  0  0  0  0  0  0  0  0  0  0  0
   45.1520   29.7050   47.7990 C   0  0  0  0  0  0  0  0  0  0  0  0
   44.9870   30.0980   49.0950 N   0  0  0  0  0  0  0  0  0  0  0  0
   45.3230   31.3300   49.5020 C   0  0  0  0  0  0  0  0  0  0  0  0
   45.8320   32.2280   48.6650 N   0  0  0  0  0  0  0  0  0  0  0  0
   45.4830   33.8100   46.0010 C   0  0  0  0  0  0  0  0  0  0  0  0
   44.0380   35.7730   44.7450 F   0  0  0  0  0  0  0  0  0  0  0  0
   45.0890   35.2290   44.0940 C   0  0  0  0  0  0  0  0  0  0  0  0
   45.8890   34.2380   44.6170 C   0  0  0  0  0  0  0  0  0  0  0  0
   46.9590   33.6980   43.9290 C   0  0  0  0  0  0  0  0  0  0  0  0
   47.2070   34.1950   42.6650 C   0  0  0  0  0  0  0  0  0  0  0  0
   46.4250   35.1840   42.1140 C   0  0  0  0  0  0  0  0  0  0  0  0
   45.3530   35.7210   42.8140 C   0  0  0  0  0  0  0  0  0  0  0  0
   47.3055   33.5488   47.1014 H   0  0  0  0  0  0  0  0  0  0  0  0
   47.1410   32.4810   45.6764 H   0  0  0  0  0  0  0  0  0  0  0  0
   45.8485   30.3815   45.8322 H   0  0  0  0  0  0  0  0  0  0  0  0
   44.8738   28.6921   47.4724 H   0  0  0  0  0  0  0  0  0  0  0  0
   45.1735   31.6050   50.5565 H   0  0  0  0  0  0  0  0  0  0  0  0
   44.5425   33.2407   45.9635 H   0  0  0  0  0  0  0  0  0  0  0  0
   45.3158   34.6778   46.6559 H   0  0  0  0  0  0  0  0  0  0  0  0
   47.5850   32.9076   44.3687 H   0  0  0  0  0  0  0  0  0  0  0  0
   48.0496   33.7908   42.0848 H   0  0  0  0  0  0  0  0  0  0  0  0
   46.6526   35.5548   41.1037 H   0  0  0  0  0  0  0  0  0  0  0  0
   44.7289   36.5120   42.3726 H   0  0  0  0  0  0  0  0  0  0  0  0
  1  2  1  0
  2  7  1  0
  3  2  2  0
  3  4  1  0
  4  5  2  0
  5  6  1  0
  7  6  2  0
  8  1  1  0
 10 11  2  0
 10  9  1  0
 11  8  1  0
 12 11  1  0
 13 12  2  0
 14 13  1  0
 14 15  2  0
 15 10  1  0
  1 16  1  0
  1 17  1  0
  3 18  1  0
  4 19  1  0
  6 20  1  0
  8 21  1  0
  8 22  1  0
 12 23  1  0
 13 24  1  0
 14 25  1  0
 15 26  1  0
M  ISO  8  16   8  17   8  18  14  19  14  20  14  21   8  22   8  23  14
M  ISO  3  24  14  25  14  26  14
M  END
>  <minimizedAffinity>  (1) 
-4.88972759

>  <minimizedRMSD>  (1) 
6.1991415

$$$$
