
     RDKit          3D

 49 52  0  0  1  0  0  0  0  0999 V2000
   45.5400   32.1560   42.2230 C   0  0  0  0  0  0  0  0  0  0  0  0
   44.7300   31.2110   41.9450 O   0  0  0  0  0  0  0  0  0  0  0  0
   45.1120   33.4600   42.5850 N   0  0  0  0  0  0  0  0  0  0  0  0
   45.5830   34.3480   43.6600 C   0  0  0  0  0  0  0  0  0  0  0  0
   45.9190   35.7110   43.0600 C   0  0  0  0  0  0  0  0  0  0  0  0
   44.6710   36.3570   42.5510 C   0  0  0  0  0  0  0  0  0  0  0  0
   43.5630   35.3240   42.4210 C   0  0  0  0  0  0  0  0  0  0  0  0
   44.0510   34.0540   41.8190 C   0  0  2  0  0  0  0  0  0  0  0  0
   47.6420   32.2160   40.9890 C   0  0  0  0  0  0  0  0  0  0  0  0
   46.9560   31.8750   42.1660 C   0  0  0  0  0  0  0  0  0  0  0  0
   47.6240   31.2880   43.2320 C   0  0  0  0  0  0  0  0  0  0  0  0
   48.9550   31.0680   43.0730 N   0  0  0  0  0  0  0  0  0  0  0  0
   49.6350   31.3880   41.9510 C   0  0  0  0  0  0  0  0  0  0  0  0
   48.9650   31.9620   40.9170 N   0  0  0  0  0  0  0  0  0  0  0  0
   46.8870   30.9490   44.4190 C   0  0  0  0  0  0  0  0  0  0  0  0
   46.8810   31.7780   45.4890 C   0  0  0  0  0  0  0  0  0  0  0  0
   46.1640   31.4230   46.6130 C   0  0  0  0  0  0  0  0  0  0  0  0
   45.4390   30.2380   46.7010 C   0  0  0  0  0  0  0  0  0  0  0  0
   45.4790   29.4300   45.5800 C   0  0  0  0  0  0  0  0  0  0  0  0
   46.1860   29.7940   44.4890 N   0  0  0  0  0  0  0  0  0  0  0  0
   42.8990   33.1320   41.5420 C   0  0  0  0  0  0  0  0  0  0  0  0
   40.1680   33.7480   41.9920 F   0  0  0  0  0  0  0  0  0  0  0  0
   40.7140   34.1720   40.8040 C   0  0  0  0  0  0  0  0  0  0  0  0
   42.0400   33.8900   40.5540 C   0  0  0  0  0  0  0  0  0  0  0  0
   42.5630   34.3180   39.3770 C   0  0  0  0  0  0  0  0  0  0  0  0
   41.8780   35.0230   38.3920 C   0  0  0  0  0  0  0  0  0  0  0  0
   40.5480   35.2600   38.7340 C   0  0  0  0  0  0  0  0  0  0  0  0
   39.9340   34.8640   39.9020 C   0  0  0  0  0  0  0  0  0  0  0  0
   44.7939   34.4620   44.4178 H   0  0  0  0  0  0  0  0  0  0  0  0
   46.4770   33.9181   44.1353 H   0  0  0  0  0  0  0  0  0  0  0  0
   46.3725   36.3492   43.8327 H   0  0  0  0  0  0  0  0  0  0  0  0
   46.6270   35.5792   42.2285 H   0  0  0  0  0  0  0  0  0  0  0  0
   44.3554   37.1424   43.2535 H   0  0  0  0  0  0  0  0  0  0  0  0
   44.8708   36.7967   41.5627 H   0  0  0  0  0  0  0  0  0  0  0  0
   43.1581   35.1101   43.4212 H   0  0  0  0  0  0  0  0  0  0  0  0
   42.7892   35.7383   41.7580 H   0  0  0  0  0  0  0  0  0  0  0  0
   44.5123   34.2786   40.8460 H   0  0  0  0  0  0  0  0  0  0  0  0
   47.1121   32.6801   40.1441 H   0  0  0  0  0  0  0  0  0  0  0  0
   50.7139   31.1873   41.8751 H   0  0  0  0  0  0  0  0  0  0  0  0
   47.4415   32.7241   45.4627 H   0  0  0  0  0  0  0  0  0  0  0  0
   46.1653   32.1051   47.4760 H   0  0  0  0  0  0  0  0  0  0  0  0
   44.8720   29.9628   47.6025 H   0  0  0  0  0  0  0  0  0  0  0  0
   44.9276   28.4782   45.5769 H   0  0  0  0  0  0  0  0  0  0  0  0
   43.2533   32.1868   41.1049 H   0  0  0  0  0  0  0  0  0  0  0  0
   42.3488   32.8621   42.4555 H   0  0  0  0  0  0  0  0  0  0  0  0
   43.6212   34.0874   39.1848 H   0  0  0  0  0  0  0  0  0  0  0  0
   42.3353   35.3561   37.4486 H   0  0  0  0  0  0  0  0  0  0  0  0
   39.9341   35.8121   38.0071 H   0  0  0  0  0  0  0  0  0  0  0  0
   38.8763   35.0883   40.1044 H   0  0  0  0  0  0  0  0  0  0  0  0
  1  3  1  0
  2  1  2  0
  3  4  1  0
  5  4  1  0
  6  5  1  0
  7  6  1  0
  8  7  1  0
  8  3  1  0
  9 10  2  0
 10  1  1  0
 10 11  1  0
 11 15  1  0
 12 11  2  0
 13 12  1  0
 14  9  1  0
 14 13  2  0
 15 20  1  0
 15 16  2  0
 16 17  1  0
 17 18  2  0
 19 18  1  0
 20 19  2  0
 21  8  1  0
 23 22  1  0
 24 23  2  0
 24 21  1  0
 25 24  1  0
 26 27  1  0
 26 25  2  0
 27 28  2  0
 28 23  1  0
  4 29  1  0
  4 30  1  0
  5 31  1  0
  5 32  1  0
  6 33  1  0
  6 34  1  0
  7 35  1  0
  7 36  1  0
  8 37  1  6
  9 38  1  0
 13 39  1  0
 16 40  1  0
 17 41  1  0
 18 42  1  0
 19 43  1  0
 21 44  1  0
 21 45  1  0
 25 46  1  0
 26 47  1  0
 27 48  1  0
 28 49  1  0
M  ISO  8  29  13  30  13  31  13  32  13  33  13  34  13  35  13  36  13
M  ISO  8  37  13  38  14  39  14  40  14  41  14  42  14  43  14  44   8
M  ISO  5  45   8  46  14  47  14  48  14  49  14
M  END
>  <minimizedAffinity>  (1) 
-5.30291367

>  <minimizedRMSD>  (1) 
6.43384361

$$$$
