
     RDKit          3D

 27 28  0  0  0  0  0  0  0  0999 V2000
   46.8720   34.1920   42.4280 C   0  0  0  0  0  0  0  0  0  0  0  0
   46.0620   34.5500   43.6100 C   0  0  0  0  0  0  0  0  0  0  0  0
   46.1400   33.6820   44.6960 C   0  0  0  0  0  0  0  0  0  0  0  0
   45.3850   33.9880   45.8390 C   0  0  0  0  0  0  0  0  0  0  0  0
   44.6130   35.1160   45.8370 N   0  0  0  0  0  0  0  0  0  0  0  0
   44.5710   35.9170   44.7690 C   0  0  0  0  0  0  0  0  0  0  0  0
   45.2720   35.6600   43.6670 N   0  0  0  0  0  0  0  0  0  0  0  0
   47.1640   32.2340   44.6410 S   0  0  0  0  0  0  0  0  0  0  0  0
   46.1730   34.4640   41.1320 C   0  0  0  0  0  0  0  0  0  0  0  0
   48.5550   35.3890   39.8470 F   0  0  0  0  0  0  0  0  0  0  0  0
   47.9550   34.3130   39.3330 C   0  0  0  0  0  0  0  0  0  0  0  0
   46.8020   33.8650   39.9560 C   0  0  0  0  0  0  0  0  0  0  0  0
   46.2220   32.7340   39.3640 C   0  0  0  0  0  0  0  0  0  0  0  0
   46.7480   32.1090   38.2540 C   0  0  0  0  0  0  0  0  0  0  0  0
   47.8980   32.6230   37.6980 C   0  0  0  0  0  0  0  0  0  0  0  0
   48.5330   33.7360   38.2210 C   0  0  0  0  0  0  0  0  0  0  0  0
   47.8038   34.7760   42.4524 H   0  0  0  0  0  0  0  0  0  0  0  0
   47.0625   33.1097   42.4768 H   0  0  0  0  0  0  0  0  0  0  0  0
   45.4141   33.3314   46.7211 H   0  0  0  0  0  0  0  0  0  0  0  0
   43.9381   36.8161   44.8011 H   0  0  0  0  0  0  0  0  0  0  0  0
   47.4507   31.8286   45.9179 H   0  0  0  0  0  0  0  0  0  0  0  0
   45.1478   34.0725   41.2079 H   0  0  0  0  0  0  0  0  0  0  0  0
   46.2131   35.5530   40.9824 H   0  0  0  0  0  0  0  0  0  0  0  0
   45.3019   32.3255   39.8073 H   0  0  0  0  0  0  0  0  0  0  0  0
   46.2613   31.2217   37.8230 H   0  0  0  0  0  0  0  0  0  0  0  0
   48.3254   32.1337   36.8104 H   0  0  0  0  0  0  0  0  0  0  0  0
   49.4525   34.1403   37.7726 H   0  0  0  0  0  0  0  0  0  0  0  0
  1  2  1  0
  2  7  1  0
  2  3  2  0
  3  4  1  0
  5  4  2  0
  6  5  1  0
  7  6  2  0
  8  3  1  0
  9  1  1  0
 11 10  1  0
 11 12  2  0
 12  9  1  0
 13 12  1  0
 14 13  2  0
 15 16  2  0
 15 14  1  0
 16 11  1  0
  1 17  1  0
  1 18  1  0
  4 19  1  0
  6 20  1  0
  8 21  1  0
  9 22  1  0
  9 23  1  0
 13 24  1  0
 14 25  1  0
 15 26  1  0
 16 27  1  0
M  ISO  8  17   8  18   8  19  14  20  14  21  11  22   8  23   8  24  14
M  ISO  3  25  14  26  14  27  14
M  END
>  <minimizedAffinity>  (1) 
-4.56581974

>  <minimizedRMSD>  (1) 
3.08230758

$$$$
