
     RDKit          3D

 23 24  0  0  0  0  0  0  0  0999 V2000
   47.4560   34.7930   41.9190 C   0  0  0  0  0  0  0  0  0  0  0  0
   47.4990   34.2330   43.2100 C   0  0  0  0  0  0  0  0  0  0  0  0
   46.3340   33.6870   43.7480 C   0  0  0  0  0  0  0  0  0  0  0  0
   45.2130   33.7290   42.9790 N   0  0  0  0  0  0  0  0  0  0  0  0
   45.1960   34.2670   41.7530 C   0  0  0  0  0  0  0  0  0  0  0  0
   46.3100   34.7970   41.2210 N   0  0  0  0  0  0  0  0  0  0  0  0
   44.7810   34.8090   45.7960 F   0  0  0  0  0  0  0  0  0  0  0  0
   45.5280   33.6850   46.0480 C   0  0  0  0  0  0  0  0  0  0  0  0
   46.3090   33.0920   45.0780 C   0  0  0  0  0  0  0  0  0  0  0  0
   47.0100   31.9680   45.4580 C   0  0  0  0  0  0  0  0  0  0  0  0
   46.9510   31.4440   46.7320 C   0  0  0  0  0  0  0  0  0  0  0  0
   46.1650   32.0610   47.6680 C   0  0  0  0  0  0  0  0  0  0  0  0
   45.4390   33.1930   47.3420 C   0  0  0  0  0  0  0  0  0  0  0  0
   48.7280   35.3670   41.3850 C   0  0  0  0  0  0  0  0  0  0  0  0
   48.6970   35.5150   40.0310 F   0  0  0  0  0  0  0  0  0  0  0  0
   48.9540   36.5760   42.0500 F   0  0  0  0  0  0  0  0  0  0  0  0
   49.7990   34.5530   41.7720 F   0  0  0  0  0  0  0  0  0  0  0  0
   48.4366   34.2262   43.7852 H   0  0  0  0  0  0  0  0  0  0  0  0
   44.2600   34.2751   41.1752 H   0  0  0  0  0  0  0  0  0  0  0  0
   47.6445   31.4668   44.7122 H   0  0  0  0  0  0  0  0  0  0  0  0
   47.5268   30.5437   46.9925 H   0  0  0  0  0  0  0  0  0  0  0  0
   46.1102   31.6532   48.6882 H   0  0  0  0  0  0  0  0  0  0  0  0
   44.8062   33.6910   48.0913 H   0  0  0  0  0  0  0  0  0  0  0  0
  1  2  2  0
  2  3  1  0
  3  9  1  0
  4  3  2  0
  5  4  1  0
  6  5  2  0
  6  1  1  0
  7  8  1  0
  8 13  2  0
  9 10  2  0
  9  8  1  0
 10 11  1  0
 11 12  2  0
 13 12  1  0
 14 17  1  0
 14  1  1  0
 14 16  1  0
 15 14  1  0
  2 18  1  0
  5 19  1  0
 10 20  1  0
 11 21  1  0
 12 22  1  0
 13 23  1  0
M  ISO  6  18  14  19  14  20  14  21  14  22  14  23  14
M  END
>  <minimizedAffinity>  (1) 
-5.40663099

>  <minimizedRMSD>  (1) 
1.25321043

$$$$
