
     RDKit          3D

 29 31  0  0  0  0  0  0  0  0999 V2000
   44.6235   35.4617   45.1316 C   0  0  0  0  0  0  0  0  0  0  0  0
   45.0995   35.7161   43.7992 C   0  0  0  0  0  0  0  0  0  0  0  0
   46.0441   34.8230   43.3665 C   0  0  0  0  0  0  0  0  0  0  0  0
   46.5000   33.7684   44.1489 N   0  0  0  0  0  0  0  0  0  0  0  0
   46.0135   33.5903   45.3819 C   0  0  0  0  0  0  0  0  0  0  0  0
   45.0716   34.4398   45.8750 N   0  0  0  0  0  0  0  0  0  0  0  0
   46.5417   34.9823   41.9363 C   0  0  1  0  0  0  0  0  0  0  0  0
   48.0641   35.2708   41.9349 C   0  0  0  0  0  0  0  0  0  0  0  0
   47.3830   33.9763   41.3953 C   0  0  2  0  0  0  0  0  0  0  0  0
   44.6419   36.8123   43.0183 N   0  0  0  0  0  0  0  0  0  0  0  0
   43.8835   36.1275   45.5220 H   0  0  0  0  0  0  0  0  0  0  0  0
   46.4736   32.7318   45.8445 H   0  0  0  0  0  0  0  0  0  0  0  0
   45.9569   35.7054   41.3525 H   0  0  0  0  0  0  0  0  0  0  0  0
   48.6354   35.1443   42.8505 H   0  0  0  0  0  0  0  0  0  0  0  0
   48.3675   36.0011   41.1816 H   0  0  0  0  0  0  0  0  0  0  0  0
   47.6213   33.0502   41.9780 H   0  0  0  0  0  0  0  0  0  0  0  0
   44.1172   36.6059   42.1352 H   0  0  0  0  0  0  0  0  0  0  0  0
   44.8642   37.7666   43.3851 H   0  0  0  0  0  0  0  0  0  0  0  0
   46.7406   35.8212   39.2572 F   0  0  0  0  0  0  0  0  0  0  0  0
   47.1402   34.5924   38.8907 C   0  0  0  0  0  0  0  0  0  0  0  0
   47.4295   33.7539   39.9472 C   0  0  0  0  0  0  0  0  0  0  0  0
   47.8439   32.4688   39.5755 C   0  0  0  0  0  0  0  0  0  0  0  0
   48.1036   31.7051   40.2931 H   0  0  0  0  0  0  0  0  0  0  0  0
   47.9627   32.0471   38.2677 C   0  0  0  0  0  0  0  0  0  0  0  0
   48.2768   31.0725   37.9840 H   0  0  0  0  0  0  0  0  0  0  0  0
   47.6620   32.9224   37.2488 C   0  0  0  0  0  0  0  0  0  0  0  0
   47.2516   34.1940   37.5917 C   0  0  0  0  0  0  0  0  0  0  0  0
   47.7206   32.6964   36.1931 H   0  0  0  0  0  0  0  0  0  0  0  0
   46.9987   34.9342   36.8188 H   0  0  0  0  0  0  0  0  0  0  0  0
  1  6  2  0
  2  1  1  0
  3  2  2  0
  3  4  1  0
  4  5  2  0
  5  6  1  0
  7  3  1  0
  8  7  1  0
  9  8  1  0
  9  7  1  0
 10  2  1  0
  1 11  1  0
  5 12  1  0
  7 13  1  6
  8 14  1  0
  8 15  1  0
  9 16  1  1
 10 17  1  0
 10 18  1  0
 19 20  1  0
 20 21  2  0
 21 22  1  0
 22 23  1  0
 22 24  2  0
 24 25  1  0
 24 26  1  0
 26 27  2  0
 27 20  1  0
 26 28  1  0
 27 29  1  0
  9 21  1  0
M  ISO  8  11  14  12  14  13  13  14  13  15  13  16  13  23  15  25  16
M  END
>  <DihAtoms>  (1) 
7,8,20,19

>  <DihDeg>  (1) 
-93.2788604269682

$$$$
