
     RDKit          3D

 29 31  0  0  1  0  0  0  0  0999 V2000
   46.6130   35.0610   41.9930 C   0  0  1  0  0  0  0  0  0  0  0  0
   48.1300   35.3700   42.0330 C   0  0  0  0  0  0  0  0  0  0  0  0
   47.4780   34.0860   41.4330 C   0  0  2  0  0  0  0  0  0  0  0  0
   48.9550   35.6620   39.5040 F   0  0  0  0  0  0  0  0  0  0  0  0
   48.2430   34.6310   39.0180 C   0  0  0  0  0  0  0  0  0  0  0  0
   47.5560   33.9180   39.9790 C   0  0  0  0  0  0  0  0  0  0  0  0
   46.8090   32.8420   39.4840 C   0  0  0  0  0  0  0  0  0  0  0  0
   46.7440   32.5000   38.1500 C   0  0  0  0  0  0  0  0  0  0  0  0
   47.4470   33.2450   37.2300 C   0  0  0  0  0  0  0  0  0  0  0  0
   48.1920   34.3090   37.6950 C   0  0  0  0  0  0  0  0  0  0  0  0
   44.6210   35.3970   45.1620 C   0  0  0  0  0  0  0  0  0  0  0  0
   45.1200   35.7050   43.8490 C   0  0  0  0  0  0  0  0  0  0  0  0
   46.0880   34.8430   43.4060 C   0  0  0  0  0  0  0  0  0  0  0  0
   46.5450   33.7690   44.1600 N   0  0  0  0  0  0  0  0  0  0  0  0
   46.0370   33.5390   45.3760 C   0  0  0  0  0  0  0  0  0  0  0  0
   45.0720   34.3560   45.8780 N   0  0  0  0  0  0  0  0  0  0  0  0
   44.6610   36.8210   43.0980 N   0  0  0  0  0  0  0  0  0  0  0  0
   45.7022   35.5227   41.5841 H   0  0  0  0  0  0  0  0  0  0  0  0
   48.5674   36.1396   41.3800 H   0  0  0  0  0  0  0  0  0  0  0  0
   48.8868   35.6144   42.7929 H   0  0  0  0  0  0  0  0  0  0  0  0
   47.5855   33.0037   41.5979 H   0  0  0  0  0  0  0  0  0  0  0  0
   46.2402   32.2334   40.2023 H   0  0  0  0  0  0  0  0  0  0  0  0
   46.1376   31.6419   37.8245 H   0  0  0  0  0  0  0  0  0  0  0  0
   47.4156   32.9996   36.1582 H   0  0  0  0  0  0  0  0  0  0  0  0
   48.7620   34.9157   36.9760 H   0  0  0  0  0  0  0  0  0  0  0  0
   43.8402   36.0391   45.5956 H   0  0  0  0  0  0  0  0  0  0  0  0
   46.4001   32.6880   45.9709 H   0  0  0  0  0  0  0  0  0  0  0  0
   45.0462   37.0044   42.1605 H   0  0  0  0  0  0  0  0  0  0  0  0
   43.9432   37.4463   43.4913 H   0  0  0  0  0  0  0  0  0  0  0  0
  1  2  1  0
  1 13  1  0
  3  1  1  0
  3  2  1  0
  5  4  1  0
  5  6  2  0
  6  3  1  0
  7  6  1  0
  8  7  2  0
  9 10  2  0
  9  8  1  0
 10  5  1  0
 11 16  2  0
 12 11  1  0
 13 12  2  0
 13 14  1  0
 14 15  2  0
 15 16  1  0
 17 12  1  0
  1 18  1  6
  2 19  1  0
  2 20  1  0
  3 21  1  1
  7 22  1  0
  8 23  1  0
  9 24  1  0
 10 25  1  0
 11 26  1  0
 15 27  1  0
 17 28  1  0
 17 29  1  0
M  ISO  8  18  13  19  13  20  13  21  13  22  14  23  14  24  14  25  14
M  ISO  2  26  14  27  14
M  END
>  <minimizedAffinity>  (1) 
-5.58782339

>  <minimizedRMSD>  (1) 
0.243209586

$$$$
