
     RDKit          3D

 29 31  0  0  1  0  0  0  0  0999 V2000
   46.5960   32.4620   46.2010 C   0  0  1  0  0  0  0  0  0  0  0  0
   47.0220   32.7180   47.6050 C   0  0  0  0  0  0  0  0  0  0  0  0
   45.6870   32.1530   47.3560 C   0  0  2  0  0  0  0  0  0  0  0  0
   45.3730   30.6430   49.7650 F   0  0  0  0  0  0  0  0  0  0  0  0
   45.2310   29.9570   48.6240 C   0  0  0  0  0  0  0  0  0  0  0  0
   45.3870   30.7100   47.4740 C   0  0  0  0  0  0  0  0  0  0  0  0
   45.2470   30.0410   46.2520 C   0  0  0  0  0  0  0  0  0  0  0  0
   44.9650   28.6870   46.1720 C   0  0  0  0  0  0  0  0  0  0  0  0
   44.8120   27.9510   47.3340 C   0  0  0  0  0  0  0  0  0  0  0  0
   44.9500   28.6100   48.5340 C   0  0  0  0  0  0  0  0  0  0  0  0
   46.2170   34.7330   43.3530 C   0  0  0  0  0  0  0  0  0  0  0  0
   45.2060   35.6170   43.7670 C   0  0  0  0  0  0  0  0  0  0  0  0
   44.6440   35.4240   45.0480 C   0  0  0  0  0  0  0  0  0  0  0  0
   45.1100   34.4000   45.8030 N   0  0  0  0  0  0  0  0  0  0  0  0
   46.0940   33.5800   45.3360 C   0  0  0  0  0  0  0  0  0  0  0  0
   46.6590   33.7170   44.1340 N   0  0  0  0  0  0  0  0  0  0  0  0
   46.7330   35.0010   42.0470 C   0  0  0  0  0  0  0  0  0  0  0  0
   47.9130   35.4040   41.7990 O   0  0  0  0  0  0  0  0  0  0  0  0
   47.0785   31.9370   45.3634 H   0  0  0  0  0  0  0  0  0  0  0  0
   47.8039   32.0938   48.0621 H   0  0  0  0  0  0  0  0  0  0  0  0
   47.3994   33.5962   48.1493 H   0  0  0  0  0  0  0  0  0  0  0  0
   44.7009   32.4436   47.7474 H   0  0  0  0  0  0  0  0  0  0  0  0
   45.3655   30.6125   45.3196 H   0  0  0  0  0  0  0  0  0  0  0  0
   44.8633   28.1999   45.1910 H   0  0  0  0  0  0  0  0  0  0  0  0
   44.5875   26.8747   47.2994 H   0  0  0  0  0  0  0  0  0  0  0  0
   44.8306   28.0357   49.4646 H   0  0  0  0  0  0  0  0  0  0  0  0
   44.8634   36.4332   43.1140 H   0  0  0  0  0  0  0  0  0  0  0  0
   43.8499   36.0867   45.4225 H   0  0  0  0  0  0  0  0  0  0  0  0
   46.0581   34.8469   41.1921 H   0  0  0  0  0  0  0  0  0  0  0  0
  1  3  1  0
  1  2  1  0
  3  6  1  0
  3  2  1  0
  5  4  1  0
  6  5  2  0
  7  6  1  0
  8  7  2  0
  8  9  1  0
  9 10  2  0
 10  5  1  0
 11 12  2  0
 11 16  1  0
 12 13  1  0
 13 14  2  0
 15 14  1  0
 15  1  1  0
 16 15  2  0
 17 11  1  0
 18 17  2  0
  1 19  1  6
  2 20  1  0
  2 21  1  0
  3 22  1  6
  7 23  1  0
  8 24  1  0
  9 25  1  0
 10 26  1  0
 12 27  1  0
 13 28  1  0
 17 29  1  0
M  ISO  8  19  13  20  13  21  13  22  13  23  14  24  14  25  14  26  14
M  ISO  3  27  14  28  14  29   6
M  END
>  <minimizedAffinity>  (1) 
-5.17711496

>  <minimizedRMSD>  (1) 
1.03047764

$$$$
