
     RDKit          3D

 31 33  0  0  0  0  0  0  0  0999 V2000
   46.1250   32.6350   47.0930 C   0  0  0  0  0  0  0  0  0  0  0  0
   45.0540   32.3450   47.8670 C   0  0  0  0  0  0  0  0  0  0  0  0
   45.2400   31.6150   49.0110 C   0  0  0  0  0  0  0  0  0  0  0  0
   46.5190   31.1810   49.3620 C   0  0  0  0  0  0  0  0  0  0  0  0
   47.5850   31.4950   48.5490 C   0  0  0  0  0  0  0  0  0  0  0  0
   47.3440   32.1970   47.4660 N   0  0  0  0  0  0  0  0  0  0  0  0
   44.9420   35.0060   44.5590 C   0  0  0  0  0  0  0  0  0  0  0  0
   45.9000   34.8440   43.5330 C   0  0  0  0  0  0  0  0  0  0  0  0
   46.9350   33.9290   43.7180 C   0  0  0  0  0  0  0  0  0  0  0  0
   46.9540   33.2440   44.8920 N   0  0  0  0  0  0  0  0  0  0  0  0
   46.0440   33.4100   45.8450 C   0  0  0  0  0  0  0  0  0  0  0  0
   45.0410   34.2930   45.6720 N   0  0  0  0  0  0  0  0  0  0  0  0
   43.8920   35.9420   44.3600 N   0  0  0  0  0  0  0  0  0  0  0  0
   48.5270   29.0400   47.7530 F   0  0  0  0  0  0  0  0  0  0  0  0
   49.3900   29.8310   48.4540 C   0  0  0  0  0  0  0  0  0  0  0  0
   48.9420   31.0680   48.8660 C   0  0  0  0  0  0  0  0  0  0  0  0
   49.8610   31.8190   49.5680 C   0  0  0  0  0  0  0  0  0  0  0  0
   51.1380   31.3750   49.8450 C   0  0  0  0  0  0  0  0  0  0  0  0
   51.5070   30.1240   49.3960 C   0  0  0  0  0  0  0  0  0  0  0  0
   50.6450   29.3070   48.6840 C   0  0  0  0  0  0  0  0  0  0  0  0
   44.0492   32.6902   47.5820 H   0  0  0  0  0  0  0  0  0  0  0  0
   44.3810   31.3708   49.6532 H   0  0  0  0  0  0  0  0  0  0  0  0
   46.6740   30.5938   50.2792 H   0  0  0  0  0  0  0  0  0  0  0  0
   45.8302   35.4298   42.6046 H   0  0  0  0  0  0  0  0  0  0  0  0
   47.7032   33.7681   42.9473 H   0  0  0  0  0  0  0  0  0  0  0  0
   43.8420   36.4813   43.4839 H   0  0  0  0  0  0  0  0  0  0  0  0
   43.1807   36.0813   45.0918 H   0  0  0  0  0  0  0  0  0  0  0  0
   49.5630   32.8165   49.9231 H   0  0  0  0  0  0  0  0  0  0  0  0
   51.8435   32.0026   50.4093 H   0  0  0  0  0  0  0  0  0  0  0  0
   52.5232   29.7622   49.6114 H   0  0  0  0  0  0  0  0  0  0  0  0
   50.9405   28.3095   48.3267 H   0  0  0  0  0  0  0  0  0  0  0  0
  1  6  1  0
  1  2  2  0
  2  3  1  0
  3  4  2  0
  5 16  1  0
  5  4  1  0
  6  5  2  0
  7 12  2  0
  8  9  2  0
  8  7  1  0
  9 10  1  0
 10 11  2  0
 11  1  1  0
 12 11  1  0
 13  7  1  0
 14 15  1  0
 15 20  2  0
 15 16  1  0
 16 17  2  0
 17 18  1  0
 19 18  2  0
 20 19  1  0
  2 21  1  0
  3 22  1  0
  4 23  1  0
  8 24  1  0
  9 25  1  0
 13 26  1  0
 13 27  1  0
 17 28  1  0
 18 29  1  0
 19 30  1  0
 20 31  1  0
M  ISO  8  21  14  22  14  23  14  24  14  25  14  28  14  29  14  30  14
M  ISO  1  31  14
M  END
>  <minimizedAffinity>  (1) 
-6.42697001

>  <minimizedRMSD>  (1) 
1.18926489

$$$$
