
     RDKit          3D

 41 44  0  0  1  0  0  0  0  0999 V2000
   45.8430   33.3870   45.8970 C   0  0  0  0  0  0  0  0  0  0  0  0
   46.6620   33.5580   44.7600 C   0  0  0  0  0  0  0  0  0  0  0  0
   47.3410   32.4110   44.2530 C   0  0  0  0  0  0  0  0  0  0  0  0
   47.1710   31.2100   44.8850 N   0  0  0  0  0  0  0  0  0  0  0  0
   46.3700   31.1130   45.9710 C   0  0  0  0  0  0  0  0  0  0  0  0
   45.7180   32.1920   46.4670 N   0  0  0  0  0  0  0  0  0  0  0  0
   46.2580   29.8410   46.5520 N   0  0  0  0  0  0  0  0  0  0  0  0
   47.4090   29.1620   47.0530 C   0  0  2  0  0  0  0  0  0  0  0  0
   47.1880   27.7320   47.3990 C   0  0  0  0  0  0  0  0  0  0  0  0
   45.8930   27.3630   47.8330 N   0  0  0  0  0  0  0  0  0  0  0  0
   44.9780   28.4460   47.9480 C   0  0  0  0  0  0  0  0  0  0  0  0
   44.9590   29.2070   46.6490 C   0  0  0  0  0  0  0  0  0  0  0  0
   48.0720   29.9240   48.1390 C   0  0  0  0  0  0  0  0  0  0  0  0
   47.7850   31.1220   48.7540 C   0  0  0  0  0  0  0  0  0  0  0  0
   48.6740   31.4180   49.7060 N   0  0  0  0  0  0  0  0  0  0  0  0
   49.5400   30.4000   49.7040 C   0  0  0  0  0  0  0  0  0  0  0  0
   49.1850   29.5110   48.7740 N   0  0  0  0  0  0  0  0  0  0  0  0
   51.9040   31.7780   49.2990 F   0  0  0  0  0  0  0  0  0  0  0  0
   51.9070   30.9160   50.3570 C   0  0  0  0  0  0  0  0  0  0  0  0
   50.7300   30.2210   50.5700 C   0  0  0  0  0  0  0  0  0  0  0  0
   50.6180   29.3120   51.6230 C   0  0  0  0  0  0  0  0  0  0  0  0
   51.7240   29.1450   52.4300 C   0  0  0  0  0  0  0  0  0  0  0  0
   52.8830   29.8540   52.1910 C   0  0  0  0  0  0  0  0  0  0  0  0
   53.0140   30.7480   51.1640 C   0  0  0  0  0  0  0  0  0  0  0  0
   45.3035   34.2497   46.3151 H   0  0  0  0  0  0  0  0  0  0  0  0
   46.7727   34.5423   44.2815 H   0  0  0  0  0  0  0  0  0  0  0  0
   47.9904   32.4908   43.3687 H   0  0  0  0  0  0  0  0  0  0  0  0
   48.1099   29.1228   46.2061 H   0  0  0  0  0  0  0  0  0  0  0  0
   47.4191   27.1358   46.5040 H   0  0  0  0  0  0  0  0  0  0  0  0
   47.8401   27.5466   48.2652 H   0  0  0  0  0  0  0  0  0  0  0  0
   45.5080   26.6870   47.1579 H   0  0  0  0  0  0  0  0  0  0  0  0
   43.9715   28.0580   48.1636 H   0  0  0  0  0  0  0  0  0  0  0  0
   45.2892   29.1121   48.7662 H   0  0  0  0  0  0  0  0  0  0  0  0
   44.1614   29.9645   46.6590 H   0  0  0  0  0  0  0  0  0  0  0  0
   44.7628   28.5460   45.7919 H   0  0  0  0  0  0  0  0  0  0  0  0
   46.9269   31.7587   48.4928 H   0  0  0  0  0  0  0  0  0  0  0  0
   48.6889   32.2513   50.3112 H   0  0  0  0  0  0  0  0  0  0  0  0
   49.6877   28.7528   51.8017 H   0  0  0  0  0  0  0  0  0  0  0  0
   51.6815   28.4393   53.2727 H   0  0  0  0  0  0  0  0  0  0  0  0
   53.7427   29.6928   52.8580 H   0  0  0  0  0  0  0  0  0  0  0  0
   53.9487   31.3017   50.9911 H   0  0  0  0  0  0  0  0  0  0  0  0
  1  6  2  0
  2  1  1  0
  3  2  2  0
  3  4  1  0
  4  5  2  0
  5  6  1  0
  5  7  1  0
  7 12  1  0
  7  8  1  0
  8  9  1  0
  8 13  1  0
  9 10  1  0
 10 11  1  0
 12 11  1  0
 13 14  2  0
 13 17  1  0
 14 15  1  0
 16 15  1  0
 16 20  1  0
 17 16  2  0
 18 19  1  0
 19 20  2  0
 19 24  1  0
 20 21  1  0
 21 22  2  0
 23 22  1  0
 24 23  2  0
  1 25  1  0
  2 26  1  0
  3 27  1  0
  8 28  1  6
  9 29  1  0
  9 30  1  0
 10 31  1  0
 11 32  1  0
 11 33  1  0
 12 34  1  0
 12 35  1  0
 14 36  1  0
 15 37  1  0
 21 38  1  0
 22 39  1  0
 23 40  1  0
 24 41  1  0
M  ISO  8  25  14  26  14  27  14  28  13  29  13  30  13  31   5  32  13
M  ISO  8  33  13  34  13  35  13  36  14  37   9  38  14  39  14  40  14
M  ISO  1  41  14
M  END
>  <minimizedAffinity>  (1) 
-5.51617289

>  <minimizedRMSD>  (1) 
1.26159644

$$$$
