
     RDKit          3D

 30 32  0  0  0  0  0  0  0  0999 V2000
   44.9520   36.3600   43.1700 Cl  0  0  0  0  0  0  0  0  0  0  0  0
   45.5090   35.0320   44.1220 C   0  0  0  0  0  0  0  0  0  0  0  0
   46.4760   34.2050   43.6530 C   0  0  0  0  0  0  0  0  0  0  0  0
   46.8680   33.1600   44.4800 C   0  0  0  0  0  0  0  0  0  0  0  0
   46.3380   32.9160   45.7380 C   0  0  0  0  0  0  0  0  0  0  0  0
   45.3620   33.7730   46.1800 C   0  0  0  0  0  0  0  0  0  0  0  0
   44.7220   33.4270   47.7730 Cl  0  0  0  0  0  0  0  0  0  0  0  0
   44.9510   34.8150   45.3890 C   0  0  0  0  0  0  0  0  0  0  0  0
   48.7580   35.3790   41.0440 C   0  0  0  0  0  0  0  0  0  0  0  0
   48.2850   34.7530   39.8920 C   0  0  0  0  0  0  0  0  0  0  0  0
   47.1670   33.9160   40.0130 C   0  0  0  0  0  0  0  0  0  0  0  0
   46.6140   33.7670   41.2420 N   0  0  0  0  0  0  0  0  0  0  0  0
   47.0950   34.3850   42.3340 C   0  0  0  0  0  0  0  0  0  0  0  0
   48.1740   35.1970   42.2430 N   0  0  0  0  0  0  0  0  0  0  0  0
   47.8810   32.9720   48.1160 F   0  0  0  0  0  0  0  0  0  0  0  0
   47.6440   31.7390   47.6000 C   0  0  0  0  0  0  0  0  0  0  0  0
   46.8900   31.7650   46.4440 C   0  0  0  0  0  0  0  0  0  0  0  0
   46.5640   30.5760   45.7980 C   0  0  0  0  0  0  0  0  0  0  0  0
   46.9900   29.3460   46.2990 C   0  0  0  0  0  0  0  0  0  0  0  0
   47.7440   29.3610   47.4590 C   0  0  0  0  0  0  0  0  0  0  0  0
   48.0700   30.5260   48.1040 C   0  0  0  0  0  0  0  0  0  0  0  0
   47.6512   32.4806   44.1124 H   0  0  0  0  0  0  0  0  0  0  0  0
   44.1676   35.4942   45.7564 H   0  0  0  0  0  0  0  0  0  0  0  0
   49.6337   36.0408   40.9712 H   0  0  0  0  0  0  0  0  0  0  0  0
   48.7734   34.9107   38.9190 H   0  0  0  0  0  0  0  0  0  0  0  0
   46.7510   33.3959   39.1375 H   0  0  0  0  0  0  0  0  0  0  0  0
   45.9612   30.6069   44.8784 H   0  0  0  0  0  0  0  0  0  0  0  0
   46.7369   28.4028   45.7927 H   0  0  0  0  0  0  0  0  0  0  0  0
   48.0937   28.4059   47.8779 H   0  0  0  0  0  0  0  0  0  0  0  0
   48.6717   30.4944   49.0243 H   0  0  0  0  0  0  0  0  0  0  0  0
  1  2  1  0
  2  8  2  0
  3  2  1  0
  3  4  2  0
  4  5  1  0
  5  6  2  0
  5 17  1  0
  6  7  1  0
  8  6  1  0
  9 14  2  0
 10 11  2  0
 10  9  1  0
 11 12  1  0
 12 13  2  0
 13  3  1  0
 14 13  1  0
 16 21  2  0
 16 15  1  0
 17 16  1  0
 18 19  1  0
 18 17  2  0
 19 20  2  0
 20 21  1  0
  4 22  1  0
  8 23  1  0
  9 24  1  0
 10 25  1  0
 11 26  1  0
 18 27  1  0
 19 28  1  0
 20 29  1  0
 21 30  1  0
M  ISO  8  22  14  23  14  24  14  25  14  26  14  27  14  28  14  29  14
M  ISO  1  30  14
M  END
>  <minimizedAffinity>  (1) 
-6.00438213

>  <minimizedRMSD>  (1) 
1.1096524

$$$$
