
     RDKit          3D

 45 47  0  0  0  0  0  0  0  0999 V2000
   51.1470   31.9180   51.2460 C   0  0  0  0  0  0  0  0  0  0  0  0
   51.2850   30.6680   51.9130 C   0  0  0  0  0  0  0  0  0  0  0  0
   50.5220   29.5870   51.5000 C   0  0  0  0  0  0  0  0  0  0  0  0
   49.7000   29.8200   50.4840 N   0  0  0  0  0  0  0  0  0  0  0  0
   49.5550   30.9730   49.8470 C   0  0  0  0  0  0  0  0  0  0  0  0
   50.2840   32.0410   50.2260 N   0  0  0  0  0  0  0  0  0  0  0  0
   54.1020   30.3460   51.6500 F   0  0  0  0  0  0  0  0  0  0  0  0
   53.6660   30.6310   52.8900 C   0  0  0  0  0  0  0  0  0  0  0  0
   52.2760   30.7780   52.9690 C   0  0  0  0  0  0  0  0  0  0  0  0
   51.7220   31.0740   54.2060 C   0  0  0  0  0  0  0  0  0  0  0  0
   52.5450   31.2100   55.3020 C   0  0  0  0  0  0  0  0  0  0  0  0
   53.9160   31.0720   55.2690 C   0  0  0  0  0  0  0  0  0  0  0  0
   54.4400   30.7800   54.0280 C   0  0  0  0  0  0  0  0  0  0  0  0
   48.6070   31.1220   48.7380 C   0  0  0  0  0  0  0  0  0  0  0  0
   47.5990   31.9670   48.8010 C   0  0  0  0  0  0  0  0  0  0  0  0
   46.6520   32.0940   47.6570 C   0  0  0  0  0  0  0  0  0  0  0  0
   46.6090   32.7450   45.4120 C   0  0  0  0  0  0  0  0  0  0  0  0
   45.8530   31.8620   44.9310 O   0  0  0  0  0  0  0  0  0  0  0  0
   47.0790   33.0150   46.6930 N   0  0  0  0  0  0  0  0  0  0  0  0
   44.8980   35.1120   44.5340 Cl  0  0  0  0  0  0  0  0  0  0  0  0
   46.2810   34.5840   43.6330 C   0  0  0  0  0  0  0  0  0  0  0  0
   46.9150   33.5090   44.1940 C   0  0  0  0  0  0  0  0  0  0  0  0
   48.0550   32.9570   43.5910 C   0  0  0  0  0  0  0  0  0  0  0  0
   48.5540   33.5020   42.4130 C   0  0  0  0  0  0  0  0  0  0  0  0
   47.8980   34.5920   41.8600 C   0  0  0  0  0  0  0  0  0  0  0  0
   48.4720   35.3170   40.3770 Cl  0  0  0  0  0  0  0  0  0  0  0  0
   46.7760   35.1190   42.4710 C   0  0  0  0  0  0  0  0  0  0  0  0
   50.6200   28.3860   52.1030 O   0  0  0  0  0  0  0  0  0  0  0  0
   51.6040   27.4720   51.6020 C   0  0  0  0  0  0  0  0  0  0  0  0
   52.1120   27.9640   50.3990 F   0  0  0  0  0  0  0  0  0  0  0  0
   52.6370   27.4690   52.5380 F   0  0  0  0  0  0  0  0  0  0  0  0
   51.1270   26.1730   51.4610 F   0  0  0  0  0  0  0  0  0  0  0  0
   51.7473   32.7822   51.5665 H   0  0  0  0  0  0  0  0  0  0  0  0
   50.6342   31.1991   54.3106 H   0  0  0  0  0  0  0  0  0  0  0  0
   52.0764   31.4446   56.2691 H   0  0  0  0  0  0  0  0  0  0  0  0
   54.5441   31.1862   56.1648 H   0  0  0  0  0  0  0  0  0  0  0  0
   55.5296   30.6591   53.9372 H   0  0  0  0  0  0  0  0  0  0  0  0
   48.7412   30.5132   47.8317 H   0  0  0  0  0  0  0  0  0  0  0  0
   47.4552   32.5818   49.7018 H   0  0  0  0  0  0  0  0  0  0  0  0
   46.5464   31.1092   47.1784 H   0  0  0  0  0  0  0  0  0  0  0  0
   45.6960   32.4592   48.0603 H   0  0  0  0  0  0  0  0  0  0  0  0
   47.6852   33.8184   46.9121 H   0  0  0  0  0  0  0  0  0  0  0  0
   48.5549   32.0917   44.0507 H   0  0  0  0  0  0  0  0  0  0  0  0
   49.4477   33.0788   41.9311 H   0  0  0  0  0  0  0  0  0  0  0  0
   46.2703   35.9839   42.0169 H   0  0  0  0  0  0  0  0  0  0  0  0
  1  2  2  0
  2  9  1  0
  3  2  1  0
  3 28  1  0
  4  3  2  0
  5  6  2  0
  5  4  1  0
  6  1  1  0
  7  8  1  0
  8  9  2  0
  8 13  1  0
  9 10  1  0
 10 11  2  0
 12 11  1  0
 13 12  2  0
 14 15  2  0
 14  5  1  0
 16 15  1  0
 17 19  1  0
 18 17  2  0
 19 16  1  0
 21 22  2  0
 21 20  1  0
 22 17  1  0
 23 22  1  0
 24 23  2  0
 25 24  1  0
 25 27  2  0
 26 25  1  0
 27 21  1  0
 29 28  1  0
 29 31  1  0
 30 29  1  0
 32 29  1  0
  1 33  1  0
 10 34  1  0
 11 35  1  0
 12 36  1  0
 13 37  1  0
 14 38  1  0
 15 39  1  0
 16 40  1  0
 16 41  1  0
 19 42  1  0
 23 43  1  0
 24 44  1  0
 27 45  1  0
M  ISO  8  33  14  34  14  35  14  36  14  37  14  40   8  41   8  43  14
M  ISO  2  44  14  45  14
M  END
>  <minimizedAffinity>  (1) 
-7.46333361

>  <minimizedRMSD>  (1) 
0.565502942

$$$$
