
     RDKit          3D

 27 29  0  0  0  0  0  0  0  0999 V2000
   44.5674   35.9202   44.3171 C   0  0  0  0  0  0  0  0  0  0  0  0
   45.3547   35.9052   43.1135 C   0  0  0  0  0  0  0  0  0  0  0  0
   46.3127   34.9091   43.0475 C   0  0  0  0  0  0  0  0  0  0  0  0
   46.4990   33.9968   44.0644 N   0  0  0  0  0  0  0  0  0  0  0  0
   45.7231   34.0621   45.1763 C   0  0  0  0  0  0  0  0  0  0  0  0
   44.7752   35.0126   45.2910 N   0  0  0  0  0  0  0  0  0  0  0  0
   47.0785   34.8116   41.7512 C   0  0  0  0  0  0  0  0  0  0  0  0
   48.4594   35.4627   41.8745 C   0  0  0  0  0  0  0  0  0  0  0  0
   48.2269   33.9335   41.7224 C   0  0  0  0  0  0  0  0  0  0  0  0
   43.8438   36.6979   44.3315 H   0  0  0  0  0  0  0  0  0  0  0  0
   45.8986   33.3374   45.9387 H   0  0  0  0  0  0  0  0  0  0  0  0
   46.5763   35.3345   40.8910 H   0  0  0  0  0  0  0  0  0  0  0  0
   48.9502   35.8986   40.9932 H   0  0  0  0  0  0  0  0  0  0  0  0
   48.7653   35.8172   42.8596 H   0  0  0  0  0  0  0  0  0  0  0  0
   48.4426   33.3436   42.6366 H   0  0  0  0  0  0  0  0  0  0  0  0
   48.5922   33.4587   40.7782 H   0  0  0  0  0  0  0  0  0  0  0  0
   45.0514   38.5963   43.7356 F   0  0  0  0  0  0  0  0  0  0  0  0
   45.0109   38.2042   42.4311 C   0  0  0  0  0  0  0  0  0  0  0  0
   45.1558   36.8699   42.0431 C   0  0  0  0  0  0  0  0  0  0  0  0
   45.0956   36.6043   40.6900 C   0  0  0  0  0  0  0  0  0  0  0  0
   45.2107   35.5630   40.4163 H   0  0  0  0  0  0  0  0  0  0  0  0
   44.9027   37.6051   39.7726 C   0  0  0  0  0  0  0  0  0  0  0  0
   44.8626   37.3426   38.7124 H   0  0  0  0  0  0  0  0  0  0  0  0
   44.7599   38.9297   40.1738 C   0  0  0  0  0  0  0  0  0  0  0  0
   44.8182   39.2092   41.5244 C   0  0  0  0  0  0  0  0  0  0  0  0
   44.6083   39.7049   39.4305 H   0  0  0  0  0  0  0  0  0  0  0  0
   44.7036   40.2476   41.7997 H   0  0  0  0  0  0  0  0  0  0  0  0
  1  6  2  0
  2  1  1  0
  3  2  2  0
  3  4  1  0
  4  5  2  0
  5  6  1  0
  7  8  1  0
  7  9  1  0
  7  3  1  0
  8  9  1  0
  1 10  1  0
  5 11  1  0
  7 12  1  0
  8 13  1  0
  8 14  1  0
  9 15  1  0
  9 16  1  0
 17 18  1  0
 18 19  2  0
 19 20  1  0
 20 21  1  0
 20 22  2  0
 22 23  1  0
 22 24  1  0
 24 25  2  0
 25 18  1  0
 24 26  1  0
 25 27  1  0
  2 19  1  0
M  ISO  8  10  14  11  14  12  13  13  13  14  13  15  13  16  13  21  15
M  ISO  1  23  16
M  END
>  <DihAtoms>  (1) 
0,1,18,17

>  <DihDeg>  (1) 
-89.98967218533885

$$$$
