
     RDKit          3D

 37 39  0  0  1  0  0  0  0  0999 V2000
   46.3990   34.1240   42.8320 N   0  0  0  0  0  0  0  0  0  0  0  0
   45.5980   34.3120   41.6480 C   0  0  0  0  0  0  0  0  0  0  0  0
   46.2010   33.6240   40.4520 C   0  0  0  0  0  0  0  0  0  0  0  0
   47.5610   33.9230   40.2360 N   0  0  0  0  0  0  0  0  0  0  0  0
   48.3790   34.0970   41.3770 C   0  0  2  0  0  0  0  0  0  0  0  0
   47.7870   33.7940   42.7010 C   0  0  0  0  0  0  0  0  0  0  0  0
   44.4010   35.2910   45.7860 C   0  0  0  0  0  0  0  0  0  0  0  0
   44.8940   35.2490   44.4740 C   0  0  0  0  0  0  0  0  0  0  0  0
   45.8340   34.2630   44.1240 C   0  0  0  0  0  0  0  0  0  0  0  0
   46.1970   33.4080   45.1120 N   0  0  0  0  0  0  0  0  0  0  0  0
   45.7010   33.4770   46.3680 C   0  0  0  0  0  0  0  0  0  0  0  0
   44.8050   34.4160   46.7050 N   0  0  0  0  0  0  0  0  0  0  0  0
   43.9520   32.1570   48.1590 F   0  0  0  0  0  0  0  0  0  0  0  0
   45.2740   31.8900   48.2070 C   0  0  0  0  0  0  0  0  0  0  0  0
   46.1600   32.5060   47.3590 C   0  0  0  0  0  0  0  0  0  0  0  0
   47.5330   32.2410   47.3960 C   0  0  0  0  0  0  0  0  0  0  0  0
   48.0460   31.3370   48.3030 C   0  0  0  0  0  0  0  0  0  0  0  0
   47.1270   30.7250   49.1540 C   0  0  0  0  0  0  0  0  0  0  0  0
   45.7740   30.9930   49.1090 C   0  0  0  0  0  0  0  0  0  0  0  0
   48.8680   35.5270   41.4070 C   0  0  0  0  0  0  0  0  0  0  0  0
   50.0890   35.5920   42.0840 F   0  0  0  0  0  0  0  0  0  0  0  0
   47.9700   36.2240   42.1870 F   0  0  0  0  0  0  0  0  0  0  0  0
   49.0340   36.0620   40.1630 F   0  0  0  0  0  0  0  0  0  0  0  0
   44.5941   33.8998   41.8277 H   0  0  0  0  0  0  0  0  0  0  0  0
   45.5494   35.3900   41.4348 H   0  0  0  0  0  0  0  0  0  0  0  0
   46.1056   32.5375   40.5951 H   0  0  0  0  0  0  0  0  0  0  0  0
   45.6542   33.9885   39.5699 H   0  0  0  0  0  0  0  0  0  0  0  0
   47.9625   33.1526   39.6827 H   0  0  0  0  0  0  0  0  0  0  0  0
   49.1728   33.3466   41.2473 H   0  0  0  0  0  0  0  0  0  0  0  0
   47.9008   32.7159   42.8873 H   0  0  0  0  0  0  0  0  0  0  0  0
   48.3228   34.4211   43.4288 H   0  0  0  0  0  0  0  0  0  0  0  0
   43.6662   36.0618   46.0615 H   0  0  0  0  0  0  0  0  0  0  0  0
   44.5494   35.9790   43.7268 H   0  0  0  0  0  0  0  0  0  0  0  0
   48.2081   32.7568   46.6973 H   0  0  0  0  0  0  0  0  0  0  0  0
   49.1215   31.1114   48.3520 H   0  0  0  0  0  0  0  0  0  0  0  0
   47.4958   29.9979   49.8924 H   0  0  0  0  0  0  0  0  0  0  0  0
   45.0927   30.4808   49.8044 H   0  0  0  0  0  0  0  0  0  0  0  0
  1  9  1  0
  2  1  1  0
  3  2  1  0
  4  3  1  0
  4  5  1  0
  5 20  1  0
  5  6  1  0
  6  1  1  0
  7 12  2  0
  8  7  1  0
  9  8  2  0
  9 10  1  0
 10 11  2  0
 11 12  1  0
 11 15  1  0
 13 14  1  0
 14 19  2  0
 15 16  2  0
 15 14  1  0
 16 17  1  0
 17 18  2  0
 19 18  1  0
 20 21  1  0
 20 22  1  0
 23 20  1  0
  2 24  1  0
  2 25  1  0
  3 26  1  0
  3 27  1  0
  4 28  1  0
  5 29  1  6
  6 30  1  0
  6 31  1  0
  7 32  1  0
  8 33  1  0
 16 34  1  0
 17 35  1  0
 18 36  1  0
 19 37  1  0
M  ISO  8  24  13  25  13  26  13  27  13  28   5  29  13  30  13  31  13
M  ISO  6  32  14  33  14  34  14  35  14  36  14  37  14
M  END
>  <minimizedAffinity>  (1) 
-6.60707474

>  <minimizedRMSD>  (1) 
1.70256543

$$$$
