
     RDKit          3D

 30 32  0  0  0  0  0  0  0  0999 V2000
   44.9090   33.0550   41.1200 Cl  0  0  0  0  0  0  0  0  0  0  0  0
   46.4130   33.8990   40.9160 C   0  0  0  0  0  0  0  0  0  0  0  0
   46.8840   34.7320   41.8860 C   0  0  0  0  0  0  0  0  0  0  0  0
   48.0910   35.4200   41.7340 C   0  0  0  0  0  0  0  0  0  0  0  0
   48.7840   35.2240   40.5630 C   0  0  0  0  0  0  0  0  0  0  0  0
   48.3040   34.3820   39.5880 C   0  0  0  0  0  0  0  0  0  0  0  0
   47.1150   33.7070   39.7420 C   0  0  0  0  0  0  0  0  0  0  0  0
   45.5000   34.1800   45.2520 C   0  0  0  0  0  0  0  0  0  0  0  0
   44.6480   35.2810   45.4200 C   0  0  0  0  0  0  0  0  0  0  0  0
   44.5590   36.2030   44.3720 C   0  0  0  0  0  0  0  0  0  0  0  0
   45.2990   35.9810   43.2570 N   0  0  0  0  0  0  0  0  0  0  0  0
   46.1100   34.9130   43.1220 C   0  0  0  0  0  0  0  0  0  0  0  0
   46.2100   34.0120   44.1210 N   0  0  0  0  0  0  0  0  0  0  0  0
   47.3450   34.6180   37.1760 F   0  0  0  0  0  0  0  0  0  0  0  0
   46.8120   33.3730   37.3940 C   0  0  0  0  0  0  0  0  0  0  0  0
   46.6560   32.8260   38.6700 C   0  0  0  0  0  0  0  0  0  0  0  0
   46.1070   31.5630   38.7620 C   0  0  0  0  0  0  0  0  0  0  0  0
   45.7370   30.8930   37.6220 C   0  0  0  0  0  0  0  0  0  0  0  0
   45.8750   31.4010   36.3560 C   0  0  0  0  0  0  0  0  0  0  0  0
   46.4260   32.6680   36.2580 C   0  0  0  0  0  0  0  0  0  0  0  0
   48.4708   36.0906   42.5189 H   0  0  0  0  0  0  0  0  0  0  0  0
   49.7374   35.7490   40.4037 H   0  0  0  0  0  0  0  0  0  0  0  0
   48.8839   34.2448   38.6634 H   0  0  0  0  0  0  0  0  0  0  0  0
   45.5898   33.4393   46.0602 H   0  0  0  0  0  0  0  0  0  0  0  0
   44.0688   35.4151   46.3455 H   0  0  0  0  0  0  0  0  0  0  0  0
   43.9061   37.0849   44.4499 H   0  0  0  0  0  0  0  0  0  0  0  0
   45.9661   31.0939   39.7470 H   0  0  0  0  0  0  0  0  0  0  0  0
   45.3036   29.8879   37.7310 H   0  0  0  0  0  0  0  0  0  0  0  0
   45.5649   30.8332   35.4664 H   0  0  0  0  0  0  0  0  0  0  0  0
   46.5606   33.1243   35.2662 H   0  0  0  0  0  0  0  0  0  0  0  0
  2  1  1  0
  2  3  2  0
  3 12  1  0
  4  3  1  0
  5  4  2  0
  6  7  2  0
  6  5  1  0
  7  2  1  0
  8  9  2  0
 10  9  1  0
 11 10  2  0
 12 11  1  0
 12 13  2  0
 13  8  1  0
 14 15  1  0
 15 16  2  0
 16 17  1  0
 16  7  1  0
 18 17  2  0
 19 18  1  0
 20 19  2  0
 20 15  1  0
  4 21  1  0
  5 22  1  0
  6 23  1  0
  8 24  1  0
  9 25  1  0
 10 26  1  0
 17 27  1  0
 18 28  1  0
 19 29  1  0
 20 30  1  0
M  ISO  8  21  14  22  14  23  14  24  14  25  14  26  14  27  14  28  14
M  ISO  2  29  14  30  14
M  END
>  <minimizedAffinity>  (1) 
-5.70496178

>  <minimizedRMSD>  (1) 
0.550978839

$$$$
