
     RDKit          3D

 47 51  0  0  0  0  0  0  0  0999 V2000
   47.5395   32.6768   44.2728 C   0  0  0  0  0  0  0  0  0  0  0  0
   46.8429   33.6437   43.5538 C   0  0  0  0  0  0  0  0  0  0  0  0
   45.7792   34.3636   44.0970 C   0  0  0  0  0  0  0  0  0  0  0  0
   45.3923   34.1084   45.4162 C   0  0  0  0  0  0  0  0  0  0  0  0
   44.4512   34.5843   46.2461 N   0  0  0  0  0  0  0  0  0  0  0  0
   44.5178   33.9747   47.4366 C   0  0  0  0  0  0  0  0  0  0  0  0
   45.5349   33.0991   47.3233 N   0  0  0  0  0  0  0  0  0  0  0  0
   46.0905   33.1566   46.0994 C   0  0  0  0  0  0  0  0  0  0  0  0
   47.1549   32.4187   45.5937 C   0  0  0  0  0  0  0  0  0  0  0  0
   47.0658   33.4287   39.9068 C   0  0  0  0  0  0  0  0  0  0  0  0
   47.9720   34.4447   39.5857 C   0  0  0  0  0  0  0  0  0  0  0  0
   48.4995   35.1982   40.6417 C   0  0  0  0  0  0  0  0  0  0  0  0
   48.1098   34.9096   41.9182 N   0  0  0  0  0  0  0  0  0  0  0  0
   47.2354   33.9221   42.1731 C   0  0  0  0  0  0  0  0  0  0  0  0
   46.6941   33.1628   41.1962 N   0  0  0  0  0  0  0  0  0  0  0  0
   44.9062   35.5884   43.1677 S   0  0  0  0  0  0  0  0  0  0  0  0
   42.3246   35.5937   42.6994 N   0  0  0  0  0  0  0  0  0  0  0  0
   43.5219   34.9302   42.2056 C   0  0  1  0  0  0  0  0  0  0  0  0
   43.8015   35.2992   40.7575 C   0  0  0  0  0  0  0  0  0  0  0  0
   42.6720   35.2957   39.9638 O   0  0  0  0  0  0  0  0  0  0  0  0
   41.5437   34.7559   40.5356 C   0  0  0  0  0  0  0  0  0  0  0  0
   41.2343   35.5772   41.7767 C   0  0  1  0  0  0  0  0  0  0  0  0
   48.3578   32.1556   43.7839 H   0  0  0  0  0  0  0  0  0  0  0  0
   43.7567   35.3295   46.0040 H   0  0  0  0  0  0  0  0  0  0  0  0
   43.9396   34.0851   48.3413 H   0  0  0  0  0  0  0  0  0  0  0  0
   47.6861   31.6718   46.1625 H   0  0  0  0  0  0  0  0  0  0  0  0
   46.6322   32.8202   39.1225 H   0  0  0  0  0  0  0  0  0  0  0  0
   48.2508   34.6367   38.5609 H   0  0  0  0  0  0  0  0  0  0  0  0
   49.2058   35.9980   40.4514 H   0  0  0  0  0  0  0  0  0  0  0  0
   42.5193   36.5076   43.1505 H   0  0  0  0  0  0  0  0  0  0  0  0
   43.4991   33.8490   42.3374 H   0  0  0  0  0  0  0  0  0  0  0  0
   44.3766   36.2540   40.6744 H   0  0  0  0  0  0  0  0  0  0  0  0
   44.4289   34.5142   40.3317 H   0  0  0  0  0  0  0  0  0  0  0  0
   40.7105   34.9471   39.8296 H   0  0  0  0  0  0  0  0  0  0  0  0
   41.7165   33.6912   40.7551 H   0  0  0  0  0  0  0  0  0  0  0  0
   41.1144   36.6252   41.4129 H   0  0  0  0  0  0  0  0  0  0  0  0
   39.2719   37.4206   42.6987 F   0  0  0  0  0  0  0  0  0  0  0  0
   39.0073   36.1180   42.8414 C   0  0  0  0  0  0  0  0  0  0  0  0
   39.9433   35.1971   42.4021 C   0  0  0  0  0  0  0  0  0  0  0  0
   39.6134   33.8523   42.5767 C   0  0  0  0  0  0  0  0  0  0  0  0
   40.3517   33.1236   42.2303 H   0  0  0  0  0  0  0  0  0  0  0  0
   38.4526   33.3736   43.1407 C   0  0  0  0  0  0  0  0  0  0  0  0
   38.3168   32.3022   43.2187 H   0  0  0  0  0  0  0  0  0  0  0  0
   37.5543   34.3355   43.5614 C   0  0  0  0  0  0  0  0  0  0  0  0
   37.8226   35.6894   43.4164 C   0  0  0  0  0  0  0  0  0  0  0  0
   36.6233   33.9613   44.0136 H   0  0  0  0  0  0  0  0  0  0  0  0
   37.0752   36.4166   43.7672 H   0  0  0  0  0  0  0  0  0  0  0  0
  1  9  2  0
  2  3  2  0
  2  1  1  0
  3  4  1  0
  4  8  2  0
  4  5  1  0
  5  6  1  0
  7  6  2  0
  8  7  1  0
  9  8  1  0
 10 15  2  0
 11 10  1  0
 11 12  2  0
 12 13  1  0
 13 14  2  0
 14  2  1  0
 15 14  1  0
 16  3  1  0
 18 17  1  0
 18 16  1  0
 19 18  1  0
 20 21  1  0
 20 19  1  0
 21 22  1  0
 22 17  1  0
  1 23  1  0
  5 24  1  0
  6 25  1  0
  9 26  1  0
 10 27  1  0
 11 28  1  0
 12 29  1  0
 17 30  1  0
 18 31  1  6
 19 32  1  0
 19 33  1  0
 21 34  1  0
 21 35  1  0
 22 36  1  6
 37 38  1  0
 38 39  2  0
 39 40  1  0
 40 41  1  0
 40 42  2  0
 42 43  1  0
 42 44  1  0
 44 45  2  0
 45 38  1  0
 44 46  1  0
 45 47  1  0
 22 39  1  0
M  ISO  8  23  14  24   9  25  14  26  14  27  14  28  14  29  14  30   5
M  ISO  8  31  13  32  13  33  13  34  13  35  13  36  13  41  15  43  16
M  END
>  <DihAtoms>  (1) 
20,21,38,37

>  <DihDeg>  (1) 
90.00197517485073

$$$$
