
     RDKit          3D

 49 53  0  0  0  0  0  0  0  0999 V2000
   46.4340   32.8240   45.7880 C   0  0  0  0  0  0  0  0  0  0  0  0
   47.4320   31.8370   45.6160 C   0  0  0  0  0  0  0  0  0  0  0  0
   47.5370   31.1210   46.7590 C   0  0  0  0  0  0  0  0  0  0  0  0
   46.6500   31.6350   47.6020 N   0  0  0  0  0  0  0  0  0  0  0  0
   45.9810   32.6490   47.0500 N   0  0  0  0  0  0  0  0  0  0  0  0
   44.7660   35.6430   44.1730 C   0  0  0  0  0  0  0  0  0  0  0  0
   45.2830   35.5990   42.8710 C   0  0  0  0  0  0  0  0  0  0  0  0
   46.2010   34.5980   42.5700 C   0  0  0  0  0  0  0  0  0  0  0  0
   46.5060   33.7580   43.5670 N   0  0  0  0  0  0  0  0  0  0  0  0
   46.0240   33.7910   44.7950 C   0  0  0  0  0  0  0  0  0  0  0  0
   45.1440   34.7460   45.0980 N   0  0  0  0  0  0  0  0  0  0  0  0
   48.5450   35.8620   41.9810 F   0  0  0  0  0  0  0  0  0  0  0  0
   47.9960   35.0930   40.9870 C   0  0  0  0  0  0  0  0  0  0  0  0
   46.8120   34.4430   41.2580 C   0  0  0  0  0  0  0  0  0  0  0  0
   46.2790   33.6770   40.2460 C   0  0  0  0  0  0  0  0  0  0  0  0
   46.8510   33.5250   39.0010 C   0  0  0  0  0  0  0  0  0  0  0  0
   48.0520   34.1960   38.7540 C   0  0  0  0  0  0  0  0  0  0  0  0
   48.5870   34.9590   39.7550 C   0  0  0  0  0  0  0  0  0  0  0  0
   46.4110   31.1750   48.9650 C   0  0  0  0  0  0  0  0  0  0  0  0
   45.0600   30.5660   49.0850 C   0  0  0  0  0  0  0  0  0  0  0  0
   44.9430   28.0180   48.8650 C   0  0  0  0  0  0  0  0  0  0  0  0
   44.8360   29.3080   48.3950 C   0  0  0  0  0  0  0  0  0  0  0  0
   44.4570   29.4400   47.0610 C   0  0  0  0  0  0  0  0  0  0  0  0
   44.2050   28.3570   46.2660 C   0  0  0  0  0  0  0  0  0  0  0  0
   43.8340   28.1840   44.9810 N   0  0  0  0  0  0  0  0  0  0  0  0
   43.7160   26.8890   44.6640 C   0  0  0  0  0  0  0  0  0  0  0  0
   44.0260   26.1400   45.8030 C   0  0  0  0  0  0  0  0  0  0  0  0
   44.3150   27.0790   46.7440 C   0  0  0  0  0  0  0  0  0  0  0  0
   44.6890   26.9350   48.0570 C   0  0  0  0  0  0  0  0  0  0  0  0
   44.8260   25.5950   48.6360 C   0  0  0  0  0  0  0  0  0  0  0  0
   45.0060   25.4240   49.8620 O   0  0  0  0  0  0  0  0  0  0  0  0
   48.0251   31.6777   44.7034 H   0  0  0  0  0  0  0  0  0  0  0  0
   48.2207   30.2810   46.9512 H   0  0  0  0  0  0  0  0  0  0  0  0
   44.0395   36.4242   44.4412 H   0  0  0  0  0  0  0  0  0  0  0  0
   44.9730   36.3322   42.1118 H   0  0  0  0  0  0  0  0  0  0  0  0
   45.3334   33.1510   40.4440 H   0  0  0  0  0  0  0  0  0  0  0  0
   46.3793   32.8983   38.2298 H   0  0  0  0  0  0  0  0  0  0  0  0
   48.5543   34.1125   37.7789 H   0  0  0  0  0  0  0  0  0  0  0  0
   49.5322   35.4885   39.5647 H   0  0  0  0  0  0  0  0  0  0  0  0
   47.1702   30.4248   49.2312 H   0  0  0  0  0  0  0  0  0  0  0  0
   46.4717   32.0375   49.6450 H   0  0  0  0  0  0  0  0  0  0  0  0
   44.8675   30.3958   50.1546 H   0  0  0  0  0  0  0  0  0  0  0  0
   44.3818   31.2818   48.5975 H   0  0  0  0  0  0  0  0  0  0  0  0
   45.2386   27.8502   49.9112 H   0  0  0  0  0  0  0  0  0  0  0  0
   44.3573   30.4486   46.6335 H   0  0  0  0  0  0  0  0  0  0  0  0
   43.6619   28.9566   44.3219 H   0  0  0  0  0  0  0  0  0  0  0  0
   43.4267   26.4859   43.6823 H   0  0  0  0  0  0  0  0  0  0  0  0
   44.0343   25.0455   45.9128 H   0  0  0  0  0  0  0  0  0  0  0  0
   44.7690   24.7174   47.9753 H   0  0  0  0  0  0  0  0  0  0  0  0
  1  5  2  0
  2  1  1  0
  2  3  2  0
  3  4  1  0
  4 19  1  0
  5  4  1  0
  6 11  2  0
  7  6  1  0
  8  7  2  0
  8  9  1  0
  9 10  2  0
 10 11  1  0
 10  1  1  0
 13 14  2  0
 13 12  1  0
 14  8  1  0
 15 14  1  0
 16 15  2  0
 17 16  1  0
 17 18  2  0
 18 13  1  0
 19 20  1  0
 22 21  2  0
 22 20  1  0
 23 22  1  0
 24 28  1  0
 24 23  2  0
 25 24  1  0
 26 25  1  0
 26 27  2  0
 27 28  1  0
 28 29  2  0
 29 30  1  0
 29 21  1  0
 30 31  2  0
  2 32  1  0
  3 33  1  0
  6 34  1  0
  7 35  1  0
 15 36  1  0
 16 37  1  0
 17 38  1  0
 18 39  1  0
 19 40  1  0
 19 41  1  0
 20 42  1  0
 20 43  1  0
 21 44  1  0
 23 45  1  0
 25 46  1  0
 26 47  1  0
 27 48  1  0
 30 49  1  0
M  ISO  8  32  14  33  14  34  14  35  14  36  14  37  14  38  14  39  14
M  ISO  8  40   8  41   8  42   8  43   8  44  14  45  14  46   9  47  14
M  ISO  2  48  14  49   6
M  END
>  <minimizedAffinity>  (1) 
-6.34950161

>  <minimizedRMSD>  (1) 
1.29934251

$$$$
