
     RDKit          3D

 43 46  0  0  0  0  0  0  0  0999 V2000
   45.8030   33.2354   46.3620 C   0  0  0  0  0  0  0  0  0  0  0  0
   45.1988   33.1383   47.6230 C   0  0  0  0  0  0  0  0  0  0  0  0
   45.7602   32.3237   48.5339 C   0  0  0  0  0  0  0  0  0  0  0  0
   46.9224   31.5944   48.2179 C   0  0  0  0  0  0  0  0  0  0  0  0
   47.2377   32.1091   46.4937 S   0  0  0  0  0  0  0  0  0  0  0  0
   44.3428   35.9263   44.2501 C   0  0  0  0  0  0  0  0  0  0  0  0
   44.4981   35.3353   42.9676 C   0  0  0  0  0  0  0  0  0  0  0  0
   45.0921   34.0540   42.8871 C   0  0  0  0  0  0  0  0  0  0  0  0
   45.4828   33.4585   44.0531 N   0  0  0  0  0  0  0  0  0  0  0  0
   45.3107   34.0706   45.2638 C   0  0  0  0  0  0  0  0  0  0  0  0
   44.7454   35.2923   45.3506 N   0  0  0  0  0  0  0  0  0  0  0  0
   47.7815   30.6556   48.8514 C   0  0  1  0  0  0  0  0  0  0  0  0
   48.1751   29.5050   47.9851 C   0  0  0  0  0  0  0  0  0  0  0  0
   49.5948   29.0543   48.1401 C   0  0  0  0  0  0  0  0  0  0  0  0
   50.0996   29.0397   49.5478 C   0  0  0  0  0  0  0  0  0  0  0  0
   49.6435   30.2406   50.3581 C   0  0  0  0  0  0  0  0  0  0  0  0
   49.0805   31.2770   49.3907 C   0  0  2  0  0  0  0  0  0  0  0  0
   44.3077   33.6935   47.8746 H   0  0  0  0  0  0  0  0  0  0  0  0
   45.4518   32.1166   49.5390 H   0  0  0  0  0  0  0  0  0  0  0  0
   43.8950   36.9010   44.3543 H   0  0  0  0  0  0  0  0  0  0  0  0
   44.1768   35.8406   42.0858 H   0  0  0  0  0  0  0  0  0  0  0  0
   45.2344   33.5579   41.9359 H   0  0  0  0  0  0  0  0  0  0  0  0
   47.2309   30.2218   49.7352 H   0  0  0  0  0  0  0  0  0  0  0  0
   47.4805   28.6365   48.1096 H   0  0  0  0  0  0  0  0  0  0  0  0
   48.0356   29.8188   46.9241 H   0  0  0  0  0  0  0  0  0  0  0  0
   50.2625   29.6280   47.4659 H   0  0  0  0  0  0  0  0  0  0  0  0
   49.6312   27.9931   47.7631 H   0  0  0  0  0  0  0  0  0  0  0  0
   49.7134   28.1382   50.0607 H   0  0  0  0  0  0  0  0  0  0  0  0
   51.2023   28.9647   49.5235 H   0  0  0  0  0  0  0  0  0  0  0  0
   48.8298   29.9567   51.0528 H   0  0  0  0  0  0  0  0  0  0  0  0
   50.4858   30.7272   50.8849 H   0  0  0  0  0  0  0  0  0  0  0  0
   49.8201   31.3238   48.5641 H   0  0  0  0  0  0  0  0  0  0  0  0
   50.3021   33.8122   48.6767 F   0  0  0  0  0  0  0  0  0  0  0  0
   49.4605   33.7947   49.7103 C   0  0  0  0  0  0  0  0  0  0  0  0
   48.9062   32.5806   50.0153 C   0  0  0  0  0  0  0  0  0  0  0  0
   48.0260   32.5966   51.1075 C   0  0  0  0  0  0  0  0  0  0  0  0
   47.4915   31.7434   51.4996 H   0  0  0  0  0  0  0  0  0  0  0  0
   47.7520   33.7533   51.8077 C   0  0  0  0  0  0  0  0  0  0  0  0
   47.0802   33.8049   52.6537 H   0  0  0  0  0  0  0  0  0  0  0  0
   48.3393   34.9501   51.4566 C   0  0  0  0  0  0  0  0  0  0  0  0
   49.2019   34.9605   50.3943 C   0  0  0  0  0  0  0  0  0  0  0  0
   48.1320   35.8629   51.9981 H   0  0  0  0  0  0  0  0  0  0  0  0
   49.6836   35.8820   50.0874 H   0  0  0  0  0  0  0  0  0  0  0  0
  1  5  1  0
  1  2  2  0
  2  3  1  0
  4  3  2  0
  4 12  1  0
  5  4  1  0
  6 11  2  0
  7  6  1  0
  8  7  2  0
  8  9  1  0
  9 10  2  0
 10 11  1  0
 10  1  1  0
 12 17  1  0
 13 14  1  0
 13 12  1  0
 14 15  1  0
 15 16  1  0
 17 16  1  0
  2 18  1  0
  3 19  1  0
  6 20  1  0
  7 21  1  0
  8 22  1  0
 12 23  1  1
 13 24  1  0
 13 25  1  0
 14 26  1  0
 14 27  1  0
 15 28  1  0
 15 29  1  0
 16 30  1  0
 16 31  1  0
 17 32  1  6
 33 34  1  0
 34 35  2  0
 35 36  1  0
 36 37  1  0
 36 38  2  0
 38 39  1  0
 38 40  1  0
 40 41  2  0
 41 34  1  0
 40 42  1  0
 41 43  1  0
 17 35  1  0
M  ISO  8  18  14  19  14  20  14  21  14  22  14  23  13  24  13  25  13
M  ISO  8  26  13  27  13  28  13  29  13  30  13  31  13  32  13  37  15
M  ISO  1  39  16
M  END
>  <DihAtoms>  (1) 
11,16,34,33

>  <DihDeg>  (1) 
89.16738128226731

$$$$
