
     RDKit          3D

 46 48  0  0  0  0  0  0  0  0999 V2000
   46.5732   34.9063   43.2472 O   0  0  0  0  0  0  0  0  0  0  0  0
   46.8025   33.9773   42.2296 C   0  0  1  0  0  0  0  0  0  0  0  0
   46.0764   34.4111   40.9540 C   0  0  0  0  0  0  0  0  0  0  0  0
   46.6950   33.4644   39.9472 C   0  0  0  0  0  0  0  0  0  0  0  0
   48.0840   33.1394   40.4779 C   0  0  0  0  0  0  0  0  0  0  0  0
   48.2166   33.9639   41.7390 C   0  0  1  0  0  0  0  0  0  0  0  0
   48.7594   35.3380   41.4587 C   0  0  0  0  0  0  0  0  0  0  0  0
   49.6528   35.7611   42.4177 O   0  0  0  0  0  0  0  0  0  0  0  0
   44.7393   35.3550   45.0025 O   0  0  0  0  0  0  0  0  0  0  0  0
   45.5767   34.2415   44.4109 P   0  0  1  0  0  0  0  0  0  0  0  0
   44.6043   33.0404   43.7165 O   0  0  0  0  0  0  0  0  0  0  0  0
   46.4709   33.4890   45.6008 O   0  0  0  0  0  0  0  0  0  0  0  0
   46.2167   32.1572   45.5743 C   0  0  0  0  0  0  0  0  0  0  0  0
   45.6581   31.8994   49.2363 C   0  0  0  0  0  0  0  0  0  0  0  0
   45.9815   32.4532   47.9885 C   0  0  0  0  0  0  0  0  0  0  0  0
   45.8713   31.6113   46.8966 C   0  0  0  0  0  0  0  0  0  0  0  0
   45.4657   30.3238   47.0799 N   0  0  0  0  0  0  0  0  0  0  0  0
   45.1604   29.8115   48.2865 C   0  0  0  0  0  0  0  0  0  0  0  0
   45.2589   30.6022   49.3530 N   0  0  0  0  0  0  0  0  0  0  0  0
   46.4487   32.9754   42.4590 H   0  0  0  0  0  0  0  0  0  0  0  0
   46.1825   35.4644   40.7209 H   0  0  0  0  0  0  0  0  0  0  0  0
   44.9818   34.1837   41.0582 H   0  0  0  0  0  0  0  0  0  0  0  0
   46.7227   33.8879   38.9331 H   0  0  0  0  0  0  0  0  0  0  0  0
   46.0669   32.5393   39.9540 H   0  0  0  0  0  0  0  0  0  0  0  0
   48.8795   33.3702   39.7414 H   0  0  0  0  0  0  0  0  0  0  0  0
   48.1034   32.0627   40.7977 H   0  0  0  0  0  0  0  0  0  0  0  0
   48.8254   33.4014   42.4801 H   0  0  0  0  0  0  0  0  0  0  0  0
   48.0154   36.1237   41.3290 H   0  0  0  0  0  0  0  0  0  0  0  0
   49.3365   35.2520   40.4984 H   0  0  0  0  0  0  0  0  0  0  0  0
   50.2554   35.0137   42.6287 H   0  0  0  0  0  0  0  0  0  0  0  0
   43.6578   33.3495   43.6898 H   0  0  0  0  0  0  0  0  0  0  0  0
   47.1866   31.6527   45.2930 H   0  0  0  0  0  0  0  0  0  0  0  0
   45.4878   31.7782   44.8656 H   0  0  0  0  0  0  0  0  0  0  0  0
   45.7286   32.5133   50.1085 H   0  0  0  0  0  0  0  0  0  0  0  0
   46.2905   33.4784   47.9489 H   0  0  0  0  0  0  0  0  0  0  0  0
   44.9365   28.0983   46.0606 F   0  0  0  0  0  0  0  0  0  0  0  0
   44.6413   27.6282   47.2849 C   0  0  0  0  0  0  0  0  0  0  0  0
   44.7320   28.4218   48.4186 C   0  0  0  0  0  0  0  0  0  0  0  0
   44.4195   27.9103   49.6819 C   0  0  0  0  0  0  0  0  0  0  0  0
   44.4937   28.5315   50.5445 H   0  0  0  0  0  0  0  0  0  0  0  0
   44.0071   26.5868   49.8422 C   0  0  0  0  0  0  0  0  0  0  0  0
   43.7544   26.1377   50.7823 H   0  0  0  0  0  0  0  0  0  0  0  0
   43.9414   25.8608   48.6700 C   0  0  0  0  0  0  0  0  0  0  0  0
   44.2321   26.2927   47.3924 C   0  0  0  0  0  0  0  0  0  0  0  0
   43.6227   24.8287   48.7716 H   0  0  0  0  0  0  0  0  0  0  0  0
   44.1352   25.6076   46.5591 H   0  0  0  0  0  0  0  0  0  0  0  0
 10  1  1  6
  2  1  1  0
  3  2  1  0
  4  5  1  0
  4  3  1  0
  5  6  1  0
  6  2  1  0
  7  6  1  0
  7  8  1  0
 10  9  2  0
 10 12  1  0
 11 10  1  0
 13 12  1  0
 13 16  1  0
 14 19  2  0
 15 14  1  0
 16 17  1  0
 16 15  2  0
 17 18  2  0
 18 19  1  0
  2 20  1  1
  3 21  1  0
  3 22  1  0
  4 23  1  0
  4 24  1  0
  5 25  1  0
  5 26  1  0
  6 27  1  1
  7 28  1  0
  7 29  1  0
  8 30  1  0
 11 31  1  0
 13 32  1  0
 13 33  1  0
 14 34  1  0
 15 35  1  0
 36 37  1  0
 37 38  2  0
 38 39  1  0
 39 40  1  0
 39 41  2  0
 41 42  1  0
 41 43  1  0
 43 44  2  0
 44 37  1  0
 43 45  1  0
 44 46  1  0
 18 38  1  0
M  ISO  8  20  13  21  13  22  13  23  13  24  13  25  13  26  13  27  13
M  ISO  8  28   8  29   8  30   3  31   3  32   8  33   8  34  14  35  14
M  ISO  2  40  15  42  16
M  END
>  <DihAtoms>  (1) 
16,17,37,36

>  <DihDeg>  (1) 
0.0015582142394290014

$$$$
