
     RDKit          3D

 26 27  0  0  0  0  0  0  0  0999 V2000
   46.3338   35.2138   42.5773 C   0  0  0  0  0  0  0  0  0  0  0  0
   46.8804   34.1054   43.2677 C   0  0  0  0  0  0  0  0  0  0  0  0
   46.3367   33.8059   44.5160 C   0  0  0  0  0  0  0  0  0  0  0  0
   45.3323   34.5604   45.0110 N   0  0  0  0  0  0  0  0  0  0  0  0
   44.8285   35.5984   44.3467 C   0  0  0  0  0  0  0  0  0  0  0  0
   45.3534   35.8910   43.1428 N   0  0  0  0  0  0  0  0  0  0  0  0
   47.9000   33.4212   42.6291 O   0  0  0  0  0  0  0  0  0  0  0  0
   50.3899   33.1754   41.8335 O   0  0  0  0  0  0  0  0  0  0  0  0
   49.3277   34.1952   42.1513 P   0  0  0  0  0  0  0  0  0  0  0  0
   49.0591   35.1025   40.7414 O   0  0  0  0  0  0  0  0  0  0  0  0
   49.9022   35.2288   43.3730 O   0  0  0  0  0  0  0  0  0  0  0  0
   46.8611   32.9329   44.9201 H   0  0  0  0  0  0  0  0  0  0  0  0
   44.0538   36.0026   44.9988 H   0  0  0  0  0  0  0  0  0  0  0  0
   49.8009   35.1130   40.1182 H   0  0  0  0  0  0  0  0  0  0  0  0
   50.3271   34.7331   44.0946 H   0  0  0  0  0  0  0  0  0  0  0  0
   44.1201   36.5762   42.0785 F   0  0  0  0  0  0  0  0  0  0  0  0
   45.1749   36.6532   41.2003 C   0  0  0  0  0  0  0  0  0  0  0  0
   46.3891   35.9106   41.3106 C   0  0  0  0  0  0  0  0  0  0  0  0
   47.3436   36.0677   40.3440 C   0  0  0  0  0  0  0  0  0  0  0  0
   48.2051   35.4683   40.5322 H   0  0  0  0  0  0  0  0  0  0  0  0
   47.0817   36.9462   39.3040 C   0  0  0  0  0  0  0  0  0  0  0  0
   47.8620   37.0495   38.5824 H   0  0  0  0  0  0  0  0  0  0  0  0
   45.8949   37.6542   39.2206 C   0  0  0  0  0  0  0  0  0  0  0  0
   44.8909   37.5447   40.1583 C   0  0  0  0  0  0  0  0  0  0  0  0
   45.7365   38.3174   38.3845 H   0  0  0  0  0  0  0  0  0  0  0  0
   43.9964   38.1034   40.0664 H   0  0  0  0  0  0  0  0  0  0  0  0
  1  6  1  0
  1  2  2  0
  2  3  1  0
  3  4  2  0
  5  4  1  0
  6  5  2  0
  7  2  1  0
  8  9  2  0
  9  7  1  0
  9 11  1  0
 10  9  1  0
  3 12  1  0
  5 13  1  0
 10 14  1  0
 11 15  1  0
 16 17  1  0
 17 18  2  0
 18 19  1  0
 19 20  1  0
 19 21  2  0
 21 22  1  0
 21 23  1  0
 23 24  2  0
 24 17  1  0
 23 25  1  0
 24 26  1  0
  1 18  1  0
M  ISO  6  12  14  13  14  14   3  15   3  20  15  22  16
M  END
>  <DihAtoms>  (1) 
5,0,17,16

>  <DihDeg>  (1) 
-90.76432327520304

$$$$
