
     RDKit          3D

 26 27  0  0  0  0  0  0  0  0999 V2000
   46.3338   35.2138   42.5773 C   0  0  0  0  0  0  0  0  0  0  0  0
   46.8804   34.1054   43.2677 C   0  0  0  0  0  0  0  0  0  0  0  0
   46.3367   33.8059   44.5160 C   0  0  0  0  0  0  0  0  0  0  0  0
   45.3323   34.5604   45.0110 N   0  0  0  0  0  0  0  0  0  0  0  0
   44.8285   35.5984   44.3467 C   0  0  0  0  0  0  0  0  0  0  0  0
   45.3534   35.8910   43.1428 N   0  0  0  0  0  0  0  0  0  0  0  0
   47.9000   33.4212   42.6291 O   0  0  0  0  0  0  0  0  0  0  0  0
   50.3899   33.1754   41.8335 O   0  0  0  0  0  0  0  0  0  0  0  0
   49.3277   34.1952   42.1513 P   0  0  0  0  0  0  0  0  0  0  0  0
   49.0591   35.1025   40.7414 O   0  0  0  0  0  0  0  0  0  0  0  0
   49.9022   35.2288   43.3730 O   0  0  0  0  0  0  0  0  0  0  0  0
   46.8611   32.9329   44.9201 H   0  0  0  0  0  0  0  0  0  0  0  0
   44.0538   36.0026   44.9988 H   0  0  0  0  0  0  0  0  0  0  0  0
   49.8009   35.1130   40.1182 H   0  0  0  0  0  0  0  0  0  0  0  0
   50.3271   34.7331   44.0946 H   0  0  0  0  0  0  0  0  0  0  0  0
   46.0712   37.8328   42.8550 F   0  0  0  0  0  0  0  0  0  0  0  0
   46.3069   37.3044   41.6079 C   0  0  0  0  0  0  0  0  0  0  0  0
   46.3891   35.9106   41.3106 C   0  0  0  0  0  0  0  0  0  0  0  0
   46.6007   35.5282   40.0148 C   0  0  0  0  0  0  0  0  0  0  0  0
   46.6473   34.4678   39.9138 H   0  0  0  0  0  0  0  0  0  0  0  0
   46.7273   36.5192   39.0537 C   0  0  0  0  0  0  0  0  0  0  0  0
   46.9084   36.1744   38.0594 H   0  0  0  0  0  0  0  0  0  0  0  0
   46.6430   37.8647   39.3690 C   0  0  0  0  0  0  0  0  0  0  0  0
   46.4316   38.3205   40.6523 C   0  0  0  0  0  0  0  0  0  0  0  0
   46.7379   38.5958   38.5813 H   0  0  0  0  0  0  0  0  0  0  0  0
   46.3757   39.3571   40.8599 H   0  0  0  0  0  0  0  0  0  0  0  0
  1  6  1  0
  1  2  2  0
  2  3  1  0
  3  4  2  0
  5  4  1  0
  6  5  2  0
  7  2  1  0
  8  9  2  0
  9  7  1  0
  9 11  1  0
 10  9  1  0
  3 12  1  0
  5 13  1  0
 10 14  1  0
 11 15  1  0
 16 17  1  0
 17 18  2  0
 18 19  1  0
 19 20  1  0
 19 21  2  0
 21 22  1  0
 21 23  1  0
 23 24  2  0
 24 17  1  0
 23 25  1  0
 24 26  1  0
  1 18  1  0
M  ISO  6  12  14  13  14  14   3  15   3  20  15  22  16
M  END
>  <DihAtoms>  (1) 
5,0,17,16

>  <DihDeg>  (1) 
-90.76432327520304

$$$$
