
     RDKit          3D

 46 49  0  0  0  0  0  0  0  0999 V2000
   39.5460   35.3930   40.2630 C   0  0  0  0  0  0  0  0  0  0  0  0
   38.9790   33.0200   40.1750 C   0  0  0  0  0  0  0  0  0  0  0  0
   39.0470   32.8840   41.4350 O   0  0  0  0  0  0  0  0  0  0  0  0
   39.1260   34.2470   39.4960 N   0  0  0  0  0  0  0  0  0  0  0  0
   38.7280   31.8240   39.3500 C   0  0  0  0  0  0  0  0  0  0  0  0
   39.1910   31.8180   38.0320 C   0  0  0  0  0  0  0  0  0  0  0  0
   39.0350   30.7760   37.1460 C   0  0  0  0  0  0  0  0  0  0  0  0
   38.3560   29.6490   37.6390 C   0  0  0  0  0  0  0  0  0  0  0  0
   37.9240   29.7050   38.9360 C   0  0  0  0  0  0  0  0  0  0  0  0
   38.0920   30.7320   39.7670 N   0  0  0  0  0  0  0  0  0  0  0  0
   39.1020   27.8660   40.7600 F   0  0  0  0  0  0  0  0  0  0  0  0
   37.8190   27.6580   40.3660 C   0  0  0  0  0  0  0  0  0  0  0  0
   37.2160   28.5440   39.4710 C   0  0  0  0  0  0  0  0  0  0  0  0
   35.9360   28.2080   39.1710 C   0  0  0  0  0  0  0  0  0  0  0  0
   35.2660   27.1160   39.6740 C   0  0  0  0  0  0  0  0  0  0  0  0
   35.9250   26.2710   40.5610 C   0  0  0  0  0  0  0  0  0  0  0  0
   37.2250   26.5590   40.9050 C   0  0  0  0  0  0  0  0  0  0  0  0
   40.8600   35.9950   39.7610 C   0  0  0  0  0  0  0  0  0  0  0  0
   43.7940   34.5770   41.6910 C   0  0  0  0  0  0  0  0  0  0  0  0
   42.7230   35.4310   41.3190 C   0  0  0  0  0  0  0  0  0  0  0  0
   41.9910   35.1390   40.1840 C   0  0  0  0  0  0  0  0  0  0  0  0
   42.3660   34.0180   39.4830 N   0  0  0  0  0  0  0  0  0  0  0  0
   43.4070   33.2300   39.8870 C   0  0  0  0  0  0  0  0  0  0  0  0
   44.1120   33.5120   40.9820 N   0  0  0  0  0  0  0  0  0  0  0  0
   44.5780   34.9130   42.9160 C   0  0  0  0  0  0  0  0  0  0  0  0
   46.0570   35.3110   42.5580 C   0  0  0  0  0  0  0  0  0  0  0  0
   45.0940   36.1770   43.2530 C   0  0  0  0  0  0  0  0  0  0  0  0
   38.7619   36.1621   40.2032 H   0  0  0  0  0  0  0  0  0  0  0  0
   39.7104   35.0564   41.2972 H   0  0  0  0  0  0  0  0  0  0  0  0
   38.9395   34.3220   38.4858 H   0  0  0  0  0  0  0  0  0  0  0  0
   39.7203   32.7138   37.6751 H   0  0  0  0  0  0  0  0  0  0  0  0
   39.4182   30.8228   36.1160 H   0  0  0  0  0  0  0  0  0  0  0  0
   38.1799   28.7629   37.0114 H   0  0  0  0  0  0  0  0  0  0  0  0
   35.3914   28.8591   38.4713 H   0  0  0  0  0  0  0  0  0  0  0  0
   34.2256   26.9146   39.3792 H   0  0  0  0  0  0  0  0  0  0  0  0
   35.4163   25.3898   40.9790 H   0  0  0  0  0  0  0  0  0  0  0  0
   37.7752   25.9119   41.6040 H   0  0  0  0  0  0  0  0  0  0  0  0
   40.9858   37.0030   40.1830 H   0  0  0  0  0  0  0  0  0  0  0  0
   40.8383   36.0560   38.6629 H   0  0  0  0  0  0  0  0  0  0  0  0
   42.4787   36.3146   41.9269 H   0  0  0  0  0  0  0  0  0  0  0  0
   43.6692   32.3415   39.2939 H   0  0  0  0  0  0  0  0  0  0  0  0
   43.9878   34.2135   43.5263 H   0  0  0  0  0  0  0  0  0  0  0  0
   46.9065   34.8664   43.0972 H   0  0  0  0  0  0  0  0  0  0  0  0
   46.6819   35.3626   41.6542 H   0  0  0  0  0  0  0  0  0  0  0  0
   44.7062   37.0655   42.7333 H   0  0  0  0  0  0  0  0  0  0  0  0
   45.1457   36.7241   44.2059 H   0  0  0  0  0  0  0  0  0  0  0  0
  2  3  2  0
  4  2  1  0
  4  1  1  0
  5 10  1  0
  5  2  1  0
  6  5  2  0
  7  8  2  0
  7  6  1  0
  8  9  1  0
  9 13  1  0
  9 10  2  0
 12 11  1  0
 12 17  2  0
 13 12  1  0
 14 13  2  0
 14 15  1  0
 15 16  2  0
 16 17  1  0
 18 21  1  0
 18  1  1  0
 19 25  1  0
 20 19  2  0
 21 20  1  0
 22 23  1  0
 22 21  2  0
 23 24  2  0
 24 19  1  0
 25 27  1  0
 26 25  1  0
 26 27  1  0
  1 28  1  0
  1 29  1  0
  4 30  1  0
  6 31  1  0
  7 32  1  0
  8 33  1  0
 14 34  1  0
 15 35  1  0
 16 36  1  0
 17 37  1  0
 18 38  1  0
 18 39  1  0
 20 40  1  0
 23 41  1  0
 25 42  1  0
 26 43  1  0
 26 44  1  0
 27 45  1  0
 27 46  1  0
M  ISO  8  28   8  29   8  31  14  32  14  33  14  34  14  35  14  36  14
M  ISO  8  37  14  38   8  39   8  40  14  41  14  42  13  43  13  44  13
M  ISO  2  45  13  46  13
M  END
>  <minimizedAffinity>  (1) 
-5.52810907

>  <minimizedRMSD>  (1) 
1.88844383

$$$$
