
     RDKit          3D

 21 22  0  0  0  0  0  0  0  0999 V2000
   44.5446   36.0249   44.5273 C   0  0  0  0  0  0  0  0  0  0  0  0
   45.2620   35.8885   43.3228 C   0  0  0  0  0  0  0  0  0  0  0  0
   46.1316   34.7955   43.2038 C   0  0  0  0  0  0  0  0  0  0  0  0
   46.2226   33.9446   44.2564 N   0  0  0  0  0  0  0  0  0  0  0  0
   45.5263   34.1006   45.3913 C   0  0  0  0  0  0  0  0  0  0  0  0
   44.6913   35.1364   45.5254 N   0  0  0  0  0  0  0  0  0  0  0  0
   47.0726   34.5625   41.7019 S   0  0  0  0  0  0  0  0  0  0  0  0
   43.8740   36.8655   44.6222 H   0  0  0  0  0  0  0  0  0  0  0  0
   45.1479   36.5956   42.5233 H   0  0  0  0  0  0  0  0  0  0  0  0
   48.4526   34.7150   42.0047 H   0  0  0  0  0  0  0  0  0  0  0  0
   44.9541   31.3822   45.0197 F   0  0  0  0  0  0  0  0  0  0  0  0
   45.4041   31.7945   46.2243 C   0  0  0  0  0  0  0  0  0  0  0  0
   45.7021   33.1200   46.4656 C   0  0  0  0  0  0  0  0  0  0  0  0
   46.1641   33.5772   47.6846 C   0  0  0  0  0  0  0  0  0  0  0  0
   46.4020   34.6214   47.8845 H   0  0  0  0  0  0  0  0  0  0  0  0
   46.3489   32.6816   48.7420 C   0  0  0  0  0  0  0  0  0  0  0  0
   46.7045   32.9425   49.7284 H   0  0  0  0  0  0  0  0  0  0  0  0
   46.0397   31.3609   48.4630 C   0  0  0  0  0  0  0  0  0  0  0  0
   45.5803   30.8899   47.2596 C   0  0  0  0  0  0  0  0  0  0  0  0
   46.1594   30.6150   49.2356 H   0  0  0  0  0  0  0  0  0  0  0  0
   45.3545   29.8435   47.0992 H   0  0  0  0  0  0  0  0  0  0  0  0
  1  6  2  0
  2  1  1  0
  3  2  2  0
  3  4  1  0
  4  5  2  0
  5  6  1  0
  7  3  1  0
  1  8  1  0
  2  9  1  0
  7 10  1  0
 11 12  1  0
 12 13  2  0
 13 14  1  0
 14 15  1  0
 14 16  2  0
 16 17  1  0
 16 18  1  0
 18 19  2  0
 19 12  1  0
 18 20  1  0
 19 21  1  0
  5 13  1  0
M  ISO  5   8  14   9  14  10  11  15  15  17  16
M  END
>  <DihAtoms>  (1) 
3,4,12,11

>  <DihDeg>  (1) 
-179.99859827024397

$$$$
