
     RDKit          3D

 21 22  0  0  0  0  0  0  0  0999 V2000
   44.5446   36.0249   44.5273 C   0  0  0  0  0  0  0  0  0  0  0  0
   45.2620   35.8885   43.3228 C   0  0  0  0  0  0  0  0  0  0  0  0
   46.1316   34.7955   43.2038 C   0  0  0  0  0  0  0  0  0  0  0  0
   46.2226   33.9446   44.2564 N   0  0  0  0  0  0  0  0  0  0  0  0
   45.5263   34.1006   45.3913 C   0  0  0  0  0  0  0  0  0  0  0  0
   44.6913   35.1364   45.5254 N   0  0  0  0  0  0  0  0  0  0  0  0
   47.0726   34.5625   41.7019 S   0  0  0  0  0  0  0  0  0  0  0  0
   43.8740   36.8655   44.6222 H   0  0  0  0  0  0  0  0  0  0  0  0
   45.1479   36.5956   42.5233 H   0  0  0  0  0  0  0  0  0  0  0  0
   48.4526   34.7150   42.0047 H   0  0  0  0  0  0  0  0  0  0  0  0
   48.0632   33.1965   46.1670 F   0  0  0  0  0  0  0  0  0  0  0  0
   46.9759   32.7118   46.8043 C   0  0  0  0  0  0  0  0  0  0  0  0
   45.7021   33.1200   46.4656 C   0  0  0  0  0  0  0  0  0  0  0  0
   44.5678   32.6457   47.0955 C   0  0  0  0  0  0  0  0  0  0  0  0
   43.5583   32.9620   46.8352 H   0  0  0  0  0  0  0  0  0  0  0  0
   44.6817   31.7088   48.1269 C   0  0  0  0  0  0  0  0  0  0  0  0
   43.8565   31.2806   48.6775 H   0  0  0  0  0  0  0  0  0  0  0  0
   45.9745   31.3229   48.4390 C   0  0  0  0  0  0  0  0  0  0  0  0
   47.1110   31.7831   47.8245 C   0  0  0  0  0  0  0  0  0  0  0  0
   46.1355   30.6012   49.2269 H   0  0  0  0  0  0  0  0  0  0  0  0
   48.0982   31.4446   48.1116 H   0  0  0  0  0  0  0  0  0  0  0  0
  1  6  2  0
  2  1  1  0
  3  2  2  0
  3  4  1  0
  4  5  2  0
  5  6  1  0
  7  3  1  0
  1  8  1  0
  2  9  1  0
  7 10  1  0
 11 12  1  0
 12 13  2  0
 13 14  1  0
 14 15  1  0
 14 16  2  0
 16 17  1  0
 16 18  1  0
 18 19  2  0
 19 12  1  0
 18 20  1  0
 19 21  1  0
  5 13  1  0
M  ISO  5   8  14   9  14  10  11  15  15  17  16
M  END
>  <DihAtoms>  (1) 
3,4,12,11

>  <DihDeg>  (1) 
-179.99859827024397

$$$$
