
     RDKit          3D

 40 42  0  0  0  0  0  0  0  0999 V2000
   45.2922   35.6138   44.2033 C   0  0  0  0  0  0  0  0  0  0  0  0
   46.2459   34.8555   43.5285 C   0  0  0  0  0  0  0  0  0  0  0  0
   46.7065   33.6662   44.0798 C   0  0  0  0  0  0  0  0  0  0  0  0
   46.1947   33.3091   45.2547 N   0  0  0  0  0  0  0  0  0  0  0  0
   45.2706   34.0423   45.9091 C   0  0  0  0  0  0  0  0  0  0  0  0
   44.8093   35.1972   45.3963 N   0  0  0  0  0  0  0  0  0  0  0  0
   48.6840   33.7734   42.5792 C   0  0  2  0  0  0  0  0  0  0  0  0
   47.7033   32.9306   43.3158 C   0  0  2  0  0  0  0  0  0  0  0  0
   47.1630   32.1503   42.2524 O   0  0  0  0  0  0  0  0  0  0  0  0
   48.3087   31.6767   41.6369 C   0  0  0  0  0  0  0  0  0  0  0  0
   49.4269   32.6452   41.8355 C   0  0  1  0  0  0  0  0  0  0  0  0
   49.4925   34.5373   43.3653 O   0  0  0  0  0  0  0  0  0  0  0  0
   49.9443   33.1639   40.6497 O   0  0  0  0  0  0  0  0  0  0  0  0
   44.8084   36.9011   43.6158 C   0  0  0  0  0  0  0  0  0  0  0  0
   45.3353   39.2664   44.4883 C   0  0  0  0  0  0  0  0  0  0  0  0
   45.6178   39.6042   43.2826 O   0  0  0  0  0  0  0  0  0  0  0  0
   44.9265   37.9249   44.6187 N   0  0  0  0  0  0  0  0  0  0  0  0
   46.5573   35.2694   42.6007 H   0  0  0  0  0  0  0  0  0  0  0  0
   44.9437   33.6296   46.8555 H   0  0  0  0  0  0  0  0  0  0  0  0
   48.1805   34.3915   41.8027 H   0  0  0  0  0  0  0  0  0  0  0  0
   48.2655   32.1602   43.9190 H   0  0  0  0  0  0  0  0  0  0  0  0
   48.0947   31.5181   40.5430 H   0  0  0  0  0  0  0  0  0  0  0  0
   48.5479   30.6875   42.0517 H   0  0  0  0  0  0  0  0  0  0  0  0
   50.2166   32.2258   42.4879 H   0  0  0  0  0  0  0  0  0  0  0  0
   49.9525   33.9418   44.0016 H   0  0  0  0  0  0  0  0  0  0  0  0
   49.1853   33.7086   40.2660 H   0  0  0  0  0  0  0  0  0  0  0  0
   45.3699   37.1218   42.7012 H   0  0  0  0  0  0  0  0  0  0  0  0
   43.7246   36.7673   43.4089 H   0  0  0  0  0  0  0  0  0  0  0  0
   44.6607   37.5926   45.5670 H   0  0  0  0  0  0  0  0  0  0  0  0
   47.4386   39.4747   46.4654 F   0  0  0  0  0  0  0  0  0  0  0  0
   46.4502   40.3928   46.4796 C   0  0  0  0  0  0  0  0  0  0  0  0
   45.4663   40.2672   45.5277 C   0  0  0  0  0  0  0  0  0  0  0  0
   44.4950   41.2534   45.6190 C   0  0  0  0  0  0  0  0  0  0  0  0
   43.6533   41.2739   44.9232 H   0  0  0  0  0  0  0  0  0  0  0  0
   44.5172   42.2524   46.5654 C   0  0  0  0  0  0  0  0  0  0  0  0
   43.7347   42.9958   46.5913 H   0  0  0  0  0  0  0  0  0  0  0  0
   45.5378   42.3127   47.4880 C   0  0  0  0  0  0  0  0  0  0  0  0
   46.5343   41.3625   47.4514 C   0  0  0  0  0  0  0  0  0  0  0  0
   45.5880   43.0791   48.2422 H   0  0  0  0  0  0  0  0  0  0  0  0
   47.3536   41.3705   48.1546 H   0  0  0  0  0  0  0  0  0  0  0  0
  1  6  2  0
  2  3  2  0
  2  1  1  0
  3  4  1  0
  4  5  2  0
  6  5  1  0
  7  8  1  0
  7 12  1  0
  8  3  1  0
  9  8  1  0
 10 11  1  0
 10  9  1  0
 11  7  1  0
 13 11  1  0
 14  1  1  0
 14 17  1  0
 15 17  1  0
 16 15  2  0
  2 18  1  0
  5 19  1  0
  7 20  1  6
  8 21  1  1
 10 22  1  0
 10 23  1  0
 11 24  1  1
 12 25  1  0
 13 26  1  0
 14 27  1  0
 14 28  1  0
 17 29  1  0
 30 31  1  0
 31 32  2  0
 32 33  1  0
 33 34  1  0
 33 35  2  0
 35 36  1  0
 35 37  1  0
 37 38  2  0
 38 31  1  0
 37 39  1  0
 38 40  1  0
 15 32  1  0
M  ISO  8  18  14  19  14  20  13  21  13  22  13  23  13  24  13  25   3
M  ISO  5  26   3  27   8  28   8  34  15  36  16
M  END
>  <DihAtoms>  (1) 
16,14,31,30

>  <DihDeg>  (1) 
0.3619209099834309

$$$$
