
     RDKit          3D

 30 32  0  0  0  0  0  0  0  0999 V2000
   46.0823   34.1600   41.0128 C   0  0  0  0  0  0  0  0  0  0  0  0
   46.6105   34.8315   42.1092 C   0  0  0  0  0  0  0  0  0  0  0  0
   47.9393   35.2771   41.9865 C   0  0  0  0  0  0  0  0  0  0  0  0
   48.6097   35.0242   40.8176 N   0  0  0  0  0  0  0  0  0  0  0  0
   48.0489   34.3764   39.8039 C   0  0  0  0  0  0  0  0  0  0  0  0
   46.7823   33.9377   39.8892 N   0  0  0  0  0  0  0  0  0  0  0  0
   45.8090   35.0420   43.2934 C   0  0  0  0  0  0  0  0  0  0  0  0
   45.0503   36.1857   43.4961 C   0  0  0  0  0  0  0  0  0  0  0  0
   44.4638   35.9679   44.7243 C   0  0  0  0  0  0  0  0  0  0  0  0
   44.8405   34.7683   45.2380 N   0  0  0  0  0  0  0  0  0  0  0  0
   45.6516   34.2349   44.3510 N   0  0  0  0  0  0  0  0  0  0  0  0
   44.7806   33.7073   41.0967 O   0  0  0  0  0  0  0  0  0  0  0  0
   43.6904   34.1854   40.4294 C   0  0  0  0  0  0  0  0  0  0  0  0
   43.2509   35.3905   40.4150 O   0  0  0  0  0  0  0  0  0  0  0  0
   48.3637   35.8044   42.8396 H   0  0  0  0  0  0  0  0  0  0  0  0
   48.5865   34.1817   38.8848 H   0  0  0  0  0  0  0  0  0  0  0  0
   44.8904   37.0867   42.8970 H   0  0  0  0  0  0  0  0  0  0  0  0
   43.7765   36.5978   45.3028 H   0  0  0  0  0  0  0  0  0  0  0  0
   44.6254   34.2593   46.1058 H   0  0  0  0  0  0  0  0  0  0  0  0
   41.7567   32.3874   41.4795 F   0  0  0  0  0  0  0  0  0  0  0  0
   41.8674   32.4498   40.1233 C   0  0  0  0  0  0  0  0  0  0  0  0
   42.8122   33.3284   39.5839 C   0  0  0  0  0  0  0  0  0  0  0  0
   42.8338   33.3057   38.2105 C   0  0  0  0  0  0  0  0  0  0  0  0
   43.5312   33.9507   37.6989 H   0  0  0  0  0  0  0  0  0  0  0  0
   42.0233   32.5130   37.4325 C   0  0  0  0  0  0  0  0  0  0  0  0
   42.0972   32.5492   36.3542 H   0  0  0  0  0  0  0  0  0  0  0  0
   41.1305   31.6859   38.0428 C   0  0  0  0  0  0  0  0  0  0  0  0
   41.0293   31.6327   39.4026 C   0  0  0  0  0  0  0  0  0  0  0  0
   40.4769   31.0482   37.4660 H   0  0  0  0  0  0  0  0  0  0  0  0
   40.3307   30.9854   39.8812 H   0  0  0  0  0  0  0  0  0  0  0  0
  1 12  1  0
  1  2  1  0
  2  7  1  0
  3  2  2  0
  4  3  1  0
  5  6  1  0
  5  4  2  0
  6  1  2  0
  7  8  1  0
  7 11  2  0
  8  9  2  0
  9 10  1  0
 11 10  1  0
 13 14  2  0
 13 12  1  0
  3 15  1  0
  5 16  1  0
  8 17  1  0
  9 18  1  0
 10 19  1  0
 20 21  1  0
 21 22  2  0
 22 23  1  0
 23 24  1  0
 23 25  2  0
 25 26  1  0
 25 27  1  0
 27 28  2  0
 28 21  1  0
 27 29  1  0
 28 30  1  0
 13 22  1  0
M  ISO  7  15  14  16  14  17  14  18  14  19   9  24  15  26  16
M  END
>  <DihAtoms>  (1) 
13,12,21,20

>  <DihDeg>  (1) 
-178.37922688413806

$$$$
