
     RDKit          3D

 44 47  0  0  0  0  0  0  0  0999 V2000
   44.5905   34.4209   42.9426 C   0  0  0  0  0  0  0  0  0  0  0  0
   44.3084   35.6907   43.5548 C   0  0  0  0  0  0  0  0  0  0  0  0
   44.6292   35.8191   44.8918 C   0  0  0  0  0  0  0  0  0  0  0  0
   45.1832   34.7533   45.5374 N   0  0  0  0  0  0  0  0  0  0  0  0
   45.4298   33.5640   44.9010 C   0  0  0  0  0  0  0  0  0  0  0  0
   45.1343   33.4354   43.6536 N   0  0  0  0  0  0  0  0  0  0  0  0
   46.0223   32.4563   45.6809 C   0  0  1  0  0  0  0  0  0  0  0  0
   46.9655   32.7803   46.8167 C   0  0  0  0  0  0  0  0  0  0  0  0
   45.5547   32.3632   47.0817 C   0  0  1  0  0  0  0  0  0  0  0  0
   44.7569   33.4341   47.6583 N   0  0  0  0  0  0  0  0  0  0  0  0
   44.2420   34.3148   41.5472 C   0  0  0  0  0  0  0  0  0  0  0  0
   45.1144   34.1623   40.6379 O   0  0  0  0  0  0  0  0  0  0  0  0
   41.9930   33.3098   41.2976 C   0  0  0  0  0  0  0  0  0  0  0  0
   42.8109   34.4029   41.3074 C   0  0  0  0  0  0  0  0  0  0  0  0
   42.2301   35.6645   41.0720 C   0  0  0  0  0  0  0  0  0  0  0  0
   40.8894   35.8473   40.8358 C   0  0  0  0  0  0  0  0  0  0  0  0
   40.0748   34.7464   40.8284 C   0  0  0  0  0  0  0  0  0  0  0  0
   40.6302   33.5241   41.0544 C   0  0  0  0  0  0  0  0  0  0  0  0
   42.5344   31.7615   41.6705 S   0  0  0  0  0  0  0  0  0  0  0  0
   42.3878   31.0727   40.2761 O   0  0  0  0  0  0  0  0  0  0  0  0
   41.6391   31.0394   42.6069 O   0  0  0  0  0  0  0  0  0  0  0  0
   43.8847   36.5651   43.1321 H   0  0  0  0  0  0  0  0  0  0  0  0
   44.4705   36.7164   45.4722 H   0  0  0  0  0  0  0  0  0  0  0  0
   46.1426   31.4999   45.1484 H   0  0  0  0  0  0  0  0  0  0  0  0
   47.7327   31.9965   47.0039 H   0  0  0  0  0  0  0  0  0  0  0  0
   47.2772   33.8362   46.8793 H   0  0  0  0  0  0  0  0  0  0  0  0
   45.3762   31.3674   47.5517 H   0  0  0  0  0  0  0  0  0  0  0  0
   45.2965   33.9779   48.3800 H   0  0  0  0  0  0  0  0  0  0  0  0
   43.9270   33.0393   48.1281 H   0  0  0  0  0  0  0  0  0  0  0  0
   42.8013   36.5850   41.0512 H   0  0  0  0  0  0  0  0  0  0  0  0
   40.4566   36.7964   40.6593 H   0  0  0  0  0  0  0  0  0  0  0  0
   39.0318   34.8200   40.6525 H   0  0  0  0  0  0  0  0  0  0  0  0
   39.9753   32.6601   41.0456 H   0  0  0  0  0  0  0  0  0  0  0  0
   43.8922   31.3056   44.1607 F   0  0  0  0  0  0  0  0  0  0  0  0
   44.6037   30.9409   43.0357 C   0  0  0  0  0  0  0  0  0  0  0  0
   44.0954   31.1279   41.7195 C   0  0  0  0  0  0  0  0  0  0  0  0
   45.0146   30.6732   40.7818 C   0  0  0  0  0  0  0  0  0  0  0  0
   44.5756   30.7807   39.7719 H   0  0  0  0  0  0  0  0  0  0  0  0
   46.2610   30.1089   40.8960 C   0  0  0  0  0  0  0  0  0  0  0  0
   46.8004   29.8324   40.0284 H   0  0  0  0  0  0  0  0  0  0  0  0
   46.5733   30.0131   42.2244 C   0  0  0  0  0  0  0  0  0  0  0  0
   45.8301   30.3900   43.3084 C   0  0  0  0  0  0  0  0  0  0  0  0
   47.5475   29.5796   42.4374 H   0  0  0  0  0  0  0  0  0  0  0  0
   46.2034   30.2537   44.3137 H   0  0  0  0  0  0  0  0  0  0  0  0
  1  2  2  0
  1  6  1  0
  2  3  1  0
  3  4  2  0
  5  4  1  0
  5  7  1  0
  6  5  2  0
  7  8  1  0
  7  9  1  0
  8  9  1  0
  9 10  1  0
 11  1  1  0
 12 11  2  0
 13 19  1  0
 14 13  1  0
 14 11  1  0
 15 14  2  0
 16 17  2  0
 16 15  1  0
 17 18  1  0
 18 13  2  0
 19 21  2  0
 20 19  2  0
  2 22  1  0
  3 23  1  0
  7 24  1  6
  8 25  1  0
  8 26  1  0
  9 27  1  1
 10 28  1  0
 10 29  1  0
 15 30  1  0
 16 31  1  0
 17 32  1  0
 18 33  1  0
 34 35  1  0
 35 36  2  0
 36 37  1  0
 37 38  1  0
 37 39  2  0
 39 40  1  0
 39 41  1  0
 41 42  2  0
 42 35  1  0
 41 43  1  0
 42 44  1  0
 19 36  1  0
M  ISO  8  22  14  23  14  24  13  25  13  26  13  27  13  28   5  29   5
M  ISO  6  30  14  31  14  32  14  33  14  38  15  40  16
M  END
>  <DihAtoms>  (1) 
12,18,35,34

>  <DihDeg>  (1) 
134.70175341720844

$$$$
