
     RDKit          3D

 43 46  0  0  0  0  0  0  0  0999 V2000
   45.2805   35.2809   43.1345 Cl  0  0  0  0  0  0  0  0  0  0  0  0
   45.1615   34.5283   41.5664 C   0  0  0  0  0  0  0  0  0  0  0  0
   46.2662   34.1443   40.8836 C   0  0  0  0  0  0  0  0  0  0  0  0
   46.0741   33.5609   39.6372 C   0  0  0  0  0  0  0  0  0  0  0  0
   44.8222   33.3767   39.1039 C   0  0  0  0  0  0  0  0  0  0  0  0
   43.7232   33.7648   39.7975 C   0  0  0  0  0  0  0  0  0  0  0  0
   43.8990   34.3489   41.0473 C   0  0  0  0  0  0  0  0  0  0  0  0
   49.5361   35.7439   41.8987 C   0  0  0  0  0  0  0  0  0  0  0  0
   48.2788   35.5467   41.3197 C   0  0  0  0  0  0  0  0  0  0  0  0
   47.5793   34.3708   41.4638 C   0  0  0  0  0  0  0  0  0  0  0  0
   48.2206   33.4640   42.1985 N   0  0  0  0  0  0  0  0  0  0  0  0
   49.4170   33.6140   42.7671 C   0  0  0  0  0  0  0  0  0  0  0  0
   50.0631   34.7596   42.6085 N   0  0  0  0  0  0  0  0  0  0  0  0
   47.7967   31.8720   38.9973 C   0  0  0  0  0  0  0  0  0  0  0  0
   47.2363   33.1133   38.8788 C   0  0  0  0  0  0  0  0  0  0  0  0
   47.7674   34.0281   37.9834 C   0  0  0  0  0  0  0  0  0  0  0  0
   48.8542   33.6904   37.2144 C   0  0  0  0  0  0  0  0  0  0  0  0
   49.4546   32.4376   37.3022 C   0  0  0  0  0  0  0  0  0  0  0  0
   48.9020   31.5332   38.2121 C   0  0  0  0  0  0  0  0  0  0  0  0
   47.1658   30.7141   40.0405 S   0  0  0  0  0  0  0  0  0  0  0  0
   46.7955   29.4379   39.3048 O   0  0  0  0  0  0  0  0  0  0  0  0
   48.4089   30.2735   40.8917 O   0  0  0  0  0  0  0  0  0  0  0  0
   44.7397   32.9200   38.1296 H   0  0  0  0  0  0  0  0  0  0  0  0
   42.7510   33.6089   39.3593 H   0  0  0  0  0  0  0  0  0  0  0  0
   42.9928   34.6432   41.5660 H   0  0  0  0  0  0  0  0  0  0  0  0
   50.0661   36.6697   41.7739 H   0  0  0  0  0  0  0  0  0  0  0  0
   47.8506   36.3646   40.7354 H   0  0  0  0  0  0  0  0  0  0  0  0
   49.7166   32.7254   43.3147 H   0  0  0  0  0  0  0  0  0  0  0  0
   47.3406   35.0193   37.8724 H   0  0  0  0  0  0  0  0  0  0  0  0
   49.2624   34.3923   36.5270 H   0  0  0  0  0  0  0  0  0  0  0  0
   50.2983   32.1018   36.7399 H   0  0  0  0  0  0  0  0  0  0  0  0
   49.3531   30.5393   38.3038 H   0  0  0  0  0  0  0  0  0  0  0  0
   46.0566   32.9705   41.9911 F   0  0  0  0  0  0  0  0  0  0  0  0
   45.3295   31.8303   41.9725 C   0  0  0  0  0  0  0  0  0  0  0  0
   45.9322   30.8811   41.1798 C   0  0  0  0  0  0  0  0  0  0  0  0
   45.1578   29.6892   41.3936 C   0  0  0  0  0  0  0  0  0  0  0  0
   45.4409   28.7499   40.8622 H   0  0  0  0  0  0  0  0  0  0  0  0
   44.0316   29.4661   42.2026 C   0  0  0  0  0  0  0  0  0  0  0  0
   43.5572   28.5094   42.2583 H   0  0  0  0  0  0  0  0  0  0  0  0
   43.6209   30.5799   42.8926 C   0  0  0  0  0  0  0  0  0  0  0  0
   44.2523   31.7969   42.8032 C   0  0  0  0  0  0  0  0  0  0  0  0
   42.7601   30.4806   43.5304 H   0  0  0  0  0  0  0  0  0  0  0  0
   43.9582   32.6901   43.3287 H   0  0  0  0  0  0  0  0  0  0  0  0
  2  1  1  0
  3 10  1  0
  3  2  2  0
  4  3  1  0
  5  4  2  0
  5  6  1  0
  6  7  2  0
  7  2  1  0
  8 13  2  0
  9 10  2  0
  9  8  1  0
 10 11  1  0
 11 12  2  0
 13 12  1  0
 14 20  1  0
 15 14  1  0
 15  4  1  0
 16 15  2  0
 17 18  2  0
 17 16  1  0
 18 19  1  0
 19 14  2  0
 20 22  2  0
 21 20  2  0
  5 23  1  0
  6 24  1  0
  7 25  1  0
  8 26  1  0
  9 27  1  0
 12 28  1  0
 16 29  1  0
 17 30  1  0
 18 31  1  0
 19 32  1  0
 33 34  1  0
 34 35  2  0
 35 36  1  0
 36 37  1  0
 36 38  2  0
 38 39  1  0
 38 40  1  0
 40 41  2  0
 41 34  1  0
 40 42  1  0
 41 43  1  0
 20 35  1  0
M  ISO  8  23  14  24  14  25  14  26  14  27  14  28  14  29  14  30  14
M  ISO  4  31  14  32  14  37  15  39  16
M  END
>  <DihAtoms>  (1) 
13,19,34,33

>  <DihDeg>  (1) 
-86.50219408383748

$$$$
