
     RDKit          3D

 47 50  0  0  1  0  0  0  0  0999 V2000
   46.2180   33.8150   43.1610 C   0  0  0  0  0  0  0  0  0  0  0  0
   47.5220   33.6330   43.2300 C   0  0  0  0  0  0  0  0  0  0  0  0
   47.9160   32.4790   43.8890 C   0  0  0  0  0  0  0  0  0  0  0  0
   46.9000   31.6450   44.4060 N   0  0  0  0  0  0  0  0  0  0  0  0
   45.6190   31.8970   44.3000 C   0  0  0  0  0  0  0  0  0  0  0  0
   45.2070   33.0440   43.6420 N   0  0  0  0  0  0  0  0  0  0  0  0
   48.5650   34.5360   42.8090 C   0  0  1  0  0  0  0  0  0  0  0  0
   49.8790   34.2600   42.6440 C   0  0  0  0  0  0  0  0  0  0  0  0
   49.1410   34.2500   41.3390 C   0  0  1  0  0  0  0  0  0  0  0  0
   48.7780   32.9940   40.7930 N   0  0  0  0  0  0  0  0  0  0  0  0
   51.0730   31.3020   40.9520 F   0  0  0  0  0  0  0  0  0  0  0  0
   50.5030   31.5670   39.7530 C   0  0  0  0  0  0  0  0  0  0  0  0
   49.3930   32.3820   39.6810 C   0  0  0  0  0  0  0  0  0  0  0  0
   48.9380   32.5440   38.3880 C   0  0  0  0  0  0  0  0  0  0  0  0
   49.4700   31.9940   37.2580 C   0  0  0  0  0  0  0  0  0  0  0  0
   50.5780   31.1950   37.4370 C   0  0  0  0  0  0  0  0  0  0  0  0
   51.1240   30.9590   38.6820 C   0  0  0  0  0  0  0  0  0  0  0  0
   45.5350   34.9320   42.4470 C   0  0  0  0  0  0  0  0  0  0  0  0
   45.1690   36.0590   42.3040 O   0  0  0  0  0  0  0  0  0  0  0  0
   42.5000   35.2330   41.9090 Cl  0  0  0  0  0  0  0  0  0  0  0  0
   43.5890   34.4280   40.7920 C   0  0  0  0  0  0  0  0  0  0  0  0
   44.9550   34.3780   41.1650 C   0  0  0  0  0  0  0  0  0  0  0  0
   45.6900   33.7360   40.2060 C   0  0  0  0  0  0  0  0  0  0  0  0
   45.3320   33.1920   39.0630 C   0  0  0  0  0  0  0  0  0  0  0  0
   43.9870   33.2680   38.7490 C   0  0  0  0  0  0  0  0  0  0  0  0
   43.1250   33.8750   39.5950 C   0  0  0  0  0  0  0  0  0  0  0  0
   41.8180   33.8930   39.1810 O   0  0  0  0  0  0  0  0  0  0  0  0
   39.8010   34.5060   37.6220 O   0  0  0  0  0  0  0  0  0  0  0  0
   40.9440   35.1060   38.3940 P   0  0  0  0  0  0  0  0  0  0  0  0
   40.3810   36.2110   39.5480 O   0  0  0  0  0  0  0  0  0  0  0  0
   41.9300   35.9950   37.3410 O   0  0  0  0  0  0  0  0  0  0  0  0
   48.9794   32.2225   44.0049 H   0  0  0  0  0  0  0  0  0  0  0  0
   44.8788   31.2055   44.7287 H   0  0  0  0  0  0  0  0  0  0  0  0
   48.0857   35.3318   43.3980 H   0  0  0  0  0  0  0  0  0  0  0  0
   50.6114   35.0599   42.8277 H   0  0  0  0  0  0  0  0  0  0  0  0
   50.5278   33.5081   43.1169 H   0  0  0  0  0  0  0  0  0  0  0  0
   49.2270   34.7410   40.3584 H   0  0  0  0  0  0  0  0  0  0  0  0
   48.0030   32.4873   41.2442 H   0  0  0  0  0  0  0  0  0  0  0  0
   48.0533   33.1839   38.2543 H   0  0  0  0  0  0  0  0  0  0  0  0
   49.0394   32.1778   36.2626 H   0  0  0  0  0  0  0  0  0  0  0  0
   51.0438   30.7288   36.5563 H   0  0  0  0  0  0  0  0  0  0  0  0
   52.0089   30.3190   38.8136 H   0  0  0  0  0  0  0  0  0  0  0  0
   46.7646   33.6621   40.4290 H   0  0  0  0  0  0  0  0  0  0  0  0
   46.0592   32.7054   38.3964 H   0  0  0  0  0  0  0  0  0  0  0  0
   43.6179   32.8333   37.8083 H   0  0  0  0  0  0  0  0  0  0  0  0
   40.5600   35.8597   40.4561 H   0  0  0  0  0  0  0  0  0  0  0  0
   42.5528   36.5565   37.8672 H   0  0  0  0  0  0  0  0  0  0  0  0
  1  2  1  0
  1  6  2  0
  2  3  2  0
  3  4  1  0
  5  4  2  0
  6  5  1  0
  7  2  1  0
  8  7  1  0
  9  8  1  0
  9  7  1  0
 10  9  1  0
 12 11  1  0
 13 12  2  0
 13 10  1  0
 14 13  1  0
 15 16  1  0
 15 14  2  0
 16 17  2  0
 17 12  1  0
 18  1  1  0
 19 18  2  0
 21 22  2  0
 21 20  1  0
 22 18  1  0
 23 22  1  0
 24 23  2  0
 25 24  1  0
 25 26  2  0
 26 21  1  0
 27 26  1  0
 28 29  2  0
 29 27  1  0
 29 30  1  0
 31 29  1  0
  3 32  1  0
  5 33  1  0
  7 34  1  6
  8 35  1  0
  8 36  1  0
  9 37  1  6
 10 38  1  0
 14 39  1  0
 15 40  1  0
 16 41  1  0
 17 42  1  0
 23 43  1  0
 24 44  1  0
 25 45  1  0
 30 46  1  0
 31 47  1  0
M  ISO  8  32  14  33  14  34  13  35  13  36  13  37  13  39  14  40  14
M  ISO  7  41  14  42  14  43  14  44  14  45  14  46   3  47   3
M  END
>  <minimizedAffinity>  (1) 
-5.54211855

>  <minimizedRMSD>  (1) 
3.58584166

$$$$
