
     RDKit          3D

 34 37  0  0  0  0  0  0  0  0999 V2000
   48.1787   35.0546   41.9348 C   0  0  0  0  0  0  0  0  0  0  0  0
   47.0614   34.2616   42.0992 C   0  0  0  0  0  0  0  0  0  0  0  0
   46.5069   33.6704   40.9847 C   0  0  0  0  0  0  0  0  0  0  0  0
   47.0202   33.8379   39.7179 C   0  0  0  0  0  0  0  0  0  0  0  0
   46.6568   33.3712   38.5074 N   0  0  0  0  0  0  0  0  0  0  0  0
   47.5420   33.8678   37.5798 C   0  0  0  0  0  0  0  0  0  0  0  0
   48.4359   34.6324   38.2360 N   0  0  0  0  0  0  0  0  0  0  0  0
   48.1446   34.6346   39.5434 C   0  0  0  0  0  0  0  0  0  0  0  0
   48.7171   35.2393   40.6599 C   0  0  0  0  0  0  0  0  0  0  0  0
   45.1181   34.6117   45.3114 C   0  0  0  0  0  0  0  0  0  0  0  0
   45.5274   34.8640   43.9789 C   0  0  0  0  0  0  0  0  0  0  0  0
   46.5461   34.1064   43.4498 C   0  0  0  0  0  0  0  0  0  0  0  0
   47.1180   33.1490   44.2231 N   0  0  0  0  0  0  0  0  0  0  0  0
   46.7103   32.9244   45.4965 C   0  0  0  0  0  0  0  0  0  0  0  0
   45.7202   33.6534   46.0255 N   0  0  0  0  0  0  0  0  0  0  0  0
   44.0812   35.3935   45.8286 O   0  0  0  0  0  0  0  0  0  0  0  0
   48.6883   35.5639   42.7532 H   0  0  0  0  0  0  0  0  0  0  0  0
   45.6326   33.0611   41.1814 H   0  0  0  0  0  0  0  0  0  0  0  0
   45.8163   32.7371   38.4044 H   0  0  0  0  0  0  0  0  0  0  0  0
   47.3682   33.5708   36.5548 H   0  0  0  0  0  0  0  0  0  0  0  0
   49.5981   35.8591   40.4972 H   0  0  0  0  0  0  0  0  0  0  0  0
   45.0752   35.6301   43.3494 H   0  0  0  0  0  0  0  0  0  0  0  0
   47.1982   32.1534   46.0640 H   0  0  0  0  0  0  0  0  0  0  0  0
   44.3294   37.4341   47.5836 F   0  0  0  0  0  0  0  0  0  0  0  0
   43.8705   36.2113   47.9633 C   0  0  0  0  0  0  0  0  0  0  0  0
   43.7111   35.1134   47.1379 C   0  0  0  0  0  0  0  0  0  0  0  0
   43.2344   33.9217   47.6442 C   0  0  0  0  0  0  0  0  0  0  0  0
   43.1499   33.1315   46.9110 H   0  0  0  0  0  0  0  0  0  0  0  0
   42.9143   33.8243   48.9824 C   0  0  0  0  0  0  0  0  0  0  0  0
   42.5447   32.8751   49.3390 H   0  0  0  0  0  0  0  0  0  0  0  0
   43.0756   34.9241   49.8014 C   0  0  0  0  0  0  0  0  0  0  0  0
   43.5567   36.1479   49.3210 C   0  0  0  0  0  0  0  0  0  0  0  0
   42.8227   34.8556   50.8712 H   0  0  0  0  0  0  0  0  0  0  0  0
   43.6628   36.9767   50.0090 H   0  0  0  0  0  0  0  0  0  0  0  0
  1  2  2  0
  2 12  1  0
  3  2  1  0
  4  3  2  0
  5  4  1  0
  6  7  2  0
  6  5  1  0
  7  8  1  0
  8  4  1  0
  8  9  2  0
  9  1  1  0
 10 16  1  0
 10 15  1  0
 11 10  2  0
 12 11  1  0
 12 13  2  0
 13 14  1  0
 14 15  2  0
  1 17  1  0
  3 18  1  0
  5 19  1  0
  6 20  1  0
  9 21  1  0
 11 22  1  0
 14 23  1  0
 24 25  1  0
 25 26  2  0
 26 27  1  0
 27 28  1  0
 27 29  2  0
 29 30  1  0
 29 31  1  0
 31 32  2  0
 32 25  1  0
 31 33  1  0
 32 34  1  0
 16 26  1  0
M  ISO  8  17  14  18  14  19   9  20  14  21  14  22  14  23  14  28  15
M  ISO  1  30  16
M  END
>  <DihAtoms>  (1) 
9,15,25,24

>  <DihDeg>  (1) 
-60.001633485253976

$$$$
