
 OpenBabel03242510063D

 29 33  0  0  0  0  0  0  0  0999 V2000
   44.0350   34.6180   42.2800 C   0  0  0  0  0  0  0  0  0  0  0  0
   43.8590   35.7660   43.0720 C   0  0  0  0  0  3  0  0  0  0  0  0
   44.5010   35.9440   44.3050 C   0  0  0  0  0  3  0  0  0  0  0  0
   45.3120   34.9320   44.6940 N   0  0  0  0  0  0  0  0  0  0  0  0
   45.5000   33.8360   43.9690 C   0  0  0  0  0  0  0  0  0  0  0  0
   44.8730   33.7130   42.8150 N   0  0  0  0  0  0  0  0  0  0  0  0
   43.4750   34.2650   41.0390 C   0  0  0  0  0  0  0  0  0  0  0  0
   44.3220   33.5370   40.1770 C   0  0  0  0  0  3  0  0  0  0  0  0
   43.9600   33.0970   38.9150 C   0  0  0  0  0  3  0  0  0  0  0  0
   42.6720   33.3940   38.4640 C   0  0  0  0  0  3  0  0  0  0  0  0
   41.7960   34.1050   39.2630 C   0  0  0  0  0  0  0  0  0  0  0  0
   40.5330   34.4040   38.8390 C   0  0  0  0  0  3  0  0  0  0  0  0
   39.6340   35.1020   39.5890 C   0  0  0  0  0  3  0  0  0  0  0  0
   40.1020   35.4860   40.8150 C   0  0  0  0  0  3  0  0  0  0  0  0
   41.3590   35.1970   41.2590 C   0  0  0  0  0  3  0  0  0  0  0  0
   42.2490   34.4920   40.4870 C   0  0  0  0  0  0  0  0  0  0  0  0
   46.4060   32.8050   44.4940 C   0  0  0  0  0  0  0  0  0  0  0  0
   46.2540   32.3690   45.6770 O   0  0  0  0  0  0  0  0  0  0  0  0
   47.5080   32.1990   43.7690 C   0  0  0  0  0  0  0  0  0  0  0  0
   47.7080   30.8260   43.9480 C   0  0  0  0  0  3  0  0  0  0  0  0
   48.7530   30.1800   43.2660 C   0  0  0  0  0  3  0  0  0  0  0  0
   49.6040   30.8820   42.4080 C   0  0  0  0  0  3  0  0  0  0  0  0
   49.3890   32.2150   42.2490 C   0  0  0  0  0  3  0  0  0  0  0  0
   48.3630   32.8510   42.9200 C   0  0  0  0  0  0  0  0  0  0  0  0
   48.2110   34.3140   42.7070 C   0  0  0  0  0  3  0  0  0  0  0  0
   49.5800   35.0030   42.7220 C   0  0  0  0  0  2  0  0  0  0  0  0
   49.4130   36.1140   41.6740 C   0  0  0  0  0  2  0  0  0  0  0  0
   48.6860   35.3120   40.5980 C   0  0  0  0  0  2  0  0  0  0  0  0
   47.5960   34.6670   41.3970 C   0  0  0  0  0  2  0  0  0  0  0  0
  1  6  2  0  0  0  0
  1  2  1  0  0  0  0
  2  3  2  0  0  0  0
  3  4  1  0  0  0  0
  5 17  1  0  0  0  0
  5  4  2  0  0  0  0
  6  5  1  0  0  0  0
  7  1  1  0  0  0  0
  8  7  2  0  0  0  0
  9  8  1  0  0  0  0
 10  9  2  0  0  0  0
 10 11  1  0  0  0  0
 11 16  1  0  0  0  0
 12 11  2  0  0  0  0
 12 13  1  0  0  0  0
 13 14  2  0  0  0  0
 14 15  1  0  0  0  0
 16  7  1  0  0  0  0
 16 15  2  0  0  0  0
 17 18  2  0  0  0  0
 19 20  1  0  0  0  0
 19 17  1  0  0  0  0
 21 20  2  0  0  0  0
 22 21  1  0  0  0  0
 23 22  2  0  0  0  0
 23 24  1  0  0  0  0
 24 19  2  0  0  0  0
 25 26  1  0  0  0  0
 25 24  1  0  0  0  0
 27 26  1  0  0  0  0
 28 29  1  0  0  0  0
 28 27  1  0  0  0  0
 29 25  1  0  0  0  0
M  END
>  <minimizedAffinity>
-7.51230717

$$$$

 OpenBabel03242510063D

 29 33  0  0  0  0  0  0  0  0999 V2000
   44.0350   33.7100   39.3640 C   0  0  0  0  0  0  0  0  0  0  0  0
   44.8680   33.0330   38.4560 C   0  0  0  0  0  3  0  0  0  0  0  0
   46.2430   32.8690   38.6630 C   0  0  0  0  0  3  0  0  0  0  0  0
   46.7320   33.4100   39.8060 N   0  0  0  0  0  0  0  0  0  0  0  0
   45.9730   34.0540   40.6830 C   0  0  0  0  0  0  0  0  0  0  0  0
   44.6820   34.1840   40.4430 N   0  0  0  0  0  0  0  0  0  0  0  0
   42.6550   33.9770   39.3190 C   0  0  0  0  0  0  0  0  0  0  0  0
   42.2580   34.9650   38.3940 C   0  0  0  0  0  3  0  0  0  0  0  0
   40.9490   35.3710   38.1980 C   0  0  0  0  0  3  0  0  0  0  0  0
   39.9540   34.7640   38.9670 C   0  0  0  0  0  3  0  0  0  0  0  0
   40.2810   33.7890   39.8920 C   0  0  0  0  0  0  0  0  0  0  0  0
   39.3220   33.1850   40.6540 C   0  0  0  0  0  3  0  0  0  0  0  0
   39.5930   32.2210   41.5770 C   0  0  0  0  0  3  0  0  0  0  0  0
   40.9190   31.9020   41.6850 C   0  0  0  0  0  3  0  0  0  0  0  0
   41.8920   32.4920   40.9340 C   0  0  0  0  0  3  0  0  0  0  0  0
   41.5970   33.4620   40.0080 C   0  0  0  0  0  0  0  0  0  0  0  0
   46.6140   34.5970   41.8880 C   0  0  0  0  0  0  0  0  0  0  0  0
   47.8370   34.9420   41.8560 O   0  0  0  0  0  0  0  0  0  0  0  0
   45.9700   34.7940   43.1740 C   0  0  0  0  0  0  0  0  0  0  0  0
   45.2890   36.0010   43.3650 C   0  0  0  0  0  3  0  0  0  0  0  0
   44.6370   36.2470   44.5860 C   0  0  0  0  0  3  0  0  0  0  0  0
   44.6540   35.3070   45.6200 C   0  0  0  0  0  3  0  0  0  0  0  0
   45.3210   34.1410   45.4100 C   0  0  0  0  0  3  0  0  0  0  0  0
   45.9630   33.8990   44.2110 C   0  0  0  0  0  0  0  0  0  0  0  0
   46.6880   32.6090   44.0720 C   0  0  0  0  0  3  0  0  0  0  0  0
   47.0680   32.0560   45.4510 C   0  0  0  0  0  2  0  0  0  0  0  0
   46.9170   30.5400   45.2620 C   0  0  0  0  0  2  0  0  0  0  0  0
   45.6010   30.5310   44.4890 C   0  0  0  0  0  2  0  0  0  0  0  0
   45.8830   31.5400   43.4170 C   0  0  0  0  0  2  0  0  0  0  0  0
  1  6  1  0  0  0  0
  2  3  1  0  0  0  0
  2  1  2  0  0  0  0
  3  4  2  0  0  0  0
  4  5  1  0  0  0  0
  5 17  1  0  0  0  0
  6  5  2  0  0  0  0
  7  1  1  0  0  0  0
  7 16  1  0  0  0  0
  8  7  2  0  0  0  0
  9  8  1  0  0  0  0
  9 10  2  0  0  0  0
 10 11  1  0  0  0  0
 11 16  2  0  0  0  0
 11 12  1  0  0  0  0
 12 13  2  0  0  0  0
 13 14  1  0  0  0  0
 15 14  2  0  0  0  0
 16 15  1  0  0  0  0
 17 19  1  0  0  0  0
 18 17  2  0  0  0  0
 19 20  2  0  0  0  0
 19 24  1  0  0  0  0
 20 21  1  0  0  0  0
 21 22  2  0  0  0  0
 23 22  1  0  0  0  0
 24 23  2  0  0  0  0
 25 24  1  0  0  0  0
 25 26  1  0  0  0  0
 27 26  1  0  0  0  0
 28 27  1  0  0  0  0
 29 25  1  0  0  0  0
 29 28  1  0  0  0  0
M  END
>  <minimizedAffinity>
-7.14221859

$$$$

 OpenBabel03242510063D

 29 33  0  0  0  0  0  0  0  0999 V2000
   44.6180   34.4290   41.6240 C   0  0  0  0  0  0  0  0  0  0  0  0
   44.4060   34.5470   43.0090 C   0  0  0  0  0  3  0  0  0  0  0  0
   45.4480   34.7490   43.9230 C   0  0  0  0  0  3  0  0  0  0  0  0
   46.6900   34.8240   43.3880 N   0  0  0  0  0  0  0  0  0  0  0  0
   46.9250   34.7160   42.0860 C   0  0  0  0  0  0  0  0  0  0  0  0
   45.9100   34.5260   41.2640 N   0  0  0  0  0  0  0  0  0  0  0  0
   43.7100   34.2170   40.5710 C   0  0  0  0  0  0  0  0  0  0  0  0
   44.1670   33.3730   39.5380 C   0  0  0  0  0  3  0  0  0  0  0  0
   43.4250   33.0410   38.4160 C   0  0  0  0  0  3  0  0  0  0  0  0
   42.1420   33.5760   38.2990 C   0  0  0  0  0  3  0  0  0  0  0  0
   41.6380   34.4100   39.2800 C   0  0  0  0  0  0  0  0  0  0  0  0
   40.3850   34.9440   39.1820 C   0  0  0  0  0  3  0  0  0  0  0  0
   39.8450   35.7710   40.1210 C   0  0  0  0  0  3  0  0  0  0  0  0
   40.6680   36.0300   41.1820 C   0  0  0  0  0  3  0  0  0  0  0  0
   41.9220   35.5080   41.3000 C   0  0  0  0  0  3  0  0  0  0  0  0
   42.4470   34.6760   40.3430 C   0  0  0  0  0  0  0  0  0  0  0  0
   48.3150   34.8150   41.6210 C   0  0  0  0  0  0  0  0  0  0  0  0
   48.8570   35.9560   41.4810 O   0  0  0  0  0  0  0  0  0  0  0  0
   49.1780   33.6970   41.2910 C   0  0  0  0  0  0  0  0  0  0  0  0
   50.2670   33.4630   42.1370 C   0  0  0  0  0  3  0  0  0  0  0  0
   51.1350   32.3890   41.8760 C   0  0  0  0  0  3  0  0  0  0  0  0
   50.9340   31.5430   40.7820 C   0  0  0  0  0  3  0  0  0  0  0  0
   49.8670   31.7890   39.9740 C   0  0  0  0  0  3  0  0  0  0  0  0
   49.0150   32.8450   40.2300 C   0  0  0  0  0  0  0  0  0  0  0  0
   47.8880   33.0580   39.2850 C   0  0  0  0  0  3  0  0  0  0  0  0
   48.2900   34.0440   38.1830 C   0  0  0  0  0  2  0  0  0  0  0  0
   47.5580   33.4930   36.9500 C   0  0  0  0  0  2  0  0  0  0  0  0
   47.8530   32.0090   37.1480 C   0  0  0  0  0  2  0  0  0  0  0  0
   47.4580   31.8180   38.5800 C   0  0  0  0  0  2  0  0  0  0  0  0
  1  2  1  0  0  0  0
  2  3  2  0  0  0  0
  4  3  1  0  0  0  0
  5  4  2  0  0  0  0
  6  1  2  0  0  0  0
  6  5  1  0  0  0  0
  7  1  1  0  0  0  0
  8  7  2  0  0  0  0
  9  8  1  0  0  0  0
 10  9  2  0  0  0  0
 10 11  1  0  0  0  0
 11 16  1  0  0  0  0
 12 11  2  0  0  0  0
 12 13  1  0  0  0  0
 13 14  2  0  0  0  0
 14 15  1  0  0  0  0
 16  7  1  0  0  0  0
 16 15  2  0  0  0  0
 17  5  1  0  0  0  0
 18 17  2  0  0  0  0
 19 17  1  0  0  0  0
 19 20  1  0  0  0  0
 21 20  2  0  0  0  0
 22 21  1  0  0  0  0
 23 24  1  0  0  0  0
 23 22  2  0  0  0  0
 24 19  2  0  0  0  0
 25 24  1  0  0  0  0
 26 25  1  0  0  0  0
 27 28  1  0  0  0  0
 27 26  1  0  0  0  0
 28 29  1  0  0  0  0
 29 25  1  0  0  0  0
M  END
>  <minimizedAffinity>
-6.97759676

$$$$

 OpenBabel03242510063D

 29 33  0  0  0  0  0  0  0  0999 V2000
   46.6340   34.4100   41.7950 C   0  0  0  0  0  0  0  0  0  0  0  0
   47.9010   34.7780   41.3110 C   0  0  0  0  0  3  0  0  0  0  0  0
   48.3110   34.5380   39.9930 C   0  0  0  0  0  3  0  0  0  0  0  0
   47.4010   33.9210   39.2000 N   0  0  0  0  0  0  0  0  0  0  0  0
   46.1970   33.5610   39.6260 C   0  0  0  0  0  0  0  0  0  0  0  0
   45.8570   33.8080   40.8770 N   0  0  0  0  0  0  0  0  0  0  0  0
   46.0600   34.5590   43.0700 C   0  0  0  0  0  0  0  0  0  0  0  0
   45.2140   35.6770   43.2260 C   0  0  0  0  0  3  0  0  0  0  0  0
   44.5550   36.0000   44.4010 C   0  0  0  0  0  3  0  0  0  0  0  0
   44.7390   35.1640   45.5040 C   0  0  0  0  0  3  0  0  0  0  0  0
   45.5570   34.0530   45.4120 C   0  0  0  0  0  0  0  0  0  0  0  0
   45.7500   33.2240   46.4810 C   0  0  0  0  0  3  0  0  0  0  0  0
   46.5450   32.1190   46.4410 C   0  0  0  0  0  3  0  0  0  0  0  0
   47.1440   31.9010   45.2310 C   0  0  0  0  0  3  0  0  0  0  0  0
   46.9660   32.7140   44.1520 C   0  0  0  0  0  3  0  0  0  0  0  0
   46.1590   33.8240   44.2130 C   0  0  0  0  0  0  0  0  0  0  0  0
   45.2940   32.8990   38.6740 C   0  0  0  0  0  0  0  0  0  0  0  0
   45.5420   32.9430   37.4290 O   0  0  0  0  0  0  0  0  0  0  0  0
   44.0930   32.1630   39.0200 C   0  0  0  0  0  0  0  0  0  0  0  0
   44.2240   30.7820   39.2030 C   0  0  0  0  0  3  0  0  0  0  0  0
   43.0980   30.0150   39.5480 C   0  0  0  0  0  3  0  0  0  0  0  0
   41.8410   30.6030   39.7140 C   0  0  0  0  0  3  0  0  0  0  0  0
   41.7390   31.9470   39.5330 C   0  0  0  0  0  3  0  0  0  0  0  0
   42.8440   32.7020   39.1920 C   0  0  0  0  0  0  0  0  0  0  0  0
   42.6410   34.1600   38.9910 C   0  0  0  0  0  3  0  0  0  0  0  0
   41.2740   34.4270   38.3500 C   0  0  0  0  0  2  0  0  0  0  0  0
   40.8400   35.7430   39.0130 C   0  0  0  0  0  2  0  0  0  0  0  0
   41.2480   35.4260   40.4490 C   0  0  0  0  0  2  0  0  0  0  0  0
   42.6530   34.9450   40.2570 C   0  0  0  0  0  2  0  0  0  0  0  0
  1  7  1  0  0  0  0
  2  1  1  0  0  0  0
  3  2  2  0  0  0  0
  4  5  2  0  0  0  0
  4  3  1  0  0  0  0
  5  6  1  0  0  0  0
  6  1  2  0  0  0  0
  7  8  2  0  0  0  0
  7 16  1  0  0  0  0
  8  9  1  0  0  0  0
  9 10  2  0  0  0  0
 11 10  1  0  0  0  0
 11 12  1  0  0  0  0
 13 12  2  0  0  0  0
 14 13  1  0  0  0  0
 15 16  1  0  0  0  0
 15 14  2  0  0  0  0
 16 11  2  0  0  0  0
 17 19  1  0  0  0  0
 17  5  1  0  0  0  0
 18 17  2  0  0  0  0
 19 24  2  0  0  0  0
 19 20  1  0  0  0  0
 20 21  2  0  0  0  0
 21 22  1  0  0  0  0
 23 22  2  0  0  0  0
 24 23  1  0  0  0  0
 25 24  1  0  0  0  0
 25 29  1  0  0  0  0
 26 25  1  0  0  0  0
 26 27  1  0  0  0  0
 27 28  1  0  0  0  0
 29 28  1  0  0  0  0
M  END
>  <minimizedAffinity>
-6.93571615

$$$$

 OpenBabel03242510063D

 29 33  0  0  0  0  0  0  0  0999 V2000
   46.8690   32.8210   38.9300 C   0  0  0  0  0  0  0  0  0  0  0  0
   46.9040   33.1420   37.5610 C   0  0  0  0  0  3  0  0  0  0  0  0
   45.7470   33.3230   36.7930 C   0  0  0  0  0  3  0  0  0  0  0  0
   44.5750   33.1690   37.4540 N   0  0  0  0  0  0  0  0  0  0  0  0
   44.5070   32.8660   38.7450 C   0  0  0  0  0  0  0  0  0  0  0  0
   45.6250   32.7050   39.4260 N   0  0  0  0  0  0  0  0  0  0  0  0
   47.9110   32.5960   39.8470 C   0  0  0  0  0  0  0  0  0  0  0  0
   48.3650   31.2630   39.9320 C   0  0  0  0  0  3  0  0  0  0  0  0
   49.3800   30.8360   40.7720 C   0  0  0  0  0  3  0  0  0  0  0  0
   49.9950   31.7860   41.5890 C   0  0  0  0  0  3  0  0  0  0  0  0
   49.5940   33.1080   41.5500 C   0  0  0  0  0  0  0  0  0  0  0  0
   50.1840   34.0520   42.3430 C   0  0  0  0  0  3  0  0  0  0  0  0
   49.8240   35.3660   42.3410 C   0  0  0  0  0  3  0  0  0  0  0  0
   48.8110   35.6710   41.4740 C   0  0  0  0  0  3  0  0  0  0  0  0
   48.2090   34.7450   40.6740 C   0  0  0  0  0  3  0  0  0  0  0  0
   48.5870   33.4260   40.6910 C   0  0  0  0  0  0  0  0  0  0  0  0
   43.1780   32.7260   39.3550 C   0  0  0  0  0  0  0  0  0  0  0  0
   42.6030   31.5920   39.3690 O   0  0  0  0  0  0  0  0  0  0  0  0
   42.4150   33.7920   39.9760 C   0  0  0  0  0  0  0  0  0  0  0  0
   41.1080   33.9890   39.5160 C   0  0  0  0  0  3  0  0  0  0  0  0
   40.3150   35.0010   40.0860 C   0  0  0  0  0  3  0  0  0  0  0  0
   40.8060   35.8200   41.1060 C   0  0  0  0  0  3  0  0  0  0  0  0
   42.0780   35.6080   41.5360 C   0  0  0  0  0  3  0  0  0  0  0  0
   42.8580   34.6150   40.9770 C   0  0  0  0  0  0  0  0  0  0  0  0
   44.2450   34.4650   41.4900 C   0  0  0  0  0  3  0  0  0  0  0  0
   44.7730   35.8070   42.0100 C   0  0  0  0  0  2  0  0  0  0  0  0
   45.6340   35.3920   43.2110 C   0  0  0  0  0  2  0  0  0  0  0  0
   44.6930   34.3600   43.8260 C   0  0  0  0  0  2  0  0  0  0  0  0
   44.3590   33.5170   42.6340 C   0  0  0  0  0  2  0  0  0  0  0  0
  1  6  1  0  0  0  0
  1  7  1  0  0  0  0
  2  1  2  0  0  0  0
  3  4  2  0  0  0  0
  3  2  1  0  0  0  0
  4  5  1  0  0  0  0
  5 17  1  0  0  0  0
  5  6  2  0  0  0  0
  7  8  2  0  0  0  0
  7 16  1  0  0  0  0
  8  9  1  0  0  0  0
  9 10  2  0  0  0  0
 11 10  1  0  0  0  0
 11 12  1  0  0  0  0
 13 12  2  0  0  0  0
 14 13  1  0  0  0  0
 15 16  1  0  0  0  0
 15 14  2  0  0  0  0
 16 11  2  0  0  0  0
 17 18  2  0  0  0  0
 17 19  1  0  0  0  0
 19 24  1  0  0  0  0
 20 19  2  0  0  0  0
 20 21  1  0  0  0  0
 21 22  2  0  0  0  0
 22 23  1  0  0  0  0
 24 25  1  0  0  0  0
 24 23  2  0  0  0  0
 25 26  1  0  0  0  0
 25 29  1  0  0  0  0
 26 27  1  0  0  0  0
 27 28  1  0  0  0  0
 29 28  1  0  0  0  0
M  END
>  <minimizedAffinity>
-6.83312654

$$$$

 OpenBabel03242510063D

 29 33  0  0  0  0  0  0  0  0999 V2000
   44.7970   33.1570   39.2850 C   0  0  0  0  0  0  0  0  0  0  0  0
   45.7650   32.9680   38.2830 C   0  0  0  0  0  3  0  0  0  0  0  0
   47.1010   33.3630   38.4340 C   0  0  0  0  0  3  0  0  0  0  0  0
   47.4100   33.9450   39.6170 N   0  0  0  0  0  0  0  0  0  0  0  0
   46.5200   34.1370   40.5830 C   0  0  0  0  0  0  0  0  0  0  0  0
   45.2730   33.7490   40.3940 N   0  0  0  0  0  0  0  0  0  0  0  0
   43.4270   32.8380   39.3080 C   0  0  0  0  0  0  0  0  0  0  0  0
   43.1110   31.5590   39.8110 C   0  0  0  0  0  3  0  0  0  0  0  0
   41.8240   31.0570   39.9170 C   0  0  0  0  0  3  0  0  0  0  0  0
   40.7700   31.8700   39.4970 C   0  0  0  0  0  3  0  0  0  0  0  0
   41.0160   33.1340   38.9940 C   0  0  0  0  0  0  0  0  0  0  0  0
   39.9980   33.9430   38.5790 C   0  0  0  0  0  3  0  0  0  0  0  0
   40.1900   35.1950   38.0760 C   0  0  0  0  0  3  0  0  0  0  0  0
   41.4990   35.5830   38.0180 C   0  0  0  0  0  3  0  0  0  0  0  0
   42.5320   34.7920   38.4280 C   0  0  0  0  0  3  0  0  0  0  0  0
   42.3160   33.5340   38.9320 C   0  0  0  0  0  0  0  0  0  0  0  0
   46.9710   34.7780   41.8250 C   0  0  0  0  0  0  0  0  0  0  0  0
   48.1440   35.2630   41.8990 O   0  0  0  0  0  0  0  0  0  0  0  0
   46.1840   34.9270   43.0350 C   0  0  0  0  0  0  0  0  0  0  0  0
   45.4460   36.1070   43.1720 C   0  0  0  0  0  3  0  0  0  0  0  0
   44.6560   36.3060   44.3180 C   0  0  0  0  0  3  0  0  0  0  0  0
   44.5920   35.3450   45.3310 C   0  0  0  0  0  3  0  0  0  0  0  0
   45.3180   34.2060   45.1740 C   0  0  0  0  0  3  0  0  0  0  0  0
   46.0940   34.0100   44.0500 C   0  0  0  0  0  0  0  0  0  0  0  0
   46.8730   32.7470   43.9680 C   0  0  0  0  0  3  0  0  0  0  0  0
   47.1540   32.1990   45.3720 C   0  0  0  0  0  2  0  0  0  0  0  0
   47.0730   30.6790   45.1660 C   0  0  0  0  0  2  0  0  0  0  0  0
   45.8300   30.6300   44.2820 C   0  0  0  0  0  2  0  0  0  0  0  0
   46.1660   31.6550   43.2430 C   0  0  0  0  0  2  0  0  0  0  0  0
  1  7  1  0  0  0  0
  1  6  1  0  0  0  0
  2  3  1  0  0  0  0
  2  1  2  0  0  0  0
  3  4  2  0  0  0  0
  4  5  1  0  0  0  0
  5 17  1  0  0  0  0
  6  5  2  0  0  0  0
  7  8  1  0  0  0  0
  8  9  2  0  0  0  0
 10  9  1  0  0  0  0
 11 10  2  0  0  0  0
 12 11  1  0  0  0  0
 13 12  2  0  0  0  0
 14 13  1  0  0  0  0
 14 15  2  0  0  0  0
 15 16  1  0  0  0  0
 16 11  1  0  0  0  0
 16  7  2  0  0  0  0
 17 18  2  0  0  0  0
 17 19  1  0  0  0  0
 19 20  2  0  0  0  0
 19 24  1  0  0  0  0
 20 21  1  0  0  0  0
 21 22  2  0  0  0  0
 23 22  1  0  0  0  0
 24 23  2  0  0  0  0
 25 24  1  0  0  0  0
 25 26  1  0  0  0  0
 27 26  1  0  0  0  0
 28 27  1  0  0  0  0
 29 25  1  0  0  0  0
 29 28  1  0  0  0  0
M  END
>  <minimizedAffinity>
-6.77773857

$$$$

 OpenBabel03242510063D

 29 33  0  0  0  0  0  0  0  0999 V2000
   45.9410   33.9950   41.5970 C   0  0  0  0  0  0  0  0  0  0  0  0
   47.1830   33.9600   40.9390 C   0  0  0  0  0  3  0  0  0  0  0  0
   47.3120   33.6610   39.5760 C   0  0  0  0  0  3  0  0  0  0  0  0
   46.1550   33.4020   38.9210 N   0  0  0  0  0  0  0  0  0  0  0  0
   44.9670   33.4270   39.5130 C   0  0  0  0  0  0  0  0  0  0  0  0
   44.8960   33.7140   40.7990 N   0  0  0  0  0  0  0  0  0  0  0  0
   45.6230   34.2620   42.9410 C   0  0  0  0  0  0  0  0  0  0  0  0
   44.8920   35.4470   43.1660 C   0  0  0  0  0  3  0  0  0  0  0  0
   44.4820   35.8880   44.4140 C   0  0  0  0  0  3  0  0  0  0  0  0
   44.8140   35.1080   45.5230 C   0  0  0  0  0  3  0  0  0  0  0  0
   45.5300   33.9350   45.3660 C   0  0  0  0  0  0  0  0  0  0  0  0
   45.8640   33.1600   46.4400 C   0  0  0  0  0  3  0  0  0  0  0  0
   46.5680   31.9980   46.3370 C   0  0  0  0  0  3  0  0  0  0  0  0
   46.9190   31.6640   45.0590 C   0  0  0  0  0  3  0  0  0  0  0  0
   46.5960   32.4230   43.9730 C   0  0  0  0  0  3  0  0  0  0  0  0
   45.8850   33.5910   44.0980 C   0  0  0  0  0  0  0  0  0  0  0  0
   43.7800   33.1320   38.7000 C   0  0  0  0  0  0  0  0  0  0  0  0
   43.8640   32.3170   37.7280 O   0  0  0  0  0  0  0  0  0  0  0  0
   42.4570   33.6950   38.8970 C   0  0  0  0  0  0  0  0  0  0  0  0
   42.2050   34.9440   38.3200 C   0  0  0  0  0  3  0  0  0  0  0  0
   40.9400   35.5370   38.4690 C   0  0  0  0  0  3  0  0  0  0  0  0
   39.9200   34.9040   39.1850 C   0  0  0  0  0  3  0  0  0  0  0  0
   40.1890   33.6890   39.7360 C   0  0  0  0  0  3  0  0  0  0  0  0
   41.4330   33.1070   39.5910 C   0  0  0  0  0  0  0  0  0  0  0  0
   41.6500   31.7890   40.2430 C   0  0  0  0  0  3  0  0  0  0  0  0
   41.9520   31.9720   41.7350 C   0  0  0  0  0  2  0  0  0  0  0  0
   41.2680   30.7530   42.3720 C   0  0  0  0  0  2  0  0  0  0  0  0
   39.9610   30.7820   41.5860 C   0  0  0  0  0  2  0  0  0  0  0  0
   40.4650   30.8890   40.1790 C   0  0  0  0  0  2  0  0  0  0  0  0
  1  7  1  0  0  0  0
  2  1  1  0  0  0  0
  3  2  2  0  0  0  0
  4  5  2  0  0  0  0
  4  3  1  0  0  0  0
  5  6  1  0  0  0  0
  6  1  2  0  0  0  0
  7  8  2  0  0  0  0
  7 16  1  0  0  0  0
  8  9  1  0  0  0  0
  9 10  2  0  0  0  0
 11 10  1  0  0  0  0
 11 12  1  0  0  0  0
 13 12  2  0  0  0  0
 14 13  1  0  0  0  0
 15 16  1  0  0  0  0
 15 14  2  0  0  0  0
 16 11  2  0  0  0  0
 17 19  1  0  0  0  0
 17  5  1  0  0  0  0
 18 17  2  0  0  0  0
 19 24  1  0  0  0  0
 20 21  1  0  0  0  0
 20 19  2  0  0  0  0
 21 22  2  0  0  0  0
 22 23  1  0  0  0  0
 24 23  2  0  0  0  0
 24 25  1  0  0  0  0
 25 26  1  0  0  0  0
 26 27  1  0  0  0  0
 28 27  1  0  0  0  0
 29 25  1  0  0  0  0
 29 28  1  0  0  0  0
M  END
>  <minimizedAffinity>
-6.76172066

$$$$

 OpenBabel03242510063D

 29 33  0  0  0  0  0  0  0  0999 V2000
   46.1400   34.5890   43.4900 C   0  0  0  0  0  0  0  0  0  0  0  0
   45.1360   35.4390   43.9870 C   0  0  0  0  0  3  0  0  0  0  0  0
   44.6100   35.3190   45.2800 C   0  0  0  0  0  3  0  0  0  0  0  0
   45.1310   34.3210   46.0340 N   0  0  0  0  0  0  0  0  0  0  0  0
   46.0790   33.5020   45.5950 C   0  0  0  0  0  0  0  0  0  0  0  0
   46.5430   33.6550   44.3690 N   0  0  0  0  0  0  0  0  0  0  0  0
   46.7730   34.5530   42.2350 C   0  0  0  0  0  0  0  0  0  0  0  0
   47.9410   35.3370   42.1230 C   0  0  0  0  0  3  0  0  0  0  0  0
   48.7080   35.4370   40.9740 C   0  0  0  0  0  3  0  0  0  0  0  0
   48.2990   34.7150   39.8510 C   0  0  0  0  0  3  0  0  0  0  0  0
   47.1620   33.9290   39.8990 C   0  0  0  0  0  0  0  0  0  0  0  0
   46.7460   33.2170   38.8100 C   0  0  0  0  0  3  0  0  0  0  0  0
   45.6340   32.4300   38.8080 C   0  0  0  0  0  3  0  0  0  0  0  0
   44.9560   32.4090   39.9950 C   0  0  0  0  0  3  0  0  0  0  0  0
   45.3540   33.1120   41.0940 C   0  0  0  0  0  3  0  0  0  0  0  0
   46.4780   33.8990   41.0760 C   0  0  0  0  0  0  0  0  0  0  0  0
   46.5690   32.4580   46.5040 C   0  0  0  0  0  0  0  0  0  0  0  0
   47.3640   32.7600   47.4490 O   0  0  0  0  0  0  0  0  0  0  0  0
   46.2240   31.0500   46.4400 C   0  0  0  0  0  0  0  0  0  0  0  0
   45.2350   30.5970   47.3190 C   0  0  0  0  0  3  0  0  0  0  0  0
   44.8500   29.2450   47.2970 C   0  0  0  0  0  3  0  0  0  0  0  0
   45.4380   28.3370   46.4130 C   0  0  0  0  0  3  0  0  0  0  0  0
   46.3970   28.8010   45.5670 C   0  0  0  0  0  3  0  0  0  0  0  0
   46.7760   30.1290   45.5880 C   0  0  0  0  0  0  0  0  0  0  0  0
   47.8460   30.5490   44.6460 C   0  0  0  0  0  3  0  0  0  0  0  0
   49.0050   29.5450   44.6690 C   0  0  0  0  0  2  0  0  0  0  0  0
   49.4720   29.5330   43.2070 C   0  0  0  0  0  2  0  0  0  0  0  0
   48.1070   29.4990   42.5260 C   0  0  0  0  0  2  0  0  0  0  0  0
   47.3990   30.6170   43.2270 C   0  0  0  0  0  2  0  0  0  0  0  0
  1  2  2  0  0  0  0
  1  6  1  0  0  0  0
  2  3  1  0  0  0  0
  3  4  2  0  0  0  0
  5  4  1  0  0  0  0
  5 17  1  0  0  0  0
  6  5  2  0  0  0  0
  7  1  1  0  0  0  0
  8  7  1  0  0  0  0
  9  8  2  0  0  0  0
 10 11  2  0  0  0  0
 10  9  1  0  0  0  0
 11 16  1  0  0  0  0
 12 11  1  0  0  0  0
 13 12  2  0  0  0  0
 13 14  1  0  0  0  0
 14 15  2  0  0  0  0
 16 15  1  0  0  0  0
 16  7  2  0  0  0  0
 17 18  2  0  0  0  0
 19 17  1  0  0  0  0
 19 20  1  0  0  0  0
 21 20  2  0  0  0  0
 22 21  1  0  0  0  0
 23 24  1  0  0  0  0
 23 22  2  0  0  0  0
 24 19  2  0  0  0  0
 25 26  1  0  0  0  0
 25 24  1  0  0  0  0
 27 26  1  0  0  0  0
 28 27  1  0  0  0  0
 28 29  1  0  0  0  0
 29 25  1  0  0  0  0
M  END
>  <minimizedAffinity>
-6.74516058

$$$$

 OpenBabel03242510063D

 29 33  0  0  0  0  0  0  0  0999 V2000
   45.8900   33.0500   39.0360 C   0  0  0  0  0  0  0  0  0  0  0  0
   46.5390   32.3170   38.0260 C   0  0  0  0  0  3  0  0  0  0  0  0
   45.8460   31.6040   37.0400 C   0  0  0  0  0  3  0  0  0  0  0  0
   44.4940   31.6620   37.1170 N   0  0  0  0  0  0  0  0  0  0  0  0
   43.8520   32.3440   38.0560 C   0  0  0  0  0  0  0  0  0  0  0  0
   44.5490   33.0000   38.9650 N   0  0  0  0  0  0  0  0  0  0  0  0
   46.4130   33.8080   40.0990 C   0  0  0  0  0  0  0  0  0  0  0  0
   47.8160   33.9510   40.1090 C   0  0  0  0  0  3  0  0  0  0  0  0
   48.5230   34.6580   41.0680 C   0  0  0  0  0  3  0  0  0  0  0  0
   47.7990   35.2680   42.0940 C   0  0  0  0  0  3  0  0  0  0  0  0
   46.4220   35.1630   42.1390 C   0  0  0  0  0  0  0  0  0  0  0  0
   45.6970   35.7520   43.1360 C   0  0  0  0  0  3  0  0  0  0  0  0
   44.3400   35.6770   43.2240 C   0  0  0  0  0  3  0  0  0  0  0  0
   43.7510   34.9530   42.2250 C   0  0  0  0  0  3  0  0  0  0  0  0
   44.4540   34.3570   41.2200 C   0  0  0  0  0  3  0  0  0  0  0  0
   45.8220   34.4460   41.1490 C   0  0  0  0  0  0  0  0  0  0  0  0
   42.3830   32.3350   38.0380 C   0  0  0  0  0  0  0  0  0  0  0  0
   41.7630   31.5520   37.2520 O   0  0  0  0  0  0  0  0  0  0  0  0
   41.5210   33.1620   38.8620 C   0  0  0  0  0  0  0  0  0  0  0  0
   41.2430   34.4520   38.3970 C   0  0  0  0  0  3  0  0  0  0  0  0
   40.4070   35.2970   39.1460 C   0  0  0  0  0  3  0  0  0  0  0  0
   39.8430   34.8770   40.3540 C   0  0  0  0  0  3  0  0  0  0  0  0
   40.1270   33.6180   40.7850 C   0  0  0  0  0  3  0  0  0  0  0  0
   40.9490   32.7870   40.0500 C   0  0  0  0  0  0  0  0  0  0  0  0
   41.2260   31.4360   40.6030 C   0  0  0  0  0  3  0  0  0  0  0  0
   42.3570   31.5010   41.6370 C   0  0  0  0  0  2  0  0  0  0  0  0
   41.9300   30.4520   42.6740 C   0  0  0  0  0  2  0  0  0  0  0  0
   40.4470   30.8020   42.7610 C   0  0  0  0  0  2  0  0  0  0  0  0
   40.0650   30.8320   41.3130 C   0  0  0  0  0  2  0  0  0  0  0  0
  1  7  1  0  0  0  0
  2  1  2  0  0  0  0
  3  4  2  0  0  0  0
  3  2  1  0  0  0  0
  4  5  1  0  0  0  0
  5  6  2  0  0  0  0
  6  1  1  0  0  0  0
  7  8  2  0  0  0  0
  7 16  1  0  0  0  0
  8  9  1  0  0  0  0
  9 10  2  0  0  0  0
 10 11  1  0  0  0  0
 11 12  1  0  0  0  0
 12 13  2  0  0  0  0
 14 13  1  0  0  0  0
 15 14  2  0  0  0  0
 16 15  1  0  0  0  0
 16 11  2  0  0  0  0
 17  5  1  0  0  0  0
 17 19  1  0  0  0  0
 18 17  2  0  0  0  0
 19 24  1  0  0  0  0
 20 19  2  0  0  0  0
 20 21  1  0  0  0  0
 21 22  2  0  0  0  0
 22 23  1  0  0  0  0
 24 25  1  0  0  0  0
 24 23  2  0  0  0  0
 25 29  1  0  0  0  0
 25 26  1  0  0  0  0
 26 27  1  0  0  0  0
 27 28  1  0  0  0  0
 29 28  1  0  0  0  0
M  END
>  <minimizedAffinity>
-6.74463892

$$$$
