
 OpenBabel03242510073D

 34 38  0  0  0  0  0  0  0  0999 V2000
   45.5340   35.3320   43.3720 C   0  0  0  0  0  0  0  0  0  0  0  0
   44.9850   36.4580   43.2610 O   0  0  0  0  0  0  0  0  0  0  0  0
   46.1010   32.7250   45.9600 C   0  0  0  0  0  0  0  0  0  0  0  0
   45.2950   33.2720   46.9720 C   0  0  0  0  0  3  0  0  0  0  0  0
   44.5820   34.4690   46.8070 C   0  0  0  0  0  3  0  0  0  0  0  0
   44.7180   35.0770   45.5940 N   0  0  0  0  0  0  0  0  0  0  0  0
   45.4720   34.5810   44.6210 C   0  0  0  0  0  0  0  0  0  0  0  0
   46.1370   33.4430   44.8130 N   0  0  0  0  0  0  0  0  0  0  0  0
   46.8900   31.5630   45.9450 C   0  0  0  0  0  0  0  0  0  0  0  0
   46.8880   30.8430   44.7330 C   0  0  0  0  0  3  0  0  0  0  0  0
   47.6070   29.6710   44.5240 C   0  0  0  0  0  3  0  0  0  0  0  0
   48.3740   29.1790   45.5710 C   0  0  0  0  0  3  0  0  0  0  0  0
   48.4150   29.8430   46.7850 C   0  0  0  0  0  0  0  0  0  0  0  0
   49.1660   29.3680   47.8250 C   0  0  0  0  0  3  0  0  0  0  0  0
   49.2420   29.9820   49.0350 C   0  0  0  0  0  3  0  0  0  0  0  0
   48.4950   31.1280   49.1350 C   0  0  0  0  0  3  0  0  0  0  0  0
   47.7410   31.6140   48.1080 C   0  0  0  0  0  3  0  0  0  0  0  0
   47.6780   30.9820   46.8960 C   0  0  0  0  0  0  0  0  0  0  0  0
   46.2100   34.8820   42.1610 C   0  0  0  0  0  0  0  0  0  0  0  0
   47.5580   35.1680   42.0090 C   0  0  0  0  0  3  0  0  0  0  0  0
   48.2570   34.7630   40.8710 C   0  0  0  0  0  3  0  0  0  0  0  0
   47.6350   34.0600   39.8530 C   0  0  0  0  0  3  0  0  0  0  0  0
   46.3140   33.7810   40.0030 C   0  0  0  0  0  3  0  0  0  0  0  0
   45.6450   34.1850   41.1250 C   0  0  0  0  0  0  0  0  0  0  0  0
   44.2550   33.8710   41.2460 N   0  0  0  0  0  0  0  0  0  0  0  0
   43.4130   34.7850   40.6830 C   0  0  0  0  0  3  0  0  0  0  0  0
   42.0430   34.6360   40.7100 C   0  0  0  0  0  0  0  0  0  0  0  0
   41.1080   35.6170   40.1030 C   0  0  0  0  0  1  0  0  0  0  0  0
   41.5310   33.5160   41.3350 C   0  0  0  0  0  0  0  0  0  0  0  0
   40.2880   33.3160   41.3960 O   0  0  0  0  0  0  0  0  0  0  0  0
   42.3840   32.6310   41.8830 N   0  0  0  0  0  0  0  0  0  0  0  0
   43.7190   32.7940   41.8460 C   0  0  0  0  0  0  0  0  0  0  0  0
   44.5480   31.9820   42.3510 O   0  0  0  0  0  0  0  0  0  0  0  0
   42.0000   31.7980   42.3500 H   0  0  0  0  0  0  0  0  0  0  0  0
  1  7  1  0  0  0  0
  2  1  2  0  0  0  0
  3  4  1  0  0  0  0
  5  4  2  0  0  0  0
  6  5  1  0  0  0  0
  7  8  1  0  0  0  0
  7  6  2  0  0  0  0
  8  3  2  0  0  0  0
  9  3  1  0  0  0  0
  9 18  1  0  0  0  0
 10  9  2  0  0  0  0
 11 10  1  0  0  0  0
 11 12  2  0  0  0  0
 12 13  1  0  0  0  0
 13 18  2  0  0  0  0
 13 14  1  0  0  0  0
 14 15  2  0  0  0  0
 15 16  1  0  0  0  0
 17 16  2  0  0  0  0
 18 17  1  0  0  0  0
 19  1  1  0  0  0  0
 20 19  1  0  0  0  0
 21 20  2  0  0  0  0
 22 23  2  0  0  0  0
 22 21  1  0  0  0  0
 23 24  1  0  0  0  0
 24 25  1  0  0  0  0
 24 19  2  0  0  0  0
 25 32  1  0  0  0  0
 26 27  2  0  0  0  0
 26 25  1  0  0  0  0
 27 29  1  0  0  0  0
 28 27  1  0  0  0  0
 29 30  2  0  0  0  0
 29 31  1  0  0  0  0
 31 34  1  0  0  0  0
 32 31  1  0  0  0  0
 32 33  2  0  0  0  0
M  END
>  <minimizedAffinity>
-7.88695574

$$$$

 OpenBabel03242510073D

 34 38  0  0  0  0  0  0  0  0999 V2000
   42.8600   32.3080   38.6790 C   0  0  0  0  0  0  0  0  0  0  0  0
   42.4200   31.1390   38.5360 O   0  0  0  0  0  0  0  0  0  0  0  0
   46.5030   32.8190   39.2100 C   0  0  0  0  0  0  0  0  0  0  0  0
   46.8400   33.2130   37.9030 C   0  0  0  0  0  3  0  0  0  0  0  0
   45.8920   33.3090   36.8740 C   0  0  0  0  0  3  0  0  0  0  0  0
   44.6110   32.9940   37.2180 N   0  0  0  0  0  0  0  0  0  0  0  0
   44.2660   32.6200   38.4440 C   0  0  0  0  0  0  0  0  0  0  0  0
   45.1920   32.5390   39.3970 N   0  0  0  0  0  0  0  0  0  0  0  0
   47.3040   32.6540   40.3510 C   0  0  0  0  0  0  0  0  0  0  0  0
   47.2870   31.3660   40.9240 C   0  0  0  0  0  3  0  0  0  0  0  0
   48.0150   31.0080   42.0540 C   0  0  0  0  0  3  0  0  0  0  0  0
   48.8070   31.9760   42.6560 C   0  0  0  0  0  3  0  0  0  0  0  0
   48.8630   33.2590   42.1380 C   0  0  0  0  0  0  0  0  0  0  0  0
   49.6390   34.2230   42.7230 C   0  0  0  0  0  3  0  0  0  0  0  0
   49.7310   35.4950   42.2540 C   0  0  0  0  0  3  0  0  0  0  0  0
   48.9740   35.7420   41.1370 C   0  0  0  0  0  3  0  0  0  0  0  0
   48.1950   34.7930   40.5440 C   0  0  0  0  0  3  0  0  0  0  0  0
   48.1160   33.5170   41.0300 C   0  0  0  0  0  0  0  0  0  0  0  0
   41.8480   33.2750   39.0880 C   0  0  0  0  0  0  0  0  0  0  0  0
   40.9030   33.6780   38.1590 C   0  0  0  0  0  3  0  0  0  0  0  0
   39.9110   34.6020   38.4940 C   0  0  0  0  0  3  0  0  0  0  0  0
   39.8330   35.1490   39.7630 C   0  0  0  0  0  3  0  0  0  0  0  0
   40.7600   34.7530   40.6730 C   0  0  0  0  0  3  0  0  0  0  0  0
   41.7250   33.8470   40.3280 C   0  0  0  0  0  0  0  0  0  0  0  0
   42.6830   33.4550   41.3140 N   0  0  0  0  0  0  0  0  0  0  0  0
   43.6130   34.4070   41.6160 C   0  0  0  0  0  3  0  0  0  0  0  0
   44.6080   34.1940   42.5440 C   0  0  0  0  0  0  0  0  0  0  0  0
   45.6290   35.2150   42.8890 C   0  0  0  0  0  1  0  0  0  0  0  0
   44.6450   32.9660   43.1760 C   0  0  0  0  0  0  0  0  0  0  0  0
   45.5270   32.7030   44.0360 O   0  0  0  0  0  0  0  0  0  0  0  0
   43.7160   32.0450   42.8590 N   0  0  0  0  0  0  0  0  0  0  0  0
   42.7510   32.2720   41.9500 C   0  0  0  0  0  0  0  0  0  0  0  0
   41.8640   31.4280   41.6280 O   0  0  0  0  0  0  0  0  0  0  0  0
   43.7470   31.1300   43.3300 H   0  0  0  0  0  0  0  0  0  0  0  0
  1 19  1  0  0  0  0
  2  1  2  0  0  0  0
  3  8  1  0  0  0  0
  3  9  1  0  0  0  0
  4  3  2  0  0  0  0
  5  6  2  0  0  0  0
  5  4  1  0  0  0  0
  6  7  1  0  0  0  0
  7  1  1  0  0  0  0
  7  8  2  0  0  0  0
  9 10  2  0  0  0  0
  9 18  1  0  0  0  0
 10 11  1  0  0  0  0
 11 12  2  0  0  0  0
 13 12  1  0  0  0  0
 13 14  1  0  0  0  0
 15 14  2  0  0  0  0
 16 15  1  0  0  0  0
 17 18  1  0  0  0  0
 17 16  2  0  0  0  0
 18 13  2  0  0  0  0
 19 24  1  0  0  0  0
 20 21  1  0  0  0  0
 20 19  2  0  0  0  0
 21 22  2  0  0  0  0
 22 23  1  0  0  0  0
 24 23  2  0  0  0  0
 24 25  1  0  0  0  0
 25 26  1  0  0  0  0
 25 32  1  0  0  0  0
 26 27  2  0  0  0  0
 27 28  1  0  0  0  0
 27 29  1  0  0  0  0
 29 30  2  0  0  0  0
 31 29  1  0  0  0  0
 31 34  1  0  0  0  0
 32 31  1  0  0  0  0
 33 32  2  0  0  0  0
M  END
>  <minimizedAffinity>
-7.7056365

$$$$

 OpenBabel03242510073D

 34 38  0  0  0  0  0  0  0  0999 V2000
   45.4980   35.3160   43.3630 C   0  0  0  0  0  0  0  0  0  0  0  0
   44.9190   36.4280   43.2620 O   0  0  0  0  0  0  0  0  0  0  0  0
   46.1380   32.7040   45.9290 C   0  0  0  0  0  0  0  0  0  0  0  0
   45.3510   33.2440   46.9620 C   0  0  0  0  0  3  0  0  0  0  0  0
   44.6280   34.4370   46.8160 C   0  0  0  0  0  3  0  0  0  0  0  0
   44.7330   35.0490   45.6030 N   0  0  0  0  0  0  0  0  0  0  0  0
   45.4690   34.5610   44.6110 C   0  0  0  0  0  0  0  0  0  0  0  0
   46.1440   33.4260   44.7840 N   0  0  0  0  0  0  0  0  0  0  0  0
   46.9320   31.5470   45.8930 C   0  0  0  0  0  0  0  0  0  0  0  0
   46.9710   30.7980   47.0870 C   0  0  0  0  0  3  0  0  0  0  0  0
   47.6990   29.6230   47.2440 C   0  0  0  0  0  3  0  0  0  0  0  0
   48.4310   29.1570   46.1610 C   0  0  0  0  0  3  0  0  0  0  0  0
   48.4310   29.8500   44.9620 C   0  0  0  0  0  0  0  0  0  0  0  0
   49.1490   29.4010   43.8880 C   0  0  0  0  0  3  0  0  0  0  0  0
   49.1810   30.0420   42.6890 C   0  0  0  0  0  3  0  0  0  0  0  0
   48.4310   31.1890   42.6410 C   0  0  0  0  0  3  0  0  0  0  0  0
   47.7100   31.6490   43.7040 C   0  0  0  0  0  3  0  0  0  0  0  0
   47.6890   30.9900   44.9020 C   0  0  0  0  0  0  0  0  0  0  0  0
   46.1720   34.8860   42.1440 C   0  0  0  0  0  0  0  0  0  0  0  0
   47.5190   35.1770   41.9940 C   0  0  0  0  0  3  0  0  0  0  0  0
   48.2160   34.7910   40.8480 C   0  0  0  0  0  3  0  0  0  0  0  0
   47.5930   34.1030   39.8210 C   0  0  0  0  0  3  0  0  0  0  0  0
   46.2730   33.8190   39.9690 C   0  0  0  0  0  3  0  0  0  0  0  0
   45.6050   34.2050   41.0980 C   0  0  0  0  0  0  0  0  0  0  0  0
   44.2160   33.8870   41.2170 N   0  0  0  0  0  0  0  0  0  0  0  0
   43.3720   34.8030   40.6590 C   0  0  0  0  0  3  0  0  0  0  0  0
   42.0030   34.6510   40.6850 C   0  0  0  0  0  0  0  0  0  0  0  0
   41.0660   35.6330   40.0830 C   0  0  0  0  0  1  0  0  0  0  0  0
   41.4920   33.5260   41.3030 C   0  0  0  0  0  0  0  0  0  0  0  0
   40.2500   33.3230   41.3630 O   0  0  0  0  0  0  0  0  0  0  0  0
   42.3480   32.6400   41.8460 N   0  0  0  0  0  0  0  0  0  0  0  0
   43.6820   32.8060   41.8100 C   0  0  0  0  0  0  0  0  0  0  0  0
   44.5130   31.9930   42.3110 O   0  0  0  0  0  0  0  0  0  0  0  0
   41.9650   31.8030   42.3080 H   0  0  0  0  0  0  0  0  0  0  0  0
  1  7  1  0  0  0  0
  2  1  2  0  0  0  0
  3  4  1  0  0  0  0
  5  4  2  0  0  0  0
  6  5  1  0  0  0  0
  7  8  1  0  0  0  0
  7  6  2  0  0  0  0
  8  3  2  0  0  0  0
  9  3  1  0  0  0  0
  9 10  1  0  0  0  0
 10 11  2  0  0  0  0
 12 11  1  0  0  0  0
 13 12  2  0  0  0  0
 14 13  1  0  0  0  0
 15 14  2  0  0  0  0
 16 15  1  0  0  0  0
 16 17  2  0  0  0  0
 17 18  1  0  0  0  0
 18 13  1  0  0  0  0
 18  9  2  0  0  0  0
 19  1  1  0  0  0  0
 20 19  1  0  0  0  0
 21 20  2  0  0  0  0
 22 23  2  0  0  0  0
 22 21  1  0  0  0  0
 23 24  1  0  0  0  0
 24 25  1  0  0  0  0
 24 19  2  0  0  0  0
 25 32  1  0  0  0  0
 26 27  2  0  0  0  0
 26 25  1  0  0  0  0
 27 29  1  0  0  0  0
 28 27  1  0  0  0  0
 29 30  2  0  0  0  0
 29 31  1  0  0  0  0
 31 34  1  0  0  0  0
 32 31  1  0  0  0  0
 32 33  2  0  0  0  0
M  END
>  <minimizedAffinity>
-7.46624899

$$$$

 OpenBabel03242510073D

 34 38  0  0  0  0  0  0  0  0999 V2000
   43.9140   32.7930   38.9710 C   0  0  0  0  0  0  0  0  0  0  0  0
   43.4570   31.6260   38.8820 O   0  0  0  0  0  0  0  0  0  0  0  0
   47.5190   33.6830   39.1320 C   0  0  0  0  0  0  0  0  0  0  0  0
   47.7960   33.6400   37.7540 C   0  0  0  0  0  3  0  0  0  0  0  0
   46.8200   33.3260   36.7970 C   0  0  0  0  0  3  0  0  0  0  0  0
   45.5740   33.0630   37.2850 N   0  0  0  0  0  0  0  0  0  0  0  0
   45.2870   33.0980   38.5800 C   0  0  0  0  0  0  0  0  0  0  0  0
   46.2380   33.3980   39.4620 N   0  0  0  0  0  0  0  0  0  0  0  0
   48.3560   33.9600   40.2250 C   0  0  0  0  0  0  0  0  0  0  0  0
   48.3700   35.3020   40.6560 C   0  0  0  0  0  3  0  0  0  0  0  0
   49.1320   35.7680   41.7220 C   0  0  0  0  0  3  0  0  0  0  0  0
   49.9270   34.8580   42.4060 C   0  0  0  0  0  3  0  0  0  0  0  0
   49.9540   33.5260   42.0280 C   0  0  0  0  0  0  0  0  0  0  0  0
   50.7340   32.6200   42.6920 C   0  0  0  0  0  3  0  0  0  0  0  0
   50.7950   31.3020   42.3630 C   0  0  0  0  0  3  0  0  0  0  0  0
   50.0060   30.9480   41.2990 C   0  0  0  0  0  3  0  0  0  0  0  0
   49.2240   31.8400   40.6260 C   0  0  0  0  0  3  0  0  0  0  0  0
   49.1750   33.1620   40.9720 C   0  0  0  0  0  0  0  0  0  0  0  0
   42.9580   33.7660   39.4860 C   0  0  0  0  0  0  0  0  0  0  0  0
   42.2280   34.5210   38.5810 C   0  0  0  0  0  3  0  0  0  0  0  0
   41.2990   35.4680   39.0160 C   0  0  0  0  0  3  0  0  0  0  0  0
   41.0710   35.6890   40.3630 C   0  0  0  0  0  3  0  0  0  0  0  0
   41.7880   34.9500   41.2490 C   0  0  0  0  0  3  0  0  0  0  0  0
   42.6930   34.0260   40.8050 C   0  0  0  0  0  0  0  0  0  0  0  0
   43.4280   33.2670   41.7690 N   0  0  0  0  0  0  0  0  0  0  0  0
   44.5610   33.8730   42.2290 C   0  0  0  0  0  3  0  0  0  0  0  0
   45.3850   33.2800   43.1600 C   0  0  0  0  0  0  0  0  0  0  0  0
   46.6210   33.9220   43.6760 C   0  0  0  0  0  1  0  0  0  0  0  0
   45.0310   32.0300   43.6270 C   0  0  0  0  0  0  0  0  0  0  0  0
   45.7390   31.4290   44.4800 O   0  0  0  0  0  0  0  0  0  0  0  0
   43.9100   31.4540   43.1550 N   0  0  0  0  0  0  0  0  0  0  0  0
   43.1170   32.0490   42.2470 C   0  0  0  0  0  0  0  0  0  0  0  0
   42.0570   31.5360   41.7820 O   0  0  0  0  0  0  0  0  0  0  0  0
   43.6490   30.5210   43.5040 H   0  0  0  0  0  0  0  0  0  0  0  0
  1 19  1  0  0  0  0
  2  1  2  0  0  0  0
  3  8  1  0  0  0  0
  3  9  1  0  0  0  0
  4  3  2  0  0  0  0
  5  6  2  0  0  0  0
  5  4  1  0  0  0  0
  6  7  1  0  0  0  0
  7  1  1  0  0  0  0
  7  8  2  0  0  0  0
  9 10  2  0  0  0  0
  9 18  1  0  0  0  0
 10 11  1  0  0  0  0
 11 12  2  0  0  0  0
 13 12  1  0  0  0  0
 13 14  1  0  0  0  0
 15 14  2  0  0  0  0
 16 15  1  0  0  0  0
 17 18  1  0  0  0  0
 17 16  2  0  0  0  0
 18 13  2  0  0  0  0
 19 24  1  0  0  0  0
 20 21  1  0  0  0  0
 20 19  2  0  0  0  0
 21 22  2  0  0  0  0
 22 23  1  0  0  0  0
 24 23  2  0  0  0  0
 24 25  1  0  0  0  0
 25 26  1  0  0  0  0
 25 32  1  0  0  0  0
 26 27  2  0  0  0  0
 27 29  1  0  0  0  0
 27 28  1  0  0  0  0
 29 30  2  0  0  0  0
 31 34  1  0  0  0  0
 31 29  1  0  0  0  0
 32 31  1  0  0  0  0
 33 32  2  0  0  0  0
M  END
>  <minimizedAffinity>
-7.45876694

$$$$

 OpenBabel03242510073D

 34 38  0  0  0  0  0  0  0  0999 V2000
   43.3270   33.4600   38.6810 C   0  0  0  0  0  0  0  0  0  0  0  0
   42.7520   34.5010   38.2740 O   0  0  0  0  0  0  0  0  0  0  0  0
   46.9610   32.7160   38.9210 C   0  0  0  0  0  0  0  0  0  0  0  0
   47.2380   32.6350   37.5450 C   0  0  0  0  0  3  0  0  0  0  0  0
   46.2530   32.8220   36.5640 C   0  0  0  0  0  3  0  0  0  0  0  0
   44.9990   33.0890   37.0260 N   0  0  0  0  0  0  0  0  0  0  0  0
   44.7110   33.1710   38.3200 C   0  0  0  0  0  0  0  0  0  0  0  0
   45.6700   32.9870   39.2250 N   0  0  0  0  0  0  0  0  0  0  0  0
   47.7990   32.5470   40.0350 C   0  0  0  0  0  0  0  0  0  0  0  0
   48.0280   31.2120   40.4270 C   0  0  0  0  0  3  0  0  0  0  0  0
   48.8300   30.8450   41.5030 C   0  0  0  0  0  3  0  0  0  0  0  0
   49.4430   31.8520   42.2360 C   0  0  0  0  0  3  0  0  0  0  0  0
   49.2550   33.1810   41.8980 C   0  0  0  0  0  0  0  0  0  0  0  0
   49.8530   34.1820   42.6130 C   0  0  0  0  0  3  0  0  0  0  0  0
   49.7020   35.5020   42.3220 C   0  0  0  0  0  3  0  0  0  0  0  0
   48.8920   35.7540   41.2450 C   0  0  0  0  0  3  0  0  0  0  0  0
   48.2890   34.7670   40.5230 C   0  0  0  0  0  3  0  0  0  0  0  0
   48.4530   33.4450   40.8300 C   0  0  0  0  0  0  0  0  0  0  0  0
   42.4900   32.6110   39.5210 C   0  0  0  0  0  0  0  0  0  0  0  0
   41.8090   31.5590   38.9290 C   0  0  0  0  0  3  0  0  0  0  0  0
   40.9920   30.7140   39.6820 C   0  0  0  0  0  3  0  0  0  0  0  0
   40.8330   30.8910   41.0460 C   0  0  0  0  0  3  0  0  0  0  0  0
   41.5010   31.9220   41.6250 C   0  0  0  0  0  3  0  0  0  0  0  0
   42.2970   32.7410   40.8720 C   0  0  0  0  0  0  0  0  0  0  0  0
   42.9840   33.8160   41.5180 N   0  0  0  0  0  0  0  0  0  0  0  0
   44.1390   33.4560   42.1500 C   0  0  0  0  0  3  0  0  0  0  0  0
   44.9230   34.3680   42.8220 C   0  0  0  0  0  0  0  0  0  0  0  0
   46.1830   34.0000   43.5160 C   0  0  0  0  0  1  0  0  0  0  0  0
   44.5040   35.6840   42.8420 C   0  0  0  0  0  0  0  0  0  0  0  0
   45.1720   36.5710   43.4370 O   0  0  0  0  0  0  0  0  0  0  0  0
   43.3610   36.0110   42.2110 N   0  0  0  0  0  0  0  0  0  0  0  0
   42.6090   35.1060   41.5600 C   0  0  0  0  0  0  0  0  0  0  0  0
   41.5300   35.3790   40.9570 O   0  0  0  0  0  0  0  0  0  0  0  0
   43.0490   36.9920   42.2290 H   0  0  0  0  0  0  0  0  0  0  0  0
  1 19  1  0  0  0  0
  2  1  2  0  0  0  0
  3  8  1  0  0  0  0
  3  9  1  0  0  0  0
  4  3  2  0  0  0  0
  5  6  2  0  0  0  0
  5  4  1  0  0  0  0
  6  7  1  0  0  0  0
  7  1  1  0  0  0  0
  7  8  2  0  0  0  0
  9 10  2  0  0  0  0
  9 18  1  0  0  0  0
 10 11  1  0  0  0  0
 11 12  2  0  0  0  0
 13 12  1  0  0  0  0
 13 14  1  0  0  0  0
 15 14  2  0  0  0  0
 16 15  1  0  0  0  0
 17 18  1  0  0  0  0
 17 16  2  0  0  0  0
 18 13  2  0  0  0  0
 19 24  1  0  0  0  0
 20 19  2  0  0  0  0
 20 21  1  0  0  0  0
 21 22  2  0  0  0  0
 22 23  1  0  0  0  0
 24 25  1  0  0  0  0
 24 23  2  0  0  0  0
 25 32  1  0  0  0  0
 25 26  1  0  0  0  0
 26 27  2  0  0  0  0
 27 29  1  0  0  0  0
 27 28  1  0  0  0  0
 29 30  2  0  0  0  0
 31 34  1  0  0  0  0
 31 29  1  0  0  0  0
 32 31  1  0  0  0  0
 33 32  2  0  0  0  0
M  END
>  <minimizedAffinity>
-7.3584404

$$$$

 OpenBabel03242510073D

 34 38  0  0  0  0  0  0  0  0999 V2000
   45.3640   35.0810   42.8080 C   0  0  0  0  0  0  0  0  0  0  0  0
   44.9130   36.2510   42.7130 O   0  0  0  0  0  0  0  0  0  0  0  0
   46.0230   32.5280   45.4280 C   0  0  0  0  0  0  0  0  0  0  0  0
   45.4590   33.2120   46.5180 C   0  0  0  0  0  3  0  0  0  0  0  0
   44.8750   34.4820   46.3940 C   0  0  0  0  0  3  0  0  0  0  0  0
   44.8870   35.0190   45.1410 N   0  0  0  0  0  0  0  0  0  0  0  0
   45.4130   34.3940   44.0950 C   0  0  0  0  0  0  0  0  0  0  0  0
   45.9610   33.1890   44.2490 N   0  0  0  0  0  0  0  0  0  0  0  0
   46.6560   31.2760   45.3600 C   0  0  0  0  0  0  0  0  0  0  0  0
   47.7350   31.1880   44.4570 C   0  0  0  0  0  3  0  0  0  0  0  0
   48.4850   30.0350   44.2530 C   0  0  0  0  0  3  0  0  0  0  0  0
   48.1540   28.9010   44.9820 C   0  0  0  0  0  3  0  0  0  0  0  0
   47.1040   28.9270   45.8840 C   0  0  0  0  0  0  0  0  0  0  0  0
   46.7670   27.8160   46.6070 C   0  0  0  0  0  3  0  0  0  0  0  0
   45.7470   27.7890   47.5060 C   0  0  0  0  0  3  0  0  0  0  0  0
   45.0720   28.9770   47.6300 C   0  0  0  0  0  3  0  0  0  0  0  0
   45.3960   30.0920   46.9160 C   0  0  0  0  0  3  0  0  0  0  0  0
   46.4260   30.1010   46.0160 C   0  0  0  0  0  0  0  0  0  0  0  0
   45.8110   34.5140   41.5420 C   0  0  0  0  0  0  0  0  0  0  0  0
   47.1520   34.6170   41.2060 C   0  0  0  0  0  3  0  0  0  0  0  0
   47.6370   34.0930   40.0070 C   0  0  0  0  0  3  0  0  0  0  0  0
   46.8020   33.4510   39.1090 C   0  0  0  0  0  3  0  0  0  0  0  0
   45.4880   33.3500   39.4390 C   0  0  0  0  0  3  0  0  0  0  0  0
   45.0300   33.8690   40.6190 C   0  0  0  0  0  0  0  0  0  0  0  0
   43.6400   33.7430   40.9300 N   0  0  0  0  0  0  0  0  0  0  0  0
   42.8560   34.7550   40.4600 C   0  0  0  0  0  3  0  0  0  0  0  0
   41.4950   34.7900   40.6710 C   0  0  0  0  0  0  0  0  0  0  0  0
   40.6220   35.8800   40.1670 C   0  0  0  0  0  1  0  0  0  0  0  0
   40.9290   33.7520   41.3870 C   0  0  0  0  0  0  0  0  0  0  0  0
   39.6910   33.7190   41.6170 O   0  0  0  0  0  0  0  0  0  0  0  0
   41.7270   32.7670   41.8410 N   0  0  0  0  0  0  0  0  0  0  0  0
   43.0540   32.7510   41.6230 C   0  0  0  0  0  0  0  0  0  0  0  0
   43.8310   31.8410   42.0360 O   0  0  0  0  0  0  0  0  0  0  0  0
   41.3030   31.9960   42.3760 H   0  0  0  0  0  0  0  0  0  0  0  0
  1  7  1  0  0  0  0
  2  1  2  0  0  0  0
  3  4  1  0  0  0  0
  5  4  2  0  0  0  0
  6  5  1  0  0  0  0
  7  8  1  0  0  0  0
  7  6  2  0  0  0  0
  8  3  2  0  0  0  0
  9  3  1  0  0  0  0
  9 18  1  0  0  0  0
 10  9  2  0  0  0  0
 11 10  1  0  0  0  0
 11 12  2  0  0  0  0
 12 13  1  0  0  0  0
 13 18  2  0  0  0  0
 13 14  1  0  0  0  0
 14 15  2  0  0  0  0
 15 16  1  0  0  0  0
 17 16  2  0  0  0  0
 18 17  1  0  0  0  0
 19  1  1  0  0  0  0
 20 19  1  0  0  0  0
 21 20  2  0  0  0  0
 22 23  2  0  0  0  0
 22 21  1  0  0  0  0
 23 24  1  0  0  0  0
 24 25  1  0  0  0  0
 24 19  2  0  0  0  0
 25 32  1  0  0  0  0
 26 27  2  0  0  0  0
 26 25  1  0  0  0  0
 27 29  1  0  0  0  0
 28 27  1  0  0  0  0
 29 30  2  0  0  0  0
 29 31  1  0  0  0  0
 31 34  1  0  0  0  0
 32 31  1  0  0  0  0
 32 33  2  0  0  0  0
M  END
>  <minimizedAffinity>
-7.19328022

$$$$

 OpenBabel03242510073D

 34 38  0  0  0  0  0  0  0  0999 V2000
   45.9860   32.7150   44.1040 C   0  0  0  0  0  0  0  0  0  0  0  0
   45.6110   33.2650   45.1700 O   0  0  0  0  0  0  0  0  0  0  0  0
   44.9250   29.1590   44.3060 C   0  0  0  0  0  0  0  0  0  0  0  0
   44.6300   28.9630   42.9460 C   0  0  0  0  0  3  0  0  0  0  0  0
   44.7770   29.9750   41.9860 C   0  0  0  0  0  3  0  0  0  0  0  0
   45.2290   31.1740   42.4550 N   0  0  0  0  0  0  0  0  0  0  0  0
   45.5140   31.3850   43.7340 C   0  0  0  0  0  0  0  0  0  0  0  0
   45.3620   30.4010   44.6180 N   0  0  0  0  0  0  0  0  0  0  0  0
   44.8270   28.2830   45.4000 C   0  0  0  0  0  0  0  0  0  0  0  0
   45.9810   28.1850   46.2040 C   0  0  0  0  0  3  0  0  0  0  0  0
   46.0760   27.3740   47.3300 C   0  0  0  0  0  3  0  0  0  0  0  0
   44.9700   26.6150   47.6860 C   0  0  0  0  0  3  0  0  0  0  0  0
   43.8080   26.6700   46.9330 C   0  0  0  0  0  0  0  0  0  0  0  0
   42.7120   25.9270   47.2730 C   0  0  0  0  0  3  0  0  0  0  0  0
   41.5480   25.9460   46.5700 C   0  0  0  0  0  3  0  0  0  0  0  0
   41.5610   26.7770   45.4790 C   0  0  0  0  0  3  0  0  0  0  0  0
   42.6460   27.5240   45.1280 C   0  0  0  0  0  3  0  0  0  0  0  0
   43.8090   27.4920   45.8480 C   0  0  0  0  0  0  0  0  0  0  0  0
   46.9070   33.5240   43.3130 C   0  0  0  0  0  0  0  0  0  0  0  0
   48.2680   33.2900   43.4370 C   0  0  0  0  0  3  0  0  0  0  0  0
   49.1960   34.0330   42.7050 C   0  0  0  0  0  3  0  0  0  0  0  0
   48.7950   35.0280   41.8300 C   0  0  0  0  0  3  0  0  0  0  0  0
   47.4620   35.2560   41.7100 C   0  0  0  0  0  3  0  0  0  0  0  0
   46.5660   34.5180   42.4340 C   0  0  0  0  0  0  0  0  0  0  0  0
   45.1700   34.7880   42.2800 N   0  0  0  0  0  0  0  0  0  0  0  0
   44.5820   34.1640   41.2180 C   0  0  0  0  0  3  0  0  0  0  0  0
   43.2450   34.3160   40.9260 C   0  0  0  0  0  0  0  0  0  0  0  0
   42.5840   33.6460   39.7770 C   0  0  0  0  0  1  0  0  0  0  0  0
   42.4950   35.1320   41.7500 C   0  0  0  0  0  0  0  0  0  0  0  0
   41.2660   35.3160   41.5420 O   0  0  0  0  0  0  0  0  0  0  0  0
   43.1010   35.7360   42.7890 N   0  0  0  0  0  0  0  0  0  0  0  0
   44.4080   35.5750   43.0590 C   0  0  0  0  0  0  0  0  0  0  0  0
   45.0080   36.1280   44.0280 O   0  0  0  0  0  0  0  0  0  0  0  0
   42.5400   36.3460   43.4020 H   0  0  0  0  0  0  0  0  0  0  0  0
  1  2  2  0  0  0  0
  3  8  1  0  0  0  0
  3  9  1  0  0  0  0
  4  3  2  0  0  0  0
  5  6  2  0  0  0  0
  5  4  1  0  0  0  0
  6  7  1  0  0  0  0
  7  1  1  0  0  0  0
  7  8  2  0  0  0  0
  9 18  2  0  0  0  0
  9 10  1  0  0  0  0
 10 11  2  0  0  0  0
 11 12  1  0  0  0  0
 13 14  1  0  0  0  0
 13 12  2  0  0  0  0
 15 14  2  0  0  0  0
 16 15  1  0  0  0  0
 17 16  2  0  0  0  0
 17 18  1  0  0  0  0
 18 13  1  0  0  0  0
 19 20  1  0  0  0  0
 19  1  1  0  0  0  0
 21 20  2  0  0  0  0
 22 21  1  0  0  0  0
 23 22  2  0  0  0  0
 23 24  1  0  0  0  0
 24 19  2  0  0  0  0
 25 24  1  0  0  0  0
 25 32  1  0  0  0  0
 26 25  1  0  0  0  0
 27 26  2  0  0  0  0
 27 29  1  0  0  0  0
 28 27  1  0  0  0  0
 29 31  1  0  0  0  0
 30 29  2  0  0  0  0
 31 32  1  0  0  0  0
 31 34  1  0  0  0  0
 32 33  2  0  0  0  0
M  END
>  <minimizedAffinity>
-7.09563351

$$$$

 OpenBabel03242510073D

 34 38  0  0  0  0  0  0  0  0999 V2000
   46.4330   32.5410   43.5980 C   0  0  0  0  0  0  0  0  0  0  0  0
   46.2430   32.7530   44.8220 O   0  0  0  0  0  0  0  0  0  0  0  0
   44.0190   29.8660   42.6850 C   0  0  0  0  0  0  0  0  0  0  0  0
   44.7270   29.3220   41.5990 C   0  0  0  0  0  3  0  0  0  0  0  0
   45.9680   29.8230   41.1780 C   0  0  0  0  0  3  0  0  0  0  0  0
   46.4520   30.8790   41.8920 N   0  0  0  0  0  0  0  0  0  0  0  0
   45.8040   31.4110   42.9210 C   0  0  0  0  0  0  0  0  0  0  0  0
   44.6270   30.9110   43.2930 N   0  0  0  0  0  0  0  0  0  0  0  0
   42.7760   29.5140   43.2360 C   0  0  0  0  0  0  0  0  0  0  0  0
   41.6700   30.2460   42.7570 C   0  0  0  0  0  3  0  0  0  0  0  0
   40.3610   30.0420   43.1810 C   0  0  0  0  0  3  0  0  0  0  0  0
   40.1260   29.0580   44.1310 C   0  0  0  0  0  3  0  0  0  0  0  0
   41.1740   28.3060   44.6380 C   0  0  0  0  0  0  0  0  0  0  0  0
   40.9560   27.3350   45.5760 C   0  0  0  0  0  3  0  0  0  0  0  0
   41.9480   26.5690   46.1030 C   0  0  0  0  0  3  0  0  0  0  0  0
   43.1990   26.8520   45.6180 C   0  0  0  0  0  3  0  0  0  0  0  0
   43.4310   27.8170   44.6840 C   0  0  0  0  0  3  0  0  0  0  0  0
   42.4210   28.5780   44.1640 C   0  0  0  0  0  0  0  0  0  0  0  0
   47.3130   33.5110   42.9580 C   0  0  0  0  0  0  0  0  0  0  0  0
   48.6840   33.3260   43.0530 C   0  0  0  0  0  3  0  0  0  0  0  0
   49.5750   34.2220   42.4610 C   0  0  0  0  0  3  0  0  0  0  0  0
   49.1270   35.3270   41.7570 C   0  0  0  0  0  3  0  0  0  0  0  0
   47.7840   35.5070   41.6650 C   0  0  0  0  0  3  0  0  0  0  0  0
   46.9250   34.6190   42.2500 C   0  0  0  0  0  0  0  0  0  0  0  0
   45.5170   34.8430   42.1310 N   0  0  0  0  0  0  0  0  0  0  0  0
   44.9620   34.3770   40.9760 C   0  0  0  0  0  3  0  0  0  0  0  0
   43.6190   34.5100   40.7000 C   0  0  0  0  0  0  0  0  0  0  0  0
   42.9920   34.0100   39.4510 C   0  0  0  0  0  1  0  0  0  0  0  0
   42.8290   35.1420   41.6420 C   0  0  0  0  0  0  0  0  0  0  0  0
   41.5930   35.2990   41.4560 O   0  0  0  0  0  0  0  0  0  0  0  0
   43.4040   35.5940   42.7720 N   0  0  0  0  0  0  0  0  0  0  0  0
   44.7180   35.4530   43.0230 C   0  0  0  0  0  0  0  0  0  0  0  0
   45.2890   35.8660   44.0750 O   0  0  0  0  0  0  0  0  0  0  0  0
   42.8140   36.0660   43.4720 H   0  0  0  0  0  0  0  0  0  0  0  0
  1  2  2  0  0  0  0
  3  9  1  0  0  0  0
  3  8  1  0  0  0  0
  4  3  2  0  0  0  0
  5  4  1  0  0  0  0
  5  6  2  0  0  0  0
  6  7  1  0  0  0  0
  7  8  2  0  0  0  0
  7  1  1  0  0  0  0
  9 18  1  0  0  0  0
 10 11  1  0  0  0  0
 10  9  2  0  0  0  0
 11 12  2  0  0  0  0
 12 13  1  0  0  0  0
 13 14  1  0  0  0  0
 14 15  2  0  0  0  0
 16 15  1  0  0  0  0
 17 16  2  0  0  0  0
 18 13  2  0  0  0  0
 18 17  1  0  0  0  0
 19 20  1  0  0  0  0
 19  1  1  0  0  0  0
 21 20  2  0  0  0  0
 22 21  1  0  0  0  0
 23 22  2  0  0  0  0
 23 24  1  0  0  0  0
 24 19  2  0  0  0  0
 25 24  1  0  0  0  0
 25 32  1  0  0  0  0
 26 25  1  0  0  0  0
 27 26  2  0  0  0  0
 27 29  1  0  0  0  0
 28 27  1  0  0  0  0
 29 31  1  0  0  0  0
 30 29  2  0  0  0  0
 31 32  1  0  0  0  0
 31 34  1  0  0  0  0
 32 33  2  0  0  0  0
M  END
>  <minimizedAffinity>
-6.99748087

$$$$

 OpenBabel03242510073D

 34 38  0  0  0  0  0  0  0  0999 V2000
   45.6390   32.7340   47.1690 C   0  0  0  0  0  0  0  0  0  0  0  0
   44.6890   32.6420   47.9870 O   0  0  0  0  0  0  0  0  0  0  0  0
   46.2420   34.2800   43.8430 C   0  0  0  0  0  0  0  0  0  0  0  0
   45.3540   35.3630   43.9650 C   0  0  0  0  0  3  0  0  0  0  0  0
   44.5770   35.5790   45.1130 C   0  0  0  0  0  3  0  0  0  0  0  0
   44.7350   34.6680   46.1150 N   0  0  0  0  0  0  0  0  0  0  0  0
   45.5670   33.6370   46.0260 C   0  0  0  0  0  0  0  0  0  0  0  0
   46.2890   33.4610   44.9200 N   0  0  0  0  0  0  0  0  0  0  0  0
   47.0790   33.8970   42.7830 C   0  0  0  0  0  0  0  0  0  0  0  0
   48.4500   33.7960   43.0970 C   0  0  0  0  0  3  0  0  0  0  0  0
   49.4310   33.4280   42.1830 C   0  0  0  0  0  3  0  0  0  0  0  0
   49.0400   33.1420   40.8820 C   0  0  0  0  0  3  0  0  0  0  0  0
   47.7070   33.2240   40.5150 C   0  0  0  0  0  0  0  0  0  0  0  0
   47.3090   32.9460   39.2360 C   0  0  0  0  0  3  0  0  0  0  0  0
   46.0150   33.0100   38.8250 C   0  0  0  0  0  3  0  0  0  0  0  0
   45.1290   33.3810   39.8040 C   0  0  0  0  0  3  0  0  0  0  0  0
   45.5110   33.6620   41.0820 C   0  0  0  0  0  3  0  0  0  0  0  0
   46.8180   33.5930   41.4780 C   0  0  0  0  0  0  0  0  0  0  0  0
   46.7740   31.8720   47.4810 C   0  0  0  0  0  0  0  0  0  0  0  0
   47.7150   32.3200   48.3940 C   0  0  0  0  0  3  0  0  0  0  0  0
   48.8220   31.5390   48.7300 C   0  0  0  0  0  3  0  0  0  0  0  0
   49.0220   30.2900   48.1680 C   0  0  0  0  0  3  0  0  0  0  0  0
   48.0990   29.8520   47.2720 C   0  0  0  0  0  3  0  0  0  0  0  0
   47.0200   30.6300   46.9550 C   0  0  0  0  0  0  0  0  0  0  0  0
   46.0700   30.1340   46.0080 N   0  0  0  0  0  0  0  0  0  0  0  0
   46.3990   30.3540   44.7020 C   0  0  0  0  0  3  0  0  0  0  0  0
   45.5940   29.9410   43.6630 C   0  0  0  0  0  0  0  0  0  0  0  0
   45.9320   30.1670   42.2350 C   0  0  0  0  0  1  0  0  0  0  0  0
   44.4200   29.2860   43.9800 C   0  0  0  0  0  0  0  0  0  0  0  0
   43.6370   28.8800   43.0800 O   0  0  0  0  0  0  0  0  0  0  0  0
   44.1200   29.0840   45.2770 N   0  0  0  0  0  0  0  0  0  0  0  0
   44.9190   29.4940   46.2780 C   0  0  0  0  0  0  0  0  0  0  0  0
   44.6670   29.3210   47.5060 O   0  0  0  0  0  0  0  0  0  0  0  0
   43.2430   28.5970   45.5110 H   0  0  0  0  0  0  0  0  0  0  0  0
  1 19  1  0  0  0  0
  1  2  2  0  0  0  0
  3  4  2  0  0  0  0
  3  8  1  0  0  0  0
  4  5  1  0  0  0  0
  5  6  2  0  0  0  0
  7  6  1  0  0  0  0
  7  1  1  0  0  0  0
  8  7  2  0  0  0  0
  9 10  1  0  0  0  0
  9  3  1  0  0  0  0
 11 10  2  0  0  0  0
 12 11  1  0  0  0  0
 13 12  2  0  0  0  0
 13 18  1  0  0  0  0
 14 13  1  0  0  0  0
 15 14  2  0  0  0  0
 15 16  1  0  0  0  0
 16 17  2  0  0  0  0
 17 18  1  0  0  0  0
 18  9  2  0  0  0  0
 19 20  1  0  0  0  0
 20 21  2  0  0  0  0
 22 21  1  0  0  0  0
 23 22  2  0  0  0  0
 24 23  1  0  0  0  0
 24 19  2  0  0  0  0
 25 32  1  0  0  0  0
 25 24  1  0  0  0  0
 26 25  1  0  0  0  0
 27 29  1  0  0  0  0
 27 26  2  0  0  0  0
 28 27  1  0  0  0  0
 29 31  1  0  0  0  0
 30 29  2  0  0  0  0
 31 34  1  0  0  0  0
 31 32  1  0  0  0  0
 32 33  2  0  0  0  0
M  END
>  <minimizedAffinity>
-6.793962

$$$$
