
 OpenBabel03242510003D

 38 41  0  0  0  0  0  0  0  0999 V2000
   44.7790   34.7050   41.7760 C   0  0  0  0  0  0  0  0  0  0  0  0
   45.2160   33.8240   40.8610 N   0  0  0  0  0  0  0  0  0  0  0  0
   44.3940   33.7790   39.8630 O   0  0  0  0  0  0  0  0  0  0  0  0
   43.4060   34.6010   40.0650 C   0  0  0  0  0  0  0  0  0  0  0  0
   43.6220   35.2010   41.2660 N   0  0  0  0  0  0  0  0  0  0  0  0
   42.2540   34.8550   39.1740 C   0  0  0  0  0  0  0  0  0  0  0  0
   42.2620   35.7830   38.1580 C   0  0  0  0  0  3  0  0  0  0  0  0
   41.1280   35.9580   37.3650 C   0  0  0  0  0  3  0  0  0  0  0  0
   39.9840   35.2010   37.5880 C   0  0  0  0  0  3  0  0  0  0  0  0
   39.9840   34.2750   38.6070 C   0  0  0  0  0  3  0  0  0  0  0  0
   41.1070   34.1150   39.3800 C   0  0  0  0  0  0  0  0  0  0  0  0
   40.9830   33.1270   40.4010 N   0  0  0  0  0  0  0  0  0  0  0  0
   41.3970   31.9080   39.9830 C   0  0  0  0  0  3  0  0  0  0  0  0
   41.3620   30.8120   40.8150 C   0  0  0  0  0  0  0  0  0  0  0  0
   41.8090   29.4600   40.3860 C   0  0  0  0  0  1  0  0  0  0  0  0
   40.8800   31.0040   42.1150 C   0  0  0  0  0  0  0  0  0  0  0  0
   40.8210   30.0320   42.9320 O   0  0  0  0  0  0  0  0  0  0  0  0
   40.4820   32.2280   42.4830 N   0  0  0  0  0  0  0  0  0  0  0  0
   40.5230   33.2900   41.6560 C   0  0  0  0  0  0  0  0  0  0  0  0
   40.1660   34.4620   41.9380 O   0  0  0  0  0  0  0  0  0  0  0  0
   40.1290   32.3640   43.4410 H   0  0  0  0  0  0  0  0  0  0  0  0
   45.1350   35.2240   43.0050 O   0  0  0  0  0  0  0  0  0  0  0  0
   45.1510   33.8440   46.3740 C   0  0  0  0  0  0  0  0  0  0  0  0
   46.0390   32.7690   46.2040 C   0  0  0  0  0  0  0  0  0  0  0  0
   46.6060   32.5450   44.9450 C   0  0  0  0  0  0  0  0  0  0  0  0
   46.2530   33.4070   43.9370 N   0  0  0  0  0  0  0  0  0  0  0  0
   45.3990   34.4380   44.1140 C   0  0  0  0  0  0  0  0  0  0  0  0
   44.8430   34.6640   45.3330 N   0  0  0  0  0  0  0  0  0  0  0  0
   47.4790   31.4960   44.7350 N   0  0  0  0  0  0  0  0  0  0  0  0
   47.8880   31.3450   43.8020 H   0  0  0  0  0  0  0  0  0  0  0  0
   47.7230   30.8650   45.5120 H   0  0  0  0  0  0  0  0  0  0  0  0
   46.2880   31.9660   47.3990 C   0  0  0  0  0  0  0  0  0  0  0  0
   46.4870   30.4840   47.0610 C   0  0  0  0  0  1  0  0  0  0  0  0
   45.2830   32.0400   48.4900 C   0  0  0  0  0  1  0  0  0  0  0  0
   47.6030   32.4650   47.9940 C   0  0  0  0  0  1  0  0  0  0  0  0
   44.5530   34.1150   47.5950 N   0  0  0  0  0  0  0  0  0  0  0  0
   43.9060   34.9110   47.6860 H   0  0  0  0  0  0  0  0  0  0  0  0
   44.7550   33.5200   48.4110 H   0  0  0  0  0  0  0  0  0  0  0  0
  1 22  1  0  0  0  0
  2  1  2  0  0  0  0
  3  4  1  0  0  0  0
  3  2  1  0  0  0  0
  4  5  2  0  0  0  0
  5  1  1  0  0  0  0
  6 11  1  0  0  0  0
  6  4  1  0  0  0  0
  7  6  2  0  0  0  0
  8  9  2  0  0  0  0
  8  7  1  0  0  0  0
  9 10  1  0  0  0  0
 10 11  2  0  0  0  0
 11 12  1  0  0  0  0
 12 19  1  0  0  0  0
 13 12  1  0  0  0  0
 13 14  2  0  0  0  0
 14 16  1  0  0  0  0
 15 14  1  0  0  0  0
 16 18  1  0  0  0  0
 16 17  2  0  0  0  0
 18 21  1  0  0  0  0
 19 20  2  0  0  0  0
 19 18  1  0  0  0  0
 22 27  1  0  0  0  0
 23 36  1  0  0  0  0
 24 23  1  0  0  0  0
 24 32  1  0  0  0  0
 25 24  2  0  0  0  0
 26 27  2  0  0  0  0
 26 25  1  0  0  0  0
 27 28  1  0  0  0  0
 28 23  2  0  0  0  0
 29 25  1  0  0  0  0
 29 31  1  0  0  0  0
 30 29  1  0  0  0  0
 32 35  1  0  0  0  0
 32 34  1  0  0  0  0
 33 32  1  0  0  0  0
 36 37  1  0  0  0  0
 36 38  1  0  0  0  0
M  END
>  <minimizedAffinity>
-8.06318092

$$$$

 OpenBabel03242510003D

 38 41  0  0  0  0  0  0  0  0999 V2000
   44.7660   34.5910   41.6510 C   0  0  0  0  0  0  0  0  0  0  0  0
   45.1880   33.7420   40.7000 N   0  0  0  0  0  0  0  0  0  0  0  0
   44.3360   33.7100   39.7270 O   0  0  0  0  0  0  0  0  0  0  0  0
   43.3410   34.5090   39.9820 C   0  0  0  0  0  0  0  0  0  0  0  0
   43.5850   35.0800   41.1920 N   0  0  0  0  0  0  0  0  0  0  0  0
   42.1580   34.7660   39.1350 C   0  0  0  0  0  0  0  0  0  0  0  0
   42.1290   35.6970   38.1220 C   0  0  0  0  0  3  0  0  0  0  0  0
   40.9670   35.8740   37.3710 C   0  0  0  0  0  3  0  0  0  0  0  0
   39.8310   35.1190   37.6350 C   0  0  0  0  0  3  0  0  0  0  0  0
   39.8670   34.1900   38.6510 C   0  0  0  0  0  3  0  0  0  0  0  0
   41.0180   34.0270   39.3810 C   0  0  0  0  0  0  0  0  0  0  0  0
   40.9300   33.0360   40.4040 N   0  0  0  0  0  0  0  0  0  0  0  0
   41.3670   31.8270   39.9810 C   0  0  0  0  0  3  0  0  0  0  0  0
   41.3690   30.7310   40.8140 C   0  0  0  0  0  0  0  0  0  0  0  0
   41.8410   29.3900   40.3790 C   0  0  0  0  0  1  0  0  0  0  0  0
   40.8990   30.9120   42.1200 C   0  0  0  0  0  0  0  0  0  0  0  0
   40.8740   29.9400   42.9370 O   0  0  0  0  0  0  0  0  0  0  0  0
   40.4780   32.1270   42.4930 N   0  0  0  0  0  0  0  0  0  0  0  0
   40.4840   33.1890   41.6650 C   0  0  0  0  0  0  0  0  0  0  0  0
   40.1030   34.3530   41.9510 O   0  0  0  0  0  0  0  0  0  0  0  0
   40.1350   32.2560   43.4560 H   0  0  0  0  0  0  0  0  0  0  0  0
   45.1520   35.0840   42.8820 O   0  0  0  0  0  0  0  0  0  0  0  0
   46.6020   32.4700   44.9620 C   0  0  0  0  0  0  0  0  0  0  0  0
   46.0130   32.7730   46.2000 C   0  0  0  0  0  0  0  0  0  0  0  0
   45.1380   33.8610   46.2910 C   0  0  0  0  0  0  0  0  0  0  0  0
   44.9070   34.5760   45.1410 N   0  0  0  0  0  0  0  0  0  0  0  0
   45.4780   34.2730   43.9560 C   0  0  0  0  0  0  0  0  0  0  0  0
   46.3300   33.2180   43.8580 N   0  0  0  0  0  0  0  0  0  0  0  0
   44.5420   34.1970   47.4900 N   0  0  0  0  0  0  0  0  0  0  0  0
   43.9010   35.0010   47.5390 H   0  0  0  0  0  0  0  0  0  0  0  0
   44.7380   33.6420   48.3360 H   0  0  0  0  0  0  0  0  0  0  0  0
   46.3850   31.8930   47.3050 C   0  0  0  0  0  0  0  0  0  0  0  0
   47.5840   32.4390   48.0910 C   0  0  0  0  0  1  0  0  0  0  0  0
   46.6810   30.4760   46.9750 C   0  0  0  0  0  1  0  0  0  0  0  0
   45.1990   31.8720   48.2650 C   0  0  0  0  0  1  0  0  0  0  0  0
   47.4810   31.4080   44.8090 N   0  0  0  0  0  0  0  0  0  0  0  0
   47.8960   31.2120   43.8870 H   0  0  0  0  0  0  0  0  0  0  0  0
   47.7180   30.8150   45.6160 H   0  0  0  0  0  0  0  0  0  0  0  0
  1 22  1  0  0  0  0
  2  1  2  0  0  0  0
  3  4  1  0  0  0  0
  3  2  1  0  0  0  0
  4  5  2  0  0  0  0
  5  1  1  0  0  0  0
  6 11  1  0  0  0  0
  6  4  1  0  0  0  0
  7  6  2  0  0  0  0
  8  9  2  0  0  0  0
  8  7  1  0  0  0  0
  9 10  1  0  0  0  0
 10 11  2  0  0  0  0
 11 12  1  0  0  0  0
 12 19  1  0  0  0  0
 13 12  1  0  0  0  0
 13 14  2  0  0  0  0
 14 16  1  0  0  0  0
 15 14  1  0  0  0  0
 16 18  1  0  0  0  0
 16 17  2  0  0  0  0
 18 21  1  0  0  0  0
 19 20  2  0  0  0  0
 19 18  1  0  0  0  0
 22 27  1  0  0  0  0
 23 24  1  0  0  0  0
 24 25  2  0  0  0  0
 24 32  1  0  0  0  0
 25 29  1  0  0  0  0
 26 25  1  0  0  0  0
 27 26  2  0  0  0  0
 28 27  1  0  0  0  0
 28 23  2  0  0  0  0
 29 30  1  0  0  0  0
 29 31  1  0  0  0  0
 32 33  1  0  0  0  0
 32 35  1  0  0  0  0
 34 32  1  0  0  0  0
 36 23  1  0  0  0  0
 36 38  1  0  0  0  0
 37 36  1  0  0  0  0
M  END
>  <minimizedAffinity>
-8.00334454

$$$$

 OpenBabel03242510003D

 38 41  0  0  0  0  0  0  0  0999 V2000
   45.4140   34.6180   42.1120 C   0  0  0  0  0  0  0  0  0  0  0  0
   45.5890   34.1770   40.8560 N   0  0  0  0  0  0  0  0  0  0  0  0
   44.4620   34.1920   40.2210 O   0  0  0  0  0  0  0  0  0  0  0  0
   43.5190   34.6280   41.0030 C   0  0  0  0  0  0  0  0  0  0  0  0
   44.0900   34.9060   42.2060 N   0  0  0  0  0  0  0  0  0  0  0  0
   42.0880   34.8000   40.6730 C   0  0  0  0  0  0  0  0  0  0  0  0
   41.3980   35.9780   40.8500 C   0  0  0  0  0  3  0  0  0  0  0  0
   40.0460   36.0510   40.5110 C   0  0  0  0  0  3  0  0  0  0  0  0
   39.3840   34.9430   39.9950 C   0  0  0  0  0  3  0  0  0  0  0  0
   40.0820   33.7680   39.8210 C   0  0  0  0  0  3  0  0  0  0  0  0
   41.4120   33.7120   40.1590 C   0  0  0  0  0  0  0  0  0  0  0  0
   42.0220   32.4430   39.9340 N   0  0  0  0  0  0  0  0  0  0  0  0
   42.3650   32.2650   38.6360 C   0  0  0  0  0  3  0  0  0  0  0  0
   42.9700   31.1070   38.2040 C   0  0  0  0  0  0  0  0  0  0  0  0
   43.3560   30.8820   36.7860 C   0  0  0  0  0  1  0  0  0  0  0  0
   43.2190   30.1140   39.1580 C   0  0  0  0  0  0  0  0  0  0  0  0
   43.7730   29.0210   38.8230 O   0  0  0  0  0  0  0  0  0  0  0  0
   42.8630   30.3350   40.4300 N   0  0  0  0  0  0  0  0  0  0  0  0
   42.2720   31.4750   40.8360 C   0  0  0  0  0  0  0  0  0  0  0  0
   41.9140   31.7450   42.0110 O   0  0  0  0  0  0  0  0  0  0  0  0
   43.0500   29.6020   41.1290 H   0  0  0  0  0  0  0  0  0  0  0  0
   46.1350   34.8510   43.2660 O   0  0  0  0  0  0  0  0  0  0  0  0
   45.3390   33.4550   46.5340 C   0  0  0  0  0  0  0  0  0  0  0  0
   46.0820   32.2640   46.4890 C   0  0  0  0  0  0  0  0  0  0  0  0
   46.8320   31.9700   45.3460 C   0  0  0  0  0  0  0  0  0  0  0  0
   46.7950   32.8830   44.3210 N   0  0  0  0  0  0  0  0  0  0  0  0
   46.0780   34.0260   44.3770 C   0  0  0  0  0  0  0  0  0  0  0  0
   45.3460   34.3200   45.4840 N   0  0  0  0  0  0  0  0  0  0  0  0
   47.5720   30.8070   45.2600 N   0  0  0  0  0  0  0  0  0  0  0  0
   48.1190   30.6060   44.4110 H   0  0  0  0  0  0  0  0  0  0  0  0
   47.5770   30.1410   46.0460 H   0  0  0  0  0  0  0  0  0  0  0  0
   45.9930   31.4240   47.6810 C   0  0  0  0  0  0  0  0  0  0  0  0
   44.9660   30.2970   47.5110 C   0  0  0  0  0  1  0  0  0  0  0  0
   45.6960   32.1000   48.9690 C   0  0  0  0  0  1  0  0  0  0  0  0
   47.3560   30.7590   47.8500 C   0  0  0  0  0  1  0  0  0  0  0  0
   44.5720   33.8000   47.6360 N   0  0  0  0  0  0  0  0  0  0  0  0
   44.0390   34.6810   47.6370 H   0  0  0  0  0  0  0  0  0  0  0  0
   44.5350   33.1750   48.4540 H   0  0  0  0  0  0  0  0  0  0  0  0
  1  5  1  0  0  0  0
  1 22  1  0  0  0  0
  2  1  2  0  0  0  0
  3  2  1  0  0  0  0
  3  4  1  0  0  0  0
  4  5  2  0  0  0  0
  6  7  1  0  0  0  0
  6  4  1  0  0  0  0
  8  7  2  0  0  0  0
  9  8  1  0  0  0  0
 10  9  2  0  0  0  0
 10 11  1  0  0  0  0
 11  6  2  0  0  0  0
 12 11  1  0  0  0  0
 12 19  1  0  0  0  0
 13 12  1  0  0  0  0
 14 13  2  0  0  0  0
 14 16  1  0  0  0  0
 15 14  1  0  0  0  0
 16 18  1  0  0  0  0
 17 16  2  0  0  0  0
 18 19  1  0  0  0  0
 18 21  1  0  0  0  0
 19 20  2  0  0  0  0
 22 27  1  0  0  0  0
 23 36  1  0  0  0  0
 24 23  1  0  0  0  0
 24 32  1  0  0  0  0
 25 24  2  0  0  0  0
 26 27  2  0  0  0  0
 26 25  1  0  0  0  0
 27 28  1  0  0  0  0
 28 23  2  0  0  0  0
 29 25  1  0  0  0  0
 29 31  1  0  0  0  0
 30 29  1  0  0  0  0
 32 35  1  0  0  0  0
 32 34  1  0  0  0  0
 33 32  1  0  0  0  0
 36 37  1  0  0  0  0
 36 38  1  0  0  0  0
M  END
>  <minimizedAffinity>
-7.35290289

$$$$

 OpenBabel03242510003D

 38 41  0  0  0  0  0  0  0  0999 V2000
   46.1520   34.4210   42.5580 C   0  0  0  0  0  0  0  0  0  0  0  0
   45.1530   35.2430   42.1980 N   0  0  0  0  0  0  0  0  0  0  0  0
   44.6960   34.9030   41.0370 O   0  0  0  0  0  0  0  0  0  0  0  0
   45.3520   33.8720   40.5880 C   0  0  0  0  0  0  0  0  0  0  0  0
   46.2780   33.5450   41.5270 N   0  0  0  0  0  0  0  0  0  0  0  0
   45.1480   33.1710   39.3030 C   0  0  0  0  0  0  0  0  0  0  0  0
   46.1350   33.0010   38.3580 C   0  0  0  0  0  3  0  0  0  0  0  0
   45.8540   32.3260   37.1700 C   0  0  0  0  0  3  0  0  0  0  0  0
   44.5820   31.8190   36.9270 C   0  0  0  0  0  3  0  0  0  0  0  0
   43.6000   31.9940   37.8760 C   0  0  0  0  0  3  0  0  0  0  0  0
   43.8920   32.6610   39.0410 C   0  0  0  0  0  0  0  0  0  0  0  0
   42.7940   32.7770   39.9430 N   0  0  0  0  0  0  0  0  0  0  0  0
   41.9300   33.7510   39.5720 C   0  0  0  0  0  3  0  0  0  0  0  0
   40.7990   34.0280   40.3060 C   0  0  0  0  0  0  0  0  0  0  0  0
   39.8330   35.0910   39.9250 C   0  0  0  0  0  1  0  0  0  0  0  0
   40.5730   33.2630   41.4560 C   0  0  0  0  0  0  0  0  0  0  0  0
   39.5470   33.4700   42.1770 O   0  0  0  0  0  0  0  0  0  0  0  0
   41.4540   32.3090   41.7820 N   0  0  0  0  0  0  0  0  0  0  0  0
   42.5560   32.0510   41.0520 C   0  0  0  0  0  0  0  0  0  0  0  0
   43.4210   31.1740   41.3030 O   0  0  0  0  0  0  0  0  0  0  0  0
   41.2820   31.7480   42.6290 H   0  0  0  0  0  0  0  0  0  0  0  0
   47.0350   34.2140   43.5990 O   0  0  0  0  0  0  0  0  0  0  0  0
   45.6640   32.9710   46.7350 C   0  0  0  0  0  0  0  0  0  0  0  0
   46.2770   31.7090   46.7990 C   0  0  0  0  0  0  0  0  0  0  0  0
   47.1400   31.3180   45.7700 C   0  0  0  0  0  0  0  0  0  0  0  0
   47.3370   32.2090   44.7440 N   0  0  0  0  0  0  0  0  0  0  0  0
   46.7430   33.4210   44.6960 C   0  0  0  0  0  0  0  0  0  0  0  0
   45.9030   33.8100   45.6910 N   0  0  0  0  0  0  0  0  0  0  0  0
   47.7590   30.0840   45.7910 N   0  0  0  0  0  0  0  0  0  0  0  0
   48.3910   29.8110   45.0250 H   0  0  0  0  0  0  0  0  0  0  0  0
   47.5890   29.4350   46.5740 H   0  0  0  0  0  0  0  0  0  0  0  0
   45.9410   30.9060   47.9720 C   0  0  0  0  0  0  0  0  0  0  0  0
   45.0030   29.7450   47.6200 C   0  0  0  0  0  1  0  0  0  0  0  0
   45.3500   31.6160   49.1340 C   0  0  0  0  0  1  0  0  0  0  0  0
   47.2460   30.2860   48.4650 C   0  0  0  0  0  1  0  0  0  0  0  0
   44.7960   33.4140   47.7210 N   0  0  0  0  0  0  0  0  0  0  0  0
   44.3620   34.3450   47.6450 H   0  0  0  0  0  0  0  0  0  0  0  0
   44.5840   32.8130   48.5300 H   0  0  0  0  0  0  0  0  0  0  0  0
  1 22  1  0  0  0  0
  2  1  2  0  0  0  0
  3  2  1  0  0  0  0
  4  3  1  0  0  0  0
  4  5  2  0  0  0  0
  5  1  1  0  0  0  0
  6  4  1  0  0  0  0
  7  6  2  0  0  0  0
  8  7  1  0  0  0  0
  9  8  2  0  0  0  0
  9 10  1  0  0  0  0
 10 11  2  0  0  0  0
 11  6  1  0  0  0  0
 11 12  1  0  0  0  0
 12 19  1  0  0  0  0
 13 12  1  0  0  0  0
 13 14  2  0  0  0  0
 14 16  1  0  0  0  0
 15 14  1  0  0  0  0
 16 18  1  0  0  0  0
 16 17  2  0  0  0  0
 18 21  1  0  0  0  0
 19 20  2  0  0  0  0
 19 18  1  0  0  0  0
 22 27  1  0  0  0  0
 23 24  1  0  0  0  0
 23 36  1  0  0  0  0
 24 32  1  0  0  0  0
 25 29  1  0  0  0  0
 25 24  2  0  0  0  0
 26 25  1  0  0  0  0
 27 26  2  0  0  0  0
 27 28  1  0  0  0  0
 28 23  2  0  0  0  0
 29 31  1  0  0  0  0
 30 29  1  0  0  0  0
 32 35  1  0  0  0  0
 32 34  1  0  0  0  0
 33 32  1  0  0  0  0
 36 38  1  0  0  0  0
 37 36  1  0  0  0  0
M  END
>  <minimizedAffinity>
-7.28197622

$$$$

 OpenBabel03242510003D

 38 41  0  0  0  0  0  0  0  0999 V2000
   45.4380   34.5480   42.1460 C   0  0  0  0  0  0  0  0  0  0  0  0
   45.6010   34.1340   40.8790 N   0  0  0  0  0  0  0  0  0  0  0  0
   44.4630   34.1290   40.2650 O   0  0  0  0  0  0  0  0  0  0  0  0
   43.5220   34.5250   41.0730 C   0  0  0  0  0  0  0  0  0  0  0  0
   44.1080   34.7970   42.2690 N   0  0  0  0  0  0  0  0  0  0  0  0
   42.0820   34.6630   40.7720 C   0  0  0  0  0  0  0  0  0  0  0  0
   41.4110   35.8650   40.7720 C   0  0  0  0  0  3  0  0  0  0  0  0
   40.0480   35.9020   40.4770 C   0  0  0  0  0  3  0  0  0  0  0  0
   39.3550   34.7340   40.1810 C   0  0  0  0  0  3  0  0  0  0  0  0
   40.0330   33.5360   40.1840 C   0  0  0  0  0  3  0  0  0  0  0  0
   41.3740   33.5150   40.4760 C   0  0  0  0  0  0  0  0  0  0  0  0
   41.9620   32.2160   40.4470 N   0  0  0  0  0  0  0  0  0  0  0  0
   41.9070   31.6040   41.6530 C   0  0  0  0  0  3  0  0  0  0  0  0
   42.4170   30.3400   41.8430 C   0  0  0  0  0  0  0  0  0  0  0  0
   42.3730   29.6430   43.1550 C   0  0  0  0  0  1  0  0  0  0  0  0
   43.0000   29.7070   40.7390 C   0  0  0  0  0  0  0  0  0  0  0  0
   43.4910   28.5400   40.8490 O   0  0  0  0  0  0  0  0  0  0  0  0
   43.0310   30.3520   39.5660 N   0  0  0  0  0  0  0  0  0  0  0  0
   42.5260   31.5880   39.3970 C   0  0  0  0  0  0  0  0  0  0  0  0
   42.5230   32.2470   38.3260 O   0  0  0  0  0  0  0  0  0  0  0  0
   43.4600   29.8810   38.7560 H   0  0  0  0  0  0  0  0  0  0  0  0
   46.1740   34.7810   43.2900 O   0  0  0  0  0  0  0  0  0  0  0  0
   46.8690   31.9730   45.5020 C   0  0  0  0  0  0  0  0  0  0  0  0
   46.0930   32.3290   46.6170 C   0  0  0  0  0  0  0  0  0  0  0  0
   45.3550   33.5170   46.5830 C   0  0  0  0  0  0  0  0  0  0  0  0
   45.4370   34.2730   45.4400 N   0  0  0  0  0  0  0  0  0  0  0  0
   46.1870   33.9190   44.3740 C   0  0  0  0  0  0  0  0  0  0  0  0
   46.9070   32.7660   44.3970 N   0  0  0  0  0  0  0  0  0  0  0  0
   44.5830   33.9060   47.6600 N   0  0  0  0  0  0  0  0  0  0  0  0
   44.0460   34.7840   47.6180 H   0  0  0  0  0  0  0  0  0  0  0  0
   44.5430   33.3180   48.5050 H   0  0  0  0  0  0  0  0  0  0  0  0
   46.1350   31.3920   47.7370 C   0  0  0  0  0  0  0  0  0  0  0  0
   45.6930   32.0500   49.0500 C   0  0  0  0  0  1  0  0  0  0  0  0
   47.4250   30.7040   47.9990 C   0  0  0  0  0  1  0  0  0  0  0  0
   45.1190   30.2950   47.4270 C   0  0  0  0  0  1  0  0  0  0  0  0
   47.6260   30.8110   45.4770 N   0  0  0  0  0  0  0  0  0  0  0  0
   48.1850   30.5790   44.6430 H   0  0  0  0  0  0  0  0  0  0  0  0
   47.6290   30.1810   46.2910 H   0  0  0  0  0  0  0  0  0  0  0  0
  1  5  1  0  0  0  0
  1 22  1  0  0  0  0
  2  1  2  0  0  0  0
  3  2  1  0  0  0  0
  3  4  1  0  0  0  0
  4  5  2  0  0  0  0
  6  7  1  0  0  0  0
  6  4  1  0  0  0  0
  8  7  2  0  0  0  0
  9 10  2  0  0  0  0
  9  8  1  0  0  0  0
 10 11  1  0  0  0  0
 11  6  2  0  0  0  0
 12 11  1  0  0  0  0
 12 13  1  0  0  0  0
 13 14  2  0  0  0  0
 14 15  1  0  0  0  0
 16 17  2  0  0  0  0
 16 14  1  0  0  0  0
 18 16  1  0  0  0  0
 19 18  1  0  0  0  0
 19 12  1  0  0  0  0
 20 19  2  0  0  0  0
 21 18  1  0  0  0  0
 22 27  1  0  0  0  0
 23 24  1  0  0  0  0
 24 32  1  0  0  0  0
 25 24  2  0  0  0  0
 25 29  1  0  0  0  0
 26 25  1  0  0  0  0
 27 28  1  0  0  0  0
 27 26  2  0  0  0  0
 28 23  2  0  0  0  0
 29 31  1  0  0  0  0
 30 29  1  0  0  0  0
 32 34  1  0  0  0  0
 32 33  1  0  0  0  0
 35 32  1  0  0  0  0
 36 23  1  0  0  0  0
 36 38  1  0  0  0  0
 37 36  1  0  0  0  0
M  END
>  <minimizedAffinity>
-7.2393446

$$$$

 OpenBabel03242510003D

 38 41  0  0  0  0  0  0  0  0999 V2000
   44.7700   32.3360   37.7730 C   0  0  0  0  0  0  0  0  0  0  0  0
   43.9570   31.2970   37.5210 N   0  0  0  0  0  0  0  0  0  0  0  0
   42.7420   31.5980   37.8450 O   0  0  0  0  0  0  0  0  0  0  0  0
   42.6960   32.8110   38.3140 C   0  0  0  0  0  0  0  0  0  0  0  0
   43.9630   33.3030   38.2810 N   0  0  0  0  0  0  0  0  0  0  0  0
   41.5040   33.5400   38.7980 C   0  0  0  0  0  0  0  0  0  0  0  0
   40.5000   33.9970   37.9740 C   0  0  0  0  0  3  0  0  0  0  0  0
   39.4100   34.6780   38.5170 C   0  0  0  0  0  3  0  0  0  0  0  0
   39.3250   34.9030   39.8860 C   0  0  0  0  0  3  0  0  0  0  0  0
   40.3340   34.4430   40.7030 C   0  0  0  0  0  3  0  0  0  0  0  0
   41.4010   33.7750   40.1540 C   0  0  0  0  0  0  0  0  0  0  0  0
   42.3790   33.3500   41.1010 N   0  0  0  0  0  0  0  0  0  0  0  0
   43.2800   34.3230   41.3740 C   0  0  0  0  0  3  0  0  0  0  0  0
   44.3090   34.1200   42.2650 C   0  0  0  0  0  0  0  0  0  0  0  0
   45.3140   35.1680   42.5850 C   0  0  0  0  0  1  0  0  0  0  0  0
   44.3920   32.8670   42.8820 C   0  0  0  0  0  0  0  0  0  0  0  0
   45.3200   32.6160   43.7130 O   0  0  0  0  0  0  0  0  0  0  0  0
   43.4770   31.9360   42.5810 N   0  0  0  0  0  0  0  0  0  0  0  0
   42.4760   32.1510   41.7060 C   0  0  0  0  0  0  0  0  0  0  0  0
   41.5880   31.3230   41.3800 O   0  0  0  0  0  0  0  0  0  0  0  0
   43.5420   31.0150   43.0380 H   0  0  0  0  0  0  0  0  0  0  0  0
   46.1010   32.6910   37.6770 O   0  0  0  0  0  0  0  0  0  0  0  0
   48.2960   34.4740   39.9710 C   0  0  0  0  0  0  0  0  0  0  0  0
   48.3640   33.5510   41.0270 C   0  0  0  0  0  0  0  0  0  0  0  0
   47.6600   32.3470   40.9270 C   0  0  0  0  0  0  0  0  0  0  0  0
   46.9330   32.1400   39.7810 N   0  0  0  0  0  0  0  0  0  0  0  0
   46.8760   33.0350   38.7720 C   0  0  0  0  0  0  0  0  0  0  0  0
   47.5580   34.2080   38.8600 N   0  0  0  0  0  0  0  0  0  0  0  0
   47.6970   31.4150   41.9450 N   0  0  0  0  0  0  0  0  0  0  0  0
   47.1720   30.5330   41.8560 H   0  0  0  0  0  0  0  0  0  0  0  0
   48.2500   31.6010   42.7940 H   0  0  0  0  0  0  0  0  0  0  0  0
   49.1920   33.9550   42.1610 C   0  0  0  0  0  0  0  0  0  0  0  0
   49.3940   35.4750   42.2090 C   0  0  0  0  0  1  0  0  0  0  0  0
   50.5320   33.3270   42.2820 C   0  0  0  0  0  1  0  0  0  0  0  0
   48.4230   33.5710   43.4220 C   0  0  0  0  0  1  0  0  0  0  0  0
   48.9670   35.6870   40.0120 N   0  0  0  0  0  0  0  0  0  0  0  0
   48.8950   36.3420   39.2210 H   0  0  0  0  0  0  0  0  0  0  0  0
   49.5370   35.9330   40.8340 H   0  0  0  0  0  0  0  0  0  0  0  0
  1  5  1  0  0  0  0
  2  1  2  0  0  0  0
  2  3  1  0  0  0  0
  3  4  1  0  0  0  0
  4  6  1  0  0  0  0
  5  4  2  0  0  0  0
  6 11  1  0  0  0  0
  7  8  1  0  0  0  0
  7  6  2  0  0  0  0
  8  9  2  0  0  0  0
  9 10  1  0  0  0  0
 11 10  2  0  0  0  0
 11 12  1  0  0  0  0
 12 13  1  0  0  0  0
 12 19  1  0  0  0  0
 13 14  2  0  0  0  0
 14 15  1  0  0  0  0
 14 16  1  0  0  0  0
 16 17  2  0  0  0  0
 18 16  1  0  0  0  0
 18 21  1  0  0  0  0
 19 18  1  0  0  0  0
 20 19  2  0  0  0  0
 22  1  1  0  0  0  0
 22 27  1  0  0  0  0
 23 36  1  0  0  0  0
 23 24  1  0  0  0  0
 24 32  1  0  0  0  0
 25 24  2  0  0  0  0
 25 29  1  0  0  0  0
 26 25  1  0  0  0  0
 27 28  1  0  0  0  0
 27 26  2  0  0  0  0
 28 23  2  0  0  0  0
 29 31  1  0  0  0  0
 30 29  1  0  0  0  0
 32 33  1  0  0  0  0
 32 34  1  0  0  0  0
 32 35  1  0  0  0  0
 36 38  1  0  0  0  0
 37 36  1  0  0  0  0
M  END
>  <minimizedAffinity>
-7.1969161

$$$$

 OpenBabel03242510003D

 38 41  0  0  0  0  0  0  0  0999 V2000
   45.2670   33.1960   41.9940 C   0  0  0  0  0  0  0  0  0  0  0  0
   45.1940   33.1640   40.6530 N   0  0  0  0  0  0  0  0  0  0  0  0
   44.1680   32.4680   40.2830 O   0  0  0  0  0  0  0  0  0  0  0  0
   43.5360   32.0210   41.3290 C   0  0  0  0  0  0  0  0  0  0  0  0
   44.2070   32.4640   42.4250 N   0  0  0  0  0  0  0  0  0  0  0  0
   42.3160   31.1860   41.3490 C   0  0  0  0  0  0  0  0  0  0  0  0
   42.1910   30.0300   42.0860 C   0  0  0  0  0  3  0  0  0  0  0  0
   41.0020   29.3030   42.0450 C   0  0  0  0  0  3  0  0  0  0  0  0
   39.9350   29.7320   41.2650 C   0  0  0  0  0  3  0  0  0  0  0  0
   40.0680   30.8890   40.5300 C   0  0  0  0  0  3  0  0  0  0  0  0
   41.2440   31.5940   40.5800 C   0  0  0  0  0  0  0  0  0  0  0  0
   41.2590   32.7720   39.7760 N   0  0  0  0  0  0  0  0  0  0  0  0
   40.8460   33.8630   40.4640 C   0  0  0  0  0  3  0  0  0  0  0  0
   40.7870   35.1050   39.8730 C   0  0  0  0  0  0  0  0  0  0  0  0
   40.3380   36.3220   40.6010 C   0  0  0  0  0  1  0  0  0  0  0  0
   41.1680   35.2010   38.5300 C   0  0  0  0  0  0  0  0  0  0  0  0
   41.1340   36.3180   37.9270 O   0  0  0  0  0  0  0  0  0  0  0  0
   41.5690   34.0940   37.8910 N   0  0  0  0  0  0  0  0  0  0  0  0
   41.6220   32.8860   38.4850 C   0  0  0  0  0  0  0  0  0  0  0  0
   41.9880   31.8120   37.9440 O   0  0  0  0  0  0  0  0  0  0  0  0
   41.8500   34.1690   36.9030 H   0  0  0  0  0  0  0  0  0  0  0  0
   46.0520   33.7190   43.0030 O   0  0  0  0  0  0  0  0  0  0  0  0
   47.0920   31.5070   45.7010 C   0  0  0  0  0  0  0  0  0  0  0  0
   46.3660   32.0520   46.7720 C   0  0  0  0  0  0  0  0  0  0  0  0
   45.5420   33.1600   46.5440 C   0  0  0  0  0  0  0  0  0  0  0  0
   45.4950   33.6520   45.2630 N   0  0  0  0  0  0  0  0  0  0  0  0
   46.1980   33.1160   44.2410 C   0  0  0  0  0  0  0  0  0  0  0  0
   47.0000   32.0400   44.4530 N   0  0  0  0  0  0  0  0  0  0  0  0
   44.8160   33.7290   47.5700 N   0  0  0  0  0  0  0  0  0  0  0  0
   44.2140   34.5450   47.3850 H   0  0  0  0  0  0  0  0  0  0  0  0
   44.8740   33.3390   48.5220 H   0  0  0  0  0  0  0  0  0  0  0  0
   46.5500   31.3860   48.0590 C   0  0  0  0  0  0  0  0  0  0  0  0
   46.5790   29.8600   47.9140 C   0  0  0  0  0  1  0  0  0  0  0  0
   45.5790   31.7100   49.1360 C   0  0  0  0  0  1  0  0  0  0  0  0
   47.9220   31.8080   48.5780 C   0  0  0  0  0  1  0  0  0  0  0  0
   47.9290   30.4130   45.8650 N   0  0  0  0  0  0  0  0  0  0  0  0
   48.4480   30.0370   45.0590 H   0  0  0  0  0  0  0  0  0  0  0  0
   48.0310   29.9760   46.7920 H   0  0  0  0  0  0  0  0  0  0  0  0
  1  5  1  0  0  0  0
  1 22  1  0  0  0  0
  2  1  2  0  0  0  0
  3  2  1  0  0  0  0
  3  4  1  0  0  0  0
  4  6  1  0  0  0  0
  4  5  2  0  0  0  0
  6  7  1  0  0  0  0
  8  7  2  0  0  0  0
  9  8  1  0  0  0  0
 10 11  1  0  0  0  0
 10  9  2  0  0  0  0
 11  6  2  0  0  0  0
 12 13  1  0  0  0  0
 12 11  1  0  0  0  0
 14 13  2  0  0  0  0
 14 15  1  0  0  0  0
 16 14  1  0  0  0  0
 17 16  2  0  0  0  0
 18 19  1  0  0  0  0
 18 16  1  0  0  0  0
 19 12  1  0  0  0  0
 20 19  2  0  0  0  0
 21 18  1  0  0  0  0
 22 27  1  0  0  0  0
 23 36  1  0  0  0  0
 23 24  1  0  0  0  0
 24 32  1  0  0  0  0
 25 24  2  0  0  0  0
 25 29  1  0  0  0  0
 26 25  1  0  0  0  0
 27 28  1  0  0  0  0
 27 26  2  0  0  0  0
 28 23  2  0  0  0  0
 29 31  1  0  0  0  0
 30 29  1  0  0  0  0
 32 35  1  0  0  0  0
 32 34  1  0  0  0  0
 33 32  1  0  0  0  0
 36 38  1  0  0  0  0
 37 36  1  0  0  0  0
M  END
>  <minimizedAffinity>
-7.0871191

$$$$

 OpenBabel03242510003D

 38 41  0  0  0  0  0  0  0  0999 V2000
   44.6850   32.2590   37.7600 C   0  0  0  0  0  0  0  0  0  0  0  0
   43.8340   31.2690   37.4470 N   0  0  0  0  0  0  0  0  0  0  0  0
   42.6270   31.6060   37.7660 O   0  0  0  0  0  0  0  0  0  0  0  0
   42.6230   32.7970   38.2900 C   0  0  0  0  0  0  0  0  0  0  0  0
   43.9100   33.2360   38.3000 N   0  0  0  0  0  0  0  0  0  0  0  0
   41.4550   33.5530   38.7890 C   0  0  0  0  0  0  0  0  0  0  0  0
   40.4450   34.0220   37.9800 C   0  0  0  0  0  3  0  0  0  0  0  0
   39.3780   34.7290   38.5360 C   0  0  0  0  0  3  0  0  0  0  0  0
   39.3220   34.9670   39.9050 C   0  0  0  0  0  3  0  0  0  0  0  0
   40.3370   34.4950   40.7070 C   0  0  0  0  0  3  0  0  0  0  0  0
   41.3810   33.8020   40.1450 C   0  0  0  0  0  0  0  0  0  0  0  0
   42.3680   33.3660   41.0780 N   0  0  0  0  0  0  0  0  0  0  0  0
   43.2830   34.3290   41.3370 C   0  0  0  0  0  3  0  0  0  0  0  0
   44.3230   34.1160   42.2140 C   0  0  0  0  0  0  0  0  0  0  0  0
   45.3440   35.1530   42.5190 C   0  0  0  0  0  1  0  0  0  0  0  0
   44.4010   32.8610   42.8290 C   0  0  0  0  0  0  0  0  0  0  0  0
   45.3380   32.6010   43.6470 O   0  0  0  0  0  0  0  0  0  0  0  0
   43.4720   31.9410   42.5410 N   0  0  0  0  0  0  0  0  0  0  0  0
   42.4610   32.1660   41.6820 C   0  0  0  0  0  0  0  0  0  0  0  0
   41.5590   31.3480   41.3680 O   0  0  0  0  0  0  0  0  0  0  0  0
   43.5340   31.0190   42.9980 H   0  0  0  0  0  0  0  0  0  0  0  0
   46.0310   32.5620   37.7010 O   0  0  0  0  0  0  0  0  0  0  0  0
   47.6530   32.3800   40.9550 C   0  0  0  0  0  0  0  0  0  0  0  0
   48.3640   33.5910   40.9540 C   0  0  0  0  0  0  0  0  0  0  0  0
   48.2710   34.4350   39.8420 C   0  0  0  0  0  0  0  0  0  0  0  0
   47.4740   34.0180   38.8040 N   0  0  0  0  0  0  0  0  0  0  0  0
   46.7940   32.8510   38.8190 C   0  0  0  0  0  0  0  0  0  0  0  0
   46.8790   32.0250   39.8950 N   0  0  0  0  0  0  0  0  0  0  0  0
   48.9570   35.6320   39.7980 N   0  0  0  0  0  0  0  0  0  0  0  0
   48.8780   36.2410   38.9720 H   0  0  0  0  0  0  0  0  0  0  0  0
   49.5500   35.9160   40.5920 H   0  0  0  0  0  0  0  0  0  0  0  0
   49.1560   33.8560   42.1520 C   0  0  0  0  0  0  0  0  0  0  0  0
   50.5090   33.1350   42.1140 C   0  0  0  0  0  1  0  0  0  0  0  0
   48.5280   33.5490   43.4630 C   0  0  0  0  0  1  0  0  0  0  0  0
   49.4520   35.3530   42.1580 C   0  0  0  0  0  1  0  0  0  0  0  0
   47.7090   31.4990   42.0250 N   0  0  0  0  0  0  0  0  0  0  0  0
   47.1760   30.6180   41.9950 H   0  0  0  0  0  0  0  0  0  0  0  0
   48.2840   31.7240   42.8490 H   0  0  0  0  0  0  0  0  0  0  0  0
  1  5  1  0  0  0  0
  2  1  2  0  0  0  0
  2  3  1  0  0  0  0
  3  4  1  0  0  0  0
  4  5  2  0  0  0  0
  4  6  1  0  0  0  0
  6 11  1  0  0  0  0
  7  8  1  0  0  0  0
  7  6  2  0  0  0  0
  8  9  2  0  0  0  0
  9 10  1  0  0  0  0
 11 10  2  0  0  0  0
 11 12  1  0  0  0  0
 12 13  1  0  0  0  0
 12 19  1  0  0  0  0
 13 14  2  0  0  0  0
 14 15  1  0  0  0  0
 14 16  1  0  0  0  0
 16 17  2  0  0  0  0
 18 16  1  0  0  0  0
 18 21  1  0  0  0  0
 19 18  1  0  0  0  0
 20 19  2  0  0  0  0
 22  1  1  0  0  0  0
 22 27  1  0  0  0  0
 23 36  1  0  0  0  0
 24 23  1  0  0  0  0
 24 32  1  0  0  0  0
 25 24  2  0  0  0  0
 26 27  2  0  0  0  0
 26 25  1  0  0  0  0
 27 28  1  0  0  0  0
 28 23  2  0  0  0  0
 29 25  1  0  0  0  0
 29 31  1  0  0  0  0
 30 29  1  0  0  0  0
 32 35  1  0  0  0  0
 32 34  1  0  0  0  0
 33 32  1  0  0  0  0
 36 38  1  0  0  0  0
 37 36  1  0  0  0  0
M  END
>  <minimizedAffinity>
-6.99463463

$$$$

 OpenBabel03242510003D

 38 41  0  0  0  0  0  0  0  0999 V2000
   46.5380   34.1580   41.8390 C   0  0  0  0  0  0  0  0  0  0  0  0
   47.4040   35.1840   41.8010 N   0  0  0  0  0  0  0  0  0  0  0  0
   48.5390   34.7860   41.3260 O   0  0  0  0  0  0  0  0  0  0  0  0
   48.4800   33.5180   41.0390 C   0  0  0  0  0  0  0  0  0  0  0  0
   47.2270   33.0940   41.3530 N   0  0  0  0  0  0  0  0  0  0  0  0
   49.5570   32.6750   40.4780 C   0  0  0  0  0  0  0  0  0  0  0  0
   50.6670   32.2780   41.1880 C   0  0  0  0  0  3  0  0  0  0  0  0
   51.6360   31.4820   40.5780 C   0  0  0  0  0  3  0  0  0  0  0  0
   51.4940   31.0810   39.2550 C   0  0  0  0  0  3  0  0  0  0  0  0
   50.3810   31.4830   38.5510 C   0  0  0  0  0  3  0  0  0  0  0  0
   49.4360   32.2670   39.1650 C   0  0  0  0  0  0  0  0  0  0  0  0
   48.3310   32.6160   38.3330 N   0  0  0  0  0  0  0  0  0  0  0  0
   47.4500   31.5970   38.2010 C   0  0  0  0  0  3  0  0  0  0  0  0
   46.3110   31.7260   37.4400 C   0  0  0  0  0  0  0  0  0  0  0  0
   45.3250   30.6250   37.2750 C   0  0  0  0  0  1  0  0  0  0  0  0
   46.0950   32.9530   36.8030 C   0  0  0  0  0  0  0  0  0  0  0  0
   45.0620   33.1350   36.0840 O   0  0  0  0  0  0  0  0  0  0  0  0
   46.9940   33.9320   36.9630 N   0  0  0  0  0  0  0  0  0  0  0  0
   48.1040   33.7900   37.7130 C   0  0  0  0  0  0  0  0  0  0  0  0
   48.9850   34.6660   37.9040 O   0  0  0  0  0  0  0  0  0  0  0  0
   46.8300   34.8340   36.4940 H   0  0  0  0  0  0  0  0  0  0  0  0
   45.2350   33.8810   42.2040 O   0  0  0  0  0  0  0  0  0  0  0  0
   42.9270   33.7210   39.3930 C   0  0  0  0  0  0  0  0  0  0  0  0
   41.9270   34.6030   39.8340 C   0  0  0  0  0  0  0  0  0  0  0  0
   42.0680   35.2270   41.0780 C   0  0  0  0  0  0  0  0  0  0  0  0
   43.1970   34.9330   41.8020 N   0  0  0  0  0  0  0  0  0  0  0  0
   44.1520   34.0830   41.3660 C   0  0  0  0  0  0  0  0  0  0  0  0
   44.0240   33.4720   40.1580 N   0  0  0  0  0  0  0  0  0  0  0  0
   41.1060   36.0980   41.5500 N   0  0  0  0  0  0  0  0  0  0  0  0
   41.2260   36.5480   42.4680 H   0  0  0  0  0  0  0  0  0  0  0  0
   40.2690   36.2960   40.9850 H   0  0  0  0  0  0  0  0  0  0  0  0
   40.8030   34.7870   38.9190 C   0  0  0  0  0  0  0  0  0  0  0  0
   39.5230   35.1900   39.6600 C   0  0  0  0  0  1  0  0  0  0  0  0
   40.4590   33.6490   38.0280 C   0  0  0  0  0  1  0  0  0  0  0  0
   41.1710   35.9520   38.0040 C   0  0  0  0  0  1  0  0  0  0  0  0
   42.8420   33.0680   38.1720 N   0  0  0  0  0  0  0  0  0  0  0  0
   43.5920   32.4270   37.8790 H   0  0  0  0  0  0  0  0  0  0  0  0
   42.0290   33.2240   37.5600 H   0  0  0  0  0  0  0  0  0  0  0  0
  1 22  1  0  0  0  0
  2  1  2  0  0  0  0
  3  2  1  0  0  0  0
  4  3  1  0  0  0  0
  4  5  2  0  0  0  0
  5  1  1  0  0  0  0
  6  4  1  0  0  0  0
  6  7  1  0  0  0  0
  8  7  2  0  0  0  0
  9  8  1  0  0  0  0
 10 11  1  0  0  0  0
 10  9  2  0  0  0  0
 11  6  2  0  0  0  0
 12 11  1  0  0  0  0
 13 12  1  0  0  0  0
 14 13  2  0  0  0  0
 15 14  1  0  0  0  0
 16 18  1  0  0  0  0
 16 14  1  0  0  0  0
 17 16  2  0  0  0  0
 18 19  1  0  0  0  0
 19 20  2  0  0  0  0
 19 12  1  0  0  0  0
 21 18  1  0  0  0  0
 23 24  2  0  0  0  0
 23 28  1  0  0  0  0
 24 25  1  0  0  0  0
 25 29  1  0  0  0  0
 25 26  2  0  0  0  0
 27 26  1  0  0  0  0
 27 22  1  0  0  0  0
 28 27  2  0  0  0  0
 29 30  1  0  0  0  0
 31 29  1  0  0  0  0
 32 33  1  0  0  0  0
 32 24  1  0  0  0  0
 34 32  1  0  0  0  0
 35 32  1  0  0  0  0
 36 23  1  0  0  0  0
 37 36  1  0  0  0  0
 38 36  1  0  0  0  0
M  END
>  <minimizedAffinity>
-6.83466578

$$$$
