
 OpenBabel03242509593D

 38 42  0  0  0  0  0  0  0  0999 V2000
   44.4400   35.4610   43.3980 C   0  0  0  0  0  0  0  0  0  0  0  0
   44.6300   35.6400   44.7050 N   0  0  0  0  0  0  0  0  0  0  0  0
   45.3280   34.6690   45.1880 O   0  0  0  0  0  0  0  0  0  0  0  0
   45.6300   33.8070   44.2330 C   0  0  0  0  0  0  0  0  0  0  0  0
   45.0750   34.3040   43.1160 N   0  0  0  0  0  0  0  0  0  0  0  0
   46.4110   32.5630   44.3610 C   0  0  0  0  0  0  0  0  0  0  0  0
   46.1230   31.5750   45.2710 C   0  0  0  0  0  3  0  0  0  0  0  0
   46.9270   30.4330   45.3170 C   0  0  0  0  0  3  0  0  0  0  0  0
   48.0070   30.2760   44.4650 C   0  0  0  0  0  3  0  0  0  0  0  0
   48.2770   31.2790   43.5620 C   0  0  0  0  0  3  0  0  0  0  0  0
   47.4890   32.4010   43.5140 C   0  0  0  0  0  0  0  0  0  0  0  0
   47.9230   33.3520   42.4950 C   0  0  0  0  0  0  0  0  0  0  0  0
   48.7100   34.3610   43.0170 C   0  0  0  0  0  3  0  0  0  0  0  0
   49.2260   35.3640   42.2080 C   0  0  0  0  0  3  0  0  0  0  0  0
   48.9330   35.3380   40.8500 C   0  0  0  0  0  3  0  0  0  0  0  0
   48.1450   34.3310   40.3230 C   0  0  0  0  0  0  0  0  0  0  0  0
   47.8220   34.2510   38.9730 C   0  0  0  0  0  3  0  0  0  0  0  0
   47.0300   33.2180   38.5010 C   0  0  0  0  0  3  0  0  0  0  0  0
   46.5540   32.2560   39.3690 C   0  0  0  0  0  3  0  0  0  0  0  0
   46.8510   32.2940   40.7210 C   0  0  0  0  0  3  0  0  0  0  0  0
   47.6430   33.3430   41.1430 C   0  0  0  0  0  0  0  0  0  0  0  0
   43.8300   36.0630   42.3210 O   0  0  0  0  0  0  0  0  0  0  0  0
   40.9280   34.2890   41.0270 C   0  0  0  0  0  0  0  0  0  0  0  0
   41.3040   34.1360   39.6720 C   0  0  0  0  0  0  0  0  0  0  0  0
   42.5360   34.6490   39.2530 C   0  0  0  0  0  0  0  0  0  0  0  0
   43.3130   35.2730   40.1940 N   0  0  0  0  0  0  0  0  0  0  0  0
   42.9410   35.4090   41.4830 C   0  0  0  0  0  0  0  0  0  0  0  0
   41.7490   34.9200   41.9080 N   0  0  0  0  0  0  0  0  0  0  0  0
   42.9360   34.5180   37.9370 N   0  0  0  0  0  0  0  0  0  0  0  0
   43.8440   34.8970   37.6340 H   0  0  0  0  0  0  0  0  0  0  0  0
   42.3250   34.0410   37.2580 H   0  0  0  0  0  0  0  0  0  0  0  0
   40.3350   33.4420   38.8350 C   0  0  0  0  0  0  0  0  0  0  0  0
   39.5670   34.3970   37.9220 C   0  0  0  0  0  1  0  0  0  0  0  0
   39.3270   32.5970   39.5340 C   0  0  0  0  0  1  0  0  0  0  0  0
   41.1290   32.5010   37.9320 C   0  0  0  0  0  1  0  0  0  0  0  0
   39.7160   33.8100   41.5010 N   0  0  0  0  0  0  0  0  0  0  0  0
   39.4660   33.9330   42.4920 H   0  0  0  0  0  0  0  0  0  0  0  0
   39.0670   33.3290   40.8610 H   0  0  0  0  0  0  0  0  0  0  0  0
  1  2  2  0  0  0  0
  2  3  1  0  0  0  0
  4  6  1  0  0  0  0
  4  3  1  0  0  0  0
  5  1  1  0  0  0  0
  5  4  2  0  0  0  0
  6  7  1  0  0  0  0
  7  8  2  0  0  0  0
  9  8  1  0  0  0  0
 10  9  2  0  0  0  0
 11 10  1  0  0  0  0
 11  6  2  0  0  0  0
 12 13  1  0  0  0  0
 12 11  1  0  0  0  0
 14 13  2  0  0  0  0
 15 14  1  0  0  0  0
 16 15  2  0  0  0  0
 16 21  1  0  0  0  0
 17 16  1  0  0  0  0
 18 17  2  0  0  0  0
 18 19  1  0  0  0  0
 19 20  2  0  0  0  0
 20 21  1  0  0  0  0
 21 12  2  0  0  0  0
 22  1  1  0  0  0  0
 23 36  1  0  0  0  0
 23 28  1  0  0  0  0
 24 23  2  0  0  0  0
 25 24  1  0  0  0  0
 25 26  2  0  0  0  0
 26 27  1  0  0  0  0
 27 28  2  0  0  0  0
 27 22  1  0  0  0  0
 29 25  1  0  0  0  0
 30 29  1  0  0  0  0
 31 29  1  0  0  0  0
 32 34  1  0  0  0  0
 32 24  1  0  0  0  0
 33 32  1  0  0  0  0
 35 32  1  0  0  0  0
 36 37  1  0  0  0  0
 38 36  1  0  0  0  0
M  END
>  <minimizedAffinity>
-8.04814529

$$$$

 OpenBabel03242509593D

 38 42  0  0  0  0  0  0  0  0999 V2000
   44.2980   30.4150   42.0580 C   0  0  0  0  0  0  0  0  0  0  0  0
   45.5670   30.1550   41.7460 N   0  0  0  0  0  0  0  0  0  0  0  0
   46.3290   30.3780   42.7630 O   0  0  0  0  0  0  0  0  0  0  0  0
   45.6080   30.7930   43.7880 C   0  0  0  0  0  0  0  0  0  0  0  0
   44.3400   30.8160   43.3480 N   0  0  0  0  0  0  0  0  0  0  0  0
   46.0880   31.1570   45.1350 C   0  0  0  0  0  0  0  0  0  0  0  0
   46.2380   30.2520   46.1580 C   0  0  0  0  0  3  0  0  0  0  0  0
   46.6960   30.6960   47.4000 C   0  0  0  0  0  3  0  0  0  0  0  0
   47.0000   32.0280   47.6240 C   0  0  0  0  0  3  0  0  0  0  0  0
   46.8400   32.9170   46.5850 C   0  0  0  0  0  3  0  0  0  0  0  0
   46.3910   32.4840   45.3630 C   0  0  0  0  0  0  0  0  0  0  0  0
   46.2880   33.5620   44.3840 C   0  0  0  0  0  0  0  0  0  0  0  0
   45.1090   34.2720   44.5060 C   0  0  0  0  0  3  0  0  0  0  0  0
   44.8220   35.3410   43.6680 C   0  0  0  0  0  3  0  0  0  0  0  0
   45.7490   35.6890   42.6940 C   0  0  0  0  0  3  0  0  0  0  0  0
   46.9310   34.9810   42.5680 C   0  0  0  0  0  0  0  0  0  0  0  0
   47.8970   35.2850   41.6150 C   0  0  0  0  0  3  0  0  0  0  0  0
   49.0620   34.5420   41.5370 C   0  0  0  0  0  3  0  0  0  0  0  0
   49.2760   33.4920   42.4060 C   0  0  0  0  0  3  0  0  0  0  0  0
   48.3430   33.1540   43.3720 C   0  0  0  0  0  3  0  0  0  0  0  0
   47.1970   33.9220   43.4100 C   0  0  0  0  0  0  0  0  0  0  0  0
   43.0420   30.3990   41.4990 O   0  0  0  0  0  0  0  0  0  0  0  0
   40.7940   33.2360   41.1170 C   0  0  0  0  0  0  0  0  0  0  0  0
   41.2690   33.7780   39.8990 C   0  0  0  0  0  0  0  0  0  0  0  0
   42.3420   33.1520   39.2570 C   0  0  0  0  0  0  0  0  0  0  0  0
   42.8720   32.0370   39.8540 N   0  0  0  0  0  0  0  0  0  0  0  0
   42.4070   31.5320   41.0140 C   0  0  0  0  0  0  0  0  0  0  0  0
   41.3670   32.1260   41.6520 N   0  0  0  0  0  0  0  0  0  0  0  0
   42.8330   33.6550   38.0670 N   0  0  0  0  0  0  0  0  0  0  0  0
   43.6230   33.1900   37.5990 H   0  0  0  0  0  0  0  0  0  0  0  0
   42.4080   34.4940   37.6480 H   0  0  0  0  0  0  0  0  0  0  0  0
   40.5670   34.9670   39.4350 C   0  0  0  0  0  0  0  0  0  0  0  0
   41.3930   35.7750   38.4360 C   0  0  0  0  0  1  0  0  0  0  0  0
   40.0880   35.9150   40.4790 C   0  0  0  0  0  1  0  0  0  0  0  0
   39.3220   34.4800   38.6970 C   0  0  0  0  0  1  0  0  0  0  0  0
   39.7380   33.8150   41.8040 N   0  0  0  0  0  0  0  0  0  0  0  0
   39.4100   33.4010   42.6880 H   0  0  0  0  0  0  0  0  0  0  0  0
   39.2810   34.6600   41.4300 H   0  0  0  0  0  0  0  0  0  0  0  0
  1  5  1  0  0  0  0
  2  1  2  0  0  0  0
  2  3  1  0  0  0  0
  3  4  1  0  0  0  0
  4  6  1  0  0  0  0
  5  4  2  0  0  0  0
  6 11  2  0  0  0  0
  6  7  1  0  0  0  0
  7  8  2  0  0  0  0
  8  9  1  0  0  0  0
 10  9  2  0  0  0  0
 11 10  1  0  0  0  0
 12 13  1  0  0  0  0
 12 11  1  0  0  0  0
 14 13  2  0  0  0  0
 15 14  1  0  0  0  0
 16 15  2  0  0  0  0
 16 21  1  0  0  0  0
 17 16  1  0  0  0  0
 18 17  2  0  0  0  0
 18 19  1  0  0  0  0
 19 20  2  0  0  0  0
 20 21  1  0  0  0  0
 21 12  2  0  0  0  0
 22  1  1  0  0  0  0
 23 28  1  0  0  0  0
 23 36  1  0  0  0  0
 24 23  2  0  0  0  0
 25 26  2  0  0  0  0
 25 24  1  0  0  0  0
 26 27  1  0  0  0  0
 27 22  1  0  0  0  0
 27 28  2  0  0  0  0
 29 25  1  0  0  0  0
 30 29  1  0  0  0  0
 31 29  1  0  0  0  0
 32 24  1  0  0  0  0
 32 34  1  0  0  0  0
 33 32  1  0  0  0  0
 35 32  1  0  0  0  0
 36 37  1  0  0  0  0
 38 36  1  0  0  0  0
M  END
>  <minimizedAffinity>
-7.87277508

$$$$

 OpenBabel03242509593D

 38 42  0  0  0  0  0  0  0  0999 V2000
   44.1220   30.1460   42.0080 C   0  0  0  0  0  0  0  0  0  0  0  0
   44.7750   29.4820   42.9630 N   0  0  0  0  0  0  0  0  0  0  0  0
   45.9910   29.9060   43.0440 O   0  0  0  0  0  0  0  0  0  0  0  0
   46.2010   30.8600   42.1560 C   0  0  0  0  0  0  0  0  0  0  0  0
   45.0330   31.0090   41.5090 N   0  0  0  0  0  0  0  0  0  0  0  0
   47.4500   31.6080   41.9190 C   0  0  0  0  0  0  0  0  0  0  0  0
   48.2890   31.3690   40.8580 C   0  0  0  0  0  3  0  0  0  0  0  0
   49.4530   32.1290   40.7230 C   0  0  0  0  0  3  0  0  0  0  0  0
   49.7790   33.1170   41.6350 C   0  0  0  0  0  3  0  0  0  0  0  0
   48.9240   33.3390   42.6910 C   0  0  0  0  0  3  0  0  0  0  0  0
   47.7800   32.5940   42.8260 C   0  0  0  0  0  0  0  0  0  0  0  0
   46.9960   32.9710   43.9990 C   0  0  0  0  0  0  0  0  0  0  0  0
   47.2260   32.1360   45.0750 C   0  0  0  0  0  3  0  0  0  0  0  0
   46.5780   32.3290   46.2880 C   0  0  0  0  0  3  0  0  0  0  0  0
   45.6840   33.3860   46.4030 C   0  0  0  0  0  3  0  0  0  0  0  0
   45.4510   34.2240   45.3270 C   0  0  0  0  0  0  0  0  0  0  0  0
   44.5720   35.3000   45.3840 C   0  0  0  0  0  3  0  0  0  0  0  0
   44.3790   36.1070   44.2760 C   0  0  0  0  0  3  0  0  0  0  0  0
   45.0600   35.8510   43.1040 C   0  0  0  0  0  3  0  0  0  0  0  0
   45.9480   34.7930   43.0010 C   0  0  0  0  0  3  0  0  0  0  0  0
   46.1050   34.0160   44.1310 C   0  0  0  0  0  0  0  0  0  0  0  0
   42.8820   30.2090   41.4170 O   0  0  0  0  0  0  0  0  0  0  0  0
   42.0270   33.0220   39.2720 C   0  0  0  0  0  0  0  0  0  0  0  0
   41.1390   33.7290   40.1170 C   0  0  0  0  0  0  0  0  0  0  0  0
   40.8650   33.2140   41.3880 C   0  0  0  0  0  0  0  0  0  0  0  0
   41.4840   32.0430   41.7410 N   0  0  0  0  0  0  0  0  0  0  0  0
   42.3300   31.3820   40.9240 C   0  0  0  0  0  0  0  0  0  0  0  0
   42.6070   31.8650   39.6870 N   0  0  0  0  0  0  0  0  0  0  0  0
   40.0030   33.8770   42.2390 N   0  0  0  0  0  0  0  0  0  0  0  0
   39.8050   33.4930   43.1730 H   0  0  0  0  0  0  0  0  0  0  0  0
   39.5570   34.7560   41.9380 H   0  0  0  0  0  0  0  0  0  0  0  0
   40.5890   34.9530   39.5500 C   0  0  0  0  0  0  0  0  0  0  0  0
   41.5320   35.5960   38.5350 C   0  0  0  0  0  1  0  0  0  0  0  0
   40.1870   36.0170   40.5110 C   0  0  0  0  0  1  0  0  0  0  0  0
   39.3220   34.5570   38.7960 C   0  0  0  0  0  1  0  0  0  0  0  0
   42.3320   33.4780   37.9980 N   0  0  0  0  0  0  0  0  0  0  0  0
   42.9820   32.9450   37.4030 H   0  0  0  0  0  0  0  0  0  0  0  0
   41.9090   34.3500   37.6480 H   0  0  0  0  0  0  0  0  0  0  0  0
  1  2  2  0  0  0  0
  2  3  1  0  0  0  0
  4  3  1  0  0  0  0
  5  1  1  0  0  0  0
  5  4  2  0  0  0  0
  6  4  1  0  0  0  0
  6 11  1  0  0  0  0
  7  6  2  0  0  0  0
  8  7  1  0  0  0  0
  8  9  2  0  0  0  0
  9 10  1  0  0  0  0
 10 11  2  0  0  0  0
 11 12  1  0  0  0  0
 12 21  2  0  0  0  0
 12 13  1  0  0  0  0
 13 14  2  0  0  0  0
 14 15  1  0  0  0  0
 16 17  1  0  0  0  0
 16 15  2  0  0  0  0
 18 17  2  0  0  0  0
 19 18  1  0  0  0  0
 20 19  2  0  0  0  0
 20 21  1  0  0  0  0
 21 16  1  0  0  0  0
 22  1  1  0  0  0  0
 23 28  2  0  0  0  0
 23 24  1  0  0  0  0
 24 25  2  0  0  0  0
 25 26  1  0  0  0  0
 25 29  1  0  0  0  0
 27 22  1  0  0  0  0
 27 26  2  0  0  0  0
 28 27  1  0  0  0  0
 29 30  1  0  0  0  0
 31 29  1  0  0  0  0
 32 24  1  0  0  0  0
 32 34  1  0  0  0  0
 33 32  1  0  0  0  0
 35 32  1  0  0  0  0
 36 23  1  0  0  0  0
 37 36  1  0  0  0  0
 38 36  1  0  0  0  0
M  END
>  <minimizedAffinity>
-7.77140379

$$$$

 OpenBabel03242509593D

 38 42  0  0  0  0  0  0  0  0999 V2000
   45.0060   30.5650   41.6740 C   0  0  0  0  0  0  0  0  0  0  0  0
   45.4290   30.0170   42.8140 N   0  0  0  0  0  0  0  0  0  0  0  0
   46.5780   30.5040   43.1400 O   0  0  0  0  0  0  0  0  0  0  0  0
   46.9680   31.3900   42.2420 C   0  0  0  0  0  0  0  0  0  0  0  0
   45.9860   31.4270   41.3270 N   0  0  0  0  0  0  0  0  0  0  0  0
   48.2170   32.1740   42.2380 C   0  0  0  0  0  0  0  0  0  0  0  0
   49.4040   31.7120   41.7210 C   0  0  0  0  0  3  0  0  0  0  0  0
   50.5340   32.5310   41.7680 C   0  0  0  0  0  3  0  0  0  0  0  0
   50.4850   33.7970   42.3250 C   0  0  0  0  0  3  0  0  0  0  0  0
   49.2870   34.2390   42.8380 C   0  0  0  0  0  3  0  0  0  0  0  0
   48.1740   33.4380   42.7930 C   0  0  0  0  0  0  0  0  0  0  0  0
   46.9960   34.0720   43.3780 C   0  0  0  0  0  0  0  0  0  0  0  0
   46.4200   34.9960   42.5280 C   0  0  0  0  0  3  0  0  0  0  0  0
   45.2860   35.7060   42.8980 C   0  0  0  0  0  3  0  0  0  0  0  0
   44.7350   35.4710   44.1520 C   0  0  0  0  0  3  0  0  0  0  0  0
   45.3090   34.5470   45.0060 C   0  0  0  0  0  0  0  0  0  0  0  0
   44.8010   34.2670   46.2690 C   0  0  0  0  0  3  0  0  0  0  0  0
   45.4170   33.3300   47.0810 C   0  0  0  0  0  3  0  0  0  0  0  0
   46.5430   32.6640   46.6420 C   0  0  0  0  0  3  0  0  0  0  0  0
   47.0830   32.9080   45.3910 C   0  0  0  0  0  3  0  0  0  0  0  0
   46.4350   33.8510   44.6190 C   0  0  0  0  0  0  0  0  0  0  0  0
   43.9420   30.5190   40.8050 O   0  0  0  0  0  0  0  0  0  0  0  0
   42.5820   33.4270   39.0910 C   0  0  0  0  0  0  0  0  0  0  0  0
   41.5550   33.7980   39.9900 C   0  0  0  0  0  0  0  0  0  0  0  0
   41.3660   33.0370   41.1480 C   0  0  0  0  0  0  0  0  0  0  0  0
   42.2000   31.9670   41.3430 N   0  0  0  0  0  0  0  0  0  0  0  0
   43.1760   31.6270   40.4760 C   0  0  0  0  0  0  0  0  0  0  0  0
   43.3730   32.3520   39.3470 N   0  0  0  0  0  0  0  0  0  0  0  0
   40.3720   33.3710   42.0480 N   0  0  0  0  0  0  0  0  0  0  0  0
   40.2380   32.8070   42.8990 H   0  0  0  0  0  0  0  0  0  0  0  0
   39.7660   34.1830   41.8680 H   0  0  0  0  0  0  0  0  0  0  0  0
   40.7810   34.9690   39.5970 C   0  0  0  0  0  0  0  0  0  0  0  0
   39.3230   34.6260   39.2970 C   0  0  0  0  0  1  0  0  0  0  0  0
   41.2940   35.7560   38.4410 C   0  0  0  0  0  1  0  0  0  0  0  0
   40.7820   35.9170   40.7940 C   0  0  0  0  0  1  0  0  0  0  0  0
   42.8130   34.1370   37.9220 N   0  0  0  0  0  0  0  0  0  0  0  0
   43.5670   33.8470   37.2840 H   0  0  0  0  0  0  0  0  0  0  0  0
   42.2300   34.9560   37.6930 H   0  0  0  0  0  0  0  0  0  0  0  0
  1  2  2  0  0  0  0
  2  3  1  0  0  0  0
  4  3  1  0  0  0  0
  5  1  1  0  0  0  0
  5  4  2  0  0  0  0
  6  4  1  0  0  0  0
  6 11  1  0  0  0  0
  7  8  1  0  0  0  0
  7  6  2  0  0  0  0
  8  9  2  0  0  0  0
  9 10  1  0  0  0  0
 11 10  2  0  0  0  0
 11 12  1  0  0  0  0
 12 21  1  0  0  0  0
 13 14  1  0  0  0  0
 13 12  2  0  0  0  0
 14 15  2  0  0  0  0
 15 16  1  0  0  0  0
 16 17  1  0  0  0  0
 17 18  2  0  0  0  0
 19 18  1  0  0  0  0
 20 19  2  0  0  0  0
 21 16  2  0  0  0  0
 21 20  1  0  0  0  0
 22  1  1  0  0  0  0
 23 28  2  0  0  0  0
 23 24  1  0  0  0  0
 24 25  2  0  0  0  0
 25 26  1  0  0  0  0
 25 29  1  0  0  0  0
 27 22  1  0  0  0  0
 27 26  2  0  0  0  0
 28 27  1  0  0  0  0
 29 30  1  0  0  0  0
 31 29  1  0  0  0  0
 32 24  1  0  0  0  0
 32 35  1  0  0  0  0
 33 32  1  0  0  0  0
 34 32  1  0  0  0  0
 36 23  1  0  0  0  0
 37 36  1  0  0  0  0
 38 36  1  0  0  0  0
M  END
>  <minimizedAffinity>
-7.70318031

$$$$

 OpenBabel03242509593D

 38 42  0  0  0  0  0  0  0  0999 V2000
   46.0820   34.3780   42.4890 C   0  0  0  0  0  0  0  0  0  0  0  0
   45.0660   35.1720   42.1520 N   0  0  0  0  0  0  0  0  0  0  0  0
   44.6060   34.8360   40.9950 O   0  0  0  0  0  0  0  0  0  0  0  0
   45.2880   33.8140   40.5130 C   0  0  0  0  0  0  0  0  0  0  0  0
   46.2100   33.5280   41.4470 N   0  0  0  0  0  0  0  0  0  0  0  0
   45.0870   33.1270   39.2240 C   0  0  0  0  0  0  0  0  0  0  0  0
   46.0480   33.0520   38.2440 C   0  0  0  0  0  3  0  0  0  0  0  0
   45.7590   32.3810   37.0540 C   0  0  0  0  0  3  0  0  0  0  0  0
   44.5250   31.7910   36.8390 C   0  0  0  0  0  3  0  0  0  0  0  0
   43.5780   31.8790   37.8340 C   0  0  0  0  0  3  0  0  0  0  0  0
   43.8590   32.5370   39.0050 C   0  0  0  0  0  0  0  0  0  0  0  0
   42.7390   32.5260   39.9420 C   0  0  0  0  0  0  0  0  0  0  0  0
   42.7940   31.4560   40.8140 C   0  0  0  0  0  3  0  0  0  0  0  0
   41.8220   31.2680   41.7860 C   0  0  0  0  0  3  0  0  0  0  0  0
   40.7790   32.1830   41.8680 C   0  0  0  0  0  3  0  0  0  0  0  0
   40.7200   33.2550   40.9960 C   0  0  0  0  0  0  0  0  0  0  0  0
   39.7040   34.2040   41.0330 C   0  0  0  0  0  3  0  0  0  0  0  0
   39.6970   35.2580   40.1360 C   0  0  0  0  0  3  0  0  0  0  0  0
   40.7000   35.3770   39.1970 C   0  0  0  0  0  3  0  0  0  0  0  0
   41.7330   34.4580   39.1240 C   0  0  0  0  0  3  0  0  0  0  0  0
   41.6960   33.4240   40.0380 C   0  0  0  0  0  0  0  0  0  0  0  0
   46.9790   34.1780   43.5120 O   0  0  0  0  0  0  0  0  0  0  0  0
   45.6980   32.9750   46.6980 C   0  0  0  0  0  0  0  0  0  0  0  0
   46.2900   31.6900   46.7450 C   0  0  0  0  0  0  0  0  0  0  0  0
   47.1030   31.2850   45.6830 C   0  0  0  0  0  0  0  0  0  0  0  0
   47.2800   32.1690   44.6500 N   0  0  0  0  0  0  0  0  0  0  0  0
   46.7100   33.3910   44.6210 C   0  0  0  0  0  0  0  0  0  0  0  0
   45.9170   33.8020   45.6430 N   0  0  0  0  0  0  0  0  0  0  0  0
   47.6970   30.0380   45.6940 N   0  0  0  0  0  0  0  0  0  0  0  0
   48.2950   29.7450   44.9090 H   0  0  0  0  0  0  0  0  0  0  0  0
   47.5410   29.4000   46.4890 H   0  0  0  0  0  0  0  0  0  0  0  0
   45.9750   30.9070   47.9320 C   0  0  0  0  0  0  0  0  0  0  0  0
   45.5440   29.4820   47.5880 C   0  0  0  0  0  1  0  0  0  0  0  0
   44.9470   31.4660   48.8540 C   0  0  0  0  0  1  0  0  0  0  0  0
   47.2640   30.8010   48.7430 C   0  0  0  0  0  1  0  0  0  0  0  0
   44.8750   33.4310   47.7180 N   0  0  0  0  0  0  0  0  0  0  0  0
   44.4570   34.3700   47.6610 H   0  0  0  0  0  0  0  0  0  0  0  0
   44.6840   32.8300   48.5330 H   0  0  0  0  0  0  0  0  0  0  0  0
  1 22  1  0  0  0  0
  2  1  2  0  0  0  0
  3  2  1  0  0  0  0
  4  3  1  0  0  0  0
  4  5  2  0  0  0  0
  5  1  1  0  0  0  0
  6  4  1  0  0  0  0
  7  6  2  0  0  0  0
  8  7  1  0  0  0  0
  9  8  2  0  0  0  0
  9 10  1  0  0  0  0
 10 11  2  0  0  0  0
 11  6  1  0  0  0  0
 11 12  1  0  0  0  0
 12 21  2  0  0  0  0
 12 13  1  0  0  0  0
 13 14  2  0  0  0  0
 14 15  1  0  0  0  0
 16 17  1  0  0  0  0
 16 15  2  0  0  0  0
 18 17  2  0  0  0  0
 19 18  1  0  0  0  0
 20 19  2  0  0  0  0
 20 21  1  0  0  0  0
 21 16  1  0  0  0  0
 22 27  1  0  0  0  0
 23 24  1  0  0  0  0
 23 36  1  0  0  0  0
 24 32  1  0  0  0  0
 25 29  1  0  0  0  0
 25 24  2  0  0  0  0
 26 25  1  0  0  0  0
 27 26  2  0  0  0  0
 27 28  1  0  0  0  0
 28 23  2  0  0  0  0
 29 31  1  0  0  0  0
 30 29  1  0  0  0  0
 32 35  1  0  0  0  0
 32 34  1  0  0  0  0
 33 32  1  0  0  0  0
 36 38  1  0  0  0  0
 37 36  1  0  0  0  0
M  END
>  <minimizedAffinity>
-7.69767332

$$$$

 OpenBabel03242509593D

 38 42  0  0  0  0  0  0  0  0999 V2000
   45.4280   34.5880   42.1100 C   0  0  0  0  0  0  0  0  0  0  0  0
   45.6110   34.1470   40.8660 N   0  0  0  0  0  0  0  0  0  0  0  0
   44.4920   34.1540   40.2240 O   0  0  0  0  0  0  0  0  0  0  0  0
   43.5230   34.5950   41.0040 C   0  0  0  0  0  0  0  0  0  0  0  0
   44.1080   34.8660   42.1820 N   0  0  0  0  0  0  0  0  0  0  0  0
   42.0980   34.7580   40.6610 C   0  0  0  0  0  0  0  0  0  0  0  0
   41.3760   35.8960   40.9320 C   0  0  0  0  0  3  0  0  0  0  0  0
   40.0290   35.9520   40.5710 C   0  0  0  0  0  3  0  0  0  0  0  0
   39.4030   34.8850   39.9490 C   0  0  0  0  0  3  0  0  0  0  0  0
   40.1450   33.7550   39.6880 C   0  0  0  0  0  3  0  0  0  0  0  0
   41.4700   33.6970   40.0410 C   0  0  0  0  0  0  0  0  0  0  0  0
   42.0940   32.4270   39.6850 C   0  0  0  0  0  0  0  0  0  0  0  0
   42.5060   32.3940   38.3670 C   0  0  0  0  0  3  0  0  0  0  0  0
   43.1270   31.2740   37.8330 C   0  0  0  0  0  3  0  0  0  0  0  0
   43.3290   30.1720   38.6550 C   0  0  0  0  0  3  0  0  0  0  0  0
   42.9180   30.1990   39.9750 C   0  0  0  0  0  0  0  0  0  0  0  0
   43.0960   29.1300   40.8450 C   0  0  0  0  0  3  0  0  0  0  0  0
   42.6660   29.2150   42.1580 C   0  0  0  0  0  3  0  0  0  0  0  0
   42.0560   30.3650   42.6160 C   0  0  0  0  0  3  0  0  0  0  0  0
   41.8590   31.4560   41.7860 C   0  0  0  0  0  3  0  0  0  0  0  0
   42.3030   31.3230   40.4860 C   0  0  0  0  0  0  0  0  0  0  0  0
   46.1330   34.8290   43.2660 O   0  0  0  0  0  0  0  0  0  0  0  0
   46.8330   32.0000   45.4450 C   0  0  0  0  0  0  0  0  0  0  0  0
   46.0650   32.3540   46.5800 C   0  0  0  0  0  0  0  0  0  0  0  0
   45.3400   33.5490   46.5560 C   0  0  0  0  0  0  0  0  0  0  0  0
   45.4170   34.3110   45.4190 N   0  0  0  0  0  0  0  0  0  0  0  0
   46.1520   33.9590   44.3450 C   0  0  0  0  0  0  0  0  0  0  0  0
   46.8630   32.8030   44.3500 N   0  0  0  0  0  0  0  0  0  0  0  0
   44.5810   33.9270   47.6470 N   0  0  0  0  0  0  0  0  0  0  0  0
   44.0490   34.8080   47.6230 H   0  0  0  0  0  0  0  0  0  0  0  0
   44.5470   33.3270   48.4840 H   0  0  0  0  0  0  0  0  0  0  0  0
   46.1190   31.4050   47.6840 C   0  0  0  0  0  0  0  0  0  0  0  0
   45.7330   32.0440   49.0170 C   0  0  0  0  0  1  0  0  0  0  0  0
   47.4100   30.6920   47.8960 C   0  0  0  0  0  1  0  0  0  0  0  0
   45.0800   30.3270   47.3870 C   0  0  0  0  0  1  0  0  0  0  0  0
   47.5790   30.8310   45.4120 N   0  0  0  0  0  0  0  0  0  0  0  0
   48.1290   30.5950   44.5740 H   0  0  0  0  0  0  0  0  0  0  0  0
   47.5830   30.1990   46.2260 H   0  0  0  0  0  0  0  0  0  0  0  0
  1  5  1  0  0  0  0
  1 22  1  0  0  0  0
  2  1  2  0  0  0  0
  3  2  1  0  0  0  0
  3  4  1  0  0  0  0
  4  5  2  0  0  0  0
  6  7  1  0  0  0  0
  6  4  1  0  0  0  0
  8  7  2  0  0  0  0
  9  8  1  0  0  0  0
 10  9  2  0  0  0  0
 10 11  1  0  0  0  0
 11  6  2  0  0  0  0
 12 11  1  0  0  0  0
 12 21  1  0  0  0  0
 13 12  2  0  0  0  0
 14 13  1  0  0  0  0
 14 15  2  0  0  0  0
 15 16  1  0  0  0  0
 16 21  2  0  0  0  0
 16 17  1  0  0  0  0
 17 18  2  0  0  0  0
 18 19  1  0  0  0  0
 20 19  2  0  0  0  0
 21 20  1  0  0  0  0
 22 27  1  0  0  0  0
 23 24  1  0  0  0  0
 24 32  1  0  0  0  0
 25 24  2  0  0  0  0
 25 29  1  0  0  0  0
 26 25  1  0  0  0  0
 27 28  1  0  0  0  0
 27 26  2  0  0  0  0
 28 23  2  0  0  0  0
 29 31  1  0  0  0  0
 30 29  1  0  0  0  0
 32 34  1  0  0  0  0
 32 33  1  0  0  0  0
 35 32  1  0  0  0  0
 36 23  1  0  0  0  0
 36 38  1  0  0  0  0
 37 36  1  0  0  0  0
M  END
>  <minimizedAffinity>
-7.5195241

$$$$

 OpenBabel03242509593D

 38 42  0  0  0  0  0  0  0  0999 V2000
   44.9450   31.7720   43.0980 C   0  0  0  0  0  0  0  0  0  0  0  0
   45.3810   32.6290   44.0210 N   0  0  0  0  0  0  0  0  0  0  0  0
   46.6410   32.4470   44.2340 O   0  0  0  0  0  0  0  0  0  0  0  0
   47.0950   31.4710   43.4700 C   0  0  0  0  0  0  0  0  0  0  0  0
   46.0350   31.0500   42.7600 N   0  0  0  0  0  0  0  0  0  0  0  0
   48.4730   30.9480   43.4040 C   0  0  0  0  0  0  0  0  0  0  0  0
   48.8850   29.8090   44.0530 C   0  0  0  0  0  3  0  0  0  0  0  0
   50.2140   29.3980   43.9320 C   0  0  0  0  0  3  0  0  0  0  0  0
   51.1250   30.1130   43.1730 C   0  0  0  0  0  3  0  0  0  0  0  0
   50.6900   31.2510   42.5320 C   0  0  0  0  0  3  0  0  0  0  0  0
   49.3840   31.6580   42.6490 C   0  0  0  0  0  0  0  0  0  0  0  0
   49.1040   32.8790   41.9000 C   0  0  0  0  0  0  0  0  0  0  0  0
   49.3720   34.0190   42.6330 C   0  0  0  0  0  3  0  0  0  0  0  0
   49.1740   35.2840   42.0970 C   0  0  0  0  0  3  0  0  0  0  0  0
   48.6960   35.3870   40.7970 C   0  0  0  0  0  3  0  0  0  0  0  0
   48.4260   34.2480   40.0590 C   0  0  0  0  0  0  0  0  0  0  0  0
   47.9500   34.2880   38.7530 C   0  0  0  0  0  3  0  0  0  0  0  0
   47.6990   33.1150   38.0620 C   0  0  0  0  0  3  0  0  0  0  0  0
   47.9210   31.8940   38.6630 C   0  0  0  0  0  3  0  0  0  0  0  0
   48.3960   31.8050   39.9610 C   0  0  0  0  0  3  0  0  0  0  0  0
   48.6300   33.0000   40.6100 C   0  0  0  0  0  0  0  0  0  0  0  0
   43.7930   31.4270   42.4300 O   0  0  0  0  0  0  0  0  0  0  0  0
   42.7510   34.0810   40.1680 C   0  0  0  0  0  0  0  0  0  0  0  0
   41.3500   34.0500   40.3640 C   0  0  0  0  0  0  0  0  0  0  0  0
   40.8160   33.1200   41.2620 C   0  0  0  0  0  0  0  0  0  0  0  0
   41.6950   32.2870   41.9060 N   0  0  0  0  0  0  0  0  0  0  0  0
   43.0280   32.3310   41.7090 C   0  0  0  0  0  0  0  0  0  0  0  0
   43.5650   33.2250   40.8410 N   0  0  0  0  0  0  0  0  0  0  0  0
   39.4530   33.0610   41.4780 N   0  0  0  0  0  0  0  0  0  0  0  0
   39.0660   32.3740   42.1400 H   0  0  0  0  0  0  0  0  0  0  0  0
   38.8230   33.7040   40.9760 H   0  0  0  0  0  0  0  0  0  0  0  0
   40.5940   35.0200   39.5830 C   0  0  0  0  0  0  0  0  0  0  0  0
   39.3220   34.4200   38.9880 C   0  0  0  0  0  1  0  0  0  0  0  0
   41.3190   35.7010   38.4750 C   0  0  0  0  0  1  0  0  0  0  0  0
   40.1610   36.1190   40.5500 C   0  0  0  0  0  1  0  0  0  0  0  0
   43.3390   34.9750   39.2860 N   0  0  0  0  0  0  0  0  0  0  0  0
   44.3610   34.9780   39.1620 H   0  0  0  0  0  0  0  0  0  0  0  0
   42.7530   35.6360   38.7560 H   0  0  0  0  0  0  0  0  0  0  0  0
  1  2  2  0  0  0  0
  2  3  1  0  0  0  0
  4  3  1  0  0  0  0
  5  1  1  0  0  0  0
  5  4  2  0  0  0  0
  6  4  1  0  0  0  0
  6  7  1  0  0  0  0
  8  7  2  0  0  0  0
  9  8  1  0  0  0  0
 10 11  1  0  0  0  0
 10  9  2  0  0  0  0
 11  6  2  0  0  0  0
 12 13  1  0  0  0  0
 12 11  1  0  0  0  0
 14 13  2  0  0  0  0
 15 14  1  0  0  0  0
 16 21  1  0  0  0  0
 16 15  2  0  0  0  0
 17 16  1  0  0  0  0
 18 19  1  0  0  0  0
 18 17  2  0  0  0  0
 19 20  2  0  0  0  0
 20 21  1  0  0  0  0
 21 12  2  0  0  0  0
 22  1  1  0  0  0  0
 23 24  2  0  0  0  0
 23 28  1  0  0  0  0
 24 25  1  0  0  0  0
 25 29  1  0  0  0  0
 25 26  2  0  0  0  0
 27 26  1  0  0  0  0
 27 22  1  0  0  0  0
 28 27  2  0  0  0  0
 29 30  1  0  0  0  0
 31 29  1  0  0  0  0
 32 24  1  0  0  0  0
 32 35  1  0  0  0  0
 33 32  1  0  0  0  0
 34 32  1  0  0  0  0
 36 23  1  0  0  0  0
 37 36  1  0  0  0  0
 38 36  1  0  0  0  0
M  END
>  <minimizedAffinity>
-7.47879982

$$$$

 OpenBabel03242509593D

 38 42  0  0  0  0  0  0  0  0999 V2000
   44.9690   34.5620   41.5480 C   0  0  0  0  0  0  0  0  0  0  0  0
   45.3900   33.7120   40.6120 N   0  0  0  0  0  0  0  0  0  0  0  0
   44.5110   33.6160   39.6730 O   0  0  0  0  0  0  0  0  0  0  0  0
   43.4750   34.3900   39.9390 C   0  0  0  0  0  0  0  0  0  0  0  0
   43.7620   34.9810   41.1100 N   0  0  0  0  0  0  0  0  0  0  0  0
   42.2570   34.5730   39.1260 C   0  0  0  0  0  0  0  0  0  0  0  0
   42.0710   35.6250   38.2620 C   0  0  0  0  0  3  0  0  0  0  0  0
   40.8790   35.7110   37.5390 C   0  0  0  0  0  3  0  0  0  0  0  0
   39.8820   34.7610   37.6750 C   0  0  0  0  0  3  0  0  0  0  0  0
   40.0900   33.7160   38.5470 C   0  0  0  0  0  3  0  0  0  0  0  0
   41.2600   33.6280   39.2590 C   0  0  0  0  0  0  0  0  0  0  0  0
   41.3060   32.4560   40.1270 C   0  0  0  0  0  0  0  0  0  0  0  0
   40.6860   32.6770   41.3420 C   0  0  0  0  0  3  0  0  0  0  0  0
   40.6190   31.6830   42.3090 C   0  0  0  0  0  3  0  0  0  0  0  0
   41.1930   30.4480   42.0320 C   0  0  0  0  0  3  0  0  0  0  0  0
   41.8150   30.2220   40.8170 C   0  0  0  0  0  0  0  0  0  0  0  0
   42.4040   29.0080   40.4830 C   0  0  0  0  0  3  0  0  0  0  0  0
   43.0110   28.8390   39.2510 C   0  0  0  0  0  3  0  0  0  0  0  0
   43.0370   29.8760   38.3410 C   0  0  0  0  0  3  0  0  0  0  0  0
   42.4630   31.1030   38.6300 C   0  0  0  0  0  3  0  0  0  0  0  0
   41.8700   31.2230   39.8700 C   0  0  0  0  0  0  0  0  0  0  0  0
   45.3690   35.1050   42.7470 O   0  0  0  0  0  0  0  0  0  0  0  0
   45.1880   33.8770   46.1680 C   0  0  0  0  0  0  0  0  0  0  0  0
   46.0470   32.7560   46.0840 C   0  0  0  0  0  0  0  0  0  0  0  0
   46.6540   32.4620   44.8590 C   0  0  0  0  0  0  0  0  0  0  0  0
   46.3760   33.2910   43.8030 N   0  0  0  0  0  0  0  0  0  0  0  0
   45.5560   34.3570   43.8990 C   0  0  0  0  0  0  0  0  0  0  0  0
   44.9580   34.6570   45.0790 N   0  0  0  0  0  0  0  0  0  0  0  0
   47.4980   31.3750   44.7410 N   0  0  0  0  0  0  0  0  0  0  0  0
   47.9410   31.1640   43.8360 H   0  0  0  0  0  0  0  0  0  0  0  0
   47.6830   30.7750   45.5570 H   0  0  0  0  0  0  0  0  0  0  0  0
   46.2090   32.0070   47.3230 C   0  0  0  0  0  0  0  0  0  0  0  0
   46.2570   30.4980   47.0860 C   0  0  0  0  0  1  0  0  0  0  0  0
   45.2020   32.2510   48.3930 C   0  0  0  0  0  1  0  0  0  0  0  0
   47.5600   32.4120   47.9080 C   0  0  0  0  0  1  0  0  0  0  0  0
   44.5520   34.2150   47.3530 N   0  0  0  0  0  0  0  0  0  0  0  0
   43.9320   35.0370   47.3880 H   0  0  0  0  0  0  0  0  0  0  0  0
   44.7010   33.6450   48.1980 H   0  0  0  0  0  0  0  0  0  0  0  0
  1 22  1  0  0  0  0
  2  1  2  0  0  0  0
  3  4  1  0  0  0  0
  3  2  1  0  0  0  0
  4  5  2  0  0  0  0
  5  1  1  0  0  0  0
  6 11  1  0  0  0  0
  6  4  1  0  0  0  0
  7  6  2  0  0  0  0
  8  9  2  0  0  0  0
  8  7  1  0  0  0  0
  9 10  1  0  0  0  0
 10 11  2  0  0  0  0
 11 12  1  0  0  0  0
 12 13  1  0  0  0  0
 13 14  2  0  0  0  0
 15 14  1  0  0  0  0
 16 15  2  0  0  0  0
 17 16  1  0  0  0  0
 18 17  2  0  0  0  0
 19 20  2  0  0  0  0
 19 18  1  0  0  0  0
 20 21  1  0  0  0  0
 21 12  2  0  0  0  0
 21 16  1  0  0  0  0
 22 27  1  0  0  0  0
 23 36  1  0  0  0  0
 24 23  1  0  0  0  0
 24 32  1  0  0  0  0
 25 24  2  0  0  0  0
 26 27  2  0  0  0  0
 26 25  1  0  0  0  0
 27 28  1  0  0  0  0
 28 23  2  0  0  0  0
 29 25  1  0  0  0  0
 29 31  1  0  0  0  0
 30 29  1  0  0  0  0
 32 35  1  0  0  0  0
 32 34  1  0  0  0  0
 33 32  1  0  0  0  0
 36 37  1  0  0  0  0
 36 38  1  0  0  0  0
M  END
>  <minimizedAffinity>
-7.46250486

$$$$

 OpenBabel03242509593D

 38 42  0  0  0  0  0  0  0  0999 V2000
   45.4280   34.5830   42.2340 C   0  0  0  0  0  0  0  0  0  0  0  0
   45.6070   34.1980   40.9710 N   0  0  0  0  0  0  0  0  0  0  0  0
   44.4780   34.1820   40.3470 O   0  0  0  0  0  0  0  0  0  0  0  0
   43.5050   34.5530   41.1590 C   0  0  0  0  0  0  0  0  0  0  0  0
   44.0990   34.8040   42.3370 N   0  0  0  0  0  0  0  0  0  0  0  0
   42.0690   34.6700   40.8460 C   0  0  0  0  0  0  0  0  0  0  0  0
   41.4050   35.8700   40.7560 C   0  0  0  0  0  3  0  0  0  0  0  0
   40.0410   35.8750   40.4580 C   0  0  0  0  0  3  0  0  0  0  0  0
   39.3430   34.6980   40.2520 C   0  0  0  0  0  3  0  0  0  0  0  0
   40.0270   33.5080   40.3480 C   0  0  0  0  0  3  0  0  0  0  0  0
   41.3680   33.4990   40.6400 C   0  0  0  0  0  0  0  0  0  0  0  0
   41.9250   32.1510   40.6970 C   0  0  0  0  0  0  0  0  0  0  0  0
   41.8580   31.6070   41.9650 C   0  0  0  0  0  3  0  0  0  0  0  0
   42.3330   30.3290   42.2270 C   0  0  0  0  0  3  0  0  0  0  0  0
   42.8850   29.5980   41.1820 C   0  0  0  0  0  3  0  0  0  0  0  0
   42.9550   30.1390   39.9110 C   0  0  0  0  0  0  0  0  0  0  0  0
   43.4920   29.4550   38.8270 C   0  0  0  0  0  3  0  0  0  0  0  0
   43.5340   30.0460   37.5760 C   0  0  0  0  0  3  0  0  0  0  0  0
   43.0410   31.3220   37.3940 C   0  0  0  0  0  3  0  0  0  0  0  0
   42.4950   32.0410   38.4440 C   0  0  0  0  0  3  0  0  0  0  0  0
   42.4760   31.4100   39.6710 C   0  0  0  0  0  0  0  0  0  0  0  0
   46.1430   34.8090   43.3870 O   0  0  0  0  0  0  0  0  0  0  0  0
   46.8560   31.9730   45.5520 C   0  0  0  0  0  0  0  0  0  0  0  0
   46.0710   32.3070   46.6810 C   0  0  0  0  0  0  0  0  0  0  0  0
   45.3290   33.4920   46.6580 C   0  0  0  0  0  0  0  0  0  0  0  0
   45.4080   34.2650   45.5280 N   0  0  0  0  0  0  0  0  0  0  0  0
   46.1610   33.9310   44.4590 C   0  0  0  0  0  0  0  0  0  0  0  0
   46.8880   32.7860   44.4640 N   0  0  0  0  0  0  0  0  0  0  0  0
   44.5520   33.8510   47.7420 N   0  0  0  0  0  0  0  0  0  0  0  0
   44.0080   34.7240   47.7190 H   0  0  0  0  0  0  0  0  0  0  0  0
   44.5170   33.2440   48.5740 H   0  0  0  0  0  0  0  0  0  0  0  0
   46.1250   31.3500   47.7780 C   0  0  0  0  0  0  0  0  0  0  0  0
   45.7760   31.9880   49.1210 C   0  0  0  0  0  1  0  0  0  0  0  0
   47.4050   30.6100   47.9620 C   0  0  0  0  0  1  0  0  0  0  0  0
   45.0590   30.2950   47.4920 C   0  0  0  0  0  1  0  0  0  0  0  0
   47.6190   30.8150   45.5180 N   0  0  0  0  0  0  0  0  0  0  0  0
   48.1820   30.5930   44.6840 H   0  0  0  0  0  0  0  0  0  0  0  0
   47.6220   30.1760   46.3270 H   0  0  0  0  0  0  0  0  0  0  0  0
  1  5  1  0  0  0  0
  1 22  1  0  0  0  0
  2  1  2  0  0  0  0
  3  2  1  0  0  0  0
  3  4  1  0  0  0  0
  4  5  2  0  0  0  0
  6  4  1  0  0  0  0
  7  6  1  0  0  0  0
  8  7  2  0  0  0  0
  9 10  2  0  0  0  0
  9  8  1  0  0  0  0
 10 11  1  0  0  0  0
 11 12  1  0  0  0  0
 11  6  2  0  0  0  0
 12 13  1  0  0  0  0
 13 14  2  0  0  0  0
 15 14  1  0  0  0  0
 16 15  2  0  0  0  0
 17 16  1  0  0  0  0
 18 17  2  0  0  0  0
 19 18  1  0  0  0  0
 19 20  2  0  0  0  0
 20 21  1  0  0  0  0
 21 16  1  0  0  0  0
 21 12  2  0  0  0  0
 22 27  1  0  0  0  0
 23 24  1  0  0  0  0
 24 32  1  0  0  0  0
 25 24  2  0  0  0  0
 25 29  1  0  0  0  0
 26 25  1  0  0  0  0
 27 28  1  0  0  0  0
 27 26  2  0  0  0  0
 28 23  2  0  0  0  0
 29 31  1  0  0  0  0
 30 29  1  0  0  0  0
 32 34  1  0  0  0  0
 32 33  1  0  0  0  0
 35 32  1  0  0  0  0
 36 23  1  0  0  0  0
 36 38  1  0  0  0  0
 37 36  1  0  0  0  0
M  END
>  <minimizedAffinity>
-7.37591839

$$$$
