
 OpenBabel03242510133D

 36 39  0  0  1  0  0  0  0  0999 V2000
   35.5080   28.3250   38.5560 C   0  0  0  0  0  3  0  0  0  0  0  0
   36.1900   27.1850   39.0590 C   0  0  0  0  0  3  0  0  0  0  0  0
   37.4000   27.3720   39.7310 C   0  0  0  0  0  0  0  0  0  0  0  0
   37.8850   28.6120   39.8850 N   0  0  0  0  0  0  0  0  0  0  0  0
   37.2080   29.6830   39.3920 C   0  0  0  0  0  0  0  0  0  0  0  0
   36.0320   29.5450   38.7340 N   0  0  0  0  0  0  0  0  0  0  0  0
   38.1330   26.2230   40.2760 C   0  0  2  0  0  3  0  0  0  0  0  0
   37.6610   24.8990   39.8400 C   0  0  0  0  0  2  0  0  0  0  0  0
   36.6440   24.4690   40.8890 C   0  0  0  0  0  2  0  0  0  0  0  0
   37.1570   25.0900   42.1610 C   0  0  0  0  0  2  0  0  0  0  0  0
   38.1110   26.1520   41.7760 C   0  0  1  0  0  3  0  0  0  0  0  0
   39.3870   26.1360   42.3930 N   0  0  0  0  0  0  0  0  0  0  0  0
   40.5500   25.7160   41.8600 C   0  0  0  0  0  3  0  0  0  0  0  0
   41.7630   25.7270   42.5160 C   0  0  0  0  0  0  0  0  0  0  0  0
   42.9670   25.2290   41.7910 C   0  0  0  0  0  1  0  0  0  0  0  0
   41.8250   26.1940   43.8120 C   0  0  0  0  0  0  0  0  0  0  0  0
   42.9250   26.2000   44.4010 O   0  0  0  0  0  0  0  0  0  0  0  0
   40.6720   26.6150   44.3600 N   0  0  0  0  0  0  0  0  0  0  0  0
   39.5300   26.5830   43.6800 C   0  0  0  0  0  0  0  0  0  0  0  0
   38.5030   27.0100   44.3070 O   0  0  0  0  0  0  0  0  0  0  0  0
   40.6740   26.9690   45.3280 H   0  0  0  0  0  0  0  0  0  0  0  0
   37.6950   31.0600   39.5500 C   0  0  0  0  0  0  0  0  0  0  0  0
   37.0710   32.1910   39.9360 N   0  0  0  0  0  0  0  0  0  0  0  0
   37.9080   33.1950   39.9270 O   0  0  0  0  0  0  0  0  0  0  0  0
   39.0950   32.7660   39.5400 C   0  0  0  0  0  0  0  0  0  0  0  0
   38.9580   31.4320   39.3060 N   0  0  0  0  0  0  0  0  0  0  0  0
   40.2620   33.6000   39.4130 C   0  0  0  0  0  0  0  0  0  0  0  0
   40.7490   34.2180   40.3270 O   0  0  0  0  0  0  0  0  0  0  0  0
   40.7510   33.5990   38.1100 N   0  0  0  0  0  0  0  0  0  0  0  0
   42.0190   34.2390   37.9870 C   0  0  0  0  0  0  0  0  0  0  0  0
   42.8210   34.8420   38.7540 N   0  0  0  0  0  0  0  0  0  0  0  0
   42.7600   34.3410   36.7680 N   0  0  0  0  0  0  0  0  0  0  0  0
   42.8870   34.6200   39.7510 H   0  0  0  0  0  0  0  0  0  0  0  0
   40.2490   33.1790   37.3150 H   0  0  0  0  0  0  0  0  0  0  0  0
   43.6710   34.8200   36.7590 H   0  0  0  0  0  0  0  0  0  0  0  0
   42.3820   33.9360   35.9000 H   0  0  0  0  0  0  0  0  0  0  0  0
  1  6  2  0  0  0  0
  1  2  1  0  0  0  0
  2  3  2  0  0  0  0
  3  4  1  0  0  0  0
  5 22  1  0  0  0  0
  5  4  2  0  0  0  0
  6  5  1  0  0  0  0
  7  3  1  1  0  0  0
  7 11  1  0  0  0  0
  8  7  1  0  0  0  0
  8  9  1  0  0  0  0
  9 10  1  0  0  0  0
 11 10  1  6  0  0  0
 11 12  1  0  0  0  0
 12 19  1  0  0  0  0
 13 12  1  0  0  0  0
 13 14  2  0  0  0  0
 14 16  1  0  0  0  0
 15 14  1  0  0  0  0
 16 18  1  0  0  0  0
 16 17  2  0  0  0  0
 18 21  1  0  0  0  0
 19 20  2  0  0  0  0
 19 18  1  0  0  0  0
 22 23  2  0  0  0  0
 24 23  1  0  0  0  0
 25 24  1  0  0  0  0
 26 25  2  0  0  0  0
 26 22  1  0  0  0  0
 27 25  1  0  0  0  0
 27 28  2  0  0  0  0
 29 27  1  0  0  0  0
 30 29  1  0  0  0  0
 30 31  2  0  0  0  0
 31 33  1  0  0  0  0
 32 30  1  0  0  0  0
 34 29  1  0  0  0  0
 35 32  1  0  0  0  0
 36 32  1  0  0  0  0
M  END
>  <minimizedAffinity>
-7.51664257

$$$$

 OpenBabel03242510133D

 36 39  0  0  1  0  0  0  0  0999 V2000
   37.7410   28.7550   43.5490 C   0  0  0  0  0  3  0  0  0  0  0  0
   37.4220   27.4080   43.2320 C   0  0  0  0  0  3  0  0  0  0  0  0
   37.4520   27.0110   41.8930 C   0  0  0  0  0  0  0  0  0  0  0  0
   37.7800   27.9020   40.9470 N   0  0  0  0  0  0  0  0  0  0  0  0
   38.0810   29.1840   41.2830 C   0  0  0  0  0  0  0  0  0  0  0  0
   38.0630   29.6100   42.5690 N   0  0  0  0  0  0  0  0  0  0  0  0
   37.1390   25.6260   41.5210 C   0  0  2  0  0  3  0  0  0  0  0  0
   37.8520   24.5840   42.2800 C   0  0  0  0  0  2  0  0  0  0  0  0
   39.1080   24.2860   41.4730 C   0  0  0  0  0  2  0  0  0  0  0  0
   38.6790   24.5090   40.0470 C   0  0  0  0  0  2  0  0  0  0  0  0
   37.4350   25.3070   40.0840 C   0  0  1  0  0  3  0  0  0  0  0  0
   36.3290   24.8250   39.3390 N   0  0  0  0  0  0  0  0  0  0  0  0
   35.6560   23.6730   39.5230 C   0  0  0  0  0  3  0  0  0  0  0  0
   34.5840   23.2610   38.7600 C   0  0  0  0  0  0  0  0  0  0  0  0
   33.9400   21.9550   39.0870 C   0  0  0  0  0  1  0  0  0  0  0  0
   34.1430   24.0610   37.7280 C   0  0  0  0  0  0  0  0  0  0  0  0
   33.1730   23.6820   37.0400 O   0  0  0  0  0  0  0  0  0  0  0  0
   34.8050   25.2140   37.5290 N   0  0  0  0  0  0  0  0  0  0  0  0
   35.8330   25.5630   38.2970 C   0  0  0  0  0  0  0  0  0  0  0  0
   36.3800   26.6810   38.0110 O   0  0  0  0  0  0  0  0  0  0  0  0
   34.5090   25.8400   36.7660 H   0  0  0  0  0  0  0  0  0  0  0  0
   38.4590   30.1900   40.2810 C   0  0  0  0  0  0  0  0  0  0  0  0
   38.1160   30.3380   38.9860 N   0  0  0  0  0  0  0  0  0  0  0  0
   38.7040   31.3900   38.4790 O   0  0  0  0  0  0  0  0  0  0  0  0
   39.4440   31.9620   39.4100 C   0  0  0  0  0  0  0  0  0  0  0  0
   39.2890   31.2110   40.5340 N   0  0  0  0  0  0  0  0  0  0  0  0
   40.2340   33.1490   39.2070 C   0  0  0  0  0  0  0  0  0  0  0  0
   40.2970   34.0590   39.9970 O   0  0  0  0  0  0  0  0  0  0  0  0
   40.9110   33.1100   37.9910 N   0  0  0  0  0  0  0  0  0  0  0  0
   41.8620   34.1600   37.8460 C   0  0  0  0  0  0  0  0  0  0  0  0
   42.2460   35.1530   38.5270 N   0  0  0  0  0  0  0  0  0  0  0  0
   42.7180   34.3280   36.7120 N   0  0  0  0  0  0  0  0  0  0  0  0
   42.2110   35.1540   39.5500 H   0  0  0  0  0  0  0  0  0  0  0  0
   40.7410   32.3950   37.2700 H   0  0  0  0  0  0  0  0  0  0  0  0
   43.3820   35.1140   36.6800 H   0  0  0  0  0  0  0  0  0  0  0  0
   42.6700   33.6610   35.9280 H   0  0  0  0  0  0  0  0  0  0  0  0
  2  1  1  0  0  0  0
  3  2  2  0  0  0  0
  4  5  2  0  0  0  0
  4  3  1  0  0  0  0
  5  6  1  0  0  0  0
  6  1  2  0  0  0  0
  7  3  1  1  0  0  0
  7  8  1  0  0  0  0
  9  8  1  0  0  0  0
 10 11  1  0  0  0  0
 10  9  1  0  0  0  0
 11 12  1  1  0  0  0
 11  7  1  0  0  0  0
 12 13  1  0  0  0  0
 14 15  1  0  0  0  0
 14 13  2  0  0  0  0
 16 14  1  0  0  0  0
 17 16  2  0  0  0  0
 18 16  1  0  0  0  0
 18 19  1  0  0  0  0
 19 12  1  0  0  0  0
 20 19  2  0  0  0  0
 21 18  1  0  0  0  0
 22 26  1  0  0  0  0
 22  5  1  0  0  0  0
 23 22  2  0  0  0  0
 24 23  1  0  0  0  0
 24 25  1  0  0  0  0
 25 26  2  0  0  0  0
 27 25  1  0  0  0  0
 27 28  2  0  0  0  0
 29 27  1  0  0  0  0
 30 29  1  0  0  0  0
 30 31  2  0  0  0  0
 31 33  1  0  0  0  0
 32 30  1  0  0  0  0
 34 29  1  0  0  0  0
 35 32  1  0  0  0  0
 36 32  1  0  0  0  0
M  END
>  <minimizedAffinity>
-7.3558774

$$$$

 OpenBabel03242510133D

 36 39  0  0  1  0  0  0  0  0999 V2000
   37.4980   28.3140   43.3950 C   0  0  0  0  0  3  0  0  0  0  0  0
   37.5880   27.1280   42.6200 C   0  0  0  0  0  3  0  0  0  0  0  0
   37.8660   27.2390   41.2560 C   0  0  0  0  0  0  0  0  0  0  0  0
   38.0430   28.4530   40.7150 N   0  0  0  0  0  0  0  0  0  0  0  0
   37.9530   29.5700   41.4850 C   0  0  0  0  0  0  0  0  0  0  0  0
   37.6830   29.5060   42.8110 N   0  0  0  0  0  0  0  0  0  0  0  0
   37.9770   26.0390   40.4190 C   0  0  2  0  0  3  0  0  0  0  0  0
   36.7230   25.3040   40.1880 C   0  0  0  0  0  2  0  0  0  0  0  0
   36.6580   24.2600   41.2940 C   0  0  0  0  0  2  0  0  0  0  0  0
   38.1020   23.9180   41.5490 C   0  0  0  0  0  2  0  0  0  0  0  0
   38.9180   25.0070   40.9690 C   0  0  1  0  0  3  0  0  0  0  0  0
   39.9740   24.6360   40.0990 N   0  0  0  0  0  0  0  0  0  0  0  0
   39.9130   23.8000   39.0450 C   0  0  0  0  0  3  0  0  0  0  0  0
   40.9820   23.4800   38.2340 C   0  0  0  0  0  0  0  0  0  0  0  0
   40.7560   22.5370   37.1010 C   0  0  0  0  0  1  0  0  0  0  0  0
   42.2150   24.0370   38.4940 C   0  0  0  0  0  0  0  0  0  0  0  0
   43.1790   23.7420   37.7580 O   0  0  0  0  0  0  0  0  0  0  0  0
   42.2950   24.8710   39.5440 N   0  0  0  0  0  0  0  0  0  0  0  0
   41.2300   25.1460   40.2920 C   0  0  0  0  0  0  0  0  0  0  0  0
   41.4310   25.9530   41.2610 O   0  0  0  0  0  0  0  0  0  0  0  0
   43.2000   25.3070   39.7750 H   0  0  0  0  0  0  0  0  0  0  0  0
   38.1540   30.9190   40.9380 C   0  0  0  0  0  0  0  0  0  0  0  0
   37.2790   31.8810   40.5840 N   0  0  0  0  0  0  0  0  0  0  0  0
   37.9170   32.9310   40.1380 O   0  0  0  0  0  0  0  0  0  0  0  0
   39.2160   32.7000   40.1830 C   0  0  0  0  0  0  0  0  0  0  0  0
   39.3600   31.4420   40.6830 N   0  0  0  0  0  0  0  0  0  0  0  0
   40.2250   33.6390   39.7690 C   0  0  0  0  0  0  0  0  0  0  0  0
   40.6570   34.5170   40.4730 O   0  0  0  0  0  0  0  0  0  0  0  0
   40.6360   33.4020   38.4590 N   0  0  0  0  0  0  0  0  0  0  0  0
   41.7760   34.1700   38.0830 C   0  0  0  0  0  0  0  0  0  0  0  0
   42.5130   35.0440   38.6200 N   0  0  0  0  0  0  0  0  0  0  0  0
   42.4230   34.0890   36.8100 N   0  0  0  0  0  0  0  0  0  0  0  0
   42.6680   35.0740   39.6310 H   0  0  0  0  0  0  0  0  0  0  0  0
   40.1640   32.7410   37.8270 H   0  0  0  0  0  0  0  0  0  0  0  0
   43.2440   34.6770   36.6110 H   0  0  0  0  0  0  0  0  0  0  0  0
   42.0680   33.4420   36.0910 H   0  0  0  0  0  0  0  0  0  0  0  0
  2  1  2  0  0  0  0
  3  2  1  0  0  0  0
  4  3  2  0  0  0  0
  4  5  1  0  0  0  0
  5  6  2  0  0  0  0
  6  1  1  0  0  0  0
  7 11  1  0  0  0  0
  7  3  1  1  0  0  0
  8  7  1  0  0  0  0
  8  9  1  0  0  0  0
  9 10  1  0  0  0  0
 11 12  1  6  0  0  0
 11 10  1  0  0  0  0
 12 19  1  0  0  0  0
 13 12  1  0  0  0  0
 14 16  1  0  0  0  0
 14 13  2  0  0  0  0
 15 14  1  0  0  0  0
 16 18  1  0  0  0  0
 17 16  2  0  0  0  0
 18 21  1  0  0  0  0
 18 19  1  0  0  0  0
 19 20  2  0  0  0  0
 22  5  1  0  0  0  0
 23 22  2  0  0  0  0
 24 25  1  0  0  0  0
 24 23  1  0  0  0  0
 25 26  2  0  0  0  0
 26 22  1  0  0  0  0
 27 25  1  0  0  0  0
 27 28  2  0  0  0  0
 29 27  1  0  0  0  0
 30 29  1  0  0  0  0
 30 31  2  0  0  0  0
 31 33  1  0  0  0  0
 32 30  1  0  0  0  0
 34 29  1  0  0  0  0
 35 32  1  0  0  0  0
 36 32  1  0  0  0  0
M  END
>  <minimizedAffinity>
-7.13358355

$$$$

 OpenBabel03242510133D

 36 39  0  0  1  0  0  0  0  0999 V2000
   36.7150   31.2920   40.6110 C   0  0  0  0  0  3  0  0  0  0  0  0
   36.3120   30.0770   41.2250 C   0  0  0  0  0  3  0  0  0  0  0  0
   37.2740   29.0920   41.4570 C   0  0  0  0  0  0  0  0  0  0  0  0
   38.5470   29.3150   41.0980 N   0  0  0  0  0  0  0  0  0  0  0  0
   38.9020   30.4890   40.5130 C   0  0  0  0  0  0  0  0  0  0  0  0
   37.9990   31.4690   40.2700 N   0  0  0  0  0  0  0  0  0  0  0  0
   36.9030   27.8250   42.0980 C   0  0  2  0  0  3  0  0  0  0  0  0
   36.2640   27.9410   43.4190 C   0  0  0  0  0  2  0  0  0  0  0  0
   37.4030   27.8640   44.4260 C   0  0  0  0  0  2  0  0  0  0  0  0
   38.4050   26.9550   43.7650 C   0  0  0  0  0  2  0  0  0  0  0  0
   38.0660   26.9030   42.3270 C   0  0  1  0  0  3  0  0  0  0  0  0
   37.9380   25.6210   41.7340 N   0  0  0  0  0  0  0  0  0  0  0  0
   36.8750   25.1260   41.0730 C   0  0  0  0  0  3  0  0  0  0  0  0
   36.8150   23.8650   40.5170 C   0  0  0  0  0  0  0  0  0  0  0  0
   35.5640   23.4590   39.8130 C   0  0  0  0  0  1  0  0  0  0  0  0
   37.9030   23.0260   40.6270 C   0  0  0  0  0  0  0  0  0  0  0  0
   37.8420   21.8870   40.1240 O   0  0  0  0  0  0  0  0  0  0  0  0
   38.9720   23.5040   41.2870 N   0  0  0  0  0  0  0  0  0  0  0  0
   38.9770   24.7300   41.8020 C   0  0  0  0  0  0  0  0  0  0  0  0
   40.0500   25.0710   42.4040 O   0  0  0  0  0  0  0  0  0  0  0  0
   39.8060   22.9080   41.3950 H   0  0  0  0  0  0  0  0  0  0  0  0
   40.2860   30.7820   40.1180 C   0  0  0  0  0  0  0  0  0  0  0  0
   41.3470   29.9790   39.9100 N   0  0  0  0  0  0  0  0  0  0  0  0
   42.3920   30.6870   39.5700 O   0  0  0  0  0  0  0  0  0  0  0  0
   42.0580   31.9640   39.5420 C   0  0  0  0  0  0  0  0  0  0  0  0
   40.7430   32.0200   39.8840 N   0  0  0  0  0  0  0  0  0  0  0  0
   42.9610   33.0340   39.2060 C   0  0  0  0  0  0  0  0  0  0  0  0
   43.1240   34.0160   39.8870 O   0  0  0  0  0  0  0  0  0  0  0  0
   43.6150   32.7910   38.0010 N   0  0  0  0  0  0  0  0  0  0  0  0
   44.6660   33.7170   37.7370 C   0  0  0  0  0  0  0  0  0  0  0  0
   45.1540   34.7360   38.3010 N   0  0  0  0  0  0  0  0  0  0  0  0
   45.5200   33.6690   36.5910 N   0  0  0  0  0  0  0  0  0  0  0  0
   45.1330   34.8550   39.3180 H   0  0  0  0  0  0  0  0  0  0  0  0
   43.3660   32.0200   37.3650 H   0  0  0  0  0  0  0  0  0  0  0  0
   46.2580   34.3760   36.4700 H   0  0  0  0  0  0  0  0  0  0  0  0
   45.3960   32.9280   35.8870 H   0  0  0  0  0  0  0  0  0  0  0  0
  1  2  1  0  0  0  0
  2  3  2  0  0  0  0
  4  3  1  0  0  0  0
  5  4  2  0  0  0  0
  6  5  1  0  0  0  0
  6  1  2  0  0  0  0
  7  3  1  1  0  0  0
  7 11  1  0  0  0  0
  7  8  1  0  0  0  0
  8  9  1  0  0  0  0
 10  9  1  0  0  0  0
 11 12  1  1  0  0  0
 11 10  1  0  0  0  0
 12 19  1  0  0  0  0
 13 12  1  0  0  0  0
 14 16  1  0  0  0  0
 14 13  2  0  0  0  0
 15 14  1  0  0  0  0
 16 18  1  0  0  0  0
 17 16  2  0  0  0  0
 18 21  1  0  0  0  0
 18 19  1  0  0  0  0
 19 20  2  0  0  0  0
 22  5  1  0  0  0  0
 23 22  2  0  0  0  0
 24 23  1  0  0  0  0
 25 24  1  0  0  0  0
 25 26  2  0  0  0  0
 26 22  1  0  0  0  0
 27 25  1  0  0  0  0
 27 28  2  0  0  0  0
 29 27  1  0  0  0  0
 30 29  1  0  0  0  0
 30 31  2  0  0  0  0
 31 33  1  0  0  0  0
 32 30  1  0  0  0  0
 34 29  1  0  0  0  0
 35 32  1  0  0  0  0
 36 32  1  0  0  0  0
M  END
>  <minimizedAffinity>
-7.12164259

$$$$

 OpenBabel03242510133D

 36 39  0  0  1  0  0  0  0  0999 V2000
   37.8450   31.4400   37.4930 C   0  0  0  0  0  3  0  0  0  0  0  0
   37.6000   30.1990   38.1380 C   0  0  0  0  0  3  0  0  0  0  0  0
   38.2140   29.9520   39.3690 C   0  0  0  0  0  0  0  0  0  0  0  0
   39.0120   30.8850   39.9070 N   0  0  0  0  0  0  0  0  0  0  0  0
   39.2250   32.0630   39.2650 C   0  0  0  0  0  0  0  0  0  0  0  0
   38.6500   32.3420   38.0700 N   0  0  0  0  0  0  0  0  0  0  0  0
   37.9810   28.6870   40.0750 C   0  0  2  0  0  3  0  0  0  0  0  0
   36.7000   28.0210   39.7870 C   0  0  0  0  0  2  0  0  0  0  0  0
   35.7320   28.5360   40.8430 C   0  0  0  0  0  2  0  0  0  0  0  0
   36.6040   28.7670   42.0480 C   0  0  0  0  0  2  0  0  0  0  0  0
   38.0030   28.8200   41.5710 C   0  0  1  0  0  3  0  0  0  0  0  0
   38.9480   27.9950   42.2310 N   0  0  0  0  0  0  0  0  0  0  0  0
   38.9060   26.6570   42.3800 C   0  0  0  0  0  3  0  0  0  0  0  0
   39.8620   25.9110   43.0360 C   0  0  0  0  0  0  0  0  0  0  0  0
   39.6750   24.4330   43.1180 C   0  0  0  0  0  1  0  0  0  0  0  0
   40.9520   26.5470   43.5900 C   0  0  0  0  0  0  0  0  0  0  0  0
   41.8130   25.8660   44.1840 O   0  0  0  0  0  0  0  0  0  0  0  0
   41.0090   27.8830   43.4530 N   0  0  0  0  0  0  0  0  0  0  0  0
   40.0580   28.5530   42.8080 C   0  0  0  0  0  0  0  0  0  0  0  0
   40.2230   29.8180   42.7430 O   0  0  0  0  0  0  0  0  0  0  0  0
   41.8050   28.3980   43.8550 H   0  0  0  0  0  0  0  0  0  0  0  0
   40.0790   33.1200   39.8250 C   0  0  0  0  0  0  0  0  0  0  0  0
   39.8470   34.4250   40.0650 N   0  0  0  0  0  0  0  0  0  0  0  0
   40.9120   34.9880   40.5740 O   0  0  0  0  0  0  0  0  0  0  0  0
   41.8680   34.0850   40.6830 C   0  0  0  0  0  0  0  0  0  0  0  0
   41.3450   32.9190   40.2150 N   0  0  0  0  0  0  0  0  0  0  0  0
   43.1830   34.3510   41.2060 C   0  0  0  0  0  0  0  0  0  0  0  0
   44.1770   34.4160   40.5250 O   0  0  0  0  0  0  0  0  0  0  0  0
   43.1590   34.5210   42.5870 N   0  0  0  0  0  0  0  0  0  0  0  0
   44.3960   34.9910   43.1160 C   0  0  0  0  0  0  0  0  0  0  0  0
   45.5400   35.2750   42.6610 N   0  0  0  0  0  0  0  0  0  0  0  0
   44.6280   35.2860   44.4960 N   0  0  0  0  0  0  0  0  0  0  0  0
   45.6740   35.6140   41.7040 H   0  0  0  0  0  0  0  0  0  0  0  0
   42.3310   34.3270   43.1690 H   0  0  0  0  0  0  0  0  0  0  0  0
   45.5520   35.6230   44.8010 H   0  0  0  0  0  0  0  0  0  0  0  0
   43.8710   35.1620   45.1830 H   0  0  0  0  0  0  0  0  0  0  0  0
  1  6  2  0  0  0  0
  1  2  1  0  0  0  0
  2  3  2  0  0  0  0
  3  4  1  0  0  0  0
  5 22  1  0  0  0  0
  5  4  2  0  0  0  0
  6  5  1  0  0  0  0
  7  3  1  6  0  0  0
  7 11  1  0  0  0  0
  8  7  1  0  0  0  0
  8  9  1  0  0  0  0
  9 10  1  0  0  0  0
 11 10  1  1  0  0  0
 11 12  1  0  0  0  0
 12 13  1  0  0  0  0
 12 19  1  0  0  0  0
 13 14  2  0  0  0  0
 14 15  1  0  0  0  0
 14 16  1  0  0  0  0
 16 17  2  0  0  0  0
 18 16  1  0  0  0  0
 18 21  1  0  0  0  0
 19 18  1  0  0  0  0
 20 19  2  0  0  0  0
 22 23  2  0  0  0  0
 22 26  1  0  0  0  0
 23 24  1  0  0  0  0
 24 25  1  0  0  0  0
 25 27  1  0  0  0  0
 26 25  2  0  0  0  0
 27 29  1  0  0  0  0
 28 27  2  0  0  0  0
 29 30  1  0  0  0  0
 29 34  1  0  0  0  0
 30 32  1  0  0  0  0
 31 30  2  0  0  0  0
 32 35  1  0  0  0  0
 32 36  1  0  0  0  0
 33 31  1  0  0  0  0
M  END
>  <minimizedAffinity>
-7.09492922

$$$$

 OpenBabel03242510133D

 36 39  0  0  1  0  0  0  0  0999 V2000
   37.3200   33.3160   39.8290 C   0  0  0  0  0  3  0  0  0  0  0  0
   38.6100   33.9030   39.7430 C   0  0  0  0  0  3  0  0  0  0  0  0
   39.6980   33.2090   40.2780 C   0  0  0  0  0  0  0  0  0  0  0  0
   39.5010   32.0150   40.8530 N   0  0  0  0  0  0  0  0  0  0  0  0
   38.2540   31.4790   40.9190 C   0  0  0  0  0  0  0  0  0  0  0  0
   37.1720   32.1190   40.4130 N   0  0  0  0  0  0  0  0  0  0  0  0
   41.0510   33.7740   40.2030 C   0  0  2  0  0  3  0  0  0  0  0  0
   41.3860   34.4620   38.9450 C   0  0  0  0  0  2  0  0  0  0  0  0
   42.0190   33.3970   38.0600 C   0  0  0  0  0  2  0  0  0  0  0  0
   42.7160   32.4870   39.0360 C   0  0  0  0  0  2  0  0  0  0  0  0
   42.1390   32.7540   40.3710 C   0  0  1  0  0  3  0  0  0  0  0  0
   43.0430   33.0140   41.4320 N   0  0  0  0  0  0  0  0  0  0  0  0
   43.9870   33.9740   41.4880 C   0  0  0  0  0  3  0  0  0  0  0  0
   44.8380   34.1750   42.5540 C   0  0  0  0  0  0  0  0  0  0  0  0
   45.8320   35.2840   42.4690 C   0  0  0  0  0  1  0  0  0  0  0  0
   44.7450   33.3540   43.6570 C   0  0  0  0  0  0  0  0  0  0  0  0
   45.5190   33.5400   44.6170 O   0  0  0  0  0  0  0  0  0  0  0  0
   43.8100   32.3880   43.6160 N   0  0  0  0  0  0  0  0  0  0  0  0
   43.0140   32.2400   42.5610 C   0  0  0  0  0  0  0  0  0  0  0  0
   42.1660   31.2880   42.6410 O   0  0  0  0  0  0  0  0  0  0  0  0
   43.7090   31.7500   44.4190 H   0  0  0  0  0  0  0  0  0  0  0  0
   37.9930   30.1670   41.5270 C   0  0  0  0  0  0  0  0  0  0  0  0
   36.8810   29.6400   42.0760 N   0  0  0  0  0  0  0  0  0  0  0  0
   37.1170   28.4250   42.4980 O   0  0  0  0  0  0  0  0  0  0  0  0
   38.3740   28.1150   42.2440 C   0  0  0  0  0  0  0  0  0  0  0  0
   38.9190   29.2050   41.6370 N   0  0  0  0  0  0  0  0  0  0  0  0
   38.9850   26.8530   42.5710 C   0  0  0  0  0  0  0  0  0  0  0  0
   39.8520   26.7190   43.3980 O   0  0  0  0  0  0  0  0  0  0  0  0
   38.4470   25.8150   41.8150 N   0  0  0  0  0  0  0  0  0  0  0  0
   38.8700   24.5260   42.2520 C   0  0  0  0  0  0  0  0  0  0  0  0
   39.6380   24.0650   43.1430 N   0  0  0  0  0  0  0  0  0  0  0  0
   38.4360   23.2920   41.6750 N   0  0  0  0  0  0  0  0  0  0  0  0
   39.8020   24.5580   44.0240 H   0  0  0  0  0  0  0  0  0  0  0  0
   37.8100   25.9620   41.0200 H   0  0  0  0  0  0  0  0  0  0  0  0
   38.7870   22.3980   42.0470 H   0  0  0  0  0  0  0  0  0  0  0  0
   37.7720   23.2960   40.8870 H   0  0  0  0  0  0  0  0  0  0  0  0
  1  6  1  0  0  0  0
  2  1  2  0  0  0  0
  2  3  1  0  0  0  0
  3  4  2  0  0  0  0
  4  5  1  0  0  0  0
  5 22  1  0  0  0  0
  6  5  2  0  0  0  0
  7  3  1  6  0  0  0
  7 11  1  0  0  0  0
  8  7  1  0  0  0  0
  9  8  1  0  0  0  0
  9 10  1  0  0  0  0
 11 10  1  6  0  0  0
 11 12  1  0  0  0  0
 12 13  1  0  0  0  0
 12 19  1  0  0  0  0
 13 14  2  0  0  0  0
 14 16  1  0  0  0  0
 15 14  1  0  0  0  0
 16 17  2  0  0  0  0
 18 16  1  0  0  0  0
 18 21  1  0  0  0  0
 19 20  2  0  0  0  0
 19 18  1  0  0  0  0
 22 26  1  0  0  0  0
 22 23  2  0  0  0  0
 23 24  1  0  0  0  0
 25 24  1  0  0  0  0
 25 27  1  0  0  0  0
 26 25  2  0  0  0  0
 27 28  2  0  0  0  0
 29 30  1  0  0  0  0
 29 27  1  0  0  0  0
 30 31  2  0  0  0  0
 31 33  1  0  0  0  0
 32 35  1  0  0  0  0
 32 30  1  0  0  0  0
 34 29  1  0  0  0  0
 36 32  1  0  0  0  0
M  END
>  <minimizedAffinity>
-6.95530367

$$$$

 OpenBabel03242510133D

 36 39  0  0  1  0  0  0  0  0999 V2000
   36.5810   31.1670   40.5490 C   0  0  0  0  0  3  0  0  0  0  0  0
   36.2110   29.9370   41.1550 C   0  0  0  0  0  3  0  0  0  0  0  0
   37.2200   29.0850   41.6090 C   0  0  0  0  0  0  0  0  0  0  0  0
   38.5030   29.4460   41.4660 N   0  0  0  0  0  0  0  0  0  0  0  0
   38.8250   30.6300   40.8840 C   0  0  0  0  0  0  0  0  0  0  0  0
   37.8770   31.4850   40.4290 N   0  0  0  0  0  0  0  0  0  0  0  0
   36.8820   27.8080   42.2500 C   0  0  2  0  0  3  0  0  0  0  0  0
   36.2920   27.9050   43.5950 C   0  0  0  0  0  2  0  0  0  0  0  0
   37.4680   27.8270   44.5580 C   0  0  0  0  0  2  0  0  0  0  0  0
   38.4520   26.9330   43.8510 C   0  0  0  0  0  2  0  0  0  0  0  0
   38.0600   26.8930   42.4250 C   0  0  1  0  0  3  0  0  0  0  0  0
   37.9200   25.6170   41.8230 N   0  0  0  0  0  0  0  0  0  0  0  0
   36.9090   25.1820   41.0480 C   0  0  0  0  0  3  0  0  0  0  0  0
   36.8330   23.9240   40.4910 C   0  0  0  0  0  0  0  0  0  0  0  0
   35.6460   23.5890   39.6520 C   0  0  0  0  0  1  0  0  0  0  0  0
   37.8480   23.0200   40.7230 C   0  0  0  0  0  0  0  0  0  0  0  0
   37.7730   21.8820   40.2170 O   0  0  0  0  0  0  0  0  0  0  0  0
   38.8650   23.4370   41.4970 N   0  0  0  0  0  0  0  0  0  0  0  0
   38.8870   24.6650   42.0090 C   0  0  0  0  0  0  0  0  0  0  0  0
   39.9060   24.9440   42.7270 O   0  0  0  0  0  0  0  0  0  0  0  0
   39.6430   22.7920   41.6990 H   0  0  0  0  0  0  0  0  0  0  0  0
   40.2160   31.0730   40.7200 C   0  0  0  0  0  0  0  0  0  0  0  0
   41.2410   30.5600   40.0110 N   0  0  0  0  0  0  0  0  0  0  0  0
   42.3110   31.2950   40.1650 O   0  0  0  0  0  0  0  0  0  0  0  0
   42.0310   32.3030   40.9700 C   0  0  0  0  0  0  0  0  0  0  0  0
   40.7220   32.1610   41.3150 N   0  0  0  0  0  0  0  0  0  0  0  0
   42.9740   33.3170   41.3640 C   0  0  0  0  0  0  0  0  0  0  0  0
   43.2690   34.2640   40.6780 O   0  0  0  0  0  0  0  0  0  0  0  0
   43.4960   33.0650   42.6300 N   0  0  0  0  0  0  0  0  0  0  0  0
   44.2680   34.1470   43.1430 C   0  0  0  0  0  0  0  0  0  0  0  0
   44.6360   35.2860   42.7390 N   0  0  0  0  0  0  0  0  0  0  0  0
   44.8820   34.1640   44.4350 N   0  0  0  0  0  0  0  0  0  0  0  0
   44.0780   35.8320   42.0760 H   0  0  0  0  0  0  0  0  0  0  0  0
   43.3400   32.1860   43.1440 H   0  0  0  0  0  0  0  0  0  0  0  0
   45.4260   34.9850   44.7350 H   0  0  0  0  0  0  0  0  0  0  0  0
   44.7790   33.3550   45.0650 H   0  0  0  0  0  0  0  0  0  0  0  0
  1  2  1  0  0  0  0
  2  3  2  0  0  0  0
  4  3  1  0  0  0  0
  5  4  2  0  0  0  0
  6  1  2  0  0  0  0
  6  5  1  0  0  0  0
  7  3  1  1  0  0  0
  7 11  1  0  0  0  0
  7  8  1  0  0  0  0
  8  9  1  0  0  0  0
 10  9  1  0  0  0  0
 11 12  1  1  0  0  0
 11 10  1  0  0  0  0
 12 19  1  0  0  0  0
 13 12  1  0  0  0  0
 14 16  1  0  0  0  0
 14 13  2  0  0  0  0
 15 14  1  0  0  0  0
 16 18  1  0  0  0  0
 17 16  2  0  0  0  0
 18 21  1  0  0  0  0
 18 19  1  0  0  0  0
 19 20  2  0  0  0  0
 22  5  1  0  0  0  0
 22 26  1  0  0  0  0
 23 24  1  0  0  0  0
 23 22  2  0  0  0  0
 24 25  1  0  0  0  0
 25 26  2  0  0  0  0
 25 27  1  0  0  0  0
 27 29  1  0  0  0  0
 28 27  2  0  0  0  0
 29 30  1  0  0  0  0
 29 34  1  0  0  0  0
 30 32  1  0  0  0  0
 31 30  2  0  0  0  0
 32 35  1  0  0  0  0
 32 36  1  0  0  0  0
 33 31  1  0  0  0  0
M  END
>  <minimizedAffinity>
-6.95017672

$$$$

 OpenBabel03242510133D

 36 39  0  0  1  0  0  0  0  0999 V2000
   37.5820   25.0430   39.1740 C   0  0  0  0  0  3  0  0  0  0  0  0
   38.3540   25.9750   39.9170 C   0  0  0  0  0  3  0  0  0  0  0  0
   37.9420   27.3090   39.9490 C   0  0  0  0  0  0  0  0  0  0  0  0
   36.8360   27.6750   39.2860 N   0  0  0  0  0  0  0  0  0  0  0  0
   36.1190   26.7580   38.5850 C   0  0  0  0  0  0  0  0  0  0  0  0
   36.4840   25.4550   38.5270 N   0  0  0  0  0  0  0  0  0  0  0  0
   38.7040   28.3050   40.7120 C   0  0  2  0  0  3  0  0  0  0  0  0
   39.5820   27.7680   41.7650 C   0  0  0  0  0  2  0  0  0  0  0  0
   38.7370   27.7650   43.0320 C   0  0  0  0  0  2  0  0  0  0  0  0
   37.8270   28.9530   42.8580 C   0  0  0  0  0  2  0  0  0  0  0  0
   37.8420   29.3080   41.4220 C   0  0  1  0  0  3  0  0  0  0  0  0
   38.1010   30.6610   41.0890 N   0  0  0  0  0  0  0  0  0  0  0  0
   39.2970   31.2790   41.0370 C   0  0  0  0  0  3  0  0  0  0  0  0
   39.4810   32.6040   40.7040 C   0  0  0  0  0  0  0  0  0  0  0  0
   40.8710   33.1450   40.6900 C   0  0  0  0  0  1  0  0  0  0  0  0
   38.3860   33.3820   40.3970 C   0  0  0  0  0  0  0  0  0  0  0  0
   38.5590   34.5800   40.0980 O   0  0  0  0  0  0  0  0  0  0  0  0
   37.1840   32.7820   40.4460 N   0  0  0  0  0  0  0  0  0  0  0  0
   37.0640   31.4980   40.7730 C   0  0  0  0  0  0  0  0  0  0  0  0
   35.8710   31.0420   40.7840 O   0  0  0  0  0  0  0  0  0  0  0  0
   36.3380   33.3280   40.2270 H   0  0  0  0  0  0  0  0  0  0  0  0
   34.8930   27.1110   37.8550 C   0  0  0  0  0  0  0  0  0  0  0  0
   34.1520   26.4240   36.9640 N   0  0  0  0  0  0  0  0  0  0  0  0
   33.1360   27.1440   36.5680 O   0  0  0  0  0  0  0  0  0  0  0  0
   33.1720   28.3140   37.1770 C   0  0  0  0  0  0  0  0  0  0  0  0
   34.2700   28.2900   37.9800 N   0  0  0  0  0  0  0  0  0  0  0  0
   32.2050   29.3640   36.9840 C   0  0  0  0  0  0  0  0  0  0  0  0
   32.0510   29.9520   35.9430 O   0  0  0  0  0  0  0  0  0  0  0  0
   31.4770   29.6080   38.1450 N   0  0  0  0  0  0  0  0  0  0  0  0
   30.3740   30.4870   37.9400 C   0  0  0  0  0  0  0  0  0  0  0  0
   29.8850   31.1370   36.9740 N   0  0  0  0  0  0  0  0  0  0  0  0
   29.4440   30.8700   38.9560 N   0  0  0  0  0  0  0  0  0  0  0  0
   29.9740   30.8170   36.0060 H   0  0  0  0  0  0  0  0  0  0  0  0
   31.7120   29.1970   39.0590 H   0  0  0  0  0  0  0  0  0  0  0  0
   28.6700   31.5110   38.7310 H   0  0  0  0  0  0  0  0  0  0  0  0
   29.5470   30.5050   39.9140 H   0  0  0  0  0  0  0  0  0  0  0  0
  1  2  1  0  0  0  0
  2  3  2  0  0  0  0
  4  3  1  0  0  0  0
  5  4  2  0  0  0  0
  6  5  1  0  0  0  0
  6  1  2  0  0  0  0
  7  3  1  1  0  0  0
  7 11  1  0  0  0  0
  7  8  1  0  0  0  0
  8  9  1  0  0  0  0
 10  9  1  0  0  0  0
 11 12  1  1  0  0  0
 11 10  1  0  0  0  0
 13 12  1  0  0  0  0
 14 13  2  0  0  0  0
 15 14  1  0  0  0  0
 16 18  1  0  0  0  0
 16 14  1  0  0  0  0
 17 16  2  0  0  0  0
 18 19  1  0  0  0  0
 19 20  2  0  0  0  0
 19 12  1  0  0  0  0
 21 18  1  0  0  0  0
 22 26  1  0  0  0  0
 22  5  1  0  0  0  0
 23 22  2  0  0  0  0
 24 23  1  0  0  0  0
 24 25  1  0  0  0  0
 25 26  2  0  0  0  0
 27 25  1  0  0  0  0
 27 29  1  0  0  0  0
 28 27  2  0  0  0  0
 29 34  1  0  0  0  0
 30 29  1  0  0  0  0
 30 32  1  0  0  0  0
 31 30  2  0  0  0  0
 32 36  1  0  0  0  0
 33 31  1  0  0  0  0
 35 32  1  0  0  0  0
M  END
>  <minimizedAffinity>
-6.86210823

$$$$

 OpenBabel03242510133D

 36 39  0  0  1  0  0  0  0  0999 V2000
   36.2000   31.1510   40.7670 C   0  0  0  0  0  3  0  0  0  0  0  0
   36.1650   29.7980   41.1980 C   0  0  0  0  0  3  0  0  0  0  0  0
   37.3500   29.0590   41.1820 C   0  0  0  0  0  0  0  0  0  0  0  0
   38.4840   29.6400   40.7640 N   0  0  0  0  0  0  0  0  0  0  0  0
   38.4850   30.9370   40.3590 C   0  0  0  0  0  0  0  0  0  0  0  0
   37.3580   31.6880   40.3580 N   0  0  0  0  0  0  0  0  0  0  0  0
   37.3610   27.6610   41.6280 C   0  0  2  0  0  3  0  0  0  0  0  0
   36.7400   27.4040   42.9380 C   0  0  0  0  0  2  0  0  0  0  0  0
   37.8740   27.5070   43.9490 C   0  0  0  0  0  2  0  0  0  0  0  0
   39.0780   27.0190   43.1880 C   0  0  0  0  0  2  0  0  0  0  0  0
   38.7400   27.0800   41.7500 C   0  0  1  0  0  3  0  0  0  0  0  0
   38.9670   25.9120   40.9780 N   0  0  0  0  0  0  0  0  0  0  0  0
   38.2930   24.7470   41.0360 C   0  0  0  0  0  3  0  0  0  0  0  0
   38.5640   23.6450   40.2540 C   0  0  0  0  0  0  0  0  0  0  0  0
   37.7280   22.4230   40.4350 C   0  0  0  0  0  1  0  0  0  0  0  0
   39.5920   23.7040   39.3370 C   0  0  0  0  0  0  0  0  0  0  0  0
   39.8330   22.7020   38.6340 O   0  0  0  0  0  0  0  0  0  0  0  0
   40.2760   24.8580   39.2670 N   0  0  0  0  0  0  0  0  0  0  0  0
   39.9700   25.8930   40.0460 C   0  0  0  0  0  0  0  0  0  0  0  0
   40.6920   26.9340   39.8870 O   0  0  0  0  0  0  0  0  0  0  0  0
   41.0540   24.9440   38.5970 H   0  0  0  0  0  0  0  0  0  0  0  0
   39.7060   31.6180   39.9080 C   0  0  0  0  0  0  0  0  0  0  0  0
   40.3130   32.7440   40.3320 N   0  0  0  0  0  0  0  0  0  0  0  0
   41.3880   32.9730   39.6250 O   0  0  0  0  0  0  0  0  0  0  0  0
   41.5250   32.0190   38.7240 C   0  0  0  0  0  0  0  0  0  0  0  0
   40.4730   31.1740   38.9030 N   0  0  0  0  0  0  0  0  0  0  0  0
   42.6000   31.9480   37.7690 C   0  0  0  0  0  0  0  0  0  0  0  0
   43.5710   32.6640   37.7950 O   0  0  0  0  0  0  0  0  0  0  0  0
   42.3770   30.9540   36.8210 N   0  0  0  0  0  0  0  0  0  0  0  0
   43.5070   30.7100   35.9880 C   0  0  0  0  0  0  0  0  0  0  0  0
   44.6720   31.1810   35.8600 N   0  0  0  0  0  0  0  0  0  0  0  0
   43.5580   29.7150   34.9620 N   0  0  0  0  0  0  0  0  0  0  0  0
   45.1820   31.5890   36.6490 H   0  0  0  0  0  0  0  0  0  0  0  0
   41.4860   30.4460   36.7290 H   0  0  0  0  0  0  0  0  0  0  0  0
   44.4130   29.5980   34.4000 H   0  0  0  0  0  0  0  0  0  0  0  0
   42.7400   29.1160   34.7840 H   0  0  0  0  0  0  0  0  0  0  0  0
  1  2  1  0  0  0  0
  3  2  2  0  0  0  0
  4  3  1  0  0  0  0
  5  4  2  0  0  0  0
  6  5  1  0  0  0  0
  6  1  2  0  0  0  0
  7  3  1  1  0  0  0
  7 11  1  0  0  0  0
  7  8  1  0  0  0  0
  8  9  1  0  0  0  0
 10  9  1  0  0  0  0
 11 12  1  1  0  0  0
 11 10  1  0  0  0  0
 12 13  1  0  0  0  0
 14 15  1  0  0  0  0
 14 13  2  0  0  0  0
 16 14  1  0  0  0  0
 17 16  2  0  0  0  0
 18 16  1  0  0  0  0
 18 19  1  0  0  0  0
 19 12  1  0  0  0  0
 20 19  2  0  0  0  0
 21 18  1  0  0  0  0
 22 23  2  0  0  0  0
 22  5  1  0  0  0  0
 24 23  1  0  0  0  0
 25 26  2  0  0  0  0
 25 24  1  0  0  0  0
 26 22  1  0  0  0  0
 27 28  2  0  0  0  0
 27 25  1  0  0  0  0
 29 27  1  0  0  0  0
 30 29  1  0  0  0  0
 31 30  2  0  0  0  0
 31 33  1  0  0  0  0
 32 30  1  0  0  0  0
 34 29  1  0  0  0  0
 35 32  1  0  0  0  0
 36 32  1  0  0  0  0
M  END
>  <minimizedAffinity>
-6.60310078

$$$$
