
 OpenBabel03242509563D

 39 44  0  0  0  0  0  0  0  0999 V2000
   35.6070   29.8780   39.6950 C   0  0  0  0  0  3  0  0  0  0  0  0
   35.8620   29.2770   40.9400 C   0  0  0  0  0  3  0  0  0  0  0  0
   37.0730   29.3690   41.5440 C   0  0  0  0  0  0  0  0  0  0  0  0
   38.0450   30.0610   40.9110 N   0  0  0  0  0  0  0  0  0  0  0  0
   37.7890   30.6420   39.7020 C   0  0  0  0  0  0  0  0  0  0  0  0
   36.6080   30.5540   39.1120 N   0  0  0  0  0  0  0  0  0  0  0  0
   38.9950   31.3530   39.1800 C   0  0  0  0  0  0  0  0  0  0  0  0
   39.7910   31.0310   37.9990 C   0  0  0  0  0  3  0  0  0  0  0  0
   41.0280   32.3520   38.1200 S   0  0  0  0  0  0  0  0  0  0  0  0
   40.2650   33.0910   39.7110 C   0  0  0  0  0  0  0  0  0  0  0  0
   39.2170   32.3370   40.0020 N   0  0  0  0  0  0  0  0  0  0  0  0
   40.8580   34.2870   40.3690 N   0  0  0  0  0  0  0  0  0  0  0  0
   40.5190   35.5810   40.3490 C   0  0  0  0  0  3  0  0  0  0  0  0
   41.4160   36.2030   41.1320 N   0  0  0  0  0  0  0  0  0  0  0  0
   42.2910   35.3070   41.6230 C   0  0  0  0  0  0  0  0  0  0  0  0
   43.3770   35.4630   42.4610 C   0  0  0  0  0  0  0  0  0  0  0  0
   43.7050   36.5910   42.9090 O   0  0  0  0  0  0  0  0  0  0  0  0
   44.1120   34.3750   42.8130 N   0  0  0  0  0  0  0  0  0  0  0  0
   43.7670   33.1490   42.3330 C   0  0  0  0  0  0  0  0  0  0  0  0
   44.5070   31.9570   42.6700 N   0  0  0  0  0  0  0  0  0  0  0  0
   42.6990   33.0140   41.5120 N   0  0  0  0  0  0  0  0  0  0  0  0
   41.9410   34.0500   41.1350 C   0  0  0  0  0  0  0  0  0  0  0  0
   44.9250   34.4770   43.4370 H   0  0  0  0  0  0  0  0  0  0  0  0
   44.2160   31.0450   42.2880 H   0  0  0  0  0  0  0  0  0  0  0  0
   45.3260   32.0170   43.2910 H   0  0  0  0  0  0  0  0  0  0  0  0
   37.3130   28.7320   42.8380 C   0  0  0  0  0  2  0  0  0  0  0  0
   36.7640   27.3670   43.0200 C   0  0  0  0  0  2  0  0  0  0  0  0
   37.8910   26.3940   42.8760 C   0  0  0  0  0  0  0  0  0  0  0  0
   37.7450   25.1760   42.2390 C   0  0  0  0  0  3  0  0  0  0  0  0
   38.6990   24.2270   42.0550 C   0  0  0  0  0  3  0  0  0  0  0  0
   39.9230   24.5610   42.5740 N   0  0  0  0  0  0  0  0  0  0  0  0
   40.1040   25.7420   43.2030 C   0  0  0  0  0  0  0  0  0  0  0  0
   39.1410   26.6730   43.3760 N   0  0  0  0  0  0  0  0  0  0  0  0
   41.4370   26.0120   43.7230 C   0  0  0  0  0  0  0  0  0  0  0  0
   42.5480   25.3880   43.1540 C   0  0  0  0  0  3  0  0  0  0  0  0
   43.8010   25.6440   43.6470 C   0  0  0  0  0  3  0  0  0  0  0  0
   43.9800   26.4810   44.6660 N   0  0  0  0  0  0  0  0  0  0  0  0
   42.8910   27.0720   45.2020 C   0  0  0  0  0  3  0  0  0  0  0  0
   41.6250   26.8510   44.7480 N   0  0  0  0  0  0  0  0  0  0  0  0
  1  2  1  0  0  0  0
  2  3  2  0  0  0  0
  3 26  1  0  0  0  0
  4  3  1  0  0  0  0
  5  4  2  0  0  0  0
  6  1  2  0  0  0  0
  6  5  1  0  0  0  0
  7  5  1  0  0  0  0
  7 11  1  0  0  0  0
  8  9  1  0  0  0  0
  8  7  2  0  0  0  0
  9 10  1  0  0  0  0
 10 11  2  0  0  0  0
 10 12  1  0  0  0  0
 12 22  1  0  0  0  0
 13 12  1  0  0  0  0
 13 14  2  0  0  0  0
 14 15  1  0  0  0  0
 15 16  1  0  0  0  0
 16 18  1  0  0  0  0
 16 17  2  0  0  0  0
 18 23  1  0  0  0  0
 19 20  1  0  0  0  0
 19 18  1  0  0  0  0
 20 25  1  0  0  0  0
 21 19  2  0  0  0  0
 22 21  1  0  0  0  0
 22 15  2  0  0  0  0
 24 20  1  0  0  0  0
 26 27  1  0  0  0  0
 28 27  1  0  0  0  0
 28 33  1  0  0  0  0
 29 28  2  0  0  0  0
 30 29  1  0  0  0  0
 30 31  2  0  0  0  0
 31 32  1  0  0  0  0
 32 33  2  0  0  0  0
 32 34  1  0  0  0  0
 34 39  1  0  0  0  0
 35 36  1  0  0  0  0
 35 34  2  0  0  0  0
 36 37  2  0  0  0  0
 37 38  1  0  0  0  0
 39 38  2  0  0  0  0
M  END
>  <minimizedAffinity>
-7.79171705

$$$$

 OpenBabel03242509563D

 39 44  0  0  0  0  0  0  0  0999 V2000
   36.9490   32.3080   39.1770 C   0  0  0  0  0  3  0  0  0  0  0  0
   37.4940   33.5450   39.5630 C   0  0  0  0  0  3  0  0  0  0  0  0
   38.4390   33.6410   40.5310 C   0  0  0  0  0  0  0  0  0  0  0  0
   38.8520   32.5010   41.1280 N   0  0  0  0  0  0  0  0  0  0  0  0
   38.3180   31.3040   40.7470 C   0  0  0  0  0  0  0  0  0  0  0  0
   37.3960   31.2080   39.8020 N   0  0  0  0  0  0  0  0  0  0  0  0
   38.9100   30.1770   41.5300 C   0  0  0  0  0  0  0  0  0  0  0  0
   40.0770   30.2030   42.4060 C   0  0  0  0  0  3  0  0  0  0  0  0
   40.0930   28.4610   42.9120 S   0  0  0  0  0  0  0  0  0  0  0  0
   38.5500   28.0160   41.8730 C   0  0  0  0  0  0  0  0  0  0  0  0
   38.1760   29.1340   41.2720 N   0  0  0  0  0  0  0  0  0  0  0  0
   38.0030   26.6320   41.8550 N   0  0  0  0  0  0  0  0  0  0  0  0
   36.9700   26.0680   42.4910 C   0  0  0  0  0  3  0  0  0  0  0  0
   36.9500   24.7870   42.0880 N   0  0  0  0  0  0  0  0  0  0  0  0
   37.9540   24.5680   41.2200 C   0  0  0  0  0  0  0  0  0  0  0  0
   38.3370   23.4270   40.5430 C   0  0  0  0  0  0  0  0  0  0  0  0
   37.7160   22.3420   40.6810 O   0  0  0  0  0  0  0  0  0  0  0  0
   39.4080   23.4730   39.7080 N   0  0  0  0  0  0  0  0  0  0  0  0
   40.0870   24.6410   39.5520 C   0  0  0  0  0  0  0  0  0  0  0  0
   41.2320   24.7540   38.6800 N   0  0  0  0  0  0  0  0  0  0  0  0
   39.6980   25.7500   40.2230 N   0  0  0  0  0  0  0  0  0  0  0  0
   38.6510   25.7630   41.0570 C   0  0  0  0  0  0  0  0  0  0  0  0
   39.7050   22.6290   39.1980 H   0  0  0  0  0  0  0  0  0  0  0  0
   41.7220   25.6550   38.5870 H   0  0  0  0  0  0  0  0  0  0  0  0
   41.5600   23.9320   38.1530 H   0  0  0  0  0  0  0  0  0  0  0  0
   38.9870   34.9400   40.9160 C   0  0  0  0  0  2  0  0  0  0  0  0
   39.8710   35.6090   39.9310 C   0  0  0  0  0  2  0  0  0  0  0  0
   41.2710   35.1430   40.1780 C   0  0  0  0  0  0  0  0  0  0  0  0
   42.0050   34.4590   39.2280 C   0  0  0  0  0  3  0  0  0  0  0  0
   43.2770   33.9960   39.3510 C   0  0  0  0  0  3  0  0  0  0  0  0
   43.8500   34.2620   40.5670 N   0  0  0  0  0  0  0  0  0  0  0  0
   43.1640   34.9290   41.5200 C   0  0  0  0  0  0  0  0  0  0  0  0
   41.8990   35.3810   41.3770 N   0  0  0  0  0  0  0  0  0  0  0  0
   43.8520   35.1670   42.7800 C   0  0  0  0  0  0  0  0  0  0  0  0
   43.6790   36.3780   43.4530 C   0  0  0  0  0  3  0  0  0  0  0  0
   44.3300   36.5980   44.6390 C   0  0  0  0  0  3  0  0  0  0  0  0
   45.1300   35.6730   45.1650 N   0  0  0  0  0  0  0  0  0  0  0  0
   45.2840   34.5110   44.4970 C   0  0  0  0  0  3  0  0  0  0  0  0
   44.6590   34.2430   43.3150 N   0  0  0  0  0  0  0  0  0  0  0  0
  1  2  2  0  0  0  0
  1  6  1  0  0  0  0
  2  3  1  0  0  0  0
  3 26  1  0  0  0  0
  3  4  2  0  0  0  0
  5  4  1  0  0  0  0
  5  7  1  0  0  0  0
  6  5  2  0  0  0  0
  7  8  2  0  0  0  0
  8  9  1  0  0  0  0
 10  9  1  0  0  0  0
 11  7  1  0  0  0  0
 11 10  2  0  0  0  0
 12 10  1  0  0  0  0
 12 13  1  0  0  0  0
 14 13  2  0  0  0  0
 15 14  1  0  0  0  0
 16 17  2  0  0  0  0
 16 15  1  0  0  0  0
 18 16  1  0  0  0  0
 19 18  1  0  0  0  0
 19 21  2  0  0  0  0
 20 19  1  0  0  0  0
 21 22  1  0  0  0  0
 22 15  2  0  0  0  0
 22 12  1  0  0  0  0
 23 18  1  0  0  0  0
 24 20  1  0  0  0  0
 25 20  1  0  0  0  0
 27 28  1  0  0  0  0
 27 26  1  0  0  0  0
 28 33  1  0  0  0  0
 29 30  1  0  0  0  0
 29 28  2  0  0  0  0
 30 31  2  0  0  0  0
 31 32  1  0  0  0  0
 32 34  1  0  0  0  0
 33 32  2  0  0  0  0
 34 39  2  0  0  0  0
 34 35  1  0  0  0  0
 35 36  2  0  0  0  0
 36 37  1  0  0  0  0
 38 37  2  0  0  0  0
 39 38  1  0  0  0  0
M  END
>  <minimizedAffinity>
-7.78526211

$$$$

 OpenBabel03242509563D

 39 44  0  0  0  0  0  0  0  0999 V2000
   35.4370   29.3740   39.3410 C   0  0  0  0  0  3  0  0  0  0  0  0
   35.6410   28.8850   40.6430 C   0  0  0  0  0  3  0  0  0  0  0  0
   36.8030   29.0920   41.3110 C   0  0  0  0  0  0  0  0  0  0  0  0
   37.7770   29.7880   40.6860 N   0  0  0  0  0  0  0  0  0  0  0  0
   37.5710   30.2590   39.4210 C   0  0  0  0  0  0  0  0  0  0  0  0
   36.4380   30.0590   38.7680 N   0  0  0  0  0  0  0  0  0  0  0  0
   38.7700   30.9960   38.9190 C   0  0  0  0  0  0  0  0  0  0  0  0
   39.6320   30.6540   37.7910 C   0  0  0  0  0  3  0  0  0  0  0  0
   40.8070   32.0300   37.9030 S   0  0  0  0  0  0  0  0  0  0  0  0
   39.9430   32.8090   39.4210 C   0  0  0  0  0  0  0  0  0  0  0  0
   38.9140   32.0260   39.7010 N   0  0  0  0  0  0  0  0  0  0  0  0
   40.4560   34.0590   40.0450 N   0  0  0  0  0  0  0  0  0  0  0  0
   40.0660   35.3350   39.9490 C   0  0  0  0  0  3  0  0  0  0  0  0
   40.9000   36.0310   40.7390 N   0  0  0  0  0  0  0  0  0  0  0  0
   41.7870   35.1960   41.3110 C   0  0  0  0  0  0  0  0  0  0  0  0
   42.8260   35.4370   42.1880 C   0  0  0  0  0  0  0  0  0  0  0  0
   43.0870   36.5980   42.5940 O   0  0  0  0  0  0  0  0  0  0  0  0
   43.5870   34.3990   42.6230 N   0  0  0  0  0  0  0  0  0  0  0  0
   43.3140   33.1390   42.1890 C   0  0  0  0  0  0  0  0  0  0  0  0
   44.0860   31.9960   42.6150 N   0  0  0  0  0  0  0  0  0  0  0  0
   42.2930   32.9210   41.3290 N   0  0  0  0  0  0  0  0  0  0  0  0
   41.5110   33.9050   40.8690 C   0  0  0  0  0  0  0  0  0  0  0  0
   44.3660   34.5650   43.2770 H   0  0  0  0  0  0  0  0  0  0  0  0
   43.8510   31.0570   42.2650 H   0  0  0  0  0  0  0  0  0  0  0  0
   44.8730   32.1200   43.2680 H   0  0  0  0  0  0  0  0  0  0  0  0
   36.9910   28.5700   42.6640 C   0  0  0  0  0  2  0  0  0  0  0  0
   38.3890   28.4520   43.1430 C   0  0  0  0  0  2  0  0  0  0  0  0
   38.8140   27.0270   42.9770 C   0  0  0  0  0  0  0  0  0  0  0  0
   39.8970   26.4910   43.6480 C   0  0  0  0  0  3  0  0  0  0  0  0
   40.3630   25.2170   43.5670 C   0  0  0  0  0  3  0  0  0  0  0  0
   39.6460   24.4150   42.7170 N   0  0  0  0  0  0  0  0  0  0  0  0
   38.5820   24.9040   42.0450 C   0  0  0  0  0  0  0  0  0  0  0  0
   38.1340   26.1750   42.1380 N   0  0  0  0  0  0  0  0  0  0  0  0
   37.8810   23.9810   41.1640 C   0  0  0  0  0  0  0  0  0  0  0  0
   36.5970   24.2870   40.7100 C   0  0  0  0  0  3  0  0  0  0  0  0
   35.9400   23.4140   39.8820 C   0  0  0  0  0  3  0  0  0  0  0  0
   36.5070   22.2730   39.4990 N   0  0  0  0  0  0  0  0  0  0  0  0
   37.7490   21.9970   39.9510 C   0  0  0  0  0  3  0  0  0  0  0  0
   38.4430   22.8310   40.7750 N   0  0  0  0  0  0  0  0  0  0  0  0
  1  2  1  0  0  0  0
  2  3  2  0  0  0  0
  3 26  1  0  0  0  0
  4  3  1  0  0  0  0
  5  4  2  0  0  0  0
  6  1  2  0  0  0  0
  6  5  1  0  0  0  0
  7  5  1  0  0  0  0
  7 11  1  0  0  0  0
  8  9  1  0  0  0  0
  8  7  2  0  0  0  0
  9 10  1  0  0  0  0
 10 11  2  0  0  0  0
 10 12  1  0  0  0  0
 12 22  1  0  0  0  0
 13 12  1  0  0  0  0
 13 14  2  0  0  0  0
 14 15  1  0  0  0  0
 15 16  1  0  0  0  0
 16 17  2  0  0  0  0
 16 18  1  0  0  0  0
 18 23  1  0  0  0  0
 19 20  1  0  0  0  0
 19 18  1  0  0  0  0
 20 25  1  0  0  0  0
 21 19  2  0  0  0  0
 22 15  2  0  0  0  0
 22 21  1  0  0  0  0
 24 20  1  0  0  0  0
 26 27  1  0  0  0  0
 28 27  1  0  0  0  0
 28 29  1  0  0  0  0
 30 29  2  0  0  0  0
 31 30  1  0  0  0  0
 32 33  1  0  0  0  0
 32 31  2  0  0  0  0
 33 28  2  0  0  0  0
 34 32  1  0  0  0  0
 35 34  2  0  0  0  0
 36 35  1  0  0  0  0
 37 36  2  0  0  0  0
 37 38  1  0  0  0  0
 38 39  2  0  0  0  0
 39 34  1  0  0  0  0
M  END
>  <minimizedAffinity>
-7.76690865

$$$$

 OpenBabel03242509563D

 39 44  0  0  0  0  0  0  0  0999 V2000
   40.0150   36.2820   40.6360 C   0  0  0  0  0  3  0  0  0  0  0  0
   41.3600   35.8860   40.7480 C   0  0  0  0  0  3  0  0  0  0  0  0
   41.7400   34.5920   40.6100 C   0  0  0  0  0  0  0  0  0  0  0  0
   40.7800   33.6740   40.3600 N   0  0  0  0  0  0  0  0  0  0  0  0
   39.4770   34.0660   40.2520 C   0  0  0  0  0  0  0  0  0  0  0  0
   39.1040   35.3290   40.3860 N   0  0  0  0  0  0  0  0  0  0  0  0
   38.5850   32.9000   39.9760 C   0  0  0  0  0  0  0  0  0  0  0  0
   37.2190   32.9100   39.4580 C   0  0  0  0  0  3  0  0  0  0  0  0
   36.9020   31.1250   39.4520 S   0  0  0  0  0  0  0  0  0  0  0  0
   38.6360   30.6890   40.1340 C   0  0  0  0  0  0  0  0  0  0  0  0
   39.2670   31.8400   40.3000 N   0  0  0  0  0  0  0  0  0  0  0  0
   39.0390   29.2760   40.3740 N   0  0  0  0  0  0  0  0  0  0  0  0
   39.7870   28.4250   39.6630 C   0  0  0  0  0  3  0  0  0  0  0  0
   39.8100   27.2830   40.3710 N   0  0  0  0  0  0  0  0  0  0  0  0
   39.0870   27.4310   41.4970 C   0  0  0  0  0  0  0  0  0  0  0  0
   38.8190   26.5510   42.5260 C   0  0  0  0  0  0  0  0  0  0  0  0
   39.2730   25.3780   42.5220 O   0  0  0  0  0  0  0  0  0  0  0  0
   38.0460   26.9560   43.5680 N   0  0  0  0  0  0  0  0  0  0  0  0
   37.5490   28.2230   43.5810 C   0  0  0  0  0  0  0  0  0  0  0  0
   36.7230   28.7120   44.6580 N   0  0  0  0  0  0  0  0  0  0  0  0
   37.8220   29.0720   42.5640 N   0  0  0  0  0  0  0  0  0  0  0  0
   38.5770   28.7270   41.5140 C   0  0  0  0  0  0  0  0  0  0  0  0
   37.8380   26.3090   44.3410 H   0  0  0  0  0  0  0  0  0  0  0  0
   36.3640   29.6770   44.6350 H   0  0  0  0  0  0  0  0  0  0  0  0
   36.4920   28.0960   45.4500 H   0  0  0  0  0  0  0  0  0  0  0  0
   43.1440   34.2070   40.7340 C   0  0  0  0  0  2  0  0  0  0  0  0
   43.9400   34.9150   41.7650 C   0  0  0  0  0  2  0  0  0  0  0  0
   44.2800   33.9310   42.8400 C   0  0  0  0  0  0  0  0  0  0  0  0
   45.1570   34.2250   43.8670 C   0  0  0  0  0  3  0  0  0  0  0  0
   45.5310   33.4070   44.8850 C   0  0  0  0  0  3  0  0  0  0  0  0
   44.9460   32.1680   44.8470 N   0  0  0  0  0  0  0  0  0  0  0  0
   44.0840   31.8450   43.8600 C   0  0  0  0  0  0  0  0  0  0  0  0
   43.7250   32.6730   42.8550 N   0  0  0  0  0  0  0  0  0  0  0  0
   43.5120   30.5070   43.8990 C   0  0  0  0  0  0  0  0  0  0  0  0
   42.4650   30.1690   43.0390 C   0  0  0  0  0  3  0  0  0  0  0  0
   41.9280   28.9090   43.0810 C   0  0  0  0  0  3  0  0  0  0  0  0
   42.3880   27.9940   43.9310 N   0  0  0  0  0  0  0  0  0  0  0  0
   43.4000   28.3430   44.7540 C   0  0  0  0  0  3  0  0  0  0  0  0
   43.9680   29.5820   44.7510 N   0  0  0  0  0  0  0  0  0  0  0  0
  1  2  1  0  0  0  0
  3 26  1  0  0  0  0
  3  2  2  0  0  0  0
  4  3  1  0  0  0  0
  5  4  2  0  0  0  0
  5  6  1  0  0  0  0
  6  1  2  0  0  0  0
  7  5  1  0  0  0  0
  7 11  1  0  0  0  0
  8  7  2  0  0  0  0
  9  8  1  0  0  0  0
  9 10  1  0  0  0  0
 10 11  2  0  0  0  0
 10 12  1  0  0  0  0
 12 22  1  0  0  0  0
 13 14  2  0  0  0  0
 13 12  1  0  0  0  0
 14 15  1  0  0  0  0
 15 22  2  0  0  0  0
 15 16  1  0  0  0  0
 16 18  1  0  0  0  0
 17 16  2  0  0  0  0
 18 19  1  0  0  0  0
 18 23  1  0  0  0  0
 19 20  1  0  0  0  0
 20 25  1  0  0  0  0
 21 19  2  0  0  0  0
 22 21  1  0  0  0  0
 24 20  1  0  0  0  0
 26 27  1  0  0  0  0
 27 28  1  0  0  0  0
 28 33  2  0  0  0  0
 28 29  1  0  0  0  0
 29 30  2  0  0  0  0
 31 30  1  0  0  0  0
 32 34  1  0  0  0  0
 32 31  2  0  0  0  0
 33 32  1  0  0  0  0
 34 39  1  0  0  0  0
 35 36  1  0  0  0  0
 35 34  2  0  0  0  0
 36 37  2  0  0  0  0
 37 38  1  0  0  0  0
 39 38  2  0  0  0  0
M  END
>  <minimizedAffinity>
-7.63218927

$$$$

 OpenBabel03242509563D

 39 44  0  0  0  0  0  0  0  0999 V2000
   36.0210   29.4550   38.0600 C   0  0  0  0  0  3  0  0  0  0  0  0
   35.8840   28.5300   39.1090 C   0  0  0  0  0  3  0  0  0  0  0  0
   36.3850   28.7700   40.3460 C   0  0  0  0  0  0  0  0  0  0  0  0
   37.0330   29.9380   40.5510 N   0  0  0  0  0  0  0  0  0  0  0  0
   37.1620   30.8320   39.5260 C   0  0  0  0  0  0  0  0  0  0  0  0
   36.6730   30.5990   38.3190 N   0  0  0  0  0  0  0  0  0  0  0  0
   37.9090   32.0490   39.9650 C   0  0  0  0  0  0  0  0  0  0  0  0
   37.3980   33.4050   40.1430 C   0  0  0  0  0  3  0  0  0  0  0  0
   38.9320   34.2230   40.6580 S   0  0  0  0  0  0  0  0  0  0  0  0
   39.9710   32.6210   40.5460 C   0  0  0  0  0  0  0  0  0  0  0  0
   39.1380   31.6690   40.1570 N   0  0  0  0  0  0  0  0  0  0  0  0
   41.4230   32.6170   40.8700 N   0  0  0  0  0  0  0  0  0  0  0  0
   42.0970   32.2390   41.9610 C   0  0  0  0  0  3  0  0  0  0  0  0
   43.3930   32.4600   41.6840 N   0  0  0  0  0  0  0  0  0  0  0  0
   43.5120   32.9670   40.4430 C   0  0  0  0  0  0  0  0  0  0  0  0
   44.6250   33.3510   39.7220 C   0  0  0  0  0  0  0  0  0  0  0  0
   45.7830   33.2590   40.2030 O   0  0  0  0  0  0  0  0  0  0  0  0
   44.4700   33.8410   38.4640 N   0  0  0  0  0  0  0  0  0  0  0  0
   43.2210   33.9450   37.9340 C   0  0  0  0  0  0  0  0  0  0  0  0
   42.9910   34.4570   36.6040 N   0  0  0  0  0  0  0  0  0  0  0  0
   42.1410   33.5650   38.6550 N   0  0  0  0  0  0  0  0  0  0  0  0
   42.2350   33.0750   39.8970 C   0  0  0  0  0  0  0  0  0  0  0  0
   45.2920   34.1310   37.9150 H   0  0  0  0  0  0  0  0  0  0  0  0
   42.0320   34.5220   36.2360 H   0  0  0  0  0  0  0  0  0  0  0  0
   43.7870   34.7590   36.0240 H   0  0  0  0  0  0  0  0  0  0  0  0
   36.2310   27.7900   41.4190 C   0  0  0  0  0  2  0  0  0  0  0  0
   36.9020   28.0980   42.7050 C   0  0  0  0  0  2  0  0  0  0  0  0
   38.1130   27.2280   42.8140 C   0  0  0  0  0  0  0  0  0  0  0  0
   38.1190   25.9070   42.4070 C   0  0  0  0  0  3  0  0  0  0  0  0
   39.1600   25.0360   42.4620 C   0  0  0  0  0  3  0  0  0  0  0  0
   40.3080   25.5740   42.9840 N   0  0  0  0  0  0  0  0  0  0  0  0
   40.3410   26.8610   43.3920 C   0  0  0  0  0  0  0  0  0  0  0  0
   39.2930   27.7110   43.3290 N   0  0  0  0  0  0  0  0  0  0  0  0
   41.6010   27.3460   43.9330 C   0  0  0  0  0  0  0  0  0  0  0  0
   42.1700   28.5200   43.4350 C   0  0  0  0  0  3  0  0  0  0  0  0
   43.3580   28.9720   43.9470 C   0  0  0  0  0  3  0  0  0  0  0  0
   43.9850   28.3100   44.9170 N   0  0  0  0  0  0  0  0  0  0  0  0
   43.4180   27.1780   45.3830 C   0  0  0  0  0  3  0  0  0  0  0  0
   42.2380   26.6860   44.9080 N   0  0  0  0  0  0  0  0  0  0  0  0
  1  6  2  0  0  0  0
  1  2  1  0  0  0  0
  2  3  2  0  0  0  0
  3  4  1  0  0  0  0
  3 26  1  0  0  0  0
  5  7  1  0  0  0  0
  5  4  2  0  0  0  0
  6  5  1  0  0  0  0
  7  8  2  0  0  0  0
  7 11  1  0  0  0  0
  8  9  1  0  0  0  0
 10  9  1  0  0  0  0
 10 12  1  0  0  0  0
 11 10  2  0  0  0  0
 12 13  1  0  0  0  0
 14 13  2  0  0  0  0
 15 14  1  0  0  0  0
 16 17  2  0  0  0  0
 16 15  1  0  0  0  0
 18 16  1  0  0  0  0
 19 18  1  0  0  0  0
 19 21  2  0  0  0  0
 20 19  1  0  0  0  0
 21 22  1  0  0  0  0
 22 15  2  0  0  0  0
 22 12  1  0  0  0  0
 23 18  1  0  0  0  0
 24 20  1  0  0  0  0
 25 20  1  0  0  0  0
 26 27  1  0  0  0  0
 27 28  1  0  0  0  0
 28 33  1  0  0  0  0
 29 30  1  0  0  0  0
 29 28  2  0  0  0  0
 30 31  2  0  0  0  0
 31 32  1  0  0  0  0
 32 34  1  0  0  0  0
 33 32  2  0  0  0  0
 34 39  1  0  0  0  0
 35 34  2  0  0  0  0
 35 36  1  0  0  0  0
 36 37  2  0  0  0  0
 37 38  1  0  0  0  0
 39 38  2  0  0  0  0
M  END
>  <minimizedAffinity>
-7.39471817

$$$$

 OpenBabel03242509563D

 39 44  0  0  0  0  0  0  0  0999 V2000
   38.1550   27.2830   43.6540 C   0  0  0  0  0  3  0  0  0  0  0  0
   37.1430   27.8080   42.8320 C   0  0  0  0  0  3  0  0  0  0  0  0
   37.3980   28.7630   41.9040 C   0  0  0  0  0  0  0  0  0  0  0  0
   38.6690   29.2070   41.7850 N   0  0  0  0  0  0  0  0  0  0  0  0
   39.6460   28.6910   42.5870 C   0  0  0  0  0  0  0  0  0  0  0  0
   39.3990   27.7590   43.4930 N   0  0  0  0  0  0  0  0  0  0  0  0
   40.9700   29.3180   42.2940 C   0  0  0  0  0  0  0  0  0  0  0  0
   41.7560   30.2060   43.1450 C   0  0  0  0  0  3  0  0  0  0  0  0
   43.1620   30.4930   42.0360 S   0  0  0  0  0  0  0  0  0  0  0  0
   42.4550   29.3830   40.6490 C   0  0  0  0  0  0  0  0  0  0  0  0
   41.3010   28.9210   41.0990 N   0  0  0  0  0  0  0  0  0  0  0  0
   43.1900   29.1830   39.3700 N   0  0  0  0  0  0  0  0  0  0  0  0
   43.9590   28.1830   38.9250 C   0  0  0  0  0  3  0  0  0  0  0  0
   44.3550   28.5490   37.6940 N   0  0  0  0  0  0  0  0  0  0  0  0
   43.8390   29.7540   37.3900 C   0  0  0  0  0  0  0  0  0  0  0  0
   43.9610   30.5330   36.2570 C   0  0  0  0  0  0  0  0  0  0  0  0
   44.6480   30.1590   35.2720 O   0  0  0  0  0  0  0  0  0  0  0  0
   43.3260   31.7340   36.2010 N   0  0  0  0  0  0  0  0  0  0  0  0
   42.5810   32.1490   37.2610 C   0  0  0  0  0  0  0  0  0  0  0  0
   41.8840   33.4130   37.2610 N   0  0  0  0  0  0  0  0  0  0  0  0
   42.4730   31.3720   38.3630 N   0  0  0  0  0  0  0  0  0  0  0  0
   43.0750   30.1820   38.4730 C   0  0  0  0  0  0  0  0  0  0  0  0
   43.4090   32.3260   35.3620 H   0  0  0  0  0  0  0  0  0  0  0  0
   41.3290   33.6940   38.0820 H   0  0  0  0  0  0  0  0  0  0  0  0
   41.9420   34.0330   36.4420 H   0  0  0  0  0  0  0  0  0  0  0  0
   36.3270   29.2950   41.0640 C   0  0  0  0  0  2  0  0  0  0  0  0
   36.1360   30.7650   41.0800 C   0  0  0  0  0  2  0  0  0  0  0  0
   37.1450   31.3720   40.1560 C   0  0  0  0  0  0  0  0  0  0  0  0
   37.3340   30.9230   38.8630 C   0  0  0  0  0  3  0  0  0  0  0  0
   38.2170   31.4020   37.9490 C   0  0  0  0  0  3  0  0  0  0  0  0
   38.9800   32.4450   38.4070 N   0  0  0  0  0  0  0  0  0  0  0  0
   38.8240   32.9110   39.6640 C   0  0  0  0  0  0  0  0  0  0  0  0
   37.9390   32.4200   40.5580 N   0  0  0  0  0  0  0  0  0  0  0  0
   39.6770   34.0200   40.0640 C   0  0  0  0  0  0  0  0  0  0  0  0
   39.1470   35.3080   40.1660 C   0  0  0  0  0  3  0  0  0  0  0  0
   39.9550   36.3490   40.5420 C   0  0  0  0  0  3  0  0  0  0  0  0
   41.2440   36.1560   40.8130 N   0  0  0  0  0  0  0  0  0  0  0  0
   41.7350   34.9040   40.7070 C   0  0  0  0  0  3  0  0  0  0  0  0
   40.9740   33.8350   40.3370 N   0  0  0  0  0  0  0  0  0  0  0  0
  2  1  2  0  0  0  0
  3  2  1  0  0  0  0
  4  3  2  0  0  0  0
  4  5  1  0  0  0  0
  5  6  2  0  0  0  0
  6  1  1  0  0  0  0
  7  5  1  0  0  0  0
  7  8  2  0  0  0  0
  9  8  1  0  0  0  0
 10 11  2  0  0  0  0
 10  9  1  0  0  0  0
 11  7  1  0  0  0  0
 12 10  1  0  0  0  0
 13 12  1  0  0  0  0
 14 13  2  0  0  0  0
 15 14  1  0  0  0  0
 15 22  2  0  0  0  0
 16 15  1  0  0  0  0
 17 16  2  0  0  0  0
 18 16  1  0  0  0  0
 18 19  1  0  0  0  0
 19 20  1  0  0  0  0
 19 21  2  0  0  0  0
 20 24  1  0  0  0  0
 21 22  1  0  0  0  0
 22 12  1  0  0  0  0
 23 18  1  0  0  0  0
 25 20  1  0  0  0  0
 26 27  1  0  0  0  0
 26  3  1  0  0  0  0
 28 33  1  0  0  0  0
 28 27  1  0  0  0  0
 29 28  2  0  0  0  0
 30 31  2  0  0  0  0
 30 29  1  0  0  0  0
 31 32  1  0  0  0  0
 32 34  1  0  0  0  0
 32 33  2  0  0  0  0
 34 35  2  0  0  0  0
 34 39  1  0  0  0  0
 35 36  1  0  0  0  0
 36 37  2  0  0  0  0
 38 37  1  0  0  0  0
 39 38  2  0  0  0  0
M  END
>  <minimizedAffinity>
-7.01993656

$$$$

 OpenBabel03242509563D

 39 44  0  0  0  0  0  0  0  0999 V2000
   36.6190   23.5280   40.3110 C   0  0  0  0  0  3  0  0  0  0  0  0
   37.7930   23.6660   41.0710 C   0  0  0  0  0  3  0  0  0  0  0  0
   38.4880   24.8300   41.1110 C   0  0  0  0  0  0  0  0  0  0  0  0
   38.0200   25.8710   40.3900 N   0  0  0  0  0  0  0  0  0  0  0  0
   36.8780   25.7290   39.6540 C   0  0  0  0  0  0  0  0  0  0  0  0
   36.1980   24.5950   39.6140 N   0  0  0  0  0  0  0  0  0  0  0  0
   36.5400   26.9950   38.9350 C   0  0  0  0  0  0  0  0  0  0  0  0
   35.8230   27.1520   37.6730 C   0  0  0  0  0  3  0  0  0  0  0  0
   35.8730   28.9600   37.5390 S   0  0  0  0  0  0  0  0  0  0  0  0
   36.8320   29.1790   39.1790 C   0  0  0  0  0  0  0  0  0  0  0  0
   37.0240   27.9620   39.6600 N   0  0  0  0  0  0  0  0  0  0  0  0
   37.2120   30.5290   39.6780 N   0  0  0  0  0  0  0  0  0  0  0  0
   36.6730   31.3250   40.6080 C   0  0  0  0  0  3  0  0  0  0  0  0
   37.4420   32.4270   40.6330 N   0  0  0  0  0  0  0  0  0  0  0  0
   38.4350   32.3090   39.7330 C   0  0  0  0  0  0  0  0  0  0  0  0
   39.4620   33.1680   39.3970 C   0  0  0  0  0  0  0  0  0  0  0  0
   39.5950   34.2850   39.9590 O   0  0  0  0  0  0  0  0  0  0  0  0
   40.3500   32.8040   38.4350 N   0  0  0  0  0  0  0  0  0  0  0  0
   40.2140   31.5980   37.8190 C   0  0  0  0  0  0  0  0  0  0  0  0
   41.1250   31.1540   36.7900 N   0  0  0  0  0  0  0  0  0  0  0  0
   39.2020   30.7680   38.1610 N   0  0  0  0  0  0  0  0  0  0  0  0
   38.3000   31.0760   39.1010 C   0  0  0  0  0  0  0  0  0  0  0  0
   41.1200   33.4360   38.1730 H   0  0  0  0  0  0  0  0  0  0  0  0
   40.9910   30.2350   36.3460 H   0  0  0  0  0  0  0  0  0  0  0  0
   41.9080   31.7580   36.5010 H   0  0  0  0  0  0  0  0  0  0  0  0
   39.7080   24.9460   41.9070 C   0  0  0  0  0  2  0  0  0  0  0  0
   39.5680   25.5400   43.2580 C   0  0  0  0  0  2  0  0  0  0  0  0
   39.3250   27.0070   43.0930 C   0  0  0  0  0  0  0  0  0  0  0  0
   38.1710   27.6250   43.5360 C   0  0  0  0  0  3  0  0  0  0  0  0
   37.8560   28.9430   43.4360 C   0  0  0  0  0  3  0  0  0  0  0  0
   38.8190   29.7000   42.8220 N   0  0  0  0  0  0  0  0  0  0  0  0
   39.9600   29.1320   42.3760 C   0  0  0  0  0  0  0  0  0  0  0  0
   40.2550   27.8180   42.4860 N   0  0  0  0  0  0  0  0  0  0  0  0
   40.9270   30.0130   41.7380 C   0  0  0  0  0  0  0  0  0  0  0  0
   41.1240   31.3060   42.2270 C   0  0  0  0  0  3  0  0  0  0  0  0
   42.0340   32.1330   41.6210 C   0  0  0  0  0  3  0  0  0  0  0  0
   42.7380   31.7240   40.5680 N   0  0  0  0  0  0  0  0  0  0  0  0
   42.5310   30.4710   40.1120 C   0  0  0  0  0  3  0  0  0  0  0  0
   41.6380   29.6110   40.6790 N   0  0  0  0  0  0  0  0  0  0  0  0
  1  2  1  0  0  0  0
  2  3  2  0  0  0  0
  3 26  1  0  0  0  0
  4  3  1  0  0  0  0
  5  4  2  0  0  0  0
  6  5  1  0  0  0  0
  6  1  2  0  0  0  0
  7  5  1  0  0  0  0
  7 11  1  0  0  0  0
  8  7  2  0  0  0  0
  9  8  1  0  0  0  0
  9 10  1  0  0  0  0
 10 11  2  0  0  0  0
 10 12  1  0  0  0  0
 12 13  1  0  0  0  0
 13 14  2  0  0  0  0
 15 14  1  0  0  0  0
 16 15  1  0  0  0  0
 16 17  2  0  0  0  0
 18 16  1  0  0  0  0
 19 21  2  0  0  0  0
 19 18  1  0  0  0  0
 20 19  1  0  0  0  0
 21 22  1  0  0  0  0
 22 12  1  0  0  0  0
 22 15  2  0  0  0  0
 23 18  1  0  0  0  0
 24 20  1  0  0  0  0
 25 20  1  0  0  0  0
 26 27  1  0  0  0  0
 28 27  1  0  0  0  0
 28 29  1  0  0  0  0
 30 29  2  0  0  0  0
 31 30  1  0  0  0  0
 32 33  1  0  0  0  0
 32 31  2  0  0  0  0
 33 28  2  0  0  0  0
 34 35  1  0  0  0  0
 34 32  1  0  0  0  0
 36 35  2  0  0  0  0
 37 36  1  0  0  0  0
 38 37  2  0  0  0  0
 38 39  1  0  0  0  0
 39 34  2  0  0  0  0
M  END
>  <minimizedAffinity>
-6.93913078

$$$$

 OpenBabel03242509563D

 39 44  0  0  0  0  0  0  0  0999 V2000
   36.8100   23.9810   37.8250 C   0  0  0  0  0  3  0  0  0  0  0  0
   36.8240   23.6920   39.2000 C   0  0  0  0  0  3  0  0  0  0  0  0
   37.5310   24.4410   40.0820 C   0  0  0  0  0  0  0  0  0  0  0  0
   38.2350   25.4890   39.6010 N   0  0  0  0  0  0  0  0  0  0  0  0
   38.2150   25.7640   38.2640 C   0  0  0  0  0  0  0  0  0  0  0  0
   37.5260   25.0350   37.4020 N   0  0  0  0  0  0  0  0  0  0  0  0
   39.0570   26.9580   37.9470 C   0  0  0  0  0  0  0  0  0  0  0  0
   40.4300   26.9870   37.4510 C   0  0  0  0  0  3  0  0  0  0  0  0
   40.6630   28.7830   37.3660 S   0  0  0  0  0  0  0  0  0  0  0  0
   38.9010   29.1680   38.0010 C   0  0  0  0  0  0  0  0  0  0  0  0
   38.3210   27.9980   38.2110 N   0  0  0  0  0  0  0  0  0  0  0  0
   38.4280   30.5700   38.1680 N   0  0  0  0  0  0  0  0  0  0  0  0
   37.6540   31.3510   37.4080 C   0  0  0  0  0  3  0  0  0  0  0  0
   37.5650   32.5220   38.0610 N   0  0  0  0  0  0  0  0  0  0  0  0
   38.2750   32.4600   39.2030 C   0  0  0  0  0  0  0  0  0  0  0  0
   38.4840   33.3980   40.1930 C   0  0  0  0  0  0  0  0  0  0  0  0
   37.9760   34.5470   40.1280 O   0  0  0  0  0  0  0  0  0  0  0  0
   39.2570   33.0780   41.2650 N   0  0  0  0  0  0  0  0  0  0  0  0
   39.8120   31.8390   41.3440 C   0  0  0  0  0  0  0  0  0  0  0  0
   40.6410   31.4390   42.4560 N   0  0  0  0  0  0  0  0  0  0  0  0
   39.5960   30.9310   40.3640 N   0  0  0  0  0  0  0  0  0  0  0  0
   38.8440   31.1920   39.2880 C   0  0  0  0  0  0  0  0  0  0  0  0
   39.4210   33.7690   42.0100 H   0  0  0  0  0  0  0  0  0  0  0  0
   41.0450   30.4920   42.4830 H   0  0  0  0  0  0  0  0  0  0  0  0
   40.8300   32.1010   43.2220 H   0  0  0  0  0  0  0  0  0  0  0  0
   37.5310   24.1170   41.5070 C   0  0  0  0  0  2  0  0  0  0  0  0
   36.6940   24.9690   42.3850 C   0  0  0  0  0  2  0  0  0  0  0  0
   37.4060   26.2710   42.5770 C   0  0  0  0  0  0  0  0  0  0  0  0
   36.7820   27.4930   42.4030 C   0  0  0  0  0  3  0  0  0  0  0  0
   37.3350   28.7240   42.5520 C   0  0  0  0  0  3  0  0  0  0  0  0
   38.6560   28.7010   42.9170 N   0  0  0  0  0  0  0  0  0  0  0  0
   39.2990   27.5270   43.0960 C   0  0  0  0  0  0  0  0  0  0  0  0
   38.7310   26.3110   42.9420 N   0  0  0  0  0  0  0  0  0  0  0  0
   40.7010   27.5980   43.4820 C   0  0  0  0  0  0  0  0  0  0  0  0
   41.2360   26.6420   44.3470 C   0  0  0  0  0  3  0  0  0  0  0  0
   42.5570   26.7130   44.7090 C   0  0  0  0  0  3  0  0  0  0  0  0
   43.3430   27.6830   44.2490 N   0  0  0  0  0  0  0  0  0  0  0  0
   42.8040   28.5970   43.4150 C   0  0  0  0  0  3  0  0  0  0  0  0
   41.4980   28.5700   43.0250 N   0  0  0  0  0  0  0  0  0  0  0  0
  1  2  1  0  0  0  0
  2  3  2  0  0  0  0
  3 26  1  0  0  0  0
  4  3  1  0  0  0  0
  5  4  2  0  0  0  0
  6  1  2  0  0  0  0
  6  5  1  0  0  0  0
  7 11  1  0  0  0  0
  7  5  1  0  0  0  0
  8  7  2  0  0  0  0
  9  8  1  0  0  0  0
  9 10  1  0  0  0  0
 10 12  1  0  0  0  0
 10 11  2  0  0  0  0
 12 22  1  0  0  0  0
 13 14  2  0  0  0  0
 13 12  1  0  0  0  0
 14 15  1  0  0  0  0
 15 22  2  0  0  0  0
 15 16  1  0  0  0  0
 16 18  1  0  0  0  0
 17 16  2  0  0  0  0
 18 19  1  0  0  0  0
 18 23  1  0  0  0  0
 19 20  1  0  0  0  0
 20 24  1  0  0  0  0
 20 25  1  0  0  0  0
 21 19  2  0  0  0  0
 22 21  1  0  0  0  0
 26 27  1  0  0  0  0
 27 28  1  0  0  0  0
 28 33  1  0  0  0  0
 29 30  1  0  0  0  0
 29 28  2  0  0  0  0
 30 31  2  0  0  0  0
 31 32  1  0  0  0  0
 32 34  1  0  0  0  0
 33 32  2  0  0  0  0
 34 35  1  0  0  0  0
 35 36  2  0  0  0  0
 37 36  1  0  0  0  0
 38 37  2  0  0  0  0
 39 38  1  0  0  0  0
 39 34  2  0  0  0  0
M  END
>  <minimizedAffinity>
-6.93462992

$$$$

 OpenBabel03242509563D

 39 44  0  0  0  0  0  0  0  0999 V2000
   35.9170   29.1620   37.5220 C   0  0  0  0  0  3  0  0  0  0  0  0
   35.9750   28.1130   38.4550 C   0  0  0  0  0  3  0  0  0  0  0  0
   36.5640   28.2640   39.6670 C   0  0  0  0  0  0  0  0  0  0  0  0
   37.1040   29.4660   39.9630 N   0  0  0  0  0  0  0  0  0  0  0  0
   37.0440   30.4810   39.0510 C   0  0  0  0  0  0  0  0  0  0  0  0
   36.4700   30.3350   37.8680 N   0  0  0  0  0  0  0  0  0  0  0  0
   37.7000   31.7160   39.5760 C   0  0  0  0  0  0  0  0  0  0  0  0
   37.1150   33.0420   39.7550 C   0  0  0  0  0  3  0  0  0  0  0  0
   38.5690   33.9110   40.4010 S   0  0  0  0  0  0  0  0  0  0  0  0
   39.6870   32.3610   40.3190 C   0  0  0  0  0  0  0  0  0  0  0  0
   38.9300   31.3850   39.8450 N   0  0  0  0  0  0  0  0  0  0  0  0
   41.1120   32.4120   40.7460 N   0  0  0  0  0  0  0  0  0  0  0  0
   41.7240   32.0310   41.8720 C   0  0  0  0  0  3  0  0  0  0  0  0
   43.0240   32.3190   41.6940 N   0  0  0  0  0  0  0  0  0  0  0  0
   43.2060   32.8690   40.4800 C   0  0  0  0  0  0  0  0  0  0  0  0
   44.3480   33.3250   39.8510 C   0  0  0  0  0  0  0  0  0  0  0  0
   45.4730   33.2700   40.4110 O   0  0  0  0  0  0  0  0  0  0  0  0
   44.2590   33.8470   38.6000 N   0  0  0  0  0  0  0  0  0  0  0  0
   43.0470   33.9120   37.9850 C   0  0  0  0  0  0  0  0  0  0  0  0
   42.8870   34.4550   36.6570 N   0  0  0  0  0  0  0  0  0  0  0  0
   41.9380   33.4610   38.6160 N   0  0  0  0  0  0  0  0  0  0  0  0
   41.9670   32.9370   39.8470 C   0  0  0  0  0  0  0  0  0  0  0  0
   45.1020   34.1910   38.1200 H   0  0  0  0  0  0  0  0  0  0  0  0
   41.9540   34.4880   36.2230 H   0  0  0  0  0  0  0  0  0  0  0  0
   43.7060   34.8100   36.1440 H   0  0  0  0  0  0  0  0  0  0  0  0
   36.6130   27.1550   40.6180 C   0  0  0  0  0  2  0  0  0  0  0  0
   36.9430   27.4960   42.0230 C   0  0  0  0  0  2  0  0  0  0  0  0
   38.2990   26.9410   42.3250 C   0  0  0  0  0  0  0  0  0  0  0  0
   38.8090   26.8810   43.6080 C   0  0  0  0  0  3  0  0  0  0  0  0
   40.0210   26.3980   43.9870 C   0  0  0  0  0  3  0  0  0  0  0  0
   40.7830   25.9300   42.9480 N   0  0  0  0  0  0  0  0  0  0  0  0
   40.3180   25.9720   41.6810 C   0  0  0  0  0  0  0  0  0  0  0  0
   39.1090   26.4570   41.3250 N   0  0  0  0  0  0  0  0  0  0  0  0
   41.1960   25.4540   40.6420 C   0  0  0  0  0  0  0  0  0  0  0  0
   40.6660   25.0630   39.4110 C   0  0  0  0  0  3  0  0  0  0  0  0
   41.4960   24.5740   38.4360 C   0  0  0  0  0  3  0  0  0  0  0  0
   42.8060   24.4640   38.6410 N   0  0  0  0  0  0  0  0  0  0  0  0
   43.2970   24.8460   39.8390 C   0  0  0  0  0  3  0  0  0  0  0  0
   42.5140   25.3390   40.8400 N   0  0  0  0  0  0  0  0  0  0  0  0
  1  6  2  0  0  0  0
  1  2  1  0  0  0  0
  2  3  2  0  0  0  0
  3  4  1  0  0  0  0
  3 26  1  0  0  0  0
  5  7  1  0  0  0  0
  5  4  2  0  0  0  0
  6  5  1  0  0  0  0
  7  8  2  0  0  0  0
  7 11  1  0  0  0  0
  8  9  1  0  0  0  0
 10  9  1  0  0  0  0
 10 12  1  0  0  0  0
 11 10  2  0  0  0  0
 12 13  1  0  0  0  0
 14 13  2  0  0  0  0
 15 14  1  0  0  0  0
 16 17  2  0  0  0  0
 16 15  1  0  0  0  0
 18 16  1  0  0  0  0
 19 18  1  0  0  0  0
 19 21  2  0  0  0  0
 20 19  1  0  0  0  0
 21 22  1  0  0  0  0
 22 15  2  0  0  0  0
 22 12  1  0  0  0  0
 23 18  1  0  0  0  0
 24 20  1  0  0  0  0
 25 20  1  0  0  0  0
 26 27  1  0  0  0  0
 27 28  1  0  0  0  0
 28 29  1  0  0  0  0
 29 30  2  0  0  0  0
 31 30  1  0  0  0  0
 32 31  2  0  0  0  0
 33 32  1  0  0  0  0
 33 28  2  0  0  0  0
 34 39  1  0  0  0  0
 34 32  1  0  0  0  0
 35 34  2  0  0  0  0
 36 37  2  0  0  0  0
 36 35  1  0  0  0  0
 37 38  1  0  0  0  0
 38 39  2  0  0  0  0
M  END
>  <minimizedAffinity>
-6.88921785

$$$$
