
 OpenBabel03242510013D

 33 38  0  0  0  0  0  0  0  0999 V2000
   38.2500   30.0990   38.5490 C   0  0  0  0  0  0  0  0  0  0  0  0
   39.1000   29.2480   38.1660 O   0  0  0  0  0  0  0  0  0  0  0  0
   36.8840   29.6320   38.4540 C   0  0  0  0  0  0  0  0  0  0  0  0
   36.1810   29.7700   37.2600 C   0  0  0  0  0  3  0  0  0  0  0  0
   34.8540   29.3260   37.1920 C   0  0  0  0  0  3  0  0  0  0  0  0
   34.2140   28.7500   38.2850 C   0  0  0  0  0  3  0  0  0  0  0  0
   34.9470   28.6240   39.4680 C   0  0  0  0  0  3  0  0  0  0  0  0
   36.2590   29.0640   39.5280 C   0  0  0  0  0  0  0  0  0  0  0  0
   36.7080   28.7230   40.8660 C   0  0  0  0  0  0  0  0  0  0  0  0
   36.9730   29.4480   42.0050 C   0  0  0  0  0  3  0  0  0  0  0  0
   37.3300   28.7920   43.1580 C   0  0  0  0  0  3  0  0  0  0  0  0
   37.4530   27.4260   43.2790 C   0  0  0  0  0  3  0  0  0  0  0  0
   37.1910   26.6910   42.1470 C   0  0  0  0  0  0  0  0  0  0  0  0
   37.3210   25.3280   42.3000 C   0  0  0  0  0  3  0  0  0  0  0  0
   37.0760   24.5200   41.2140 C   0  0  0  0  0  3  0  0  0  0  0  0
   36.7110   25.0520   40.0050 C   0  0  0  0  0  3  0  0  0  0  0  0
   36.6020   26.4220   39.9340 C   0  0  0  0  0  3  0  0  0  0  0  0
   36.8250   27.3320   40.9640 C   0  0  0  0  0  0  0  0  0  0  0  0
   38.2010   33.4460   40.0260 C   0  0  0  0  0  3  0  0  0  0  0  0
   39.5390   33.8940   39.9170 C   0  0  0  0  0  3  0  0  0  0  0  0
   40.4450   33.0000   39.3200 C   0  0  0  0  0  0  0  0  0  0  0  0
   39.9510   31.8150   38.9150 N   0  0  0  0  0  0  0  0  0  0  0  0
   38.6880   31.4060   39.0230 C   0  0  0  0  0  0  0  0  0  0  0  0
   37.8050   32.2270   39.5830 N   0  0  0  0  0  0  0  0  0  0  0  0
   41.7880   33.4220   39.1910 N   0  0  0  0  0  0  0  0  0  0  0  0
   42.3770   33.8150   38.0470 C   0  0  0  0  0  3  0  0  0  0  0  0
   43.6840   34.1610   38.2690 N   0  0  0  0  0  0  0  0  0  0  0  0
   43.8790   33.9660   39.6090 C   0  0  0  0  0  0  0  0  0  0  0  0
   45.0090   34.1600   40.3630 C   0  0  0  0  0  3  0  0  0  0  0  0
   44.9060   33.8810   41.6840 N   0  0  0  0  0  0  0  0  0  0  0  0
   43.7610   33.4390   42.2200 C   0  0  0  0  0  3  0  0  0  0  0  0
   42.6370   33.2400   41.5000 N   0  0  0  0  0  0  0  0  0  0  0  0
   42.6950   33.5070   40.1770 C   0  0  0  0  0  0  0  0  0  0  0  0
  1 23  1  0  0  0  0
  2  1  2  0  0  0  0
  3  1  1  0  0  0  0
  3  8  1  0  0  0  0
  4  3  2  0  0  0  0
  5  4  1  0  0  0  0
  5  6  2  0  0  0  0
  6  7  1  0  0  0  0
  7  8  2  0  0  0  0
  8  9  1  0  0  0  0
  9 18  2  0  0  0  0
  9 10  1  0  0  0  0
 10 11  2  0  0  0  0
 11 12  1  0  0  0  0
 13 14  1  0  0  0  0
 13 12  2  0  0  0  0
 15 14  2  0  0  0  0
 16 15  1  0  0  0  0
 17 16  2  0  0  0  0
 17 18  1  0  0  0  0
 18 13  1  0  0  0  0
 20 19  1  0  0  0  0
 21 20  2  0  0  0  0
 22 23  2  0  0  0  0
 22 21  1  0  0  0  0
 23 24  1  0  0  0  0
 24 19  2  0  0  0  0
 25 21  1  0  0  0  0
 25 33  1  0  0  0  0
 26 27  2  0  0  0  0
 26 25  1  0  0  0  0
 27 28  1  0  0  0  0
 28 33  2  0  0  0  0
 28 29  1  0  0  0  0
 29 30  2  0  0  0  0
 30 31  1  0  0  0  0
 32 31  2  0  0  0  0
 33 32  1  0  0  0  0
M  END
>  <minimizedAffinity>
-7.70462847

$$$$

 OpenBabel03242510013D

 33 38  0  0  0  0  0  0  0  0999 V2000
   38.3840   29.4380   38.4080 C   0  0  0  0  0  0  0  0  0  0  0  0
   39.0060   28.3700   38.1540 O   0  0  0  0  0  0  0  0  0  0  0  0
   36.9470   29.2720   38.4480 C   0  0  0  0  0  0  0  0  0  0  0  0
   36.1900   29.4640   37.2950 C   0  0  0  0  0  3  0  0  0  0  0  0
   34.7990   29.3140   37.3560 C   0  0  0  0  0  3  0  0  0  0  0  0
   34.1470   28.9790   38.5400 C   0  0  0  0  0  3  0  0  0  0  0  0
   34.9350   28.7920   39.6780 C   0  0  0  0  0  3  0  0  0  0  0  0
   36.3090   28.9400   39.6100 C   0  0  0  0  0  0  0  0  0  0  0  0
   36.7880   28.6180   40.9430 C   0  0  0  0  0  0  0  0  0  0  0  0
   37.1000   29.3610   42.0580 C   0  0  0  0  0  3  0  0  0  0  0  0
   37.4760   28.7210   43.2150 C   0  0  0  0  0  3  0  0  0  0  0  0
   37.5730   27.3560   43.3620 C   0  0  0  0  0  3  0  0  0  0  0  0
   37.2650   26.6040   42.2530 C   0  0  0  0  0  0  0  0  0  0  0  0
   37.3710   25.2420   42.4320 C   0  0  0  0  0  3  0  0  0  0  0  0
   37.0800   24.4160   41.3710 C   0  0  0  0  0  3  0  0  0  0  0  0
   36.6920   24.9310   40.1610 C   0  0  0  0  0  3  0  0  0  0  0  0
   36.6090   26.3010   40.0640 C   0  0  0  0  0  3  0  0  0  0  0  0
   36.8800   27.2270   41.0670 C   0  0  0  0  0  0  0  0  0  0  0  0
   39.1800   32.8690   39.3970 C   0  0  0  0  0  3  0  0  0  0  0  0
   40.5340   33.0330   39.0250 C   0  0  0  0  0  3  0  0  0  0  0  0
   41.1520   31.9210   38.4270 C   0  0  0  0  0  0  0  0  0  0  0  0
   40.3950   30.8190   38.2700 N   0  0  0  0  0  0  0  0  0  0  0  0
   39.1190   30.6770   38.6240 C   0  0  0  0  0  0  0  0  0  0  0  0
   38.5050   31.7100   39.1930 N   0  0  0  0  0  0  0  0  0  0  0  0
   42.5040   32.0570   38.0380 N   0  0  0  0  0  0  0  0  0  0  0  0
   43.4000   32.8850   38.6050 C   0  0  0  0  0  3  0  0  0  0  0  0
   44.6200   32.7720   37.9920 N   0  0  0  0  0  0  0  0  0  0  0  0
   44.4400   31.8310   37.0160 C   0  0  0  0  0  0  0  0  0  0  0  0
   45.3400   31.3350   36.1060 C   0  0  0  0  0  3  0  0  0  0  0  0
   44.8730   30.3970   35.2480 N   0  0  0  0  0  0  0  0  0  0  0  0
   43.6010   29.9800   35.2900 C   0  0  0  0  0  3  0  0  0  0  0  0
   42.6970   30.4530   36.1750 N   0  0  0  0  0  0  0  0  0  0  0  0
   43.1220   31.3900   37.0500 C   0  0  0  0  0  0  0  0  0  0  0  0
  1  3  1  0  0  0  0
  1 23  1  0  0  0  0
  2  1  2  0  0  0  0
  3  8  1  0  0  0  0
  4  5  1  0  0  0  0
  4  3  2  0  0  0  0
  5  6  2  0  0  0  0
  6  7  1  0  0  0  0
  8  7  2  0  0  0  0
  8  9  1  0  0  0  0
  9 18  2  0  0  0  0
  9 10  1  0  0  0  0
 10 11  2  0  0  0  0
 11 12  1  0  0  0  0
 13 14  1  0  0  0  0
 13 12  2  0  0  0  0
 15 14  2  0  0  0  0
 16 15  1  0  0  0  0
 17 16  2  0  0  0  0
 17 18  1  0  0  0  0
 18 13  1  0  0  0  0
 20 19  2  0  0  0  0
 21 20  1  0  0  0  0
 22 21  2  0  0  0  0
 22 23  1  0  0  0  0
 23 24  2  0  0  0  0
 24 19  1  0  0  0  0
 25 21  1  0  0  0  0
 25 26  1  0  0  0  0
 27 26  2  0  0  0  0
 28 33  1  0  0  0  0
 28 27  1  0  0  0  0
 29 28  2  0  0  0  0
 30 31  2  0  0  0  0
 30 29  1  0  0  0  0
 31 32  1  0  0  0  0
 32 33  2  0  0  0  0
 33 25  1  0  0  0  0
M  END
>  <minimizedAffinity>
-7.66801167

$$$$

 OpenBabel03242510013D

 33 38  0  0  0  0  0  0  0  0999 V2000
   39.3920   30.0910   40.8800 C   0  0  0  0  0  0  0  0  0  0  0  0
   40.5440   29.8620   40.4200 O   0  0  0  0  0  0  0  0  0  0  0  0
   38.8770   31.3950   40.5210 C   0  0  0  0  0  0  0  0  0  0  0  0
   39.6960   32.5170   40.6110 C   0  0  0  0  0  3  0  0  0  0  0  0
   39.1760   33.7730   40.2740 C   0  0  0  0  0  3  0  0  0  0  0  0
   37.8590   33.9340   39.8520 C   0  0  0  0  0  3  0  0  0  0  0  0
   37.0640   32.7890   39.7710 C   0  0  0  0  0  3  0  0  0  0  0  0
   37.5850   31.5510   40.1040 C   0  0  0  0  0  0  0  0  0  0  0  0
   36.5090   30.6090   39.8480 C   0  0  0  0  0  0  0  0  0  0  0  0
   35.5280   30.0350   40.6230 C   0  0  0  0  0  3  0  0  0  0  0  0
   34.6000   29.2090   40.0380 C   0  0  0  0  0  3  0  0  0  0  0  0
   34.5620   28.8910   38.6990 C   0  0  0  0  0  3  0  0  0  0  0  0
   35.5390   29.4590   37.9140 C   0  0  0  0  0  0  0  0  0  0  0  0
   35.4750   29.1230   36.5800 C   0  0  0  0  0  3  0  0  0  0  0  0
   36.4150   29.6480   35.7250 C   0  0  0  0  0  3  0  0  0  0  0  0
   37.3960   30.4880   36.1850 C   0  0  0  0  0  3  0  0  0  0  0  0
   37.3910   30.7760   37.5300 C   0  0  0  0  0  3  0  0  0  0  0  0
   36.4930   30.3020   38.4820 C   0  0  0  0  0  0  0  0  0  0  0  0
   37.6810   28.4700   43.6780 C   0  0  0  0  0  3  0  0  0  0  0  0
   37.4310   27.1560   43.2190 C   0  0  0  0  0  3  0  0  0  0  0  0
   37.8730   26.8600   41.9170 C   0  0  0  0  0  0  0  0  0  0  0  0
   38.4850   27.8510   41.2440 N   0  0  0  0  0  0  0  0  0  0  0  0
   38.7160   29.0860   41.6890 C   0  0  0  0  0  0  0  0  0  0  0  0
   38.3100   29.3990   42.9160 N   0  0  0  0  0  0  0  0  0  0  0  0
   37.6430   25.5520   41.4330 N   0  0  0  0  0  0  0  0  0  0  0  0
   38.0590   24.4160   42.0220 C   0  0  0  0  0  3  0  0  0  0  0  0
   37.6690   23.3220   41.2950 N   0  0  0  0  0  0  0  0  0  0  0  0
   36.9870   23.8330   40.2250 C   0  0  0  0  0  0  0  0  0  0  0  0
   36.3810   23.1760   39.1830 C   0  0  0  0  0  3  0  0  0  0  0  0
   35.7730   23.9520   38.2550 N   0  0  0  0  0  0  0  0  0  0  0  0
   35.7670   25.2880   38.3540 C   0  0  0  0  0  3  0  0  0  0  0  0
   36.3560   25.9570   39.3680 N   0  0  0  0  0  0  0  0  0  0  0  0
   36.9740   25.2200   40.3170 C   0  0  0  0  0  0  0  0  0  0  0  0
  1 23  1  0  0  0  0
  2  1  2  0  0  0  0
  3  4  1  0  0  0  0
  3  1  1  0  0  0  0
  5  4  2  0  0  0  0
  6  5  1  0  0  0  0
  7  6  2  0  0  0  0
  7  8  1  0  0  0  0
  8  3  2  0  0  0  0
  9  8  1  0  0  0  0
  9 10  1  0  0  0  0
 11 10  2  0  0  0  0
 12 11  1  0  0  0  0
 13 18  1  0  0  0  0
 13 12  2  0  0  0  0
 14 13  1  0  0  0  0
 15 16  1  0  0  0  0
 15 14  2  0  0  0  0
 16 17  2  0  0  0  0
 17 18  1  0  0  0  0
 18  9  2  0  0  0  0
 20 19  1  0  0  0  0
 21 20  2  0  0  0  0
 22 23  2  0  0  0  0
 22 21  1  0  0  0  0
 23 24  1  0  0  0  0
 24 19  2  0  0  0  0
 25 21  1  0  0  0  0
 25 26  1  0  0  0  0
 27 26  2  0  0  0  0
 28 33  1  0  0  0  0
 28 27  1  0  0  0  0
 29 28  2  0  0  0  0
 30 31  2  0  0  0  0
 30 29  1  0  0  0  0
 31 32  1  0  0  0  0
 32 33  2  0  0  0  0
 33 25  1  0  0  0  0
M  END
>  <minimizedAffinity>
-7.59468746

$$$$

 OpenBabel03242510013D

 33 38  0  0  0  0  0  0  0  0999 V2000
   37.0960   27.6690   42.7220 C   0  0  0  0  0  0  0  0  0  0  0  0
   36.2780   27.4530   43.6570 O   0  0  0  0  0  0  0  0  0  0  0  0
   38.2790   26.8360   42.7870 C   0  0  0  0  0  0  0  0  0  0  0  0
   39.3250   27.1750   43.6410 C   0  0  0  0  0  3  0  0  0  0  0  0
   40.4670   26.3670   43.6790 C   0  0  0  0  0  3  0  0  0  0  0  0
   40.5900   25.2290   42.8850 C   0  0  0  0  0  3  0  0  0  0  0  0
   39.5230   24.9160   42.0400 C   0  0  0  0  0  3  0  0  0  0  0  0
   38.3960   25.7190   42.0090 C   0  0  0  0  0  0  0  0  0  0  0  0
   37.4930   25.0630   41.0790 C   0  0  0  0  0  0  0  0  0  0  0  0
   36.5500   24.0690   41.1930 C   0  0  0  0  0  3  0  0  0  0  0  0
   35.8020   23.7150   40.0960 C   0  0  0  0  0  3  0  0  0  0  0  0
   35.9160   24.2870   38.8490 C   0  0  0  0  0  3  0  0  0  0  0  0
   36.8570   25.2820   38.7230 C   0  0  0  0  0  0  0  0  0  0  0  0
   36.9470   25.8350   37.4650 C   0  0  0  0  0  3  0  0  0  0  0  0
   37.8630   26.8390   37.2530 C   0  0  0  0  0  3  0  0  0  0  0  0
   38.6710   27.2830   38.2670 C   0  0  0  0  0  3  0  0  0  0  0  0
   38.5190   26.6800   39.4950 C   0  0  0  0  0  3  0  0  0  0  0  0
   37.6290   25.6610   39.8200 C   0  0  0  0  0  0  0  0  0  0  0  0
   35.3650   29.5760   40.1240 C   0  0  0  0  0  3  0  0  0  0  0  0
   36.2670   30.6150   39.7950 C   0  0  0  0  0  3  0  0  0  0  0  0
   37.4820   30.6270   40.5030 C   0  0  0  0  0  0  0  0  0  0  0  0
   37.6630   29.6540   41.4150 N   0  0  0  0  0  0  0  0  0  0  0  0
   36.8040   28.6800   41.7150 C   0  0  0  0  0  0  0  0  0  0  0  0
   35.6450   28.6400   41.0650 N   0  0  0  0  0  0  0  0  0  0  0  0
   38.4070   31.6500   40.1910 N   0  0  0  0  0  0  0  0  0  0  0  0
   38.4280   32.8770   40.7420 C   0  0  0  0  0  3  0  0  0  0  0  0
   39.4510   33.6250   40.2210 N   0  0  0  0  0  0  0  0  0  0  0  0
   40.0670   32.8010   39.3190 C   0  0  0  0  0  0  0  0  0  0  0  0
   41.1520   33.0450   38.5140 C   0  0  0  0  0  3  0  0  0  0  0  0
   41.5460   32.0280   37.7110 N   0  0  0  0  0  0  0  0  0  0  0  0
   40.9070   30.8500   37.7070 C   0  0  0  0  0  3  0  0  0  0  0  0
   39.8390   30.5870   38.4880 N   0  0  0  0  0  0  0  0  0  0  0  0
   39.4130   31.5740   39.3060 C   0  0  0  0  0  0  0  0  0  0  0  0
  1  3  1  0  0  0  0
  1  2  2  0  0  0  0
  3  4  1  0  0  0  0
  4  5  2  0  0  0  0
  6  5  1  0  0  0  0
  7  6  2  0  0  0  0
  8  7  1  0  0  0  0
  8  3  2  0  0  0  0
  9 10  1  0  0  0  0
  9  8  1  0  0  0  0
 11 10  2  0  0  0  0
 12 11  1  0  0  0  0
 13 12  2  0  0  0  0
 13 18  1  0  0  0  0
 14 13  1  0  0  0  0
 15 14  2  0  0  0  0
 15 16  1  0  0  0  0
 16 17  2  0  0  0  0
 17 18  1  0  0  0  0
 18  9  2  0  0  0  0
 19 24  1  0  0  0  0
 20 19  2  0  0  0  0
 20 21  1  0  0  0  0
 21 22  2  0  0  0  0
 22 23  1  0  0  0  0
 23  1  1  0  0  0  0
 24 23  2  0  0  0  0
 25 21  1  0  0  0  0
 25 26  1  0  0  0  0
 27 26  2  0  0  0  0
 28 27  1  0  0  0  0
 29 28  2  0  0  0  0
 30 29  1  0  0  0  0
 31 30  2  0  0  0  0
 31 32  1  0  0  0  0
 32 33  2  0  0  0  0
 33 28  1  0  0  0  0
 33 25  1  0  0  0  0
M  END
>  <minimizedAffinity>
-7.38639164

$$$$

 OpenBabel03242510013D

 33 38  0  0  0  0  0  0  0  0999 V2000
   37.5830   27.3500   42.5600 C   0  0  0  0  0  0  0  0  0  0  0  0
   36.6520   27.7390   43.3170 O   0  0  0  0  0  0  0  0  0  0  0  0
   37.1990   26.2600   41.6880 C   0  0  0  0  0  0  0  0  0  0  0  0
   37.2320   24.9480   42.1550 C   0  0  0  0  0  3  0  0  0  0  0  0
   36.8710   23.9060   41.2930 C   0  0  0  0  0  3  0  0  0  0  0  0
   36.4810   24.1410   39.9770 C   0  0  0  0  0  3  0  0  0  0  0  0
   36.4570   25.4670   39.5400 C   0  0  0  0  0  3  0  0  0  0  0  0
   36.8130   26.4930   40.3980 C   0  0  0  0  0  0  0  0  0  0  0  0
   36.6160   27.7100   39.6310 C   0  0  0  0  0  0  0  0  0  0  0  0
   35.5570   28.5680   39.4430 C   0  0  0  0  0  3  0  0  0  0  0  0
   35.7270   29.6980   38.6800 C   0  0  0  0  0  3  0  0  0  0  0  0
   36.9040   30.0610   38.0640 C   0  0  0  0  0  3  0  0  0  0  0  0
   37.9690   29.2100   38.2440 C   0  0  0  0  0  0  0  0  0  0  0  0
   39.1320   29.6000   37.6170 C   0  0  0  0  0  3  0  0  0  0  0  0
   40.2460   28.8040   37.7470 C   0  0  0  0  0  3  0  0  0  0  0  0
   40.2070   27.6490   38.4830 C   0  0  0  0  0  3  0  0  0  0  0  0
   39.0090   27.3300   39.0790 C   0  0  0  0  0  3  0  0  0  0  0  0
   37.8240   28.0570   39.0140 C   0  0  0  0  0  0  0  0  0  0  0  0
   41.1230   27.9370   43.2740 C   0  0  0  0  0  3  0  0  0  0  0  0
   41.3780   29.2210   42.7370 C   0  0  0  0  0  3  0  0  0  0  0  0
   40.2870   29.8640   42.1250 C   0  0  0  0  0  0  0  0  0  0  0  0
   39.1180   29.1970   42.1120 N   0  0  0  0  0  0  0  0  0  0  0  0
   38.8920   27.9870   42.6230 C   0  0  0  0  0  0  0  0  0  0  0  0
   39.9020   27.3510   43.2080 N   0  0  0  0  0  0  0  0  0  0  0  0
   40.5100   31.1510   41.5840 N   0  0  0  0  0  0  0  0  0  0  0  0
   41.7000   31.7750   41.5180 C   0  0  0  0  0  3  0  0  0  0  0  0
   41.5690   33.0090   40.9360 N   0  0  0  0  0  0  0  0  0  0  0  0
   40.2380   33.1210   40.6430 C   0  0  0  0  0  0  0  0  0  0  0  0
   39.5600   34.1570   40.0500 C   0  0  0  0  0  3  0  0  0  0  0  0
   38.2270   33.9880   39.8840 N   0  0  0  0  0  0  0  0  0  0  0  0
   37.6090   32.8660   40.2780 C   0  0  0  0  0  3  0  0  0  0  0  0
   38.2520   31.8350   40.8640 N   0  0  0  0  0  0  0  0  0  0  0  0
   39.5840   31.9620   41.0480 C   0  0  0  0  0  0  0  0  0  0  0  0
  1 23  1  0  0  0  0
  1  2  2  0  0  0  0
  3  4  1  0  0  0  0
  3  1  1  0  0  0  0
  5  4  2  0  0  0  0
  6  5  1  0  0  0  0
  7  6  2  0  0  0  0
  7  8  1  0  0  0  0
  8  3  2  0  0  0  0
  9  8  1  0  0  0  0
 10  9  1  0  0  0  0
 11 10  2  0  0  0  0
 12 13  2  0  0  0  0
 12 11  1  0  0  0  0
 13 18  1  0  0  0  0
 14 15  2  0  0  0  0
 14 13  1  0  0  0  0
 15 16  1  0  0  0  0
 16 17  2  0  0  0  0
 18 17  1  0  0  0  0
 18  9  2  0  0  0  0
 20 19  2  0  0  0  0
 21 20  1  0  0  0  0
 22 21  2  0  0  0  0
 22 23  1  0  0  0  0
 23 24  2  0  0  0  0
 24 19  1  0  0  0  0
 25 21  1  0  0  0  0
 26 25  1  0  0  0  0
 27 26  2  0  0  0  0
 28 27  1  0  0  0  0
 28 33  1  0  0  0  0
 29 28  2  0  0  0  0
 30 29  1  0  0  0  0
 30 31  2  0  0  0  0
 31 32  1  0  0  0  0
 32 33  2  0  0  0  0
 33 25  1  0  0  0  0
M  END
>  <minimizedAffinity>
-7.13936758

$$$$

 OpenBabel03242510013D

 33 38  0  0  0  0  0  0  0  0999 V2000
   37.0340   27.5180   42.7020 C   0  0  0  0  0  0  0  0  0  0  0  0
   36.1670   27.2350   43.5740 O   0  0  0  0  0  0  0  0  0  0  0  0
   38.2120   26.6800   42.7670 C   0  0  0  0  0  0  0  0  0  0  0  0
   39.2480   26.9970   43.6410 C   0  0  0  0  0  3  0  0  0  0  0  0
   40.3860   26.1830   43.6790 C   0  0  0  0  0  3  0  0  0  0  0  0
   40.5140   25.0600   42.8660 C   0  0  0  0  0  3  0  0  0  0  0  0
   39.4570   24.7680   42.0010 C   0  0  0  0  0  3  0  0  0  0  0  0
   38.3340   25.5760   41.9700 C   0  0  0  0  0  0  0  0  0  0  0  0
   37.4410   24.9430   41.0160 C   0  0  0  0  0  0  0  0  0  0  0  0
   36.4080   24.0410   41.1180 C   0  0  0  0  0  3  0  0  0  0  0  0
   35.7060   23.6840   39.9920 C   0  0  0  0  0  3  0  0  0  0  0  0
   35.9540   24.1640   38.7260 C   0  0  0  0  0  3  0  0  0  0  0  0
   36.9860   25.0660   38.6120 C   0  0  0  0  0  0  0  0  0  0  0  0
   37.2090   25.5290   37.3340 C   0  0  0  0  0  3  0  0  0  0  0  0
   38.2240   26.4350   37.1320 C   0  0  0  0  0  3  0  0  0  0  0  0
   38.9990   26.8720   38.1750 C   0  0  0  0  0  3  0  0  0  0  0  0
   38.7110   26.3630   39.4210 C   0  0  0  0  0  3  0  0  0  0  0  0
   37.7140   25.4460   39.7380 C   0  0  0  0  0  0  0  0  0  0  0  0
   37.1170   30.8160   41.1190 C   0  0  0  0  0  3  0  0  0  0  0  0
   36.3270   30.6630   39.9550 C   0  0  0  0  0  3  0  0  0  0  0  0
   35.7740   29.3870   39.7460 C   0  0  0  0  0  0  0  0  0  0  0  0
   36.0500   28.4470   40.6680 N   0  0  0  0  0  0  0  0  0  0  0  0
   36.7960   28.6040   41.7600 C   0  0  0  0  0  0  0  0  0  0  0  0
   37.3350   29.7980   41.9890 N   0  0  0  0  0  0  0  0  0  0  0  0
   34.9740   29.2060   38.5940 N   0  0  0  0  0  0  0  0  0  0  0  0
   33.6500   28.9620   38.5930 C   0  0  0  0  0  3  0  0  0  0  0  0
   33.1820   28.8390   37.3110 N   0  0  0  0  0  0  0  0  0  0  0  0
   34.2790   29.0190   36.5150 C   0  0  0  0  0  0  0  0  0  0  0  0
   34.3760   28.9980   35.1450 C   0  0  0  0  0  3  0  0  0  0  0  0
   35.6080   29.2110   34.6260 N   0  0  0  0  0  0  0  0  0  0  0  0
   36.6710   29.4300   35.4110 C   0  0  0  0  0  3  0  0  0  0  0  0
   36.6020   29.4540   36.7580 N   0  0  0  0  0  0  0  0  0  0  0  0
   35.3910   29.2470   37.3190 C   0  0  0  0  0  0  0  0  0  0  0  0
  1  3  1  0  0  0  0
  1  2  2  0  0  0  0
  3  4  1  0  0  0  0
  4  5  2  0  0  0  0
  6  5  1  0  0  0  0
  7  6  2  0  0  0  0
  8  7  1  0  0  0  0
  8  3  2  0  0  0  0
  9 10  1  0  0  0  0
  9  8  1  0  0  0  0
 11 10  2  0  0  0  0
 12 11  1  0  0  0  0
 13 12  2  0  0  0  0
 13 18  1  0  0  0  0
 14 13  1  0  0  0  0
 15 14  2  0  0  0  0
 15 16  1  0  0  0  0
 16 17  2  0  0  0  0
 17 18  1  0  0  0  0
 18  9  2  0  0  0  0
 19 24  1  0  0  0  0
 20 19  2  0  0  0  0
 21 20  1  0  0  0  0
 21 22  2  0  0  0  0
 22 23  1  0  0  0  0
 23 24  2  0  0  0  0
 23  1  1  0  0  0  0
 25 21  1  0  0  0  0
 26 25  1  0  0  0  0
 27 26  2  0  0  0  0
 28 27  1  0  0  0  0
 28 33  1  0  0  0  0
 29 28  2  0  0  0  0
 30 29  1  0  0  0  0
 30 31  2  0  0  0  0
 31 32  1  0  0  0  0
 32 33  2  0  0  0  0
 33 25  1  0  0  0  0
M  END
>  <minimizedAffinity>
-7.086586

$$$$

 OpenBabel03242510013D

 33 38  0  0  0  0  0  0  0  0999 V2000
   40.5430   28.7140   40.2090 C   0  0  0  0  0  0  0  0  0  0  0  0
   41.0040   28.2250   39.1410 O   0  0  0  0  0  0  0  0  0  0  0  0
   41.2800   28.3160   41.3900 C   0  0  0  0  0  0  0  0  0  0  0  0
   42.6710   28.3720   41.3960 C   0  0  0  0  0  3  0  0  0  0  0  0
   43.3670   27.9690   42.5420 C   0  0  0  0  0  3  0  0  0  0  0  0
   42.7080   27.5100   43.6800 C   0  0  0  0  0  3  0  0  0  0  0  0
   41.3120   27.4670   43.6410 C   0  0  0  0  0  3  0  0  0  0  0  0
   40.6310   27.8690   42.5060 C   0  0  0  0  0  0  0  0  0  0  0  0
   39.2250   27.7440   42.8480 C   0  0  0  0  0  0  0  0  0  0  0  0
   38.2970   28.5790   43.4250 C   0  0  0  0  0  3  0  0  0  0  0  0
   36.9950   28.1610   43.5520 C   0  0  0  0  0  3  0  0  0  0  0  0
   36.5180   26.9360   43.1410 C   0  0  0  0  0  3  0  0  0  0  0  0
   37.4380   26.0920   42.5640 C   0  0  0  0  0  0  0  0  0  0  0  0
   36.9310   24.8750   42.1620 C   0  0  0  0  0  3  0  0  0  0  0  0
   37.7850   23.9710   41.5750 C   0  0  0  0  0  3  0  0  0  0  0  0
   39.1100   24.2680   41.3900 C   0  0  0  0  0  3  0  0  0  0  0  0
   39.5380   25.5040   41.8170 C   0  0  0  0  0  3  0  0  0  0  0  0
   38.7650   26.4920   42.4210 C   0  0  0  0  0  0  0  0  0  0  0  0
   38.3510   31.5990   40.7130 C   0  0  0  0  0  3  0  0  0  0  0  0
   37.1370   31.2270   40.0890 C   0  0  0  0  0  3  0  0  0  0  0  0
   37.1120   29.9530   39.4940 C   0  0  0  0  0  0  0  0  0  0  0  0
   38.2380   29.2220   39.5780 N   0  0  0  0  0  0  0  0  0  0  0  0
   39.3750   29.5840   40.1700 C   0  0  0  0  0  0  0  0  0  0  0  0
   39.4330   30.7820   40.7420 N   0  0  0  0  0  0  0  0  0  0  0  0
   35.9100   29.5510   38.8680 N   0  0  0  0  0  0  0  0  0  0  0  0
   34.7790   29.1940   39.5040 C   0  0  0  0  0  3  0  0  0  0  0  0
   33.8010   28.8610   38.6040 N   0  0  0  0  0  0  0  0  0  0  0  0
   34.3780   29.0300   37.3760 C   0  0  0  0  0  0  0  0  0  0  0  0
   33.8440   28.8370   36.1270 C   0  0  0  0  0  3  0  0  0  0  0  0
   34.6610   29.0860   35.0770 N   0  0  0  0  0  0  0  0  0  0  0  0
   35.9230   29.5000   35.2540 C   0  0  0  0  0  3  0  0  0  0  0  0
   36.4720   29.6960   36.4710 N   0  0  0  0  0  0  0  0  0  0  0  0
   35.6900   29.4600   37.5470 C   0  0  0  0  0  0  0  0  0  0  0  0
  1  3  1  0  0  0  0
  2  1  2  0  0  0  0
  3  4  2  0  0  0  0
  3  8  1  0  0  0  0
  4  5  1  0  0  0  0
  5  6  2  0  0  0  0
  7  6  1  0  0  0  0
  8  9  1  0  0  0  0
  8  7  2  0  0  0  0
  9 10  1  0  0  0  0
 10 11  2  0  0  0  0
 12 11  1  0  0  0  0
 13 12  2  0  0  0  0
 14 13  1  0  0  0  0
 15 14  2  0  0  0  0
 16 15  1  0  0  0  0
 16 17  2  0  0  0  0
 17 18  1  0  0  0  0
 18 13  1  0  0  0  0
 18  9  2  0  0  0  0
 19 24  1  0  0  0  0
 20 19  2  0  0  0  0
 21 22  2  0  0  0  0
 21 20  1  0  0  0  0
 22 23  1  0  0  0  0
 23  1  1  0  0  0  0
 23 24  2  0  0  0  0
 25 21  1  0  0  0  0
 25 26  1  0  0  0  0
 27 26  2  0  0  0  0
 28 33  1  0  0  0  0
 28 27  1  0  0  0  0
 29 28  2  0  0  0  0
 30 31  2  0  0  0  0
 30 29  1  0  0  0  0
 31 32  1  0  0  0  0
 32 33  2  0  0  0  0
 33 25  1  0  0  0  0
M  END
>  <minimizedAffinity>
-7.08470774

$$$$

 OpenBabel03242510013D

 33 38  0  0  0  0  0  0  0  0999 V2000
   38.5510   29.8290   38.6700 C   0  0  0  0  0  0  0  0  0  0  0  0
   39.3050   28.9610   38.1500 O   0  0  0  0  0  0  0  0  0  0  0  0
   37.1440   29.5100   38.5600 C   0  0  0  0  0  0  0  0  0  0  0  0
   36.4740   29.7160   37.3560 C   0  0  0  0  0  3  0  0  0  0  0  0
   35.1090   29.4160   37.2730 C   0  0  0  0  0  3  0  0  0  0  0  0
   34.3970   28.9170   38.3610 C   0  0  0  0  0  3  0  0  0  0  0  0
   35.0990   28.7210   39.5530 C   0  0  0  0  0  3  0  0  0  0  0  0
   36.4480   29.0180   39.6270 C   0  0  0  0  0  0  0  0  0  0  0  0
   36.8420   28.6390   40.9730 C   0  0  0  0  0  0  0  0  0  0  0  0
   37.1050   29.3350   42.1300 C   0  0  0  0  0  3  0  0  0  0  0  0
   37.3990   28.6470   43.2830 C   0  0  0  0  0  3  0  0  0  0  0  0
   37.4570   27.2750   43.3870 C   0  0  0  0  0  3  0  0  0  0  0  0
   37.1960   26.5690   42.2360 C   0  0  0  0  0  0  0  0  0  0  0  0
   37.2610   25.2000   42.3720 C   0  0  0  0  0  3  0  0  0  0  0  0
   37.0130   24.4180   41.2670 C   0  0  0  0  0  3  0  0  0  0  0  0
   36.7070   24.9840   40.0570 C   0  0  0  0  0  3  0  0  0  0  0  0
   36.6610   26.3580   40.0040 C   0  0  0  0  0  3  0  0  0  0  0  0
   36.8940   27.2420   41.0530 C   0  0  0  0  0  0  0  0  0  0  0  0
   39.0960   33.3080   39.6620 C   0  0  0  0  0  3  0  0  0  0  0  0
   40.2320   33.2560   40.5010 C   0  0  0  0  0  3  0  0  0  0  0  0
   40.7940   31.9840   40.7070 C   0  0  0  0  0  0  0  0  0  0  0  0
   40.1950   30.9490   40.0880 N   0  0  0  0  0  0  0  0  0  0  0  0
   39.1240   31.0120   39.2980 C   0  0  0  0  0  0  0  0  0  0  0  0
   38.5690   32.2000   39.0830 N   0  0  0  0  0  0  0  0  0  0  0  0
   41.9350   31.9020   41.5370 N   0  0  0  0  0  0  0  0  0  0  0  0
   42.7680   32.9190   41.8220 C   0  0  0  0  0  3  0  0  0  0  0  0
   43.7730   32.5040   42.6560 N   0  0  0  0  0  0  0  0  0  0  0  0
   43.5230   31.1770   42.8780 C   0  0  0  0  0  0  0  0  0  0  0  0
   44.2190   30.2740   43.6410 C   0  0  0  0  0  3  0  0  0  0  0  0
   43.7310   29.0110   43.6750 N   0  0  0  0  0  0  0  0  0  0  0  0
   42.6280   28.6680   42.9970 C   0  0  0  0  0  3  0  0  0  0  0  0
   41.9260   29.5370   42.2390 N   0  0  0  0  0  0  0  0  0  0  0  0
   42.3780   30.8090   42.1790 C   0  0  0  0  0  0  0  0  0  0  0  0
  1 23  1  0  0  0  0
  2  1  2  0  0  0  0
  3  1  1  0  0  0  0
  3  8  1  0  0  0  0
  4  3  2  0  0  0  0
  5  4  1  0  0  0  0
  5  6  2  0  0  0  0
  6  7  1  0  0  0  0
  7  8  2  0  0  0  0
  8  9  1  0  0  0  0
  9 18  2  0  0  0  0
  9 10  1  0  0  0  0
 10 11  2  0  0  0  0
 11 12  1  0  0  0  0
 13 14  1  0  0  0  0
 13 12  2  0  0  0  0
 15 14  2  0  0  0  0
 16 15  1  0  0  0  0
 17 16  2  0  0  0  0
 17 18  1  0  0  0  0
 18 13  1  0  0  0  0
 19 20  1  0  0  0  0
 20 21  2  0  0  0  0
 21 25  1  0  0  0  0
 22 21  1  0  0  0  0
 23 22  2  0  0  0  0
 24 23  1  0  0  0  0
 24 19  2  0  0  0  0
 25 26  1  0  0  0  0
 25 33  1  0  0  0  0
 26 27  2  0  0  0  0
 27 28  1  0  0  0  0
 28 29  1  0  0  0  0
 29 30  2  0  0  0  0
 31 30  1  0  0  0  0
 32 31  2  0  0  0  0
 33 32  1  0  0  0  0
 33 28  2  0  0  0  0
M  END
>  <minimizedAffinity>
-7.02482128

$$$$

 OpenBabel03242510013D

 33 38  0  0  0  0  0  0  0  0999 V2000
   38.2750   26.6120   38.3740 C   0  0  0  0  0  0  0  0  0  0  0  0
   39.5010   26.3970   38.1710 O   0  0  0  0  0  0  0  0  0  0  0  0
   37.5770   25.4770   38.9410 C   0  0  0  0  0  0  0  0  0  0  0  0
   37.2820   24.3730   38.1460 C   0  0  0  0  0  3  0  0  0  0  0  0
   36.5930   23.2900   38.7070 C   0  0  0  0  0  3  0  0  0  0  0  0
   36.1920   23.2850   40.0410 C   0  0  0  0  0  3  0  0  0  0  0  0
   36.5050   24.4070   40.8110 C   0  0  0  0  0  3  0  0  0  0  0  0
   37.1880   25.4730   40.2500 C   0  0  0  0  0  0  0  0  0  0  0  0
   37.3830   26.4100   41.3420 C   0  0  0  0  0  0  0  0  0  0  0  0
   36.6160   27.4020   41.9070 C   0  0  0  0  0  3  0  0  0  0  0  0
   37.0870   28.0820   43.0040 C   0  0  0  0  0  3  0  0  0  0  0  0
   38.3020   27.8520   43.6090 C   0  0  0  0  0  3  0  0  0  0  0  0
   39.0780   26.8630   43.0520 C   0  0  0  0  0  0  0  0  0  0  0  0
   40.2870   26.6550   43.6800 C   0  0  0  0  0  3  0  0  0  0  0  0
   41.1250   25.6830   43.1860 C   0  0  0  0  0  3  0  0  0  0  0  0
   40.7700   24.9330   42.0940 C   0  0  0  0  0  3  0  0  0  0  0  0
   39.5470   25.2000   41.5250 C   0  0  0  0  0  3  0  0  0  0  0  0
   38.6240   26.1570   41.9400 C   0  0  0  0  0  0  0  0  0  0  0  0
   36.2010   29.1760   36.7890 C   0  0  0  0  0  3  0  0  0  0  0  0
   36.6010   30.3810   37.4120 C   0  0  0  0  0  3  0  0  0  0  0  0
   37.6050   30.2690   38.3910 C   0  0  0  0  0  0  0  0  0  0  0  0
   38.0800   29.0330   38.6340 N   0  0  0  0  0  0  0  0  0  0  0  0
   37.6940   27.9050   38.0400 C   0  0  0  0  0  0  0  0  0  0  0  0
   36.7470   27.9760   37.1090 N   0  0  0  0  0  0  0  0  0  0  0  0
   38.0300   31.4580   39.0260 N   0  0  0  0  0  0  0  0  0  0  0  0
   37.3400   32.1320   39.9640 C   0  0  0  0  0  3  0  0  0  0  0  0
   38.0340   33.2410   40.3730 N   0  0  0  0  0  0  0  0  0  0  0  0
   39.1920   33.2220   39.6450 C   0  0  0  0  0  0  0  0  0  0  0  0
   40.2460   34.1000   39.6600 C   0  0  0  0  0  3  0  0  0  0  0  0
   41.2710   33.8250   38.8200 N   0  0  0  0  0  0  0  0  0  0  0  0
   41.2520   32.7510   38.0190 C   0  0  0  0  0  3  0  0  0  0  0  0
   40.2270   31.8730   37.9850 N   0  0  0  0  0  0  0  0  0  0  0  0
   39.1840   32.1100   38.8090 C   0  0  0  0  0  0  0  0  0  0  0  0
  1  3  1  0  0  0  0
  2  1  2  0  0  0  0
  3  8  1  0  0  0  0
  4  5  1  0  0  0  0
  4  3  2  0  0  0  0
  5  6  2  0  0  0  0
  6  7  1  0  0  0  0
  8  7  2  0  0  0  0
  8  9  1  0  0  0  0
  9 10  2  0  0  0  0
  9 18  1  0  0  0  0
 10 11  1  0  0  0  0
 11 12  2  0  0  0  0
 13 12  1  0  0  0  0
 13 14  1  0  0  0  0
 15 14  2  0  0  0  0
 16 15  1  0  0  0  0
 17 18  1  0  0  0  0
 17 16  2  0  0  0  0
 18 13  2  0  0  0  0
 19 24  2  0  0  0  0
 19 20  1  0  0  0  0
 20 21  2  0  0  0  0
 21 22  1  0  0  0  0
 21 25  1  0  0  0  0
 23  1  1  0  0  0  0
 23 22  2  0  0  0  0
 24 23  1  0  0  0  0
 25 26  1  0  0  0  0
 26 27  2  0  0  0  0
 28 29  1  0  0  0  0
 28 27  1  0  0  0  0
 30 29  2  0  0  0  0
 31 30  1  0  0  0  0
 32 31  2  0  0  0  0
 32 33  1  0  0  0  0
 33 25  1  0  0  0  0
 33 28  2  0  0  0  0
M  END
>  <minimizedAffinity>
-6.97963953

$$$$
