
 OpenBabel03242510113D

 34 38  0  0  1  0  0  0  0  0999 V2000
   45.0620   34.3520   41.3070 C   0  0  0  0  0  3  0  0  0  0  0  0
   45.3860   35.2690   42.3330 C   0  0  0  0  0  3  0  0  0  0  0  0
   44.3520   36.0260   42.8580 C   0  0  0  0  0  3  0  0  0  0  0  0
   43.0800   35.8740   42.3860 N   0  0  0  0  0  0  0  0  0  0  0  0
   42.8040   34.9940   41.4110 C   0  0  0  0  0  0  0  0  0  0  0  0
   43.7940   34.2310   40.8680 N   0  0  0  0  0  0  0  0  0  0  0  0
   41.4610   34.8980   40.9780 N   0  0  0  0  0  0  0  0  0  0  0  0
   40.5950   35.9600   40.9370 C   0  0  0  0  0  3  0  0  0  0  0  0
   39.4020   35.6090   40.4980 N   0  0  0  0  0  0  0  0  0  0  0  0
   39.4430   34.2650   40.2280 C   0  0  0  0  0  0  0  0  0  0  0  0
   38.4980   33.4160   39.7600 C   0  0  0  0  0  0  0  0  0  0  0  0
   37.3510   33.8310   39.4960 O   0  0  0  0  0  0  0  0  0  0  0  0
   38.8340   32.1290   39.5900 N   0  0  0  0  0  0  0  0  0  0  0  0
   40.0920   31.7320   39.8910 C   0  0  0  0  0  0  0  0  0  0  0  0
   40.3890   30.3480   39.6880 N   0  0  0  0  0  0  0  0  0  0  0  0
   41.0720   32.5710   40.3680 N   0  0  0  0  0  0  0  0  0  0  0  0
   40.7160   33.8820   40.5360 C   0  0  0  0  0  0  0  0  0  0  0  0
   41.3310   29.9880   39.9000 H   0  0  0  0  0  0  0  0  0  0  0  0
   39.6620   29.7130   39.3310 H   0  0  0  0  0  0  0  0  0  0  0  0
   37.8760   31.1950   39.1020 C   0  0  2  0  0  3  0  0  0  0  0  0
   37.4520   31.5600   37.6960 C   0  0  0  0  0  1  0  0  0  0  0  0
   36.7200   30.9400   40.0100 C   0  0  0  0  0  2  0  0  0  0  0  0
   36.4120   29.5240   40.0180 N   0  0  0  0  0  0  0  0  0  0  0  0
   35.8930   29.0770   39.2480 H   0  0  0  0  0  0  0  0  0  0  0  0
   36.8560   28.7950   41.1280 C   0  0  0  0  0  0  0  0  0  0  0  0
   37.2730   29.3900   42.3000 C   0  0  0  0  0  3  0  0  0  0  0  0
   37.7210   28.7410   43.4290 C   0  0  0  0  0  3  0  0  0  0  0  0
   37.7650   27.3640   43.4050 C   0  0  0  0  0  3  0  0  0  0  0  0
   37.3670   26.6930   42.2730 C   0  0  0  0  0  0  0  0  0  0  0  0
   37.4250   25.3160   42.2840 C   0  0  0  0  0  3  0  0  0  0  0  0
   37.0350   24.6080   41.1690 C   0  0  0  0  0  3  0  0  0  0  0  0
   36.5940   25.2980   40.0610 C   0  0  0  0  0  3  0  0  0  0  0  0
   36.5540   26.6660   40.0980 C   0  0  0  0  0  3  0  0  0  0  0  0
   36.9320   27.4200   41.1880 C   0  0  0  0  0  0  0  0  0  0  0  0
  1  2  1  0  0  0  0
  2  3  2  0  0  0  0
  4  3  1  0  0  0  0
  5  4  2  0  0  0  0
  6  1  2  0  0  0  0
  6  5  1  0  0  0  0
  7  5  1  0  0  0  0
  8  7  1  0  0  0  0
  9  8  2  0  0  0  0
 10  9  1  0  0  0  0
 10 17  2  0  0  0  0
 11 10  1  0  0  0  0
 12 11  2  0  0  0  0
 13 11  1  0  0  0  0
 13 14  1  0  0  0  0
 14 16  2  0  0  0  0
 15 14  1  0  0  0  0
 15 18  1  0  0  0  0
 16 17  1  0  0  0  0
 17  7  1  0  0  0  0
 19 15  1  0  0  0  0
 20 21  1  6  0  0  0
 20 13  1  0  0  0  0
 20 22  1  0  0  0  0
 22 23  1  0  0  0  0
 23 25  1  0  0  0  0
 24 23  1  0  0  0  0
 25 34  2  0  0  0  0
 25 26  1  0  0  0  0
 26 27  2  0  0  0  0
 28 27  1  0  0  0  0
 29 30  1  0  0  0  0
 29 28  2  0  0  0  0
 31 30  2  0  0  0  0
 32 33  2  0  0  0  0
 32 31  1  0  0  0  0
 33 34  1  0  0  0  0
 34 29  1  0  0  0  0
M  END
>  <minimizedAffinity>
-8.13648319

$$$$

 OpenBabel03242510113D

 34 38  0  0  1  0  0  0  0  0999 V2000
   44.7880   34.1210   41.3560 C   0  0  0  0  0  3  0  0  0  0  0  0
   45.1390   35.1710   42.2350 C   0  0  0  0  0  3  0  0  0  0  0  0
   44.1310   36.0360   42.6270 C   0  0  0  0  0  3  0  0  0  0  0  0
   42.8580   35.8610   42.1680 N   0  0  0  0  0  0  0  0  0  0  0  0
   42.5560   34.8540   41.3330 C   0  0  0  0  0  0  0  0  0  0  0  0
   43.5190   33.9830   40.9240 N   0  0  0  0  0  0  0  0  0  0  0  0
   41.2120   34.7430   40.9030 N   0  0  0  0  0  0  0  0  0  0  0  0
   40.3880   35.8180   40.6920 C   0  0  0  0  0  3  0  0  0  0  0  0
   39.1850   35.4480   40.2960 N   0  0  0  0  0  0  0  0  0  0  0  0
   39.1770   34.0780   40.2320 C   0  0  0  0  0  0  0  0  0  0  0  0
   38.2040   33.2040   39.8850 C   0  0  0  0  0  0  0  0  0  0  0  0
   37.0750   33.6160   39.5480 O   0  0  0  0  0  0  0  0  0  0  0  0
   38.4920   31.8940   39.9150 N   0  0  0  0  0  0  0  0  0  0  0  0
   39.7320   31.5010   40.2880 C   0  0  0  0  0  0  0  0  0  0  0  0
   39.9770   30.0930   40.3000 N   0  0  0  0  0  0  0  0  0  0  0  0
   40.7390   32.3670   40.6450 N   0  0  0  0  0  0  0  0  0  0  0  0
   40.4330   33.7000   40.6090 C   0  0  0  0  0  0  0  0  0  0  0  0
   40.9030   29.7340   40.5750 H   0  0  0  0  0  0  0  0  0  0  0  0
   39.2290   29.4380   40.0330 H   0  0  0  0  0  0  0  0  0  0  0  0
   37.5020   30.9330   39.5620 C   0  0  2  0  0  3  0  0  0  0  0  0
   37.3030   30.9080   38.0610 C   0  0  0  0  0  1  0  0  0  0  0  0
   36.2200   31.0360   40.3160 C   0  0  0  0  0  2  0  0  0  0  0  0
   36.2030   30.0550   41.3820 N   0  0  0  0  0  0  0  0  0  0  0  0
   35.9720   30.3120   42.3530 H   0  0  0  0  0  0  0  0  0  0  0  0
   36.5170   28.7380   41.0230 C   0  0  0  0  0  0  0  0  0  0  0  0
   35.9800   28.1110   39.9190 C   0  0  0  0  0  3  0  0  0  0  0  0
   36.2410   26.8250   39.5050 C   0  0  0  0  0  3  0  0  0  0  0  0
   37.1220   26.0740   40.2520 C   0  0  0  0  0  3  0  0  0  0  0  0
   37.7020   26.6250   41.3700 C   0  0  0  0  0  0  0  0  0  0  0  0
   38.5780   25.8450   42.0940 C   0  0  0  0  0  3  0  0  0  0  0  0
   39.1800   26.3620   43.2200 C   0  0  0  0  0  3  0  0  0  0  0  0
   38.8900   27.6530   43.5990 C   0  0  0  0  0  3  0  0  0  0  0  0
   38.0130   28.3890   42.8470 C   0  0  0  0  0  3  0  0  0  0  0  0
   37.3860   27.9200   41.7130 C   0  0  0  0  0  0  0  0  0  0  0  0
  1  2  1  0  0  0  0
  2  3  2  0  0  0  0
  4  3  1  0  0  0  0
  5  4  2  0  0  0  0
  6  5  1  0  0  0  0
  6  1  2  0  0  0  0
  7  5  1  0  0  0  0
  8  7  1  0  0  0  0
  9  8  2  0  0  0  0
 10  9  1  0  0  0  0
 10 17  2  0  0  0  0
 11 13  1  0  0  0  0
 11 10  1  0  0  0  0
 12 11  2  0  0  0  0
 13 14  1  0  0  0  0
 14 15  1  0  0  0  0
 14 16  2  0  0  0  0
 15 18  1  0  0  0  0
 17 16  1  0  0  0  0
 17  7  1  0  0  0  0
 19 15  1  0  0  0  0
 20 21  1  6  0  0  0
 20 13  1  0  0  0  0
 20 22  1  0  0  0  0
 22 23  1  0  0  0  0
 23 24  1  0  0  0  0
 25 23  1  0  0  0  0
 25 34  1  0  0  0  0
 26 25  2  0  0  0  0
 27 26  1  0  0  0  0
 27 28  2  0  0  0  0
 28 29  1  0  0  0  0
 29 34  2  0  0  0  0
 29 30  1  0  0  0  0
 30 31  2  0  0  0  0
 31 32  1  0  0  0  0
 33 32  2  0  0  0  0
 34 33  1  0  0  0  0
M  END
>  <minimizedAffinity>
-7.82453346

$$$$

 OpenBabel03242510113D

 34 38  0  0  1  0  0  0  0  0999 V2000
   39.1800   35.2000   40.4140 C   0  0  0  0  0  3  0  0  0  0  0  0
   40.3200   35.6330   39.6990 C   0  0  0  0  0  3  0  0  0  0  0  0
   41.3980   34.7660   39.6350 C   0  0  0  0  0  3  0  0  0  0  0  0
   41.3370   33.5470   40.2480 N   0  0  0  0  0  0  0  0  0  0  0  0
   40.2400   33.1640   40.9190 C   0  0  0  0  0  0  0  0  0  0  0  0
   39.1590   33.9890   41.0050 N   0  0  0  0  0  0  0  0  0  0  0  0
   40.2580   31.8860   41.5250 N   0  0  0  0  0  0  0  0  0  0  0  0
   41.3830   31.3110   42.0570 C   0  0  0  0  0  3  0  0  0  0  0  0
   41.1370   30.1160   42.5610 N   0  0  0  0  0  0  0  0  0  0  0  0
   39.8030   29.8580   42.3710 C   0  0  0  0  0  0  0  0  0  0  0  0
   39.0430   28.7870   42.6980 C   0  0  0  0  0  0  0  0  0  0  0  0
   39.5510   27.8050   43.2780 O   0  0  0  0  0  0  0  0  0  0  0  0
   37.7400   28.8180   42.3820 N   0  0  0  0  0  0  0  0  0  0  0  0
   37.2400   29.9070   41.7550 C   0  0  0  0  0  0  0  0  0  0  0  0
   35.8450   29.8800   41.4450 N   0  0  0  0  0  0  0  0  0  0  0  0
   37.9880   31.0090   41.4110 N   0  0  0  0  0  0  0  0  0  0  0  0
   39.3150   30.9660   41.7390 C   0  0  0  0  0  0  0  0  0  0  0  0
   35.4070   30.6820   40.9680 H   0  0  0  0  0  0  0  0  0  0  0  0
   35.2770   29.0600   41.7000 H   0  0  0  0  0  0  0  0  0  0  0  0
   36.8980   27.7150   42.7030 C   0  0  2  0  0  3  0  0  0  0  0  0
   36.4940   27.7650   44.1610 C   0  0  0  0  0  1  0  0  0  0  0  0
   37.4170   26.3800   42.2890 C   0  0  0  0  0  2  0  0  0  0  0  0
   37.7400   26.3990   40.8760 N   0  0  0  0  0  0  0  0  0  0  0  0
   38.5360   26.9400   40.5100 H   0  0  0  0  0  0  0  0  0  0  0  0
   36.9120   25.6450   40.0370 C   0  0  0  0  0  0  0  0  0  0  0  0
   36.7440   24.2830   40.1720 C   0  0  0  0  0  3  0  0  0  0  0  0
   35.9500   23.4770   39.3880 C   0  0  0  0  0  3  0  0  0  0  0  0
   35.2460   24.0700   38.3620 C   0  0  0  0  0  3  0  0  0  0  0  0
   35.3580   25.4250   38.1580 C   0  0  0  0  0  0  0  0  0  0  0  0
   34.6410   25.9840   37.1220 C   0  0  0  0  0  3  0  0  0  0  0  0
   34.7260   27.3380   36.8870 C   0  0  0  0  0  3  0  0  0  0  0  0
   35.5340   28.1070   37.6950 C   0  0  0  0  0  3  0  0  0  0  0  0
   36.2270   27.5060   38.7120 C   0  0  0  0  0  3  0  0  0  0  0  0
   36.1750   26.1570   38.9900 C   0  0  0  0  0  0  0  0  0  0  0  0
  1  6  1  0  0  0  0
  2  1  2  0  0  0  0
  3  2  1  0  0  0  0
  3  4  2  0  0  0  0
  4  5  1  0  0  0  0
  5  6  2  0  0  0  0
  5  7  1  0  0  0  0
  7 17  1  0  0  0  0
  7  8  1  0  0  0  0
  8  9  2  0  0  0  0
 10  9  1  0  0  0  0
 10 11  1  0  0  0  0
 11 12  2  0  0  0  0
 13 11  1  0  0  0  0
 13 20  1  0  0  0  0
 14 13  1  0  0  0  0
 15 19  1  0  0  0  0
 15 14  1  0  0  0  0
 16 17  1  0  0  0  0
 16 14  2  0  0  0  0
 17 10  2  0  0  0  0
 18 15  1  0  0  0  0
 20 21  1  1  0  0  0
 22 20  1  0  0  0  0
 23 22  1  0  0  0  0
 24 23  1  0  0  0  0
 25 26  1  0  0  0  0
 25 23  1  0  0  0  0
 27 26  2  0  0  0  0
 28 27  1  0  0  0  0
 29 28  2  0  0  0  0
 29 34  1  0  0  0  0
 30 29  1  0  0  0  0
 31 30  2  0  0  0  0
 31 32  1  0  0  0  0
 32 33  2  0  0  0  0
 33 34  1  0  0  0  0
 34 25  2  0  0  0  0
M  END
>  <minimizedAffinity>
-7.18676662

$$$$

 OpenBabel03242510113D

 34 38  0  0  1  0  0  0  0  0999 V2000
   43.5350   29.7470   35.4780 C   0  0  0  0  0  3  0  0  0  0  0  0
   44.7610   30.4430   35.5940 C   0  0  0  0  0  3  0  0  0  0  0  0
   44.8010   31.5180   36.4660 C   0  0  0  0  0  3  0  0  0  0  0  0
   43.6880   31.8730   37.1730 N   0  0  0  0  0  0  0  0  0  0  0  0
   42.5390   31.1920   37.0410 C   0  0  0  0  0  0  0  0  0  0  0  0
   42.4580   30.1290   36.1930 N   0  0  0  0  0  0  0  0  0  0  0  0
   41.4320   31.6240   37.8090 N   0  0  0  0  0  0  0  0  0  0  0  0
   41.1910   32.9360   38.1270 C   0  0  0  0  0  3  0  0  0  0  0  0
   40.0980   33.0760   38.8520 N   0  0  0  0  0  0  0  0  0  0  0  0
   39.5680   31.8250   39.0410 C   0  0  0  0  0  0  0  0  0  0  0  0
   38.4630   31.4110   39.7050 C   0  0  0  0  0  0  0  0  0  0  0  0
   37.7270   32.2370   40.2830 O   0  0  0  0  0  0  0  0  0  0  0  0
   38.1890   30.0980   39.7190 N   0  0  0  0  0  0  0  0  0  0  0  0
   39.0200   29.2460   39.0750 C   0  0  0  0  0  0  0  0  0  0  0  0
   38.6750   27.8600   39.1250 N   0  0  0  0  0  0  0  0  0  0  0  0
   40.1490   29.6380   38.3930 N   0  0  0  0  0  0  0  0  0  0  0  0
   40.4160   30.9800   38.3860 C   0  0  0  0  0  0  0  0  0  0  0  0
   39.2700   27.1630   38.6540 H   0  0  0  0  0  0  0  0  0  0  0  0
   37.8310   27.5580   39.6320 H   0  0  0  0  0  0  0  0  0  0  0  0
   37.0400   29.6120   40.4040 C   0  0  2  0  0  3  0  0  0  0  0  0
   35.7910   29.8670   39.5890 C   0  0  0  0  0  1  0  0  0  0  0  0
   36.9110   30.0590   41.8210 C   0  0  0  0  0  2  0  0  0  0  0  0
   36.8970   28.9040   42.6960 N   0  0  0  0  0  0  0  0  0  0  0  0
   36.0650   28.6520   43.2490 H   0  0  0  0  0  0  0  0  0  0  0  0
   38.0740   28.1480   42.7510 C   0  0  0  0  0  0  0  0  0  0  0  0
   39.3130   28.7020   42.9990 C   0  0  0  0  0  3  0  0  0  0  0  0
   40.5090   28.0250   43.0680 C   0  0  0  0  0  3  0  0  0  0  0  0
   40.4900   26.6610   42.8730 C   0  0  0  0  0  3  0  0  0  0  0  0
   39.2940   26.0300   42.6190 C   0  0  0  0  0  0  0  0  0  0  0  0
   39.3120   24.6650   42.4280 C   0  0  0  0  0  3  0  0  0  0  0  0
   38.1350   23.9980   42.1720 C   0  0  0  0  0  3  0  0  0  0  0  0
   36.9610   24.7140   42.1110 C   0  0  0  0  0  3  0  0  0  0  0  0
   36.9940   26.0690   42.3080 C   0  0  0  0  0  3  0  0  0  0  0  0
   38.1430   26.7840   42.5680 C   0  0  0  0  0  0  0  0  0  0  0  0
  1  2  2  0  0  0  0
  1  6  1  0  0  0  0
  2  3  1  0  0  0  0
  3  4  2  0  0  0  0
  5  4  1  0  0  0  0
  5  7  1  0  0  0  0
  6  5  2  0  0  0  0
  7  8  1  0  0  0  0
  7 17  1  0  0  0  0
  8  9  2  0  0  0  0
  9 10  1  0  0  0  0
 10 11  1  0  0  0  0
 11 13  1  0  0  0  0
 11 12  2  0  0  0  0
 13 20  1  0  0  0  0
 14 15  1  0  0  0  0
 14 13  1  0  0  0  0
 15 19  1  0  0  0  0
 16 14  2  0  0  0  0
 17 16  1  0  0  0  0
 17 10  2  0  0  0  0
 18 15  1  0  0  0  0
 20 21  1  6  0  0  0
 20 22  1  0  0  0  0
 22 23  1  0  0  0  0
 23 25  1  0  0  0  0
 23 24  1  0  0  0  0
 25 26  1  0  0  0  0
 26 27  2  0  0  0  0
 28 27  1  0  0  0  0
 29 28  2  0  0  0  0
 30 29  1  0  0  0  0
 31 30  2  0  0  0  0
 32 31  1  0  0  0  0
 32 33  2  0  0  0  0
 33 34  1  0  0  0  0
 34 29  1  0  0  0  0
 34 25  2  0  0  0  0
M  END
>  <minimizedAffinity>
-7.09350538

$$$$

 OpenBabel03242510113D

 34 38  0  0  1  0  0  0  0  0999 V2000
   42.6230   33.5730   37.2340 C   0  0  0  0  0  3  0  0  0  0  0  0
   43.4740   34.1700   38.1920 C   0  0  0  0  0  3  0  0  0  0  0  0
   43.0180   34.2300   39.4980 C   0  0  0  0  0  3  0  0  0  0  0  0
   41.7920   33.7250   39.8220 N   0  0  0  0  0  0  0  0  0  0  0  0
   41.0060   33.1630   38.8900 C   0  0  0  0  0  0  0  0  0  0  0  0
   41.4180   33.0860   37.5940 N   0  0  0  0  0  0  0  0  0  0  0  0
   39.7500   32.6640   39.3080 N   0  0  0  0  0  0  0  0  0  0  0  0
   38.9980   33.2320   40.3050 C   0  0  0  0  0  3  0  0  0  0  0  0
   37.8700   32.5780   40.5050 N   0  0  0  0  0  0  0  0  0  0  0  0
   37.8410   31.5290   39.6230 C   0  0  0  0  0  0  0  0  0  0  0  0
   36.9190   30.5610   39.4130 C   0  0  0  0  0  0  0  0  0  0  0  0
   35.8710   30.5270   40.0910 O   0  0  0  0  0  0  0  0  0  0  0  0
   37.1650   29.6490   38.4600 N   0  0  0  0  0  0  0  0  0  0  0  0
   38.3150   29.7320   37.7520 C   0  0  0  0  0  0  0  0  0  0  0  0
   38.5210   28.7330   36.7510 N   0  0  0  0  0  0  0  0  0  0  0  0
   39.2700   30.7040   37.9440 N   0  0  0  0  0  0  0  0  0  0  0  0
   39.0050   31.6280   38.9180 C   0  0  0  0  0  0  0  0  0  0  0  0
   39.3780   28.7440   36.1800 H   0  0  0  0  0  0  0  0  0  0  0  0
   37.8110   28.0020   36.6000 H   0  0  0  0  0  0  0  0  0  0  0  0
   36.2280   28.6090   38.2010 C   0  0  2  0  0  3  0  0  0  0  0  0
   35.0000   29.1640   37.5110 C   0  0  0  0  0  1  0  0  0  0  0  0
   35.8960   27.7490   39.3730 C   0  0  0  0  0  2  0  0  0  0  0  0
   37.0800   27.0310   39.8000 N   0  0  0  0  0  0  0  0  0  0  0  0
   37.6470   26.4780   39.1410 H   0  0  0  0  0  0  0  0  0  0  0  0
   37.4140   27.1290   41.1570 C   0  0  0  0  0  0  0  0  0  0  0  0
   36.6740   27.8600   42.0620 C   0  0  0  0  0  3  0  0  0  0  0  0
   36.9390   28.0020   43.4050 C   0  0  0  0  0  3  0  0  0  0  0  0
   38.0460   27.3590   43.9150 C   0  0  0  0  0  3  0  0  0  0  0  0
   38.8390   26.6100   43.0770 C   0  0  0  0  0  0  0  0  0  0  0  0
   39.9400   25.9820   43.6210 C   0  0  0  0  0  3  0  0  0  0  0  0
   40.7570   25.2220   42.8150 C   0  0  0  0  0  3  0  0  0  0  0  0
   40.4560   25.1080   41.4760 C   0  0  0  0  0  3  0  0  0  0  0  0
   39.3510   25.7500   40.9830 C   0  0  0  0  0  3  0  0  0  0  0  0
   38.5010   26.5210   41.7460 C   0  0  0  0  0  0  0  0  0  0  0  0
  1  6  2  0  0  0  0
  1  2  1  0  0  0  0
  2  3  2  0  0  0  0
  3  4  1  0  0  0  0
  5  7  1  0  0  0  0
  5  4  2  0  0  0  0
  6  5  1  0  0  0  0
  7  8  1  0  0  0  0
  8  9  2  0  0  0  0
 10  9  1  0  0  0  0
 11 10  1  0  0  0  0
 11 12  2  0  0  0  0
 13 11  1  0  0  0  0
 14 16  2  0  0  0  0
 14 13  1  0  0  0  0
 15 14  1  0  0  0  0
 16 17  1  0  0  0  0
 17  7  1  0  0  0  0
 17 10  2  0  0  0  0
 18 15  1  0  0  0  0
 19 15  1  0  0  0  0
 20 21  1  1  0  0  0
 20 13  1  0  0  0  0
 20 22  1  0  0  0  0
 22 23  1  0  0  0  0
 23 25  1  0  0  0  0
 24 23  1  0  0  0  0
 25 34  2  0  0  0  0
 25 26  1  0  0  0  0
 26 27  2  0  0  0  0
 27 28  1  0  0  0  0
 29 30  1  0  0  0  0
 29 28  2  0  0  0  0
 31 30  2  0  0  0  0
 32 31  1  0  0  0  0
 33 32  2  0  0  0  0
 33 34  1  0  0  0  0
 34 29  1  0  0  0  0
M  END
>  <minimizedAffinity>
-7.02876759

$$$$

 OpenBabel03242510113D

 34 38  0  0  1  0  0  0  0  0999 V2000
   38.6600   35.1610   40.2830 C   0  0  0  0  0  3  0  0  0  0  0  0
   39.7320   36.0360   39.9910 C   0  0  0  0  0  3  0  0  0  0  0  0
   40.9250   35.4640   39.5810 C   0  0  0  0  0  3  0  0  0  0  0  0
   41.0360   34.1080   39.4710 N   0  0  0  0  0  0  0  0  0  0  0  0
   40.0000   33.3040   39.7560 C   0  0  0  0  0  0  0  0  0  0  0  0
   38.8100   33.8270   40.1620 N   0  0  0  0  0  0  0  0  0  0  0  0
   40.1970   31.9100   39.6160 N   0  0  0  0  0  0  0  0  0  0  0  0
   41.3890   31.2800   39.8680 C   0  0  0  0  0  3  0  0  0  0  0  0
   41.3130   29.9790   39.6630 N   0  0  0  0  0  0  0  0  0  0  0  0
   40.0330   29.7010   39.2570 C   0  0  0  0  0  0  0  0  0  0  0  0
   39.4330   28.5350   38.9210 C   0  0  0  0  0  0  0  0  0  0  0  0
   40.0720   27.4630   38.9530 O   0  0  0  0  0  0  0  0  0  0  0  0
   38.1420   28.5700   38.5590 N   0  0  0  0  0  0  0  0  0  0  0  0
   37.4960   29.7590   38.5420 C   0  0  0  0  0  0  0  0  0  0  0  0
   36.1220   29.7320   38.1470 N   0  0  0  0  0  0  0  0  0  0  0  0
   38.0790   30.9580   38.8770 N   0  0  0  0  0  0  0  0  0  0  0  0
   39.3960   30.9080   39.2470 C   0  0  0  0  0  0  0  0  0  0  0  0
   35.5780   30.6060   38.1150 H   0  0  0  0  0  0  0  0  0  0  0  0
   35.6770   28.8380   37.8950 H   0  0  0  0  0  0  0  0  0  0  0  0
   37.4660   27.3720   38.1940 C   0  0  2  0  0  3  0  0  0  0  0  0
   37.1740   27.3610   36.7090 C   0  0  0  0  0  1  0  0  0  0  0  0
   36.2710   27.0410   39.0230 C   0  0  0  0  0  2  0  0  0  0  0  0
   36.6630   26.1750   40.1170 N   0  0  0  0  0  0  0  0  0  0  0  0
   36.5980   25.1490   40.0470 H   0  0  0  0  0  0  0  0  0  0  0  0
   37.1360   26.8060   41.2740 C   0  0  0  0  0  0  0  0  0  0  0  0
   36.5910   27.9710   41.7710 C   0  0  0  0  0  3  0  0  0  0  0  0
   37.0000   28.6470   42.8980 C   0  0  0  0  0  3  0  0  0  0  0  0
   38.0550   28.1240   43.6140 C   0  0  0  0  0  3  0  0  0  0  0  0
   38.6560   26.9640   43.1860 C   0  0  0  0  0  0  0  0  0  0  0  0
   39.7100   26.4710   43.9250 C   0  0  0  0  0  3  0  0  0  0  0  0
   40.3370   25.3110   43.5290 C   0  0  0  0  0  3  0  0  0  0  0  0
   39.8960   24.6680   42.3940 C   0  0  0  0  0  3  0  0  0  0  0  0
   38.8450   25.1970   41.6920 C   0  0  0  0  0  3  0  0  0  0  0  0
   38.1830   26.3520   42.0470 C   0  0  0  0  0  0  0  0  0  0  0  0
  2  1  2  0  0  0  0
  3  2  1  0  0  0  0
  4  3  2  0  0  0  0
  4  5  1  0  0  0  0
  5  6  2  0  0  0  0
  6  1  1  0  0  0  0
  7  5  1  0  0  0  0
  7  8  1  0  0  0  0
  9  8  2  0  0  0  0
 10  9  1  0  0  0  0
 11 12  2  0  0  0  0
 11 10  1  0  0  0  0
 13 11  1  0  0  0  0
 14 13  1  0  0  0  0
 14 16  2  0  0  0  0
 15 14  1  0  0  0  0
 16 17  1  0  0  0  0
 17 10  2  0  0  0  0
 17  7  1  0  0  0  0
 18 15  1  0  0  0  0
 19 15  1  0  0  0  0
 20 21  1  6  0  0  0
 20 13  1  0  0  0  0
 20 22  1  0  0  0  0
 22 23  1  0  0  0  0
 23 25  1  0  0  0  0
 24 23  1  0  0  0  0
 25 26  2  0  0  0  0
 25 34  1  0  0  0  0
 26 27  1  0  0  0  0
 27 28  2  0  0  0  0
 29 28  1  0  0  0  0
 29 30  1  0  0  0  0
 31 30  2  0  0  0  0
 32 31  1  0  0  0  0
 33 34  1  0  0  0  0
 33 32  2  0  0  0  0
 34 29  2  0  0  0  0
M  END
>  <minimizedAffinity>
-7.0032239

$$$$

 OpenBabel03242510113D

 34 38  0  0  1  0  0  0  0  0999 V2000
   44.1240   30.2370   35.2420 C   0  0  0  0  0  3  0  0  0  0  0  0
   45.3920   29.7880   35.6750 C   0  0  0  0  0  3  0  0  0  0  0  0
   45.7220   30.0000   37.0040 C   0  0  0  0  0  3  0  0  0  0  0  0
   44.8390   30.6200   37.8410 N   0  0  0  0  0  0  0  0  0  0  0  0
   43.6420   31.0360   37.3990 C   0  0  0  0  0  0  0  0  0  0  0  0
   43.2810   30.8470   36.0990 N   0  0  0  0  0  0  0  0  0  0  0  0
   42.7870   31.6700   38.3300 N   0  0  0  0  0  0  0  0  0  0  0  0
   43.2320   32.4620   39.3570 C   0  0  0  0  0  3  0  0  0  0  0  0
   42.2370   32.9340   40.0840 N   0  0  0  0  0  0  0  0  0  0  0  0
   41.0700   32.4540   39.5450 C   0  0  0  0  0  0  0  0  0  0  0  0
   39.7780   32.6330   39.9040 C   0  0  0  0  0  0  0  0  0  0  0  0
   39.4870   33.3440   40.8880 O   0  0  0  0  0  0  0  0  0  0  0  0
   38.8300   32.0280   39.1730 N   0  0  0  0  0  0  0  0  0  0  0  0
   39.1990   31.2680   38.1150 C   0  0  0  0  0  0  0  0  0  0  0  0
   38.1440   30.6500   37.3760 N   0  0  0  0  0  0  0  0  0  0  0  0
   40.5040   31.0690   37.7280 N   0  0  0  0  0  0  0  0  0  0  0  0
   41.4600   31.6930   38.4810 C   0  0  0  0  0  0  0  0  0  0  0  0
   38.3630   30.0600   36.5600 H   0  0  0  0  0  0  0  0  0  0  0  0
   37.1640   30.7940   37.6580 H   0  0  0  0  0  0  0  0  0  0  0  0
   37.4550   32.1820   39.5100 C   0  0  2  0  0  3  0  0  0  0  0  0
   37.0180   33.6160   39.3000 C   0  0  0  0  0  1  0  0  0  0  0  0
   37.0660   31.6460   40.8460 C   0  0  0  0  0  2  0  0  0  0  0  0
   35.8350   30.8910   40.7280 N   0  0  0  0  0  0  0  0  0  0  0  0
   34.9210   31.3040   40.9620 H   0  0  0  0  0  0  0  0  0  0  0  0
   35.9540   29.5710   40.2780 C   0  0  0  0  0  0  0  0  0  0  0  0
   35.5570   29.1650   39.0210 C   0  0  0  0  0  3  0  0  0  0  0  0
   35.6430   27.8900   38.5110 C   0  0  0  0  0  3  0  0  0  0  0  0
   36.1750   26.9080   39.3180 C   0  0  0  0  0  3  0  0  0  0  0  0
   36.5950   27.2290   40.5880 C   0  0  0  0  0  0  0  0  0  0  0  0
   37.1210   26.2210   41.3680 C   0  0  0  0  0  3  0  0  0  0  0  0
   37.5540   26.5030   42.6440 C   0  0  0  0  0  3  0  0  0  0  0  0
   37.4480   27.7930   43.1160 C   0  0  0  0  0  3  0  0  0  0  0  0
   36.9190   28.7600   42.3020 C   0  0  0  0  0  3  0  0  0  0  0  0
   36.4730   28.5300   41.0190 C   0  0  0  0  0  0  0  0  0  0  0  0
  1  2  2  0  0  0  0
  1  6  1  0  0  0  0
  2  3  1  0  0  0  0
  3  4  2  0  0  0  0
  5  4  1  0  0  0  0
  5  7  1  0  0  0  0
  6  5  2  0  0  0  0
  7 17  1  0  0  0  0
  7  8  1  0  0  0  0
  8  9  2  0  0  0  0
 10 11  1  0  0  0  0
 10  9  1  0  0  0  0
 11 12  2  0  0  0  0
 13 20  1  0  0  0  0
 13 11  1  0  0  0  0
 14 13  1  0  0  0  0
 15 19  1  0  0  0  0
 15 14  1  0  0  0  0
 16 14  2  0  0  0  0
 16 17  1  0  0  0  0
 17 10  2  0  0  0  0
 18 15  1  0  0  0  0
 20 21  1  1  0  0  0
 20 22  1  0  0  0  0
 23 22  1  0  0  0  0
 23 24  1  0  0  0  0
 25 23  1  0  0  0  0
 25 34  1  0  0  0  0
 26 25  2  0  0  0  0
 27 26  1  0  0  0  0
 27 28  2  0  0  0  0
 28 29  1  0  0  0  0
 29 34  2  0  0  0  0
 29 30  1  0  0  0  0
 30 31  2  0  0  0  0
 31 32  1  0  0  0  0
 33 32  2  0  0  0  0
 34 33  1  0  0  0  0
M  END
>  <minimizedAffinity>
-6.99603653

$$$$

 OpenBabel03242510113D

 34 38  0  0  1  0  0  0  0  0999 V2000
   39.4840   35.6110   40.3250 C   0  0  0  0  0  3  0  0  0  0  0  0
   40.5700   36.0010   39.5090 C   0  0  0  0  0  3  0  0  0  0  0  0
   41.5110   35.0340   39.1980 C   0  0  0  0  0  3  0  0  0  0  0  0
   41.3730   33.7620   39.6740 N   0  0  0  0  0  0  0  0  0  0  0  0
   40.3310   33.4220   40.4470 C   0  0  0  0  0  0  0  0  0  0  0  0
   39.3840   34.3440   40.7760 N   0  0  0  0  0  0  0  0  0  0  0  0
   40.2620   32.0830   40.8990 N   0  0  0  0  0  0  0  0  0  0  0  0
   41.3620   31.3220   41.1990 C   0  0  0  0  0  3  0  0  0  0  0  0
   41.0310   30.1090   41.5970 N   0  0  0  0  0  0  0  0  0  0  0  0
   39.6620   30.0280   41.5700 C   0  0  0  0  0  0  0  0  0  0  0  0
   38.8190   29.0160   41.8810 C   0  0  0  0  0  0  0  0  0  0  0  0
   39.2660   27.9170   42.2710 O   0  0  0  0  0  0  0  0  0  0  0  0
   37.5000   29.2320   41.7590 N   0  0  0  0  0  0  0  0  0  0  0  0
   37.0690   30.4410   41.3330 C   0  0  0  0  0  0  0  0  0  0  0  0
   35.6540   30.6100   41.2230 N   0  0  0  0  0  0  0  0  0  0  0  0
   37.9020   31.4870   41.0100 N   0  0  0  0  0  0  0  0  0  0  0  0
   39.2440   31.2540   41.1410 C   0  0  0  0  0  0  0  0  0  0  0  0
   35.2650   31.5100   40.9040 H   0  0  0  0  0  0  0  0  0  0  0  0
   35.0220   29.8330   41.4630 H   0  0  0  0  0  0  0  0  0  0  0  0
   36.5720   28.1990   42.0710 C   0  0  2  0  0  3  0  0  0  0  0  0
   36.7920   27.6980   43.4820 C   0  0  0  0  0  1  0  0  0  0  0  0
   36.4900   27.0960   41.0700 C   0  0  0  0  0  2  0  0  0  0  0  0
   37.1530   25.9180   41.5890 N   0  0  0  0  0  0  0  0  0  0  0  0
   37.5070   25.8760   42.5560 H   0  0  0  0  0  0  0  0  0  0  0  0
   37.2890   24.8380   40.7070 C   0  0  0  0  0  0  0  0  0  0  0  0
   36.2610   23.9640   40.4260 C   0  0  0  0  0  3  0  0  0  0  0  0
   36.3190   22.8850   39.5730 C   0  0  0  0  0  3  0  0  0  0  0  0
   37.5120   22.6370   38.9280 C   0  0  0  0  0  3  0  0  0  0  0  0
   38.5880   23.4630   39.1550 C   0  0  0  0  0  0  0  0  0  0  0  0
   39.7650   23.1850   38.4940 C   0  0  0  0  0  3  0  0  0  0  0  0
   40.8650   23.9890   38.6940 C   0  0  0  0  0  3  0  0  0  0  0  0
   40.7630   25.0570   39.5570 C   0  0  0  0  0  3  0  0  0  0  0  0
   39.5720   25.2930   40.1900 C   0  0  0  0  0  3  0  0  0  0  0  0
   38.4430   24.5210   40.0240 C   0  0  0  0  0  0  0  0  0  0  0  0
  1  6  1  0  0  0  0
  2  1  2  0  0  0  0
  3  2  1  0  0  0  0
  3  4  2  0  0  0  0
  4  5  1  0  0  0  0
  5  6  2  0  0  0  0
  5  7  1  0  0  0  0
  7 17  1  0  0  0  0
  7  8  1  0  0  0  0
  8  9  2  0  0  0  0
 10  9  1  0  0  0  0
 10 11  1  0  0  0  0
 11 12  2  0  0  0  0
 13 11  1  0  0  0  0
 13 20  1  0  0  0  0
 14 13  1  0  0  0  0
 15 14  1  0  0  0  0
 15 19  1  0  0  0  0
 16 17  1  0  0  0  0
 16 14  2  0  0  0  0
 17 10  2  0  0  0  0
 18 15  1  0  0  0  0
 20 21  1  1  0  0  0
 22 23  1  0  0  0  0
 22 20  1  0  0  0  0
 23 24  1  0  0  0  0
 25 23  1  0  0  0  0
 26 25  1  0  0  0  0
 27 26  2  0  0  0  0
 28 29  2  0  0  0  0
 28 27  1  0  0  0  0
 29 34  1  0  0  0  0
 30 31  2  0  0  0  0
 30 29  1  0  0  0  0
 31 32  1  0  0  0  0
 32 33  2  0  0  0  0
 34 33  1  0  0  0  0
 34 25  2  0  0  0  0
M  END
>  <minimizedAffinity>
-6.97486734

$$$$

 OpenBabel03242510113D

 34 38  0  0  1  0  0  0  0  0999 V2000
   39.2000   35.4230   40.3900 C   0  0  0  0  0  3  0  0  0  0  0  0
   40.3540   35.8640   39.7040 C   0  0  0  0  0  3  0  0  0  0  0  0
   41.4270   34.9910   39.6380 C   0  0  0  0  0  3  0  0  0  0  0  0
   41.3480   33.7590   40.2200 N   0  0  0  0  0  0  0  0  0  0  0  0
   40.2370   33.3680   40.8640 C   0  0  0  0  0  0  0  0  0  0  0  0
   39.1610   34.1980   40.9520 N   0  0  0  0  0  0  0  0  0  0  0  0
   40.2370   32.0760   41.4400 N   0  0  0  0  0  0  0  0  0  0  0  0
   41.3490   31.4800   41.9760 C   0  0  0  0  0  3  0  0  0  0  0  0
   41.0860   30.2760   42.4470 N   0  0  0  0  0  0  0  0  0  0  0  0
   39.7540   30.0320   42.2300 C   0  0  0  0  0  0  0  0  0  0  0  0
   38.9810   28.9590   42.5190 C   0  0  0  0  0  0  0  0  0  0  0  0
   39.4720   27.9600   43.0830 O   0  0  0  0  0  0  0  0  0  0  0  0
   37.6830   29.0060   42.1840 N   0  0  0  0  0  0  0  0  0  0  0  0
   37.2010   30.1140   41.5740 C   0  0  0  0  0  0  0  0  0  0  0  0
   35.8110   30.1050   41.2420 N   0  0  0  0  0  0  0  0  0  0  0  0
   37.9630   31.2180   41.2680 N   0  0  0  0  0  0  0  0  0  0  0  0
   39.2840   31.1570   41.6170 C   0  0  0  0  0  0  0  0  0  0  0  0
   35.3870   30.9200   40.7770 H   0  0  0  0  0  0  0  0  0  0  0  0
   35.2340   29.2830   41.4680 H   0  0  0  0  0  0  0  0  0  0  0  0
   36.8280   27.9030   42.4640 C   0  0  2  0  0  3  0  0  0  0  0  0
   36.5880   27.7860   43.9540 C   0  0  0  0  0  1  0  0  0  0  0  0
   37.2340   26.6120   41.8380 C   0  0  0  0  0  2  0  0  0  0  0  0
   36.6310   26.4960   40.5260 N   0  0  0  0  0  0  0  0  0  0  0  0
   35.7340   26.0110   40.3810 H   0  0  0  0  0  0  0  0  0  0  0  0
   37.3330   27.0790   39.4640 C   0  0  0  0  0  0  0  0  0  0  0  0
   38.7010   26.9790   39.3210 C   0  0  0  0  0  3  0  0  0  0  0  0
   39.4570   27.5230   38.3070 C   0  0  0  0  0  3  0  0  0  0  0  0
   38.8020   28.2420   37.3300 C   0  0  0  0  0  3  0  0  0  0  0  0
   37.4370   28.3900   37.3990 C   0  0  0  0  0  0  0  0  0  0  0  0
   36.8150   29.1160   36.4050 C   0  0  0  0  0  3  0  0  0  0  0  0
   35.4490   29.2860   36.4390 C   0  0  0  0  0  3  0  0  0  0  0  0
   34.7320   28.7260   37.4720 C   0  0  0  0  0  3  0  0  0  0  0  0
   35.3940   28.0120   38.4360 C   0  0  0  0  0  3  0  0  0  0  0  0
   36.7580   27.8120   38.4480 C   0  0  0  0  0  0  0  0  0  0  0  0
  1  6  1  0  0  0  0
  2  1  2  0  0  0  0
  3  2  1  0  0  0  0
  3  4  2  0  0  0  0
  4  5  1  0  0  0  0
  5  6  2  0  0  0  0
  5  7  1  0  0  0  0
  7 17  1  0  0  0  0
  7  8  1  0  0  0  0
  8  9  2  0  0  0  0
 10  9  1  0  0  0  0
 10 11  1  0  0  0  0
 11 12  2  0  0  0  0
 13 20  1  0  0  0  0
 13 11  1  0  0  0  0
 14 13  1  0  0  0  0
 15 19  1  0  0  0  0
 15 14  1  0  0  0  0
 16 14  2  0  0  0  0
 16 17  1  0  0  0  0
 17 10  2  0  0  0  0
 18 15  1  0  0  0  0
 20 21  1  1  0  0  0
 22 20  1  0  0  0  0
 23 22  1  0  0  0  0
 24 23  1  0  0  0  0
 25 23  1  0  0  0  0
 26 25  1  0  0  0  0
 27 26  2  0  0  0  0
 28 29  2  0  0  0  0
 28 27  1  0  0  0  0
 29 34  1  0  0  0  0
 30 31  2  0  0  0  0
 30 29  1  0  0  0  0
 31 32  1  0  0  0  0
 32 33  2  0  0  0  0
 33 34  1  0  0  0  0
 34 25  2  0  0  0  0
M  END
>  <minimizedAffinity>
-6.9239583

$$$$
