
 OpenBabel03242509573D

 35 39  0  0  0  0  0  0  0  0999 V2000
   35.7470   29.7570   39.5530 C   0  0  0  0  0  3  0  0  0  0  0  0
   35.9730   29.2750   40.8550 C   0  0  0  0  0  3  0  0  0  0  0  0
   37.1290   29.5110   41.5280 C   0  0  0  0  0  0  0  0  0  0  0  0
   38.0800   30.2350   40.9040 N   0  0  0  0  0  0  0  0  0  0  0  0
   37.8510   30.7020   39.6330 C   0  0  0  0  0  0  0  0  0  0  0  0
   36.7380   30.4750   38.9840 N   0  0  0  0  0  0  0  0  0  0  0  0
   39.0330   31.4750   39.1370 C   0  0  0  0  0  0  0  0  0  0  0  0
   39.5450   31.5780   37.7650 C   0  0  0  0  0  3  0  0  0  0  0  0
   40.9480   32.6710   38.0640 S   0  0  0  0  0  0  0  0  0  0  0  0
   40.6240   32.8060   39.9300 C   0  0  0  0  0  0  0  0  0  0  0  0
   39.5440   32.0590   40.1840 N   0  0  0  0  0  0  0  0  0  0  0  0
   41.5320   33.6290   40.7000 N   0  0  0  0  0  0  0  0  0  0  0  0
   42.5440   33.1030   41.4050 C   0  0  0  0  0  3  0  0  0  0  0  0
   43.3630   33.9590   42.1130 C   0  0  0  0  0  0  0  0  0  0  0  0
   44.4910   33.3910   42.9000 C   0  0  0  0  0  1  0  0  0  0  0  0
   43.1410   35.3260   42.0920 C   0  0  0  0  0  0  0  0  0  0  0  0
   43.8690   36.1340   42.7250 O   0  0  0  0  0  0  0  0  0  0  0  0
   42.1020   35.7540   41.3550 N   0  0  0  0  0  0  0  0  0  0  0  0
   41.2720   34.9420   40.6450 C   0  0  0  0  0  0  0  0  0  0  0  0
   40.3460   35.4940   40.0070 O   0  0  0  0  0  0  0  0  0  0  0  0
   41.9210   36.7680   41.3270 H   0  0  0  0  0  0  0  0  0  0  0  0
   37.3240   28.9900   42.8730 C   0  0  0  0  0  2  0  0  0  0  0  0
   36.7450   27.6610   43.1720 C   0  0  0  0  0  2  0  0  0  0  0  0
   37.7930   26.6270   42.9180 C   0  0  0  0  0  0  0  0  0  0  0  0
   37.5390   25.4540   42.2370 C   0  0  0  0  0  3  0  0  0  0  0  0
   38.4140   24.4560   41.9560 C   0  0  0  0  0  3  0  0  0  0  0  0
   39.6830   24.6860   42.4200 N   0  0  0  0  0  0  0  0  0  0  0  0
   39.9770   25.8220   43.0910 C   0  0  0  0  0  0  0  0  0  0  0  0
   39.0730   26.7950   43.3530 N   0  0  0  0  0  0  0  0  0  0  0  0
   41.3470   25.9880   43.5490 C   0  0  0  0  0  0  0  0  0  0  0  0
   41.6520   26.9170   44.5430 C   0  0  0  0  0  3  0  0  0  0  0  0
   42.9460   27.0690   44.9680 C   0  0  0  0  0  3  0  0  0  0  0  0
   43.9280   26.3400   44.4480 N   0  0  0  0  0  0  0  0  0  0  0  0
   43.6150   25.4400   43.4830 C   0  0  0  0  0  3  0  0  0  0  0  0
   42.3450   25.2520   43.0260 N   0  0  0  0  0  0  0  0  0  0  0  0
  1  2  1  0  0  0  0
  2  3  2  0  0  0  0
  3 22  1  0  0  0  0
  4  3  1  0  0  0  0
  5  4  2  0  0  0  0
  6  1  2  0  0  0  0
  6  5  1  0  0  0  0
  7  5  1  0  0  0  0
  7 11  1  0  0  0  0
  8  9  1  0  0  0  0
  8  7  2  0  0  0  0
  9 10  1  0  0  0  0
 10 11  2  0  0  0  0
 10 12  1  0  0  0  0
 12 13  1  0  0  0  0
 13 14  2  0  0  0  0
 14 15  1  0  0  0  0
 16 14  1  0  0  0  0
 16 17  2  0  0  0  0
 18 16  1  0  0  0  0
 19 12  1  0  0  0  0
 19 18  1  0  0  0  0
 20 19  2  0  0  0  0
 21 18  1  0  0  0  0
 22 23  1  0  0  0  0
 24 23  1  0  0  0  0
 24 29  1  0  0  0  0
 25 24  2  0  0  0  0
 26 25  1  0  0  0  0
 26 27  2  0  0  0  0
 27 28  1  0  0  0  0
 28 29  2  0  0  0  0
 28 30  1  0  0  0  0
 30 31  1  0  0  0  0
 31 32  2  0  0  0  0
 33 32  1  0  0  0  0
 34 33  2  0  0  0  0
 35 34  1  0  0  0  0
 35 30  2  0  0  0  0
M  END
>  <minimizedAffinity>
-7.84286785

$$$$

 OpenBabel03242509573D

 35 39  0  0  0  0  0  0  0  0999 V2000
   35.7330   29.8420   39.4430 C   0  0  0  0  0  3  0  0  0  0  0  0
   35.9610   29.3130   40.7260 C   0  0  0  0  0  3  0  0  0  0  0  0
   37.1230   29.5120   41.3990 C   0  0  0  0  0  0  0  0  0  0  0  0
   38.0800   30.2450   40.7940 N   0  0  0  0  0  0  0  0  0  0  0  0
   37.8490   30.7570   39.5410 C   0  0  0  0  0  0  0  0  0  0  0  0
   36.7290   30.5670   38.8920 N   0  0  0  0  0  0  0  0  0  0  0  0
   39.0370   31.5320   39.0640 C   0  0  0  0  0  0  0  0  0  0  0  0
   39.5630   31.6470   37.6980 C   0  0  0  0  0  3  0  0  0  0  0  0
   40.9650   32.7340   38.0210 S   0  0  0  0  0  0  0  0  0  0  0  0
   40.6240   32.8520   39.8850 C   0  0  0  0  0  0  0  0  0  0  0  0
   39.5390   32.1060   40.1220 N   0  0  0  0  0  0  0  0  0  0  0  0
   41.5260   33.6660   40.6710 N   0  0  0  0  0  0  0  0  0  0  0  0
   42.5290   33.1320   41.3810 C   0  0  0  0  0  3  0  0  0  0  0  0
   43.3430   33.9800   42.1060 C   0  0  0  0  0  0  0  0  0  0  0  0
   44.4620   33.4020   42.8980 C   0  0  0  0  0  1  0  0  0  0  0  0
   43.1240   35.3470   42.0940 C   0  0  0  0  0  0  0  0  0  0  0  0
   43.8480   36.1480   42.7420 O   0  0  0  0  0  0  0  0  0  0  0  0
   42.0930   35.7840   41.3520 N   0  0  0  0  0  0  0  0  0  0  0  0
   41.2690   34.9810   40.6250 C   0  0  0  0  0  0  0  0  0  0  0  0
   40.3500   35.5400   39.9830 O   0  0  0  0  0  0  0  0  0  0  0  0
   41.9140   36.7980   41.3310 H   0  0  0  0  0  0  0  0  0  0  0  0
   37.3190   28.9430   42.7250 C   0  0  0  0  0  2  0  0  0  0  0  0
   38.7150   28.7640   43.1820 C   0  0  0  0  0  2  0  0  0  0  0  0
   39.0580   27.3130   43.0780 C   0  0  0  0  0  0  0  0  0  0  0  0
   40.0770   26.7310   43.8030 C   0  0  0  0  0  3  0  0  0  0  0  0
   40.4690   25.4320   43.7820 C   0  0  0  0  0  3  0  0  0  0  0  0
   39.7360   24.6470   42.9310 N   0  0  0  0  0  0  0  0  0  0  0  0
   38.7270   25.1760   42.2020 C   0  0  0  0  0  0  0  0  0  0  0  0
   38.3680   26.4800   42.2510 N   0  0  0  0  0  0  0  0  0  0  0  0
   38.0000   24.2750   41.3230 C   0  0  0  0  0  0  0  0  0  0  0  0
   36.6890   24.5620   40.9430 C   0  0  0  0  0  3  0  0  0  0  0  0
   36.0090   23.7070   40.1170 C   0  0  0  0  0  3  0  0  0  0  0  0
   36.5800   22.5970   39.6600 N   0  0  0  0  0  0  0  0  0  0  0  0
   37.8560   22.3310   40.0380 C   0  0  0  0  0  3  0  0  0  0  0  0
   38.5730   23.1490   40.8580 N   0  0  0  0  0  0  0  0  0  0  0  0
  1  2  1  0  0  0  0
  2  3  2  0  0  0  0
  3 22  1  0  0  0  0
  4  3  1  0  0  0  0
  5  4  2  0  0  0  0
  6  1  2  0  0  0  0
  6  5  1  0  0  0  0
  7  5  1  0  0  0  0
  7 11  1  0  0  0  0
  8  9  1  0  0  0  0
  8  7  2  0  0  0  0
  9 10  1  0  0  0  0
 10 11  2  0  0  0  0
 10 12  1  0  0  0  0
 12 13  1  0  0  0  0
 13 14  2  0  0  0  0
 14 15  1  0  0  0  0
 16 14  1  0  0  0  0
 16 17  2  0  0  0  0
 18 16  1  0  0  0  0
 19 12  1  0  0  0  0
 19 18  1  0  0  0  0
 20 19  2  0  0  0  0
 21 18  1  0  0  0  0
 22 23  1  0  0  0  0
 24 23  1  0  0  0  0
 24 25  1  0  0  0  0
 26 25  2  0  0  0  0
 27 26  1  0  0  0  0
 28 29  1  0  0  0  0
 28 27  2  0  0  0  0
 29 24  2  0  0  0  0
 30 28  1  0  0  0  0
 31 30  1  0  0  0  0
 32 31  2  0  0  0  0
 33 34  2  0  0  0  0
 33 32  1  0  0  0  0
 34 35  1  0  0  0  0
 35 30  2  0  0  0  0
M  END
>  <minimizedAffinity>
-7.70858812

$$$$

 OpenBabel03242509573D

 35 39  0  0  0  0  0  0  0  0999 V2000
   36.9480   32.4380   38.9950 C   0  0  0  0  0  3  0  0  0  0  0  0
   37.4870   33.6640   39.4260 C   0  0  0  0  0  3  0  0  0  0  0  0
   38.3910   33.7460   40.4360 C   0  0  0  0  0  0  0  0  0  0  0  0
   38.7690   32.5980   41.0340 N   0  0  0  0  0  0  0  0  0  0  0  0
   38.2370   31.4060   40.6070 C   0  0  0  0  0  0  0  0  0  0  0  0
   37.3670   31.3260   39.6330 N   0  0  0  0  0  0  0  0  0  0  0  0
   38.7930   30.2680   41.4050 C   0  0  0  0  0  0  0  0  0  0  0  0
   39.7000   30.3200   42.5580 C   0  0  0  0  0  3  0  0  0  0  0  0
   39.8500   28.5530   42.8850 S   0  0  0  0  0  0  0  0  0  0  0  0
   38.7010   28.0500   41.4600 C   0  0  0  0  0  0  0  0  0  0  0  0
   38.3080   29.1840   40.8690 N   0  0  0  0  0  0  0  0  0  0  0  0
   38.4660   26.6350   41.2690 N   0  0  0  0  0  0  0  0  0  0  0  0
   39.1260   25.9220   40.3460 C   0  0  0  0  0  3  0  0  0  0  0  0
   38.8400   24.5760   40.2280 C   0  0  0  0  0  0  0  0  0  0  0  0
   39.5650   23.7720   39.2080 C   0  0  0  0  0  1  0  0  0  0  0  0
   37.8950   23.9820   41.0480 C   0  0  0  0  0  0  0  0  0  0  0  0
   37.6110   22.7590   40.9690 O   0  0  0  0  0  0  0  0  0  0  0  0
   37.2890   24.7820   41.9430 N   0  0  0  0  0  0  0  0  0  0  0  0
   37.5420   26.1110   42.0870 C   0  0  0  0  0  0  0  0  0  0  0  0
   36.8930   26.7210   42.9680 O   0  0  0  0  0  0  0  0  0  0  0  0
   36.5820   24.3580   42.5610 H   0  0  0  0  0  0  0  0  0  0  0  0
   38.9210   35.0370   40.8530 C   0  0  0  0  0  2  0  0  0  0  0  0
   39.8240   35.7320   39.9090 C   0  0  0  0  0  2  0  0  0  0  0  0
   41.1930   35.1560   40.0620 C   0  0  0  0  0  0  0  0  0  0  0  0
   41.8310   34.4630   39.0530 C   0  0  0  0  0  3  0  0  0  0  0  0
   43.0660   33.9010   39.0880 C   0  0  0  0  0  3  0  0  0  0  0  0
   43.7160   34.0720   40.2820 N   0  0  0  0  0  0  0  0  0  0  0  0
   43.1300   34.7460   41.2980 C   0  0  0  0  0  0  0  0  0  0  0  0
   41.8930   35.2900   41.2230 N   0  0  0  0  0  0  0  0  0  0  0  0
   43.8880   34.8810   42.5310 C   0  0  0  0  0  0  0  0  0  0  0  0
   43.9250   36.0990   43.2080 C   0  0  0  0  0  3  0  0  0  0  0  0
   44.6440   36.2200   44.3680 C   0  0  0  0  0  3  0  0  0  0  0  0
   45.3130   35.1870   44.8700 N   0  0  0  0  0  0  0  0  0  0  0  0
   45.2660   34.0080   44.2010 C   0  0  0  0  0  3  0  0  0  0  0  0
   44.5670   33.8380   43.0440 N   0  0  0  0  0  0  0  0  0  0  0  0
  1  2  2  0  0  0  0
  1  6  1  0  0  0  0
  2  3  1  0  0  0  0
  3 22  1  0  0  0  0
  3  4  2  0  0  0  0
  5  4  1  0  0  0  0
  5  7  1  0  0  0  0
  6  5  2  0  0  0  0
  7  8  2  0  0  0  0
  8  9  1  0  0  0  0
 10  9  1  0  0  0  0
 11  7  1  0  0  0  0
 11 10  2  0  0  0  0
 12 10  1  0  0  0  0
 12 19  1  0  0  0  0
 13 12  1  0  0  0  0
 14 13  2  0  0  0  0
 14 16  1  0  0  0  0
 15 14  1  0  0  0  0
 16 18  1  0  0  0  0
 17 16  2  0  0  0  0
 18 19  1  0  0  0  0
 18 21  1  0  0  0  0
 19 20  2  0  0  0  0
 23 24  1  0  0  0  0
 23 22  1  0  0  0  0
 24 29  1  0  0  0  0
 25 26  1  0  0  0  0
 25 24  2  0  0  0  0
 26 27  2  0  0  0  0
 27 28  1  0  0  0  0
 28 30  1  0  0  0  0
 29 28  2  0  0  0  0
 30 35  2  0  0  0  0
 30 31  1  0  0  0  0
 31 32  2  0  0  0  0
 32 33  1  0  0  0  0
 34 33  2  0  0  0  0
 35 34  1  0  0  0  0
M  END
>  <minimizedAffinity>
-7.63465261

$$$$

 OpenBabel03242509573D

 35 39  0  0  0  0  0  0  0  0999 V2000
   45.4620   33.8450   43.7530 C   0  0  0  0  0  3  0  0  0  0  0  0
   45.2250   32.4820   44.0080 C   0  0  0  0  0  3  0  0  0  0  0  0
   44.1750   31.8130   43.4660 C   0  0  0  0  0  0  0  0  0  0  0  0
   43.3420   32.5010   42.6590 N   0  0  0  0  0  0  0  0  0  0  0  0
   43.5820   33.8310   42.4150 C   0  0  0  0  0  0  0  0  0  0  0  0
   44.5940   34.4770   42.9360 N   0  0  0  0  0  0  0  0  0  0  0  0
   42.5400   34.3920   41.4990 C   0  0  0  0  0  0  0  0  0  0  0  0
   42.2120   35.8000   41.2450 C   0  0  0  0  0  3  0  0  0  0  0  0
   40.8810   35.5730   40.0500 S   0  0  0  0  0  0  0  0  0  0  0  0
   40.9820   33.6780   40.0870 C   0  0  0  0  0  0  0  0  0  0  0  0
   41.9560   33.3650   40.9490 N   0  0  0  0  0  0  0  0  0  0  0  0
   40.0590   32.9510   39.2420 N   0  0  0  0  0  0  0  0  0  0  0  0
   38.9270   32.4160   39.7210 C   0  0  0  0  0  3  0  0  0  0  0  0
   38.1030   31.7360   38.8460 C   0  0  0  0  0  0  0  0  0  0  0  0
   36.8420   31.1370   39.3630 C   0  0  0  0  0  1  0  0  0  0  0  0
   38.4410   31.6140   37.5090 C   0  0  0  0  0  0  0  0  0  0  0  0
   37.7120   31.0020   36.6850 O   0  0  0  0  0  0  0  0  0  0  0  0
   39.5960   32.1850   37.1270 N   0  0  0  0  0  0  0  0  0  0  0  0
   40.4350   32.8620   37.9580 C   0  0  0  0  0  0  0  0  0  0  0  0
   41.4760   33.3380   37.4500 O   0  0  0  0  0  0  0  0  0  0  0  0
   39.8650   32.1050   36.1360 H   0  0  0  0  0  0  0  0  0  0  0  0
   43.9630   30.4020   43.7590 C   0  0  0  0  0  2  0  0  0  0  0  0
   43.5320   29.5380   42.6380 C   0  0  0  0  0  2  0  0  0  0  0  0
   42.5150   28.5740   43.1570 C   0  0  0  0  0  0  0  0  0  0  0  0
   42.8140   27.5980   44.0850 C   0  0  0  0  0  3  0  0  0  0  0  0
   41.9700   26.6770   44.6170 C   0  0  0  0  0  3  0  0  0  0  0  0
   40.6860   26.7700   44.1500 N   0  0  0  0  0  0  0  0  0  0  0  0
   40.3480   27.7120   43.2410 C   0  0  0  0  0  0  0  0  0  0  0  0
   41.2210   28.6130   42.7330 N   0  0  0  0  0  0  0  0  0  0  0  0
   38.9640   27.7410   42.7970 C   0  0  0  0  0  0  0  0  0  0  0  0
   37.9260   27.5410   43.7060 C   0  0  0  0  0  3  0  0  0  0  0  0
   36.6240   27.5680   43.2800 C   0  0  0  0  0  3  0  0  0  0  0  0
   36.3250   27.7860   42.0030 N   0  0  0  0  0  0  0  0  0  0  0  0
   37.3460   27.9800   41.1310 C   0  0  0  0  0  3  0  0  0  0  0  0
   38.6560   27.9620   41.5050 N   0  0  0  0  0  0  0  0  0  0  0  0
  1  2  1  0  0  0  0
  3 22  1  0  0  0  0
  3  2  2  0  0  0  0
  4  3  1  0  0  0  0
  5  4  2  0  0  0  0
  5  6  1  0  0  0  0
  6  1  2  0  0  0  0
  7  5  1  0  0  0  0
  8  7  2  0  0  0  0
  9 10  1  0  0  0  0
  9  8  1  0  0  0  0
 10 11  2  0  0  0  0
 11  7  1  0  0  0  0
 12 13  1  0  0  0  0
 12 10  1  0  0  0  0
 14 15  1  0  0  0  0
 14 13  2  0  0  0  0
 16 14  1  0  0  0  0
 17 16  2  0  0  0  0
 18 16  1  0  0  0  0
 18 19  1  0  0  0  0
 19 12  1  0  0  0  0
 20 19  2  0  0  0  0
 21 18  1  0  0  0  0
 23 24  1  0  0  0  0
 23 22  1  0  0  0  0
 24 25  1  0  0  0  0
 25 26  2  0  0  0  0
 27 26  1  0  0  0  0
 28 27  2  0  0  0  0
 29 24  2  0  0  0  0
 29 28  1  0  0  0  0
 30 28  1  0  0  0  0
 30 31  1  0  0  0  0
 32 31  2  0  0  0  0
 33 32  1  0  0  0  0
 34 35  1  0  0  0  0
 34 33  2  0  0  0  0
 35 30  2  0  0  0  0
M  END
>  <minimizedAffinity>
-7.12241602

$$$$

 OpenBabel03242509573D

 35 39  0  0  0  0  0  0  0  0999 V2000
   36.9590   32.4370   39.0980 C   0  0  0  0  0  3  0  0  0  0  0  0
   37.5570   33.6390   39.5140 C   0  0  0  0  0  3  0  0  0  0  0  0
   38.4980   33.6820   40.4930 C   0  0  0  0  0  0  0  0  0  0  0  0
   38.8530   32.5170   41.0730 N   0  0  0  0  0  0  0  0  0  0  0  0
   38.2620   31.3490   40.6590 C   0  0  0  0  0  0  0  0  0  0  0  0
   37.3570   31.3060   39.7160 N   0  0  0  0  0  0  0  0  0  0  0  0
   38.8010   30.1870   41.4330 C   0  0  0  0  0  0  0  0  0  0  0  0
   39.6920   30.2020   42.6010 C   0  0  0  0  0  3  0  0  0  0  0  0
   39.8300   28.4260   42.8800 S   0  0  0  0  0  0  0  0  0  0  0  0
   38.7000   27.9680   41.4250 C   0  0  0  0  0  0  0  0  0  0  0  0
   38.3200   29.1200   40.8600 N   0  0  0  0  0  0  0  0  0  0  0  0
   38.4630   26.5600   41.1920 N   0  0  0  0  0  0  0  0  0  0  0  0
   39.1330   25.8700   40.2580 C   0  0  0  0  0  3  0  0  0  0  0  0
   38.8440   24.5300   40.0990 C   0  0  0  0  0  0  0  0  0  0  0  0
   39.5810   23.7510   39.0670 C   0  0  0  0  0  1  0  0  0  0  0  0
   37.8850   23.9170   40.8880 C   0  0  0  0  0  0  0  0  0  0  0  0
   37.5970   22.6970   40.7700 O   0  0  0  0  0  0  0  0  0  0  0  0
   37.2680   24.6940   41.7950 N   0  0  0  0  0  0  0  0  0  0  0  0
   37.5250   26.0170   41.9810 C   0  0  0  0  0  0  0  0  0  0  0  0
   36.8650   26.6060   42.8690 O   0  0  0  0  0  0  0  0  0  0  0  0
   36.5510   24.2560   42.3910 H   0  0  0  0  0  0  0  0  0  0  0  0
   39.0910   34.9490   40.8970 C   0  0  0  0  0  2  0  0  0  0  0  0
   40.0030   35.6050   39.9330 C   0  0  0  0  0  2  0  0  0  0  0  0
   41.3220   34.9050   39.9880 C   0  0  0  0  0  0  0  0  0  0  0  0
   42.2070   35.0580   41.0360 C   0  0  0  0  0  3  0  0  0  0  0  0
   43.4230   34.4730   41.1820 C   0  0  0  0  0  3  0  0  0  0  0  0
   43.7650   33.6430   40.1470 N   0  0  0  0  0  0  0  0  0  0  0  0
   42.9270   33.4620   39.1010 C   0  0  0  0  0  0  0  0  0  0  0  0
   41.7210   34.0670   38.9920 N   0  0  0  0  0  0  0  0  0  0  0  0
   43.3670   32.5650   38.0450 C   0  0  0  0  0  0  0  0  0  0  0  0
   44.7180   32.4680   37.7170 C   0  0  0  0  0  3  0  0  0  0  0  0
   45.1250   31.6220   36.7190 C   0  0  0  0  0  3  0  0  0  0  0  0
   44.2480   30.8800   36.0500 N   0  0  0  0  0  0  0  0  0  0  0  0
   42.9360   30.9850   36.3810 C   0  0  0  0  0  3  0  0  0  0  0  0
   42.4820   31.8120   37.3640 N   0  0  0  0  0  0  0  0  0  0  0  0
  1  2  2  0  0  0  0
  1  6  1  0  0  0  0
  2  3  1  0  0  0  0
  3 22  1  0  0  0  0
  3  4  2  0  0  0  0
  5  4  1  0  0  0  0
  5  7  1  0  0  0  0
  6  5  2  0  0  0  0
  7  8  2  0  0  0  0
  8  9  1  0  0  0  0
 10  9  1  0  0  0  0
 11 10  2  0  0  0  0
 11  7  1  0  0  0  0
 12 10  1  0  0  0  0
 12 19  1  0  0  0  0
 13 12  1  0  0  0  0
 14 13  2  0  0  0  0
 14 16  1  0  0  0  0
 15 14  1  0  0  0  0
 16 18  1  0  0  0  0
 17 16  2  0  0  0  0
 18 19  1  0  0  0  0
 18 21  1  0  0  0  0
 19 20  2  0  0  0  0
 23 24  1  0  0  0  0
 23 22  1  0  0  0  0
 24 25  1  0  0  0  0
 25 26  2  0  0  0  0
 27 26  1  0  0  0  0
 28 27  2  0  0  0  0
 29 28  1  0  0  0  0
 29 24  2  0  0  0  0
 30 28  1  0  0  0  0
 31 30  1  0  0  0  0
 32 31  2  0  0  0  0
 33 34  2  0  0  0  0
 33 32  1  0  0  0  0
 34 35  1  0  0  0  0
 35 30  2  0  0  0  0
M  END
>  <minimizedAffinity>
-7.04563618

$$$$

 OpenBabel03242509573D

 35 39  0  0  0  0  0  0  0  0999 V2000
   37.9850   31.3930   37.3380 C   0  0  0  0  0  3  0  0  0  0  0  0
   37.3590   31.2080   38.5840 C   0  0  0  0  0  3  0  0  0  0  0  0
   37.9470   31.5670   39.7540 C   0  0  0  0  0  0  0  0  0  0  0  0
   39.1770   32.1170   39.6940 N   0  0  0  0  0  0  0  0  0  0  0  0
   39.7800   32.2940   38.4730 C   0  0  0  0  0  0  0  0  0  0  0  0
   39.2130   31.9490   37.3450 N   0  0  0  0  0  0  0  0  0  0  0  0
   41.1310   32.9160   38.6410 C   0  0  0  0  0  0  0  0  0  0  0  0
   41.9660   33.5720   37.6260 C   0  0  0  0  0  3  0  0  0  0  0  0
   43.3770   34.0130   38.6580 S   0  0  0  0  0  0  0  0  0  0  0  0
   42.6350   33.2660   40.2370 C   0  0  0  0  0  0  0  0  0  0  0  0
   41.4420   32.7630   39.8970 N   0  0  0  0  0  0  0  0  0  0  0  0
   43.4240   33.3600   41.4460 N   0  0  0  0  0  0  0  0  0  0  0  0
   44.1660   32.3370   41.8920 C   0  0  0  0  0  3  0  0  0  0  0  0
   44.8890   32.5090   43.0560 C   0  0  0  0  0  0  0  0  0  0  0  0
   45.7180   31.3830   43.5630 C   0  0  0  0  0  1  0  0  0  0  0  0
   44.8450   33.7120   43.7410 C   0  0  0  0  0  0  0  0  0  0  0  0
   45.4920   33.9030   44.8040 O   0  0  0  0  0  0  0  0  0  0  0  0
   44.0720   34.6760   43.2130 N   0  0  0  0  0  0  0  0  0  0  0  0
   43.3460   34.5440   42.0700 C   0  0  0  0  0  0  0  0  0  0  0  0
   42.6730   35.5360   41.7050 O   0  0  0  0  0  0  0  0  0  0  0  0
   44.0270   35.5780   43.7080 H   0  0  0  0  0  0  0  0  0  0  0  0
   37.2660   31.3550   41.0230 C   0  0  0  0  0  2  0  0  0  0  0  0
   36.2070   30.3220   41.0550 C   0  0  0  0  0  2  0  0  0  0  0  0
   36.7860   29.0760   41.6420 C   0  0  0  0  0  0  0  0  0  0  0  0
   37.4630   29.0600   42.8440 C   0  0  0  0  0  3  0  0  0  0  0  0
   38.0260   27.9910   43.4610 C   0  0  0  0  0  3  0  0  0  0  0  0
   37.8770   26.8140   42.7750 N   0  0  0  0  0  0  0  0  0  0  0  0
   37.2200   26.7840   41.5930 C   0  0  0  0  0  0  0  0  0  0  0  0
   36.6730   27.8760   41.0090 N   0  0  0  0  0  0  0  0  0  0  0  0
   37.1060   25.4950   40.9290 C   0  0  0  0  0  0  0  0  0  0  0  0
   37.6990   24.3610   41.4820 C   0  0  0  0  0  3  0  0  0  0  0  0
   37.5900   23.1500   40.8490 C   0  0  0  0  0  3  0  0  0  0  0  0
   36.9200   23.0320   39.7070 N   0  0  0  0  0  0  0  0  0  0  0  0
   36.3490   24.1450   39.1820 C   0  0  0  0  0  3  0  0  0  0  0  0
   36.4300   25.3710   39.7720 N   0  0  0  0  0  0  0  0  0  0  0  0
  1  6  2  0  0  0  0
  1  2  1  0  0  0  0
  2  3  2  0  0  0  0
  3 22  1  0  0  0  0
  4  3  1  0  0  0  0
  5  7  1  0  0  0  0
  5  4  2  0  0  0  0
  6  5  1  0  0  0  0
  7 11  1  0  0  0  0
  8  7  2  0  0  0  0
  8  9  1  0  0  0  0
  9 10  1  0  0  0  0
 10 12  1  0  0  0  0
 11 10  2  0  0  0  0
 12 13  1  0  0  0  0
 12 19  1  0  0  0  0
 13 14  2  0  0  0  0
 14 15  1  0  0  0  0
 14 16  1  0  0  0  0
 16 17  2  0  0  0  0
 18 21  1  0  0  0  0
 18 16  1  0  0  0  0
 19 18  1  0  0  0  0
 20 19  2  0  0  0  0
 22 23  1  0  0  0  0
 23 24  1  0  0  0  0
 24 25  1  0  0  0  0
 25 26  2  0  0  0  0
 27 26  1  0  0  0  0
 28 27  2  0  0  0  0
 29 28  1  0  0  0  0
 29 24  2  0  0  0  0
 30 31  1  0  0  0  0
 30 28  1  0  0  0  0
 32 31  2  0  0  0  0
 33 32  1  0  0  0  0
 34 33  2  0  0  0  0
 34 35  1  0  0  0  0
 35 30  2  0  0  0  0
M  END
>  <minimizedAffinity>
-6.94834518

$$$$

 OpenBabel03242509573D

 35 39  0  0  0  0  0  0  0  0999 V2000
   37.4610   24.1190   41.3770 C   0  0  0  0  0  3  0  0  0  0  0  0
   37.0230   25.0630   42.3220 C   0  0  0  0  0  3  0  0  0  0  0  0
   37.0070   26.3970   42.0640 C   0  0  0  0  0  0  0  0  0  0  0  0
   37.4330   26.8050   40.8520 N   0  0  0  0  0  0  0  0  0  0  0  0
   37.8590   25.8750   39.9360 C   0  0  0  0  0  0  0  0  0  0  0  0
   37.8740   24.5910   40.1830 N   0  0  0  0  0  0  0  0  0  0  0  0
   38.2850   26.5460   38.6680 C   0  0  0  0  0  0  0  0  0  0  0  0
   38.1570   26.0580   37.2890 C   0  0  0  0  0  3  0  0  0  0  0  0
   38.9040   27.4500   36.4210 S   0  0  0  0  0  0  0  0  0  0  0  0
   39.2550   28.4320   38.0060 C   0  0  0  0  0  0  0  0  0  0  0  0
   38.8120   27.6840   39.0240 N   0  0  0  0  0  0  0  0  0  0  0  0
   39.8950   29.7210   37.8570 N   0  0  0  0  0  0  0  0  0  0  0  0
   41.2120   29.8870   38.0400 C   0  0  0  0  0  3  0  0  0  0  0  0
   41.7420   31.1520   37.8790 C   0  0  0  0  0  0  0  0  0  0  0  0
   43.2030   31.3520   38.0780 C   0  0  0  0  0  1  0  0  0  0  0  0
   40.9280   32.2190   37.5350 C   0  0  0  0  0  0  0  0  0  0  0  0
   41.3790   33.3840   37.3800 O   0  0  0  0  0  0  0  0  0  0  0  0
   39.6210   31.9500   37.3740 N   0  0  0  0  0  0  0  0  0  0  0  0
   39.0620   30.7180   37.5240 C   0  0  0  0  0  0  0  0  0  0  0  0
   37.8260   30.6280   37.3390 O   0  0  0  0  0  0  0  0  0  0  0  0
   39.0000   32.7300   37.1180 H   0  0  0  0  0  0  0  0  0  0  0  0
   36.5490   27.3420   43.0730 C   0  0  0  0  0  2  0  0  0  0  0  0
   37.5670   27.8880   43.9970 C   0  0  0  0  0  2  0  0  0  0  0  0
   38.5820   28.6270   43.1890 C   0  0  0  0  0  0  0  0  0  0  0  0
   39.8810   28.1880   43.0360 C   0  0  0  0  0  3  0  0  0  0  0  0
   40.8770   28.7810   42.3290 C   0  0  0  0  0  3  0  0  0  0  0  0
   40.4990   29.9460   41.7130 N   0  0  0  0  0  0  0  0  0  0  0  0
   39.2360   30.4130   41.8360 C   0  0  0  0  0  0  0  0  0  0  0  0
   38.2710   29.7900   42.5530 N   0  0  0  0  0  0  0  0  0  0  0  0
   38.9170   31.6550   41.1510 C   0  0  0  0  0  0  0  0  0  0  0  0
   37.6540   31.8520   40.5940 C   0  0  0  0  0  3  0  0  0  0  0  0
   37.3610   33.0240   39.9480 C   0  0  0  0  0  3  0  0  0  0  0  0
   38.2670   33.9910   39.8410 N   0  0  0  0  0  0  0  0  0  0  0  0
   39.4910   33.7850   40.3880 C   0  0  0  0  0  3  0  0  0  0  0  0
   39.8310   32.6370   41.0390 N   0  0  0  0  0  0  0  0  0  0  0  0
  1  2  1  0  0  0  0
  3  2  2  0  0  0  0
  3 22  1  0  0  0  0
  4  3  1  0  0  0  0
  5  6  1  0  0  0  0
  5  4  2  0  0  0  0
  6  1  2  0  0  0  0
  7 11  1  0  0  0  0
  7  5  1  0  0  0  0
  8  7  2  0  0  0  0
  9  8  1  0  0  0  0
  9 10  1  0  0  0  0
 10 11  2  0  0  0  0
 12 10  1  0  0  0  0
 12 13  1  0  0  0  0
 14 13  2  0  0  0  0
 14 15  1  0  0  0  0
 16 14  1  0  0  0  0
 17 16  2  0  0  0  0
 18 19  1  0  0  0  0
 18 16  1  0  0  0  0
 19 12  1  0  0  0  0
 20 19  2  0  0  0  0
 21 18  1  0  0  0  0
 22 23  1  0  0  0  0
 24 23  1  0  0  0  0
 25 24  1  0  0  0  0
 26 25  2  0  0  0  0
 27 28  2  0  0  0  0
 27 26  1  0  0  0  0
 28 29  1  0  0  0  0
 29 24  2  0  0  0  0
 30 28  1  0  0  0  0
 31 30  2  0  0  0  0
 32 31  1  0  0  0  0
 33 32  2  0  0  0  0
 33 34  1  0  0  0  0
 34 35  2  0  0  0  0
 35 30  1  0  0  0  0
M  END
>  <minimizedAffinity>
-6.89426756

$$$$

 OpenBabel03242509573D

 35 39  0  0  0  0  0  0  0  0999 V2000
   36.7660   23.5700   40.6020 C   0  0  0  0  0  3  0  0  0  0  0  0
   37.9410   23.7300   41.3590 C   0  0  0  0  0  3  0  0  0  0  0  0
   38.6070   24.9120   41.4270 C   0  0  0  0  0  0  0  0  0  0  0  0
   38.1060   25.9540   40.7340 N   0  0  0  0  0  0  0  0  0  0  0  0
   36.9590   25.7880   39.9980 C   0  0  0  0  0  0  0  0  0  0  0  0
   36.3160   24.6510   39.9320 N   0  0  0  0  0  0  0  0  0  0  0  0
   36.5860   27.0660   39.3140 C   0  0  0  0  0  0  0  0  0  0  0  0
   35.6140   27.2730   38.2330 C   0  0  0  0  0  3  0  0  0  0  0  0
   35.7940   29.0550   38.0230 S   0  0  0  0  0  0  0  0  0  0  0  0
   37.1060   29.2250   39.3840 C   0  0  0  0  0  0  0  0  0  0  0  0
   37.3080   27.9960   39.8740 N   0  0  0  0  0  0  0  0  0  0  0  0
   37.6250   30.5510   39.6390 N   0  0  0  0  0  0  0  0  0  0  0  0
   38.7950   30.9670   39.1320 C   0  0  0  0  0  3  0  0  0  0  0  0
   39.2190   32.2470   39.4260 C   0  0  0  0  0  0  0  0  0  0  0  0
   40.5150   32.7230   38.8710 C   0  0  0  0  0  1  0  0  0  0  0  0
   38.4490   33.0790   40.2230 C   0  0  0  0  0  0  0  0  0  0  0  0
   38.8050   34.2520   40.5090 O   0  0  0  0  0  0  0  0  0  0  0  0
   37.2930   32.5700   40.6820 N   0  0  0  0  0  0  0  0  0  0  0  0
   36.8430   31.3140   40.4150 C   0  0  0  0  0  0  0  0  0  0  0  0
   35.7430   30.9850   40.9170 O   0  0  0  0  0  0  0  0  0  0  0  0
   36.7070   33.1730   41.2760 H   0  0  0  0  0  0  0  0  0  0  0  0
   39.8230   25.0330   42.2200 C   0  0  0  0  0  2  0  0  0  0  0  0
   39.7110   25.7230   43.5240 C   0  0  0  0  0  2  0  0  0  0  0  0
   39.5060   27.1800   43.2650 C   0  0  0  0  0  0  0  0  0  0  0  0
   38.3180   27.8280   43.5340 C   0  0  0  0  0  3  0  0  0  0  0  0
   38.0280   29.1390   43.3360 C   0  0  0  0  0  3  0  0  0  0  0  0
   39.0680   29.8610   42.8110 N   0  0  0  0  0  0  0  0  0  0  0  0
   40.2500   29.2670   42.5330 C   0  0  0  0  0  0  0  0  0  0  0  0
   40.4990   27.9530   42.7440 N   0  0  0  0  0  0  0  0  0  0  0  0
   41.3010   30.1050   41.9780 C   0  0  0  0  0  0  0  0  0  0  0  0
   41.5670   31.3590   42.5240 C   0  0  0  0  0  3  0  0  0  0  0  0
   42.5570   32.1450   41.9940 C   0  0  0  0  0  3  0  0  0  0  0  0
   43.2800   31.7290   40.9580 N   0  0  0  0  0  0  0  0  0  0  0  0
   43.0090   30.5060   40.4380 C   0  0  0  0  0  3  0  0  0  0  0  0
   42.0350   29.6890   40.9290 N   0  0  0  0  0  0  0  0  0  0  0  0
  1  2  1  0  0  0  0
  2  3  2  0  0  0  0
  3 22  1  0  0  0  0
  4  3  1  0  0  0  0
  5  4  2  0  0  0  0
  6  5  1  0  0  0  0
  6  1  2  0  0  0  0
  7 11  1  0  0  0  0
  7  5  1  0  0  0  0
  8  7  2  0  0  0  0
  9  8  1  0  0  0  0
  9 10  1  0  0  0  0
 10 12  1  0  0  0  0
 10 11  2  0  0  0  0
 12 19  1  0  0  0  0
 13 14  2  0  0  0  0
 13 12  1  0  0  0  0
 14 16  1  0  0  0  0
 15 14  1  0  0  0  0
 16 17  2  0  0  0  0
 16 18  1  0  0  0  0
 18 21  1  0  0  0  0
 19 18  1  0  0  0  0
 19 20  2  0  0  0  0
 22 23  1  0  0  0  0
 24 23  1  0  0  0  0
 24 25  1  0  0  0  0
 26 25  2  0  0  0  0
 27 26  1  0  0  0  0
 28 29  1  0  0  0  0
 28 27  2  0  0  0  0
 29 24  2  0  0  0  0
 30 31  1  0  0  0  0
 30 28  1  0  0  0  0
 32 31  2  0  0  0  0
 33 32  1  0  0  0  0
 34 35  1  0  0  0  0
 34 33  2  0  0  0  0
 35 30  2  0  0  0  0
M  END
>  <minimizedAffinity>
-6.83622074

$$$$

 OpenBabel03242509573D

 35 39  0  0  0  0  0  0  0  0999 V2000
   40.2710   36.0790   40.3770 C   0  0  0  0  0  3  0  0  0  0  0  0
   39.0150   35.4700   40.2140 C   0  0  0  0  0  3  0  0  0  0  0  0
   38.8540   34.1210   40.2220 C   0  0  0  0  0  0  0  0  0  0  0  0
   39.9540   33.3600   40.3910 N   0  0  0  0  0  0  0  0  0  0  0  0
   41.1770   33.9640   40.5490 C   0  0  0  0  0  0  0  0  0  0  0  0
   41.3330   35.2630   40.5420 N   0  0  0  0  0  0  0  0  0  0  0  0
   42.2510   32.9370   40.7190 C   0  0  0  0  0  0  0  0  0  0  0  0
   43.5290   32.8250   40.0050 C   0  0  0  0  0  3  0  0  0  0  0  0
   44.1800   31.3490   40.8100 S   0  0  0  0  0  0  0  0  0  0  0  0
   42.6710   31.1300   41.9420 C   0  0  0  0  0  0  0  0  0  0  0  0
   41.8290   32.1280   41.6500 N   0  0  0  0  0  0  0  0  0  0  0  0
   42.6880   30.0080   42.8550 N   0  0  0  0  0  0  0  0  0  0  0  0
   42.0450   28.8630   42.5870 C   0  0  0  0  0  3  0  0  0  0  0  0
   42.1100   27.8420   43.5140 C   0  0  0  0  0  0  0  0  0  0  0  0
   41.4020   26.5640   43.2300 C   0  0  0  0  0  1  0  0  0  0  0  0
   42.8250   28.0010   44.6890 C   0  0  0  0  0  0  0  0  0  0  0  0
   42.9060   27.0910   45.5540 O   0  0  0  0  0  0  0  0  0  0  0  0
   43.4350   29.1860   44.8650 N   0  0  0  0  0  0  0  0  0  0  0  0
   43.3930   30.2160   43.9760 C   0  0  0  0  0  0  0  0  0  0  0  0
   44.0150   31.2590   44.2850 O   0  0  0  0  0  0  0  0  0  0  0  0
   43.9720   29.3240   45.7330 H   0  0  0  0  0  0  0  0  0  0  0  0
   37.5340   33.5310   40.0460 C   0  0  0  0  0  2  0  0  0  0  0  0
   37.2060   33.0010   38.7040 C   0  0  0  0  0  2  0  0  0  0  0  0
   37.2420   31.5090   38.7680 C   0  0  0  0  0  0  0  0  0  0  0  0
   37.1900   30.7100   37.6440 C   0  0  0  0  0  3  0  0  0  0  0  0
   37.2150   29.3540   37.5930 C   0  0  0  0  0  3  0  0  0  0  0  0
   37.3060   28.7560   38.8220 N   0  0  0  0  0  0  0  0  0  0  0  0
   37.3610   29.5000   39.9500 C   0  0  0  0  0  0  0  0  0  0  0  0
   37.3310   30.8540   39.9590 N   0  0  0  0  0  0  0  0  0  0  0  0
   37.4550   28.7870   41.2130 C   0  0  0  0  0  0  0  0  0  0  0  0
   38.0760   29.3770   42.3130 C   0  0  0  0  0  3  0  0  0  0  0  0
   38.1640   28.6990   43.5000 C   0  0  0  0  0  3  0  0  0  0  0  0
   37.6620   27.4740   43.6280 N   0  0  0  0  0  0  0  0  0  0  0  0
   37.0600   26.9140   42.5490 C   0  0  0  0  0  3  0  0  0  0  0  0
   36.9480   27.5470   41.3480 N   0  0  0  0  0  0  0  0  0  0  0  0
  1  6  1  0  0  0  0
  2  3  1  0  0  0  0
  2  1  2  0  0  0  0
  3  4  2  0  0  0  0
  4  5  1  0  0  0  0
  5  7  1  0  0  0  0
  6  5  2  0  0  0  0
  7 11  1  0  0  0  0
  8  7  2  0  0  0  0
  8  9  1  0  0  0  0
  9 10  1  0  0  0  0
 10 12  1  0  0  0  0
 11 10  2  0  0  0  0
 12 19  1  0  0  0  0
 13 12  1  0  0  0  0
 13 14  2  0  0  0  0
 14 16  1  0  0  0  0
 15 14  1  0  0  0  0
 16 18  1  0  0  0  0
 16 17  2  0  0  0  0
 18 21  1  0  0  0  0
 19 20  2  0  0  0  0
 19 18  1  0  0  0  0
 22  3  1  0  0  0  0
 23 24  1  0  0  0  0
 23 22  1  0  0  0  0
 24 29  1  0  0  0  0
 25 24  2  0  0  0  0
 26 25  1  0  0  0  0
 26 27  2  0  0  0  0
 27 28  1  0  0  0  0
 28 29  2  0  0  0  0
 28 30  1  0  0  0  0
 30 35  2  0  0  0  0
 30 31  1  0  0  0  0
 31 32  2  0  0  0  0
 32 33  1  0  0  0  0
 34 33  2  0  0  0  0
 35 34  1  0  0  0  0
M  END
>  <minimizedAffinity>
-6.74736929

$$$$
