
     RDKit          3D

 42 46  0  0  0  0  0  0  0  0999 V2000
   44.3970   36.1420   44.8240 C   0  0  0  0  0  0  0  0  0  0  0  0
   45.0300   36.0830   43.5880 C   0  0  0  0  0  0  0  0  0  0  0  0
   45.8880   35.0700   43.2400 C   0  0  0  0  0  0  0  0  0  0  0  0
   46.0240   34.1760   44.2340 N   0  0  0  0  0  0  0  0  0  0  0  0
   45.4510   34.1700   45.4400 C   0  0  0  0  0  0  0  0  0  0  0  0
   44.6380   35.1790   45.6970 N   0  0  0  0  0  0  0  0  0  0  0  0
   46.6280   34.8290   42.0310 C   0  0  0  0  0  0  0  0  0  0  0  0
   47.9180   35.3310   41.9520 C   0  0  0  0  0  0  0  0  0  0  0  0
   48.7380   35.1710   40.8580 C   0  0  0  0  0  0  0  0  0  0  0  0
   48.2770   34.4820   39.7740 C   0  0  0  0  0  0  0  0  0  0  0  0
   47.0050   33.9540   39.7800 C   0  0  0  0  0  0  0  0  0  0  0  0
   46.5380   33.2630   38.6850 C   0  0  0  0  0  0  0  0  0  0  0  0
   45.2680   32.7250   38.6550 C   0  0  0  0  0  0  0  0  0  0  0  0
   44.4960   32.9290   39.8000 C   0  0  0  0  0  0  0  0  0  0  0  0
   44.9940   33.6150   40.8550 C   0  0  0  0  0  0  0  0  0  0  0  0
   46.2470   34.1510   40.8970 C   0  0  0  0  0  0  0  0  0  0  0  0
   45.8440   33.0190   46.2670 C   0  0  0  0  0  0  0  0  0  0  0  0
   45.4150   32.8940   47.5720 C   0  0  0  0  0  0  0  0  0  0  0  0
   45.7370   31.8620   48.3920 C   0  0  0  0  0  0  0  0  0  0  0  0
   46.5320   30.8530   47.9540 C   0  0  0  0  0  0  0  0  0  0  0  0
   46.9920   30.9240   46.6580 C   0  0  0  0  0  0  0  0  0  0  0  0
   47.8010   29.9040   46.2000 C   0  0  0  0  0  0  0  0  0  0  0  0
   48.3080   29.9040   44.8960 C   0  0  0  0  0  0  0  0  0  0  0  0
   47.9410   30.9940   44.0980 C   0  0  0  0  0  0  0  0  0  0  0  0
   47.1350   31.9770   44.6020 C   0  0  0  0  0  0  0  0  0  0  0  0
   46.6430   31.9850   45.8600 C   0  0  0  0  0  0  0  0  0  0  0  0
   43.7135   36.9682   45.0693 H   0  0  0  0  0  0  0  0  0  0  0  0
   44.8350   36.8822   42.8577 H   0  0  0  0  0  0  0  0  0  0  0  0
   48.3093   35.8902   42.8146 H   0  0  0  0  0  0  0  0  0  0  0  0
   49.7535   35.5938   40.8575 H   0  0  0  0  0  0  0  0  0  0  0  0
   48.9227   34.3481   38.8936 H   0  0  0  0  0  0  0  0  0  0  0  0
   47.1943   33.1365   37.8114 H   0  0  0  0  0  0  0  0  0  0  0  0
   44.8879   32.1706   37.7843 H   0  0  0  0  0  0  0  0  0  0  0  0
   43.4726   32.5282   39.8452 H   0  0  0  0  0  0  0  0  0  0  0  0
   44.3468   33.7486   41.7344 H   0  0  0  0  0  0  0  0  0  0  0  0
   44.7670   33.6858   47.9759 H   0  0  0  0  0  0  0  0  0  0  0  0
   45.3500   31.8430   49.4215 H   0  0  0  0  0  0  0  0  0  0  0  0
   46.7987   30.0107   48.6092 H   0  0  0  0  0  0  0  0  0  0  0  0
   48.0527   29.0727   46.8750 H   0  0  0  0  0  0  0  0  0  0  0  0
   48.9550   29.0973   44.5210 H   0  0  0  0  0  0  0  0  0  0  0  0
   48.3025   31.0601   43.0612 H   0  0  0  0  0  0  0  0  0  0  0  0
   46.8703   32.8151   43.9405 H   0  0  0  0  0  0  0  0  0  0  0  0
  1  6  2  0
  2  1  1  0
  3  2  2  0
  3  4  1  0
  4  5  2  0
  5  6  1  0
  5 17  1  0
  7  3  1  0
  8  7  2  0
  9  8  1  0
 10 11  1  0
 10  9  2  0
 11 16  2  0
 12 11  1  0
 13 12  2  0
 13 14  1  0
 14 15  2  0
 15 16  1  0
 16  7  1  0
 17 18  2  0
 18 19  1  0
 20 19  2  0
 21 20  1  0
 22 21  2  0
 23 22  1  0
 24 25  1  0
 24 23  2  0
 25 26  2  0
 26 17  1  0
 26 21  1  0
  1 27  1  0
  2 28  1  0
  8 29  1  0
  9 30  1  0
 10 31  1  0
 12 32  1  0
 13 33  1  0
 14 34  1  0
 15 35  1  0
 18 36  1  0
 19 37  1  0
 20 38  1  0
 22 39  1  0
 23 40  1  0
 24 41  1  0
 25 42  1  0
M  END
>  <Score>  (1) 
-7.78205

$$$$
