
     RDKit          3D

 46 49  0  0  0  0  0  0  0  0999 V2000
   44.7650   35.8090   44.9110 C   0  0  0  0  0  0  0  0  0  0  0  0
   43.9700   35.8850   43.7430 C   0  0  0  0  0  0  0  0  0  0  0  0
   44.0670   34.8430   42.8290 C   0  0  0  0  0  0  0  0  0  0  0  0
   44.8900   33.8030   43.0550 N   0  0  0  0  0  0  0  0  0  0  0  0
   45.6530   33.7550   44.2030 C   0  0  0  0  0  0  0  0  0  0  0  0
   45.5790   34.7520   45.1080 N   0  0  0  0  0  0  0  0  0  0  0  0
   46.5360   32.6240   44.4300 C   0  0  0  0  0  0  0  0  0  0  0  0
   47.4010   32.0130   43.5190 C   0  0  0  0  0  0  0  0  0  0  0  0
   48.0540   30.9880   44.1150 N   0  0  0  0  0  0  0  0  0  0  0  0
   47.5930   30.9630   45.3980 C   0  0  0  0  0  0  0  0  0  0  0  0
   46.6840   31.9410   45.5890 N   0  0  0  0  0  0  0  0  0  0  0  0
   48.0580   30.0050   46.3420 N   0  0  0  0  0  0  0  0  0  0  0  0
   49.1060   29.2320   45.9740 C   0  0  0  0  0  0  0  0  0  0  0  0
   49.6120   28.2730   46.8510 C   0  0  0  0  0  0  0  0  0  0  0  0
   50.7750   27.4010   46.4680 C   0  0  0  0  0  0  0  0  0  0  0  0
   49.0340   28.1190   48.0970 C   0  0  0  0  0  0  0  0  0  0  0  0
   49.5180   27.2480   48.8530 O   0  0  0  0  0  0  0  0  0  0  0  0
   47.9890   28.9060   48.4330 N   0  0  0  0  0  0  0  0  0  0  0  0
   47.5230   29.8240   47.5640 C   0  0  0  0  0  0  0  0  0  0  0  0
   46.5490   30.5410   47.9050 O   0  0  0  0  0  0  0  0  0  0  0  0
   45.9720   32.2360   46.8100 C   0  0  0  0  0  0  0  0  0  0  0  0
   45.2590   31.1300   47.3090 F   0  0  0  0  0  0  0  0  0  0  0  0
   45.0630   33.2850   46.6530 F   0  0  0  0  0  0  0  0  0  0  0  0
   46.8570   32.5580   47.8240 F   0  0  0  0  0  0  0  0  0  0  0  0
   43.2590   34.9410   41.6630 N   0  0  0  0  0  0  0  0  0  0  0  0
   41.9560   35.2840   41.6050 C   0  0  0  0  0  0  0  0  0  0  0  0
   41.3180   35.3310   40.3790 C   0  0  0  0  0  0  0  0  0  0  0  0
   41.9880   35.0320   39.2070 C   0  0  0  0  0  0  0  0  0  0  0  0
   41.3870   35.0820   38.0980 O   0  0  0  0  0  0  0  0  0  0  0  0
   43.2750   34.6990   39.3110 N   0  0  0  0  0  0  0  0  0  0  0  0
   43.8970   34.6540   40.5130 C   0  0  0  0  0  0  0  0  0  0  0  0
   45.1260   34.3180   40.4470 O   0  0  0  0  0  0  0  0  0  0  0  0
   39.8960   35.7060   40.3290 C   0  0  0  0  0  0  0  0  0  0  0  0
   44.7190   36.6136   45.6597 H   0  0  0  0  0  0  0  0  0  0  0  0
   43.2992   36.7384   43.5649 H   0  0  0  0  0  0  0  0  0  0  0  0
   47.5322   32.3199   42.4709 H   0  0  0  0  0  0  0  0  0  0  0  0
   49.5600   29.3604   44.9803 H   0  0  0  0  0  0  0  0  0  0  0  0
   51.2701   27.0298   47.3774 H   0  0  0  0  0  0  0  0  0  0  0  0
   50.4142   26.5490   45.8731 H   0  0  0  0  0  0  0  0  0  0  0  0
   51.4918   27.9861   45.8731 H   0  0  0  0  0  0  0  0  0  0  0  0
   47.5465   28.8039   49.3575 H   0  0  0  0  0  0  0  0  0  0  0  0
   41.4048   35.5246   42.5260 H   0  0  0  0  0  0  0  0  0  0  0  0
   43.8072   34.4712   38.4591 H   0  0  0  0  0  0  0  0  0  0  0  0
   39.5076   35.8084   41.3530 H   0  0  0  0  0  0  0  0  0  0  0  0
   39.7877   36.6634   39.7983 H   0  0  0  0  0  0  0  0  0  0  0  0
   39.3297   34.9265   39.7983 H   0  0  0  0  0  0  0  0  0  0  0  0
  1  6  2  0
  2  1  1  0
  3  4  1  0
  3  2  2  0
  4  5  2  0
  5  7  1  0
  5  6  1  0
  7 11  1  0
  8  9  1  0
  8  7  2  0
  9 10  2  0
 10 11  1  0
 10 12  1  0
 11 21  1  0
 12 19  1  0
 13 12  1  0
 13 14  2  0
 14 16  1  0
 15 14  1  0
 16 18  1  0
 16 17  2  0
 19 20  2  0
 19 18  1  0
 21 22  1  0
 21 24  1  0
 23 21  1  0
 25  3  1  0
 26 25  1  0
 27 26  2  0
 28 30  1  0
 28 27  1  0
 29 28  2  0
 30 31  1  0
 31 25  1  0
 32 31  2  0
 33 27  1  0
  1 34  1  0
  2 35  1  0
  8 36  1  0
 13 37  1  0
 15 38  1  0
 15 39  1  0
 15 40  1  0
 18 41  1  0
 26 42  1  0
 30 43  1  0
 33 44  1  0
 33 45  1  0
 33 46  1  0
M  END
>  <Score>  (1) 
-7.18476

$$$$
