
     RDKit          3D

 36 39  0  0  0  0  0  0  0  0999 V2000
   45.3910   33.8570   41.1540 C   0  0  0  0  0  0  0  0  0  0  0  0
   45.1240   33.5340   42.4910 C   0  0  0  0  0  0  0  0  0  0  0  0
   46.1120   33.8670   43.4260 C   0  0  0  0  0  0  0  0  0  0  0  0
   47.2470   34.4730   42.9650 N   0  0  0  0  0  0  0  0  0  0  0  0
   47.4700   34.7690   41.6710 C   0  0  0  0  0  0  0  0  0  0  0  0
   46.5290   34.4540   40.7680 N   0  0  0  0  0  0  0  0  0  0  0  0
   45.9410   33.5820   44.8090 N   0  0  0  0  0  0  0  0  0  0  0  0
   45.1310   34.2740   45.6290 C   0  0  0  0  0  0  0  0  0  0  0  0
   44.9790   33.9820   46.9690 C   0  0  0  0  0  0  0  0  0  0  0  0
   45.7010   32.9130   47.5130 C   0  0  0  0  0  0  0  0  0  0  0  0
   45.5040   32.6620   48.8910 N   0  0  0  0  0  0  0  0  0  0  0  0
   46.5160   32.2150   46.6940 N   0  0  0  0  0  0  0  0  0  0  0  0
   46.5940   32.5820   45.3910 C   0  0  0  0  0  0  0  0  0  0  0  0
   47.4020   31.8320   44.7460 O   0  0  0  0  0  0  0  0  0  0  0  0
   48.7250   35.4270   41.2450 C   0  0  0  0  0  0  0  0  0  0  0  0
   48.7160   35.5450   39.8570 F   0  0  0  0  0  0  0  0  0  0  0  0
   49.8040   34.6110   41.5600 F   0  0  0  0  0  0  0  0  0  0  0  0
   48.9440   36.6430   41.8540 F   0  0  0  0  0  0  0  0  0  0  0  0
   44.1520   33.4540   39.9020 S   0  0  0  0  0  0  0  0  0  0  0  0
   39.8510   32.8320   42.2310 N   0  0  0  0  0  0  0  0  0  0  0  0
   40.5750   31.7060   42.1920 C   0  0  0  0  0  0  0  0  0  0  0  0
   41.7290   31.9970   41.5320 N   0  0  0  0  0  0  0  0  0  0  0  0
   41.6590   33.2770   41.1980 C   0  0  0  0  0  0  0  0  0  0  0  0
   42.5750   34.0450   40.5200 C   0  0  0  0  0  0  0  0  0  0  0  0
   42.3400   35.3530   40.2620 N   0  0  0  0  0  0  0  0  0  0  0  0
   41.1640   35.8670   40.7020 C   0  0  0  0  0  0  0  0  0  0  0  0
   40.2560   35.1230   41.3700 N   0  0  0  0  0  0  0  0  0  0  0  0
   40.4960   33.8300   41.6220 C   0  0  0  0  0  0  0  0  0  0  0  0
   44.1861   33.0438   42.7910 H   0  0  0  0  0  0  0  0  0  0  0  0
   44.5603   35.1160   45.2103 H   0  0  0  0  0  0  0  0  0  0  0  0
   44.3025   34.5786   47.5987 H   0  0  0  0  0  0  0  0  0  0  0  0
   46.0064   31.8893   49.3507 H   0  0  0  0  0  0  0  0  0  0  0  0
   44.8581   33.2520   49.4348 H   0  0  0  0  0  0  0  0  0  0  0  0
   38.9234   32.9166   42.6707 H   0  0  0  0  0  0  0  0  0  0  0  0
   40.2907   30.7306   42.6136 H   0  0  0  0  0  0  0  0  0  0  0  0
   40.9423   36.9268   40.5079 H   0  0  0  0  0  0  0  0  0  0  0  0
  1  2  2  0
  2  3  1  0
  3  7  1  0
  4  3  2  0
  5  4  1  0
  6  1  1  0
  6  5  2  0
  7 13  1  0
  7  8  1  0
  8  9  2  0
  9 10  1  0
 10 11  1  0
 12 10  2  0
 13 12  1  0
 14 13  2  0
 15 17  1  0
 15  5  1  0
 15 18  1  0
 16 15  1  0
 19 24  1  0
 19  1  1  0
 21 20  1  0
 22 21  2  0
 23 22  1  0
 23 28  2  0
 24 23  1  0
 25 24  2  0
 25 26  1  0
 26 27  2  0
 27 28  1  0
 28 20  1  0
  2 29  1  0
  8 30  1  0
  9 31  1  0
 11 32  1  0
 11 33  1  0
 20 34  1  0
 21 35  1  0
 26 36  1  0
M  END
>  <Score>  (1) 
-7.62423

$$$$
