
     RDKit          3D

 41 45  0  0  0  0  0  0  0  0999 V2000
   46.0790   33.1840   38.8560 C   0  0  0  0  0  0  0  0  0  0  0  0
   46.8220   32.6070   37.8620 C   0  0  0  0  0  0  0  0  0  0  0  0
   46.2100   31.9120   36.8310 C   0  0  0  0  0  0  0  0  0  0  0  0
   44.8300   31.8650   36.9130 C   0  0  0  0  0  0  0  0  0  0  0  0
   44.0460   32.4400   37.9080 C   0  0  0  0  0  0  0  0  0  0  0  0
   44.7280   33.1030   38.8780 N   0  0  0  0  0  0  0  0  0  0  0  0
   42.6330   32.3290   37.8900 N   0  0  0  0  0  0  0  0  0  0  0  0
   41.8850   31.2970   37.4250 C   0  0  0  0  0  0  0  0  0  0  0  0
   40.5800   31.5840   37.5920 N   0  0  0  0  0  0  0  0  0  0  0  0
   40.4430   32.7840   38.1560 C   0  0  0  0  0  0  0  0  0  0  0  0
   39.3290   33.5120   38.5240 C   0  0  0  0  0  0  0  0  0  0  0  0
   39.5480   34.7180   39.0830 N   0  0  0  0  0  0  0  0  0  0  0  0
   40.7980   35.1720   39.2640 C   0  0  0  0  0  0  0  0  0  0  0  0
   41.9040   34.4630   38.9060 N   0  0  0  0  0  0  0  0  0  0  0  0
   41.7390   33.2350   38.3360 C   0  0  0  0  0  0  0  0  0  0  0  0
   46.7700   34.7400   42.1240 C   0  0  0  0  0  0  0  0  0  0  0  0
   48.0240   35.2810   42.0140 C   0  0  0  0  0  0  0  0  0  0  0  0
   48.6290   35.1010   40.7890 C   0  0  0  0  0  0  0  0  0  0  0  0
   48.0080   34.4170   39.7390 C   0  0  0  0  0  0  0  0  0  0  0  0
   46.7480   33.8990   39.9210 C   0  0  0  0  0  0  0  0  0  0  0  0
   46.1760   34.0860   41.1220 N   0  0  0  0  0  0  0  0  0  0  0  0
   44.4970   35.9790   44.8050 C   0  0  0  0  0  0  0  0  0  0  0  0
   45.1740   35.9160   43.5690 C   0  0  0  0  0  0  0  0  0  0  0  0
   46.0380   34.8680   43.3740 C   0  0  0  0  0  0  0  0  0  0  0  0
   46.1930   33.9460   44.3870 N   0  0  0  0  0  0  0  0  0  0  0  0
   45.5250   34.0430   45.5560 C   0  0  0  0  0  0  0  0  0  0  0  0
   44.6810   35.0520   45.7670 N   0  0  0  0  0  0  0  0  0  0  0  0
   38.0080   33.0110   38.3220 N   0  0  0  0  0  0  0  0  0  0  0  0
   47.9182   32.6960   37.8817 H   0  0  0  0  0  0  0  0  0  0  0  0
   46.7748   31.4372   36.0152 H   0  0  0  0  0  0  0  0  0  0  0  0
   44.3023   31.3212   36.1156 H   0  0  0  0  0  0  0  0  0  0  0  0
   42.2819   30.3719   36.9816 H   0  0  0  0  0  0  0  0  0  0  0  0
   40.9353   36.1624   39.7226 H   0  0  0  0  0  0  0  0  0  0  0  0
   48.5110   35.8184   42.8410 H   0  0  0  0  0  0  0  0  0  0  0  0
   49.6377   35.5105   40.6312 H   0  0  0  0  0  0  0  0  0  0  0  0
   48.5239   34.2946   38.7752 H   0  0  0  0  0  0  0  0  0  0  0  0
   43.7986   36.8085   44.9895 H   0  0  0  0  0  0  0  0  0  0  0  0
   45.0154   36.6777   42.7914 H   0  0  0  0  0  0  0  0  0  0  0  0
   45.6783   33.2851   46.3384 H   0  0  0  0  0  0  0  0  0  0  0  0
   37.1943   33.5750   38.6059 H   0  0  0  0  0  0  0  0  0  0  0  0
   37.8684   32.0854   37.8923 H   0  0  0  0  0  0  0  0  0  0  0  0
  1  6  1  0
  1 20  1  0
  2  1  2  0
  3  4  2  0
  3  2  1  0
  4  5  1  0
  5  6  2  0
  7  5  1  0
  7 15  1  0
  8  9  2  0
  8  7  1  0
  9 10  1  0
 10 15  2  0
 10 11  1  0
 11 12  2  0
 12 13  1  0
 14 13  2  0
 15 14  1  0
 16 24  1  0
 17 16  2  0
 18 17  1  0
 19 20  1  0
 19 18  2  0
 20 21  2  0
 21 16  1  0
 22 27  2  0
 23 22  1  0
 24 23  2  0
 24 25  1  0
 25 26  2  0
 26 27  1  0
 28 11  1  0
  2 29  1  0
  3 30  1  0
  4 31  1  0
  8 32  1  0
 13 33  1  0
 17 34  1  0
 18 35  1  0
 19 36  1  0
 22 37  1  0
 23 38  1  0
 26 39  1  0
 28 40  1  0
 28 41  1  0
M  END
>  <Score>  (1) 
-7.50607

$$$$
