
     RDKit          3D

 44 48  0  0  0  0  0  0  0  0999 V2000
   46.1520   33.2970   38.6940 C   0  0  0  0  0  0  0  0  0  0  0  0
   46.8660   32.9270   37.5880 C   0  0  0  0  0  0  0  0  0  0  0  0
   46.2130   32.2780   36.5410 C   0  0  0  0  0  0  0  0  0  0  0  0
   44.8670   32.0640   36.7290 C   0  0  0  0  0  0  0  0  0  0  0  0
   44.1280   32.4150   37.8160 C   0  0  0  0  0  0  0  0  0  0  0  0
   44.8460   33.0490   38.7980 N   0  0  0  0  0  0  0  0  0  0  0  0
   42.7250   32.3060   38.0920 C   0  0  0  0  0  0  0  0  0  0  0  0
   42.1240   31.0520   37.9130 C   0  0  0  0  0  0  0  0  0  0  0  0
   40.8070   30.7480   38.1100 C   0  0  0  0  0  0  0  0  0  0  0  0
   39.9730   31.7560   38.5250 C   0  0  0  0  0  0  0  0  0  0  0  0
   40.4740   33.0230   38.7250 C   0  0  0  0  0  0  0  0  0  0  0  0
   39.6310   34.0440   39.1070 C   0  0  0  0  0  0  0  0  0  0  0  0
   40.0870   35.3540   39.2840 C   0  0  0  0  0  0  0  0  0  0  0  0
   41.4410   35.5510   39.0480 C   0  0  0  0  0  0  0  0  0  0  0  0
   42.2350   34.5150   38.6740 C   0  0  0  0  0  0  0  0  0  0  0  0
   41.8090   33.2300   38.5000 C   0  0  0  0  0  0  0  0  0  0  0  0
   46.8220   34.7430   42.0200 C   0  0  0  0  0  0  0  0  0  0  0  0
   48.0900   35.2770   41.9440 C   0  0  0  0  0  0  0  0  0  0  0  0
   48.7080   35.1280   40.7190 C   0  0  0  0  0  0  0  0  0  0  0  0
   48.0950   34.4830   39.6410 C   0  0  0  0  0  0  0  0  0  0  0  0
   46.8280   33.9760   39.7930 C   0  0  0  0  0  0  0  0  0  0  0  0
   46.2320   34.1280   40.9970 N   0  0  0  0  0  0  0  0  0  0  0  0
   44.4990   35.9380   44.6830 C   0  0  0  0  0  0  0  0  0  0  0  0
   45.1990   35.8710   43.4680 C   0  0  0  0  0  0  0  0  0  0  0  0
   46.0820   34.8440   43.2640 C   0  0  0  0  0  0  0  0  0  0  0  0
   46.2230   33.9430   44.2730 N   0  0  0  0  0  0  0  0  0  0  0  0
   45.5470   34.0150   45.4380 C   0  0  0  0  0  0  0  0  0  0  0  0
   44.6870   35.0140   45.6350 N   0  0  0  0  0  0  0  0  0  0  0  0
   47.9435   33.1390   37.5251 H   0  0  0  0  0  0  0  0  0  0  0  0
   46.7375   31.9592   35.6281 H   0  0  0  0  0  0  0  0  0  0  0  0
   44.3315   31.5551   35.9139 H   0  0  0  0  0  0  0  0  0  0  0  0
   42.7777   30.2319   37.5811 H   0  0  0  0  0  0  0  0  0  0  0  0
   40.4275   29.7294   37.9417 H   0  0  0  0  0  0  0  0  0  0  0  0
   38.9059   31.5521   38.6976 H   0  0  0  0  0  0  0  0  0  0  0  0
   38.5673   33.8218   39.2778 H   0  0  0  0  0  0  0  0  0  0  0  0
   39.4186   36.1726   39.5894 H   0  0  0  0  0  0  0  0  0  0  0  0
   41.8743   36.5553   39.1651 H   0  0  0  0  0  0  0  0  0  0  0  0
   43.3000   34.7269   38.4983 H   0  0  0  0  0  0  0  0  0  0  0  0
   48.5721   35.7827   42.7936 H   0  0  0  0  0  0  0  0  0  0  0  0
   49.7222   35.5325   40.5858 H   0  0  0  0  0  0  0  0  0  0  0  0
   48.6222   34.3826   38.6808 H   0  0  0  0  0  0  0  0  0  0  0  0
   43.7875   36.7590   44.8556 H   0  0  0  0  0  0  0  0  0  0  0  0
   45.0405   36.6328   42.6905 H   0  0  0  0  0  0  0  0  0  0  0  0
   45.7041   33.2560   46.2185 H   0  0  0  0  0  0  0  0  0  0  0  0
  1  6  1  0
  1 21  1  0
  2  1  2  0
  3  4  2  0
  3  2  1  0
  4  5  1  0
  5  7  1  0
  5  6  2  0
  7 16  1  0
  8  7  2  0
  8  9  1  0
  9 10  2  0
 10 11  1  0
 11 12  2  0
 12 13  1  0
 14 13  2  0
 15 14  1  0
 16 15  2  0
 16 11  1  0
 17 25  1  0
 18 17  2  0
 19 18  1  0
 20 21  1  0
 20 19  2  0
 21 22  2  0
 22 17  1  0
 23 28  2  0
 24 23  1  0
 25 24  2  0
 25 26  1  0
 26 27  2  0
 27 28  1  0
  2 29  1  0
  3 30  1  0
  4 31  1  0
  8 32  1  0
  9 33  1  0
 10 34  1  0
 12 35  1  0
 13 36  1  0
 14 37  1  0
 15 38  1  0
 18 39  1  0
 19 40  1  0
 20 41  1  0
 23 42  1  0
 24 43  1  0
 27 44  1  0
M  END
>  <Score>  (1) 
-7.49148

$$$$
