
     RDKit          3D

 33 36  0  0  0  0  0  0  0  0999 V2000
   46.6030   34.8320   42.0160 C   0  0  0  0  0  0  0  0  0  0  0  0
   47.9130   35.2730   41.9480 C   0  0  0  0  0  0  0  0  0  0  0  0
   48.7470   35.0590   40.8690 C   0  0  0  0  0  0  0  0  0  0  0  0
   48.2710   34.3740   39.7880 C   0  0  0  0  0  0  0  0  0  0  0  0
   46.9690   33.9040   39.7860 C   0  0  0  0  0  0  0  0  0  0  0  0
   46.4790   33.2140   38.6960 C   0  0  0  0  0  0  0  0  0  0  0  0
   45.1840   32.7340   38.6570 C   0  0  0  0  0  0  0  0  0  0  0  0
   44.4050   32.9940   39.7940 C   0  0  0  0  0  0  0  0  0  0  0  0
   44.9270   33.6740   40.8370 C   0  0  0  0  0  0  0  0  0  0  0  0
   46.2050   34.1530   40.8880 C   0  0  0  0  0  0  0  0  0  0  0  0
   44.3740   36.2820   44.7430 C   0  0  0  0  0  0  0  0  0  0  0  0
   45.0170   36.1670   43.5200 C   0  0  0  0  0  0  0  0  0  0  0  0
   45.8620   35.1250   43.2140 C   0  0  0  0  0  0  0  0  0  0  0  0
   45.9980   34.2260   44.2350 N   0  0  0  0  0  0  0  0  0  0  0  0
   45.3880   34.3180   45.4230 C   0  0  0  0  0  0  0  0  0  0  0  0
   44.5850   35.3400   45.6640 N   0  0  0  0  0  0  0  0  0  0  0  0
   45.6100   33.2950   46.4380 C   0  0  0  0  0  0  0  0  0  0  0  0
   46.4970   32.2540   46.3750 C   0  0  0  0  0  0  0  0  0  0  0  0
   46.4100   31.5210   47.5100 N   0  0  0  0  0  0  0  0  0  0  0  0
   45.4680   32.0880   48.3050 C   0  0  0  0  0  0  0  0  0  0  0  0
   45.0030   33.1550   47.6310 N   0  0  0  0  0  0  0  0  0  0  0  0
   48.3150   35.8290   42.8078 H   0  0  0  0  0  0  0  0  0  0  0  0
   49.7807   35.4351   40.8799 H   0  0  0  0  0  0  0  0  0  0  0  0
   48.9218   34.1958   38.9193 H   0  0  0  0  0  0  0  0  0  0  0  0
   47.1387   33.0411   37.8329 H   0  0  0  0  0  0  0  0  0  0  0  0
   44.7894   32.1835   37.7902 H   0  0  0  0  0  0  0  0  0  0  0  0
   43.3636   32.6421   39.8361 H   0  0  0  0  0  0  0  0  0  0  0  0
   44.2777   33.8549   41.7063 H   0  0  0  0  0  0  0  0  0  0  0  0
   43.7051   37.1306   44.9493 H   0  0  0  0  0  0  0  0  0  0  0  0
   44.8439   36.9435   42.7603 H   0  0  0  0  0  0  0  0  0  0  0  0
   47.1744   32.0457   45.5338 H   0  0  0  0  0  0  0  0  0  0  0  0
   45.1489   31.7444   49.3000 H   0  0  0  0  0  0  0  0  0  0  0  0
   44.2714   33.7879   47.9848 H   0  0  0  0  0  0  0  0  0  0  0  0
  1 13  1  0
  2  1  2  0
  3  2  1  0
  4  3  2  0
  5  4  1  0
  5 10  2  0
  6  5  1  0
  7  6  2  0
  7  8  1  0
  8  9  2  0
  9 10  1  0
 10  1  1  0
 11 16  2  0
 12 11  1  0
 13 12  2  0
 13 14  1  0
 14 15  2  0
 15 16  1  0
 15 17  1  0
 17 21  1  0
 18 17  2  0
 18 19  1  0
 19 20  2  0
 21 20  1  0
  2 22  1  0
  3 23  1  0
  4 24  1  0
  6 25  1  0
  7 26  1  0
  8 27  1  0
  9 28  1  0
 11 29  1  0
 12 30  1  0
 18 31  1  0
 20 32  1  0
 21 33  1  0
M  END
>  <Score>  (1) 
-7.05829

$$$$
