
 OpenBabel03262515413D

 36 38  0  0  0  0  0  0  0  0999 V2000
   40.9360   24.3730   35.2750 C   0  0  0  0  0  0  0  0  0  0  0  0
   40.5360   23.3070   36.0620 C   0  0  0  0  0  0  0  0  0  0  0  0
   39.1650   23.1020   36.2510 C   0  0  0  0  0  0  0  0  0  0  0  0
   38.3100   23.9570   35.6540 N   0  0  0  0  0  0  0  0  0  0  0  0
   38.7510   24.9960   34.8850 C   0  0  0  0  0  0  0  0  0  0  0  0
   40.0490   25.2040   34.6970 N   0  0  0  0  0  0  0  0  0  0  0  0
   37.7410   25.8140   34.3180 N   0  0  0  0  0  0  0  0  0  0  0  0
   36.9950   26.7380   35.0800 C   0  0  0  0  0  0  0  0  0  0  0  0
   36.6810   28.0370   34.4260 C   0  0  0  0  0  0  0  0  0  0  0  0
   36.7240   28.0730   32.9370 C   0  0  0  0  0  0  0  0  0  0  0  0
   37.7700   27.1300   32.3460 C   0  0  0  0  0  0  0  0  0  0  0  0
   37.4060   25.7520   32.8960 C   0  0  0  0  0  0  0  0  0  0  0  0
   41.2400   22.6340   36.5300 H   0  0  0  0  0  0  0  0  0  0  0  0
   38.7600   22.3080   36.8390 H   0  0  0  0  0  0  0  0  0  0  0  0
   37.4430   26.9480   36.0930 H   0  0  0  0  0  0  0  0  0  0  0  0
   36.0100   26.2400   35.3170 H   0  0  0  0  0  0  0  0  0  0  0  0
   35.6630   28.3910   34.7260 H   0  0  0  0  0  0  0  0  0  0  0  0
   37.3690   28.8280   34.8380 H   0  0  0  0  0  0  0  0  0  0  0  0
   35.7700   27.8250   32.4440 H   0  0  0  0  0  0  0  0  0  0  0  0
   37.0130   29.1020   32.6190 H   0  0  0  0  0  0  0  0  0  0  0  0
   37.6260   27.1440   31.2590 H   0  0  0  0  0  0  0  0  0  0  0  0
   38.7870   27.4030   32.6840 H   0  0  0  0  0  0  0  0  0  0  0  0
   36.3040   25.6690   32.8370 H   0  0  0  0  0  0  0  0  0  0  0  0
   37.9250   24.9420   32.3620 H   0  0  0  0  0  0  0  0  0  0  0  0
   42.3800   24.6270   35.0380 C   0  0  0  0  0  0  0  0  0  0  0  0
   42.6560   25.4570   35.7180 H   0  0  0  0  0  0  0  0  0  0  0  0
   42.9420   23.7360   35.3900 H   0  0  0  0  0  0  0  0  0  0  0  0
   42.6980   24.9050   33.6640 N   0  0  0  0  0  0  0  0  0  0  0  0
   42.5940   23.9310   32.7140 C   0  0  0  0  0  0  0  0  0  0  0  0
   42.8870   24.1370   31.3730 C   0  0  0  0  0  0  0  0  0  0  0  0
   43.2970   25.4000   31.0310 C   0  0  0  0  0  0  0  0  0  0  0  0
   43.5620   25.5800   29.8070 O   0  0  0  0  0  0  0  0  0  0  0  0
   43.4030   26.3600   31.9480 N   0  0  0  0  0  0  0  0  0  0  0  0
   43.1070   26.1090   33.2350 C   0  0  0  0  0  0  0  0  0  0  0  0
   43.2280   27.0590   34.0520 O   0  0  0  0  0  0  0  0  0  0  0  0
   43.7220   27.2860   31.5950 H   0  0  0  0  0  0  0  0  0  0  0  0
  1  2  1  0  0  0  0
  2  3  2  0  0  0  0
  2 13  1  0  0  0  0
  3 14  1  0  0  0  0
  4  3  1  0  0  0  0
  5  4  2  0  0  0  0
  6  5  1  0  0  0  0
  6  1  2  0  0  0  0
  7  5  1  0  0  0  0
  7  8  1  0  0  0  0
  8 16  1  0  0  0  0
  8 15  1  0  0  0  0
  9 17  1  0  0  0  0
  9 18  1  0  0  0  0
  9  8  1  0  0  0  0
 10  9  1  0  0  0  0
 11 22  1  0  0  0  0
 11 12  1  0  0  0  0
 11 10  1  0  0  0  0
 12  7  1  0  0  0  0
 19 10  1  0  0  0  0
 20 10  1  0  0  0  0
 21 11  1  0  0  0  0
 23 12  1  0  0  0  0
 24 12  1  0  0  0  0
 25  1  1  0  0  0  0
 25 27  1  0  0  0  0
 25 26  1  0  0  0  0
 28 25  1  0  0  0  0
 29 28  1  0  0  0  0
 30 29  2  0  0  0  0
 31 30  1  0  0  0  0
 31 33  1  0  0  0  0
 32 31  2  0  0  0  0
 33 34  1  0  0  0  0
 34 28  1  0  0  0  0
 34 35  2  0  0  0  0
 36 33  1  0  0  0  0
M  END
>  <minimizedAffinity>
-3.82892537

>  <minimizedRMSD>
4.97556639

$$$$
