
     RDKit          3D

 30 32  0  0  0  0  0  0  0  0999 V2000
   37.8712   23.6988   33.5021 C   0  0  0  0  0  0  0  0  0  0  0  0
   37.4674   22.6598   32.6655 C   0  0  0  0  0  0  0  0  0  0  0  0
   37.4812   21.5657   33.4839 N   0  0  0  0  0  0  0  0  0  0  0  0
   37.8662   21.9665   34.6942 C   0  0  0  0  0  0  0  0  0  0  0  0
   38.1106   23.2713   34.7298 N   0  0  0  0  0  0  0  0  0  0  0  0
   38.0201   25.0837   33.0787 C   0  0  0  0  0  0  0  0  0  0  0  0
   39.3030   25.5843   32.7743 C   0  0  0  0  0  0  0  0  0  0  0  0
   39.3895   26.9354   32.3596 C   0  0  0  0  0  0  0  0  0  0  0  0
   38.2356   27.6510   32.2848 N   0  0  0  0  0  0  0  0  0  0  0  0
   37.0258   27.1248   32.5884 C   0  0  0  0  0  0  0  0  0  0  0  0
   36.9123   25.8481   32.9841 N   0  0  0  0  0  0  0  0  0  0  0  0
   38.5331   23.9467   35.8997 C   0  0  1  0  0  0  0  0  0  0  0  0
   38.0772   25.2309   36.3630 C   0  0  0  0  0  0  0  0  0  0  0  0
   37.5631   23.9247   37.0297 C   0  0  2  0  0  0  0  0  0  0  0  0
   38.1219   23.7618   38.4264 C   0  0  0  0  0  0  0  0  0  0  0  0
   37.5149   22.7022   39.0655 F   0  0  0  0  0  0  0  0  0  0  0  0
   39.5132   23.3440   38.3049 F   0  0  0  0  0  0  0  0  0  0  0  0
   38.1406   24.8985   39.1425 F   0  0  0  0  0  0  0  0  0  0  0  0
   37.2169   22.7888   31.6060 H   0  0  0  0  0  0  0  0  0  0  0  0
   37.9490   21.2462   35.5171 H   0  0  0  0  0  0  0  0  0  0  0  0
   40.1334   24.9120   32.8754 H   0  0  0  0  0  0  0  0  0  0  0  0
   40.3617   27.3098   32.1302 H   0  0  0  0  0  0  0  0  0  0  0  0
   36.2293   27.8321   32.4730 H   0  0  0  0  0  0  0  0  0  0  0  0
   39.6188   23.7042   36.1471 H   0  0  0  0  0  0  0  0  0  0  0  0
   38.6885   25.8717   37.0143 H   0  0  0  0  0  0  0  0  0  0  0  0
   37.3241   25.7873   35.7982 H   0  0  0  0  0  0  0  0  0  0  0  0
   36.0490   23.9825   36.9795 C   0  0  0  0  0  0  0  0  0  0  0  0
   35.7049   23.0180   36.5526 H   0  0  0  0  0  0  0  0  0  0  0  0
   35.6003   24.1239   37.9586 H   0  0  0  0  0  0  0  0  0  0  0  0
   35.7841   24.7758   36.2591 H   0  0  0  0  0  0  0  0  0  0  0  0
  1  5  1  0
  2  3  1  0
  2  1  2  0
  3  4  2  0
  4  5  1  0
  5 12  1  0
  6  1  1  0
  7  6  2  0
  8  7  1  0
  9  8  2  0
  9 10  1  0
 10 11  2  0
 11  6  1  0
 12 13  1  0
 12 14  1  0
 13 14  1  0
 14 15  1  1
 15 16  1  0
 15 18  1  0
 17 15  1  0
  2 19  1  0
  4 20  1  0
  7 21  1  0
  8 22  1  0
 10 23  1  0
 12 24  1  1
 13 25  1  0
 13 26  1  0
 27 28  1  0
 27 29  1  0
 27 30  1  0
 14 27  1  0
M  ISO  8  19  14  20  14  21  14  22  14  23  14  24  13  25  13  26  13
M  ISO  1  28   8
M  END
>  <DihAtoms>  (1) 
11,13,26,27

>  <DihDeg>  (1) 
-140.18515546510105

$$$$
