
 OpenBabel03262515393D

 39 42  0  0  0  0  0  0  0  0999 V2000
   38.3190   25.4060   34.9810 C   0  0  0  0  0  0  0  0  0  0  0  0
   39.2800   25.9540   34.7720 H   0  0  0  0  0  0  0  0  0  0  0  0
   38.1110   24.7630   34.1230 H   0  0  0  0  0  0  0  0  0  0  0  0
   38.0300   24.1270   38.4600 C   0  0  0  0  0  0  0  0  0  0  0  0
   39.0290   23.1600   38.4710 C   0  0  0  0  0  0  0  0  0  0  0  0
   39.7740   22.9610   37.3080 C   0  0  0  0  0  0  0  0  0  0  0  0
   39.4840   23.7260   36.2240 N   0  0  0  0  0  0  0  0  0  0  0  0
   38.4990   24.6650   36.2490 C   0  0  0  0  0  0  0  0  0  0  0  0
   37.7750   24.8730   37.3420 N   0  0  0  0  0  0  0  0  0  0  0  0
   37.4320   24.2990   39.3660 H   0  0  0  0  0  0  0  0  0  0  0  0
   39.2050   22.5870   39.3700 H   0  0  0  0  0  0  0  0  0  0  0  0
   40.8180   21.9480   37.3250 C   0  0  0  0  0  0  0  0  0  0  0  0
   41.1050   21.7170   38.3760 H   0  0  0  0  0  0  0  0  0  0  0  0
   40.4780   20.9830   36.8800 H   0  0  0  0  0  0  0  0  0  0  0  0
   42.0590   22.3800   36.6140 C   0  0  0  0  0  0  0  0  0  0  0  0
   42.4330   21.8300   35.3020 C   0  0  0  0  0  0  0  0  0  0  0  0
   43.1240   21.2730   36.5250 C   0  0  0  0  0  0  0  0  0  0  0  0
   42.3830   23.4030   36.8400 H   0  0  0  0  0  0  0  0  0  0  0  0
   42.9910   22.4330   34.5660 H   0  0  0  0  0  0  0  0  0  0  0  0
   41.6780   21.1330   34.8540 H   0  0  0  0  0  0  0  0  0  0  0  0
   44.1610   21.6420   36.6430 H   0  0  0  0  0  0  0  0  0  0  0  0
   42.8650   20.2580   36.8730 H   0  0  0  0  0  0  0  0  0  0  0  0
   37.2600   26.4610   35.1450 C   0  0  0  0  0  0  0  0  0  0  0  0
   36.3030   25.9520   35.3650 H   0  0  0  0  0  0  0  0  0  0  0  0
   37.5210   27.1550   35.9590 H   0  0  0  0  0  0  0  0  0  0  0  0
   37.1250   27.2920   33.8980 C   0  0  0  0  0  0  0  0  0  0  0  0
   36.2520   28.2970   33.7840 N   0  0  0  0  0  0  0  0  0  0  0  0
   36.3600   28.8280   32.6030 O   0  0  0  0  0  0  0  0  0  0  0  0
   37.2790   28.2130   31.9180 C   0  0  0  0  0  0  0  0  0  0  0  0
   37.7710   27.2410   32.7200 N   0  0  0  0  0  0  0  0  0  0  0  0
   37.7870   28.4030   30.5730 C   0  0  0  0  0  0  0  0  0  0  0  0
   38.6030   27.6340   29.7790 C   0  0  0  0  0  0  0  0  0  0  0  0
   38.7710   28.2980   28.5700 C   0  0  0  0  0  0  0  0  0  0  0  0
   38.0240   29.4620   28.7090 C   0  0  0  0  0  0  0  0  0  0  0  0
   37.4630   29.4960   29.8840 O   0  0  0  0  0  0  0  0  0  0  0  0
   39.0180   26.6720   30.1050 H   0  0  0  0  0  0  0  0  0  0  0  0
   39.3580   27.9500   27.7390 H   0  0  0  0  0  0  0  0  0  0  0  0
   37.8820   30.5220   27.6690 C   0  0  0  0  0  0  0  0  0  0  0  0
   38.8640   30.7810   27.2130 H   0  0  0  0  0  0  0  0  0  0  0  0
  1 23  1  0  0  0  0
  1  8  1  0  0  0  0
  2  1  1  0  0  0  0
  3  1  1  0  0  0  0
  4  5  1  0  0  0  0
  4 10  1  0  0  0  0
  5 11  1  0  0  0  0
  6 12  1  0  0  0  0
  6  5  2  0  0  0  0
  7  8  2  0  0  0  0
  7  6  1  0  0  0  0
  8  9  1  0  0  0  0
  9  4  2  0  0  0  0
 12 13  1  0  0  0  0
 14 12  1  0  0  0  0
 15 18  1  0  0  0  0
 15 12  1  0  0  0  0
 16 17  1  0  0  0  0
 16 15  1  0  0  0  0
 17 15  1  0  0  0  0
 17 21  1  0  0  0  0
 17 22  1  0  0  0  0
 19 16  1  0  0  0  0
 20 16  1  0  0  0  0
 23 24  1  0  0  0  0
 23 25  1  0  0  0  0
 26 23  1  0  0  0  0
 27 26  2  0  0  0  0
 28 27  1  0  0  0  0
 29 28  1  0  0  0  0
 29 30  2  0  0  0  0
 30 26  1  0  0  0  0
 31 29  1  0  0  0  0
 32 36  1  0  0  0  0
 32 31  2  0  0  0  0
 33 34  2  0  0  0  0
 33 32  1  0  0  0  0
 34 35  1  0  0  0  0
 35 31  1  0  0  0  0
 37 33  1  0  0  0  0
 38 34  1  0  0  0  0
 39 38  1  0  0  0  0
M  END
>  <minimizedAffinity>
-4.97343063

>  <minimizedRMSD>
0.379742444

$$$$
