
 OpenBabel03262518383D

 45 48  0  0  0  0  0  0  0  0999 V2000
   37.1620   26.9740   34.6210 C   0  0  0  0  0  0  0  0  0  0  0  0
   37.2550   26.3420   33.3860 C   0  0  0  0  0  0  0  0  0  0  0  0
   36.5630   26.9030   32.3070 C   0  0  0  0  0  0  0  0  0  0  0  0
   35.8450   28.0250   32.5310 N   0  0  0  0  0  0  0  0  0  0  0  0
   35.7690   28.6210   33.7380 C   0  0  0  0  0  0  0  0  0  0  0  0
   36.4300   28.0960   34.7920 N   0  0  0  0  0  0  0  0  0  0  0  0
   37.8310   25.4440   33.2110 H   0  0  0  0  0  0  0  0  0  0  0  0
   36.6140   26.4350   31.3290 H   0  0  0  0  0  0  0  0  0  0  0  0
   37.8890   26.3860   35.7530 C   0  0  0  0  0  0  0  0  0  0  0  0
   38.8130   27.0370   36.2910 O   0  0  0  0  0  0  0  0  0  0  0  0
   37.5440   25.1420   36.2000 O   0  0  0  0  0  0  0  0  0  0  0  0
   39.4320   22.8520   38.1200 N   0  0  0  0  0  0  0  0  0  0  0  0
   38.3920   23.6660   37.9040 N   0  0  0  0  0  0  0  0  0  0  0  0
   38.5190   24.2360   36.6710 C   0  0  0  0  0  0  0  0  0  0  0  0
   39.6650   23.7710   36.1000 C   0  0  0  0  0  0  0  0  0  0  0  0
   40.2090   22.9160   37.0200 C   0  0  0  0  0  0  0  0  0  0  0  0
   39.6380   22.2670   38.9600 H   0  0  0  0  0  0  0  0  0  0  0  0
   40.0070   24.0700   35.1070 H   0  0  0  0  0  0  0  0  0  0  0  0
   41.4790   22.1720   36.8150 C   0  0  0  0  0  0  0  0  0  0  0  0
   42.4740   22.7110   36.0380 C   0  0  0  0  0  0  0  0  0  0  0  0
   43.6100   21.9640   35.9000 C   0  0  0  0  0  0  0  0  0  0  0  0
   43.8050   20.7400   36.4800 N   0  0  0  0  0  0  0  0  0  0  0  0
   42.7950   20.2440   37.2410 C   0  0  0  0  0  0  0  0  0  0  0  0
   41.6740   20.9650   37.3860 N   0  0  0  0  0  0  0  0  0  0  0  0
   42.3780   23.6760   35.5530 H   0  0  0  0  0  0  0  0  0  0  0  0
   44.4080   22.3740   35.2890 H   0  0  0  0  0  0  0  0  0  0  0  0
   42.9500   19.2750   37.6990 H   0  0  0  0  0  0  0  0  0  0  0  0
   34.9540   29.8540   33.8940 C   0  0  0  0  0  0  0  0  0  0  0  0
   35.7450   30.8110   34.7530 C   0  0  0  0  0  0  0  0  0  0  0  0
   35.2720   31.8210   34.7360 H   0  0  0  0  0  0  0  0  0  0  0  0
   35.6530   30.4410   35.8070 H   0  0  0  0  0  0  0  0  0  0  0  0
   36.8030   30.8850   34.4570 H   0  0  0  0  0  0  0  0  0  0  0  0
   33.6850   29.4570   34.5930 C   0  0  0  0  0  0  0  0  0  0  0  0
   32.8940   29.3190   33.8130 H   0  0  0  0  0  0  0  0  0  0  0  0
   33.7500   28.5040   35.1400 H   0  0  0  0  0  0  0  0  0  0  0  0
   33.4380   30.2400   35.3330 H   0  0  0  0  0  0  0  0  0  0  0  0
   34.6480   30.4830   32.5260 C   0  0  0  0  0  0  0  0  0  0  0  0
   34.2940   29.6990   31.8310 H   0  0  0  0  0  0  0  0  0  0  0  0
   33.7570   31.1470   32.6940 H   0  0  0  0  0  0  0  0  0  0  0  0
   35.7880   31.1590   32.1560 O   0  0  0  0  0  0  0  0  0  0  0  0
   36.5740   31.3780   31.2300 C   0  0  0  0  0  0  0  0  0  0  0  0
   37.1460   32.6790   31.0380 C   0  0  0  0  0  0  0  0  0  0  0  0
   38.0170   33.1270   30.0980 C   0  0  0  0  0  0  0  0  0  0  0  0
   38.3760   32.0350   29.1700 C   0  0  0  0  0  0  0  0  0  0  0  0
   37.4090   30.4910   29.7700 S   0  0  0  0  0  0  0  0  0  0  0  0
  1  6  1  0  0  0  0
  1  9  1  0  0  0  0
  2  1  2  0  0  0  0
  3  4  2  0  0  0  0
  3  2  1  0  0  0  0
  4  5  1  0  0  0  0
  5 28  1  0  0  0  0
  5  6  2  0  0  0  0
  7  2  1  0  0  0  0
  8  3  1  0  0  0  0
  9 11  1  0  0  0  0
  9 10  2  0  0  0  0
 11 14  1  0  0  0  0
 12 17  1  0  0  0  0
 13 12  1  0  0  0  0
 14 13  2  0  0  0  0
 15 14  1  0  0  0  0
 15 16  2  0  0  0  0
 16 12  1  0  0  0  0
 18 15  1  0  0  0  0
 19 16  1  0  0  0  0
 19 24  1  0  0  0  0
 20 19  2  0  0  0  0
 21 20  1  0  0  0  0
 21 22  2  0  0  0  0
 22 23  1  0  0  0  0
 23 24  2  0  0  0  0
 23 27  1  0  0  0  0
 25 20  1  0  0  0  0
 26 21  1  0  0  0  0
 28 33  1  0  0  0  0
 28 29  1  0  0  0  0
 29 31  1  0  0  0  0
 30 29  1  0  0  0  0
 32 29  1  0  0  0  0
 33 35  1  0  0  0  0
 33 36  1  0  0  0  0
 34 33  1  0  0  0  0
 37 39  1  0  0  0  0
 37 28  1  0  0  0  0
 38 37  1  0  0  0  0
 40 37  1  0  0  0  0
 41 40  1  0  0  0  0
 42 41  2  0  0  0  0
 43 42  1  0  0  0  0
 44 45  1  0  0  0  0
 44 43  2  0  0  0  0
 45 41  1  0  0  0  0
M  END
>  <minimizedAffinity>
-5.63732195

>  <minimizedRMSD>
1.17251694

$$$$
