
 OpenBabel03262514133D

 40 44  0  0  0  0  0  0  0  0999 V2000
   35.4790   18.8460   32.8520 C   0  0  0  0  0  0  0  0  0  0  0  0
   36.2020   18.6340   33.6680 H   0  0  0  0  0  0  0  0  0  0  0  0
   34.5640   18.2500   33.1040 H   0  0  0  0  0  0  0  0  0  0  0  0
   36.0800   18.4180   31.5880 C   0  0  0  0  0  0  0  0  0  0  0  0
   36.7090   17.2500   31.3460 N   0  0  0  0  0  0  0  0  0  0  0  0
   37.1170   17.2190   30.0960 O   0  0  0  0  0  0  0  0  0  0  0  0
   36.7780   18.3390   29.4920 C   0  0  0  0  0  0  0  0  0  0  0  0
   36.1330   19.0840   30.4170 N   0  0  0  0  0  0  0  0  0  0  0  0
   37.0350   18.7090   28.1150 C   0  0  0  0  0  0  0  0  0  0  0  0
   36.2850   18.3860   27.0300 C   0  0  0  0  0  0  0  0  0  0  0  0
   36.9230   18.9610   25.9310 C   0  0  0  0  0  0  0  0  0  0  0  0
   38.0130   19.6050   26.3440 N   0  0  0  0  0  0  0  0  0  0  0  0
   38.0590   19.4380   27.6650 N   0  0  0  0  0  0  0  0  0  0  0  0
   35.3890   17.8190   26.9440 H   0  0  0  0  0  0  0  0  0  0  0  0
   36.6970   18.9720   24.8690 H   0  0  0  0  0  0  0  0  0  0  0  0
   39.0670   20.3730   25.7450 C   0  0  0  0  0  0  0  0  0  0  0  0
   40.5380   20.1060   25.9330 C   0  0  0  0  0  0  0  0  0  0  0  0
   41.1860   21.4550   24.8930 S   0  0  0  0  0  0  0  0  0  0  0  0
   39.4690   22.1140   24.4060 C   0  0  0  0  0  0  0  0  0  0  0  0
   39.3600   22.9820   23.7420 H   0  0  0  0  0  0  0  0  0  0  0  0
   38.5320   21.3340   25.0140 N   0  0  0  0  0  0  0  0  0  0  0  0
   35.1300   20.3490   32.8130 C   0  0  0  0  0  0  0  0  0  0  0  0
   34.1670   20.4570   33.3770 H   0  0  0  0  0  0  0  0  0  0  0  0
   34.9870   20.6530   31.7750 H   0  0  0  0  0  0  0  0  0  0  0  0
   37.6660   22.1620   34.8040 C   0  0  0  0  0  0  0  0  0  0  0  0
   36.6100   21.2860   34.7240 C   0  0  0  0  0  0  0  0  0  0  0  0
   36.2080   21.1580   33.4160 C   0  0  0  0  0  0  0  0  0  0  0  0
   37.0820   22.0030   32.7300 C   0  0  0  0  0  0  0  0  0  0  0  0
   37.9320   22.5800   33.5920 O   0  0  0  0  0  0  0  0  0  0  0  0
   36.1380   20.7580   35.5450 H   0  0  0  0  0  0  0  0  0  0  0  0
   37.1040   22.1940   31.6600 H   0  0  0  0  0  0  0  0  0  0  0  0
   38.3110   22.5010   36.0620 C   0  0  0  0  0  0  0  0  0  0  0  0
   39.6270   22.2800   36.3640 C   0  0  0  0  0  0  0  0  0  0  0  0
   40.1260   22.6510   37.6060 C   0  0  0  0  0  0  0  0  0  0  0  0
   39.2890   23.2250   38.4850 N   0  0  0  0  0  0  0  0  0  0  0  0
   37.9890   23.4410   38.1820 C   0  0  0  0  0  0  0  0  0  0  0  0
   37.4800   23.0890   36.9800 N   0  0  0  0  0  0  0  0  0  0  0  0
   40.2340   21.8090   35.5890 H   0  0  0  0  0  0  0  0  0  0  0  0
   41.1700   22.4670   37.8260 H   0  0  0  0  0  0  0  0  0  0  0  0
   37.3770   23.9090   38.9420 H   0  0  0  0  0  0  0  0  0  0  0  0
  1  3  1  0  0  0  0
  1  2  1  0  0  0  0
  4  1  1  0  0  0  0
  5  4  2  0  0  0  0
  6  5  1  0  0  0  0
  7  6  1  0  0  0  0
  7  8  2  0  0  0  0
  8  4  1  0  0  0  0
  9  7  1  0  0  0  0
 10  9  1  0  0  0  0
 11 12  1  0  0  0  0
 11 10  2  0  0  0  0
 12 13  1  0  0  0  0
 13  9  2  0  0  0  0
 14 10  1  0  0  0  0
 15 11  1  0  0  0  0
 16 17  2  0  0  0  0
 16 12  1  0  0  0  0
 18 17  1  0  0  0  0
 19 18  1  0  0  0  0
 19 21  2  0  0  0  0
 20 19  1  0  0  0  0
 21 16  1  0  0  0  0
 22  1  1  0  0  0  0
 22 23  1  0  0  0  0
 22 27  1  0  0  0  0
 24 22  1  0  0  0  0
 25 32  1  0  0  0  0
 26 25  2  0  0  0  0
 26 30  1  0  0  0  0
 27 26  1  0  0  0  0
 28 27  2  0  0  0  0
 28 29  1  0  0  0  0
 29 25  1  0  0  0  0
 31 28  1  0  0  0  0
 32 33  2  0  0  0  0
 32 37  1  0  0  0  0
 33 34  1  0  0  0  0
 34 39  1  0  0  0  0
 34 35  2  0  0  0  0
 36 35  1  0  0  0  0
 36 40  1  0  0  0  0
 37 36  2  0  0  0  0
 38 33  1  0  0  0  0
M  END
>  <minimizedAffinity>
-5.17499781

>  <minimizedRMSD>
0.267052948

$$$$
