
     RDKit          3D

 30 32  0  0  0  0  0  0  0  0999 V2000
   38.0293   23.4690   34.6152 C   0  0  0  0  0  0  0  0  0  0  0  0
   38.2645   24.5671   33.7968 C   0  0  0  0  0  0  0  0  0  0  0  0
   37.7679   24.1799   32.5886 N   0  0  0  0  0  0  0  0  0  0  0  0
   37.2870   22.9486   32.7205 C   0  0  0  0  0  0  0  0  0  0  0  0
   37.4343   22.4727   33.9768 N   0  0  0  0  0  0  0  0  0  0  0  0
   38.3921   23.4000   36.0325 C   0  0  0  0  0  0  0  0  0  0  0  0
   39.5949   22.8081   36.4175 C   0  0  0  0  0  0  0  0  0  0  0  0
   39.8996   22.7660   37.7960 C   0  0  0  0  0  0  0  0  0  0  0  0
   39.0239   23.2932   38.6590 N   0  0  0  0  0  0  0  0  0  0  0  0
   37.8530   23.8669   38.2544 C   0  0  0  0  0  0  0  0  0  0  0  0
   37.5273   23.9257   36.9443 N   0  0  0  0  0  0  0  0  0  0  0  0
   37.0029   21.1746   34.3893 C   0  0  1  0  0  0  0  0  0  0  0  0
   35.8375   20.9684   35.2456 C   0  0  0  0  0  0  0  0  0  0  0  0
   35.6607   20.7649   33.7676 C   0  0  2  0  0  0  0  0  0  0  0  0
   38.7445   25.5053   34.1074 H   0  0  0  0  0  0  0  0  0  0  0  0
   36.8289   22.4089   31.8831 H   0  0  0  0  0  0  0  0  0  0  0  0
   40.2764   22.3949   35.7117 H   0  0  0  0  0  0  0  0  0  0  0  0
   40.8294   22.3105   38.1185 H   0  0  0  0  0  0  0  0  0  0  0  0
   37.1645   24.2853   38.9784 H   0  0  0  0  0  0  0  0  0  0  0  0
   37.7857   20.3852   34.3326 H   0  0  0  0  0  0  0  0  0  0  0  0
   35.7598   20.1281   35.9623 H   0  0  0  0  0  0  0  0  0  0  0  0
   35.4068   21.8935   35.6843 H   0  0  0  0  0  0  0  0  0  0  0  0
   35.0569   21.5478   33.2470 H   0  0  0  0  0  0  0  0  0  0  0  0
   35.5804   19.4244   33.1317 C   0  0  0  0  0  0  0  0  0  0  0  0
   35.8640   18.2727   34.0489 C   0  0  0  0  0  0  0  0  0  0  0  0
   36.4259   17.4613   33.5047 H   0  0  0  0  0  0  0  0  0  0  0  0
   34.6305   19.3048   32.6107 H   0  0  0  0  0  0  0  0  0  0  0  0
   36.3731   19.4017   32.3419 H   0  0  0  0  0  0  0  0  0  0  0  0
   34.8948   17.8211   34.3667 H   0  0  0  0  0  0  0  0  0  0  0  0
   36.4395   18.4974   34.9425 H   0  0  0  0  0  0  0  0  0  0  0  0
  1  6  1  0
  2  1  2  0
  3  4  2  0
  3  2  1  0
  4  5  1  0
  5 12  1  0
  5  1  1  0
  6  7  2  0
  6 11  1  0
  7  8  1  0
  8  9  2  0
 10  9  1  0
 11 10  2  0
 12 13  1  0
 14 12  1  0
 14 13  1  0
  2 15  1  0
  4 16  1  0
  7 17  1  0
  8 18  1  0
 10 19  1  0
 12 20  1  1
 13 21  1  0
 13 22  1  0
 14 23  1  6
 24 25  1  0
 25 26  1  0
 24 27  1  0
 24 28  1  0
 25 29  1  0
 25 30  1  0
 14 24  1  0
M  ISO  8  15  14  16  14  17  14  18  14  19  14  20  13  21  13  22  13
M  ISO  2  23  13  26   8
M  END
>  <DihAtoms>  (1) 
11,13,23,24

>  <DihDeg>  (1) 
60.00076674184416

$$$$
