
 OpenBabel03262517343D

 30 32  0  0  0  0  0  0  0  0999 V2000
   37.6870   21.9660   35.3090 C   0  0  0  0  0  0  0  0  0  0  0  0
   36.4910   21.3950   35.2790 C   0  0  0  0  0  0  0  0  0  0  0  0
   35.9150   20.8010   34.2550 C   0  0  0  0  0  0  0  0  0  0  0  0
   36.7820   20.8340   33.0800 C   0  0  0  0  0  0  0  0  0  0  0  0
   38.3200   21.7280   33.6300 S   0  0  0  0  0  0  0  0  0  0  0  0
   35.7970   21.3460   36.1640 H   0  0  0  0  0  0  0  0  0  0  0  0
   34.9960   20.3460   34.1370 H   0  0  0  0  0  0  0  0  0  0  0  0
   36.7230   20.3780   31.6900 N   0  0  0  0  0  0  0  0  0  0  0  0
   37.2860   21.1380   30.5970 C   0  0  0  0  0  0  0  0  0  0  0  0
   37.9810   20.1130   29.7160 C   0  0  0  0  0  0  0  0  0  0  0  0
   37.0650   19.2430   29.2290 O   0  0  0  0  0  0  0  0  0  0  0  0
   36.3100   18.5560   30.1330 C   0  0  0  0  0  0  0  0  0  0  0  0
   36.1000   19.1460   31.4830 C   0  0  0  0  0  0  0  0  0  0  0  0
   38.0930   21.8150   30.9450 H   0  0  0  0  0  0  0  0  0  0  0  0
   36.5120   21.6220   29.9990 H   0  0  0  0  0  0  0  0  0  0  0  0
   38.4470   20.6870   28.8760 H   0  0  0  0  0  0  0  0  0  0  0  0
   38.7760   19.6640   30.3710 H   0  0  0  0  0  0  0  0  0  0  0  0
   35.8570   17.6230   29.9350 H   0  0  0  0  0  0  0  0  0  0  0  0
   35.3070   18.2650   32.3080 C   0  0  0  0  0  0  0  0  0  0  0  0
   35.8870   16.8570   32.2480 C   0  0  0  0  0  0  0  0  0  0  0  0
   35.1100   16.0710   32.2600 H   0  0  0  0  0  0  0  0  0  0  0  0
   39.9120   22.9190   37.9880 C   0  0  0  0  0  0  0  0  0  0  0  0
   39.0980   23.7590   38.7850 C   0  0  0  0  0  0  0  0  0  0  0  0
   37.7900   24.0040   38.4140 C   0  0  0  0  0  0  0  0  0  0  0  0
   37.3540   23.4060   37.2730 N   0  0  0  0  0  0  0  0  0  0  0  0
   38.1580   22.5930   36.5110 C   0  0  0  0  0  0  0  0  0  0  0  0
   39.4160   22.3580   36.8700 N   0  0  0  0  0  0  0  0  0  0  0  0
   40.9360   22.7580   38.3260 H   0  0  0  0  0  0  0  0  0  0  0  0
   39.4390   24.2410   39.6980 H   0  0  0  0  0  0  0  0  0  0  0  0
   37.1090   24.6330   38.9700 H   0  0  0  0  0  0  0  0  0  0  0  0
  1 26  1  0  0  0  0
  2  1  2  0  0  0  0
  2  6  1  0  0  0  0
  3  2  1  0  0  0  0
  4  5  1  0  0  0  0
  4  3  2  0  0  0  0
  5  1  1  0  0  0  0
  7  3  1  0  0  0  0
  8  4  1  0  0  0  0
  9 14  1  0  0  0  0
  9  8  1  0  0  0  0
 10 17  1  0  0  0  0
 10  9  1  0  0  0  0
 11 10  1  0  0  0  0
 11 12  1  0  0  0  0
 12 13  2  0  0  0  0
 13  8  1  0  0  0  0
 13 19  1  0  0  0  0
 15  9  1  0  0  0  0
 16 10  1  0  0  0  0
 18 12  1  0  0  0  0
 20 21  1  0  0  0  0
 20 19  1  0  0  0  0
 22 28  1  0  0  0  0
 22 23  1  0  0  0  0
 23 29  1  0  0  0  0
 24 23  2  0  0  0  0
 24 30  1  0  0  0  0
 25 24  1  0  0  0  0
 26 27  1  0  0  0  0
 26 25  2  0  0  0  0
 27 22  2  0  0  0  0
M  END
>  <minimizedAffinity>
-4.52431393

>  <minimizedRMSD>
0.904935896

$$$$
