
 OpenBabel03262519593D

 29 31  0  0  1  0  0  0  0  0999 V2000
   38.4250   23.3620   35.7290 C   0  0  0  0  0  0  0  0  0  0  0  0
   37.6110   23.3200   36.8600 C   0  0  0  0  0  0  0  0  0  0  0  0
   38.4980   23.1940   37.8900 N   0  0  0  0  0  0  0  0  0  0  0  0
   39.7250   23.1680   37.3700 C   0  0  0  0  0  0  0  0  0  0  0  0
   39.7080   23.2700   36.0450 N   0  0  0  0  0  0  0  0  0  0  0  0
   36.5290   23.3740   36.9070 H   0  0  0  0  0  0  0  0  0  0  0  0
   40.5910   23.0730   38.0220 H   0  0  0  0  0  0  0  0  0  0  0  0
   37.9320   23.4840   34.3670 C   0  0  0  0  0  0  0  0  0  0  0  0
   37.6570   22.3210   33.6180 C   0  0  0  0  0  0  0  0  0  0  0  0
   37.1770   22.4880   32.3000 C   0  0  0  0  0  0  0  0  0  0  0  0
   37.0120   23.7580   31.8410 N   0  0  0  0  0  0  0  0  0  0  0  0
   37.2890   24.8500   32.5990 C   0  0  0  0  0  0  0  0  0  0  0  0
   37.7440   24.7150   33.8480 N   0  0  0  0  0  0  0  0  0  0  0  0
   37.8010   21.3410   34.0190 H   0  0  0  0  0  0  0  0  0  0  0  0
   36.9470   21.6270   31.6730 H   0  0  0  0  0  0  0  0  0  0  0  0
   37.1630   25.8600   32.2460 H   0  0  0  0  0  0  0  0  0  0  0  0
   40.8810   23.2690   35.2510 C   0  0  1  0  0  0  0  0  0  0  0  0
   41.0140   23.8090   33.9240 C   0  0  0  0  0  0  0  0  0  0  0  0
   41.5540   24.6140   35.1430 C   0  0  2  0  0  0  0  0  0  0  0  0
   41.5750   22.4050   35.5400 H   0  0  0  0  0  0  0  0  0  0  0  0
   41.7880   23.3560   33.2570 H   0  0  0  0  0  0  0  0  0  0  0  0
   40.1840   24.2280   33.3280 H   0  0  0  0  0  0  0  0  0  0  0  0
   43.0700   24.6130   35.1550 C   0  0  0  0  0  0  0  0  0  0  0  0
   43.5400   25.5000   36.0990 F   0  0  0  0  0  0  0  0  0  0  0  0
   43.5220   23.3190   35.6560 F   0  0  0  0  0  0  0  0  0  0  0  0
   43.6360   24.7350   33.9440 F   0  0  0  0  0  0  0  0  0  0  0  0
   40.8440   25.9440   35.0790 C   0  0  0  0  0  2  0  0  0  0  0  0
   41.5830   26.8510   34.1270 C   0  0  0  0  0  2  0  0  0  0  0  0
   40.8440   27.6340   33.7570 H   0  0  0  0  0  0  0  0  0  0  0  0
  1  5  1  0  0  0  0
  1  2  2  0  0  0  0
  2  6  1  0  0  0  0
  2  3  1  0  0  0  0
  4  3  2  0  0  0  0
  4  7  1  0  0  0  0
  5  4  1  0  0  0  0
  8  1  1  0  0  0  0
  9 14  1  0  0  0  0
  9  8  2  0  0  0  0
 10  9  1  0  0  0  0
 11 10  2  0  0  0  0
 11 12  1  0  0  0  0
 12 13  2  0  0  0  0
 13  8  1  0  0  0  0
 15 10  1  0  0  0  0
 16 12  1  0  0  0  0
 17 20  1  1  0  0  0
 17  5  1  0  0  0  0
 18 19  1  0  0  0  0
 18 17  1  0  0  0  0
 19 27  1  1  0  0  0
 19 23  1  0  0  0  0
 19 17  1  0  0  0  0
 21 18  1  0  0  0  0
 22 18  1  0  0  0  0
 23 25  1  0  0  0  0
 23 24  1  0  0  0  0
 26 23  1  0  0  0  0
 28 27  1  0  0  0  0
 29 28  1  0  0  0  0
M  END
>  <minimizedAffinity>
-3.86270952

>  <minimizedRMSD>
4.56024647

$$$$
