
 OpenBabel03262515543D

 18 18  0  0  0  0  0  0  0  0999 V2000
   39.3250   24.1080   35.9050 C   0  0  0  0  0  0  0  0  0  0  0  0
   38.5500   24.7010   36.9120 C   0  0  0  0  0  0  0  0  0  0  0  0
   38.2120   26.0540   36.7730 C   0  0  0  0  0  0  0  0  0  0  0  0
   38.6430   26.7350   35.6800 N   0  0  0  0  0  0  0  0  0  0  0  0
   39.3870   26.1270   34.7370 C   0  0  0  0  0  0  0  0  0  0  0  0
   39.7190   24.8510   34.8450 N   0  0  0  0  0  0  0  0  0  0  0  0
   37.6170   26.4980   37.5520 H   0  0  0  0  0  0  0  0  0  0  0  0
   38.0900   23.9540   38.0880 C   0  0  0  0  0  0  0  0  0  0  0  0
   39.1790   23.4540   38.7360 F   0  0  0  0  0  0  0  0  0  0  0  0
   37.2450   22.9290   37.8150 F   0  0  0  0  0  0  0  0  0  0  0  0
   37.5210   24.8410   39.0420 F   0  0  0  0  0  0  0  0  0  0  0  0
   39.7910   22.7070   35.8600 C   0  0  0  0  0  0  0  0  0  0  0  0
   40.4060   22.4220   34.6580 F   0  0  0  0  0  0  0  0  0  0  0  0
   40.6530   22.4420   36.9240 F   0  0  0  0  0  0  0  0  0  0  0  0
   38.7910   21.7920   36.0060 F   0  0  0  0  0  0  0  0  0  0  0  0
   39.8200   26.9500   33.5640 C   0  0  0  0  0  0  0  0  0  0  0  0
   38.5640   27.1760   32.7110 C   0  0  0  0  0  0  0  0  0  0  0  0
   37.9860   26.2080   32.7350 H   0  0  0  0  0  0  0  0  0  0  0  0
  1  2  1  0  0  0  0
  2  8  1  0  0  0  0
  3  2  2  0  0  0  0
  3  7  1  0  0  0  0
  4  3  1  0  0  0  0
  5  6  1  0  0  0  0
  5  4  2  0  0  0  0
  6  1  2  0  0  0  0
  8  9  1  0  0  0  0
  8 11  1  0  0  0  0
 10  8  1  0  0  0  0
 12  1  1  0  0  0  0
 12 15  1  0  0  0  0
 12 14  1  0  0  0  0
 13 12  1  0  0  0  0
 16  5  1  0  0  0  0
 17 18  1  0  0  0  0
 17 16  1  0  0  0  0
M  END
>  <minimizedAffinity>
-4.2923007

>  <minimizedRMSD>
1.47982979

$$$$
