REMARK  Name = 
REMARK  4 active torsions:
REMARK  status: ('A' for Active; 'I' for Inactive)
REMARK    1  A    between atoms: C_1  and  C_6
REMARK    2  A    between atoms: N_5  and  C_12
REMARK    3  A    between atoms: C_14  and  C_24
REMARK    4  A    between atoms: C_24  and  C_25
REMARK                            x       y       z     vdW  Elec       q    Type
REMARK                         _______ _______ _______ _____ _____    ______ ____
ROOT
ATOM      1  C   UNL     1      38.029  23.469  34.615  0.00  0.00    +0.000 A 
ATOM      2  C   UNL     1      38.264  24.567  33.797  0.00  0.00    +0.000 A 
ATOM      3  N   UNL     1      37.768  24.180  32.589  0.00  0.00    +0.000 NA
ATOM      4  C   UNL     1      37.287  22.949  32.721  0.00  0.00    +0.000 A 
ATOM      5  N   UNL     1      37.434  22.473  33.977  0.00  0.00    +0.000 N 
ATOM      6  H   UNL     1      38.745  25.505  34.107  0.00  0.00    +0.000 HD
ATOM      7  H   UNL     1      36.829  22.409  31.883  0.00  0.00    +0.000 HD
ENDROOT
BRANCH   1   8
ATOM      8  C   UNL     1      38.392  23.400  36.032  0.00  0.00    +0.000 A 
ATOM      9  C   UNL     1      39.595  22.808  36.417  0.00  0.00    +0.000 A 
ATOM     10  C   UNL     1      39.900  22.766  37.796  0.00  0.00    +0.000 A 
ATOM     11  N   UNL     1      39.024  23.293  38.659  0.00  0.00    +0.000 NA
ATOM     12  C   UNL     1      37.853  23.867  38.254  0.00  0.00    +0.000 A 
ATOM     13  N   UNL     1      37.527  23.926  36.944  0.00  0.00    +0.000 NA
ATOM     14  H   UNL     1      40.276  22.395  35.712  0.00  0.00    +0.000 HD
ATOM     15  H   UNL     1      40.829  22.311  38.118  0.00  0.00    +0.000 HD
ATOM     16  H   UNL     1      37.164  24.285  38.978  0.00  0.00    +0.000 HD
ENDBRANCH   1   8
BRANCH   5  17
ATOM     17  C   UNL     1      37.003  21.175  34.389  0.00  0.00    +0.000 C 
ATOM     18  C   UNL     1      35.837  20.968  35.246  0.00  0.00    +0.000 C 
ATOM     19  C   UNL     1      35.661  20.765  33.768  0.00  0.00    +0.000 C 
ATOM     20  H   UNL     1      37.786  20.385  34.333  0.00  0.00    +0.000 HD
ATOM     21  H   UNL     1      35.760  20.128  35.962  0.00  0.00    +0.000 HD
ATOM     22  H   UNL     1      35.407  21.893  35.684  0.00  0.00    +0.000 HD
ATOM     23  H   UNL     1      35.057  21.548  33.247  0.00  0.00    +0.000 HD
BRANCH  19  24
ATOM     24  C   UNL     1      35.580  19.424  33.132  0.00  0.00    +0.000 C 
BRANCH  24  25
ATOM     25  C   UNL     1      36.195  18.311  33.926  0.00  0.00    +0.000 C 
ATOM     26  H   UNL     1      36.699  17.569  33.244  0.00  0.00    +0.000 HD
ENDBRANCH  24  25
ENDBRANCH  19  24
ENDBRANCH   5  17
TORSDOF 4
