
 OpenBabel03262518593D

 31 33  0  0  0  0  0  0  0  0999 V2000
   38.9910   26.6070   35.3310 C   0  0  0  0  0  0  0  0  0  0  0  0
   40.1140   27.0750   34.6750 C   0  0  0  0  0  0  0  0  0  0  0  0
   41.1880   26.2610   34.4420 C   0  0  0  0  0  0  0  0  0  0  0  0
   41.1890   24.9350   34.8570 C   0  0  0  0  0  0  0  0  0  0  0  0
   40.0660   24.4650   35.5130 C   0  0  0  0  0  0  0  0  0  0  0  0
   40.0590   23.1380   35.9360 C   0  0  0  0  0  0  0  0  0  0  0  0
   38.9650   22.6190   36.5990 C   0  0  0  0  0  0  0  0  0  0  0  0
   37.8700   23.4340   36.8390 C   0  0  0  0  0  0  0  0  0  0  0  0
   37.9070   24.7520   36.4040 C   0  0  0  0  0  0  0  0  0  0  0  0
   38.9900   25.3060   35.7380 C   0  0  0  0  0  0  0  0  0  0  0  0
   40.0970   28.1160   34.3570 H   0  0  0  0  0  0  0  0  0  0  0  0
   42.0290   26.7090   33.9210 H   0  0  0  0  0  0  0  0  0  0  0  0
   42.0490   24.3020   34.6650 H   0  0  0  0  0  0  0  0  0  0  0  0
   40.9360   22.5320   35.7290 H   0  0  0  0  0  0  0  0  0  0  0  0
   39.0450   21.5800   36.8910 H   0  0  0  0  0  0  0  0  0  0  0  0
   37.0240   23.0100   37.3570 H   0  0  0  0  0  0  0  0  0  0  0  0
   37.0090   25.3040   36.6330 H   0  0  0  0  0  0  0  0  0  0  0  0
   37.8370   27.4610   35.6140 C   0  0  0  0  0  0  0  0  0  0  0  0
   37.2890   27.2790   36.5320 H   0  0  0  0  0  0  0  0  0  0  0  0
   38.3430   28.4670   35.8460 H   0  0  0  0  0  0  0  0  0  0  0  0
   35.4440   29.1520   33.4080 C   0  0  0  0  0  0  0  0  0  0  0  0
   35.4090   28.3550   32.2720 C   0  0  0  0  0  0  0  0  0  0  0  0
   36.2170   27.2010   32.2550 C   0  0  0  0  0  0  0  0  0  0  0  0
   36.9950   26.9160   33.3420 N   0  0  0  0  0  0  0  0  0  0  0  0
   36.9900   27.7230   34.4150 C   0  0  0  0  0  0  0  0  0  0  0  0
   36.2270   28.8250   34.4500 N   0  0  0  0  0  0  0  0  0  0  0  0
   34.8280   30.0400   33.4340 H   0  0  0  0  0  0  0  0  0  0  0  0
   34.7840   28.6110   31.4310 H   0  0  0  0  0  0  0  0  0  0  0  0
   36.1610   26.3800   31.0490 C   0  0  0  0  0  0  0  0  0  0  0  0
   35.0120   25.4320   30.9940 C   0  0  0  0  0  0  0  0  0  0  0  0
   34.0860   25.9670   30.6370 H   0  0  0  0  0  0  0  0  0  0  0  0
  1 18  1  0  0  0  0
  1 10  1  0  0  0  0
  2  1  2  0  0  0  0
  3  2  1  0  0  0  0
  3  4  2  0  0  0  0
  4  5  1  0  0  0  0
  5 10  2  0  0  0  0
  5  6  1  0  0  0  0
  6  7  2  0  0  0  0
  7  8  1  0  0  0  0
  7 15  1  0  0  0  0
  8 16  1  0  0  0  0
  9 17  1  0  0  0  0
  9  8  2  0  0  0  0
 10  9  1  0  0  0  0
 11  2  1  0  0  0  0
 12  3  1  0  0  0  0
 13  4  1  0  0  0  0
 14  6  1  0  0  0  0
 18 20  1  0  0  0  0
 18 19  1  0  0  0  0
 21 27  1  0  0  0  0
 21 26  1  0  0  0  0
 22 21  2  0  0  0  0
 23 22  1  0  0  0  0
 23 24  2  0  0  0  0
 24 25  1  0  0  0  0
 25 26  2  0  0  0  0
 25 18  1  0  0  0  0
 28 22  1  0  0  0  0
 29 23  1  0  0  0  0
 30 29  1  0  0  0  0
 31 30  1  0  0  0  0
M  END
>  <minimizedAffinity>
-5.46494246

>  <minimizedRMSD>
0.465036839

$$$$
