
 OpenBabel03262519593D

 29 31  0  0  1  0  0  0  0  0999 V2000
   38.0120   23.5130   35.1060 C   0  0  0  0  0  0  0  0  0  0  0  0
   37.7890   22.6850   36.2040 C   0  0  0  0  0  0  0  0  0  0  0  0
   37.2750   21.5470   35.6510 N   0  0  0  0  0  0  0  0  0  0  0  0
   37.2160   21.7270   34.3320 C   0  0  0  0  0  0  0  0  0  0  0  0
   37.6620   22.9260   33.9710 N   0  0  0  0  0  0  0  0  0  0  0  0
   37.9790   22.8960   37.2510 H   0  0  0  0  0  0  0  0  0  0  0  0
   36.8330   20.9360   33.6910 H   0  0  0  0  0  0  0  0  0  0  0  0
   38.5540   24.8590   35.1890 C   0  0  0  0  0  0  0  0  0  0  0  0
   37.6880   25.9460   35.4330 C   0  0  0  0  0  0  0  0  0  0  0  0
   38.2600   27.2360   35.5090 C   0  0  0  0  0  0  0  0  0  0  0  0
   39.6050   27.3440   35.3430 N   0  0  0  0  0  0  0  0  0  0  0  0
   40.4010   26.2680   35.1100 C   0  0  0  0  0  0  0  0  0  0  0  0
   39.8810   25.0400   35.0340 N   0  0  0  0  0  0  0  0  0  0  0  0
   36.6350   25.8140   35.5580 H   0  0  0  0  0  0  0  0  0  0  0  0
   37.6410   28.1130   35.6940 H   0  0  0  0  0  0  0  0  0  0  0  0
   41.4670   26.3420   34.9760 H   0  0  0  0  0  0  0  0  0  0  0  0
   37.7050   23.3670   32.6260 C   0  0  1  0  0  0  0  0  0  0  0  0
   38.6440   24.2990   32.0620 C   0  0  0  0  0  0  0  0  0  0  0  0
   38.8310   22.7720   31.8180 C   0  0  2  0  0  0  0  0  0  0  0  0
   36.6720   23.2980   32.1350 H   0  0  0  0  0  0  0  0  0  0  0  0
   38.3120   24.8970   31.1780 H   0  0  0  0  0  0  0  0  0  0  0  0
   39.4090   24.8490   32.6380 H   0  0  0  0  0  0  0  0  0  0  0  0
   38.5150   22.4180   30.3780 C   0  0  0  0  0  0  0  0  0  0  0  0
   37.6260   21.3670   30.3290 F   0  0  0  0  0  0  0  0  0  0  0  0
   37.7630   23.5220   29.7910 F   0  0  0  0  0  0  0  0  0  0  0  0
   39.5940   22.2740   29.5920 F   0  0  0  0  0  0  0  0  0  0  0  0
   40.2110   22.4580   32.3410 C   0  0  0  0  0  2  0  0  0  0  0  0
   40.3400   20.9660   32.5240 C   0  0  0  0  0  2  0  0  0  0  0  0
   41.4500   20.7120   32.4850 H   0  0  0  0  0  0  0  0  0  0  0  0
  1  8  1  0  0  0  0
  1  2  2  0  0  0  0
  2  6  1  0  0  0  0
  3  2  1  0  0  0  0
  4  3  2  0  0  0  0
  5  4  1  0  0  0  0
  5  1  1  0  0  0  0
  7  4  1  0  0  0  0
  8  9  1  0  0  0  0
  9 10  2  0  0  0  0
  9 14  1  0  0  0  0
 10 15  1  0  0  0  0
 11 10  1  0  0  0  0
 12 11  2  0  0  0  0
 13 12  1  0  0  0  0
 13  8  2  0  0  0  0
 16 12  1  0  0  0  0
 17 20  1  6  0  0  0
 17  5  1  0  0  0  0
 18 17  1  0  0  0  0
 18 22  1  0  0  0  0
 19 18  1  0  0  0  0
 19 27  1  1  0  0  0
 19 17  1  0  0  0  0
 21 18  1  0  0  0  0
 23 19  1  0  0  0  0
 24 23  1  0  0  0  0
 25 23  1  0  0  0  0
 26 23  1  0  0  0  0
 27 28  1  0  0  0  0
 29 28  1  0  0  0  0
M  END
>  <minimizedAffinity>
-3.33442068

>  <minimizedRMSD>
5.39152861

$$$$
