
 OpenBabel03262512273D

 41 44  0  0  1  0  0  0  0  0999 V2000
   37.0820   23.0340   32.8620 C   0  0  2  0  0  0  0  0  0  0  0  0
   36.6680   21.5590   32.7810 C   0  0  0  0  0  0  0  0  0  0  0  0
   35.4700   21.6960   31.8400 C   0  0  0  0  0  0  0  0  0  0  0  0
   35.6280   23.0560   31.1460 C   0  0  0  0  0  0  0  0  0  0  0  0
   37.1040   23.3290   31.4220 C   0  0  1  0  0  0  0  0  0  0  0  0
   36.2330   23.5190   33.3510 H   0  0  0  0  0  0  0  0  0  0  0  0
   36.3820   21.1700   33.7750 H   0  0  0  0  0  0  0  0  0  0  0  0
   37.4520   20.9840   32.2870 H   0  0  0  0  0  0  0  0  0  0  0  0
   34.5580   21.7670   32.4890 H   0  0  0  0  0  0  0  0  0  0  0  0
   35.3990   20.8750   31.1280 H   0  0  0  0  0  0  0  0  0  0  0  0
   34.9540   23.7950   31.5730 H   0  0  0  0  0  0  0  0  0  0  0  0
   35.4640   22.9070   30.0420 H   0  0  0  0  0  0  0  0  0  0  0  0
   37.6200   22.4460   30.9330 H   0  0  0  0  0  0  0  0  0  0  0  0
   37.5960   24.5500   30.8990 C   0  0  0  0  0  0  0  0  0  0  0  0
   38.7160   24.6780   30.0550 C   0  0  0  0  0  0  0  0  0  0  0  0
   38.8890   25.9620   29.7590 N   0  0  0  0  0  0  0  0  0  0  0  0
   37.9650   26.7350   30.3390 C   0  0  0  0  0  0  0  0  0  0  0  0
   37.7600   28.0900   30.3130 C   0  0  0  0  0  0  0  0  0  0  0  0
   36.6970   28.6360   31.0250 C   0  0  0  0  0  0  0  0  0  0  0  0
   35.8880   27.7700   31.7360 C   0  0  0  0  0  0  0  0  0  0  0  0
   36.1140   26.4020   31.7500 C   0  0  0  0  0  0  0  0  0  0  0  0
   37.1610   25.8580   31.0480 C   0  0  0  0  0  0  0  0  0  0  0  0
   39.3260   23.8370   29.7150 H   0  0  0  0  0  0  0  0  0  0  0  0
   39.6760   26.2960   29.1340 H   0  0  0  0  0  0  0  0  0  0  0  0
   38.4100   28.7180   29.7500 H   0  0  0  0  0  0  0  0  0  0  0  0
   36.4960   29.6900   31.0350 H   0  0  0  0  0  0  0  0  0  0  0  0
   35.0460   28.1330   32.3090 H   0  0  0  0  0  0  0  0  0  0  0  0
   35.4820   25.7390   32.3030 H   0  0  0  0  0  0  0  0  0  0  0  0
   38.3330   23.2180   33.5810 C   0  0  0  0  0  0  0  0  0  0  0  0
   39.3500   22.5460   33.2130 O   0  0  0  0  0  0  0  0  0  0  0  0
   38.5390   26.4370   35.3250 C   0  0  0  0  0  0  0  0  0  0  0  0
   38.5420   25.4660   34.2900 C   0  0  0  0  0  0  0  0  0  0  0  0
   38.3190   24.1670   34.6760 C   0  0  0  0  0  0  0  0  0  0  0  0
   38.1160   23.8860   35.9760 N   0  0  0  0  0  0  0  0  0  0  0  0
   38.1140   24.8070   36.9430 C   0  0  0  0  0  0  0  0  0  0  0  0
   38.3300   26.1030   36.6070 N   0  0  0  0  0  0  0  0  0  0  0  0
   38.7080   27.4800   35.0850 H   0  0  0  0  0  0  0  0  0  0  0  0
   38.7170   25.8050   33.2780 H   0  0  0  0  0  0  0  0  0  0  0  0
   37.8690   24.2870   38.3140 C   0  0  0  0  0  0  0  0  0  0  0  0
   38.9130   23.2950   38.7420 C   0  0  0  0  0  0  0  0  0  0  0  0
   39.3710   23.6270   39.7080 H   0  0  0  0  0  0  0  0  0  0  0  0
  1  6  1  1  0  0  0
  1 29  1  0  0  0  0
  2  1  1  0  0  0  0
  2  7  1  0  0  0  0
  3  9  1  0  0  0  0
  3  2  1  0  0  0  0
  4  5  1  0  0  0  0
  4 11  1  0  0  0  0
  4  3  1  0  0  0  0
  5 13  1  6  0  0  0
  5  1  1  0  0  0  0
  8  2  1  0  0  0  0
 10  3  1  0  0  0  0
 12  4  1  0  0  0  0
 14 22  1  0  0  0  0
 14  5  1  0  0  0  0
 15 14  2  0  0  0  0
 16 15  1  0  0  0  0
 16 17  1  0  0  0  0
 17 22  1  0  0  0  0
 18 17  2  0  0  0  0
 18 19  1  0  0  0  0
 19 26  1  0  0  0  0
 19 20  2  0  0  0  0
 20 21  1  0  0  0  0
 20 27  1  0  0  0  0
 21 28  1  0  0  0  0
 22 21  2  0  0  0  0
 23 15  1  0  0  0  0
 24 16  1  0  0  0  0
 25 18  1  0  0  0  0
 29 33  1  0  0  0  0
 30 29  2  0  0  0  0
 31 36  1  0  0  0  0
 32 33  1  0  0  0  0
 32 31  2  0  0  0  0
 33 34  2  0  0  0  0
 34 35  1  0  0  0  0
 35 39  1  0  0  0  0
 36 35  2  0  0  0  0
 37 31  1  0  0  0  0
 38 32  1  0  0  0  0
 39 40  1  0  0  0  0
 40 41  1  0  0  0  0
M  END
>  <minimizedAffinity>
-5.49108315

>  <minimizedRMSD>
1.45193982

$$$$
