
 OpenBabel03262519593D

 30 32  0  0  1  0  0  0  0  0999 V2000
   38.2190   23.6310   33.4820 C   0  0  0  0  0  0  0  0  0  0  0  0
   37.3270   22.6720   33.0030 C   0  0  0  0  0  0  0  0  0  0  0  0
   38.0400   21.5080   33.0710 N   0  0  0  0  0  0  0  0  0  0  0  0
   39.2420   21.7980   33.5540 C   0  0  0  0  0  0  0  0  0  0  0  0
   39.3810   23.0920   33.8160 N   0  0  0  0  0  0  0  0  0  0  0  0
   36.3240   22.8940   32.6770 H   0  0  0  0  0  0  0  0  0  0  0  0
   39.8900   20.9300   33.6460 H   0  0  0  0  0  0  0  0  0  0  0  0
   37.9210   25.0500   33.5920 C   0  0  0  0  0  0  0  0  0  0  0  0
   38.1900   25.9040   32.5020 C   0  0  0  0  0  0  0  0  0  0  0  0
   37.8820   27.2740   32.6450 C   0  0  0  0  0  0  0  0  0  0  0  0
   37.3450   27.6750   33.8280 N   0  0  0  0  0  0  0  0  0  0  0  0
   37.1040   26.8230   34.8500 C   0  0  0  0  0  0  0  0  0  0  0  0
   37.3880   25.5160   34.7360 N   0  0  0  0  0  0  0  0  0  0  0  0
   38.6190   25.4890   31.6010 H   0  0  0  0  0  0  0  0  0  0  0  0
   38.0800   27.9410   31.8230 H   0  0  0  0  0  0  0  0  0  0  0  0
   36.6750   27.2970   35.7220 H   0  0  0  0  0  0  0  0  0  0  0  0
   40.5700   23.6530   34.3420 C   0  0  1  0  0  0  0  0  0  0  0  0
   40.6670   24.7050   35.3130 C   0  0  0  0  0  0  0  0  0  0  0  0
   40.9060   23.2250   35.7320 C   0  0  0  0  0  0  0  0  0  0  0  0
   41.4350   23.5830   33.5930 H   0  0  0  0  0  0  0  0  0  0  0  0
   39.7710   25.1550   35.7420 H   0  0  0  0  0  0  0  0  0  0  0  0
   41.5440   25.3780   35.3640 H   0  0  0  0  0  0  0  0  0  0  0  0
   42.3690   22.9820   36.0410 C   0  0  0  0  0  0  0  0  0  0  0  0
   42.5430   21.7150   36.5630 F   0  0  0  0  0  0  0  0  0  0  0  0
   43.0990   22.9310   34.7790 F   0  0  0  0  0  0  0  0  0  0  0  0
   42.9440   23.9560   36.7630 F   0  0  0  0  0  0  0  0  0  0  0  0
   39.9720   22.9180   36.8760 C   0  0  0  0  0  0  0  0  0  0  0  0
   40.6710   23.0330   38.0570 F   0  0  0  0  0  0  0  0  0  0  0  0
   39.6470   21.5730   36.7620 F   0  0  0  0  0  0  0  0  0  0  0  0
   38.8870   23.7190   36.9650 F   0  0  0  0  0  0  0  0  0  0  0  0
  1  8  1  0  0  0  0
  1  5  1  0  0  0  0
  2  3  1  0  0  0  0
  2  1  2  0  0  0  0
  3  4  2  0  0  0  0
  4  7  1  0  0  0  0
  4  5  1  0  0  0  0
  5 17  1  0  0  0  0
  6  2  1  0  0  0  0
  8 13  1  0  0  0  0
  9 10  1  0  0  0  0
  9  8  2  0  0  0  0
 10 11  2  0  0  0  0
 11 12  1  0  0  0  0
 12 16  1  0  0  0  0
 13 12  2  0  0  0  0
 14  9  1  0  0  0  0
 15 10  1  0  0  0  0
 17 20  1  6  0  0  0
 17 18  1  0  0  0  0
 17 19  1  0  0  0  0
 18 22  1  0  0  0  0
 18 19  1  0  0  0  0
 18 21  1  0  0  0  0
 19 23  1  0  0  0  0
 19 27  1  0  0  0  0
 23 24  1  0  0  0  0
 23 26  1  0  0  0  0
 25 23  1  0  0  0  0
 27 30  1  0  0  0  0
 27 28  1  0  0  0  0
 29 27  1  0  0  0  0
M  END
>  <minimizedAffinity>
-4.22663689

>  <minimizedRMSD>
3.28089881

$$$$
