
 OpenBabel03262519273D

 28 30  0  0  0  0  0  0  0  0999 V2000
   41.8560   22.1080   36.8110 C   0  0  0  0  0  0  0  0  0  0  0  0
   42.4280   23.2410   36.2410 C   0  0  0  0  0  0  0  0  0  0  0  0
   43.6840   22.9960   35.8490 N   0  0  0  0  0  0  0  0  0  0  0  0
   44.0060   21.7220   36.1280 C   0  0  0  0  0  0  0  0  0  0  0  0
   45.1420   20.9660   35.9400 C   0  0  0  0  0  0  0  0  0  0  0  0
   45.1820   19.6390   36.3410 C   0  0  0  0  0  0  0  0  0  0  0  0
   44.0480   19.0710   36.9430 C   0  0  0  0  0  0  0  0  0  0  0  0
   42.9130   19.8410   37.1260 C   0  0  0  0  0  0  0  0  0  0  0  0
   42.8850   21.1770   36.7170 C   0  0  0  0  0  0  0  0  0  0  0  0
   41.9200   24.2050   36.1290 H   0  0  0  0  0  0  0  0  0  0  0  0
   44.3230   23.7080   35.3860 H   0  0  0  0  0  0  0  0  0  0  0  0
   45.9990   21.4650   35.4630 H   0  0  0  0  0  0  0  0  0  0  0  0
   46.0810   19.0530   36.1890 H   0  0  0  0  0  0  0  0  0  0  0  0
   44.0500   18.0350   37.2670 H   0  0  0  0  0  0  0  0  0  0  0  0
   42.0350   19.3890   37.5960 H   0  0  0  0  0  0  0  0  0  0  0  0
   40.5850   21.9880   37.3230 O   0  0  0  0  0  0  0  0  0  0  0  0
   39.6240   22.9610   37.3070 C   0  0  0  0  0  0  0  0  0  0  0  0
   38.9950   23.2270   38.5250 C   0  0  0  0  0  0  0  0  0  0  0  0
   38.0060   24.2140   38.5560 C   0  0  0  0  0  0  0  0  0  0  0  0
   37.7140   24.8610   37.3970 N   0  0  0  0  0  0  0  0  0  0  0  0
   38.3540   24.5660   36.2360 C   0  0  0  0  0  0  0  0  0  0  0  0
   39.2950   23.6310   36.1930 N   0  0  0  0  0  0  0  0  0  0  0  0
   39.2110   22.7240   39.4660 H   0  0  0  0  0  0  0  0  0  0  0  0
   37.5030   24.4360   39.4950 H   0  0  0  0  0  0  0  0  0  0  0  0
   37.9910   25.3110   34.9900 C   0  0  0  0  0  0  0  0  0  0  0  0
   39.0500   26.1590   34.6400 F   0  0  0  0  0  0  0  0  0  0  0  0
   36.9330   26.1500   35.3210 F   0  0  0  0  0  0  0  0  0  0  0  0
   37.6950   24.4590   33.9500 F   0  0  0  0  0  0  0  0  0  0  0  0
  1 16  1  0  0  0  0
  2  1  2  0  0  0  0
  3  4  1  0  0  0  0
  3  2  1  0  0  0  0
  4  9  1  0  0  0  0
  5  4  2  0  0  0  0
  5  6  1  0  0  0  0
  6  7  2  0  0  0  0
  7  8  1  0  0  0  0
  7 14  1  0  0  0  0
  8 15  1  0  0  0  0
  9  1  1  0  0  0  0
  9  8  2  0  0  0  0
 10  2  1  0  0  0  0
 11  3  1  0  0  0  0
 12  5  1  0  0  0  0
 13  6  1  0  0  0  0
 17 16  1  0  0  0  0
 17 18  1  0  0  0  0
 18 19  2  0  0  0  0
 18 23  1  0  0  0  0
 19 24  1  0  0  0  0
 20 19  1  0  0  0  0
 21 20  2  0  0  0  0
 22 21  1  0  0  0  0
 22 17  2  0  0  0  0
 25 27  1  0  0  0  0
 25 21  1  0  0  0  0
 26 25  1  0  0  0  0
 28 25  1  0  0  0  0
M  END
>  <minimizedAffinity>
-4.79195404

>  <minimizedRMSD>
0.991941512

$$$$
