
 OpenBabel03262519593D

 30 32  0  0  1  0  0  0  0  0999 V2000
   38.2230   23.6280   33.4790 C   0  0  0  0  0  0  0  0  0  0  0  0
   37.3310   22.6690   33.0010 C   0  0  0  0  0  0  0  0  0  0  0  0
   38.0420   21.5050   33.0710 N   0  0  0  0  0  0  0  0  0  0  0  0
   39.2450   21.7930   33.5540 C   0  0  0  0  0  0  0  0  0  0  0  0
   39.3840   23.0880   33.8150 N   0  0  0  0  0  0  0  0  0  0  0  0
   36.3280   22.8920   32.6730 H   0  0  0  0  0  0  0  0  0  0  0  0
   39.8910   20.9250   33.6480 H   0  0  0  0  0  0  0  0  0  0  0  0
   37.9270   25.0470   33.5870 C   0  0  0  0  0  0  0  0  0  0  0  0
   38.2030   25.9000   32.4970 C   0  0  0  0  0  0  0  0  0  0  0  0
   37.8960   27.2710   32.6380 C   0  0  0  0  0  0  0  0  0  0  0  0
   37.3540   27.6740   33.8190 N   0  0  0  0  0  0  0  0  0  0  0  0
   37.1060   26.8220   34.8390 C   0  0  0  0  0  0  0  0  0  0  0  0
   37.3890   25.5140   34.7280 N   0  0  0  0  0  0  0  0  0  0  0  0
   38.6350   25.4840   31.5980 H   0  0  0  0  0  0  0  0  0  0  0  0
   38.0980   27.9380   31.8170 H   0  0  0  0  0  0  0  0  0  0  0  0
   36.6740   27.2970   35.7090 H   0  0  0  0  0  0  0  0  0  0  0  0
   40.5740   23.6480   34.3410 C   0  0  1  0  0  0  0  0  0  0  0  0
   40.6720   24.7020   35.3100 C   0  0  0  0  0  0  0  0  0  0  0  0
   40.9080   23.2230   35.7320 C   0  0  0  0  0  0  0  0  0  0  0  0
   41.4390   23.5760   33.5930 H   0  0  0  0  0  0  0  0  0  0  0  0
   39.7760   25.1540   35.7380 H   0  0  0  0  0  0  0  0  0  0  0  0
   41.5490   25.3740   35.3610 H   0  0  0  0  0  0  0  0  0  0  0  0
   42.3700   22.9780   36.0430 C   0  0  0  0  0  0  0  0  0  0  0  0
   42.5420   21.7130   36.5690 F   0  0  0  0  0  0  0  0  0  0  0  0
   43.1010   22.9220   34.7820 F   0  0  0  0  0  0  0  0  0  0  0  0
   42.9470   23.9540   36.7610 F   0  0  0  0  0  0  0  0  0  0  0  0
   39.9730   22.9190   36.8760 C   0  0  0  0  0  0  0  0  0  0  0  0
   40.6710   23.0340   38.0570 F   0  0  0  0  0  0  0  0  0  0  0  0
   39.6460   21.5750   36.7630 F   0  0  0  0  0  0  0  0  0  0  0  0
   38.8900   23.7220   36.9630 F   0  0  0  0  0  0  0  0  0  0  0  0
  1  8  1  0  0  0  0
  1  5  1  0  0  0  0
  2  3  1  0  0  0  0
  2  1  2  0  0  0  0
  3  4  2  0  0  0  0
  4  7  1  0  0  0  0
  4  5  1  0  0  0  0
  5 17  1  0  0  0  0
  6  2  1  0  0  0  0
  8 13  1  0  0  0  0
  9 10  1  0  0  0  0
  9  8  2  0  0  0  0
 10 11  2  0  0  0  0
 11 12  1  0  0  0  0
 12 16  1  0  0  0  0
 13 12  2  0  0  0  0
 14  9  1  0  0  0  0
 15 10  1  0  0  0  0
 17 20  1  6  0  0  0
 17 18  1  0  0  0  0
 17 19  1  0  0  0  0
 18 22  1  0  0  0  0
 18 19  1  0  0  0  0
 18 21  1  0  0  0  0
 19 23  1  0  0  0  0
 19 27  1  0  0  0  0
 23 24  1  0  0  0  0
 23 26  1  0  0  0  0
 25 23  1  0  0  0  0
 27 30  1  0  0  0  0
 27 28  1  0  0  0  0
 29 27  1  0  0  0  0
M  END
>  <minimizedAffinity>
-4.21964788

>  <minimizedRMSD>
3.28178501

$$$$
