
     RDKit          3D

 30 32  0  0  0  0  0  0  0  0999 V2000
   37.8658   23.6988   33.5013 C   0  0  0  0  0  0  0  0  0  0  0  0
   37.4634   22.6561   32.6679 C   0  0  0  0  0  0  0  0  0  0  0  0
   37.4859   21.5628   33.4869 N   0  0  0  0  0  0  0  0  0  0  0  0
   37.8728   21.9670   34.6907 C   0  0  0  0  0  0  0  0  0  0  0  0
   38.1124   23.2726   34.7305 N   0  0  0  0  0  0  0  0  0  0  0  0
   38.0110   25.0820   33.0783 C   0  0  0  0  0  0  0  0  0  0  0  0
   39.2933   25.5841   32.7687 C   0  0  0  0  0  0  0  0  0  0  0  0
   39.3934   26.9305   32.3557 C   0  0  0  0  0  0  0  0  0  0  0  0
   38.2424   27.6515   32.2854 N   0  0  0  0  0  0  0  0  0  0  0  0
   37.0316   27.1315   32.5916 C   0  0  0  0  0  0  0  0  0  0  0  0
   36.9134   25.8531   32.9865 N   0  0  0  0  0  0  0  0  0  0  0  0
   38.5336   23.9476   35.9006 C   0  0  1  0  0  0  0  0  0  0  0  0
   38.0832   25.2293   36.3636 C   0  0  0  0  0  0  0  0  0  0  0  0
   37.5563   23.9235   37.0290 C   0  0  0  0  0  0  0  0  0  0  0  0
   38.1210   23.7640   38.4255 C   0  0  0  0  0  0  0  0  0  0  0  0
   37.5227   22.6954   39.0632 F   0  0  0  0  0  0  0  0  0  0  0  0
   39.5146   23.3511   38.3077 F   0  0  0  0  0  0  0  0  0  0  0  0
   38.1300   24.8970   39.1437 F   0  0  0  0  0  0  0  0  0  0  0  0
   37.2125   22.7823   31.6274 H   0  0  0  0  0  0  0  0  0  0  0  0
   37.9232   21.1635   35.4198 H   0  0  0  0  0  0  0  0  0  0  0  0
   40.1501   24.9313   32.8558 H   0  0  0  0  0  0  0  0  0  0  0  0
   40.3634   27.3315   32.1151 H   0  0  0  0  0  0  0  0  0  0  0  0
   36.2164   27.8325   32.4852 H   0  0  0  0  0  0  0  0  0  0  0  0
   39.6073   23.6631   36.1865 H   0  0  0  0  0  0  0  0  0  0  0  0
   37.3274   25.7888   35.8116 H   0  0  0  0  0  0  0  0  0  0  0  0
   38.7155   25.8820   36.9965 H   0  0  0  0  0  0  0  0  0  0  0  0
   36.0487   23.9578   36.9706 C   0  0  0  0  0  0  0  0  0  0  0  0
   35.6675   24.3535   35.7078 F   0  0  0  0  0  0  0  0  0  0  0  0
   35.6507   24.9801   37.8203 F   0  0  0  0  0  0  0  0  0  0  0  0
   35.4352   22.7829   37.2317 F   0  0  0  0  0  0  0  0  0  0  0  0
  1  5  1  0
  2  3  1  0
  2  1  2  0
  3  4  2  0
  4  5  1  0
  5 12  1  0
  6  1  1  0
  7  6  2  0
  8  7  1  0
  9  8  2  0
  9 10  1  0
 10 11  2  0
 11  6  1  0
 12 13  1  0
 12 14  1  0
 13 14  1  0
 14 15  1  0
 15 16  1  0
 15 18  1  0
 17 15  1  0
  2 19  1  0
  4 20  1  0
  7 21  1  0
  8 22  1  0
 10 23  1  0
 12 24  1  1
 13 25  1  0
 13 26  1  0
 27 28  1  0
 27 29  1  0
 27 30  1  0
 14 27  1  0
M  ISO  8  19  14  20  14  21  14  22  14  23  14  24  13  25  13  26  13
M  END
>  <DihAtoms>  (1) 
11,13,26,27

>  <DihDeg>  (1) 
-179.96340398848074

$$$$
