
 OpenBabel03262519593D

 30 32  0  0  1  0  0  0  0  0999 V2000
   38.2280   23.6360   33.4400 C   0  0  0  0  0  0  0  0  0  0  0  0
   37.3370   22.6820   32.9500 C   0  0  0  0  0  0  0  0  0  0  0  0
   38.0430   21.5150   33.0230 N   0  0  0  0  0  0  0  0  0  0  0  0
   39.2420   21.7970   33.5180 C   0  0  0  0  0  0  0  0  0  0  0  0
   39.3840   23.0900   33.7850 N   0  0  0  0  0  0  0  0  0  0  0  0
   36.3380   22.9110   32.6140 H   0  0  0  0  0  0  0  0  0  0  0  0
   39.8840   20.9260   33.6150 H   0  0  0  0  0  0  0  0  0  0  0  0
   37.9360   25.0560   33.5510 C   0  0  0  0  0  0  0  0  0  0  0  0
   38.2340   25.9130   32.4710 C   0  0  0  0  0  0  0  0  0  0  0  0
   37.9300   27.2850   32.6140 C   0  0  0  0  0  0  0  0  0  0  0  0
   37.3710   27.6840   33.7880 N   0  0  0  0  0  0  0  0  0  0  0  0
   37.1030   26.8280   34.8000 C   0  0  0  0  0  0  0  0  0  0  0  0
   37.3820   25.5190   34.6860 N   0  0  0  0  0  0  0  0  0  0  0  0
   38.6790   25.5000   31.5770 H   0  0  0  0  0  0  0  0  0  0  0  0
   38.1490   27.9550   31.8000 H   0  0  0  0  0  0  0  0  0  0  0  0
   36.6590   27.3000   35.6650 H   0  0  0  0  0  0  0  0  0  0  0  0
   40.5700   23.6440   34.3250 C   0  0  1  0  0  0  0  0  0  0  0  0
   40.6630   24.6930   35.2990 C   0  0  0  0  0  0  0  0  0  0  0  0
   40.8910   23.2100   35.7170 C   0  0  0  0  0  0  0  0  0  0  0  0
   41.4420   23.5710   33.5840 H   0  0  0  0  0  0  0  0  0  0  0  0
   39.7650   25.1450   35.7210 H   0  0  0  0  0  0  0  0  0  0  0  0
   41.5430   25.3610   35.3620 H   0  0  0  0  0  0  0  0  0  0  0  0
   42.3490   22.9590   36.0400 C   0  0  0  0  0  0  0  0  0  0  0  0
   42.5050   21.7060   36.6000 F   0  0  0  0  0  0  0  0  0  0  0  0
   43.0840   22.8610   34.7840 F   0  0  0  0  0  0  0  0  0  0  0  0
   42.9330   23.9480   36.7340 F   0  0  0  0  0  0  0  0  0  0  0  0
   39.9440   22.9050   36.8510 C   0  0  0  0  0  0  0  0  0  0  0  0
   38.9980   23.9030   36.9140 F   0  0  0  0  0  0  0  0  0  0  0  0
   40.6850   23.0160   38.0170 F   0  0  0  0  0  0  0  0  0  0  0  0
   39.2860   21.7270   36.7520 F   0  0  0  0  0  0  0  0  0  0  0  0
  1  8  1  0  0  0  0
  1  5  1  0  0  0  0
  2  3  1  0  0  0  0
  2  1  2  0  0  0  0
  3  4  2  0  0  0  0
  4  7  1  0  0  0  0
  4  5  1  0  0  0  0
  5 17  1  0  0  0  0
  6  2  1  0  0  0  0
  8 13  1  0  0  0  0
  9 10  1  0  0  0  0
  9  8  2  0  0  0  0
 10 11  2  0  0  0  0
 11 12  1  0  0  0  0
 12 16  1  0  0  0  0
 13 12  2  0  0  0  0
 14  9  1  0  0  0  0
 15 10  1  0  0  0  0
 17 20  1  6  0  0  0
 17 18  1  0  0  0  0
 17 19  1  0  0  0  0
 18 22  1  0  0  0  0
 18 19  1  0  0  0  0
 18 21  1  0  0  0  0
 19 23  1  0  0  0  0
 19 27  1  0  0  0  0
 23 24  1  0  0  0  0
 23 26  1  0  0  0  0
 25 23  1  0  0  0  0
 27 28  1  0  0  0  0
 27 29  1  0  0  0  0
 30 27  1  0  0  0  0
M  END
>  <minimizedAffinity>
-4.1930089

>  <minimizedRMSD>
3.25899458

$$$$
