
 OpenBabel03262519593D

 30 32  0  0  1  0  0  0  0  0999 V2000
   37.9230   24.0040   33.4230 C   0  0  0  0  0  0  0  0  0  0  0  0
   37.2440   22.8800   32.9550 C   0  0  0  0  0  0  0  0  0  0  0  0
   38.0680   21.8430   33.2890 N   0  0  0  0  0  0  0  0  0  0  0  0
   39.1310   22.3520   33.9010 C   0  0  0  0  0  0  0  0  0  0  0  0
   39.0690   23.6750   33.9980 N   0  0  0  0  0  0  0  0  0  0  0  0
   36.2900   22.9200   32.4540 H   0  0  0  0  0  0  0  0  0  0  0  0
   39.8520   21.6000   34.2080 H   0  0  0  0  0  0  0  0  0  0  0  0
   37.4450   25.3700   33.2900 C   0  0  0  0  0  0  0  0  0  0  0  0
   37.1390   25.8780   32.0100 C   0  0  0  0  0  0  0  0  0  0  0  0
   36.6710   27.2070   31.9210 C   0  0  0  0  0  0  0  0  0  0  0  0
   36.5490   27.9070   33.0810 N   0  0  0  0  0  0  0  0  0  0  0  0
   36.8550   27.3810   34.2890 C   0  0  0  0  0  0  0  0  0  0  0  0
   37.3010   26.1190   34.3970 N   0  0  0  0  0  0  0  0  0  0  0  0
   37.2690   25.2420   31.1450 H   0  0  0  0  0  0  0  0  0  0  0  0
   36.4310   27.6120   30.9530 H   0  0  0  0  0  0  0  0  0  0  0  0
   36.7040   28.0650   35.1130 H   0  0  0  0  0  0  0  0  0  0  0  0
   40.0790   24.4540   34.6130 C   0  0  1  0  0  0  0  0  0  0  0  0
   41.4940   24.2190   34.5640 C   0  0  0  0  0  0  0  0  0  0  0  0
   40.8520   25.3310   33.6840 C   0  0  0  0  0  0  0  0  0  0  0  0
   39.6910   24.9750   35.5580 H   0  0  0  0  0  0  0  0  0  0  0  0
   41.9030   23.3800   34.0010 H   0  0  0  0  0  0  0  0  0  0  0  0
   42.1750   24.5610   35.3680 H   0  0  0  0  0  0  0  0  0  0  0  0
   41.2290   26.7070   34.1920 C   0  0  0  0  0  0  0  0  0  0  0  0
   40.8470   27.6730   33.2820 F   0  0  0  0  0  0  0  0  0  0  0  0
   40.4090   27.0010   35.3620 F   0  0  0  0  0  0  0  0  0  0  0  0
   42.5040   26.8080   34.5980 F   0  0  0  0  0  0  0  0  0  0  0  0
   41.2510   25.0680   32.2530 C   0  0  0  0  0  0  0  0  0  0  0  0
   41.5340   23.7260   32.1160 F   0  0  0  0  0  0  0  0  0  0  0  0
   42.4560   25.7270   32.0590 F   0  0  0  0  0  0  0  0  0  0  0  0
   40.3190   25.3830   31.3270 F   0  0  0  0  0  0  0  0  0  0  0  0
  1  5  1  0  0  0  0
  2  3  1  0  0  0  0
  2  1  2  0  0  0  0
  3  4  2  0  0  0  0
  4  5  1  0  0  0  0
  4  7  1  0  0  0  0
  5 17  1  0  0  0  0
  6  2  1  0  0  0  0
  8  1  1  0  0  0  0
  8 13  1  0  0  0  0
  9  8  2  0  0  0  0
 10  9  1  0  0  0  0
 10 11  2  0  0  0  0
 11 12  1  0  0  0  0
 12 13  2  0  0  0  0
 12 16  1  0  0  0  0
 14  9  1  0  0  0  0
 15 10  1  0  0  0  0
 17 20  1  1  0  0  0
 18 17  1  0  0  0  0
 18 22  1  0  0  0  0
 19 23  1  0  0  0  0
 19 18  1  0  0  0  0
 19 17  1  0  0  0  0
 21 18  1  0  0  0  0
 23 26  1  0  0  0  0
 23 25  1  0  0  0  0
 24 23  1  0  0  0  0
 27 19  1  0  0  0  0
 28 27  1  0  0  0  0
 29 27  1  0  0  0  0
 30 27  1  0  0  0  0
M  END
>  <minimizedAffinity>
-3.76302958

>  <minimizedRMSD>
4.69712067

$$$$
