
 OpenBabel03262519593D

 30 32  0  0  1  0  0  0  0  0999 V2000
   38.4370   23.6260   33.7020 C   0  0  0  0  0  0  0  0  0  0  0  0
   37.5980   22.5230   33.5520 C   0  0  0  0  0  0  0  0  0  0  0  0
   38.4640   21.4700   33.4640 N   0  0  0  0  0  0  0  0  0  0  0  0
   39.6980   21.9510   33.5600 C   0  0  0  0  0  0  0  0  0  0  0  0
   39.7130   23.2710   33.7070 N   0  0  0  0  0  0  0  0  0  0  0  0
   36.5220   22.5870   33.5230 H   0  0  0  0  0  0  0  0  0  0  0  0
   40.4650   21.1840   33.5000 H   0  0  0  0  0  0  0  0  0  0  0  0
   37.9780   25.0000   33.8270 C   0  0  0  0  0  0  0  0  0  0  0  0
   37.8200   25.7880   32.6680 C   0  0  0  0  0  0  0  0  0  0  0  0
   37.3660   27.1150   32.8280 C   0  0  0  0  0  0  0  0  0  0  0  0
   37.1120   27.5420   34.0950 N   0  0  0  0  0  0  0  0  0  0  0  0
   37.2790   26.7530   35.1800 C   0  0  0  0  0  0  0  0  0  0  0  0
   37.7080   25.4870   35.0510 N   0  0  0  0  0  0  0  0  0  0  0  0
   38.0470   25.3580   31.7020 H   0  0  0  0  0  0  0  0  0  0  0  0
   37.2380   27.7320   31.9550 H   0  0  0  0  0  0  0  0  0  0  0  0
   37.0350   27.2390   36.1140 H   0  0  0  0  0  0  0  0  0  0  0  0
   40.9060   24.0220   33.8350 C   0  0  1  0  0  0  0  0  0  0  0  0
   41.1880   25.0250   34.8220 C   0  0  0  0  0  0  0  0  0  0  0  0
   41.8000   23.6000   34.9540 C   0  0  0  0  0  0  0  0  0  0  0  0
   41.4290   24.1550   32.8240 H   0  0  0  0  0  0  0  0  0  0  0  0
   40.4570   25.2740   35.5920 H   0  0  0  0  0  0  0  0  0  0  0  0
   41.9020   25.8510   34.6340 H   0  0  0  0  0  0  0  0  0  0  0  0
   43.2910   23.6260   34.6900 C   0  0  0  0  0  0  0  0  0  0  0  0
   43.8470   22.3920   34.9660 F   0  0  0  0  0  0  0  0  0  0  0  0
   43.4970   23.7760   33.2540 F   0  0  0  0  0  0  0  0  0  0  0  0
   43.9300   24.6570   35.2640 F   0  0  0  0  0  0  0  0  0  0  0  0
   41.4210   23.0650   36.3130 C   0  0  0  0  0  0  0  0  0  0  0  0
   41.2920   21.6960   36.2250 F   0  0  0  0  0  0  0  0  0  0  0  0
   40.1460   23.5450   36.5770 F   0  0  0  0  0  0  0  0  0  0  0  0
   42.3020   23.3280   37.3020 F   0  0  0  0  0  0  0  0  0  0  0  0
  1  5  1  0  0  0  0
  1  8  1  0  0  0  0
  2  1  2  0  0  0  0
  3  2  1  0  0  0  0
  3  4  2  0  0  0  0
  4  5  1  0  0  0  0
  5 17  1  0  0  0  0
  6  2  1  0  0  0  0
  7  4  1  0  0  0  0
  8 13  1  0  0  0  0
  9 10  1  0  0  0  0
  9  8  2  0  0  0  0
 10 11  2  0  0  0  0
 11 12  1  0  0  0  0
 12 16  1  0  0  0  0
 13 12  2  0  0  0  0
 14  9  1  0  0  0  0
 15 10  1  0  0  0  0
 17 20  1  6  0  0  0
 17 18  1  0  0  0  0
 17 19  1  0  0  0  0
 18 19  1  0  0  0  0
 18 21  1  0  0  0  0
 19 27  1  0  0  0  0
 22 18  1  0  0  0  0
 23 19  1  0  0  0  0
 23 24  1  0  0  0  0
 23 26  1  0  0  0  0
 25 23  1  0  0  0  0
 27 29  1  0  0  0  0
 27 30  1  0  0  0  0
 28 27  1  0  0  0  0
M  END
>  <minimizedAffinity>
-3.65712094

>  <minimizedRMSD>
4.26593876

$$$$
