
 OpenBabel03262519593D

 30 32  0  0  1  0  0  0  0  0999 V2000
   37.9010   23.7890   32.8320 C   0  0  0  0  0  0  0  0  0  0  0  0
   37.5200   22.6150   33.4810 C   0  0  0  0  0  0  0  0  0  0  0  0
   38.7090   22.0150   33.7840 N   0  0  0  0  0  0  0  0  0  0  0  0
   39.6840   22.7990   33.3370 C   0  0  0  0  0  0  0  0  0  0  0  0
   39.2180   23.8950   32.7490 N   0  0  0  0  0  0  0  0  0  0  0  0
   36.4950   22.3320   33.6560 H   0  0  0  0  0  0  0  0  0  0  0  0
   40.6770   22.4050   33.5320 H   0  0  0  0  0  0  0  0  0  0  0  0
   36.9730   24.7740   32.2990 C   0  0  0  0  0  0  0  0  0  0  0  0
   35.9410   24.3590   31.4320 C   0  0  0  0  0  0  0  0  0  0  0  0
   35.0560   25.3430   30.9400 C   0  0  0  0  0  0  0  0  0  0  0  0
   35.2630   26.6270   31.3380 N   0  0  0  0  0  0  0  0  0  0  0  0
   36.2680   26.9820   32.1710 C   0  0  0  0  0  0  0  0  0  0  0  0
   37.1200   26.0630   32.6520 N   0  0  0  0  0  0  0  0  0  0  0  0
   35.8580   23.3120   31.1740 H   0  0  0  0  0  0  0  0  0  0  0  0
   34.2610   25.0450   30.2780 H   0  0  0  0  0  0  0  0  0  0  0  0
   36.2980   28.0400   32.3910 H   0  0  0  0  0  0  0  0  0  0  0  0
   40.0560   24.8910   32.1930 C   0  0  1  0  0  0  0  0  0  0  0  0
   41.2860   24.6810   31.4840 C   0  0  0  0  0  0  0  0  0  0  0  0
   39.9810   25.0210   30.7080 C   0  0  0  0  0  0  0  0  0  0  0  0
   39.9740   25.8790   32.7690 H   0  0  0  0  0  0  0  0  0  0  0  0
   41.6650   23.6740   31.3070 H   0  0  0  0  0  0  0  0  0  0  0  0
   42.0870   25.4450   31.4570 H   0  0  0  0  0  0  0  0  0  0  0  0
   40.0420   26.4220   30.1370 C   0  0  0  0  0  0  0  0  0  0  0  0
   38.9200   26.6770   29.3720 F   0  0  0  0  0  0  0  0  0  0  0  0
   39.9210   27.3700   31.2390 F   0  0  0  0  0  0  0  0  0  0  0  0
   41.2000   26.7130   29.5240 F   0  0  0  0  0  0  0  0  0  0  0  0
   39.7680   23.9410   29.6760 C   0  0  0  0  0  0  0  0  0  0  0  0
   38.4130   23.7430   29.5200 F   0  0  0  0  0  0  0  0  0  0  0  0
   40.2550   22.7680   30.2360 F   0  0  0  0  0  0  0  0  0  0  0  0
   40.2850   24.1990   28.4550 F   0  0  0  0  0  0  0  0  0  0  0  0
  1  2  2  0  0  0  0
  2  6  1  0  0  0  0
  2  3  1  0  0  0  0
  4  7  1  0  0  0  0
  4  3  2  0  0  0  0
  5  1  1  0  0  0  0
  5  4  1  0  0  0  0
  8 13  1  0  0  0  0
  8  1  1  0  0  0  0
  9  8  2  0  0  0  0
 10 11  2  0  0  0  0
 10  9  1  0  0  0  0
 11 12  1  0  0  0  0
 12 16  1  0  0  0  0
 12 13  2  0  0  0  0
 14  9  1  0  0  0  0
 15 10  1  0  0  0  0
 17  5  1  0  0  0  0
 17 20  1  1  0  0  0
 18 17  1  0  0  0  0
 19 18  1  0  0  0  0
 19 17  1  0  0  0  0
 21 18  1  0  0  0  0
 22 18  1  0  0  0  0
 23 19  1  0  0  0  0
 23 25  1  0  0  0  0
 24 23  1  0  0  0  0
 26 23  1  0  0  0  0
 27 29  1  0  0  0  0
 27 19  1  0  0  0  0
 28 27  1  0  0  0  0
 30 27  1  0  0  0  0
M  END
>  <minimizedAffinity>
-3.38407826

>  <minimizedRMSD>
6.13236237

$$$$
