
 OpenBabel03262519403D

 36 38  0  0  1  0  0  0  0  0999 V2000
   38.8600   25.2870   34.2370 N   0  0  0  0  0  0  0  0  0  0  0  0
   38.8710   25.4310   32.7960 C   0  0  0  0  0  0  0  0  0  0  0  0
   39.6150   26.6930   32.5220 C   0  0  0  0  0  0  0  0  0  0  0  0
   40.0120   27.1900   33.9040 C   0  0  0  0  0  0  0  0  0  0  0  0
   40.1190   25.8260   34.6390 C   0  0  2  0  0  0  0  0  0  0  0  0
   39.2740   24.5270   32.3100 H   0  0  0  0  0  0  0  0  0  0  0  0
   37.8160   25.5450   32.4700 H   0  0  0  0  0  0  0  0  0  0  0  0
   40.5960   26.4090   32.0380 H   0  0  0  0  0  0  0  0  0  0  0  0
   39.0740   27.4580   31.9470 H   0  0  0  0  0  0  0  0  0  0  0  0
   39.2030   27.7160   34.4090 H   0  0  0  0  0  0  0  0  0  0  0  0
   40.9760   27.7070   33.9000 H   0  0  0  0  0  0  0  0  0  0  0  0
   40.2320   26.0610   35.7150 H   0  0  0  0  0  0  0  0  0  0  0  0
   38.8340   23.9090   34.6300 C   0  0  0  0  0  0  0  0  0  0  0  0
   39.6920   23.4070   34.1760 H   0  0  0  0  0  0  0  0  0  0  0  0
   37.8860   23.4650   34.2680 H   0  0  0  0  0  0  0  0  0  0  0  0
   37.8830   24.2030   38.2860 C   0  0  0  0  0  0  0  0  0  0  0  0
   37.8380   24.3880   36.9040 C   0  0  0  0  0  0  0  0  0  0  0  0
   38.8280   23.7580   36.1210 C   0  0  0  0  0  0  0  0  0  0  0  0
   39.7660   23.0080   36.7670 N   0  0  0  0  0  0  0  0  0  0  0  0
   39.7540   22.8680   38.1100 C   0  0  0  0  0  0  0  0  0  0  0  0
   38.8120   23.4680   38.8510 N   0  0  0  0  0  0  0  0  0  0  0  0
   37.1330   24.6780   38.9010 H   0  0  0  0  0  0  0  0  0  0  0  0
   37.0790   24.9910   36.4150 H   0  0  0  0  0  0  0  0  0  0  0  0
   40.5600   22.2490   38.4410 H   0  0  0  0  0  0  0  0  0  0  0  0
   41.1800   25.0850   34.2010 O   0  0  0  0  0  0  0  0  0  0  0  0
   42.2490   25.0630   35.0600 C   0  0  2  0  0  0  0  0  0  0  0  0
   43.6010   25.1780   34.4270 C   0  0  0  0  0  0  0  0  0  0  0  0
   43.1860   23.8930   35.0820 C   0  0  1  0  0  0  0  0  0  0  0  0
   42.0160   25.4460   36.0550 H   0  0  0  0  0  0  0  0  0  0  0  0
   43.6750   25.0890   33.3030 H   0  0  0  0  0  0  0  0  0  0  0  0
   44.4190   25.7170   34.9470 H   0  0  0  0  0  0  0  0  0  0  0  0
   42.8590   23.0310   34.4790 H   0  0  0  0  0  0  0  0  0  0  0  0
   43.7580   23.5610   36.4380 C   0  0  0  0  0  0  0  0  0  0  0  0
   45.0330   23.0190   36.3060 F   0  0  0  0  0  0  0  0  0  0  0  0
   43.8430   24.6460   37.2710 F   0  0  0  0  0  0  0  0  0  0  0  0
   42.9910   22.5470   37.0020 F   0  0  0  0  0  0  0  0  0  0  0  0
  1 13  1  0  0  0  0
  1  5  1  0  0  0  0
  2  1  1  0  0  0  0
  3  2  1  0  0  0  0
  3  4  1  0  0  0  0
  4 10  1  0  0  0  0
  4  5  1  0  0  0  0
  5 12  1  1  0  0  0
  6  2  1  0  0  0  0
  7  2  1  0  0  0  0
  8  3  1  0  0  0  0
  9  3  1  0  0  0  0
 11  4  1  0  0  0  0
 13 18  1  0  0  0  0
 14 13  1  0  0  0  0
 15 13  1  0  0  0  0
 16 21  1  0  0  0  0
 16 22  1  0  0  0  0
 17 16  2  0  0  0  0
 18 19  2  0  0  0  0
 18 17  1  0  0  0  0
 19 20  1  0  0  0  0
 20 24  1  0  0  0  0
 20 21  2  0  0  0  0
 23 17  1  0  0  0  0
 25  5  1  0  0  0  0
 25 26  1  0  0  0  0
 26 28  1  0  0  0  0
 26 29  1  1  0  0  0
 27 31  1  0  0  0  0
 27 26  1  0  0  0  0
 27 28  1  0  0  0  0
 28 32  1  6  0  0  0
 28 33  1  0  0  0  0
 30 27  1  0  0  0  0
 33 36  1  0  0  0  0
 33 35  1  0  0  0  0
 34 33  1  0  0  0  0
M  END
>  <minimizedAffinity>
-4.37720442

>  <minimizedRMSD>
2.40884972

$$$$
