
 OpenBabel03262519593D

 30 32  0  0  1  0  0  0  0  0999 V2000
   38.3170   23.6330   33.4670 C   0  0  0  0  0  0  0  0  0  0  0  0
   37.4390   22.6570   32.9970 C   0  0  0  0  0  0  0  0  0  0  0  0
   38.1640   21.5030   33.0840 N   0  0  0  0  0  0  0  0  0  0  0  0
   39.3610   21.8120   33.5680 C   0  0  0  0  0  0  0  0  0  0  0  0
   39.4830   23.1120   33.8140 N   0  0  0  0  0  0  0  0  0  0  0  0
   36.4350   22.8640   32.6630 H   0  0  0  0  0  0  0  0  0  0  0  0
   40.0180   20.9530   33.6750 H   0  0  0  0  0  0  0  0  0  0  0  0
   38.0030   25.0490   33.5570 C   0  0  0  0  0  0  0  0  0  0  0  0
   38.3080   25.9000   32.4740 C   0  0  0  0  0  0  0  0  0  0  0  0
   37.9820   27.2680   32.5970 C   0  0  0  0  0  0  0  0  0  0  0  0
   37.3950   27.6710   33.7550 N   0  0  0  0  0  0  0  0  0  0  0  0
   37.1200   26.8220   34.7710 C   0  0  0  0  0  0  0  0  0  0  0  0
   37.4200   25.5170   34.6760 N   0  0  0  0  0  0  0  0  0  0  0  0
   38.7760   25.4840   31.5930 H   0  0  0  0  0  0  0  0  0  0  0  0
   38.2070   27.9330   31.7800 H   0  0  0  0  0  0  0  0  0  0  0  0
   36.6530   27.2970   35.6220 H   0  0  0  0  0  0  0  0  0  0  0  0
   40.6630   23.6930   34.3380 C   0  0  1  0  0  0  0  0  0  0  0  0
   40.7450   24.7290   35.3280 C   0  0  0  0  0  0  0  0  0  0  0  0
   41.0260   23.2480   35.7170 C   0  0  0  0  0  0  0  0  0  0  0  0
   41.5220   23.6590   33.5790 H   0  0  0  0  0  0  0  0  0  0  0  0
   39.8420   25.1470   35.7750 H   0  0  0  0  0  0  0  0  0  0  0  0
   41.6050   25.4230   35.3830 H   0  0  0  0  0  0  0  0  0  0  0  0
   42.4970   23.0370   36.0060 C   0  0  0  0  0  0  0  0  0  0  0  0
   42.7130   21.7550   36.4740 F   0  0  0  0  0  0  0  0  0  0  0  0
   43.2190   23.0590   34.7380 F   0  0  0  0  0  0  0  0  0  0  0  0
   43.0490   23.9970   36.7630 F   0  0  0  0  0  0  0  0  0  0  0  0
   40.1120   22.8960   36.8640 C   0  0  0  0  0  0  0  0  0  0  0  0
   39.6740   21.6010   36.6950 F   0  0  0  0  0  0  0  0  0  0  0  0
   38.9860   23.6940   36.7230 F   0  0  0  0  0  0  0  0  0  0  0  0
   40.6710   22.9790   38.0920 F   0  0  0  0  0  0  0  0  0  0  0  0
  1  8  1  0  0  0  0
  1  5  1  0  0  0  0
  2  3  1  0  0  0  0
  2  1  2  0  0  0  0
  3  4  2  0  0  0  0
  4  7  1  0  0  0  0
  4  5  1  0  0  0  0
  5 17  1  0  0  0  0
  6  2  1  0  0  0  0
  8 13  1  0  0  0  0
  9 10  1  0  0  0  0
  9  8  2  0  0  0  0
 10 11  2  0  0  0  0
 11 12  1  0  0  0  0
 12 16  1  0  0  0  0
 13 12  2  0  0  0  0
 14  9  1  0  0  0  0
 15 10  1  0  0  0  0
 17 20  1  6  0  0  0
 17 18  1  0  0  0  0
 17 19  1  0  0  0  0
 18 22  1  0  0  0  0
 18 19  1  0  0  0  0
 18 21  1  0  0  0  0
 19 23  1  0  0  0  0
 19 27  1  0  0  0  0
 23 24  1  0  0  0  0
 23 26  1  0  0  0  0
 25 23  1  0  0  0  0
 27 30  1  0  0  0  0
 28 27  1  0  0  0  0
 29 27  1  0  0  0  0
M  END
>  <minimizedAffinity>
-4.19624567

>  <minimizedRMSD>
3.34715676

$$$$
