
 OpenBabel03262519593D

 30 32  0  0  1  0  0  0  0  0999 V2000
   37.8450   23.6420   32.7060 C   0  0  0  0  0  0  0  0  0  0  0  0
   37.4340   22.4420   33.2860 C   0  0  0  0  0  0  0  0  0  0  0  0
   38.6080   21.8010   33.5630 N   0  0  0  0  0  0  0  0  0  0  0  0
   39.6020   22.5870   33.1670 C   0  0  0  0  0  0  0  0  0  0  0  0
   39.1640   23.7240   32.6390 N   0  0  0  0  0  0  0  0  0  0  0  0
   36.4020   22.1710   33.4380 H   0  0  0  0  0  0  0  0  0  0  0  0
   40.5860   22.1610   33.3460 H   0  0  0  0  0  0  0  0  0  0  0  0
   36.9430   24.6750   32.2240 C   0  0  0  0  0  0  0  0  0  0  0  0
   35.8880   24.3260   31.3540 C   0  0  0  0  0  0  0  0  0  0  0  0
   35.0290   25.3550   30.9120 C   0  0  0  0  0  0  0  0  0  0  0  0
   35.2800   26.6150   31.3570 N   0  0  0  0  0  0  0  0  0  0  0  0
   36.3040   26.9070   32.1900 C   0  0  0  0  0  0  0  0  0  0  0  0
   37.1330   25.9440   32.6240 N   0  0  0  0  0  0  0  0  0  0  0  0
   35.7700   23.2930   31.0560 H   0  0  0  0  0  0  0  0  0  0  0  0
   34.2180   25.1080   30.2480 H   0  0  0  0  0  0  0  0  0  0  0  0
   36.3690   27.9540   32.4510 H   0  0  0  0  0  0  0  0  0  0  0  0
   40.0280   24.7320   32.1450 C   0  0  1  0  0  0  0  0  0  0  0  0
   41.2700   24.5360   31.4550 C   0  0  0  0  0  0  0  0  0  0  0  0
   39.9870   24.9270   30.6660 C   0  0  0  0  0  0  0  0  0  0  0  0
   39.9460   25.6950   32.7620 H   0  0  0  0  0  0  0  0  0  0  0  0
   41.6400   23.5320   31.2420 H   0  0  0  0  0  0  0  0  0  0  0  0
   42.0810   25.2880   31.4780 H   0  0  0  0  0  0  0  0  0  0  0  0
   40.0790   26.3510   30.1580 C   0  0  0  0  0  0  0  0  0  0  0  0
   38.9700   26.6600   29.3950 F   0  0  0  0  0  0  0  0  0  0  0  0
   39.9650   27.2510   31.3010 F   0  0  0  0  0  0  0  0  0  0  0  0
   41.2490   26.6470   29.5710 F   0  0  0  0  0  0  0  0  0  0  0  0
   39.7830   23.8960   29.5840 C   0  0  0  0  0  0  0  0  0  0  0  0
   40.3540   24.3620   28.4200 F   0  0  0  0  0  0  0  0  0  0  0  0
   38.4170   23.8540   29.3410 F   0  0  0  0  0  0  0  0  0  0  0  0
   40.3130   22.6810   29.8390 F   0  0  0  0  0  0  0  0  0  0  0  0
  1  2  2  0  0  0  0
  2  6  1  0  0  0  0
  2  3  1  0  0  0  0
  4  7  1  0  0  0  0
  4  3  2  0  0  0  0
  5  1  1  0  0  0  0
  5  4  1  0  0  0  0
  8 13  1  0  0  0  0
  8  1  1  0  0  0  0
  9  8  2  0  0  0  0
 10  9  1  0  0  0  0
 10 11  2  0  0  0  0
 11 12  1  0  0  0  0
 12 16  1  0  0  0  0
 12 13  2  0  0  0  0
 14  9  1  0  0  0  0
 15 10  1  0  0  0  0
 17  5  1  0  0  0  0
 17 20  1  1  0  0  0
 18 22  1  0  0  0  0
 18 17  1  0  0  0  0
 19 18  1  0  0  0  0
 19 17  1  0  0  0  0
 21 18  1  0  0  0  0
 23 19  1  0  0  0  0
 23 25  1  0  0  0  0
 24 23  1  0  0  0  0
 26 23  1  0  0  0  0
 27 30  1  0  0  0  0
 27 19  1  0  0  0  0
 28 27  1  0  0  0  0
 29 27  1  0  0  0  0
M  END
>  <minimizedAffinity>
-3.38879061

>  <minimizedRMSD>
6.18241072

$$$$
