
 OpenBabel03262517303D

 20 21  0  0  0  0  0  0  0  0999 V2000
   37.3860   21.8950   34.8590 C   0  0  0  0  0  0  0  0  0  0  0  0
   36.3110   21.1120   34.9440 C   0  0  0  0  0  0  0  0  0  0  0  0
   35.6040   20.5510   33.9500 C   0  0  0  0  0  0  0  0  0  0  0  0
   36.2250   20.9510   32.6580 C   0  0  0  0  0  0  0  0  0  0  0  0
   37.7070   22.0550   33.0530 S   0  0  0  0  0  0  0  0  0  0  0  0
   35.7700   20.7530   35.8480 H   0  0  0  0  0  0  0  0  0  0  0  0
   34.8060   19.9540   33.6520 H   0  0  0  0  0  0  0  0  0  0  0  0
   39.9580   22.6100   37.2750 C   0  0  0  0  0  0  0  0  0  0  0  0
   39.2740   23.2490   38.3090 C   0  0  0  0  0  0  0  0  0  0  0  0
   37.9100   23.4450   38.1860 C   0  0  0  0  0  0  0  0  0  0  0  0
   37.2750   23.0040   37.0480 N   0  0  0  0  0  0  0  0  0  0  0  0
   37.9860   22.3840   36.0620 C   0  0  0  0  0  0  0  0  0  0  0  0
   39.3250   22.1840   36.1670 N   0  0  0  0  0  0  0  0  0  0  0  0
   41.0210   22.4880   37.4310 H   0  0  0  0  0  0  0  0  0  0  0  0
   39.6960   23.6200   39.2220 H   0  0  0  0  0  0  0  0  0  0  0  0
   37.2170   23.9140   38.8720 H   0  0  0  0  0  0  0  0  0  0  0  0
   36.0150   20.7330   31.2090 C   0  0  0  0  0  0  0  0  0  0  0  0
   35.1650   21.6920   30.6670 F   0  0  0  0  0  0  0  0  0  0  0  0
   37.2160   20.8370   30.5450 F   0  0  0  0  0  0  0  0  0  0  0  0
   35.3820   19.5430   31.0780 F   0  0  0  0  0  0  0  0  0  0  0  0
  1  2  2  0  0  0  0
  1 12  1  0  0  0  0
  2  6  1  0  0  0  0
  3  2  1  0  0  0  0
  4  5  1  0  0  0  0
  4  3  2  0  0  0  0
  5  1  1  0  0  0  0
  7  3  1  0  0  0  0
  8 14  1  0  0  0  0
  8  9  1  0  0  0  0
  9 15  1  0  0  0  0
 10  9  2  0  0  0  0
 10 16  1  0  0  0  0
 11 10  1  0  0  0  0
 12 13  1  0  0  0  0
 12 11  2  0  0  0  0
 13  8  2  0  0  0  0
 17  4  1  0  0  0  0
 18 17  1  0  0  0  0
 19 17  1  0  0  0  0
 20 17  1  0  0  0  0
M  END
>  <minimizedAffinity>
-4.64307594

>  <minimizedRMSD>
0.276478708

$$$$
