
 OpenBabel03262519313D

 38 41  0  0  0  0  0  0  0  0999 V2000
   40.1390   23.7290   35.7570 C   0  0  0  0  0  0  0  0  0  0  0  0
   40.3660   22.4240   36.2020 C   0  0  0  0  0  0  0  0  0  0  0  0
   41.7120   22.0320   36.3700 C   0  0  0  0  0  0  0  0  0  0  0  0
   42.6990   22.9150   36.1010 N   0  0  0  0  0  0  0  0  0  0  0  0
   42.4100   24.1690   35.6710 C   0  0  0  0  0  0  0  0  0  0  0  0
   41.1580   24.5560   35.5070 N   0  0  0  0  0  0  0  0  0  0  0  0
   43.3990   25.1580   35.3650 N   0  0  0  0  0  0  0  0  0  0  0  0
   43.3880   25.7960   34.1520 C   0  0  0  0  0  0  0  0  0  0  0  0
   44.3770   26.7490   33.9160 C   0  0  0  0  0  0  0  0  0  0  0  0
   45.3390   27.0420   34.8740 C   0  0  0  0  0  0  0  0  0  0  0  0
   46.2320   27.9100   34.6480 O   0  0  0  0  0  0  0  0  0  0  0  0
   45.3080   26.3900   36.0470 N   0  0  0  0  0  0  0  0  0  0  0  0
   44.3530   25.4700   36.2750 C   0  0  0  0  0  0  0  0  0  0  0  0
   44.3080   24.8500   37.3690 O   0  0  0  0  0  0  0  0  0  0  0  0
   39.5620   21.7270   36.4140 H   0  0  0  0  0  0  0  0  0  0  0  0
   41.9660   21.0380   36.7110 H   0  0  0  0  0  0  0  0  0  0  0  0
   42.6340   25.5620   33.4100 H   0  0  0  0  0  0  0  0  0  0  0  0
   44.3620   27.2500   32.9550 H   0  0  0  0  0  0  0  0  0  0  0  0
   46.0360   26.6130   36.7700 H   0  0  0  0  0  0  0  0  0  0  0  0
   38.8390   24.1070   35.5940 O   0  0  0  0  0  0  0  0  0  0  0  0
   38.1870   24.2620   34.3970 C   0  0  0  0  0  0  0  0  0  0  0  0
   37.8940   23.2630   33.4880 C   0  0  0  0  0  0  0  0  0  0  0  0
   37.2470   23.7710   32.4210 N   0  0  0  0  0  0  0  0  0  0  0  0
   37.0870   25.1140   32.5800 C   0  0  0  0  0  0  0  0  0  0  0  0
   36.5050   26.0840   31.7990 C   0  0  0  0  0  0  0  0  0  0  0  0
   36.4940   27.3900   32.2310 C   0  0  0  0  0  0  0  0  0  0  0  0
   37.0810   27.7040   33.4650 C   0  0  0  0  0  0  0  0  0  0  0  0
   37.6590   26.7140   34.2320 C   0  0  0  0  0  0  0  0  0  0  0  0
   37.6650   25.4080   33.7920 C   0  0  0  0  0  0  0  0  0  0  0  0
   38.1470   22.2230   33.6150 H   0  0  0  0  0  0  0  0  0  0  0  0
   36.8890   23.2780   31.5660 H   0  0  0  0  0  0  0  0  0  0  0  0
   36.0510   25.8600   30.8500 H   0  0  0  0  0  0  0  0  0  0  0  0
   36.0640   28.2200   31.6930 H   0  0  0  0  0  0  0  0  0  0  0  0
   37.0950   28.7340   33.8490 H   0  0  0  0  0  0  0  0  0  0  0  0
   38.2830   27.0610   35.5490 C   0  0  0  0  0  0  0  0  0  0  0  0
   37.8790   26.1710   36.5330 F   0  0  0  0  0  0  0  0  0  0  0  0
   37.8300   28.3170   35.9720 F   0  0  0  0  0  0  0  0  0  0  0  0
   39.6610   27.0190   35.5110 F   0  0  0  0  0  0  0  0  0  0  0  0
  1  2  1  0  0  0  0
  2  3  2  0  0  0  0
  2 15  1  0  0  0  0
  3 16  1  0  0  0  0
  4  3  1  0  0  0  0
  5  4  2  0  0  0  0
  6  5  1  0  0  0  0
  6  1  2  0  0  0  0
  7  5  1  0  0  0  0
  7 13  1  0  0  0  0
  8  7  1  0  0  0  0
  9  8  2  0  0  0  0
  9 10  1  0  0  0  0
 10 12  1  0  0  0  0
 11 10  2  0  0  0  0
 12 13  1  0  0  0  0
 12 19  1  0  0  0  0
 13 14  2  0  0  0  0
 17  8  1  0  0  0  0
 18  9  1  0  0  0  0
 20  1  1  0  0  0  0
 21 20  1  0  0  0  0
 22 30  1  0  0  0  0
 22 21  2  0  0  0  0
 23 24  1  0  0  0  0
 23 22  1  0  0  0  0
 24 29  1  0  0  0  0
 25 26  1  0  0  0  0
 25 24  2  0  0  0  0
 26 27  2  0  0  0  0
 27 34  1  0  0  0  0
 27 28  1  0  0  0  0
 28 35  1  0  0  0  0
 29 28  2  0  0  0  0
 29 21  1  0  0  0  0
 31 23  1  0  0  0  0
 32 25  1  0  0  0  0
 33 26  1  0  0  0  0
 35 37  1  0  0  0  0
 35 36  1  0  0  0  0
 38 35  1  0  0  0  0
M  END
>  <minimizedAffinity>
-6.28322601

>  <minimizedRMSD>
8.29008293

$$$$
