
 OpenBabel03262519133D

 23 24  0  0  0  0  0  0  0  0999 V2000
   37.2970   26.9790   33.5520 C   0  0  0  0  0  0  0  0  0  0  0  0
   36.4940   28.0710   33.8130 C   0  0  0  0  0  0  0  0  0  0  0  0
   36.2000   28.9100   32.7890 C   0  0  0  0  0  0  0  0  0  0  0  0
   36.7310   28.6150   31.5310 C   0  0  0  0  0  0  0  0  0  0  0  0
   37.6970   27.0610   31.8250 S   0  0  0  0  0  0  0  0  0  0  0  0
   36.0990   28.2680   34.8060 H   0  0  0  0  0  0  0  0  0  0  0  0
   35.5950   29.8050   32.8040 H   0  0  0  0  0  0  0  0  0  0  0  0
   37.8930   26.2290   35.8880 C   0  0  0  0  0  0  0  0  0  0  0  0
   37.7190   25.9830   34.5070 C   0  0  0  0  0  0  0  0  0  0  0  0
   37.9680   24.7120   34.0060 C   0  0  0  0  0  0  0  0  0  0  0  0
   38.3750   23.7700   34.9050 N   0  0  0  0  0  0  0  0  0  0  0  0
   38.5340   24.0460   36.2420 C   0  0  0  0  0  0  0  0  0  0  0  0
   38.2880   25.2730   36.7010 N   0  0  0  0  0  0  0  0  0  0  0  0
   37.6770   27.2540   36.2120 H   0  0  0  0  0  0  0  0  0  0  0  0
   37.8640   24.4270   32.9710 H   0  0  0  0  0  0  0  0  0  0  0  0
   38.9820   22.9720   37.1680 C   0  0  0  0  0  0  0  0  0  0  0  0
   40.4670   22.7540   37.1200 C   0  0  0  0  0  0  0  0  0  0  0  0
   38.6610   23.4600   38.5830 C   0  0  0  0  0  0  0  0  0  0  0  0
   36.6660   29.2090   30.2600 C   0  0  0  0  0  0  0  0  0  0  0  0
   37.0800   28.6190   29.2550 O   0  0  0  0  0  0  0  0  0  0  0  0
   36.1140   30.5300   30.0840 N   0  0  0  0  0  0  0  0  0  0  0  0
   35.1230   30.8250   29.9510 H   0  0  0  0  0  0  0  0  0  0  0  0
   36.7100   31.3900   30.0730 H   0  0  0  0  0  0  0  0  0  0  0  0
  1  2  2  0  0  0  0
  1  9  1  0  0  0  0
  2  6  1  0  0  0  0
  3  7  1  0  0  0  0
  3  2  1  0  0  0  0
  4  5  1  0  0  0  0
  4  3  2  0  0  0  0
  5  1  1  0  0  0  0
  8 14  1  0  0  0  0
  8 13  1  0  0  0  0
  9  8  2  0  0  0  0
 10  9  1  0  0  0  0
 10 11  2  0  0  0  0
 11 12  1  0  0  0  0
 12 13  2  0  0  0  0
 12 16  1  0  0  0  0
 15 10  1  0  0  0  0
 16 18  1  0  0  0  0
 17 16  1  0  0  0  0
 19  4  1  0  0  0  0
 20 19  2  0  0  0  0
 21 19  1  0  0  0  0
 22 21  1  0  0  0  0
 23 21  1  0  0  0  0
M  END
>  <minimizedAffinity>
-4.67170048

>  <minimizedRMSD>
2.55178285

$$$$
