
 OpenBabel03262519553D

 26 28  0  0  1  0  0  0  0  0999 V2000
   38.0390   23.8460   34.3450 C   0  0  0  0  0  0  0  0  0  0  0  0
   38.1430   25.0860   33.7370 C   0  0  0  0  0  0  0  0  0  0  0  0
   37.6460   24.8860   32.4910 N   0  0  0  0  0  0  0  0  0  0  0  0
   37.2790   23.6130   32.3850 C   0  0  0  0  0  0  0  0  0  0  0  0
   37.5140   22.9400   33.5320 N   0  0  0  0  0  0  0  0  0  0  0  0
   38.5450   25.9730   34.2210 H   0  0  0  0  0  0  0  0  0  0  0  0
   36.8530   23.2790   31.4370 H   0  0  0  0  0  0  0  0  0  0  0  0
   38.4510   23.5470   35.7160 C   0  0  0  0  0  0  0  0  0  0  0  0
   39.7050   22.9900   35.9740 C   0  0  0  0  0  0  0  0  0  0  0  0
   40.0730   22.7130   37.2990 C   0  0  0  0  0  0  0  0  0  0  0  0
   39.1700   23.0110   38.2630 N   0  0  0  0  0  0  0  0  0  0  0  0
   37.9510   23.5540   37.9900 C   0  0  0  0  0  0  0  0  0  0  0  0
   37.5950   23.8210   36.7200 N   0  0  0  0  0  0  0  0  0  0  0  0
   40.4060   22.7640   35.1620 H   0  0  0  0  0  0  0  0  0  0  0  0
   41.0340   22.2810   37.5510 H   0  0  0  0  0  0  0  0  0  0  0  0
   37.2600   23.7740   38.8090 H   0  0  0  0  0  0  0  0  0  0  0  0
   37.2150   21.5350   33.7140 C   0  0  1  0  0  0  0  0  0  0  0  0
   36.1220   21.0530   34.5460 C   0  0  0  0  0  0  0  0  0  0  0  0
   35.8830   21.1500   33.0560 C   0  0  2  0  0  0  0  0  0  0  0  0
   38.0620   20.8580   33.5390 H   0  0  0  0  0  0  0  0  0  0  0  0
   35.6170   21.7580   35.2410 H   0  0  0  0  0  0  0  0  0  0  0  0
   36.2000   20.0310   34.9670 H   0  0  0  0  0  0  0  0  0  0  0  0
   35.1620   21.9480   32.8040 H   0  0  0  0  0  0  0  0  0  0  0  0
   35.8140   19.9220   32.2000 C   0  0  0  0  0  3  0  0  0  0  0  0
   37.2080   19.6590   31.6640 C   0  0  0  0  0  1  0  0  0  0  0  0
   35.3560   18.7020   32.9280 C   0  0  0  0  0  1  0  0  0  0  0  0
  1  8  1  0  0  0  0
  2  6  1  0  0  0  0
  2  1  2  0  0  0  0
  3  2  1  0  0  0  0
  4  3  2  0  0  0  0
  4  5  1  0  0  0  0
  5 17  1  0  0  0  0
  5  1  1  0  0  0  0
  7  4  1  0  0  0  0
  8  9  2  0  0  0  0
  8 13  1  0  0  0  0
  9 10  1  0  0  0  0
 10 15  1  0  0  0  0
 10 11  2  0  0  0  0
 12 11  1  0  0  0  0
 12 16  1  0  0  0  0
 13 12  2  0  0  0  0
 14  9  1  0  0  0  0
 17 20  1  6  0  0  0
 17 18  1  0  0  0  0
 18 22  1  0  0  0  0
 18 21  1  0  0  0  0
 19 23  1  6  0  0  0
 19 17  1  0  0  0  0
 19 18  1  0  0  0  0
 24 26  1  0  0  0  0
 24 19  1  0  0  0  0
 25 24  1  0  0  0  0
M  END
>  <minimizedAffinity>
-4.36905718

>  <minimizedRMSD>
0.744266629

$$$$
