
     RDKit          3D

 33 35  0  0  0  0  0  0  0  0999 V2000
   38.0294   23.4760   34.6171 C   0  0  0  0  0  0  0  0  0  0  0  0
   38.2584   24.5663   33.7939 C   0  0  0  0  0  0  0  0  0  0  0  0
   37.7650   24.1801   32.5895 N   0  0  0  0  0  0  0  0  0  0  0  0
   37.2826   22.9468   32.7100 C   0  0  0  0  0  0  0  0  0  0  0  0
   37.4356   22.4828   33.9692 N   0  0  0  0  0  0  0  0  0  0  0  0
   38.3895   23.4041   36.0329 C   0  0  0  0  0  0  0  0  0  0  0  0
   39.5849   22.8032   36.4315 C   0  0  0  0  0  0  0  0  0  0  0  0
   39.9043   22.7485   37.7962 C   0  0  0  0  0  0  0  0  0  0  0  0
   39.0136   23.2937   38.6565 N   0  0  0  0  0  0  0  0  0  0  0  0
   37.8520   23.8759   38.2484 C   0  0  0  0  0  0  0  0  0  0  0  0
   37.5432   23.9297   36.9402 N   0  0  0  0  0  0  0  0  0  0  0  0
   37.0046   21.1693   34.3980 C   0  0  1  0  0  0  0  0  0  0  0  0
   35.8492   20.9491   35.2555 C   0  0  0  0  0  0  0  0  0  0  0  0
   35.6625   20.7795   33.7652 C   0  0  2  0  0  0  0  0  0  0  0  0
   38.7335   25.4890   34.1176 H   0  0  0  0  0  0  0  0  0  0  0  0
   36.8438   22.4796   31.8267 H   0  0  0  0  0  0  0  0  0  0  0  0
   40.2782   22.3735   35.6982 H   0  0  0  0  0  0  0  0  0  0  0  0
   40.8187   22.2934   38.1548 H   0  0  0  0  0  0  0  0  0  0  0  0
   37.1689   24.3008   38.9887 H   0  0  0  0  0  0  0  0  0  0  0  0
   37.7905   20.4028   34.3921 H   0  0  0  0  0  0  0  0  0  0  0  0
   35.3911   21.8138   35.7816 H   0  0  0  0  0  0  0  0  0  0  0  0
   35.8221   20.0232   35.8635 H   0  0  0  0  0  0  0  0  0  0  0  0
   35.0252   21.5724   33.3339 H   0  0  0  0  0  0  0  0  0  0  0  0
   35.5072   19.4204   33.1520 C   0  0  0  0  0  0  0  0  0  0  0  0
   36.2452   19.4276   31.8282 C   0  0  0  0  0  0  0  0  0  0  0  0
   36.0595   18.3134   33.9878 C   0  0  0  0  0  0  0  0  0  0  0  0
   34.4397   19.1745   32.9611 H   0  0  0  0  0  0  0  0  0  0  0  0
   37.1011   18.7279   31.8222 H   0  0  0  0  0  0  0  0  0  0  0  0
   35.5665   19.1915   30.9847 H   0  0  0  0  0  0  0  0  0  0  0  0
   36.6726   20.4278   31.5942 H   0  0  0  0  0  0  0  0  0  0  0  0
   36.9405   18.6165   34.6239 H   0  0  0  0  0  0  0  0  0  0  0  0
   36.4517   17.5258   33.3105 H   0  0  0  0  0  0  0  0  0  0  0  0
   35.2835   17.8115   34.6147 H   0  0  0  0  0  0  0  0  0  0  0  0
  1  6  1  0
  2  1  2  0
  3  4  2  0
  3  2  1  0
  4  5  1  0
  5 12  1  0
  5  1  1  0
  6  7  2  0
  6 11  1  0
  7  8  1  0
  8  9  2  0
 10  9  1  0
 11 10  2  0
 12 13  1  0
 14 12  1  0
 14 13  1  0
  2 15  1  0
  4 16  1  0
  7 17  1  0
  8 18  1  0
 10 19  1  0
 12 20  1  1
 13 21  1  0
 13 22  1  0
 14 23  1  6
 24 25  1  0
 24 26  1  0
 24 27  1  0
 25 28  1  0
 25 29  1  0
 25 30  1  0
 26 31  1  0
 26 32  1  0
 26 33  1  0
 14 24  1  0
M  ISO  8  15  14  16  14  17  14  18  14  19  14  20  13  21  13  22  13
M  ISO  1  23  13
M  END
>  <DihAtoms>  (1) 
11,13,23,24

>  <DihDeg>  (1) 
-179.9999845101141

$$$$
