
 OpenBabel03262519253D

 39 44  0  0  1  0  0  0  0  0999 V2000
   39.4500   25.5850   32.7950 C   0  0  1  0  0  0  0  0  0  0  0  0
   39.8310   25.9130   34.1360 C   0  0  0  0  0  0  0  0  0  0  0  0
   40.7710   26.9300   34.2830 C   0  0  0  0  0  0  0  0  0  0  0  0
   41.2880   27.5620   33.1970 N   0  0  0  0  0  0  0  0  0  0  0  0
   40.9090   27.2190   31.9470 C   0  0  0  0  0  0  0  0  0  0  0  0
   40.0300   26.2700   31.7800 N   0  0  0  0  0  0  0  0  0  0  0  0
   41.0780   27.2040   35.2830 H   0  0  0  0  0  0  0  0  0  0  0  0
   41.3120   27.7070   31.0810 H   0  0  0  0  0  0  0  0  0  0  0  0
   38.5030   24.5620   32.5120 C   0  0  0  0  0  0  0  0  0  0  0  0
   38.8590   23.2340   32.7130 C   0  0  0  0  0  0  0  0  0  0  0  0
   37.9880   22.1790   32.4290 C   0  0  0  0  0  0  0  0  0  0  0  0
   36.7180   22.4490   31.9270 C   0  0  0  0  0  0  0  0  0  0  0  0
   36.3530   23.7490   31.7230 C   0  0  0  0  0  0  0  0  0  0  0  0
   35.1420   24.0460   31.1970 C   0  0  0  0  0  0  0  0  0  0  0  0
   34.7220   25.3100   30.9200 C   0  0  0  0  0  0  0  0  0  0  0  0
   35.6140   26.3580   31.2140 C   0  0  0  0  0  0  0  0  0  0  0  0
   36.8680   26.0440   31.7690 C   0  0  0  0  0  0  0  0  0  0  0  0
   37.2410   24.7590   32.0170 C   0  0  0  0  0  0  0  0  0  0  0  0
   39.8510   23.0240   33.1040 H   0  0  0  0  0  0  0  0  0  0  0  0
   38.3470   21.1790   32.6160 H   0  0  0  0  0  0  0  0  0  0  0  0
   36.0620   21.6120   31.7160 H   0  0  0  0  0  0  0  0  0  0  0  0
   34.4950   23.2190   30.9960 H   0  0  0  0  0  0  0  0  0  0  0  0
   33.7340   25.4330   30.4960 H   0  0  0  0  0  0  0  0  0  0  0  0
   35.1680   27.3080   30.9340 H   0  0  0  0  0  0  0  0  0  0  0  0
   37.5620   27.2850   31.9720 C   0  0  1  0  0  0  0  0  0  0  0  0
   37.5980   27.4050   33.5230 C   0  0  0  0  0  0  0  0  0  0  0  0
   39.0640   27.0470   31.6170 C   0  0  0  0  0  0  0  0  0  0  0  0
   39.2680   25.2420   35.1920 N   0  0  0  0  0  0  0  0  0  0  0  0
   38.0560   25.4650   35.7130 C   0  0  0  0  0  0  0  0  0  0  0  0
   37.7970   24.6330   36.7510 N   0  0  0  0  0  0  0  0  0  0  0  0
   38.8980   23.8540   36.8860 C   0  0  0  0  0  0  0  0  0  0  0  0
   39.2510   22.8460   37.7370 C   0  0  0  0  0  0  0  0  0  0  0  0
   40.4310   22.2000   37.6920 N   0  0  0  0  0  0  0  0  0  0  0  0
   41.2890   22.6160   36.7190 C   0  0  0  0  0  0  0  0  0  0  0  0
   40.9330   23.5990   35.8980 N   0  0  0  0  0  0  0  0  0  0  0  0
   39.7880   24.2560   35.9100 C   0  0  0  0  0  0  0  0  0  0  0  0
   37.3020   26.2040   35.4020 H   0  0  0  0  0  0  0  0  0  0  0  0
   38.5230   22.5560   38.4950 H   0  0  0  0  0  0  0  0  0  0  0  0
   42.2860   22.2000   36.5430 H   0  0  0  0  0  0  0  0  0  0  0  0
  1  9  1  6  0  0  0
  1  2  1  0  0  0  0
  2  3  2  0  0  0  0
  2 28  1  0  0  0  0
  3  7  1  0  0  0  0
  4  3  1  0  0  0  0
  5  4  2  0  0  0  0
  6  5  1  0  0  0  0
  6  1  1  0  0  0  0
  8  5  1  0  0  0  0
  9 10  1  0  0  0  0
 10 19  1  0  0  0  0
 11 20  1  0  0  0  0
 11 10  2  0  0  0  0
 12 11  1  0  0  0  0
 13 12  2  0  0  0  0
 13 18  1  0  0  0  0
 14 13  1  0  0  0  0
 15 14  2  0  0  0  0
 15 16  1  0  0  0  0
 16 17  2  0  0  0  0
 17 25  1  0  0  0  0
 17 18  1  0  0  0  0
 18  9  2  0  0  0  0
 21 12  1  0  0  0  0
 22 14  1  0  0  0  0
 23 15  1  0  0  0  0
 24 16  1  0  0  0  0
 25 26  1  1  0  0  0
 27  6  1  0  0  0  0
 27 25  1  0  0  0  0
 28 29  1  0  0  0  0
 28 36  1  0  0  0  0
 29 30  2  0  0  0  0
 30 31  1  0  0  0  0
 31 32  1  0  0  0  0
 32 38  1  0  0  0  0
 33 32  2  0  0  0  0
 34 33  1  0  0  0  0
 35 36  1  0  0  0  0
 35 34  2  0  0  0  0
 36 31  2  0  0  0  0
 37 29  1  0  0  0  0
 39 34  1  0  0  0  0
M  END
>  <minimizedAffinity>
-6.34048939

>  <minimizedRMSD>
0.284033567

$$$$
