
 OpenBabel03262518353D

 49 52  0  0  0  0  0  0  0  0999 V2000
   37.2770   26.5640   34.6760 C   0  0  0  0  0  0  0  0  0  0  0  0
   37.4280   25.7290   33.5880 C   0  0  0  0  0  0  0  0  0  0  0  0
   36.9150   26.1510   32.3400 C   0  0  0  0  0  0  0  0  0  0  0  0
   36.3080   27.3470   32.2940 N   0  0  0  0  0  0  0  0  0  0  0  0
   36.1730   28.1380   33.3610 C   0  0  0  0  0  0  0  0  0  0  0  0
   36.6570   27.7570   34.5780 N   0  0  0  0  0  0  0  0  0  0  0  0
   37.9220   24.7760   33.6660 H   0  0  0  0  0  0  0  0  0  0  0  0
   37.0130   25.5250   31.4540 H   0  0  0  0  0  0  0  0  0  0  0  0
   37.8130   26.1100   35.9610 C   0  0  0  0  0  0  0  0  0  0  0  0
   38.4980   26.9030   36.6520 O   0  0  0  0  0  0  0  0  0  0  0  0
   37.5730   24.8470   36.3970 O   0  0  0  0  0  0  0  0  0  0  0  0
   39.6540   22.6380   38.2030 N   0  0  0  0  0  0  0  0  0  0  0  0
   38.5680   23.3910   38.0340 N   0  0  0  0  0  0  0  0  0  0  0  0
   38.6120   23.9920   36.8210 C   0  0  0  0  0  0  0  0  0  0  0  0
   39.7730   23.6070   36.1880 C   0  0  0  0  0  0  0  0  0  0  0  0
   40.3880   22.7700   37.0790 C   0  0  0  0  0  0  0  0  0  0  0  0
   39.9250   22.0510   39.0150 H   0  0  0  0  0  0  0  0  0  0  0  0
   40.0570   23.9450   35.1990 H   0  0  0  0  0  0  0  0  0  0  0  0
   41.6910   22.1040   36.8220 C   0  0  0  0  0  0  0  0  0  0  0  0
   42.7000   22.8160   36.2080 C   0  0  0  0  0  0  0  0  0  0  0  0
   43.8680   22.0920   36.0210 C   0  0  0  0  0  0  0  0  0  0  0  0
   44.0780   20.8090   36.3760 N   0  0  0  0  0  0  0  0  0  0  0  0
   43.0460   20.1600   36.9780 C   0  0  0  0  0  0  0  0  0  0  0  0
   41.8930   20.8130   37.1830 N   0  0  0  0  0  0  0  0  0  0  0  0
   42.6060   23.8270   35.9020 H   0  0  0  0  0  0  0  0  0  0  0  0
   44.7300   22.5590   35.5450 H   0  0  0  0  0  0  0  0  0  0  0  0
   43.1470   19.1290   37.2880 H   0  0  0  0  0  0  0  0  0  0  0  0
   35.4780   29.4630   33.2170 C   0  0  0  0  0  0  0  0  0  0  0  0
   35.6590   30.1950   34.5290 C   0  0  0  0  0  0  0  0  0  0  0  0
   35.5980   29.5140   35.3990 H   0  0  0  0  0  0  0  0  0  0  0  0
   34.8560   30.9560   34.6940 H   0  0  0  0  0  0  0  0  0  0  0  0
   36.6670   30.6640   34.6020 H   0  0  0  0  0  0  0  0  0  0  0  0
   34.0080   29.1540   33.0320 C   0  0  0  0  0  0  0  0  0  0  0  0
   33.3910   30.0720   33.0710 H   0  0  0  0  0  0  0  0  0  0  0  0
   33.8110   28.6090   32.0950 H   0  0  0  0  0  0  0  0  0  0  0  0
   33.6310   28.5360   33.8990 H   0  0  0  0  0  0  0  0  0  0  0  0
   36.0240   30.2470   32.0630 C   0  0  0  0  0  0  0  0  0  0  0  0
   37.1060   30.4450   32.2910 H   0  0  0  0  0  0  0  0  0  0  0  0
   36.0480   29.5880   31.1570 H   0  0  0  0  0  0  0  0  0  0  0  0
   35.3100   31.4500   31.7540 N   0  0  0  0  0  0  0  0  0  0  0  0
   34.0810   31.4000   31.1600 C   0  0  0  0  0  0  0  0  0  0  0  0
   33.3230   32.4810   30.8250 C   0  0  0  0  0  0  0  0  0  0  0  0
   31.9910   32.3340   30.1800 C   0  0  0  0  0  0  0  0  0  0  0  0
   33.8360   33.7500   31.1060 C   0  0  0  0  0  0  0  0  0  0  0  0
   33.1630   34.7700   30.8080 O   0  0  0  0  0  0  0  0  0  0  0  0
   35.0390   33.8110   31.6860 N   0  0  0  0  0  0  0  0  0  0  0  0
   35.7370   32.7030   31.9920 C   0  0  0  0  0  0  0  0  0  0  0  0
   36.8520   32.8510   32.5330 O   0  0  0  0  0  0  0  0  0  0  0  0
   35.4450   34.7510   31.9060 H   0  0  0  0  0  0  0  0  0  0  0  0
  1  9  1  0  0  0  0
  2  7  1  0  0  0  0
  2  1  2  0  0  0  0
  3  2  1  0  0  0  0
  4  3  2  0  0  0  0
  4  5  1  0  0  0  0
  5  6  2  0  0  0  0
  6  1  1  0  0  0  0
  8  3  1  0  0  0  0
  9 11  1  0  0  0  0
  9 10  2  0  0  0  0
 11 14  1  0  0  0  0
 12 17  1  0  0  0  0
 13 12  1  0  0  0  0
 14 13  2  0  0  0  0
 15 14  1  0  0  0  0
 15 16  2  0  0  0  0
 16 12  1  0  0  0  0
 18 15  1  0  0  0  0
 19 16  1  0  0  0  0
 19 24  1  0  0  0  0
 20 19  2  0  0  0  0
 21 20  1  0  0  0  0
 21 22  2  0  0  0  0
 22 23  1  0  0  0  0
 23 24  2  0  0  0  0
 23 27  1  0  0  0  0
 25 20  1  0  0  0  0
 26 21  1  0  0  0  0
 28  5  1  0  0  0  0
 28 29  1  0  0  0  0
 29 32  1  0  0  0  0
 29 31  1  0  0  0  0
 29 30  1  0  0  0  0
 33 34  1  0  0  0  0
 33 28  1  0  0  0  0
 33 36  1  0  0  0  0
 35 33  1  0  0  0  0
 37 38  1  0  0  0  0
 37 28  1  0  0  0  0
 39 37  1  0  0  0  0
 40 47  1  0  0  0  0
 40 37  1  0  0  0  0
 41 40  1  0  0  0  0
 42 44  1  0  0  0  0
 42 41  2  0  0  0  0
 43 42  1  0  0  0  0
 44 46  1  0  0  0  0
 45 44  2  0  0  0  0
 46 49  1  0  0  0  0
 46 47  1  0  0  0  0
 47 48  2  0  0  0  0
M  END
>  <minimizedAffinity>
-5.90460062

>  <minimizedRMSD>
0.319464326

$$$$
