
 OpenBabel03262519153D

 29 31  0  0  0  0  0  0  0  0999 V2000
   37.2410   26.0010   33.4750 C   0  0  0  0  0  0  0  0  0  0  0  0
   37.0980   27.2690   34.0530 C   0  0  0  0  0  0  0  0  0  0  0  0
   37.7460   27.5510   35.2660 C   0  0  0  0  0  0  0  0  0  0  0  0
   38.4830   26.5430   35.8020 N   0  0  0  0  0  0  0  0  0  0  0  0
   38.6020   25.3130   35.2130 C   0  0  0  0  0  0  0  0  0  0  0  0
   37.9750   25.0730   34.0590 N   0  0  0  0  0  0  0  0  0  0  0  0
   36.7060   25.8690   32.5380 H   0  0  0  0  0  0  0  0  0  0  0  0
   37.7060   28.4810   35.7930 H   0  0  0  0  0  0  0  0  0  0  0  0
   36.3170   28.3550   33.5050 C   0  0  0  0  0  0  0  0  0  0  0  0
   35.4310   29.1330   34.2380 C   0  0  0  0  0  0  0  0  0  0  0  0
   34.7780   30.1160   33.5600 C   0  0  0  0  0  0  0  0  0  0  0  0
   35.0350   30.2730   32.2050 C   0  0  0  0  0  0  0  0  0  0  0  0
   36.2770   28.9570   31.8500 S   0  0  0  0  0  0  0  0  0  0  0  0
   35.2470   28.9910   35.2940 H   0  0  0  0  0  0  0  0  0  0  0  0
   34.0560   30.8220   33.9420 H   0  0  0  0  0  0  0  0  0  0  0  0
   34.5770   31.1450   31.1900 C   0  0  0  0  0  0  0  0  0  0  0  0
   35.3720   31.8410   30.5470 O   0  0  0  0  0  0  0  0  0  0  0  0
   33.1710   31.2410   30.8830 N   0  0  0  0  0  0  0  0  0  0  0  0
   32.9040   30.9580   29.9060 H   0  0  0  0  0  0  0  0  0  0  0  0
   32.5160   31.5700   31.6020 H   0  0  0  0  0  0  0  0  0  0  0  0
   39.4270   24.3040   35.8920 C   0  0  0  0  0  0  0  0  0  0  0  0
   38.8060   23.6390   36.9150 C   0  0  0  0  0  0  0  0  0  0  0  0
   40.1500   22.4650   37.5200 S   0  0  0  0  0  0  0  0  0  0  0  0
   41.3310   23.1660   36.1850 C   0  0  0  0  0  0  0  0  0  0  0  0
   40.6640   23.9230   35.6970 N   0  0  0  0  0  0  0  0  0  0  0  0
   37.8580   23.5740   37.4490 H   0  0  0  0  0  0  0  0  0  0  0  0
   42.7320   22.7270   35.9720 C   0  0  0  0  0  0  0  0  0  0  0  0
   42.9740   21.3640   36.6090 C   0  0  0  0  0  0  0  0  0  0  0  0
   43.6490   23.7510   36.6000 C   0  0  0  0  0  0  0  0  0  0  0  0
  1  2  2  0  0  0  0
  1  6  1  0  0  0  0
  2  3  1  0  0  0  0
  3  8  1  0  0  0  0
  3  4  2  0  0  0  0
  5  4  1  0  0  0  0
  5 21  1  0  0  0  0
  6  5  2  0  0  0  0
  7  1  1  0  0  0  0
  9  2  1  0  0  0  0
  9 10  2  0  0  0  0
 10 14  1  0  0  0  0
 11 15  1  0  0  0  0
 11 10  1  0  0  0  0
 12 11  2  0  0  0  0
 13 12  1  0  0  0  0
 13  9  1  0  0  0  0
 16 12  1  0  0  0  0
 17 16  2  0  0  0  0
 18 16  1  0  0  0  0
 18 20  1  0  0  0  0
 19 18  1  0  0  0  0
 21 22  2  0  0  0  0
 22 26  1  0  0  0  0
 22 23  1  0  0  0  0
 24 23  1  0  0  0  0
 25 21  1  0  0  0  0
 25 24  2  0  0  0  0
 27 24  1  0  0  0  0
 27 29  1  0  0  0  0
 27 28  1  0  0  0  0
M  END
>  <minimizedAffinity>
-5.06942272

>  <minimizedRMSD>
3.76196766

$$$$
