
 OpenBabel03262518003D

 20 21  0  0  0  0  0  0  0  0999 V2000
   43.6390   19.7090   37.0750 C   0  0  0  0  0  0  0  0  0  0  0  0
   42.4840   20.4760   37.3050 C   0  0  0  0  0  0  0  0  0  0  0  0
   41.9920   21.2220   36.2500 C   0  0  0  0  0  0  0  0  0  0  0  0
   42.6670   21.1560   35.0660 N   0  0  0  0  0  0  0  0  0  0  0  0
   43.7620   20.4230   34.8650 C   0  0  0  0  0  0  0  0  0  0  0  0
   44.2490   19.6890   35.8960 N   0  0  0  0  0  0  0  0  0  0  0  0
   44.0320   19.1150   37.9140 H   0  0  0  0  0  0  0  0  0  0  0  0
   41.9690   20.5090   38.2560 H   0  0  0  0  0  0  0  0  0  0  0  0
   40.8000   22.0460   36.3980 C   0  0  0  0  0  0  0  0  0  0  0  0
   39.9360   22.6320   35.5130 N   0  0  0  0  0  0  0  0  0  0  0  0
   39.0240   23.2680   36.1710 O   0  0  0  0  0  0  0  0  0  0  0  0
   39.2280   23.1400   37.4730 C   0  0  0  0  0  0  0  0  0  0  0  0
   40.3230   22.3860   37.6000 N   0  0  0  0  0  0  0  0  0  0  0  0
   38.4290   23.7020   38.5640 C   0  0  0  0  0  0  0  0  0  0  0  0
   39.2420   23.8730   39.6740 F   0  0  0  0  0  0  0  0  0  0  0  0
   37.4070   22.8520   38.9560 F   0  0  0  0  0  0  0  0  0  0  0  0
   37.9410   24.9380   38.2150 F   0  0  0  0  0  0  0  0  0  0  0  0
   44.4590   20.3830   33.5650 C   0  0  0  0  0  0  0  0  0  0  0  0
   44.9900   21.7790   33.3130 C   0  0  0  0  0  0  0  0  0  0  0  0
   45.5460   19.3650   33.4710 C   0  0  0  0  0  0  0  0  0  0  0  0
  1  2  1  0  0  0  0
  1  7  1  0  0  0  0
  2  8  1  0  0  0  0
  3  9  1  0  0  0  0
  3  2  2  0  0  0  0
  4  3  1  0  0  0  0
  5  4  2  0  0  0  0
  5  6  1  0  0  0  0
  6  1  2  0  0  0  0
  9 13  1  0  0  0  0
 10 11  1  0  0  0  0
 10  9  2  0  0  0  0
 11 12  1  0  0  0  0
 12 13  2  0  0  0  0
 12 14  1  0  0  0  0
 14 16  1  0  0  0  0
 14 15  1  0  0  0  0
 17 14  1  0  0  0  0
 18  5  1  0  0  0  0
 19 18  1  0  0  0  0
 20 18  1  0  0  0  0
M  END
>  <minimizedAffinity>
-4.08973169

>  <minimizedRMSD>
0.0462093875

$$$$
