
 OpenBabel03262519283D

 27 29  0  0  0  0  0  0  0  0999 V2000
   41.7870   22.1210   36.5730 C   0  0  0  0  0  0  0  0  0  0  0  0
   42.3760   23.2480   36.0350 C   0  0  0  0  0  0  0  0  0  0  0  0
   43.6700   23.0220   35.7410 N   0  0  0  0  0  0  0  0  0  0  0  0
   43.9910   21.7490   36.0710 C   0  0  0  0  0  0  0  0  0  0  0  0
   45.1560   21.0330   35.9760 C   0  0  0  0  0  0  0  0  0  0  0  0
   45.1670   19.7020   36.4120 C   0  0  0  0  0  0  0  0  0  0  0  0
   44.0090   19.1250   36.9310 C   0  0  0  0  0  0  0  0  0  0  0  0
   42.8420   19.8740   37.0160 C   0  0  0  0  0  0  0  0  0  0  0  0
   42.8330   21.1950   36.5820 C   0  0  0  0  0  0  0  0  0  0  0  0
   41.8700   24.2060   35.8620 H   0  0  0  0  0  0  0  0  0  0  0  0
   44.3060   23.7460   35.3220 H   0  0  0  0  0  0  0  0  0  0  0  0
   46.0290   21.4990   35.5740 H   0  0  0  0  0  0  0  0  0  0  0  0
   46.1140   19.1800   36.3160 H   0  0  0  0  0  0  0  0  0  0  0  0
   44.1030   18.1100   37.2400 H   0  0  0  0  0  0  0  0  0  0  0  0
   41.9600   19.4200   37.4160 H   0  0  0  0  0  0  0  0  0  0  0  0
   40.4840   21.9840   36.9890 O   0  0  0  0  0  0  0  0  0  0  0  0
   39.5990   23.0080   37.1880 C   0  0  0  0  0  0  0  0  0  0  0  0
   39.0480   23.1290   38.4810 C   0  0  0  0  0  0  0  0  0  0  0  0
   38.1450   24.1710   38.6940 C   0  0  0  0  0  0  0  0  0  0  0  0
   37.8450   24.9960   37.6740 N   0  0  0  0  0  0  0  0  0  0  0  0
   38.4020   24.8390   36.4440 C   0  0  0  0  0  0  0  0  0  0  0  0
   39.2690   23.8620   36.1930 N   0  0  0  0  0  0  0  0  0  0  0  0
   39.3320   22.4370   39.2430 H   0  0  0  0  0  0  0  0  0  0  0  0
   37.6950   24.3060   39.6650 H   0  0  0  0  0  0  0  0  0  0  0  0
   38.0320   25.7850   35.3580 C   0  0  0  0  0  0  0  0  0  0  0  0
   38.9110   25.5450   34.1350 C   0  0  0  0  0  0  0  0  0  0  0  0
   38.3360   27.1820   35.8590 C   0  0  0  0  0  0  0  0  0  0  0  0
  1  9  1  0  0  0  0
  1 16  1  0  0  0  0
  2  1  2  0  0  0  0
  3  2  1  0  0  0  0
  3  4  1  0  0  0  0
  4  9  1  0  0  0  0
  5  4  2  0  0  0  0
  5  6  1  0  0  0  0
  6  7  2  0  0  0  0
  7  8  1  0  0  0  0
  7 14  1  0  0  0  0
  8 15  1  0  0  0  0
  9  8  2  0  0  0  0
 10  2  1  0  0  0  0
 11  3  1  0  0  0  0
 12  5  1  0  0  0  0
 13  6  1  0  0  0  0
 16 17  1  0  0  0  0
 17 18  1  0  0  0  0
 18 19  2  0  0  0  0
 18 23  1  0  0  0  0
 19 24  1  0  0  0  0
 20 19  1  0  0  0  0
 21 20  2  0  0  0  0
 22 21  1  0  0  0  0
 22 17  2  0  0  0  0
 25 27  1  0  0  0  0
 25 21  1  0  0  0  0
 26 25  1  0  0  0  0
M  END
>  <minimizedAffinity>
-4.72017097

>  <minimizedRMSD>
1.20166314

$$$$
