
 OpenBabel03262519553D

 27 29  0  0  1  0  0  0  0  0999 V2000
   38.1640   25.6030   33.1140 C   0  0  0  0  0  0  0  0  0  0  0  0
   37.0290   26.3250   33.4390 C   0  0  0  0  0  0  0  0  0  0  0  0
   37.1280   26.4810   34.7960 N   0  0  0  0  0  0  0  0  0  0  0  0
   38.2460   25.8870   35.1990 C   0  0  0  0  0  0  0  0  0  0  0  0
   38.9210   25.3250   34.1660 N   0  0  0  0  0  0  0  0  0  0  0  0
   36.2540   26.6730   32.7600 H   0  0  0  0  0  0  0  0  0  0  0  0
   38.5650   25.8660   36.2490 H   0  0  0  0  0  0  0  0  0  0  0  0
   38.5160   25.1780   31.7520 C   0  0  0  0  0  0  0  0  0  0  0  0
   38.1040   23.9360   31.2710 C   0  0  0  0  0  0  0  0  0  0  0  0
   38.4650   23.5720   29.9560 C   0  0  0  0  0  0  0  0  0  0  0  0
   39.1960   24.4590   29.2430 N   0  0  0  0  0  0  0  0  0  0  0  0
   39.5820   25.6540   29.7290 C   0  0  0  0  0  0  0  0  0  0  0  0
   39.2460   26.0210   30.9860 N   0  0  0  0  0  0  0  0  0  0  0  0
   37.5200   23.2690   31.8920 H   0  0  0  0  0  0  0  0  0  0  0  0
   38.1560   22.6080   29.5600 H   0  0  0  0  0  0  0  0  0  0  0  0
   40.1720   26.3560   29.1370 H   0  0  0  0  0  0  0  0  0  0  0  0
   40.1560   24.6200   34.3180 C   0  0  1  0  0  0  0  0  0  0  0  0
   41.3450   25.2300   34.9180 C   0  0  0  0  0  0  0  0  0  0  0  0
   40.5000   24.3310   35.7800 C   0  0  2  0  0  0  0  0  0  0  0  0
   40.1980   23.6940   33.6860 H   0  0  0  0  0  0  0  0  0  0  0  0
   41.2480   26.3290   35.1280 H   0  0  0  0  0  0  0  0  0  0  0  0
   42.3410   24.9610   34.5760 H   0  0  0  0  0  0  0  0  0  0  0  0
   39.9020   24.7910   36.5670 H   0  0  0  0  0  0  0  0  0  0  0  0
   41.1590   23.0360   36.1430 C   0  0  0  0  0  0  0  0  0  0  0  0
   42.6220   23.1780   36.4600 C   0  0  0  0  0  1  0  0  0  0  0  0
   40.9630   21.9420   35.1140 C   0  0  0  0  0  1  0  0  0  0  0  0
   40.5010   22.5500   37.4210 C   0  0  0  0  0  1  0  0  0  0  0  0
  1  2  2  0  0  0  0
  1  5  1  0  0  0  0
  2  3  1  0  0  0  0
  3  4  2  0  0  0  0
  4  7  1  0  0  0  0
  5 17  1  0  0  0  0
  5  4  1  0  0  0  0
  6  2  1  0  0  0  0
  8  1  1  0  0  0  0
  9  8  1  0  0  0  0
  9 14  1  0  0  0  0
 10  9  2  0  0  0  0
 11 12  2  0  0  0  0
 11 10  1  0  0  0  0
 12 13  1  0  0  0  0
 13  8  2  0  0  0  0
 15 10  1  0  0  0  0
 16 12  1  0  0  0  0
 17 20  1  6  0  0  0
 17 18  1  0  0  0  0
 17 19  1  0  0  0  0
 18 21  1  0  0  0  0
 18 19  1  0  0  0  0
 19 24  1  0  0  0  0
 19 23  1  1  0  0  0
 22 18  1  0  0  0  0
 24 25  1  0  0  0  0
 24 27  1  0  0  0  0
 26 24  1  0  0  0  0
M  END
>  <minimizedAffinity>
-3.49509001

>  <minimizedRMSD>
6.36816978

$$$$
