
 OpenBabel03262519563D

 27 29  0  0  1  0  0  0  0  0999 V2000
   37.5670   22.1340   34.2670 C   0  0  0  0  0  0  0  0  0  0  0  0
   37.2130   21.7290   35.5430 C   0  0  0  0  0  0  0  0  0  0  0  0
   37.8870   22.6030   36.3530 N   0  0  0  0  0  0  0  0  0  0  0  0
   38.5700   23.4400   35.5790 C   0  0  0  0  0  0  0  0  0  0  0  0
   38.3900   23.1720   34.2620 N   0  0  0  0  0  0  0  0  0  0  0  0
   36.5550   20.9070   35.8130 H   0  0  0  0  0  0  0  0  0  0  0  0
   39.1990   24.2460   35.9800 H   0  0  0  0  0  0  0  0  0  0  0  0
   37.0910   21.4950   33.0330 C   0  0  0  0  0  0  0  0  0  0  0  0
   37.8530   20.5080   32.4090 C   0  0  0  0  0  0  0  0  0  0  0  0
   37.3560   19.9230   31.2260 C   0  0  0  0  0  0  0  0  0  0  0  0
   36.1610   20.3620   30.7680 N   0  0  0  0  0  0  0  0  0  0  0  0
   35.4420   21.3180   31.3880 C   0  0  0  0  0  0  0  0  0  0  0  0
   35.9020   21.8900   32.5230 N   0  0  0  0  0  0  0  0  0  0  0  0
   38.8040   20.1990   32.8250 H   0  0  0  0  0  0  0  0  0  0  0  0
   37.9330   19.1520   30.7210 H   0  0  0  0  0  0  0  0  0  0  0  0
   34.4800   21.6590   31.0030 H   0  0  0  0  0  0  0  0  0  0  0  0
   39.0090   23.9180   33.2110 C   0  0  1  0  0  0  0  0  0  0  0  0
   38.2460   24.7540   32.2810 C   0  0  0  0  0  0  0  0  0  0  0  0
   38.9380   25.4300   33.4330 C   0  0  2  0  0  0  0  0  0  0  0  0
   40.0560   23.5730   33.0030 H   0  0  0  0  0  0  0  0  0  0  0  0
   37.1310   24.6580   32.3760 H   0  0  0  0  0  0  0  0  0  0  0  0
   38.5640   24.8680   31.2470 H   0  0  0  0  0  0  0  0  0  0  0  0
   38.3210   25.8190   34.2430 H   0  0  0  0  0  0  0  0  0  0  0  0
   40.0950   26.2920   33.0320 C   0  0  0  0  0  0  0  0  0  0  0  0
   40.7270   27.0180   34.1870 C   0  0  0  0  0  1  0  0  0  0  0  0
   39.7680   27.2770   31.9280 C   0  0  0  0  0  1  0  0  0  0  0  0
   41.1650   25.3670   32.4840 C   0  0  0  0  0  1  0  0  0  0  0  0
  1  2  2  0  0  0  0
  2  6  1  0  0  0  0
  2  3  1  0  0  0  0
  4  7  1  0  0  0  0
  4  3  2  0  0  0  0
  5  1  1  0  0  0  0
  5  4  1  0  0  0  0
  8  1  1  0  0  0  0
  9 14  1  0  0  0  0
  9  8  2  0  0  0  0
 10  9  1  0  0  0  0
 11 10  2  0  0  0  0
 11 12  1  0  0  0  0
 12 13  2  0  0  0  0
 13  8  1  0  0  0  0
 15 10  1  0  0  0  0
 16 12  1  0  0  0  0
 17 20  1  6  0  0  0
 17 19  1  0  0  0  0
 17  5  1  0  0  0  0
 18 21  1  0  0  0  0
 18 17  1  0  0  0  0
 18 19  1  0  0  0  0
 19 23  1  1  0  0  0
 22 18  1  0  0  0  0
 24 19  1  0  0  0  0
 24 25  1  0  0  0  0
 26 24  1  0  0  0  0
 27 24  1  0  0  0  0
M  END
>  <minimizedAffinity>
-3.65330911

>  <minimizedRMSD>
6.33059072

$$$$
