
 OpenBabel03262519553D

 27 29  0  0  1  0  0  0  0  0999 V2000
   38.1230   23.9980   34.2050 C   0  0  0  0  0  0  0  0  0  0  0  0
   38.2490   25.2710   33.6740 C   0  0  0  0  0  0  0  0  0  0  0  0
   37.7650   25.1350   32.4010 N   0  0  0  0  0  0  0  0  0  0  0  0
   37.3930   23.8700   32.2340 C   0  0  0  0  0  0  0  0  0  0  0  0
   37.6050   23.1290   33.3500 N   0  0  0  0  0  0  0  0  0  0  0  0
   38.6440   26.1540   34.1710 H   0  0  0  0  0  0  0  0  0  0  0  0
   36.9670   23.4920   31.2950 H   0  0  0  0  0  0  0  0  0  0  0  0
   38.5150   23.6270   35.5710 C   0  0  0  0  0  0  0  0  0  0  0  0
   39.7560   23.0390   35.8140 C   0  0  0  0  0  0  0  0  0  0  0  0
   40.0890   22.6990   37.1430 C   0  0  0  0  0  0  0  0  0  0  0  0
   39.1740   22.9680   38.1030 N   0  0  0  0  0  0  0  0  0  0  0  0
   37.9810   23.5370   37.8430 C   0  0  0  0  0  0  0  0  0  0  0  0
   37.6440   23.8700   36.5770 N   0  0  0  0  0  0  0  0  0  0  0  0
   40.4460   22.8490   35.0020 H   0  0  0  0  0  0  0  0  0  0  0  0
   41.0510   22.2390   37.3570 H   0  0  0  0  0  0  0  0  0  0  0  0
   37.2570   23.7450   38.6320 H   0  0  0  0  0  0  0  0  0  0  0  0
   37.2950   21.7360   33.4450 C   0  0  1  0  0  0  0  0  0  0  0  0
   36.3420   21.2050   34.4240 C   0  0  0  0  0  0  0  0  0  0  0  0
   35.8630   21.4140   33.0130 C   0  0  2  0  0  0  0  0  0  0  0  0
   38.0470   21.0950   32.9160 H   0  0  0  0  0  0  0  0  0  0  0  0
   35.9780   21.9570   35.1740 H   0  0  0  0  0  0  0  0  0  0  0  0
   36.4870   20.2190   34.8620 H   0  0  0  0  0  0  0  0  0  0  0  0
   35.1690   22.2340   32.8250 H   0  0  0  0  0  0  0  0  0  0  0  0
   35.5830   20.1470   32.2660 C   0  0  0  0  0  0  0  0  0  0  0  0
   35.6890   18.9140   33.1210 C   0  0  0  0  0  1  0  0  0  0  0  0
   36.4230   19.9750   31.0180 C   0  0  0  0  0  1  0  0  0  0  0  0
   34.1370   20.2150   31.8100 C   0  0  0  0  0  1  0  0  0  0  0  0
  1  8  1  0  0  0  0
  2  6  1  0  0  0  0
  2  1  2  0  0  0  0
  3  2  1  0  0  0  0
  4  3  2  0  0  0  0
  4  5  1  0  0  0  0
  5 17  1  0  0  0  0
  5  1  1  0  0  0  0
  7  4  1  0  0  0  0
  8  9  2  0  0  0  0
  8 13  1  0  0  0  0
  9 10  1  0  0  0  0
 10 15  1  0  0  0  0
 10 11  2  0  0  0  0
 12 11  1  0  0  0  0
 12 16  1  0  0  0  0
 13 12  2  0  0  0  0
 14  9  1  0  0  0  0
 17 20  1  6  0  0  0
 17 18  1  0  0  0  0
 18 22  1  0  0  0  0
 18 21  1  0  0  0  0
 19 23  1  6  0  0  0
 19 17  1  0  0  0  0
 19 18  1  0  0  0  0
 24 19  1  0  0  0  0
 24 25  1  0  0  0  0
 26 24  1  0  0  0  0
 27 24  1  0  0  0  0
M  END
>  <minimizedAffinity>
-4.3933835

>  <minimizedRMSD>
1.01527452

$$$$
