
 OpenBabel03262518263D

 23 24  0  0  0  0  0  0  0  0999 V2000
   37.6430   24.7020   36.3920 O   0  0  0  0  0  0  0  0  0  0  0  0
   39.8180   22.5340   38.1090 N   0  0  0  0  0  0  0  0  0  0  0  0
   38.6990   23.2470   37.9850 N   0  0  0  0  0  0  0  0  0  0  0  0
   38.7200   23.8740   36.7780 C   0  0  0  0  0  0  0  0  0  0  0  0
   39.8950   23.5510   36.1060 C   0  0  0  0  0  0  0  0  0  0  0  0
   40.5460   22.7100   36.9820 C   0  0  0  0  0  0  0  0  0  0  0  0
   40.1900   21.9130   38.8720 H   0  0  0  0  0  0  0  0  0  0  0  0
   40.1170   23.9350   35.1400 H   0  0  0  0  0  0  0  0  0  0  0  0
   41.8840   22.1390   36.5970 C   0  0  0  0  0  0  0  0  0  0  0  0
   42.9780   23.1600   36.6160 C   0  0  0  0  0  0  0  0  0  0  0  0
   42.1800   20.9230   37.4470 C   0  0  0  0  0  0  0  0  0  0  0  0
   41.8300   21.6160   35.1570 C   0  0  0  0  0  0  0  0  0  0  0  0
   37.8400   26.0130   36.0020 C   0  0  0  0  0  0  0  0  0  0  0  0
   38.4100   26.8220   36.7460 O   0  0  0  0  0  0  0  0  0  0  0  0
   37.3630   26.4470   34.6780 C   0  0  0  0  0  0  0  0  0  0  0  0
   37.4680   25.5660   33.6130 C   0  0  0  0  0  0  0  0  0  0  0  0
   37.0140   25.9800   32.3630 C   0  0  0  0  0  0  0  0  0  0  0  0
   36.4990   27.2140   32.2610 N   0  0  0  0  0  0  0  0  0  0  0  0
   36.4080   28.0460   33.3030 C   0  0  0  0  0  0  0  0  0  0  0  0
   36.8330   27.6880   34.5270 N   0  0  0  0  0  0  0  0  0  0  0  0
   37.8840   24.5780   33.7120 H   0  0  0  0  0  0  0  0  0  0  0  0
   37.0810   25.3220   31.5140 H   0  0  0  0  0  0  0  0  0  0  0  0
   35.9910   29.0560   33.2400 H   0  0  0  0  0  0  0  0  0  0  0  0
  1  4  1  0  0  0  0
  2  7  1  0  0  0  0
  3  2  1  0  0  0  0
  4  3  2  0  0  0  0
  5  4  1  0  0  0  0
  5  6  2  0  0  0  0
  6  2  1  0  0  0  0
  8  5  1  0  0  0  0
  9 10  1  0  0  0  0
  9  6  1  0  0  0  0
  9 11  1  0  0  0  0
 12  9  1  0  0  0  0
 13  1  1  0  0  0  0
 13 14  2  0  0  0  0
 15 13  1  0  0  0  0
 16 21  1  0  0  0  0
 16 15  2  0  0  0  0
 17 16  1  0  0  0  0
 18 17  2  0  0  0  0
 18 19  1  0  0  0  0
 19 20  2  0  0  0  0
 20 15  1  0  0  0  0
 22 17  1  0  0  0  0
 23 19  1  0  0  0  0
M  END
>  <minimizedAffinity>
-4.92197514

>  <minimizedRMSD>
1.28496468

$$$$
