
 OpenBabel03262518353D

 53 57  0  0  0  0  0  0  0  0999 V2000
   37.2760   26.5980   34.7540 C   0  0  0  0  0  0  0  0  0  0  0  0
   37.4340   25.8290   33.6070 C   0  0  0  0  0  0  0  0  0  0  0  0
   36.9090   26.3190   32.3980 C   0  0  0  0  0  0  0  0  0  0  0  0
   36.2870   27.5070   32.4380 N   0  0  0  0  0  0  0  0  0  0  0  0
   36.1470   28.2320   33.5590 C   0  0  0  0  0  0  0  0  0  0  0  0
   36.6360   27.7940   34.7320 N   0  0  0  0  0  0  0  0  0  0  0  0
   37.9440   24.8680   33.6030 H   0  0  0  0  0  0  0  0  0  0  0  0
   37.0340   25.7140   31.5020 H   0  0  0  0  0  0  0  0  0  0  0  0
   37.8260   26.0820   36.0070 C   0  0  0  0  0  0  0  0  0  0  0  0
   38.5000   26.8310   36.7360 O   0  0  0  0  0  0  0  0  0  0  0  0
   37.5960   24.7850   36.3670 O   0  0  0  0  0  0  0  0  0  0  0  0
   39.6880   22.6040   38.1990 N   0  0  0  0  0  0  0  0  0  0  0  0
   38.6020   23.3550   38.0180 N   0  0  0  0  0  0  0  0  0  0  0  0
   38.6430   23.9360   36.7990 C   0  0  0  0  0  0  0  0  0  0  0  0
   39.8050   23.5380   36.1770 C   0  0  0  0  0  0  0  0  0  0  0  0
   40.4320   22.7160   37.0660 C   0  0  0  0  0  0  0  0  0  0  0  0
   39.9530   22.0250   39.0400 H   0  0  0  0  0  0  0  0  0  0  0  0
   40.0680   23.8670   35.1950 H   0  0  0  0  0  0  0  0  0  0  0  0
   41.7240   22.0520   36.8230 C   0  0  0  0  0  0  0  0  0  0  0  0
   42.7370   22.7500   36.2070 C   0  0  0  0  0  0  0  0  0  0  0  0
   43.9090   22.0370   36.0250 C   0  0  0  0  0  0  0  0  0  0  0  0
   44.1170   20.7450   36.4000 N   0  0  0  0  0  0  0  0  0  0  0  0
   43.0860   20.1100   36.9990 C   0  0  0  0  0  0  0  0  0  0  0  0
   41.9320   20.7610   37.1950 N   0  0  0  0  0  0  0  0  0  0  0  0
   42.6530   23.7650   35.8850 H   0  0  0  0  0  0  0  0  0  0  0  0
   44.7920   22.4740   35.5490 H   0  0  0  0  0  0  0  0  0  0  0  0
   43.1840   19.0850   37.3190 H   0  0  0  0  0  0  0  0  0  0  0  0
   35.4340   29.5340   33.4640 C   0  0  0  0  0  0  0  0  0  0  0  0
   35.6600   30.2420   34.8070 C   0  0  0  0  0  0  0  0  0  0  0  0
   36.6740   30.6670   34.8110 H   0  0  0  0  0  0  0  0  0  0  0  0
   34.8560   30.9710   35.0270 H   0  0  0  0  0  0  0  0  0  0  0  0
   35.6430   29.5000   35.6400 H   0  0  0  0  0  0  0  0  0  0  0  0
   33.9680   29.2660   33.2790 C   0  0  0  0  0  0  0  0  0  0  0  0
   33.6470   28.4040   33.8910 H   0  0  0  0  0  0  0  0  0  0  0  0
   33.4080   30.1810   33.6250 H   0  0  0  0  0  0  0  0  0  0  0  0
   33.7560   29.1470   32.2020 H   0  0  0  0  0  0  0  0  0  0  0  0
   35.9710   30.4080   32.3390 C   0  0  0  0  0  0  0  0  0  0  0  0
   35.7610   29.8930   31.3880 H   0  0  0  0  0  0  0  0  0  0  0  0
   37.0700   30.5210   32.5020 H   0  0  0  0  0  0  0  0  0  0  0  0
   35.3850   31.7110   32.3370 N   0  0  0  0  0  0  0  0  0  0  0  0
   35.9040   32.7590   33.0390 C   0  0  0  0  0  0  0  0  0  0  0  0
   35.1520   33.8620   32.8550 N   0  0  0  0  0  0  0  0  0  0  0  0
   34.1190   33.5640   32.0270 C   0  0  0  0  0  0  0  0  0  0  0  0
   33.0460   34.2500   31.4840 C   0  0  0  0  0  0  0  0  0  0  0  0
   32.9340   35.4510   31.7860 O   0  0  0  0  0  0  0  0  0  0  0  0
   32.2050   33.5820   30.6740 N   0  0  0  0  0  0  0  0  0  0  0  0
   32.3680   32.2780   30.3760 C   0  0  0  0  0  0  0  0  0  0  0  0
   31.4020   31.7010   29.5070 N   0  0  0  0  0  0  0  0  0  0  0  0
   33.4180   31.6050   30.9080 N   0  0  0  0  0  0  0  0  0  0  0  0
   34.3010   32.2280   31.7320 C   0  0  0  0  0  0  0  0  0  0  0  0
   31.4160   34.1390   30.2920 H   0  0  0  0  0  0  0  0  0  0  0  0
   30.4690   31.6210   29.9570 H   0  0  0  0  0  0  0  0  0  0  0  0
   31.7570   31.4470   28.5600 H   0  0  0  0  0  0  0  0  0  0  0  0
  1  9  1  0  0  0  0
  2  1  2  0  0  0  0
  3  4  2  0  0  0  0
  3  2  1  0  0  0  0
  4  5  1  0  0  0  0
  5  6  2  0  0  0  0
  6  1  1  0  0  0  0
  7  2  1  0  0  0  0
  8  3  1  0  0  0  0
  9 11  1  0  0  0  0
  9 10  2  0  0  0  0
 11 14  1  0  0  0  0
 12 17  1  0  0  0  0
 13 12  1  0  0  0  0
 14 13  2  0  0  0  0
 15 14  1  0  0  0  0
 15 16  2  0  0  0  0
 16 12  1  0  0  0  0
 18 15  1  0  0  0  0
 19 16  1  0  0  0  0
 19 24  1  0  0  0  0
 20 19  2  0  0  0  0
 21 20  1  0  0  0  0
 21 22  2  0  0  0  0
 22 23  1  0  0  0  0
 23 24  2  0  0  0  0
 23 27  1  0  0  0  0
 25 20  1  0  0  0  0
 26 21  1  0  0  0  0
 28  5  1  0  0  0  0
 28 29  1  0  0  0  0
 29 30  1  0  0  0  0
 29 31  1  0  0  0  0
 29 32  1  0  0  0  0
 33 28  1  0  0  0  0
 33 35  1  0  0  0  0
 33 34  1  0  0  0  0
 36 33  1  0  0  0  0
 37 39  1  0  0  0  0
 37 28  1  0  0  0  0
 38 37  1  0  0  0  0
 40 37  1  0  0  0  0
 40 41  1  0  0  0  0
 42 41  2  0  0  0  0
 43 42  1  0  0  0  0
 44 45  2  0  0  0  0
 44 43  1  0  0  0  0
 46 44  1  0  0  0  0
 47 46  1  0  0  0  0
 47 49  2  0  0  0  0
 48 52  1  0  0  0  0
 48 47  1  0  0  0  0
 49 50  1  0  0  0  0
 50 43  2  0  0  0  0
 50 40  1  0  0  0  0
 51 46  1  0  0  0  0
 53 48  1  0  0  0  0
M  END
>  <minimizedAffinity>
-6.17876148

>  <minimizedRMSD>
0.453587562

$$$$
