
 OpenBabel03262518053D

 28 30  0  0  0  0  0  0  0  0999 V2000
   43.6140   19.7380   37.0870 C   0  0  0  0  0  0  0  0  0  0  0  0
   42.4770   20.5050   37.3020 C   0  0  0  0  0  0  0  0  0  0  0  0
   41.9470   21.2230   36.2310 C   0  0  0  0  0  0  0  0  0  0  0  0
   42.5920   21.1230   35.0170 N   0  0  0  0  0  0  0  0  0  0  0  0
   43.6780   20.3780   34.8520 C   0  0  0  0  0  0  0  0  0  0  0  0
   44.1970   19.6800   35.8890 N   0  0  0  0  0  0  0  0  0  0  0  0
   44.0330   19.1780   37.9150 H   0  0  0  0  0  0  0  0  0  0  0  0
   41.9690   20.5830   38.2550 H   0  0  0  0  0  0  0  0  0  0  0  0
   44.3360   20.3030   33.5230 C   0  0  0  0  0  0  0  0  0  0  0  0
   45.7110   20.0470   33.3690 C   0  0  0  0  0  0  0  0  0  0  0  0
   46.2020   20.0020   32.1010 C   0  0  0  0  0  0  0  0  0  0  0  0
   45.3850   20.2000   30.9920 C   0  0  0  0  0  0  0  0  0  0  0  0
   43.7320   20.4830   31.8190 S   0  0  0  0  0  0  0  0  0  0  0  0
   46.3760   19.8870   34.2060 H   0  0  0  0  0  0  0  0  0  0  0  0
   47.2140   19.8210   31.7860 H   0  0  0  0  0  0  0  0  0  0  0  0
   45.4680   20.2350   29.5780 C   0  0  0  0  0  0  0  0  0  0  0  0
   44.1860   19.8040   28.9290 C   0  0  0  0  0  0  0  0  0  0  0  0
   45.8690   21.6050   29.0440 C   0  0  0  0  0  0  0  0  0  0  0  0
   46.5450   19.2770   29.0450 C   0  0  0  0  0  0  0  0  0  0  0  0
   40.7510   22.0660   36.3550 C   0  0  0  0  0  0  0  0  0  0  0  0
   39.9120   22.6700   35.4950 N   0  0  0  0  0  0  0  0  0  0  0  0
   39.0000   23.3080   36.1680 O   0  0  0  0  0  0  0  0  0  0  0  0
   39.2050   23.1470   37.4650 C   0  0  0  0  0  0  0  0  0  0  0  0
   40.2850   22.3810   37.5770 N   0  0  0  0  0  0  0  0  0  0  0  0
   38.4090   23.6980   38.5750 C   0  0  0  0  0  0  0  0  0  0  0  0
   39.2480   23.8870   39.6850 F   0  0  0  0  0  0  0  0  0  0  0  0
   37.3820   22.8690   38.9310 F   0  0  0  0  0  0  0  0  0  0  0  0
   37.9410   24.9570   38.2430 F   0  0  0  0  0  0  0  0  0  0  0  0
  1  2  1  0  0  0  0
  1  7  1  0  0  0  0
  2  8  1  0  0  0  0
  3 20  1  0  0  0  0
  3  2  2  0  0  0  0
  4  3  1  0  0  0  0
  5  4  2  0  0  0  0
  5  6  1  0  0  0  0
  6  1  2  0  0  0  0
  9  5  1  0  0  0  0
 10  9  2  0  0  0  0
 10 14  1  0  0  0  0
 11 10  1  0  0  0  0
 12 13  1  0  0  0  0
 12 11  2  0  0  0  0
 13  9  1  0  0  0  0
 15 11  1  0  0  0  0
 16 12  1  0  0  0  0
 17 16  1  0  0  0  0
 18 16  1  0  0  0  0
 19 16  1  0  0  0  0
 20 24  1  0  0  0  0
 21 22  1  0  0  0  0
 21 20  2  0  0  0  0
 22 23  1  0  0  0  0
 23 24  2  0  0  0  0
 23 25  1  0  0  0  0
 25 27  1  0  0  0  0
 25 26  1  0  0  0  0
 28 25  1  0  0  0  0
M  END
>  <minimizedAffinity>
-3.88651037

>  <minimizedRMSD>
0.0280061029

$$$$
