
 OpenBabel03262517153D

 37 40  0  0  1  0  0  0  0  0999 V2000
   37.9820   26.3890   36.5100 C   0  0  1  0  0  0  0  0  0  0  0  0
   38.7800   27.3320   35.6920 C   0  0  0  0  0  0  0  0  0  0  0  0
   37.5070   26.7600   35.1590 C   0  0  1  0  0  0  0  0  0  0  0  0
   37.3970   26.8610   37.3280 H   0  0  0  0  0  0  0  0  0  0  0  0
   38.8540   28.3970   35.9280 H   0  0  0  0  0  0  0  0  0  0  0  0
   39.7580   26.9290   35.2970 H   0  0  0  0  0  0  0  0  0  0  0  0
   36.6760   27.5270   35.1000 H   0  0  0  0  0  0  0  0  0  0  0  0
   37.6330   26.0600   33.9470 N   0  0  0  0  0  0  0  0  0  0  0  0
   37.7170   24.7320   33.7650 C   0  0  0  0  0  0  0  0  0  0  0  0
   37.8420   24.1080   32.5540 C   0  0  0  0  0  0  0  0  0  0  0  0
   37.8850   24.9030   31.4000 C   0  0  0  0  0  0  0  0  0  0  0  0
   37.9990   24.3790   30.2650 O   0  0  0  0  0  0  0  0  0  0  0  0
   37.8030   26.2540   31.5080 N   0  0  0  0  0  0  0  0  0  0  0  0
   37.6850   26.7570   32.7500 C   0  0  0  0  0  0  0  0  0  0  0  0
   37.6090   28.0330   32.8240 O   0  0  0  0  0  0  0  0  0  0  0  0
   37.1210   28.4720   28.7920 N   0  0  0  0  0  0  0  0  0  0  0  0
   36.7520   27.7400   29.8160 N   0  0  0  0  0  0  0  0  0  0  0  0
   37.8200   27.1260   30.3800 C   0  0  0  0  0  0  0  0  0  0  0  0
   38.9100   27.5080   29.6530 C   0  0  0  0  0  0  0  0  0  0  0  0
   38.4570   28.3520   28.6620 C   0  0  0  0  0  0  0  0  0  0  0  0
   37.6520   24.0280   34.5740 H   0  0  0  0  0  0  0  0  0  0  0  0
   37.9110   23.0390   32.4090 H   0  0  0  0  0  0  0  0  0  0  0  0
   36.6130   29.0790   28.1160 H   0  0  0  0  0  0  0  0  0  0  0  0
   39.9480   27.2080   29.8190 H   0  0  0  0  0  0  0  0  0  0  0  0
   39.1340   28.8010   27.9370 H   0  0  0  0  0  0  0  0  0  0  0  0
   38.5200   25.0430   36.8350 C   0  0  0  0  0  0  0  0  0  0  0  0
   37.9110   24.3840   37.9120 C   0  0  0  0  0  0  0  0  0  0  0  0
   38.3500   23.1270   38.2790 C   0  0  0  0  0  0  0  0  0  0  0  0
   39.3670   22.5970   37.5550 N   0  0  0  0  0  0  0  0  0  0  0  0
   39.9340   23.2660   36.5180 C   0  0  0  0  0  0  0  0  0  0  0  0
   39.5260   24.4740   36.1520 N   0  0  0  0  0  0  0  0  0  0  0  0
   37.1120   24.8330   38.4570 H   0  0  0  0  0  0  0  0  0  0  0  0
   37.8720   22.6330   39.1080 H   0  0  0  0  0  0  0  0  0  0  0  0
   41.0480   22.6160   35.7730 C   0  0  0  0  0  0  0  0  0  0  0  0
   42.1580   23.6460   35.5330 C   0  0  0  0  0  0  0  0  0  0  0  0
   41.6420   21.5870   36.7050 C   0  0  0  0  0  0  0  0  0  0  0  0
   40.6350   22.0380   34.4540 C   0  0  0  0  0  0  0  0  0  0  0  0
  1 26  1  0  0  0  0
  1  4  1  1  0  0  0
  2  5  1  0  0  0  0
  2  1  1  0  0  0  0
  3  7  1  1  0  0  0
  3  2  1  0  0  0  0
  3  1  1  0  0  0  0
  6  2  1  0  0  0  0
  8  3  1  0  0  0  0
  9  8  1  0  0  0  0
  9 21  1  0  0  0  0
 10  9  2  0  0  0  0
 11 13  1  0  0  0  0
 11 10  1  0  0  0  0
 12 11  2  0  0  0  0
 13 14  1  0  0  0  0
 14 15  2  0  0  0  0
 14  8  1  0  0  0  0
 16 17  1  0  0  0  0
 17 18  2  0  0  0  0
 18 13  1  0  0  0  0
 19 24  1  0  0  0  0
 19 18  1  0  0  0  0
 20 16  1  0  0  0  0
 20 19  2  0  0  0  0
 22 10  1  0  0  0  0
 23 16  1  0  0  0  0
 25 20  1  0  0  0  0
 26 27  1  0  0  0  0
 27 28  2  0  0  0  0
 27 32  1  0  0  0  0
 28 33  1  0  0  0  0
 29 28  1  0  0  0  0
 30 29  2  0  0  0  0
 31 30  1  0  0  0  0
 31 26  2  0  0  0  0
 34 30  1  0  0  0  0
 34 36  1  0  0  0  0
 35 34  1  0  0  0  0
 37 34  1  0  0  0  0
M  END
>  <minimizedAffinity>
-5.71596766

>  <minimizedRMSD>
0.159820393

$$$$
