
 OpenBabel03262517243D

 34 36  0  0  0  0  0  0  0  0999 V2000
   38.8610   24.3160   33.7810 N   0  0  0  0  0  0  0  0  0  0  0  0
   39.0050   23.6460   32.6380 N   0  0  0  0  0  0  0  0  0  0  0  0
   38.6540   24.4060   31.6000 C   0  0  0  0  0  0  0  0  0  0  0  0
   38.2670   25.6200   32.1410 C   0  0  0  0  0  0  0  0  0  0  0  0
   38.3960   25.5730   33.5250 C   0  0  0  0  0  0  0  0  0  0  0  0
   38.7670   23.9030   30.6630 H   0  0  0  0  0  0  0  0  0  0  0  0
   38.0880   23.5560   35.9530 C   0  0  0  0  0  0  0  0  0  0  0  0
   39.1370   23.8030   35.0690 C   0  0  0  0  0  0  0  0  0  0  0  0
   40.4460   23.5470   35.4490 C   0  0  0  0  0  0  0  0  0  0  0  0
   40.6270   23.0500   36.7100 N   0  0  0  0  0  0  0  0  0  0  0  0
   39.6180   22.8150   37.5550 C   0  0  0  0  0  0  0  0  0  0  0  0
   38.3370   23.0690   37.1770 N   0  0  0  0  0  0  0  0  0  0  0  0
   37.0550   23.7400   35.7030 H   0  0  0  0  0  0  0  0  0  0  0  0
   41.2410   23.7430   34.7560 H   0  0  0  0  0  0  0  0  0  0  0  0
   39.8340   22.4170   38.5470 H   0  0  0  0  0  0  0  0  0  0  0  0
   38.0980   26.6360   34.4030 N   0  0  0  0  0  0  0  0  0  0  0  0
   39.0300   27.1120   35.3800 C   0  0  0  0  0  0  0  0  0  0  0  0
   40.2890   27.1200   34.9900 N   0  0  0  0  0  0  0  0  0  0  0  0
   38.5270   27.5240   36.6470 N   0  0  0  0  0  0  0  0  0  0  0  0
   40.9520   27.4790   35.7090 H   0  0  0  0  0  0  0  0  0  0  0  0
   37.1390   27.0910   34.3260 H   0  0  0  0  0  0  0  0  0  0  0  0
   37.7550   28.2300   36.6410 H   0  0  0  0  0  0  0  0  0  0  0  0
   38.9200   27.1300   37.5410 H   0  0  0  0  0  0  0  0  0  0  0  0
   37.8190   26.6640   31.3000 N   0  0  0  0  0  0  0  0  0  0  0  0
   36.5700   27.1570   31.0220 C   0  0  0  0  0  0  0  0  0  0  0  0
   36.7560   28.2100   30.1220 C   0  0  0  0  0  0  0  0  0  0  0  0
   38.0730   28.3290   29.8780 N   0  0  0  0  0  0  0  0  0  0  0  0
   38.7380   27.3820   30.5980 C   0  0  0  0  0  0  0  0  0  0  0  0
   35.6860   26.7320   31.4740 H   0  0  0  0  0  0  0  0  0  0  0  0
   35.9340   28.7870   29.7290 H   0  0  0  0  0  0  0  0  0  0  0  0
   40.2160   27.3690   30.4570 C   0  0  0  0  0  0  0  0  0  0  0  0
   40.6840   26.2310   29.5280 C   0  0  0  0  0  0  0  0  0  0  0  0
   41.0090   27.2200   31.6950 C   0  0  0  0  0  0  0  0  0  0  0  0
   40.5910   28.6250   29.6560 C   0  0  0  0  0  0  0  0  0  0  0  0
  1  8  1  0  0  0  0
  2  1  1  0  0  0  0
  3  4  1  0  0  0  0
  3  2  2  0  0  0  0
  4  5  2  0  0  0  0
  5  1  1  0  0  0  0
  5 16  1  0  0  0  0
  6  3  1  0  0  0  0
  7 12  1  0  0  0  0
  8  9  1  0  0  0  0
  8  7  2  0  0  0  0
  9 10  2  0  0  0  0
 10 11  1  0  0  0  0
 11 15  1  0  0  0  0
 12 11  2  0  0  0  0
 13  7  1  0  0  0  0
 14  9  1  0  0  0  0
 16 17  1  0  0  0  0
 17 19  1  0  0  0  0
 18 17  2  0  0  0  0
 18 20  1  0  0  0  0
 19 23  1  0  0  0  0
 21 16  1  0  0  0  0
 22 19  1  0  0  0  0
 24  4  1  0  0  0  0
 25 24  1  0  0  0  0
 25 29  1  0  0  0  0
 26 25  2  0  0  0  0
 27 26  1  0  0  0  0
 27 28  2  0  0  0  0
 28 24  1  0  0  0  0
 30 26  1  0  0  0  0
 31 28  1  0  0  0  0
 31 33  1  0  0  0  0
 32 31  1  0  0  0  0
 34 31  1  0  0  0  0
M  END
>  <minimizedAffinity>
-4.89245033

>  <minimizedRMSD>
3.50384736

$$$$
