
 OpenBabel03262519153D

 30 32  0  0  0  0  0  0  0  0999 V2000
   38.1080   24.0760   33.5940 C   0  0  0  0  0  0  0  0  0  0  0  0
   37.2860   24.7440   32.6570 C   0  0  0  0  0  0  0  0  0  0  0  0
   36.8130   24.0680   31.5460 C   0  0  0  0  0  0  0  0  0  0  0  0
   37.1930   22.7680   31.4420 N   0  0  0  0  0  0  0  0  0  0  0  0
   37.9890   22.1300   32.3550 C   0  0  0  0  0  0  0  0  0  0  0  0
   38.4310   22.8070   33.4160 N   0  0  0  0  0  0  0  0  0  0  0  0
   38.4350   24.6750   34.4320 H   0  0  0  0  0  0  0  0  0  0  0  0
   36.1810   24.5070   30.7880 H   0  0  0  0  0  0  0  0  0  0  0  0
   36.8890   26.1300   32.7750 C   0  0  0  0  0  0  0  0  0  0  0  0
   37.0110   26.8900   33.9310 C   0  0  0  0  0  0  0  0  0  0  0  0
   36.5860   28.1780   33.8690 C   0  0  0  0  0  0  0  0  0  0  0  0
   36.0650   28.6500   32.6730 C   0  0  0  0  0  0  0  0  0  0  0  0
   36.1740   27.1790   31.5370 S   0  0  0  0  0  0  0  0  0  0  0  0
   37.4220   26.5010   34.8540 H   0  0  0  0  0  0  0  0  0  0  0  0
   36.5940   28.9260   34.6480 H   0  0  0  0  0  0  0  0  0  0  0  0
   35.5390   29.8750   32.2100 C   0  0  0  0  0  0  0  0  0  0  0  0
   36.2780   30.7630   31.7640 O   0  0  0  0  0  0  0  0  0  0  0  0
   34.1180   30.1280   32.2440 N   0  0  0  0  0  0  0  0  0  0  0  0
   33.5300   30.2890   33.0830 H   0  0  0  0  0  0  0  0  0  0  0  0
   33.6260   30.1490   31.3280 H   0  0  0  0  0  0  0  0  0  0  0  0
   38.3010   20.7220   32.0990 C   0  0  0  0  0  0  0  0  0  0  0  0
   39.6340   20.4120   32.0010 C   0  0  0  0  0  0  0  0  0  0  0  0
   39.6130   18.5670   31.6690 S   0  0  0  0  0  0  0  0  0  0  0  0
   37.7010   18.5940   31.7350 C   0  0  0  0  0  0  0  0  0  0  0  0
   37.5190   19.6830   31.9360 N   0  0  0  0  0  0  0  0  0  0  0  0
   40.6160   20.8780   32.0560 H   0  0  0  0  0  0  0  0  0  0  0  0
   36.9070   17.3540   31.5350 C   0  0  0  0  0  0  0  0  0  0  0  0
   36.5960   17.0900   30.0990 C   0  0  0  0  0  0  0  0  0  0  0  0
   35.5620   17.5230   32.2500 C   0  0  0  0  0  0  0  0  0  0  0  0
   37.6250   16.2560   32.2370 C   0  0  0  0  0  0  0  0  0  0  0  0
  1  7  1  0  0  0  0
  2  9  1  0  0  0  0
  2  1  2  0  0  0  0
  3  2  1  0  0  0  0
  4  3  2  0  0  0  0
  4  5  1  0  0  0  0
  5  6  2  0  0  0  0
  6  1  1  0  0  0  0
  8  3  1  0  0  0  0
  9 10  2  0  0  0  0
 10 14  1  0  0  0  0
 11 10  1  0  0  0  0
 11 15  1  0  0  0  0
 12 11  2  0  0  0  0
 13 12  1  0  0  0  0
 13  9  1  0  0  0  0
 16 18  1  0  0  0  0
 16 12  1  0  0  0  0
 17 16  2  0  0  0  0
 18 19  1  0  0  0  0
 20 18  1  0  0  0  0
 21  5  1  0  0  0  0
 22 26  1  0  0  0  0
 22 21  2  0  0  0  0
 23 24  1  0  0  0  0
 23 22  1  0  0  0  0
 24 25  2  0  0  0  0
 25 21  1  0  0  0  0
 27 24  1  0  0  0  0
 27 30  1  0  0  0  0
 27 29  1  0  0  0  0
 28 27  1  0  0  0  0
M  END
>  <minimizedAffinity>
-4.20180178

>  <minimizedRMSD>
5.65474749

$$$$
