
 OpenBabel03262519563D

 27 29  0  0  1  0  0  0  0  0999 V2000
   38.3490   23.5760   34.4000 C   0  0  0  0  0  0  0  0  0  0  0  0
   37.9030   23.4610   35.7050 C   0  0  0  0  0  0  0  0  0  0  0  0
   38.7670   24.2570   36.4090 N   0  0  0  0  0  0  0  0  0  0  0  0
   39.6350   24.7820   35.5510 C   0  0  0  0  0  0  0  0  0  0  0  0
   39.4000   24.3740   34.2790 N   0  0  0  0  0  0  0  0  0  0  0  0
   37.0630   22.8700   36.0630 H   0  0  0  0  0  0  0  0  0  0  0  0
   40.4410   25.4630   35.8570 H   0  0  0  0  0  0  0  0  0  0  0  0
   37.7360   22.8960   33.2510 C   0  0  0  0  0  0  0  0  0  0  0  0
   38.0040   21.5510   33.0010 C   0  0  0  0  0  0  0  0  0  0  0  0
   37.3930   20.9390   31.8860 C   0  0  0  0  0  0  0  0  0  0  0  0
   36.5790   21.7060   31.1240 N   0  0  0  0  0  0  0  0  0  0  0  0
   36.3340   23.0050   31.3850 C   0  0  0  0  0  0  0  0  0  0  0  0
   36.9100   23.6080   32.4490 N   0  0  0  0  0  0  0  0  0  0  0  0
   38.6660   20.9900   33.6490 H   0  0  0  0  0  0  0  0  0  0  0  0
   37.5880   19.8920   31.6710 H   0  0  0  0  0  0  0  0  0  0  0  0
   35.6750   23.6060   30.7580 H   0  0  0  0  0  0  0  0  0  0  0  0
   40.1850   24.7860   33.1580 C   0  0  1  0  0  0  0  0  0  0  0  0
   39.7340   25.8090   32.2110 C   0  0  0  0  0  0  0  0  0  0  0  0
   40.7010   26.2210   33.2880 C   0  0  2  0  0  0  0  0  0  0  0  0
   41.0110   24.0630   32.9270 H   0  0  0  0  0  0  0  0  0  0  0  0
   38.6730   26.1460   32.3610 H   0  0  0  0  0  0  0  0  0  0  0  0
   40.0050   25.7520   31.1590 H   0  0  0  0  0  0  0  0  0  0  0  0
   40.3280   26.8470   34.0980 H   0  0  0  0  0  0  0  0  0  0  0  0
   42.0680   26.5640   32.7840 C   0  0  0  0  0  0  0  0  0  0  0  0
   42.6210   25.5530   31.8180 C   0  0  0  0  0  1  0  0  0  0  0  0
   43.0770   26.8220   33.8840 C   0  0  0  0  0  1  0  0  0  0  0  0
   41.9380   27.8590   32.0030 C   0  0  0  0  0  1  0  0  0  0  0  0
  1  2  2  0  0  0  0
  2  6  1  0  0  0  0
  2  3  1  0  0  0  0
  4  7  1  0  0  0  0
  4  3  2  0  0  0  0
  5  1  1  0  0  0  0
  5  4  1  0  0  0  0
  8  1  1  0  0  0  0
  9  8  1  0  0  0  0
  9 14  1  0  0  0  0
 10  9  2  0  0  0  0
 11 12  2  0  0  0  0
 11 10  1  0  0  0  0
 12 13  1  0  0  0  0
 13  8  2  0  0  0  0
 15 10  1  0  0  0  0
 16 12  1  0  0  0  0
 17 20  1  6  0  0  0
 17 19  1  0  0  0  0
 17  5  1  0  0  0  0
 18 21  1  0  0  0  0
 18 17  1  0  0  0  0
 18 19  1  0  0  0  0
 19 23  1  1  0  0  0
 22 18  1  0  0  0  0
 24 19  1  0  0  0  0
 24 26  1  0  0  0  0
 25 24  1  0  0  0  0
 27 24  1  0  0  0  0
M  END
>  <minimizedAffinity>
-3.02673578

>  <minimizedRMSD>
6.81594276

$$$$
