REMARK  Name = 
REMARK  4 active torsions:
REMARK  status: ('A' for Active; 'I' for Inactive)
REMARK    1  A    between atoms: N_1  and  C_6
REMARK    2  A    between atoms: C_5  and  O_13
REMARK    3  A    between atoms: C_6  and  C_9
REMARK    4  A    between atoms: O_13  and  C_26
REMARK                            x       y       z     vdW  Elec       q    Type
REMARK                         _______ _______ _______ _____ _____    ______ ____
ROOT
ATOM      1  N   UNL     1      37.896  25.643  34.361  0.00  0.00    +0.000 NA
ATOM      2  C   UNL     1      37.364  25.325  33.073  0.00  0.00    +0.000 C 
ATOM      3  C   UNL     1      36.748  26.602  32.561  0.00  0.00    +0.000 C 
ATOM      4  C   UNL     1      37.017  27.621  33.678  0.00  0.00    +0.000 C 
ATOM      5  C   UNL     1      38.340  27.018  34.216  0.00  0.00    +0.000 C 
ATOM      6  H   UNL     1      38.188  25.015  32.399  0.00  0.00    +0.000 HD
ATOM      7  H   UNL     1      36.624  24.488  33.102  0.00  0.00    +0.000 HD
ATOM      8  H   UNL     1      35.687  26.488  32.340  0.00  0.00    +0.000 HD
ATOM      9  H   UNL     1      37.259  26.950  31.617  0.00  0.00    +0.000 HD
ATOM     10  H   UNL     1      36.231  27.531  34.428  0.00  0.00    +0.000 HD
ATOM     11  H   UNL     1      37.182  28.639  33.284  0.00  0.00    +0.000 HD
ATOM     12  H   UNL     1      38.471  27.416  35.248  0.00  0.00    +0.000 HD
ENDROOT
BRANCH   1  13
ATOM     13  C   UNL     1      39.058  24.889  34.726  0.00  0.00    +0.000 C 
ATOM     14  H   UNL     1      40.008  25.448  34.665  0.00  0.00    +0.000 HD
ATOM     15  H   UNL     1      39.158  24.039  34.018  0.00  0.00    +0.000 HD
BRANCH  13  18
ATOM     16  C   UNL     1      37.928  24.192  38.276  0.00  0.00    +0.000 A 
ATOM     17  C   UNL     1      37.994  24.745  36.988  0.00  0.00    +0.000 A 
ATOM     18  C   UNL     1      38.969  24.317  36.093  0.00  0.00    +0.000 A 
ATOM     19  N   UNL     1      39.830  23.353  36.537  0.00  0.00    +0.000 NA
ATOM     20  C   UNL     1      39.751  22.836  37.771  0.00  0.00    +0.000 A 
ATOM     21  N   UNL     1      38.807  23.256  38.626  0.00  0.00    +0.000 NA
ATOM     22  H   UNL     1      37.116  24.628  38.852  0.00  0.00    +0.000 HD
ATOM     23  H   UNL     1      37.330  25.499  36.624  0.00  0.00    +0.000 HD
ATOM     24  H   UNL     1      40.429  22.072  38.128  0.00  0.00    +0.000 HD
ENDBRANCH  13  18
ENDBRANCH   1  13
BRANCH   5  25
ATOM     25  O   UNL     1      39.374  27.167  33.350  0.00  0.00    +0.000 OA
BRANCH  25  26
ATOM     26  C   UNL     1      40.607  27.739  33.500  0.00  0.00    +0.000 A 
ATOM     27  N   UNL     1      41.114  28.324  34.615  0.00  0.00    +0.000 NA
ATOM     28  C   UNL     1      42.364  28.853  34.616  0.00  0.00    +0.000 A 
ATOM     29  N   UNL     1      43.191  28.845  33.539  0.00  0.00    +0.000 NA
ATOM     30  C   UNL     1      42.705  28.268  32.422  0.00  0.00    +0.000 A 
ATOM     31  C   UNL     1      43.496  28.227  31.293  0.00  0.00    +0.000 A 
ATOM     32  C   UNL     1      43.036  27.646  30.130  0.00  0.00    +0.000 A 
ATOM     33  H   UNL     1      43.658  27.613  29.239  0.00  0.00    +0.000 HD
ATOM     34  C   UNL     1      41.763  27.078  30.041  0.00  0.00    +0.000 A 
ATOM     35  H   UNL     1      41.361  26.612  29.150  0.00  0.00    +0.000 HD
ATOM     36  C   UNL     1      41.024  27.152  31.204  0.00  0.00    +0.000 A 
ATOM     37  C   UNL     1      41.435  27.717  32.381  0.00  0.00    +0.000 A 
ENDBRANCH  25  26
ENDBRANCH   5  25
TORSDOF 4
