
     RDKit          3D

 37 41  0  0  0  0  0  0  0  0999 V2000
   38.0289   23.4718   34.6191 C   0  0  0  0  0  0  0  0  0  0  0  0
   38.2584   24.5671   33.7966 C   0  0  0  0  0  0  0  0  0  0  0  0
   37.7638   24.1844   32.5866 N   0  0  0  0  0  0  0  0  0  0  0  0
   37.2869   22.9553   32.7175 C   0  0  0  0  0  0  0  0  0  0  0  0
   37.4327   22.4733   33.9714 N   0  0  0  0  0  0  0  0  0  0  0  0
   38.3885   23.4012   36.0250 C   0  0  0  0  0  0  0  0  0  0  0  0
   39.5953   22.7962   36.4219 C   0  0  0  0  0  0  0  0  0  0  0  0
   39.8940   22.7558   37.8037 C   0  0  0  0  0  0  0  0  0  0  0  0
   39.0137   23.2944   38.6577 N   0  0  0  0  0  0  0  0  0  0  0  0
   37.8514   23.8749   38.2498 C   0  0  0  0  0  0  0  0  0  0  0  0
   37.5432   23.9262   36.9362 N   0  0  0  0  0  0  0  0  0  0  0  0
   37.0049   21.1737   34.3857 C   0  0  1  0  0  0  0  0  0  0  0  0
   35.8501   20.9599   35.2594 C   0  0  0  0  0  0  0  0  0  0  0  0
   35.6634   20.7708   33.7734 C   0  0  2  0  0  0  0  0  0  0  0  0
   38.7326   25.5100   34.0877 H   0  0  0  0  0  0  0  0  0  0  0  0
   36.8291   22.4149   31.8786 H   0  0  0  0  0  0  0  0  0  0  0  0
   40.2768   22.3734   35.6937 H   0  0  0  0  0  0  0  0  0  0  0  0
   40.8200   22.2943   38.1406 H   0  0  0  0  0  0  0  0  0  0  0  0
   37.1870   24.2888   38.9800 H   0  0  0  0  0  0  0  0  0  0  0  0
   37.8111   20.3934   34.3527 H   0  0  0  0  0  0  0  0  0  0  0  0
   35.3161   21.8430   35.6944 H   0  0  0  0  0  0  0  0  0  0  0  0
   35.8237   20.0757   35.9257 H   0  0  0  0  0  0  0  0  0  0  0  0
   35.0799   21.5035   33.2116 H   0  0  0  0  0  0  0  0  0  0  0  0
   35.5248   19.3665   33.3849 N   0  0  0  0  0  0  0  0  0  0  0  0
   34.3763   18.6948   33.2199 C   0  0  0  0  0  0  0  0  0  0  0  0
   34.6308   17.4042   32.8554 N   0  0  0  0  0  0  0  0  0  0  0  0
   35.9711   17.3134   32.8043 C   0  0  0  0  0  0  0  0  0  0  0  0
   36.8726   16.3121   32.5080 C   0  0  0  0  0  0  0  0  0  0  0  0
   36.3979   15.0177   32.1566 N   0  0  0  0  0  0  0  0  0  0  0  0
   38.2220   16.5061   32.5361 N   0  0  0  0  0  0  0  0  0  0  0  0
   38.7206   17.7294   32.8673 C   0  0  0  0  0  0  0  0  0  0  0  0
   37.8669   18.7267   33.1615 N   0  0  0  0  0  0  0  0  0  0  0  0
   36.5502   18.5171   33.1285 C   0  0  0  0  0  0  0  0  0  0  0  0
   33.3877   19.1068   33.3536 H   0  0  0  0  0  0  0  0  0  0  0  0
   36.3935   14.5545   33.1106 H   0  0  0  0  0  0  0  0  0  0  0  0
   36.0858   14.4350   31.3561 H   0  0  0  0  0  0  0  0  0  0  0  0
   39.7983   17.8016   32.8667 H   0  0  0  0  0  0  0  0  0  0  0  0
  1  6  1  0
  2  1  2  0
  3  4  2  0
  3  2  1  0
  4  5  1  0
  5 12  1  0
  5  1  1  0
  6  7  2  0
  6 11  1  0
  7  8  1  0
  8  9  2  0
 10  9  1  0
 11 10  2  0
 12 13  1  0
 14 12  1  0
 14 13  1  0
  2 15  1  0
  4 16  1  0
  7 17  1  0
  8 18  1  0
 10 19  1  0
 12 20  1  1
 13 21  1  0
 13 22  1  0
 14 23  1  6
 24 25  1  0
 25 26  2  0
 26 27  1  0
 27 28  2  0
 28 29  1  0
 28 30  1  0
 30 31  2  0
 31 32  1  0
 32 33  2  0
 33 24  1  0
 33 27  1  0
 25 34  1  0
 29 35  1  0
 29 36  1  0
 31 37  1  0
 14 24  1  0
M  ISO  8  15  14  16  14  17  14  18  14  19  14  20  13  21  13  22  13
M  ISO  1  23  13
M  END
>  <DihAtoms>  (1) 
11,13,23,24

>  <DihDeg>  (1) 
38.319798814454714

$$$$
