
     RDKit          3D

 46 50  0  0  0  0  0  0  0  0999 V2000
   37.6405   25.3747   34.3680 N   0  0  0  0  0  0  0  0  0  0  0  0
   37.1087   25.4072   33.0227 C   0  0  0  0  0  0  0  0  0  0  0  0
   36.8429   26.8443   32.7303 C   0  0  0  0  0  0  0  0  0  0  0  0
   37.2982   27.5694   33.9835 C   0  0  0  0  0  0  0  0  0  0  0  0
   38.4017   26.5794   34.4604 C   0  0  2  0  0  0  0  0  0  0  0  0
   38.5482   24.2790   34.5550 C   0  0  0  0  0  0  0  0  0  0  0  0
   37.8720   23.9098   38.2648 C   0  0  0  0  0  0  0  0  0  0  0  0
   37.6853   24.2857   36.9395 C   0  0  0  0  0  0  0  0  0  0  0  0
   38.6771   23.9146   36.0015 C   0  0  0  0  0  0  0  0  0  0  0  0
   39.7525   23.2109   36.4632 N   0  0  0  0  0  0  0  0  0  0  0  0
   39.8708   22.8782   37.7657 C   0  0  0  0  0  0  0  0  0  0  0  0
   38.9295   23.2318   38.6494 N   0  0  0  0  0  0  0  0  0  0  0  0
   39.4881   26.5913   33.6283 O   0  0  0  0  0  0  0  0  0  0  0  0
   40.6077   27.1653   34.1847 C   0  0  2  0  0  0  0  0  0  0  0  0
   41.6986   27.5435   33.2198 C   0  0  0  0  0  0  0  0  0  0  0  0
   41.9083   26.4229   34.2074 C   0  0  1  0  0  0  0  0  0  0  0  0
   37.8703   25.0168   32.3131 H   0  0  0  0  0  0  0  0  0  0  0  0
   36.2059   24.7673   32.9679 H   0  0  0  0  0  0  0  0  0  0  0  0
   37.3615   27.2201   31.8290 H   0  0  0  0  0  0  0  0  0  0  0  0
   35.7342   27.0300   32.6684 H   0  0  0  0  0  0  0  0  0  0  0  0
   36.5251   27.6116   34.7544 H   0  0  0  0  0  0  0  0  0  0  0  0
   37.8172   28.5135   33.7735 H   0  0  0  0  0  0  0  0  0  0  0  0
   38.7300   26.9126   35.4509 H   0  0  0  0  0  0  0  0  0  0  0  0
   39.5385   24.5361   34.1399 H   0  0  0  0  0  0  0  0  0  0  0  0
   38.1755   23.4058   33.9788 H   0  0  0  0  0  0  0  0  0  0  0  0
   37.0951   24.2124   38.9424 H   0  0  0  0  0  0  0  0  0  0  0  0
   36.8648   24.8375   36.5144 H   0  0  0  0  0  0  0  0  0  0  0  0
   40.7943   22.3254   37.9087 H   0  0  0  0  0  0  0  0  0  0  0  0
   40.3848   27.6823   35.1263 H   0  0  0  0  0  0  0  0  0  0  0  0
   42.2337   28.5059   33.3554 H   0  0  0  0  0  0  0  0  0  0  0  0
   41.6145   27.1719   32.1609 H   0  0  0  0  0  0  0  0  0  0  0  0
   41.9727   25.3903   33.8700 H   0  0  0  0  0  0  0  0  0  0  0  0
   42.8065   26.7811   35.2842 N   0  0  0  0  0  0  0  0  0  0  0  0
   43.4292   27.9842   35.4542 C   0  0  0  0  0  0  0  0  0  0  0  0
   44.1987   27.9924   36.5571 N   0  0  0  0  0  0  0  0  0  0  0  0
   44.0945   26.7819   37.1380 C   0  0  0  0  0  0  0  0  0  0  0  0
   44.6057   26.1555   38.2523 C   0  0  0  0  0  0  0  0  0  0  0  0
   45.4958   26.9010   39.0835 N   0  0  0  0  0  0  0  0  0  0  0  0
   44.3078   24.8874   38.5892 N   0  0  0  0  0  0  0  0  0  0  0  0
   43.4675   24.2075   37.7901 C   0  0  0  0  0  0  0  0  0  0  0  0
   42.9693   24.8073   36.7104 N   0  0  0  0  0  0  0  0  0  0  0  0
   43.2354   26.0604   36.3370 C   0  0  0  0  0  0  0  0  0  0  0  0
   43.3271   28.8491   34.7848 H   0  0  0  0  0  0  0  0  0  0  0  0
   45.4950   27.9161   39.3260 H   0  0  0  0  0  0  0  0  0  0  0  0
   46.2823   26.3671   39.5326 H   0  0  0  0  0  0  0  0  0  0  0  0
   43.1333   23.1818   37.9283 H   0  0  0  0  0  0  0  0  0  0  0  0
  1  5  1  0
  1  6  1  0
  2  1  1  0
  3  2  1  0
  3  4  1  0
  4  5  1  0
  6  9  1  0
  7 12  2  0
  8  7  1  0
  9 10  1  0
  9  8  2  0
 10 11  2  0
 11 12  1  0
 13 14  1  0
 13  5  1  0
 14 16  1  0
 15 14  1  0
 15 16  1  0
  2 17  1  0
  2 18  1  0
  3 19  1  0
  3 20  1  0
  4 21  1  0
  4 22  1  0
  5 23  1  1
  6 24  1  0
  6 25  1  0
  7 26  1  0
  8 27  1  0
 11 28  1  0
 14 29  1  1
 15 30  1  0
 15 31  1  0
 16 32  1  6
 33 34  1  0
 34 35  2  0
 35 36  1  0
 36 37  2  0
 37 38  1  0
 37 39  1  0
 39 40  2  0
 40 41  1  0
 41 42  2  0
 42 33  1  0
 42 36  1  0
 34 43  1  0
 38 44  1  0
 38 45  1  0
 40 46  1  0
 16 33  1  0
M  ISO  8  17  13  18  13  19  13  20  13  21  13  22  13  23  13  24   8
M  ISO  8  25   8  26  14  27  14  28  14  29  13  30  13  31  13  32  13
M  END
>  <DihAtoms>  (1) 
13,15,32,33

>  <DihDeg>  (1) 
143.72819997300482

$$$$
