
 OpenBabel03262518383D

 52 56  0  0  0  0  0  0  0  0999 V2000
   37.1580   26.7610   34.6030 C   0  0  0  0  0  0  0  0  0  0  0  0
   37.2670   25.9730   33.4710 C   0  0  0  0  0  0  0  0  0  0  0  0
   36.6280   26.3970   32.2870 C   0  0  0  0  0  0  0  0  0  0  0  0
   35.9410   27.5600   32.3360 N   0  0  0  0  0  0  0  0  0  0  0  0
   35.8490   28.3090   33.4460 C   0  0  0  0  0  0  0  0  0  0  0  0
   36.4580   27.9170   34.5950 N   0  0  0  0  0  0  0  0  0  0  0  0
   37.8130   25.0390   33.4230 H   0  0  0  0  0  0  0  0  0  0  0  0
   36.7090   25.7860   31.4030 H   0  0  0  0  0  0  0  0  0  0  0  0
   37.8240   26.3080   35.8180 C   0  0  0  0  0  0  0  0  0  0  0  0
   38.6850   27.0440   36.3550 O   0  0  0  0  0  0  0  0  0  0  0  0
   37.5000   25.0870   36.3550 O   0  0  0  0  0  0  0  0  0  0  0  0
   39.4490   22.7900   38.2010 N   0  0  0  0  0  0  0  0  0  0  0  0
   38.3880   23.5830   38.0120 N   0  0  0  0  0  0  0  0  0  0  0  0
   38.4970   24.1920   36.8010 C   0  0  0  0  0  0  0  0  0  0  0  0
   39.6610   23.7740   36.2070 C   0  0  0  0  0  0  0  0  0  0  0  0
   40.2220   22.9110   37.0980 C   0  0  0  0  0  0  0  0  0  0  0  0
   39.6510   22.1890   39.0380 H   0  0  0  0  0  0  0  0  0  0  0  0
   39.9810   24.1070   35.2440 H   0  0  0  0  0  0  0  0  0  0  0  0
   41.5130   22.2020   36.8720 C   0  0  0  0  0  0  0  0  0  0  0  0
   42.5310   22.8410   36.2080 C   0  0  0  0  0  0  0  0  0  0  0  0
   43.6720   22.1040   36.0540 C   0  0  0  0  0  0  0  0  0  0  0  0
   43.8640   20.8360   36.4920 N   0  0  0  0  0  0  0  0  0  0  0  0
   42.8210   20.2420   37.1470 C   0  0  0  0  0  0  0  0  0  0  0  0
   41.6880   20.9430   37.3130 N   0  0  0  0  0  0  0  0  0  0  0  0
   42.4460   23.8490   35.8330 H   0  0  0  0  0  0  0  0  0  0  0  0
   44.5450   22.5110   35.5430 H   0  0  0  0  0  0  0  0  0  0  0  0
   42.8370   19.2340   37.5500 H   0  0  0  0  0  0  0  0  0  0  0  0
   35.0740   29.5720   33.4010 C   0  0  0  0  0  0  0  0  0  0  0  0
   35.8590   30.6120   34.1870 C   0  0  0  0  0  0  0  0  0  0  0  0
   35.5690   31.6070   33.7760 H   0  0  0  0  0  0  0  0  0  0  0  0
   35.5740   30.5620   35.2420 H   0  0  0  0  0  0  0  0  0  0  0  0
   36.9480   30.5040   34.0190 H   0  0  0  0  0  0  0  0  0  0  0  0
   33.7450   29.3140   34.0660 C   0  0  0  0  0  0  0  0  0  0  0  0
   33.0880   28.8260   33.3360 H   0  0  0  0  0  0  0  0  0  0  0  0
   33.8900   28.6550   34.9380 H   0  0  0  0  0  0  0  0  0  0  0  0
   33.2570   30.2840   34.3530 H   0  0  0  0  0  0  0  0  0  0  0  0
   34.8710   30.0500   31.9590 C   0  0  0  0  0  0  0  0  0  0  0  0
   34.6020   29.1660   31.3290 H   0  0  0  0  0  0  0  0  0  0  0  0
   34.0310   30.7780   31.9810 H   0  0  0  0  0  0  0  0  0  0  0  0
   36.0390   30.6990   31.6040 O   0  0  0  0  0  0  0  0  0  0  0  0
   36.8030   30.5730   30.4790 C   0  0  0  0  0  0  0  0  0  0  0  0
   36.9640   29.4780   29.7110 N   0  0  0  0  0  0  0  0  0  0  0  0
   37.7650   29.4980   28.6090 C   0  0  0  0  0  0  0  0  0  0  0  0
   38.4560   30.5840   28.1870 N   0  0  0  0  0  0  0  0  0  0  0  0
   38.3040   31.7030   28.9550 C   0  0  0  0  0  0  0  0  0  0  0  0
   39.0140   32.8020   28.5140 C   0  0  0  0  0  0  0  0  0  0  0  0
   38.8860   33.9640   29.2700 C   0  0  0  0  0  0  0  0  0  0  0  0
   39.4250   34.8740   28.9720 H   0  0  0  0  0  0  0  0  0  0  0  0
   38.0960   34.0390   30.4040 C   0  0  0  0  0  0  0  0  0  0  0  0
   37.9690   34.9050   31.0120 H   0  0  0  0  0  0  0  0  0  0  0  0
   37.4090   32.9010   30.7930 C   0  0  0  0  0  0  0  0  0  0  0  0
   37.4910   31.7210   30.0930 C   0  0  0  0  0  0  0  0  0  0  0  0
  1  9  1  0  0  0  0
  2  1  2  0  0  0  0
  3  4  2  0  0  0  0
  3  2  1  0  0  0  0
  4  5  1  0  0  0  0
  5  6  2  0  0  0  0
  6  1  1  0  0  0  0
  7  2  1  0  0  0  0
  8  3  1  0  0  0  0
  9 11  1  0  0  0  0
  9 10  2  0  0  0  0
 11 14  1  0  0  0  0
 12 17  1  0  0  0  0
 13 12  1  0  0  0  0
 14 13  2  0  0  0  0
 15 14  1  0  0  0  0
 15 16  2  0  0  0  0
 16 12  1  0  0  0  0
 18 15  1  0  0  0  0
 19 16  1  0  0  0  0
 19 24  1  0  0  0  0
 20 19  2  0  0  0  0
 21 20  1  0  0  0  0
 21 22  2  0  0  0  0
 22 23  1  0  0  0  0
 23 24  2  0  0  0  0
 23 27  1  0  0  0  0
 25 20  1  0  0  0  0
 26 21  1  0  0  0  0
 28  5  1  0  0  0  0
 28 33  1  0  0  0  0
 28 29  1  0  0  0  0
 29 31  1  0  0  0  0
 30 29  1  0  0  0  0
 32 29  1  0  0  0  0
 33 36  1  0  0  0  0
 33 35  1  0  0  0  0
 34 33  1  0  0  0  0
 37 39  1  0  0  0  0
 37 28  1  0  0  0  0
 38 37  1  0  0  0  0
 40 37  1  0  0  0  0
 41 40  1  0  0  0  0
 42 41  2  0  0  0  0
 43 42  1  0  0  0  0
 44 43  2  0  0  0  0
 44 45  1  0  0  0  0
 45 52  1  0  0  0  0
 46 45  2  0  0  0  0
 46 47  1  0  0  0  0
 47 49  2  0  0  0  0
 48 47  1  0  0  0  0
 49 51  1  0  0  0  0
 49 50  1  0  0  0  0
 52 41  1  0  0  0  0
 52 51  2  0  0  0  0
M  END
>  <minimizedAffinity>
-6.13450336

>  <minimizedRMSD>
1.17651904

$$$$
