
 OpenBabel03262519563D

 35 39  0  0  1  0  0  0  0  0999 V2000
   37.3950   21.6250   33.8570 C   0  0  1  0  0  0  0  0  0  0  0  0
   36.2710   21.1930   34.6890 C   0  0  0  0  0  0  0  0  0  0  0  0
   36.0650   21.2650   33.1950 C   0  0  2  0  0  0  0  0  0  0  0  0
   38.2410   20.9100   33.6750 H   0  0  0  0  0  0  0  0  0  0  0  0
   35.7000   21.9520   35.2820 H   0  0  0  0  0  0  0  0  0  0  0  0
   36.3060   20.2040   35.1850 H   0  0  0  0  0  0  0  0  0  0  0  0
   35.4320   22.0520   32.7820 H   0  0  0  0  0  0  0  0  0  0  0  0
   35.9940   19.9470   32.5610 N   0  0  0  0  0  0  0  0  0  0  0  0
   35.3370   18.8750   33.0250 C   0  0  0  0  0  3  0  0  0  0  0  0
   35.4900   17.8210   32.1710 N   0  0  0  0  0  0  0  0  0  0  0  0
   36.2620   18.2870   31.1740 C   0  0  0  0  0  0  0  0  0  0  0  0
   36.7860   17.7580   30.0140 C   0  0  0  0  0  0  0  0  0  0  0  0
   37.5610   18.4840   29.1580 N   0  0  0  0  0  0  0  0  0  0  0  0
   37.8410   19.7860   29.4430 C   0  0  0  0  0  3  0  0  0  0  0  0
   37.3440   20.3320   30.5680 N   0  0  0  0  0  0  0  0  0  0  0  0
   36.5880   19.6050   31.3920 C   0  0  0  0  0  0  0  0  0  0  0  0
   36.5200   16.4020   29.6750 N   0  0  0  0  0  0  0  0  0  0  0  0
   37.3610   15.9290   30.1180 H   0  0  0  0  0  0  0  0  0  0  0  0
   35.8440   15.7830   29.1870 H   0  0  0  0  0  0  0  0  0  0  0  0
   38.2200   23.9210   34.5160 C   0  0  0  0  0  0  0  0  0  0  0  0
   38.4130   25.1460   33.8910 C   0  0  0  0  0  0  0  0  0  0  0  0
   38.0260   24.9270   32.6030 N   0  0  0  0  0  0  0  0  0  0  0  0
   37.6400   23.6640   32.5080 C   0  0  0  0  0  0  0  0  0  0  0  0
   37.7450   23.0000   33.6800 N   0  0  0  0  0  0  0  0  0  0  0  0
   38.7930   26.0610   34.3580 H   0  0  0  0  0  0  0  0  0  0  0  0
   37.2790   23.2340   31.5650 H   0  0  0  0  0  0  0  0  0  0  0  0
   38.4960   23.6530   35.9170 C   0  0  0  0  0  0  0  0  0  0  0  0
   39.7030   23.0410   36.3000 C   0  0  0  0  0  0  0  0  0  0  0  0
   39.9180   22.8040   37.6780 C   0  0  0  0  0  0  0  0  0  0  0  0
   38.9630   23.1730   38.5410 N   0  0  0  0  0  0  0  0  0  0  0  0
   37.8010   23.7650   38.1460 C   0  0  0  0  0  0  0  0  0  0  0  0
   37.5720   24.0020   36.8360 N   0  0  0  0  0  0  0  0  0  0  0  0
   40.4470   22.7590   35.5650 H   0  0  0  0  0  0  0  0  0  0  0  0
   40.8430   22.3320   38.0040 H   0  0  0  0  0  0  0  0  0  0  0  0
   37.0750   24.0380   38.8830 H   0  0  0  0  0  0  0  0  0  0  0  0
  1  4  1  6  0  0  0
  1  2  1  0  0  0  0
  2  6  1  0  0  0  0
  2  5  1  0  0  0  0
  3  7  1  6  0  0  0
  3  1  1  0  0  0  0
  3  2  1  0  0  0  0
  8  9  1  0  0  0  0
  8  3  1  0  0  0  0
 10  9  2  0  0  0  0
 11 16  1  0  0  0  0
 11 10  1  0  0  0  0
 12 11  2  0  0  0  0
 13 14  2  0  0  0  0
 13 12  1  0  0  0  0
 14 15  1  0  0  0  0
 15 16  2  0  0  0  0
 16  8  1  0  0  0  0
 17 12  1  0  0  0  0
 17 18  1  0  0  0  0
 19 17  1  0  0  0  0
 20 27  1  0  0  0  0
 21 25  1  0  0  0  0
 21 20  2  0  0  0  0
 22 21  1  0  0  0  0
 23 22  2  0  0  0  0
 23 24  1  0  0  0  0
 24  1  1  0  0  0  0
 24 20  1  0  0  0  0
 26 23  1  0  0  0  0
 27 28  2  0  0  0  0
 27 32  1  0  0  0  0
 28 29  1  0  0  0  0
 29 34  1  0  0  0  0
 29 30  2  0  0  0  0
 31 30  1  0  0  0  0
 31 35  1  0  0  0  0
 32 31  2  0  0  0  0
 33 28  1  0  0  0  0
M  END
>  <minimizedAffinity>
-5.25454664

>  <minimizedRMSD>
1.50745571

$$$$
