REMARK  Name = 
REMARK  6 active torsions:
REMARK  status: ('A' for Active; 'I' for Inactive)
REMARK    1  A    between atoms: N_1  and  C_6
REMARK    2  A    between atoms: C_5  and  O_13
REMARK    3  A    between atoms: C_6  and  C_9
REMARK    4  A    between atoms: O_13  and  C_14
REMARK    5  A    between atoms: C_16  and  N_33
REMARK    6  A    between atoms: C_37  and  N_38
REMARK                            x       y       z     vdW  Elec       q    Type
REMARK                         _______ _______ _______ _____ _____    ______ ____
ROOT
ATOM      1  N   UNL     1      37.641  25.375  34.368  0.00  0.00    +0.000 NA
ATOM      2  C   UNL     1      37.109  25.407  33.023  0.00  0.00    +0.000 C 
ATOM      3  C   UNL     1      36.843  26.844  32.730  0.00  0.00    +0.000 C 
ATOM      4  C   UNL     1      37.298  27.569  33.983  0.00  0.00    +0.000 C 
ATOM      5  C   UNL     1      38.402  26.579  34.460  0.00  0.00    +0.000 C 
ATOM      6  H   UNL     1      37.870  25.017  32.313  0.00  0.00    +0.000 HD
ATOM      7  H   UNL     1      36.206  24.767  32.968  0.00  0.00    +0.000 HD
ATOM      8  H   UNL     1      37.361  27.220  31.829  0.00  0.00    +0.000 HD
ATOM      9  H   UNL     1      35.734  27.030  32.668  0.00  0.00    +0.000 HD
ATOM     10  H   UNL     1      36.525  27.612  34.754  0.00  0.00    +0.000 HD
ATOM     11  H   UNL     1      37.817  28.514  33.773  0.00  0.00    +0.000 HD
ATOM     12  H   UNL     1      38.730  26.913  35.451  0.00  0.00    +0.000 HD
ENDROOT
BRANCH   1  13
ATOM     13  C   UNL     1      38.548  24.279  34.555  0.00  0.00    +0.000 C 
ATOM     14  H   UNL     1      39.538  24.536  34.140  0.00  0.00    +0.000 HD
ATOM     15  H   UNL     1      38.175  23.406  33.979  0.00  0.00    +0.000 HD
BRANCH  13  18
ATOM     16  C   UNL     1      37.872  23.910  38.265  0.00  0.00    +0.000 A 
ATOM     17  C   UNL     1      37.685  24.286  36.940  0.00  0.00    +0.000 A 
ATOM     18  C   UNL     1      38.677  23.915  36.002  0.00  0.00    +0.000 A 
ATOM     19  N   UNL     1      39.752  23.211  36.463  0.00  0.00    +0.000 NA
ATOM     20  C   UNL     1      39.871  22.878  37.766  0.00  0.00    +0.000 A 
ATOM     21  N   UNL     1      38.929  23.232  38.649  0.00  0.00    +0.000 NA
ATOM     22  H   UNL     1      37.095  24.212  38.942  0.00  0.00    +0.000 HD
ATOM     23  H   UNL     1      36.865  24.837  36.514  0.00  0.00    +0.000 HD
ATOM     24  H   UNL     1      40.794  22.325  37.909  0.00  0.00    +0.000 HD
ENDBRANCH  13  18
ENDBRANCH   1  13
BRANCH   5  25
ATOM     25  O   UNL     1      39.488  26.591  33.628  0.00  0.00    +0.000 OA
BRANCH  25  26
ATOM     26  C   UNL     1      40.608  27.165  34.185  0.00  0.00    +0.000 C 
ATOM     27  C   UNL     1      41.699  27.544  33.220  0.00  0.00    +0.000 C 
ATOM     28  C   UNL     1      41.908  26.423  34.207  0.00  0.00    +0.000 C 
ATOM     29  H   UNL     1      40.385  27.682  35.126  0.00  0.00    +0.000 HD
ATOM     30  H   UNL     1      42.234  28.506  33.355  0.00  0.00    +0.000 HD
ATOM     31  H   UNL     1      41.614  27.172  32.161  0.00  0.00    +0.000 HD
ATOM     32  H   UNL     1      41.973  25.390  33.870  0.00  0.00    +0.000 HD
BRANCH  28  33
ATOM     33  N   UNL     1      42.806  26.781  35.284  0.00  0.00    +0.000 N 
ATOM     34  C   UNL     1      43.429  27.984  35.454  0.00  0.00    +0.000 A 
ATOM     35  N   UNL     1      44.199  27.992  36.557  0.00  0.00    +0.000 NA
ATOM     36  C   UNL     1      44.094  26.782  37.138  0.00  0.00    +0.000 A 
ATOM     37  C   UNL     1      44.606  26.155  38.252  0.00  0.00    +0.000 A 
ATOM     38  N   UNL     1      44.308  24.887  38.589  0.00  0.00    +0.000 NA
ATOM     39  C   UNL     1      43.468  24.207  37.790  0.00  0.00    +0.000 A 
ATOM     40  N   UNL     1      42.969  24.807  36.710  0.00  0.00    +0.000 NA
ATOM     41  C   UNL     1      43.235  26.060  36.337  0.00  0.00    +0.000 A 
BRANCH  37  42
ATOM     42  N   UNL     1      45.496  26.901  39.084  0.00  0.00    +0.000 N 
ATOM     43  H   UNL     1      45.495  27.916  39.326  0.00  0.00    +0.000 HD
ATOM     44  H   UNL     1      46.282  26.367  39.533  0.00  0.00    +0.000 HD
ENDBRANCH  37  42
ENDBRANCH  28  33
ENDBRANCH  25  26
ENDBRANCH   5  25
TORSDOF 6
