
 OpenBabel03262518003D

 29 32  0  0  0  0  0  0  0  0999 V2000
   44.1570   20.5010   36.1350 C   0  0  0  0  0  0  0  0  0  0  0  0
   42.7900   20.7130   36.3360 C   0  0  0  0  0  0  0  0  0  0  0  0
   42.2980   22.0210   36.2580 C   0  0  0  0  0  0  0  0  0  0  0  0
   43.1910   23.0260   35.9880 N   0  0  0  0  0  0  0  0  0  0  0  0
   44.5040   22.7730   35.8010 C   0  0  0  0  0  0  0  0  0  0  0  0
   44.9900   21.5090   35.8740 N   0  0  0  0  0  0  0  0  0  0  0  0
   44.5300   19.5090   36.1930 H   0  0  0  0  0  0  0  0  0  0  0  0
   42.1190   19.8780   36.5480 H   0  0  0  0  0  0  0  0  0  0  0  0
   45.4480   23.8000   35.5200 N   0  0  0  0  0  0  0  0  0  0  0  0
   45.7070   24.1220   34.2210 C   0  0  0  0  0  0  0  0  0  0  0  0
   46.6290   25.1190   34.1670 N   0  0  0  0  0  0  0  0  0  0  0  0
   46.9650   25.4380   35.4320 C   0  0  0  0  0  0  0  0  0  0  0  0
   47.8200   26.3390   36.0650 C   0  0  0  0  0  0  0  0  0  0  0  0
   47.8970   26.3780   37.4200 N   0  0  0  0  0  0  0  0  0  0  0  0
   47.1380   25.5340   38.1790 C   0  0  0  0  0  0  0  0  0  0  0  0
   46.2950   24.6450   37.5830 N   0  0  0  0  0  0  0  0  0  0  0  0
   46.2170   24.6070   36.2420 C   0  0  0  0  0  0  0  0  0  0  0  0
   40.8800   22.2970   36.4600 C   0  0  0  0  0  0  0  0  0  0  0  0
   39.7610   22.0730   35.7160 N   0  0  0  0  0  0  0  0  0  0  0  0
   38.7310   22.5180   36.3660 O   0  0  0  0  0  0  0  0  0  0  0  0
   39.1100   23.0380   37.5260 C   0  0  0  0  0  0  0  0  0  0  0  0
   40.4330   22.8970   37.5750 N   0  0  0  0  0  0  0  0  0  0  0  0
   38.2610   23.6470   38.5570 C   0  0  0  0  0  0  0  0  0  0  0  0
   39.0440   23.9520   39.6640 F   0  0  0  0  0  0  0  0  0  0  0  0
   37.2640   22.7870   38.9750 F   0  0  0  0  0  0  0  0  0  0  0  0
   37.7180   24.8210   38.0950 F   0  0  0  0  0  0  0  0  0  0  0  0
   48.5680   27.1740   35.1990 N   0  0  0  0  0  0  0  0  0  0  0  0
   48.0630   28.0220   34.8120 H   0  0  0  0  0  0  0  0  0  0  0  0
   49.5520   27.0430   34.9040 H   0  0  0  0  0  0  0  0  0  0  0  0
  1  7  1  0  0  0  0
  1  2  1  0  0  0  0
  2  8  1  0  0  0  0
  3  2  2  0  0  0  0
  3 18  1  0  0  0  0
  4  3  1  0  0  0  0
  5  6  1  0  0  0  0
  5  4  2  0  0  0  0
  6  1  2  0  0  0  0
  9  5  1  0  0  0  0
  9 17  1  0  0  0  0
 10  9  1  0  0  0  0
 11 10  2  0  0  0  0
 11 12  1  0  0  0  0
 12 13  2  0  0  0  0
 12 17  1  0  0  0  0
 13 14  1  0  0  0  0
 14 15  2  0  0  0  0
 16 15  1  0  0  0  0
 17 16  2  0  0  0  0
 18 22  1  0  0  0  0
 19 20  1  0  0  0  0
 19 18  2  0  0  0  0
 20 21  1  0  0  0  0
 21 22  2  0  0  0  0
 21 23  1  0  0  0  0
 23 25  1  0  0  0  0
 23 24  1  0  0  0  0
 26 23  1  0  0  0  0
 27 13  1  0  0  0  0
 28 27  1  0  0  0  0
 29 27  1  0  0  0  0
M  END
>  <minimizedAffinity>
-5.54675436

>  <minimizedRMSD>
4.0814724

$$$$
