
 OpenBabel03262519593D

 38 42  0  0  1  0  0  0  0  0999 V2000
   40.0060   24.1870   31.6000 C   0  0  1  0  0  0  0  0  0  0  0  0
   38.9680   24.7160   30.7580 C   0  0  0  0  0  0  0  0  0  0  0  0
   39.7880   25.6630   31.6860 C   0  0  1  0  0  0  0  0  0  0  0  0
   40.9500   23.8600   31.0480 H   0  0  0  0  0  0  0  0  0  0  0  0
   39.0850   24.8590   29.6710 H   0  0  0  0  0  0  0  0  0  0  0  0
   37.9110   24.6270   31.0500 H   0  0  0  0  0  0  0  0  0  0  0  0
   38.8200   26.3820   32.5100 N   0  0  0  0  0  0  0  0  0  0  0  0
   38.8210   26.3260   33.8740 C   0  0  0  0  0  3  0  0  0  0  0  0
   37.8120   27.0910   34.3670 N   0  0  0  0  0  0  0  0  0  0  0  0
   37.1950   27.6140   33.3020 C   0  0  0  0  0  0  0  0  0  0  0  0
   36.1140   28.4600   33.1100 C   0  0  0  0  0  0  0  0  0  0  0  0
   35.6830   28.8440   31.8950 N   0  0  0  0  0  0  0  0  0  0  0  0
   36.3240   28.3900   30.7810 C   0  0  0  0  0  3  0  0  0  0  0  0
   37.3740   27.5680   30.9470 N   0  0  0  0  0  0  0  0  0  0  0  0
   37.8000   27.1890   32.1610 C   0  0  0  0  0  0  0  0  0  0  0  0
   35.4030   28.9670   34.2400 N   0  0  0  0  0  0  0  0  0  0  0  0
   35.9290   29.6630   34.8100 H   0  0  0  0  0  0  0  0  0  0  0  0
   34.4470   28.7730   34.6080 H   0  0  0  0  0  0  0  0  0  0  0  0
   38.8870   22.6650   33.2410 C   0  0  0  0  0  0  0  0  0  0  0  0
   39.1340   22.2160   34.5360 C   0  0  0  0  0  0  0  0  0  0  0  0
   40.3070   22.8340   34.8710 N   0  0  0  0  0  0  0  0  0  0  0  0
   40.6860   23.5750   33.8340 C   0  0  0  0  0  0  0  0  0  0  0  0
   39.8310   23.4900   32.8200 N   0  0  0  0  0  0  0  0  0  0  0  0
   38.5030   21.5390   35.0830 H   0  0  0  0  0  0  0  0  0  0  0  0
   41.6190   24.1090   34.0080 H   0  0  0  0  0  0  0  0  0  0  0  0
   37.7380   22.2700   32.4390 C   0  0  0  0  0  0  0  0  0  0  0  0
   37.8180   21.1140   31.6330 C   0  0  0  0  0  0  0  0  0  0  0  0
   36.6780   20.7630   30.8750 C   0  0  0  0  0  0  0  0  0  0  0  0
   35.5850   21.5650   30.9760 N   0  0  0  0  0  0  0  0  0  0  0  0
   35.5510   22.6660   31.7630 C   0  0  0  0  0  0  0  0  0  0  0  0
   36.6200   23.0200   32.4930 N   0  0  0  0  0  0  0  0  0  0  0  0
   38.7540   20.5760   31.6540 H   0  0  0  0  0  0  0  0  0  0  0  0
   36.7580   19.8900   30.2740 H   0  0  0  0  0  0  0  0  0  0  0  0
   34.6110   23.1910   31.7300 H   0  0  0  0  0  0  0  0  0  0  0  0
   40.7110   26.5460   30.8700 C   0  0  0  0  0  0  0  0  0  0  0  0
   41.0690   27.6570   31.6080 F   0  0  0  0  0  0  0  0  0  0  0  0
   41.9710   25.8330   30.6920 F   0  0  0  0  0  0  0  0  0  0  0  0
   40.2620   26.8240   29.6380 F   0  0  0  0  0  0  0  0  0  0  0  0
  1  4  1  6  0  0  0
  1  3  1  0  0  0  0
  1 23  1  0  0  0  0
  2  6  1  0  0  0  0
  2  1  1  0  0  0  0
  2  3  1  0  0  0  0
  3 35  1  6  0  0  0
  3  7  1  0  0  0  0
  5  2  1  0  0  0  0
  7  8  1  0  0  0  0
  8  9  2  0  0  0  0
 10  9  1  0  0  0  0
 11 10  1  0  0  0  0
 11 16  1  0  0  0  0
 12 11  2  0  0  0  0
 13 14  2  0  0  0  0
 13 12  1  0  0  0  0
 14 15  1  0  0  0  0
 15  7  1  0  0  0  0
 15 10  2  0  0  0  0
 16 18  1  0  0  0  0
 16 17  1  0  0  0  0
 19 20  2  0  0  0  0
 20 21  1  0  0  0  0
 20 24  1  0  0  0  0
 22 25  1  0  0  0  0
 22 21  2  0  0  0  0
 23 19  1  0  0  0  0
 23 22  1  0  0  0  0
 26 31  1  0  0  0  0
 26 19  1  0  0  0  0
 27 32  1  0  0  0  0
 27 26  2  0  0  0  0
 28 29  2  0  0  0  0
 28 27  1  0  0  0  0
 29 30  1  0  0  0  0
 30 31  2  0  0  0  0
 33 28  1  0  0  0  0
 34 30  1  0  0  0  0
 35 36  1  0  0  0  0
 37 35  1  0  0  0  0
 38 35  1  0  0  0  0
M  END
>  <minimizedAffinity>
-4.36114645

>  <minimizedRMSD>
6.58460236

$$$$
