
     RDKit          3D

 46 50  0  0  0  0  0  0  0  0999 V2000
   38.0818   25.7643   35.4216 C   0  0  1  0  0  0  0  0  0  0  0  0
   38.6479   23.3904   38.3111 C   0  0  0  0  0  0  0  0  0  0  0  0
   38.0580   24.4214   37.5679 C   0  0  0  0  0  0  0  0  0  0  0  0
   38.6322   24.7124   36.2962 C   0  0  0  0  0  0  0  0  0  0  0  0
   39.7230   23.9706   35.8747 N   0  0  0  0  0  0  0  0  0  0  0  0
   40.2548   23.0029   36.6024 C   0  0  0  0  0  0  0  0  0  0  0  0
   39.7120   22.7040   37.8421 N   0  0  0  0  0  0  0  0  0  0  0  0
   38.3545   27.1403   36.0224 C   0  0  0  0  0  0  0  0  0  0  0  0
   38.5840   25.7070   34.0272 C   0  0  0  0  0  0  0  0  0  0  0  0
   37.5833   25.4368   33.0721 N   0  0  0  0  0  0  0  0  0  0  0  0
   37.0621   24.3303   32.5425 C   0  0  0  0  0  0  0  0  0  0  0  0
   36.0607   24.5635   31.6228 C   0  0  0  0  0  0  0  0  0  0  0  0
   35.9610   25.8933   31.5853 N   0  0  0  0  0  0  0  0  0  0  0  0
   36.8713   26.4199   32.4513 C   0  0  0  0  0  0  0  0  0  0  0  0
   36.9874   27.9105   32.5823 C   0  0  1  0  0  0  0  0  0  0  0  0
   35.8818   28.7474   32.0764 C   0  0  0  0  0  0  0  0  0  0  0  0
   36.0180   28.5660   33.5689 C   0  0  2  0  0  0  0  0  0  0  0  0
   36.9557   25.7040   35.4150 H   0  0  0  0  0  0  0  0  0  0  0  0
   38.2334   23.1476   39.2805 H   0  0  0  0  0  0  0  0  0  0  0  0
   37.2055   24.9944   37.9072 H   0  0  0  0  0  0  0  0  0  0  0  0
   41.1076   22.4479   36.2337 H   0  0  0  0  0  0  0  0  0  0  0  0
   38.7141   27.8231   35.2341 H   0  0  0  0  0  0  0  0  0  0  0  0
   37.5135   27.5404   36.5980 H   0  0  0  0  0  0  0  0  0  0  0  0
   39.2129   27.0327   36.7391 H   0  0  0  0  0  0  0  0  0  0  0  0
   39.3352   24.8818   33.9715 H   0  0  0  0  0  0  0  0  0  0  0  0
   39.1732   26.6195   33.7252 H   0  0  0  0  0  0  0  0  0  0  0  0
   37.4127   23.3303   32.8264 H   0  0  0  0  0  0  0  0  0  0  0  0
   35.5162   23.7915   31.0855 H   0  0  0  0  0  0  0  0  0  0  0  0
   38.0101   28.3669   32.5973 H   0  0  0  0  0  0  0  0  0  0  0  0
   35.0373   28.1939   31.5713 H   0  0  0  0  0  0  0  0  0  0  0  0
   36.0181   29.7685   31.7202 H   0  0  0  0  0  0  0  0  0  0  0  0
   35.2933   27.8642   34.0225 H   0  0  0  0  0  0  0  0  0  0  0  0
   36.4851   29.6705   34.3543 N   0  0  0  0  0  0  0  0  0  0  0  0
   36.4422   29.8437   35.6844 C   0  0  0  0  0  0  0  0  0  0  0  0
   37.0055   31.0456   35.9676 N   0  0  0  0  0  0  0  0  0  0  0  0
   37.3950   31.6145   34.8255 C   0  0  0  0  0  0  0  0  0  0  0  0
   38.0163   32.8275   34.5626 C   0  0  0  0  0  0  0  0  0  0  0  0
   38.3657   33.7411   35.5961 N   0  0  0  0  0  0  0  0  0  0  0  0
   38.2977   33.1501   33.2861 N   0  0  0  0  0  0  0  0  0  0  0  0
   37.9872   32.3199   32.2744 C   0  0  0  0  0  0  0  0  0  0  0  0
   37.3811   31.1425   32.5606 N   0  0  0  0  0  0  0  0  0  0  0  0
   37.0678   30.7488   33.8061 C   0  0  0  0  0  0  0  0  0  0  0  0
   36.0245   29.1326   36.3941 H   0  0  0  0  0  0  0  0  0  0  0  0
   38.9628   33.8597   36.4285 H   0  0  0  0  0  0  0  0  0  0  0  0
   37.7982   34.6194   35.4466 H   0  0  0  0  0  0  0  0  0  0  0  0
   38.1401   32.4246   31.2203 H   0  0  0  0  0  0  0  0  0  0  0  0
  1  8  1  0
  1  4  1  0
  3  2  2  0
  4  3  1  0
  5  4  2  0
  5  6  1  0
  6  7  2  0
  7  2  1  0
  9  1  1  0
 10  9  1  0
 11 10  1  0
 12 11  2  0
 13 12  1  0
 13 14  2  0
 14 15  1  0
 14 10  1  0
 15 17  1  0
 16 15  1  0
 16 17  1  0
  1 18  1  6
  2 19  1  0
  3 20  1  0
  6 21  1  0
  8 22  1  0
  8 23  1  0
  8 24  1  0
  9 25  1  0
  9 26  1  0
 11 27  1  0
 12 28  1  0
 15 29  1  1
 16 30  1  0
 16 31  1  0
 17 32  1  1
 33 34  1  0
 34 35  2  0
 35 36  1  0
 36 37  2  0
 37 38  1  0
 37 39  1  0
 39 40  2  0
 40 41  1  0
 41 42  2  0
 42 33  1  0
 42 36  1  0
 34 43  1  0
 38 44  1  0
 38 45  1  0
 40 46  1  0
 17 33  1  0
M  ISO  8  18   8  19  14  20  14  21  14  22   8  23   8  24   8  25   8
M  ISO  7  26   8  27  14  28  14  29  13  30  13  31  13  32  13
M  END
>  <DihAtoms>  (1) 
14,16,32,33

>  <DihDeg>  (1) 
7.670750530754523

$$$$
