
 OpenBabel03262519593D

 38 42  0  0  1  0  0  0  0  0999 V2000
   39.2660   21.8030   34.2400 C   0  0  1  0  0  0  0  0  0  0  0  0
   40.6380   22.0720   33.9090 C   0  0  0  0  0  0  0  0  0  0  0  0
   39.7230   23.2090   34.4560 C   0  0  1  0  0  0  0  0  0  0  0  0
   39.1140   21.1830   35.1870 H   0  0  0  0  0  0  0  0  0  0  0  0
   41.4850   21.7650   34.5450 H   0  0  0  0  0  0  0  0  0  0  0  0
   40.9430   22.2220   32.8630 H   0  0  0  0  0  0  0  0  0  0  0  0
   39.7780   24.2960   33.4810 N   0  0  0  0  0  0  0  0  0  0  0  0
   40.8620   24.5230   32.6840 C   0  0  0  0  0  3  0  0  0  0  0  0
   40.6280   25.5940   31.8810 N   0  0  0  0  0  0  0  0  0  0  0  0
   39.3990   26.0220   32.1900 C   0  0  0  0  0  0  0  0  0  0  0  0
   38.5770   27.0480   31.7540 C   0  0  0  0  0  0  0  0  0  0  0  0
   37.3450   27.2680   32.2450 N   0  0  0  0  0  0  0  0  0  0  0  0
   36.8570   26.4530   33.2230 C   0  0  0  0  0  3  0  0  0  0  0  0
   37.6390   25.4520   33.6600 N   0  0  0  0  0  0  0  0  0  0  0  0
   38.8680   25.2370   33.1670 C   0  0  0  0  0  0  0  0  0  0  0  0
   39.0350   27.9340   30.7310 N   0  0  0  0  0  0  0  0  0  0  0  0
   39.1110   27.5050   29.7860 H   0  0  0  0  0  0  0  0  0  0  0  0
   39.3100   28.9400   30.7500 H   0  0  0  0  0  0  0  0  0  0  0  0
   38.1440   21.2770   32.0660 C   0  0  0  0  0  0  0  0  0  0  0  0
   36.8430   21.2960   31.5680 C   0  0  0  0  0  0  0  0  0  0  0  0
   36.0980   21.7230   32.6320 N   0  0  0  0  0  0  0  0  0  0  0  0
   36.9270   21.9270   33.6520 C   0  0  0  0  0  0  0  0  0  0  0  0
   38.1900   21.6620   33.3310 N   0  0  0  0  0  0  0  0  0  0  0  0
   36.5650   21.0240   30.5660 H   0  0  0  0  0  0  0  0  0  0  0  0
   36.4220   22.2710   34.5520 H   0  0  0  0  0  0  0  0  0  0  0  0
   39.3130   20.8740   31.2980 C   0  0  0  0  0  0  0  0  0  0  0  0
   39.9010   21.7880   30.3970 C   0  0  0  0  0  0  0  0  0  0  0  0
   41.0370   21.3580   29.6750 C   0  0  0  0  0  0  0  0  0  0  0  0
   41.4830   20.0940   29.8990 N   0  0  0  0  0  0  0  0  0  0  0  0
   40.8870   19.2490   30.7730 C   0  0  0  0  0  0  0  0  0  0  0  0
   39.8080   19.6330   31.4720 N   0  0  0  0  0  0  0  0  0  0  0  0
   39.4360   22.7600   30.3250 H   0  0  0  0  0  0  0  0  0  0  0  0
   41.4660   22.0600   29.0020 H   0  0  0  0  0  0  0  0  0  0  0  0
   41.3640   18.2840   30.8330 H   0  0  0  0  0  0  0  0  0  0  0  0
   40.1290   23.5950   35.8630 C   0  0  0  0  0  0  0  0  0  0  0  0
   39.2170   24.4920   36.3850 F   0  0  0  0  0  0  0  0  0  0  0  0
   39.9750   22.4190   36.7120 F   0  0  0  0  0  0  0  0  0  0  0  0
   41.4080   23.9770   35.9850 F   0  0  0  0  0  0  0  0  0  0  0  0
  1  3  1  0  0  0  0
  1  4  1  1  0  0  0
  2  1  1  0  0  0  0
  2  3  1  0  0  0  0
  2  5  1  0  0  0  0
  3 35  1  1  0  0  0
  6  2  1  0  0  0  0
  7  3  1  0  0  0  0
  8  7  1  0  0  0  0
  9 10  1  0  0  0  0
  9  8  2  0  0  0  0
 10 15  1  0  0  0  0
 11 10  2  0  0  0  0
 11 12  1  0  0  0  0
 12 13  2  0  0  0  0
 13 14  1  0  0  0  0
 15  7  1  0  0  0  0
 15 14  2  0  0  0  0
 16 18  1  0  0  0  0
 16 11  1  0  0  0  0
 17 16  1  0  0  0  0
 19 23  1  0  0  0  0
 20 19  2  0  0  0  0
 20 21  1  0  0  0  0
 21 22  2  0  0  0  0
 22 25  1  0  0  0  0
 23 22  1  0  0  0  0
 23  1  1  0  0  0  0
 24 20  1  0  0  0  0
 26 31  1  0  0  0  0
 26 19  1  0  0  0  0
 27 26  2  0  0  0  0
 28 29  2  0  0  0  0
 28 27  1  0  0  0  0
 29 30  1  0  0  0  0
 30 34  1  0  0  0  0
 30 31  2  0  0  0  0
 32 27  1  0  0  0  0
 33 28  1  0  0  0  0
 35 38  1  0  0  0  0
 35 36  1  0  0  0  0
 35 37  1  0  0  0  0
M  END
>  <minimizedAffinity>
-3.84165478

>  <minimizedRMSD>
5.45810127

$$$$
