REMARK  Name = 
REMARK  7 active torsions:
REMARK  status: ('A' for Active; 'I' for Inactive)
REMARK    1  A    between atoms: C_1  and  C_4
REMARK    2  A    between atoms: C_1  and  C_8
REMARK    3  A    between atoms: C_1  and  C_9
REMARK    4  A    between atoms: C_9  and  N_10
REMARK    5  A    between atoms: C_14  and  C_15
REMARK    6  A    between atoms: C_17  and  N_33
REMARK    7  A    between atoms: C_37  and  N_38
REMARK                            x       y       z     vdW  Elec       q    Type
REMARK                         _______ _______ _______ _____ _____    ______ ____
ROOT
ATOM      1  N   UNL     1      37.583  25.437  33.072  0.00  0.00    +0.000 N 
ATOM      2  C   UNL     1      37.062  24.330  32.542  0.00  0.00    +0.000 A 
ATOM      3  C   UNL     1      36.061  24.564  31.623  0.00  0.00    +0.000 A 
ATOM      4  N   UNL     1      35.961  25.893  31.585  0.00  0.00    +0.000 NA
ATOM      5  C   UNL     1      36.871  26.420  32.451  0.00  0.00    +0.000 A 
ATOM      6  H   UNL     1      37.413  23.330  32.826  0.00  0.00    +0.000 HD
ATOM      7  H   UNL     1      35.516  23.791  31.085  0.00  0.00    +0.000 HD
ENDROOT
BRANCH   5   8
ATOM      8  C   UNL     1      36.987  27.910  32.582  0.00  0.00    +0.000 C 
ATOM      9  C   UNL     1      35.882  28.747  32.076  0.00  0.00    +0.000 C 
ATOM     10  C   UNL     1      36.018  28.566  33.569  0.00  0.00    +0.000 C 
ATOM     11  H   UNL     1      38.010  28.367  32.597  0.00  0.00    +0.000 HD
ATOM     12  H   UNL     1      35.037  28.194  31.571  0.00  0.00    +0.000 HD
ATOM     13  H   UNL     1      36.018  29.768  31.720  0.00  0.00    +0.000 HD
ATOM     14  H   UNL     1      35.293  27.864  34.023  0.00  0.00    +0.000 HD
BRANCH  10  15
ATOM     15  N   UNL     1      36.485  29.671  34.354  0.00  0.00    +0.000 N 
ATOM     16  C   UNL     1      37.727  30.169  34.464  0.00  0.00    +0.000 A 
ATOM     17  N   UNL     1      37.682  31.217  35.325  0.00  0.00    +0.000 NA
ATOM     18  C   UNL     1      36.425  31.369  35.747  0.00  0.00    +0.000 A 
ATOM     19  C   UNL     1      35.849  32.279  36.622  0.00  0.00    +0.000 A 
ATOM     20  N   UNL     1      34.528  32.197  36.869  0.00  0.00    +0.000 NA
ATOM     21  C   UNL     1      33.769  31.253  36.283  0.00  0.00    +0.000 A 
ATOM     22  N   UNL     1      34.358  30.378  35.433  0.00  0.00    +0.000 NA
ATOM     23  C   UNL     1      35.668  30.395  35.136  0.00  0.00    +0.000 A 
BRANCH  19  24
ATOM     24  N   UNL     1      36.607  33.296  37.267  0.00  0.00    +0.000 N 
ATOM     25  H   UNL     1      37.170  34.143  37.096  0.00  0.00    +0.000 HD
ATOM     26  H   UNL     1      36.575  33.104  38.306  0.00  0.00    +0.000 HD
ENDBRANCH  19  24
ENDBRANCH  10  15
ENDBRANCH   5   8
BRANCH   1  27
ATOM     27  C   UNL     1      38.584  25.707  34.027  0.00  0.00    +0.000 C 
ATOM     28  H   UNL     1      39.335  24.882  33.971  0.00  0.00    +0.000 HD
ATOM     29  H   UNL     1      39.173  26.619  33.725  0.00  0.00    +0.000 HD
BRANCH  27  30
ATOM     30  C   UNL     1      38.082  25.764  35.422  0.00  0.00    +0.000 C 
ATOM     31  H   UNL     1      36.956  25.704  35.415  0.00  0.00    +0.000 HD
BRANCH  30  34
ATOM     32  C   UNL     1      38.648  23.390  38.311  0.00  0.00    +0.000 A 
ATOM     33  C   UNL     1      38.058  24.421  37.568  0.00  0.00    +0.000 A 
ATOM     34  C   UNL     1      38.632  24.712  36.296  0.00  0.00    +0.000 A 
ATOM     35  N   UNL     1      39.723  23.971  35.875  0.00  0.00    +0.000 NA
ATOM     36  C   UNL     1      40.255  23.003  36.602  0.00  0.00    +0.000 A 
ATOM     37  N   UNL     1      39.712  22.704  37.842  0.00  0.00    +0.000 NA
ATOM     38  H   UNL     1      38.233  23.148  39.281  0.00  0.00    +0.000 HD
ATOM     39  H   UNL     1      37.206  24.994  37.907  0.00  0.00    +0.000 HD
ATOM     40  H   UNL     1      41.108  22.448  36.234  0.00  0.00    +0.000 HD
ENDBRANCH  30  34
BRANCH  30  41
ATOM     41  C   UNL     1      38.355  27.140  36.022  0.00  0.00    +0.000 C 
ATOM     42  H   UNL     1      38.714  27.823  35.234  0.00  0.00    +0.000 HD
ATOM     43  H   UNL     1      37.514  27.540  36.598  0.00  0.00    +0.000 HD
ATOM     44  H   UNL     1      39.213  27.033  36.739  0.00  0.00    +0.000 HD
ENDBRANCH  30  41
ENDBRANCH  27  30
ENDBRANCH   1  27
TORSDOF 7
