
 OpenBabel03262519213D

 32 36  0  0  0  0  0  0  0  0999 V2000
   37.9790   25.0010   34.2980 C   0  0  0  0  0  0  0  0  0  0  0  0
   38.5240   25.2880   35.5510 C   0  0  0  0  0  0  0  0  0  0  0  0
   38.6500   26.6120   35.9340 C   0  0  0  0  0  0  0  0  0  0  0  0
   38.2430   27.5920   35.0850 N   0  0  0  0  0  0  0  0  0  0  0  0
   37.7130   27.2770   33.8610 C   0  0  0  0  0  0  0  0  0  0  0  0
   37.5870   26.0100   33.4850 N   0  0  0  0  0  0  0  0  0  0  0  0
   39.0750   26.8650   36.9130 H   0  0  0  0  0  0  0  0  0  0  0  0
   37.4520   28.1900   33.3400 H   0  0  0  0  0  0  0  0  0  0  0  0
   37.8190   23.6630   33.8390 N   0  0  0  0  0  0  0  0  0  0  0  0
   38.3270   22.4750   34.2140 C   0  0  0  0  0  0  0  0  0  0  0  0
   37.8360   21.4980   33.4280 N   0  0  0  0  0  0  0  0  0  0  0  0
   37.0000   22.0330   32.5260 C   0  0  0  0  0  0  0  0  0  0  0  0
   36.2550   21.4620   31.5140 C   0  0  0  0  0  0  0  0  0  0  0  0
   35.5000   22.2900   30.7690 N   0  0  0  0  0  0  0  0  0  0  0  0
   35.4660   23.6230   30.9920 C   0  0  0  0  0  0  0  0  0  0  0  0
   36.2030   24.1590   31.9890 N   0  0  0  0  0  0  0  0  0  0  0  0
   36.9940   23.3850   32.7890 C   0  0  0  0  0  0  0  0  0  0  0  0
   38.9360   24.2500   36.4050 N   0  0  0  0  0  0  0  0  0  0  0  0
   38.2240   23.7080   37.3950 C   0  0  0  0  0  0  0  0  0  0  0  0
   38.9230   22.7320   38.0160 N   0  0  0  0  0  0  0  0  0  0  0  0
   40.1050   22.6520   37.4070 C   0  0  0  0  0  0  0  0  0  0  0  0
   41.2130   21.8670   37.5860 C   0  0  0  0  0  0  0  0  0  0  0  0
   42.3300   21.9640   36.8290 N   0  0  0  0  0  0  0  0  0  0  0  0
   42.3000   22.9100   35.8480 C   0  0  0  0  0  0  0  0  0  0  0  0
   41.2210   23.6700   35.6780 N   0  0  0  0  0  0  0  0  0  0  0  0
   40.1020   23.6070   36.4000 C   0  0  0  0  0  0  0  0  0  0  0  0
   37.2160   23.9870   37.6920 H   0  0  0  0  0  0  0  0  0  0  0  0
   41.1490   21.1430   38.3890 H   0  0  0  0  0  0  0  0  0  0  0  0
   43.1890   23.0010   35.2300 H   0  0  0  0  0  0  0  0  0  0  0  0
   36.3100   20.0430   31.2960 N   0  0  0  0  0  0  0  0  0  0  0  0
   36.6680   19.9030   30.3150 H   0  0  0  0  0  0  0  0  0  0  0  0
   36.0260   19.3480   32.0350 H   0  0  0  0  0  0  0  0  0  0  0  0
  1  2  1  0  0  0  0
  2  3  2  0  0  0  0
  2 18  1  0  0  0  0
  3  7  1  0  0  0  0
  4  3  1  0  0  0  0
  5  4  2  0  0  0  0
  6  5  1  0  0  0  0
  6  1  2  0  0  0  0
  8  5  1  0  0  0  0
  9 10  1  0  0  0  0
  9  1  1  0  0  0  0
 11 10  2  0  0  0  0
 12 17  1  0  0  0  0
 12 11  1  0  0  0  0
 13 12  2  0  0  0  0
 14 15  2  0  0  0  0
 14 13  1  0  0  0  0
 15 16  1  0  0  0  0
 16 17  2  0  0  0  0
 17  9  1  0  0  0  0
 18 19  1  0  0  0  0
 19 27  1  0  0  0  0
 19 20  2  0  0  0  0
 21 22  1  0  0  0  0
 21 20  1  0  0  0  0
 22 28  1  0  0  0  0
 23 22  2  0  0  0  0
 24 23  1  0  0  0  0
 25 24  2  0  0  0  0
 25 26  1  0  0  0  0
 26 18  1  0  0  0  0
 26 21  2  0  0  0  0
 29 24  1  0  0  0  0
 30 13  1  0  0  0  0
 30 32  1  0  0  0  0
 31 30  1  0  0  0  0
M  END
>  <minimizedAffinity>
-5.67598963

>  <minimizedRMSD>
0.492980272

$$$$
