
 OpenBabel03262518013D

 26 28  0  0  0  0  0  0  0  0999 V2000
   43.5980   19.7200   37.0660 C   0  0  0  0  0  0  0  0  0  0  0  0
   42.5050   20.5750   37.2770 C   0  0  0  0  0  0  0  0  0  0  0  0
   41.8930   21.1810   36.1950 C   0  0  0  0  0  0  0  0  0  0  0  0
   42.4130   20.8910   34.9710 N   0  0  0  0  0  0  0  0  0  0  0  0
   43.4510   20.0790   34.7630 C   0  0  0  0  0  0  0  0  0  0  0  0
   44.0470   19.4890   35.8330 N   0  0  0  0  0  0  0  0  0  0  0  0
   44.0670   19.2510   37.9400 H   0  0  0  0  0  0  0  0  0  0  0  0
   42.1120   20.7850   38.2820 H   0  0  0  0  0  0  0  0  0  0  0  0
   43.9450   19.8210   33.4520 N   0  0  0  0  0  0  0  0  0  0  0  0
   45.0900   20.4100   33.0660 C   0  0  0  0  0  0  0  0  0  0  0  0
   45.6070   20.1840   31.7940 C   0  0  0  0  0  0  0  0  0  0  0  0
   44.8960   19.3390   30.9590 C   0  0  0  0  0  0  0  0  0  0  0  0
   45.3740   19.1370   29.7970 O   0  0  0  0  0  0  0  0  0  0  0  0
   43.7480   18.7630   31.3810 N   0  0  0  0  0  0  0  0  0  0  0  0
   43.2690   19.0040   32.6300 C   0  0  0  0  0  0  0  0  0  0  0  0
   42.1890   18.4330   32.9590 O   0  0  0  0  0  0  0  0  0  0  0  0
   43.2790   18.1310   30.6670 H   0  0  0  0  0  0  0  0  0  0  0  0
   40.7610   22.0710   36.3640 C   0  0  0  0  0  0  0  0  0  0  0  0
   39.9810   22.7790   35.5010 N   0  0  0  0  0  0  0  0  0  0  0  0
   39.0820   23.4340   36.1850 O   0  0  0  0  0  0  0  0  0  0  0  0
   39.2300   23.1910   37.4800 C   0  0  0  0  0  0  0  0  0  0  0  0
   40.2710   22.3480   37.5780 N   0  0  0  0  0  0  0  0  0  0  0  0
   38.4280   23.7270   38.5890 C   0  0  0  0  0  0  0  0  0  0  0  0
   39.2390   23.8800   39.6990 F   0  0  0  0  0  0  0  0  0  0  0  0
   37.4110   22.8460   38.9580 F   0  0  0  0  0  0  0  0  0  0  0  0
   37.9120   24.9460   38.2540 F   0  0  0  0  0  0  0  0  0  0  0  0
  1  2  1  0  0  0  0
  1  7  1  0  0  0  0
  2  8  1  0  0  0  0
  3 18  1  0  0  0  0
  3  2  2  0  0  0  0
  4  3  1  0  0  0  0
  5  4  2  0  0  0  0
  5  6  1  0  0  0  0
  6  1  2  0  0  0  0
  9  5  1  0  0  0  0
 10  9  1  0  0  0  0
 11 10  2  0  0  0  0
 12 14  1  0  0  0  0
 12 11  1  0  0  0  0
 13 12  2  0  0  0  0
 14 15  1  0  0  0  0
 15 16  2  0  0  0  0
 15  9  1  0  0  0  0
 17 14  1  0  0  0  0
 18 22  1  0  0  0  0
 19 20  1  0  0  0  0
 19 18  2  0  0  0  0
 20 21  1  0  0  0  0
 21 22  2  0  0  0  0
 21 23  1  0  0  0  0
 23 25  1  0  0  0  0
 23 24  1  0  0  0  0
 26 23  1  0  0  0  0
M  END
>  <minimizedAffinity>
-4.35326958

>  <minimizedRMSD>
0.553867221

$$$$
