
 OpenBabel03262519023D

 36 39  0  0  1  0  0  0  0  0999 V2000
   37.8760   27.3610   35.1410 C   0  0  0  0  0  0  0  0  0  0  0  0
   37.2270   27.3060   36.0170 H   0  0  0  0  0  0  0  0  0  0  0  0
   38.2960   28.4200   35.2000 H   0  0  0  0  0  0  0  0  0  0  0  0
   39.0510   26.5060   35.1150 C   0  0  0  0  0  0  0  0  0  0  0  0
   40.2140   26.9350   34.4820 C   0  0  0  0  0  0  0  0  0  0  0  0
   41.3350   26.1450   34.4610 C   0  0  0  0  0  0  0  0  0  0  0  0
   41.3410   24.8900   35.0730 C   0  0  0  0  0  0  0  0  0  0  0  0
   40.1770   24.4690   35.7010 C   0  0  0  0  0  0  0  0  0  0  0  0
   40.1710   23.2230   36.3140 C   0  0  0  0  0  0  0  0  0  0  0  0
   39.0470   22.7570   36.9520 C   0  0  0  0  0  0  0  0  0  0  0  0
   37.9030   23.5550   36.9760 C   0  0  0  0  0  0  0  0  0  0  0  0
   37.9480   24.8020   36.3490 C   0  0  0  0  0  0  0  0  0  0  0  0
   39.0640   25.2870   35.7050 C   0  0  0  0  0  0  0  0  0  0  0  0
   40.2650   27.9000   33.9910 H   0  0  0  0  0  0  0  0  0  0  0  0
   42.2750   26.4160   33.9870 H   0  0  0  0  0  0  0  0  0  0  0  0
   42.2190   24.2470   35.0690 H   0  0  0  0  0  0  0  0  0  0  0  0
   41.0610   22.6120   36.2910 H   0  0  0  0  0  0  0  0  0  0  0  0
   39.0990   21.7650   37.4190 H   0  0  0  0  0  0  0  0  0  0  0  0
   37.0270   23.1810   37.4780 H   0  0  0  0  0  0  0  0  0  0  0  0
   37.0150   25.3430   36.4200 H   0  0  0  0  0  0  0  0  0  0  0  0
   36.0890   28.7010   32.2350 C   0  0  0  0  0  0  0  0  0  0  0  0
   35.7460   27.5930   31.4910 C   0  0  0  0  0  0  0  0  0  0  0  0
   36.1350   26.3300   31.9920 C   0  0  0  0  0  0  0  0  0  0  0  0
   36.8200   26.2730   33.1730 N   0  0  0  0  0  0  0  0  0  0  0  0
   37.1180   27.3760   33.8410 C   0  0  0  0  0  0  0  0  0  0  0  0
   36.7590   28.5860   33.3830 N   0  0  0  0  0  0  0  0  0  0  0  0
   35.7810   29.6310   31.8290 H   0  0  0  0  0  0  0  0  0  0  0  0
   35.2030   27.5920   30.5480 H   0  0  0  0  0  0  0  0  0  0  0  0
   35.8080   25.1190   31.2600 C   0  0  0  0  0  0  0  0  0  0  0  0
   34.6020   24.8460   31.0430 O   0  0  0  0  0  0  0  0  0  0  0  0
   36.8520   24.1850   30.7520 C   0  0  2  0  0  0  0  0  0  0  0  0
   36.5350   22.7500   31.0120 C   0  0  0  0  0  0  0  0  0  0  0  0
   36.6750   22.3870   32.4500 C   0  0  0  0  0  0  0  0  0  0  0  0
   37.8630   22.9250   33.1540 C   0  0  0  0  0  0  0  0  0  0  0  0
   38.7950   23.7360   32.3230 C   0  0  0  0  0  0  0  0  0  0  0  0
   38.1920   24.5550   31.2590 C   0  0  0  0  0  0  0  0  0  0  0  0
  1  3  1  0  0  0  0
  1  2  1  0  0  0  0
  4  1  1  0  0  0  0
  4 13  1  0  0  0  0
  5  4  2  0  0  0  0
  6  5  1  0  0  0  0
  6  7  2  0  0  0  0
  7  8  1  0  0  0  0
  8 13  2  0  0  0  0
  8  9  1  0  0  0  0
  9 10  2  0  0  0  0
 10 11  1  0  0  0  0
 10 18  1  0  0  0  0
 11 19  1  0  0  0  0
 12 20  1  0  0  0  0
 12 11  2  0  0  0  0
 13 12  1  0  0  0  0
 14  5  1  0  0  0  0
 15  6  1  0  0  0  0
 16  7  1  0  0  0  0
 17  9  1  0  0  0  0
 21 26  1  0  0  0  0
 22 23  1  0  0  0  0
 22 21  2  0  0  0  0
 23 24  2  0  0  0  0
 24 25  1  0  0  0  0
 25  1  1  0  0  0  0
 26 25  2  0  0  0  0
 27 21  1  0  0  0  0
 28 22  1  0  0  0  0
 29 23  1  0  0  0  0
 30 29  2  0  0  0  0
 31 32  1  0  0  0  0
 31 36  1  0  0  0  0
 31 29  1  1  0  0  0
 32 33  1  0  0  0  0
 33 34  2  0  0  0  0
 35 34  1  0  0  0  0
 36 35  1  0  0  0  0
M  END
>  <minimizedAffinity>
-5.84472704

>  <minimizedRMSD>
1.39581299

$$$$
