
 OpenBabel03262519563D

 32 35  0  0  1  0  0  0  0  0999 V2000
   38.6170   23.4870   34.7140 C   0  0  0  0  0  0  0  0  0  0  0  0
   37.6590   22.7800   34.0030 C   0  0  0  0  0  0  0  0  0  0  0  0
   37.9560   23.0630   32.7000 N   0  0  0  0  0  0  0  0  0  0  0  0
   38.9970   23.8660   32.6770 C   0  0  0  0  0  0  0  0  0  0  0  0
   39.4420   24.1550   33.9190 N   0  0  0  0  0  0  0  0  0  0  0  0
   36.8960   22.1740   34.4580 H   0  0  0  0  0  0  0  0  0  0  0  0
   39.3590   24.1850   31.7020 H   0  0  0  0  0  0  0  0  0  0  0  0
   38.7170   23.5020   36.1780 C   0  0  0  0  0  0  0  0  0  0  0  0
   37.7780   24.2320   36.9290 C   0  0  0  0  0  0  0  0  0  0  0  0
   37.8990   24.2280   38.3350 C   0  0  0  0  0  0  0  0  0  0  0  0
   38.9070   23.5280   38.8680 N   0  0  0  0  0  0  0  0  0  0  0  0
   39.8020   22.8320   38.1210 C   0  0  0  0  0  0  0  0  0  0  0  0
   39.7100   22.8170   36.7690 N   0  0  0  0  0  0  0  0  0  0  0  0
   36.9880   24.7780   36.4640 H   0  0  0  0  0  0  0  0  0  0  0  0
   37.1910   24.7790   38.9330 H   0  0  0  0  0  0  0  0  0  0  0  0
   40.6230   22.2610   38.5320 H   0  0  0  0  0  0  0  0  0  0  0  0
   40.5700   25.0110   34.1940 C   0  0  1  0  0  0  0  0  0  0  0  0
   41.1210   25.9500   33.2480 C   0  0  0  0  0  0  0  0  0  0  0  0
   40.2000   26.4640   34.3310 C   0  0  1  0  0  0  0  0  0  0  0  0
   41.2380   24.5570   34.9650 H   0  0  0  0  0  0  0  0  0  0  0  0
   42.1910   26.2640   33.4280 H   0  0  0  0  0  0  0  0  0  0  0  0
   40.8780   26.0600   32.1830 H   0  0  0  0  0  0  0  0  0  0  0  0
   40.6250   26.9500   35.2320 H   0  0  0  0  0  0  0  0  0  0  0  0
   38.9480   26.9670   33.8720 N   0  0  0  0  0  0  0  0  0  0  0  0
   37.8600   27.0670   34.6460 C   0  0  0  0  0  3  0  0  0  0  0  0
   36.6410   27.5520   34.2160 C   0  0  0  0  0  3  0  0  0  0  0  0
   36.5380   27.9640   32.8850 C   0  0  0  0  0  0  0  0  0  0  0  0
   35.4860   28.4220   32.3760 O   0  0  0  0  0  0  0  0  0  0  0  0
   37.6280   27.8680   32.0910 N   0  0  0  0  0  0  0  0  0  0  0  0
   38.7980   27.3800   32.5820 C   0  0  0  0  0  0  0  0  0  0  0  0
   39.7710   27.3300   31.7540 O   0  0  0  0  0  0  0  0  0  0  0  0
   37.5730   28.1740   31.0840 H   0  0  0  0  0  0  0  0  0  0  0  0
  1  8  1  0  0  0  0
  2  6  1  0  0  0  0
  2  1  2  0  0  0  0
  3  2  1  0  0  0  0
  4  3  2  0  0  0  0
  4  5  1  0  0  0  0
  5 17  1  0  0  0  0
  5  1  1  0  0  0  0
  7  4  1  0  0  0  0
  8 13  2  0  0  0  0
  8  9  1  0  0  0  0
  9 10  2  0  0  0  0
 10 11  1  0  0  0  0
 10 15  1  0  0  0  0
 12 16  1  0  0  0  0
 12 11  2  0  0  0  0
 13 12  1  0  0  0  0
 14  9  1  0  0  0  0
 17 19  1  0  0  0  0
 17 20  1  1  0  0  0
 18 21  1  0  0  0  0
 18 17  1  0  0  0  0
 18 19  1  0  0  0  0
 19 23  1  1  0  0  0
 22 18  1  0  0  0  0
 24 19  1  0  0  0  0
 24 25  1  0  0  0  0
 26 25  2  0  0  0  0
 27 26  1  0  0  0  0
 28 27  2  0  0  0  0
 29 30  1  0  0  0  0
 29 27  1  0  0  0  0
 30 24  1  0  0  0  0
 31 30  2  0  0  0  0
 32 29  1  0  0  0  0
M  END
>  <minimizedAffinity>
-4.82721615

>  <minimizedRMSD>
4.85464668

$$$$
