
 OpenBabel03262516243D

 44 48  0  0  0  0  0  0  0  0999 V2000
   44.8560   24.8450   37.2050 N   0  0  0  0  0  0  0  0  0  0  0  0
   44.3280   25.6060   38.1570 N   0  0  0  0  0  0  0  0  0  0  0  0
   45.1920   25.9420   39.0910 C   0  0  0  0  0  0  0  0  0  0  0  0
   46.4040   25.3770   38.7660 C   0  0  0  0  0  0  0  0  0  0  0  0
   46.1550   24.6840   37.5570 C   0  0  0  0  0  0  0  0  0  0  0  0
   44.9550   26.5610   39.9570 H   0  0  0  0  0  0  0  0  0  0  0  0
   47.3250   25.4530   39.3160 H   0  0  0  0  0  0  0  0  0  0  0  0
   47.1940   23.9110   36.8220 C   0  0  0  0  0  0  0  0  0  0  0  0
   48.2260   24.5830   36.1260 C   0  0  0  0  0  0  0  0  0  0  0  0
   49.1900   23.1920   35.4260 S   0  0  0  0  0  0  0  0  0  0  0  0
   48.0230   21.9180   36.2010 C   0  0  0  0  0  0  0  0  0  0  0  0
   47.2970   22.6010   36.7180 N   0  0  0  0  0  0  0  0  0  0  0  0
   48.4950   25.9580   35.9730 N   0  0  0  0  0  0  0  0  0  0  0  0
   49.3450   26.6460   36.7900 C   0  0  0  0  0  0  0  0  0  0  0  0
   49.5810   27.9920   36.6080 C   0  0  0  0  0  0  0  0  0  0  0  0
   48.9650   28.6840   35.5900 C   0  0  0  0  0  0  0  0  0  0  0  0
   49.1260   29.9060   35.3570 O   0  0  0  0  0  0  0  0  0  0  0  0
   48.1270   27.9610   34.7990 N   0  0  0  0  0  0  0  0  0  0  0  0
   47.8750   26.6320   34.9590 C   0  0  0  0  0  0  0  0  0  0  0  0
   47.0770   26.0530   34.1680 O   0  0  0  0  0  0  0  0  0  0  0  0
   47.6380   28.4740   34.0060 H   0  0  0  0  0  0  0  0  0  0  0  0
   48.2190   20.4630   36.0300 C   0  0  0  0  0  0  0  0  0  0  0  0
   48.0110   20.0650   34.7250 F   0  0  0  0  0  0  0  0  0  0  0  0
   47.2540   19.8720   36.8380 F   0  0  0  0  0  0  0  0  0  0  0  0
   49.4580   20.0500   36.5160 F   0  0  0  0  0  0  0  0  0  0  0  0
   44.2470   24.2790   36.0270 C   0  0  0  0  0  0  0  0  0  0  0  0
   43.6410   25.0370   35.4670 H   0  0  0  0  0  0  0  0  0  0  0  0
   45.0370   23.9490   35.3290 H   0  0  0  0  0  0  0  0  0  0  0  0
   41.0690   22.4700   36.9880 C   0  0  0  0  0  0  0  0  0  0  0  0
   41.9650   23.4660   36.6610 C   0  0  0  0  0  0  0  0  0  0  0  0
   43.2990   23.1750   36.3790 C   0  0  0  0  0  0  0  0  0  0  0  0
   43.6540   21.8590   36.4450 N   0  0  0  0  0  0  0  0  0  0  0  0
   42.7680   20.8950   36.7650 C   0  0  0  0  0  0  0  0  0  0  0  0
   41.4960   21.2310   37.0280 N   0  0  0  0  0  0  0  0  0  0  0  0
   41.6220   24.4910   36.6250 H   0  0  0  0  0  0  0  0  0  0  0  0
   43.0980   19.8760   36.8030 H   0  0  0  0  0  0  0  0  0  0  0  0
   39.6770   22.8430   37.2750 C   0  0  0  0  0  0  0  0  0  0  0  0
   38.6630   22.8370   36.3360 C   0  0  0  0  0  0  0  0  0  0  0  0
   37.5650   23.2500   37.0560 C   0  0  0  0  0  0  0  0  0  0  0  0
   37.9300   23.4830   38.3530 C   0  0  0  0  0  0  0  0  0  0  0  0
   39.2280   23.2180   38.4300 O   0  0  0  0  0  0  0  0  0  0  0  0
   38.6670   22.5830   35.2810 H   0  0  0  0  0  0  0  0  0  0  0  0
   36.5450   23.3900   36.7160 H   0  0  0  0  0  0  0  0  0  0  0  0
   37.4020   23.8120   39.2470 H   0  0  0  0  0  0  0  0  0  0  0  0
  1  5  1  0  0  0  0
  1  2  1  0  0  0  0
  2  3  2  0  0  0  0
  3  6  1  0  0  0  0
  4  3  1  0  0  0  0
  4  7  1  0  0  0  0
  5  4  2  0  0  0  0
  8  5  1  0  0  0  0
  9  8  2  0  0  0  0
 10  9  1  0  0  0  0
 10 11  1  0  0  0  0
 11 12  2  0  0  0  0
 12  8  1  0  0  0  0
 13  9  1  0  0  0  0
 13 14  1  0  0  0  0
 15 14  2  0  0  0  0
 16 15  1  0  0  0  0
 17 16  2  0  0  0  0
 18 19  1  0  0  0  0
 18 16  1  0  0  0  0
 19 13  1  0  0  0  0
 20 19  2  0  0  0  0
 21 18  1  0  0  0  0
 22 11  1  0  0  0  0
 22 25  1  0  0  0  0
 22 24  1  0  0  0  0
 23 22  1  0  0  0  0
 26 31  1  0  0  0  0
 26  1  1  0  0  0  0
 27 26  1  0  0  0  0
 28 26  1  0  0  0  0
 29 34  1  0  0  0  0
 29 37  1  0  0  0  0
 30 29  2  0  0  0  0
 31 32  2  0  0  0  0
 31 30  1  0  0  0  0
 32 33  1  0  0  0  0
 33 36  1  0  0  0  0
 33 34  2  0  0  0  0
 35 30  1  0  0  0  0
 37 41  1  0  0  0  0
 38 39  1  0  0  0  0
 38 37  2  0  0  0  0
 39 40  2  0  0  0  0
 40 41  1  0  0  0  0
 40 44  1  0  0  0  0
 42 38  1  0  0  0  0
 43 39  1  0  0  0  0
M  END
>  <minimizedAffinity>
-5.61429834

>  <minimizedRMSD>
0.592472434

$$$$
