
 OpenBabel03262519463D

 41 44  0  0  1  0  0  0  0  0999 V2000
   37.4200   24.7830   32.9360 N   0  0  0  0  0  0  0  0  0  0  0  0
   36.8540   23.6630   32.4820 C   0  0  0  0  0  0  0  0  0  0  0  0
   35.8640   23.8690   31.5560 C   0  0  0  0  0  0  0  0  0  0  0  0
   35.8080   25.1940   31.4250 N   0  0  0  0  0  0  0  0  0  0  0  0
   36.7470   25.7480   32.2560 C   0  0  0  0  0  0  0  0  0  0  0  0
   37.1780   22.6730   32.8410 H   0  0  0  0  0  0  0  0  0  0  0  0
   35.2730   23.1120   31.0580 H   0  0  0  0  0  0  0  0  0  0  0  0
   36.9240   27.2520   32.2820 C   0  0  1  0  0  0  0  0  0  0  0  0
   38.2210   27.7710   31.7910 C   0  0  0  0  0  0  0  0  0  0  0  0
   36.9940   27.9220   30.9200 C   0  0  2  0  0  0  0  0  0  0  0  0
   36.2710   27.7620   33.0130 H   0  0  0  0  0  0  0  0  0  0  0  0
   38.6480   28.6400   32.3260 H   0  0  0  0  0  0  0  0  0  0  0  0
   38.9610   27.0300   31.4300 H   0  0  0  0  0  0  0  0  0  0  0  0
   36.9060   27.2890   30.0330 H   0  0  0  0  0  0  0  0  0  0  0  0
   36.6130   29.2910   30.7560 N   0  0  0  0  0  0  0  0  0  0  0  0
   35.9860   30.1370   31.5950 C   0  0  0  0  0  3  0  0  0  0  0  0
   35.7180   31.4360   31.2160 C   0  0  0  0  0  3  0  0  0  0  0  0
   36.0770   31.9190   29.9740 C   0  0  0  0  0  0  0  0  0  0  0  0
   35.8240   33.1050   29.6470 O   0  0  0  0  0  0  0  0  0  0  0  0
   36.7020   31.0480   29.1610 N   0  0  0  0  0  0  0  0  0  0  0  0
   36.9730   29.7630   29.5240 C   0  0  0  0  0  0  0  0  0  0  0  0
   37.5720   29.0890   28.6180 O   0  0  0  0  0  0  0  0  0  0  0  0
   36.9730   31.4230   28.2180 H   0  0  0  0  0  0  0  0  0  0  0  0
   38.4360   25.0860   33.8710 C   0  0  0  0  0  0  0  0  0  0  0  0
   39.0620   25.9300   33.5410 H   0  0  0  0  0  0  0  0  0  0  0  0
   39.1320   24.2060   33.9160 H   0  0  0  0  0  0  0  0  0  0  0  0
   37.9260   25.3150   35.2450 C   0  0  1  0  0  0  0  0  0  0  0  0
   36.8200   25.1050   35.2680 H   0  0  0  0  0  0  0  0  0  0  0  0
   38.6550   23.4660   38.4690 C   0  0  0  0  0  0  0  0  0  0  0  0
   38.0120   24.3300   37.5790 C   0  0  0  0  0  0  0  0  0  0  0  0
   38.5440   24.4410   36.2620 C   0  0  0  0  0  0  0  0  0  0  0  0
   39.6640   23.6940   35.9300 N   0  0  0  0  0  0  0  0  0  0  0  0
   40.2480   22.8830   36.8030 C   0  0  0  0  0  0  0  0  0  0  0  0
   39.7460   22.7590   38.0920 N   0  0  0  0  0  0  0  0  0  0  0  0
   38.2750   23.3620   39.4710 H   0  0  0  0  0  0  0  0  0  0  0  0
   37.1390   24.9120   37.8390 H   0  0  0  0  0  0  0  0  0  0  0  0
   41.1250   22.3160   36.4970 H   0  0  0  0  0  0  0  0  0  0  0  0
   38.0910   26.7770   35.6440 C   0  0  0  0  0  0  0  0  0  0  0  0
   38.3310   26.7920   36.7270 H   0  0  0  0  0  0  0  0  0  0  0  0
   37.1320   27.3230   35.5490 H   0  0  0  0  0  0  0  0  0  0  0  0
   38.9320   27.1830   35.0910 H   0  0  0  0  0  0  0  0  0  0  0  0
  1 24  1  0  0  0  0
  2  6  1  0  0  0  0
  2  1  1  0  0  0  0
  3  2  2  0  0  0  0
  4  3  1  0  0  0  0
  4  5  2  0  0  0  0
  5  8  1  0  0  0  0
  5  1  1  0  0  0  0
  7  3  1  0  0  0  0
  8 11  1  1  0  0  0
  9  8  1  0  0  0  0
  9 12  1  0  0  0  0
 10 14  1  6  0  0  0
 10  9  1  0  0  0  0
 10  8  1  0  0  0  0
 13  9  1  0  0  0  0
 15 10  1  0  0  0  0
 15 16  1  0  0  0  0
 17 16  2  0  0  0  0
 18 17  1  0  0  0  0
 19 18  2  0  0  0  0
 20 21  1  0  0  0  0
 20 18  1  0  0  0  0
 21 15  1  0  0  0  0
 22 21  2  0  0  0  0
 23 20  1  0  0  0  0
 24 26  1  0  0  0  0
 24 27  1  0  0  0  0
 25 24  1  0  0  0  0
 27 28  1  6  0  0  0
 27 38  1  0  0  0  0
 27 31  1  0  0  0  0
 29 35  1  0  0  0  0
 30 36  1  0  0  0  0
 30 29  2  0  0  0  0
 31 30  1  0  0  0  0
 32 31  2  0  0  0  0
 32 33  1  0  0  0  0
 33 34  2  0  0  0  0
 34 29  1  0  0  0  0
 37 33  1  0  0  0  0
 38 39  1  0  0  0  0
 40 38  1  0  0  0  0
 41 38  1  0  0  0  0
M  END
>  <minimizedAffinity>
-5.51553345

>  <minimizedRMSD>
2.7792685

$$$$
