REMARK  Name = 
REMARK  6 active torsions:
REMARK  status: ('A' for Active; 'I' for Inactive)
REMARK    1  A    between atoms: C_1  and  C_4
REMARK    2  A    between atoms: C_1  and  C_8
REMARK    3  A    between atoms: C_1  and  C_9
REMARK    4  A    between atoms: C_9  and  N_10
REMARK    5  A    between atoms: C_14  and  C_15
REMARK    6  A    between atoms: C_17  and  N_33
REMARK                            x       y       z     vdW  Elec       q    Type
REMARK                         _______ _______ _______ _____ _____    ______ ____
ROOT
ATOM      1  N   UNL     1      37.581  25.437  33.072  0.00  0.00    +0.000 N 
ATOM      2  C   UNL     1      37.052  24.331  32.544  0.00  0.00    +0.000 A 
ATOM      3  C   UNL     1      36.054  24.564  31.633  0.00  0.00    +0.000 A 
ATOM      4  N   UNL     1      35.954  25.892  31.590  0.00  0.00    +0.000 NA
ATOM      5  C   UNL     1      36.875  26.421  32.456  0.00  0.00    +0.000 A 
ATOM      6  H   UNL     1      37.410  23.331  32.838  0.00  0.00    +0.000 HD
ATOM      7  H   UNL     1      35.489  23.821  31.086  0.00  0.00    +0.000 HD
ENDROOT
BRANCH   5   8
ATOM      8  C   UNL     1      37.001  27.925  32.581  0.00  0.00    +0.000 C 
ATOM      9  C   UNL     1      35.868  28.726  32.065  0.00  0.00    +0.000 C 
ATOM     10  C   UNL     1      36.040  28.579  33.560  0.00  0.00    +0.000 C 
ATOM     11  H   UNL     1      38.046  28.277  32.657  0.00  0.00    +0.000 HD
ATOM     12  H   UNL     1      36.116  29.676  31.555  0.00  0.00    +0.000 HD
ATOM     13  H   UNL     1      35.008  28.173  31.637  0.00  0.00    +0.000 HD
ATOM     14  H   UNL     1      35.344  27.934  34.102  0.00  0.00    +0.000 HD
BRANCH  10  15
ATOM     15  N   UNL     1      36.368  29.820  34.190  0.00  0.00    +0.000 N 
ATOM     16  C   UNL     1      36.650  30.109  35.474  0.00  0.00    +0.000 A 
ATOM     17  C   UNL     1      36.942  31.402  35.859  0.00  0.00    +0.000 A 
ATOM     18  C   UNL     1      36.958  32.443  34.953  0.00  0.00    +0.000 A 
ATOM     19  O   UNL     1      37.227  33.612  35.322  0.00  0.00    +0.000 OA
ATOM     20  N   UNL     1      36.672  32.119  33.679  0.00  0.00    +0.000 N 
ATOM     21  C   UNL     1      36.382  30.847  33.287  0.00  0.00    +0.000 A 
ATOM     22  O   UNL     1      36.138  30.738  32.037  0.00  0.00    +0.000 OA
ATOM     23  H   UNL     1      36.687  32.917  32.996  0.00  0.00    +0.000 HD
ENDBRANCH  10  15
ENDBRANCH   5   8
BRANCH   1  24
ATOM     24  C   UNL     1      38.587  25.712  34.025  0.00  0.00    +0.000 C 
ATOM     25  H   UNL     1      39.151  26.625  33.779  0.00  0.00    +0.000 HD
ATOM     26  H   UNL     1      39.341  24.881  33.975  0.00  0.00    +0.000 HD
BRANCH  24  27
ATOM     27  C   UNL     1      38.083  25.765  35.419  0.00  0.00    +0.000 C 
ATOM     28  H   UNL     1      36.965  25.627  35.413  0.00  0.00    +0.000 HD
BRANCH  27  31
ATOM     29  C   UNL     1      38.639  23.381  38.309  0.00  0.00    +0.000 A 
ATOM     30  C   UNL     1      38.058  24.406  37.559  0.00  0.00    +0.000 A 
ATOM     31  C   UNL     1      38.635  24.710  36.292  0.00  0.00    +0.000 A 
ATOM     32  N   UNL     1      39.735  23.981  35.869  0.00  0.00    +0.000 NA
ATOM     33  C   UNL     1      40.260  23.013  36.610  0.00  0.00    +0.000 A 
ATOM     34  N   UNL     1      39.714  22.700  37.847  0.00  0.00    +0.000 NA
ATOM     35  H   UNL     1      38.224  23.130  39.270  0.00  0.00    +0.000 HD
ATOM     36  H   UNL     1      37.199  24.974  37.890  0.00  0.00    +0.000 HD
ATOM     37  H   UNL     1      41.124  22.467  36.236  0.00  0.00    +0.000 HD
ENDBRANCH  27  31
BRANCH  27  38
ATOM     38  C   UNL     1      38.339  27.137  36.033  0.00  0.00    +0.000 C 
ATOM     39  H   UNL     1      38.571  26.974  37.105  0.00  0.00    +0.000 HD
ATOM     40  H   UNL     1      37.418  27.752  36.022  0.00  0.00    +0.000 HD
ATOM     41  H   UNL     1      39.209  27.565  35.545  0.00  0.00    +0.000 HD
ENDBRANCH  27  38
ENDBRANCH  24  27
ENDBRANCH   1  24
TORSDOF 6
