
     RDKit          3D

 43 46  0  0  0  0  0  0  0  0999 V2000
   38.0832   25.7652   35.4193 C   0  0  1  0  0  0  0  0  0  0  0  0
   38.6387   23.3812   38.3088 C   0  0  0  0  0  0  0  0  0  0  0  0
   38.0579   24.4060   37.5586 C   0  0  0  0  0  0  0  0  0  0  0  0
   38.6350   24.7105   36.2921 C   0  0  0  0  0  0  0  0  0  0  0  0
   39.7350   23.9809   35.8694 N   0  0  0  0  0  0  0  0  0  0  0  0
   40.2600   23.0127   36.6104 C   0  0  0  0  0  0  0  0  0  0  0  0
   39.7136   22.7003   37.8471 N   0  0  0  0  0  0  0  0  0  0  0  0
   38.3387   27.1369   36.0332 C   0  0  0  0  0  0  0  0  0  0  0  0
   38.5870   25.7121   34.0252 C   0  0  0  0  0  0  0  0  0  0  0  0
   37.5807   25.4372   33.0719 N   0  0  0  0  0  0  0  0  0  0  0  0
   37.0521   24.3307   32.5445 C   0  0  0  0  0  0  0  0  0  0  0  0
   36.0537   24.5638   31.6332 C   0  0  0  0  0  0  0  0  0  0  0  0
   35.9544   25.8921   31.5900 N   0  0  0  0  0  0  0  0  0  0  0  0
   36.8749   26.4210   32.4565 C   0  0  0  0  0  0  0  0  0  0  0  0
   37.0007   27.9250   32.5812 C   0  0  1  0  0  0  0  0  0  0  0  0
   35.8681   28.7263   32.0652 C   0  0  0  0  0  0  0  0  0  0  0  0
   36.0402   28.5792   33.5605 C   0  0  2  0  0  0  0  0  0  0  0  0
   36.9647   25.6270   35.4127 H   0  0  0  0  0  0  0  0  0  0  0  0
   38.2238   23.1299   39.2696 H   0  0  0  0  0  0  0  0  0  0  0  0
   37.1994   24.9740   37.8898 H   0  0  0  0  0  0  0  0  0  0  0  0
   41.1238   22.4668   36.2365 H   0  0  0  0  0  0  0  0  0  0  0  0
   38.5708   26.9742   37.1053 H   0  0  0  0  0  0  0  0  0  0  0  0
   37.4179   27.7523   36.0221 H   0  0  0  0  0  0  0  0  0  0  0  0
   39.2089   27.5650   35.5450 H   0  0  0  0  0  0  0  0  0  0  0  0
   39.1510   26.6248   33.7788 H   0  0  0  0  0  0  0  0  0  0  0  0
   39.3410   24.8809   33.9747 H   0  0  0  0  0  0  0  0  0  0  0  0
   37.4104   23.3308   32.8379 H   0  0  0  0  0  0  0  0  0  0  0  0
   35.4889   23.8210   31.0860 H   0  0  0  0  0  0  0  0  0  0  0  0
   38.0457   28.2771   32.6565 H   0  0  0  0  0  0  0  0  0  0  0  0
   36.1164   29.6757   31.5547 H   0  0  0  0  0  0  0  0  0  0  0  0
   35.0080   28.1729   31.6368 H   0  0  0  0  0  0  0  0  0  0  0  0
   35.3440   27.9342   34.1025 H   0  0  0  0  0  0  0  0  0  0  0  0
   36.3678   29.8195   34.1900 N   0  0  0  0  0  0  0  0  0  0  0  0
   35.7553   30.4945   35.1806 C   0  0  0  0  0  0  0  0  0  0  0  0
   36.2606   31.6953   35.6359 C   0  0  0  0  0  0  0  0  0  0  0  0
   37.4054   32.2498   35.0996 C   0  0  0  0  0  0  0  0  0  0  0  0
   37.8504   33.3438   35.5269 O   0  0  0  0  0  0  0  0  0  0  0  0
   37.9925   31.5509   34.1124 N   0  0  0  0  0  0  0  0  0  0  0  0
   37.5026   30.3646   33.6549 C   0  0  0  0  0  0  0  0  0  0  0  0
   38.1981   29.8511   32.7132 O   0  0  0  0  0  0  0  0  0  0  0  0
   34.8717   29.9817   35.5333 H   0  0  0  0  0  0  0  0  0  0  0  0
   35.7069   32.1600   36.4261 H   0  0  0  0  0  0  0  0  0  0  0  0
   38.8629   31.9799   33.7098 H   0  0  0  0  0  0  0  0  0  0  0  0
  1  8  1  0
  1  4  1  0
  3  2  2  0
  4  3  1  0
  5  4  2  0
  5  6  1  0
  6  7  2  0
  7  2  1  0
  9  1  1  0
 10  9  1  0
 11 10  1  0
 12 11  2  0
 13 12  1  0
 13 14  2  0
 14 15  1  0
 14 10  1  0
 15 17  1  0
 16 15  1  0
 16 17  1  0
  1 18  1  6
  2 19  1  0
  3 20  1  0
  6 21  1  0
  8 22  1  0
  8 23  1  0
  8 24  1  0
  9 25  1  0
  9 26  1  0
 11 27  1  0
 12 28  1  0
 15 29  1  1
 16 30  1  0
 16 31  1  0
 17 32  1  1
 33 34  1  0
 34 35  2  0
 35 36  1  0
 36 37  2  0
 36 38  1  0
 38 39  1  0
 39 40  2  0
 39 33  1  0
 34 41  1  0
 35 42  1  0
 38 43  1  0
 17 33  1  0
M  ISO  8  18   8  19  14  20  14  21  14  22   8  23   8  24   8  25   8
M  ISO  7  26   8  27  14  28  14  29  13  30  13  31  13  32  13
M  END
>  <DihAtoms>  (1) 
14,16,32,33

>  <DihDeg>  (1) 
-36.63035638383469

$$$$
