
 OpenBabel03262519213D

 29 32  0  0  0  0  0  0  0  0999 V2000
   37.4900   25.1650   33.7580 C   0  0  0  0  0  0  0  0  0  0  0  0
   37.8940   25.5240   35.0400 C   0  0  0  0  0  0  0  0  0  0  0  0
   37.9030   26.8720   35.3770 C   0  0  0  0  0  0  0  0  0  0  0  0
   37.5230   27.7990   34.4600 N   0  0  0  0  0  0  0  0  0  0  0  0
   37.1300   27.4150   33.2060 C   0  0  0  0  0  0  0  0  0  0  0  0
   37.1150   26.1210   32.8640 N   0  0  0  0  0  0  0  0  0  0  0  0
   38.2200   27.1420   36.3790 H   0  0  0  0  0  0  0  0  0  0  0  0
   36.8300   28.1620   32.4870 H   0  0  0  0  0  0  0  0  0  0  0  0
   37.4460   23.8120   33.3170 N   0  0  0  0  0  0  0  0  0  0  0  0
   37.9040   22.7220   33.9590 C   0  0  0  0  0  0  0  0  0  0  0  0
   37.7840   21.4710   33.3890 C   0  0  0  0  0  0  0  0  0  0  0  0
   37.1860   21.3210   32.1440 C   0  0  0  0  0  0  0  0  0  0  0  0
   37.0650   20.1770   31.6020 O   0  0  0  0  0  0  0  0  0  0  0  0
   36.7470   22.4450   31.5490 N   0  0  0  0  0  0  0  0  0  0  0  0
   36.8640   23.6670   32.1020 C   0  0  0  0  0  0  0  0  0  0  0  0
   36.3950   24.6050   31.3980 O   0  0  0  0  0  0  0  0  0  0  0  0
   36.3010   22.2720   30.6020 H   0  0  0  0  0  0  0  0  0  0  0  0
   38.2760   24.5510   35.9510 N   0  0  0  0  0  0  0  0  0  0  0  0
   37.4870   23.9620   36.8800 C   0  0  0  0  0  0  0  0  0  0  0  0
   38.1540   23.0540   37.6160 N   0  0  0  0  0  0  0  0  0  0  0  0
   39.4200   23.0530   37.1500 C   0  0  0  0  0  0  0  0  0  0  0  0
   40.5520   22.3620   37.4810 C   0  0  0  0  0  0  0  0  0  0  0  0
   41.7420   22.5300   36.8580 N   0  0  0  0  0  0  0  0  0  0  0  0
   41.7600   23.4510   35.8560 C   0  0  0  0  0  0  0  0  0  0  0  0
   40.6530   24.1220   35.5380 N   0  0  0  0  0  0  0  0  0  0  0  0
   39.4700   23.9810   36.1270 C   0  0  0  0  0  0  0  0  0  0  0  0
   36.4270   24.1440   37.0750 H   0  0  0  0  0  0  0  0  0  0  0  0
   40.4630   21.6460   38.2880 H   0  0  0  0  0  0  0  0  0  0  0  0
   42.7230   23.5670   35.3750 H   0  0  0  0  0  0  0  0  0  0  0  0
  1  2  1  0  0  0  0
  2  3  2  0  0  0  0
  2 18  1  0  0  0  0
  3  7  1  0  0  0  0
  4  3  1  0  0  0  0
  5  4  2  0  0  0  0
  6  5  1  0  0  0  0
  6  1  2  0  0  0  0
  8  5  1  0  0  0  0
  9  1  1  0  0  0  0
  9 10  1  0  0  0  0
 11 10  2  0  0  0  0
 12 11  1  0  0  0  0
 13 12  2  0  0  0  0
 14 15  1  0  0  0  0
 14 12  1  0  0  0  0
 15  9  1  0  0  0  0
 16 15  2  0  0  0  0
 17 14  1  0  0  0  0
 18 26  1  0  0  0  0
 18 19  1  0  0  0  0
 19 27  1  0  0  0  0
 19 20  2  0  0  0  0
 21 22  1  0  0  0  0
 21 20  1  0  0  0  0
 22 28  1  0  0  0  0
 23 22  2  0  0  0  0
 24 23  1  0  0  0  0
 25 24  2  0  0  0  0
 25 26  1  0  0  0  0
 26 21  2  0  0  0  0
 29 24  1  0  0  0  0
M  END
>  <minimizedAffinity>
-5.50850391

>  <minimizedRMSD>
0.781445265

$$$$
