
 OpenBabel03262519473D

 41 44  0  0  1  0  0  0  0  0999 V2000
   37.3520   26.1820   32.7440 N   0  0  0  0  0  0  0  0  0  0  0  0
   36.9720   25.1630   31.9700 C   0  0  0  0  0  0  0  0  0  0  0  0
   35.8940   25.4360   31.1690 C   0  0  0  0  0  0  0  0  0  0  0  0
   35.5820   26.6990   31.4590 N   0  0  0  0  0  0  0  0  0  0  0  0
   36.4610   27.1520   32.4080 C   0  0  0  0  0  0  0  0  0  0  0  0
   37.5020   24.1970   31.9990 H   0  0  0  0  0  0  0  0  0  0  0  0
   35.4200   24.7620   30.4680 H   0  0  0  0  0  0  0  0  0  0  0  0
   36.3550   28.5800   32.8990 C   0  0  1  0  0  0  0  0  0  0  0  0
   35.2980   29.4130   32.2810 C   0  0  0  0  0  0  0  0  0  0  0  0
   35.0990   28.9040   33.6910 C   0  0  2  0  0  0  0  0  0  0  0  0
   37.2910   28.9670   33.3430 H   0  0  0  0  0  0  0  0  0  0  0  0
   35.5440   30.4740   32.0890 H   0  0  0  0  0  0  0  0  0  0  0  0
   34.6560   28.9330   31.5160 H   0  0  0  0  0  0  0  0  0  0  0  0
   34.3760   28.1010   33.8560 H   0  0  0  0  0  0  0  0  0  0  0  0
   35.0910   29.9640   34.6510 N   0  0  0  0  0  0  0  0  0  0  0  0
   36.0940   30.7110   35.1490 C   0  0  0  0  0  3  0  0  0  0  0  0
   35.8460   31.6940   36.0830 C   0  0  0  0  0  3  0  0  0  0  0  0
   34.5710   31.9530   36.5420 C   0  0  0  0  0  0  0  0  0  0  0  0
   34.3640   32.8540   37.3940 O   0  0  0  0  0  0  0  0  0  0  0  0
   33.5920   31.1900   36.0260 N   0  0  0  0  0  0  0  0  0  0  0  0
   33.8250   30.2150   35.1030 C   0  0  0  0  0  0  0  0  0  0  0  0
   32.7680   29.5980   34.7320 O   0  0  0  0  0  0  0  0  0  0  0  0
   32.6240   31.3940   36.3810 H   0  0  0  0  0  0  0  0  0  0  0  0
   38.3600   26.3860   33.7120 C   0  0  0  0  0  0  0  0  0  0  0  0
   38.8850   27.3430   33.5680 H   0  0  0  0  0  0  0  0  0  0  0  0
   39.1450   25.5970   33.5580 H   0  0  0  0  0  0  0  0  0  0  0  0
   37.8760   26.2570   35.1080 C   0  0  1  0  0  0  0  0  0  0  0  0
   36.7560   26.1290   35.1000 H   0  0  0  0  0  0  0  0  0  0  0  0
   38.4680   23.5260   37.6640 C   0  0  0  0  0  0  0  0  0  0  0  0
   37.8880   24.6470   37.0660 C   0  0  0  0  0  0  0  0  0  0  0  0
   38.4300   25.0920   35.8250 C   0  0  0  0  0  0  0  0  0  0  0  0
   39.4950   24.3960   35.2770 N   0  0  0  0  0  0  0  0  0  0  0  0
   40.0200   23.3340   35.8750 C   0  0  0  0  0  0  0  0  0  0  0  0
   39.5090   22.8840   37.0840 N   0  0  0  0  0  0  0  0  0  0  0  0
   38.0790   23.1680   38.6020 H   0  0  0  0  0  0  0  0  0  0  0  0
   37.0560   25.1890   37.4960 H   0  0  0  0  0  0  0  0  0  0  0  0
   40.8570   22.8190   35.4050 H   0  0  0  0  0  0  0  0  0  0  0  0
   38.1520   27.5340   35.8950 C   0  0  0  0  0  0  0  0  0  0  0  0
   38.3970   27.2280   36.9320 H   0  0  0  0  0  0  0  0  0  0  0  0
   37.2370   28.1510   35.9790 H   0  0  0  0  0  0  0  0  0  0  0  0
   39.0200   28.0160   35.4550 H   0  0  0  0  0  0  0  0  0  0  0  0
  1 24  1  0  0  0  0
  2  6  1  0  0  0  0
  2  1  1  0  0  0  0
  3  4  1  0  0  0  0
  3  2  2  0  0  0  0
  4  5  2  0  0  0  0
  5  1  1  0  0  0  0
  5  8  1  0  0  0  0
  7  3  1  0  0  0  0
  8 11  1  1  0  0  0
  8 10  1  0  0  0  0
  9  8  1  0  0  0  0
  9 10  1  0  0  0  0
 10 14  1  1  0  0  0
 10 15  1  0  0  0  0
 12  9  1  0  0  0  0
 13  9  1  0  0  0  0
 15 21  1  0  0  0  0
 15 16  1  0  0  0  0
 16 17  2  0  0  0  0
 17 18  1  0  0  0  0
 18 19  2  0  0  0  0
 20 23  1  0  0  0  0
 20 18  1  0  0  0  0
 21 20  1  0  0  0  0
 22 21  2  0  0  0  0
 24 27  1  0  0  0  0
 25 24  1  0  0  0  0
 26 24  1  0  0  0  0
 27 28  1  6  0  0  0
 27 31  1  0  0  0  0
 27 38  1  0  0  0  0
 29 35  1  0  0  0  0
 30 36  1  0  0  0  0
 30 29  2  0  0  0  0
 31 30  1  0  0  0  0
 32 31  2  0  0  0  0
 32 33  1  0  0  0  0
 33 34  2  0  0  0  0
 34 29  1  0  0  0  0
 37 33  1  0  0  0  0
 38 40  1  0  0  0  0
 38 39  1  0  0  0  0
 41 38  1  0  0  0  0
M  END
>  <minimizedAffinity>
-5.74433422

>  <minimizedRMSD>
1.92171907

$$$$
