
 OpenBabel03262519383D

 31 33  0  0  1  0  0  0  0  0999 V2000
   38.3110   25.6070   34.6760 N   0  0  0  0  0  0  0  0  0  0  0  0
   37.3190   26.5540   35.0670 C   0  0  0  0  0  0  0  0  0  0  0  0
   37.2170   27.5310   33.9280 C   0  0  0  0  0  0  0  0  0  0  0  0
   38.1510   26.9830   32.8670 C   0  0  0  0  0  0  0  0  0  0  0  0
   38.1130   25.4950   33.2380 C   0  0  2  0  0  0  0  0  0  0  0  0
   37.4630   27.0270   36.0400 H   0  0  0  0  0  0  0  0  0  0  0  0
   36.3390   26.0110   35.0900 H   0  0  0  0  0  0  0  0  0  0  0  0
   37.6860   28.4950   34.2740 H   0  0  0  0  0  0  0  0  0  0  0  0
   36.1980   27.6660   33.5650 H   0  0  0  0  0  0  0  0  0  0  0  0
   37.7130   27.0820   31.8520 H   0  0  0  0  0  0  0  0  0  0  0  0
   39.1650   27.3880   32.9430 H   0  0  0  0  0  0  0  0  0  0  0  0
   38.9950   24.9840   32.8480 H   0  0  0  0  0  0  0  0  0  0  0  0
   38.1310   24.2970   35.2170 C   0  0  0  0  0  0  0  0  0  0  0  0
   37.7720   23.5500   34.4980 H   0  0  0  0  0  0  0  0  0  0  0  0
   37.3650   24.3670   36.0380 H   0  0  0  0  0  0  0  0  0  0  0  0
   41.7680   23.4840   35.9000 C   0  0  0  0  0  0  0  0  0  0  0  0
   40.6280   24.0140   35.2900 C   0  0  0  0  0  0  0  0  0  0  0  0
   39.3690   23.7490   35.8410 C   0  0  0  0  0  0  0  0  0  0  0  0
   39.3320   22.9750   36.9620 N   0  0  0  0  0  0  0  0  0  0  0  0
   40.4480   22.4780   37.5290 C   0  0  0  0  0  0  0  0  0  0  0  0
   41.6450   22.7350   36.9960 N   0  0  0  0  0  0  0  0  0  0  0  0
   42.7410   23.6760   35.4920 H   0  0  0  0  0  0  0  0  0  0  0  0
   40.6930   24.6170   34.4100 H   0  0  0  0  0  0  0  0  0  0  0  0
   40.3830   21.8670   38.4180 H   0  0  0  0  0  0  0  0  0  0  0  0
   36.9140   24.9080   32.9120 O   0  0  0  0  0  0  0  0  0  0  0  0
   36.8530   23.7460   32.1560 C   0  0  0  0  0  0  0  0  0  0  0  0
   35.6890   23.2180   31.6590 C   0  0  0  0  0  3  0  0  0  0  0  0
   36.0250   22.1090   30.9910 N   0  0  0  0  0  0  0  0  0  0  0  0
   37.3590   21.9750   31.0840 C   0  0  0  0  0  3  0  0  0  0  0  0
   37.9130   22.9800   31.8070 N   0  0  0  0  0  0  0  0  0  0  0  0
   38.9150   23.0950   32.0160 H   0  0  0  0  0  0  0  0  0  0  0  0
  1  2  1  0  0  0  0
  1 13  1  0  0  0  0
  2  7  1  0  0  0  0
  2  6  1  0  0  0  0
  3  8  1  0  0  0  0
  3  2  1  0  0  0  0
  4 11  1  0  0  0  0
  4  5  1  0  0  0  0
  4  3  1  0  0  0  0
  5 12  1  6  0  0  0
  5  1  1  0  0  0  0
  9  3  1  0  0  0  0
 10  4  1  0  0  0  0
 13 18  1  0  0  0  0
 13 15  1  0  0  0  0
 14 13  1  0  0  0  0
 16 21  1  0  0  0  0
 17 18  1  0  0  0  0
 17 16  2  0  0  0  0
 18 19  2  0  0  0  0
 19 20  1  0  0  0  0
 20 24  1  0  0  0  0
 21 20  2  0  0  0  0
 22 16  1  0  0  0  0
 23 17  1  0  0  0  0
 25  5  1  0  0  0  0
 26 25  1  0  0  0  0
 27 26  2  0  0  0  0
 28 29  2  0  0  0  0
 28 27  1  0  0  0  0
 29 30  1  0  0  0  0
 30 31  1  0  0  0  0
 30 26  1  0  0  0  0
M  END
>  <minimizedAffinity>
-3.97748017

>  <minimizedRMSD>
4.60911322

$$$$
