REMARK  Name = 
REMARK  4 active torsions:
REMARK  status: ('A' for Active; 'I' for Inactive)
REMARK    1  A    between atoms: N_1  and  C_6
REMARK    2  A    between atoms: C_5  and  O_13
REMARK    3  A    between atoms: C_6  and  C_9
REMARK    4  A    between atoms: O_13  and  C_26
REMARK                            x       y       z     vdW  Elec       q    Type
REMARK                         _______ _______ _______ _____ _____    ______ ____
ROOT
ATOM      1  N   UNL     1      37.898  25.639  34.357  0.00  0.00    +0.000 NA
ATOM      2  C   UNL     1      37.378  25.328  33.066  0.00  0.00    +0.000 C 
ATOM      3  C   UNL     1      36.730  26.592  32.573  0.00  0.00    +0.000 C 
ATOM      4  C   UNL     1      37.025  27.620  33.647  0.00  0.00    +0.000 C 
ATOM      5  C   UNL     1      38.319  27.026  34.219  0.00  0.00    +0.000 C 
ATOM      6  H   UNL     1      36.733  24.450  33.006  0.00  0.00    +0.000 HD
ATOM      7  H   UNL     1      38.257  25.155  32.392  0.00  0.00    +0.000 HD
ATOM      8  H   UNL     1      35.616  26.430  32.609  0.00  0.00    +0.000 HD
ATOM      9  H   UNL     1      37.078  26.900  31.587  0.00  0.00    +0.000 HD
ATOM     10  H   UNL     1      37.281  28.605  33.205  0.00  0.00    +0.000 HD
ATOM     11  H   UNL     1      36.241  27.677  34.409  0.00  0.00    +0.000 HD
ATOM     12  H   UNL     1      38.490  27.394  35.233  0.00  0.00    +0.000 HD
ENDROOT
BRANCH   1  13
ATOM     13  C   UNL     1      39.060  24.894  34.727  0.00  0.00    +0.000 C 
ATOM     14  H   UNL     1      40.001  25.456  34.673  0.00  0.00    +0.000 HD
ATOM     15  H   UNL     1      39.149  24.023  34.021  0.00  0.00    +0.000 HD
BRANCH  13  18
ATOM     16  C   UNL     1      37.939  24.197  38.278  0.00  0.00    +0.000 A 
ATOM     17  C   UNL     1      37.995  24.759  37.000  0.00  0.00    +0.000 A 
ATOM     18  C   UNL     1      38.970  24.317  36.099  0.00  0.00    +0.000 A 
ATOM     19  N   UNL     1      39.822  23.345  36.532  0.00  0.00    +0.000 NA
ATOM     20  C   UNL     1      39.744  22.821  37.770  0.00  0.00    +0.000 A 
ATOM     21  N   UNL     1      38.811  23.249  38.624  0.00  0.00    +0.000 NA
ATOM     22  H   UNL     1      37.199  24.523  38.983  0.00  0.00    +0.000 HD
ATOM     23  H   UNL     1      37.311  25.521  36.693  0.00  0.00    +0.000 HD
ATOM     24  H   UNL     1      40.436  22.052  38.081  0.00  0.00    +0.000 HD
ENDBRANCH  13  18
ENDBRANCH   1  13
BRANCH   5  25
ATOM     25  O   UNL     1      39.383  27.175  33.363  0.00  0.00    +0.000 OA
BRANCH  25  26
ATOM     26  C   UNL     1      40.575  27.753  33.776  0.00  0.00    +0.000 A 
ATOM     27  C   UNL     1      41.411  28.456  32.946  0.00  0.00    +0.000 A 
ATOM     28  N   UNL     1      42.446  28.855  33.692  0.00  0.00    +0.000 NA
ATOM     29  C   UNL     1      42.237  28.403  34.941  0.00  0.00    +0.000 A 
ATOM     30  N   UNL     1      41.076  27.708  35.032  0.00  0.00    +0.000 N 
ATOM     31  H   UNL     1      40.700  27.265  35.883  0.00  0.00    +0.000 HD
ENDBRANCH  25  26
ENDBRANCH   5  25
TORSDOF 4
