REMARK  Name = 
REMARK  3 active torsions:
REMARK  status: ('A' for Active; 'I' for Inactive)
REMARK    1  A    between atoms: C_1  and  C_6
REMARK    2  A    between atoms: N_5  and  C_12
REMARK    3  A    between atoms: C_14  and  N_24
REMARK                            x       y       z     vdW  Elec       q    Type
REMARK                         _______ _______ _______ _____ _____    ______ ____
ROOT
ATOM      1  C   UNL     1      38.023  23.474  34.615  0.00  0.00    +0.000 A 
ATOM      2  C   UNL     1      38.269  24.566  33.797  0.00  0.00    +0.000 A 
ATOM      3  N   UNL     1      37.776  24.174  32.585  0.00  0.00    +0.000 NA
ATOM      4  C   UNL     1      37.291  22.958  32.708  0.00  0.00    +0.000 A 
ATOM      5  N   UNL     1      37.426  22.484  33.966  0.00  0.00    +0.000 N 
ATOM      6  H   UNL     1      38.745  25.473  34.128  0.00  0.00    +0.000 HD
ATOM      7  H   UNL     1      36.858  22.502  31.821  0.00  0.00    +0.000 HD
ENDROOT
BRANCH   1   8
ATOM      8  C   UNL     1      38.377  23.409  36.038  0.00  0.00    +0.000 A 
ATOM      9  C   UNL     1      39.586  22.802  36.423  0.00  0.00    +0.000 A 
ATOM     10  C   UNL     1      39.900  22.754  37.798  0.00  0.00    +0.000 A 
ATOM     11  N   UNL     1      39.022  23.291  38.654  0.00  0.00    +0.000 NA
ATOM     12  C   UNL     1      37.861  23.871  38.256  0.00  0.00    +0.000 A 
ATOM     13  N   UNL     1      37.533  23.932  36.943  0.00  0.00    +0.000 NA
ATOM     14  H   UNL     1      40.259  22.385  35.708  0.00  0.00    +0.000 HD
ATOM     15  H   UNL     1      40.821  22.295  38.120  0.00  0.00    +0.000 HD
ATOM     16  H   UNL     1      37.139  24.310  38.931  0.00  0.00    +0.000 HD
ENDBRANCH   1   8
BRANCH   5  17
ATOM     17  C   UNL     1      36.982  21.178  34.388  0.00  0.00    +0.000 C 
ATOM     18  C   UNL     1      35.857  20.950  35.261  0.00  0.00    +0.000 C 
ATOM     19  C   UNL     1      35.673  20.762  33.772  0.00  0.00    +0.000 C 
ATOM     20  H   UNL     1      37.828  20.448  34.385  0.00  0.00    +0.000 HD
ATOM     21  H   UNL     1      35.848  19.962  35.809  0.00  0.00    +0.000 HD
ATOM     22  H   UNL     1      35.277  21.691  35.825  0.00  0.00    +0.000 HD
ATOM     23  H   UNL     1      35.687  19.742  33.338  0.00  0.00    +0.000 HD
BRANCH  19  24
ATOM     24  N   UNL     1      34.805  21.703  33.146  0.00  0.00    +0.000 N 
ATOM     25  C   UNL     1      33.709  22.203  33.729  0.00  0.00    +0.000 A 
ATOM     26  C   UNL     1      32.860  23.115  33.134  0.00  0.00    +0.000 A 
ATOM     27  C   UNL     1      33.165  23.543  31.840  0.00  0.00    +0.000 A 
ATOM     28  O   UNL     1      32.473  24.366  31.195  0.00  0.00    +0.000 OA
ATOM     29  N   UNL     1      34.270  23.046  31.238  0.00  0.00    +0.000 N 
ATOM     30  C   UNL     1      35.062  22.149  31.884  0.00  0.00    +0.000 A 
ATOM     31  O   UNL     1      36.083  21.739  31.232  0.00  0.00    +0.000 OA
ATOM     32  H   UNL     1      34.520  23.354  30.262  0.00  0.00    +0.000 HD
ENDBRANCH  19  24
ENDBRANCH   5  17
TORSDOF 3
