
 OpenBabel03262519253D

 45 50  0  0  0  0  0  0  0  0999 V2000
   38.6070   23.0880   32.7260 C   0  0  0  0  0  0  0  0  0  0  0  0
   38.4680   21.8420   33.3180 C   0  0  0  0  0  0  0  0  0  0  0  0
   37.2620   21.1400   33.3050 C   0  0  0  0  0  0  0  0  0  0  0  0
   36.1470   21.6920   32.6810 C   0  0  0  0  0  0  0  0  0  0  0  0
   36.2610   22.9350   32.0830 C   0  0  0  0  0  0  0  0  0  0  0  0
   35.1700   23.4890   31.4700 C   0  0  0  0  0  0  0  0  0  0  0  0
   35.2170   24.7150   30.8610 C   0  0  0  0  0  0  0  0  0  0  0  0
   36.4420   25.3910   30.8850 C   0  0  0  0  0  0  0  0  0  0  0  0
   37.5200   24.7920   31.5140 C   0  0  0  0  0  0  0  0  0  0  0  0
   37.4790   23.5770   32.1280 C   0  0  0  0  0  0  0  0  0  0  0  0
   39.3700   21.4460   33.7980 H   0  0  0  0  0  0  0  0  0  0  0  0
   37.1980   20.1730   33.7770 H   0  0  0  0  0  0  0  0  0  0  0  0
   35.2110   21.1500   32.6700 H   0  0  0  0  0  0  0  0  0  0  0  0
   34.2610   22.9080   31.4930 H   0  0  0  0  0  0  0  0  0  0  0  0
   34.2720   25.0400   30.4130 H   0  0  0  0  0  0  0  0  0  0  0  0
   36.3220   26.3330   30.3690 H   0  0  0  0  0  0  0  0  0  0  0  0
   38.5740   25.6960   31.2360 N   0  0  0  0  0  0  0  0  0  0  0  0
   39.1460   26.7860   31.7340 C   0  0  0  0  0  0  0  0  0  0  0  0
   40.1640   27.5070   31.1790 C   0  0  0  0  0  0  0  0  0  0  0  0
   40.7080   27.1280   29.9740 C   0  0  0  0  0  0  0  0  0  0  0  0
   41.6270   27.8500   29.5560 O   0  0  0  0  0  0  0  0  0  0  0  0
   40.1990   26.0500   29.3990 N   0  0  0  0  0  0  0  0  0  0  0  0
   39.1800   25.3760   30.0120 C   0  0  0  0  0  0  0  0  0  0  0  0
   38.8190   24.3640   29.3120 O   0  0  0  0  0  0  0  0  0  0  0  0
   40.6030   25.7560   28.4890 H   0  0  0  0  0  0  0  0  0  0  0  0
   39.8580   23.7910   32.7790 C   0  0  0  0  0  0  0  0  0  0  0  0
   40.1980   24.6790   33.8220 C   0  0  0  0  0  0  0  0  0  0  0  0
   41.4490   25.3000   33.7720 C   0  0  0  0  0  0  0  0  0  0  0  0
   42.2910   25.0280   32.7290 N   0  0  0  0  0  0  0  0  0  0  0  0
   41.9310   24.1640   31.7430 C   0  0  0  0  0  0  0  0  0  0  0  0
   40.7560   23.5840   31.7920 N   0  0  0  0  0  0  0  0  0  0  0  0
   41.7680   25.9910   34.5390 H   0  0  0  0  0  0  0  0  0  0  0  0
   42.5850   23.9400   30.9150 H   0  0  0  0  0  0  0  0  0  0  0  0
   39.3180   24.8910   34.8670 N   0  0  0  0  0  0  0  0  0  0  0  0
   38.3360   25.7990   34.9120 C   0  0  0  0  0  0  0  0  0  0  0  0
   37.6520   25.7540   36.0750 N   0  0  0  0  0  0  0  0  0  0  0  0
   38.2330   24.7620   36.8060 C   0  0  0  0  0  0  0  0  0  0  0  0
   37.9870   24.2450   38.0510 C   0  0  0  0  0  0  0  0  0  0  0  0
   38.6970   23.2400   38.5910 N   0  0  0  0  0  0  0  0  0  0  0  0
   39.6990   22.7480   37.8190 C   0  0  0  0  0  0  0  0  0  0  0  0
   39.9210   23.2650   36.6140 N   0  0  0  0  0  0  0  0  0  0  0  0
   39.2520   24.2520   36.0390 C   0  0  0  0  0  0  0  0  0  0  0  0
   37.9140   26.5690   34.2890 H   0  0  0  0  0  0  0  0  0  0  0  0
   37.1680   24.6800   38.6290 H   0  0  0  0  0  0  0  0  0  0  0  0
   40.3770   21.9480   38.0720 H   0  0  0  0  0  0  0  0  0  0  0  0
  1 26  1  0  0  0  0
  1  2  1  0  0  0  0
  2 11  1  0  0  0  0
  3  2  2  0  0  0  0
  3 12  1  0  0  0  0
  4  3  1  0  0  0  0
  5 10  1  0  0  0  0
  5  4  2  0  0  0  0
  6 14  1  0  0  0  0
  6  5  1  0  0  0  0
  7  8  1  0  0  0  0
  7  6  2  0  0  0  0
  8  9  2  0  0  0  0
  9 10  1  0  0  0  0
 10  1  2  0  0  0  0
 13  4  1  0  0  0  0
 15  7  1  0  0  0  0
 16  8  1  0  0  0  0
 17  9  1  0  0  0  0
 17 18  1  0  0  0  0
 19 18  2  0  0  0  0
 20 19  1  0  0  0  0
 21 20  2  0  0  0  0
 22 20  1  0  0  0  0
 22 23  1  0  0  0  0
 23 17  1  0  0  0  0
 24 23  2  0  0  0  0
 25 22  1  0  0  0  0
 26 27  1  0  0  0  0
 27 34  1  0  0  0  0
 28 27  2  0  0  0  0
 28 32  1  0  0  0  0
 29 28  1  0  0  0  0
 30 31  1  0  0  0  0
 30 29  2  0  0  0  0
 31 26  2  0  0  0  0
 33 30  1  0  0  0  0
 34 35  1  0  0  0  0
 34 42  1  0  0  0  0
 35 36  2  0  0  0  0
 36 37  1  0  0  0  0
 37 38  1  0  0  0  0
 38 39  2  0  0  0  0
 38 44  1  0  0  0  0
 40 45  1  0  0  0  0
 40 39  1  0  0  0  0
 41 40  2  0  0  0  0
 42 41  1  0  0  0  0
 42 37  2  0  0  0  0
 43 35  1  0  0  0  0
M  END
>  <minimizedAffinity>
-6.12926865

>  <minimizedRMSD>
1.93601227

$$$$
