
 OpenBabel03262519563D

 32 35  0  0  1  0  0  0  0  0999 V2000
   40.8650   23.2430   32.6930 C   0  0  0  0  0  0  0  0  0  0  0  0
   41.5810   24.1270   31.9010 C   0  0  0  0  0  0  0  0  0  0  0  0
   40.8140   24.2410   30.7760 N   0  0  0  0  0  0  0  0  0  0  0  0
   39.7510   23.4810   30.9210 C   0  0  0  0  0  0  0  0  0  0  0  0
   39.7450   22.8390   32.1090 N   0  0  0  0  0  0  0  0  0  0  0  0
   42.5180   24.5730   32.1890 H   0  0  0  0  0  0  0  0  0  0  0  0
   39.0360   23.4630   30.1010 H   0  0  0  0  0  0  0  0  0  0  0  0
   41.2870   22.7970   34.0260 C   0  0  0  0  0  0  0  0  0  0  0  0
   41.9410   21.5600   34.1670 C   0  0  0  0  0  0  0  0  0  0  0  0
   42.3350   21.1570   35.4610 C   0  0  0  0  0  0  0  0  0  0  0  0
   42.0590   21.9820   36.4790 N   0  0  0  0  0  0  0  0  0  0  0  0
   41.4250   23.1720   36.3150 C   0  0  0  0  0  0  0  0  0  0  0  0
   41.0350   23.5840   35.0850 N   0  0  0  0  0  0  0  0  0  0  0  0
   42.1430   20.9310   33.3290 H   0  0  0  0  0  0  0  0  0  0  0  0
   42.8390   20.2140   35.5970 H   0  0  0  0  0  0  0  0  0  0  0  0
   41.1920   23.8520   37.1240 H   0  0  0  0  0  0  0  0  0  0  0  0
   38.7000   21.9400   32.5360 C   0  0  1  0  0  0  0  0  0  0  0  0
   38.1420   21.9230   33.8650 C   0  0  0  0  0  0  0  0  0  0  0  0
   37.3780   22.6230   32.7640 C   0  0  1  0  0  0  0  0  0  0  0  0
   38.7160   20.9960   31.9380 H   0  0  0  0  0  0  0  0  0  0  0  0
   37.6350   20.9620   34.1770 H   0  0  0  0  0  0  0  0  0  0  0  0
   38.4950   22.4600   34.7540 H   0  0  0  0  0  0  0  0  0  0  0  0
   36.5220   22.1150   32.2760 H   0  0  0  0  0  0  0  0  0  0  0  0
   37.2780   24.0380   32.9020 N   0  0  0  0  0  0  0  0  0  0  0  0
   37.7820   24.7190   33.9380 C   0  0  0  0  0  3  0  0  0  0  0  0
   37.6920   26.0900   34.0840 C   0  0  0  0  0  3  0  0  0  0  0  0
   37.0330   26.8100   33.0860 C   0  0  0  0  0  0  0  0  0  0  0  0
   36.8850   28.0550   33.1050 O   0  0  0  0  0  0  0  0  0  0  0  0
   36.5180   26.1350   32.0330 N   0  0  0  0  0  0  0  0  0  0  0  0
   36.6430   24.7830   31.9540 C   0  0  0  0  0  0  0  0  0  0  0  0
   36.1240   24.2370   30.9200 O   0  0  0  0  0  0  0  0  0  0  0  0
   36.0160   26.6570   31.2680 H   0  0  0  0  0  0  0  0  0  0  0  0
  1  8  1  0  0  0  0
  2  6  1  0  0  0  0
  2  1  2  0  0  0  0
  3  4  2  0  0  0  0
  3  2  1  0  0  0  0
  4  5  1  0  0  0  0
  5 17  1  0  0  0  0
  5  1  1  0  0  0  0
  7  4  1  0  0  0  0
  8  9  2  0  0  0  0
  8 13  1  0  0  0  0
  9 10  1  0  0  0  0
 10 15  1  0  0  0  0
 10 11  2  0  0  0  0
 12 11  1  0  0  0  0
 12 16  1  0  0  0  0
 13 12  2  0  0  0  0
 14  9  1  0  0  0  0
 17 20  1  6  0  0  0
 17 19  1  0  0  0  0
 17 18  1  0  0  0  0
 18 21  1  0  0  0  0
 18 22  1  0  0  0  0
 19 23  1  6  0  0  0
 19 24  1  0  0  0  0
 19 18  1  0  0  0  0
 24 25  1  0  0  0  0
 25 26  2  0  0  0  0
 27 28  2  0  0  0  0
 27 26  1  0  0  0  0
 29 27  1  0  0  0  0
 30 29  1  0  0  0  0
 30 24  1  0  0  0  0
 31 30  2  0  0  0  0
 32 29  1  0  0  0  0
M  END
>  <minimizedAffinity>
-3.35401154

>  <minimizedRMSD>
3.87361646

$$$$
