
 OpenBabel03262518263D

 28 30  0  0  0  0  0  0  0  0999 V2000
   39.9810   22.6150   38.2240 N   0  0  0  0  0  0  0  0  0  0  0  0
   38.8570   23.3120   38.1060 N   0  0  0  0  0  0  0  0  0  0  0  0
   38.7620   23.8120   36.8460 C   0  0  0  0  0  0  0  0  0  0  0  0
   39.8780   23.4080   36.1500 C   0  0  0  0  0  0  0  0  0  0  0  0
   40.6080   22.6660   37.0430 C   0  0  0  0  0  0  0  0  0  0  0  0
   40.2630   22.1360   39.1110 H   0  0  0  0  0  0  0  0  0  0  0  0
   40.0880   23.6430   35.1370 H   0  0  0  0  0  0  0  0  0  0  0  0
   41.8550   22.0210   36.8090 N   0  0  0  0  0  0  0  0  0  0  0  0
   42.0370   20.6990   36.9850 C   0  0  0  0  0  0  0  0  0  0  0  0
   43.3010   20.1570   36.7290 C   0  0  0  0  0  0  0  0  0  0  0  0
   44.3350   20.9760   36.3040 C   0  0  0  0  0  0  0  0  0  0  0  0
   45.4560   20.4360   36.0870 O   0  0  0  0  0  0  0  0  0  0  0  0
   44.1020   22.3090   36.1400 N   0  0  0  0  0  0  0  0  0  0  0  0
   42.8690   22.8060   36.3950 C   0  0  0  0  0  0  0  0  0  0  0  0
   42.7530   24.0590   36.2130 O   0  0  0  0  0  0  0  0  0  0  0  0
   44.8940   22.9110   35.8180 H   0  0  0  0  0  0  0  0  0  0  0  0
   37.6710   24.5950   36.4300 O   0  0  0  0  0  0  0  0  0  0  0  0
   37.8630   25.8870   35.9420 C   0  0  0  0  0  0  0  0  0  0  0  0
   38.3730   26.7780   36.6310 O   0  0  0  0  0  0  0  0  0  0  0  0
   37.4440   26.1800   34.5720 C   0  0  0  0  0  0  0  0  0  0  0  0
   37.6150   25.1810   33.6020 C   0  0  0  0  0  0  0  0  0  0  0  0
   37.2190   25.4460   32.2920 C   0  0  0  0  0  0  0  0  0  0  0  0
   36.6910   26.6600   32.0400 N   0  0  0  0  0  0  0  0  0  0  0  0
   36.5310   27.6120   32.9760 C   0  0  0  0  0  0  0  0  0  0  0  0
   36.9070   27.3750   34.2480 N   0  0  0  0  0  0  0  0  0  0  0  0
   38.0400   24.2050   33.8120 H   0  0  0  0  0  0  0  0  0  0  0  0
   37.3230   24.7200   31.4920 H   0  0  0  0  0  0  0  0  0  0  0  0
   36.1040   28.5890   32.7650 H   0  0  0  0  0  0  0  0  0  0  0  0
  1  6  1  0  0  0  0
  2  1  1  0  0  0  0
  3  2  2  0  0  0  0
  4  3  1  0  0  0  0
  4  5  2  0  0  0  0
  5  1  1  0  0  0  0
  7  4  1  0  0  0  0
  8  9  1  0  0  0  0
  8  5  1  0  0  0  0
 10  9  2  0  0  0  0
 11 10  1  0  0  0  0
 12 11  2  0  0  0  0
 13 11  1  0  0  0  0
 13 14  1  0  0  0  0
 14  8  1  0  0  0  0
 15 14  2  0  0  0  0
 16 13  1  0  0  0  0
 17  3  1  0  0  0  0
 18 17  1  0  0  0  0
 18 19  2  0  0  0  0
 20 18  1  0  0  0  0
 21 26  1  0  0  0  0
 21 20  2  0  0  0  0
 22 21  1  0  0  0  0
 23 22  2  0  0  0  0
 23 24  1  0  0  0  0
 24 25  2  0  0  0  0
 25 20  1  0  0  0  0
 27 22  1  0  0  0  0
 28 24  1  0  0  0  0
M  END
>  <minimizedAffinity>
-4.98849297

>  <minimizedRMSD>
1.507249

$$$$
