
 OpenBabel03262519293D

 33 36  0  0  0  0  0  0  0  0999 V2000
   39.6780   22.7580   37.6020 C   0  0  0  0  0  0  0  0  0  0  0  0
   39.0380   23.6350   38.4790 C   0  0  0  0  0  0  0  0  0  0  0  0
   37.6690   23.8880   38.2510 C   0  0  0  0  0  0  0  0  0  0  0  0
   37.0520   23.2820   37.2190 N   0  0  0  0  0  0  0  0  0  0  0  0
   37.7220   22.4330   36.3930 C   0  0  0  0  0  0  0  0  0  0  0  0
   39.0080   22.1820   36.5890 N   0  0  0  0  0  0  0  0  0  0  0  0
   39.5170   24.1290   39.3070 H   0  0  0  0  0  0  0  0  0  0  0  0
   37.1050   24.5580   38.8900 H   0  0  0  0  0  0  0  0  0  0  0  0
   37.1410   21.7560   35.2840 N   0  0  0  0  0  0  0  0  0  0  0  0
   37.7030   21.8450   34.0440 C   0  0  0  0  0  0  0  0  0  0  0  0
   37.0830   21.1570   33.0010 C   0  0  0  0  0  0  0  0  0  0  0  0
   35.9340   20.4060   33.2070 C   0  0  0  0  0  0  0  0  0  0  0  0
   35.3720   19.7830   32.2660 O   0  0  0  0  0  0  0  0  0  0  0  0
   35.4170   20.3480   34.4480 N   0  0  0  0  0  0  0  0  0  0  0  0
   36.0180   21.0160   35.4590 C   0  0  0  0  0  0  0  0  0  0  0  0
   35.5470   20.9700   36.6200 O   0  0  0  0  0  0  0  0  0  0  0  0
   34.5410   19.7810   34.6280 H   0  0  0  0  0  0  0  0  0  0  0  0
   41.0050   22.5170   37.8260 O   0  0  0  0  0  0  0  0  0  0  0  0
   41.9770   22.4090   36.8570 C   0  0  0  0  0  0  0  0  0  0  0  0
   42.3530   23.3850   35.9530 C   0  0  0  0  0  0  0  0  0  0  0  0
   43.3400   22.9280   35.1490 N   0  0  0  0  0  0  0  0  0  0  0  0
   43.6490   21.6500   35.4870 C   0  0  0  0  0  0  0  0  0  0  0  0
   44.5580   20.7440   34.9980 C   0  0  0  0  0  0  0  0  0  0  0  0
   44.6460   19.4830   35.5600 C   0  0  0  0  0  0  0  0  0  0  0  0
   43.7990   19.1520   36.6260 C   0  0  0  0  0  0  0  0  0  0  0  0
   42.8830   20.0780   37.1110 C   0  0  0  0  0  0  0  0  0  0  0  0
   42.8070   21.3340   36.5380 C   0  0  0  0  0  0  0  0  0  0  0  0
   41.9180   24.3890   35.8900 H   0  0  0  0  0  0  0  0  0  0  0  0
   43.7830   23.4960   34.3860 H   0  0  0  0  0  0  0  0  0  0  0  0
   45.1670   21.0800   34.1800 H   0  0  0  0  0  0  0  0  0  0  0  0
   45.3640   18.7760   35.1690 H   0  0  0  0  0  0  0  0  0  0  0  0
   43.8510   18.1650   37.0840 H   0  0  0  0  0  0  0  0  0  0  0  0
   42.2260   19.8420   37.9270 H   0  0  0  0  0  0  0  0  0  0  0  0
  1 18  1  0  0  0  0
  1  2  1  0  0  0  0
  2  7  1  0  0  0  0
  3  2  2  0  0  0  0
  3  8  1  0  0  0  0
  4  3  1  0  0  0  0
  5  6  1  0  0  0  0
  5  4  2  0  0  0  0
  6  1  2  0  0  0  0
  9 15  1  0  0  0  0
  9  5  1  0  0  0  0
 10  9  1  0  0  0  0
 11 12  1  0  0  0  0
 11 10  2  0  0  0  0
 12 14  1  0  0  0  0
 13 12  2  0  0  0  0
 14 17  1  0  0  0  0
 14 15  1  0  0  0  0
 15 16  2  0  0  0  0
 19 18  1  0  0  0  0
 20 19  2  0  0  0  0
 21 22  1  0  0  0  0
 21 20  1  0  0  0  0
 22 27  1  0  0  0  0
 23 22  2  0  0  0  0
 23 24  1  0  0  0  0
 24 25  2  0  0  0  0
 25 32  1  0  0  0  0
 25 26  1  0  0  0  0
 26 33  1  0  0  0  0
 27 19  1  0  0  0  0
 27 26  2  0  0  0  0
 28 20  1  0  0  0  0
 29 21  1  0  0  0  0
 30 23  1  0  0  0  0
 31 24  1  0  0  0  0
M  END
>  <minimizedAffinity>
-5.88914967

>  <minimizedRMSD>
1.73648107

$$$$
