
 OpenBabel03262519553D

 32 35  0  0  1  0  0  0  0  0999 V2000
   38.3990   23.0610   35.4680 C   0  0  0  0  0  0  0  0  0  0  0  0
   37.8610   23.8970   36.4350 C   0  0  0  0  0  0  0  0  0  0  0  0
   38.7820   23.8520   37.4430 N   0  0  0  0  0  0  0  0  0  0  0  0
   39.7610   23.0550   37.0750 C   0  0  0  0  0  0  0  0  0  0  0  0
   39.5590   22.5390   35.8430 N   0  0  0  0  0  0  0  0  0  0  0  0
   36.9260   24.4200   36.3290 H   0  0  0  0  0  0  0  0  0  0  0  0
   40.5790   22.9140   37.7770 H   0  0  0  0  0  0  0  0  0  0  0  0
   37.7670   22.7790   34.1740 C   0  0  0  0  0  0  0  0  0  0  0  0
   37.0960   21.5580   33.9830 C   0  0  0  0  0  0  0  0  0  0  0  0
   36.4980   21.3140   32.7280 C   0  0  0  0  0  0  0  0  0  0  0  0
   36.6090   22.2650   31.7930 N   0  0  0  0  0  0  0  0  0  0  0  0
   37.2630   23.4360   32.0030 C   0  0  0  0  0  0  0  0  0  0  0  0
   37.8460   23.6980   33.1970 N   0  0  0  0  0  0  0  0  0  0  0  0
   37.0310   20.8250   34.7560 H   0  0  0  0  0  0  0  0  0  0  0  0
   35.9770   20.3860   32.5560 H   0  0  0  0  0  0  0  0  0  0  0  0
   37.3640   24.2160   31.2610 H   0  0  0  0  0  0  0  0  0  0  0  0
   40.4700   21.6340   35.1870 C   0  0  1  0  0  0  0  0  0  0  0  0
   40.6400   21.5530   33.7570 C   0  0  0  0  0  0  0  0  0  0  0  0
   41.6570   22.3230   34.5680 C   0  0  1  0  0  0  0  0  0  0  0  0
   40.6480   20.7240   35.8110 H   0  0  0  0  0  0  0  0  0  0  0  0
   41.0690   20.5850   33.3640 H   0  0  0  0  0  0  0  0  0  0  0  0
   40.0400   22.0360   32.9760 H   0  0  0  0  0  0  0  0  0  0  0  0
   42.6290   21.8550   34.8230 H   0  0  0  0  0  0  0  0  0  0  0  0
   41.6740   23.7300   34.3400 N   0  0  0  0  0  0  0  0  0  0  0  0
   41.0640   24.3210   33.3040 C   0  0  0  0  0  3  0  0  0  0  0  0
   41.0720   25.6800   33.0710 C   0  0  0  0  0  3  0  0  0  0  0  0
   41.7620   26.4930   33.9750 C   0  0  0  0  0  0  0  0  0  0  0  0
   41.8420   27.7400   33.8710 O   0  0  0  0  0  0  0  0  0  0  0  0
   42.3830   25.9110   35.0250 N   0  0  0  0  0  0  0  0  0  0  0  0
   42.3340   24.5620   35.1930 C   0  0  0  0  0  0  0  0  0  0  0  0
   42.9510   24.1080   36.2170 O   0  0  0  0  0  0  0  0  0  0  0  0
   42.9090   26.5030   35.7200 H   0  0  0  0  0  0  0  0  0  0  0  0
  1  5  1  0  0  0  0
  1  2  2  0  0  0  0
  2  3  1  0  0  0  0
  4  3  2  0  0  0  0
  4  7  1  0  0  0  0
  5  4  1  0  0  0  0
  6  2  1  0  0  0  0
  8  1  1  0  0  0  0
  9  8  1  0  0  0  0
  9 14  1  0  0  0  0
 10  9  2  0  0  0  0
 11 12  2  0  0  0  0
 11 10  1  0  0  0  0
 12 13  1  0  0  0  0
 13  8  2  0  0  0  0
 15 10  1  0  0  0  0
 16 12  1  0  0  0  0
 17 20  1  1  0  0  0
 17  5  1  0  0  0  0
 18 19  1  0  0  0  0
 18 17  1  0  0  0  0
 19 23  1  1  0  0  0
 19 17  1  0  0  0  0
 21 18  1  0  0  0  0
 22 18  1  0  0  0  0
 24 19  1  0  0  0  0
 24 30  1  0  0  0  0
 25 24  1  0  0  0  0
 26 25  2  0  0  0  0
 26 27  1  0  0  0  0
 27 29  1  0  0  0  0
 28 27  2  0  0  0  0
 29 30  1  0  0  0  0
 29 32  1  0  0  0  0
 30 31  2  0  0  0  0
M  END
>  <minimizedAffinity>
-3.70359445

>  <minimizedRMSD>
6.68384027

$$$$
