
 OpenBabel03262519113D

 24 26  0  0  0  0  0  0  0  0999 V2000
   38.0370   25.5270   35.2450 C   0  0  0  0  0  0  0  0  0  0  0  0
   37.6690   26.8480   35.5000 C   0  0  0  0  0  0  0  0  0  0  0  0
   37.1390   27.5770   34.4930 C   0  0  0  0  0  0  0  0  0  0  0  0
   36.9890   26.9530   33.2340 C   0  0  0  0  0  0  0  0  0  0  0  0
   37.6460   25.2230   33.5180 S   0  0  0  0  0  0  0  0  0  0  0  0
   37.8050   27.2780   36.4800 H   0  0  0  0  0  0  0  0  0  0  0  0
   36.8030   28.6000   34.5130 H   0  0  0  0  0  0  0  0  0  0  0  0
   38.0630   24.3270   37.4510 C   0  0  0  0  0  0  0  0  0  0  0  0
   38.6100   24.5930   36.1670 C   0  0  0  0  0  0  0  0  0  0  0  0
   39.7430   23.9290   35.7770 C   0  0  0  0  0  0  0  0  0  0  0  0
   40.2950   23.0410   36.6470 N   0  0  0  0  0  0  0  0  0  0  0  0
   39.7510   22.8000   37.8770 C   0  0  0  0  0  0  0  0  0  0  0  0
   38.6490   23.4470   38.2510 N   0  0  0  0  0  0  0  0  0  0  0  0
   37.1650   24.8630   37.7370 H   0  0  0  0  0  0  0  0  0  0  0  0
   40.2310   24.0690   34.8170 H   0  0  0  0  0  0  0  0  0  0  0  0
   40.2530   22.0780   38.5070 H   0  0  0  0  0  0  0  0  0  0  0  0
   36.4960   27.3660   31.9870 C   0  0  0  0  0  0  0  0  0  0  0  0
   35.8170   26.5930   31.3010 O   0  0  0  0  0  0  0  0  0  0  0  0
   36.7760   28.7100   31.4830 C   0  0  0  0  0  0  0  0  0  0  0  0
   36.9400   28.7870   29.9770 C   0  0  0  0  0  0  0  0  0  0  0  0
   37.6730   30.0840   29.7170 C   0  0  0  0  0  0  0  0  0  0  0  0
   36.9690   31.2810   30.2790 C   0  0  0  0  0  0  0  0  0  0  0  0
   36.3250   31.0900   31.6060 C   0  0  0  0  0  0  0  0  0  0  0  0
   35.7310   29.7300   31.8280 C   0  0  0  0  0  0  0  0  0  0  0  0
  1  2  2  0  0  0  0
  1  9  1  0  0  0  0
  2  6  1  0  0  0  0
  3  7  1  0  0  0  0
  3  2  1  0  0  0  0
  4  5  1  0  0  0  0
  4  3  2  0  0  0  0
  5  1  1  0  0  0  0
  8 14  1  0  0  0  0
  8 13  1  0  0  0  0
  9  8  2  0  0  0  0
 10  9  1  0  0  0  0
 10 11  2  0  0  0  0
 11 12  1  0  0  0  0
 12 13  2  0  0  0  0
 12 16  1  0  0  0  0
 15 10  1  0  0  0  0
 17  4  1  0  0  0  0
 18 17  2  0  0  0  0
 19 24  1  0  0  0  0
 19 17  1  0  0  0  0
 20 19  1  0  0  0  0
 21 20  1  0  0  0  0
 21 22  1  0  0  0  0
 22 23  1  0  0  0  0
 23 24  1  0  0  0  0
M  END
>  <minimizedAffinity>
-5.06123543

>  <minimizedRMSD>
0.423020452

$$$$
