
 OpenBabel03262519053D

 25 27  0  0  1  0  0  0  0  0999 V2000
   38.6380   25.6830   35.0870 C   0  0  2  0  0  0  0  0  0  0  0  0
   39.6530   26.7980   35.0770 C   0  0  0  0  0  0  0  0  0  0  0  0
   38.1900   27.0810   35.2580 C   0  0  1  0  0  0  0  0  0  0  0  0
   38.4810   25.1400   34.1240 H   0  0  0  0  0  0  0  0  0  0  0  0
   40.0180   27.0870   34.0700 H   0  0  0  0  0  0  0  0  0  0  0  0
   40.3840   26.9230   35.8670 H   0  0  0  0  0  0  0  0  0  0  0  0
   37.9710   27.3820   36.3240 H   0  0  0  0  0  0  0  0  0  0  0  0
   39.5880   22.9130   37.3150 C   0  0  0  0  0  0  0  0  0  0  0  0
   38.8100   23.1400   38.4760 C   0  0  0  0  0  0  0  0  0  0  0  0
   37.9660   24.2610   38.4510 C   0  0  0  0  0  0  0  0  0  0  0  0
   37.9430   25.0500   37.3380 N   0  0  0  0  0  0  0  0  0  0  0  0
   38.7210   24.7780   36.2440 C   0  0  0  0  0  0  0  0  0  0  0  0
   39.5380   23.7110   36.2410 N   0  0  0  0  0  0  0  0  0  0  0  0
   40.2290   22.0460   37.3580 H   0  0  0  0  0  0  0  0  0  0  0  0
   38.8390   22.5100   39.3410 H   0  0  0  0  0  0  0  0  0  0  0  0
   37.3290   24.5270   39.2840 H   0  0  0  0  0  0  0  0  0  0  0  0
   37.4150   27.7140   34.2460 N   0  0  0  0  0  0  0  0  0  0  0  0
   36.2670   28.3930   34.3650 C   0  0  0  0  0  0  0  0  0  0  0  0
   35.6140   28.9610   33.2860 C   0  0  0  0  0  0  0  0  0  0  0  0
   36.1640   28.8310   32.0160 C   0  0  0  0  0  0  0  0  0  0  0  0
   35.6130   29.3280   30.9980 O   0  0  0  0  0  0  0  0  0  0  0  0
   37.3250   28.1430   31.9060 N   0  0  0  0  0  0  0  0  0  0  0  0
   37.9190   27.6070   32.9900 C   0  0  0  0  0  0  0  0  0  0  0  0
   39.0070   26.9870   32.7410 O   0  0  0  0  0  0  0  0  0  0  0  0
   37.7370   28.0460   30.9450 H   0  0  0  0  0  0  0  0  0  0  0  0
  1  4  1  6  0  0  0
  1  3  1  0  0  0  0
  1 12  1  0  0  0  0
  2  1  1  0  0  0  0
  2  3  1  0  0  0  0
  2  6  1  0  0  0  0
  3  7  1  1  0  0  0
  5  2  1  0  0  0  0
  8 14  1  0  0  0  0
  8  9  1  0  0  0  0
  9 15  1  0  0  0  0
 10  9  2  0  0  0  0
 10 16  1  0  0  0  0
 11 10  1  0  0  0  0
 12 11  2  0  0  0  0
 13 12  1  0  0  0  0
 13  8  2  0  0  0  0
 17 18  1  0  0  0  0
 17  3  1  0  0  0  0
 19 18  2  0  0  0  0
 20 19  1  0  0  0  0
 21 20  2  0  0  0  0
 22 20  1  0  0  0  0
 22 23  1  0  0  0  0
 23 17  1  0  0  0  0
 24 23  2  0  0  0  0
 25 22  1  0  0  0  0
M  END
>  <minimizedAffinity>
-4.68364

>  <minimizedRMSD>
0.9858284

$$$$
