
 OpenBabel03262519553D

 33 36  0  0  1  0  0  0  0  0999 V2000
   37.2770   21.5510   34.0120 C   0  0  1  0  0  0  0  0  0  0  0  0
   36.0270   21.1810   34.6810 C   0  0  0  0  0  0  0  0  0  0  0  0
   36.0760   21.1300   33.1800 C   0  0  2  0  0  0  0  0  0  0  0  0
   38.1110   20.8160   33.9930 H   0  0  0  0  0  0  0  0  0  0  0  0
   36.0610   20.2800   35.3030 H   0  0  0  0  0  0  0  0  0  0  0  0
   35.4790   22.0110   35.1990 H   0  0  0  0  0  0  0  0  0  0  0  0
   35.4360   21.9300   32.7140 H   0  0  0  0  0  0  0  0  0  0  0  0
   36.0670   19.8720   32.4940 N   0  0  0  0  0  0  0  0  0  0  0  0
   35.5800   18.7080   32.9560 C   0  0  0  0  0  3  0  0  0  0  0  0
   35.6160   17.5430   32.2200 C   0  0  0  0  0  3  0  0  0  0  0  0
   36.1670   17.5350   30.9520 C   0  0  0  0  0  0  0  0  0  0  0  0
   36.2180   16.3480   30.1690 N   0  0  0  0  0  0  0  0  0  0  0  0
   36.6490   18.7130   30.5090 N   0  0  0  0  0  0  0  0  0  0  0  0
   36.5950   19.8280   31.2570 C   0  0  0  0  0  0  0  0  0  0  0  0
   37.1060   20.8080   30.6360 O   0  0  0  0  0  0  0  0  0  0  0  0
   36.5000   15.3810   30.4370 H   0  0  0  0  0  0  0  0  0  0  0  0
   35.9200   16.5090   29.1890 H   0  0  0  0  0  0  0  0  0  0  0  0
   38.1580   23.8590   34.5850 C   0  0  0  0  0  0  0  0  0  0  0  0
   38.3630   25.0610   33.9260 C   0  0  0  0  0  0  0  0  0  0  0  0
   37.9430   24.7980   32.6540 N   0  0  0  0  0  0  0  0  0  0  0  0
   37.5360   23.5470   32.6070 C   0  0  0  0  0  0  0  0  0  0  0  0
   37.6510   22.9240   33.7860 N   0  0  0  0  0  0  0  0  0  0  0  0
   38.7710   25.9690   34.3840 H   0  0  0  0  0  0  0  0  0  0  0  0
   37.1770   23.2270   31.6360 H   0  0  0  0  0  0  0  0  0  0  0  0
   38.4580   23.6250   35.9980 C   0  0  0  0  0  0  0  0  0  0  0  0
   39.6340   22.9980   36.3830 C   0  0  0  0  0  0  0  0  0  0  0  0
   39.9050   22.7800   37.7420 C   0  0  0  0  0  0  0  0  0  0  0  0
   38.9670   23.2140   38.6210 N   0  0  0  0  0  0  0  0  0  0  0  0
   37.8270   23.8230   38.2360 C   0  0  0  0  0  0  0  0  0  0  0  0
   37.5780   24.0260   36.9330 N   0  0  0  0  0  0  0  0  0  0  0  0
   40.3570   22.6660   35.6700 H   0  0  0  0  0  0  0  0  0  0  0  0
   40.7840   22.3080   38.1010 H   0  0  0  0  0  0  0  0  0  0  0  0
   37.0790   24.1700   38.9160 H   0  0  0  0  0  0  0  0  0  0  0  0
  1  4  1  1  0  0  0
  1  2  1  0  0  0  0
  2  6  1  0  0  0  0
  2  5  1  0  0  0  0
  3  7  1  6  0  0  0
  3  1  1  0  0  0  0
  3  2  1  0  0  0  0
  8  9  1  0  0  0  0
  8  3  1  0  0  0  0
 10  9  2  0  0  0  0
 11 10  1  0  0  0  0
 12 16  1  0  0  0  0
 12 11  1  0  0  0  0
 13 11  2  0  0  0  0
 13 14  1  0  0  0  0
 14  8  1  0  0  0  0
 15 14  2  0  0  0  0
 17 12  1  0  0  0  0
 18 25  1  0  0  0  0
 19 23  1  0  0  0  0
 19 18  2  0  0  0  0
 20 19  1  0  0  0  0
 21 20  2  0  0  0  0
 21 22  1  0  0  0  0
 22  1  1  0  0  0  0
 22 18  1  0  0  0  0
 24 21  1  0  0  0  0
 25 26  2  0  0  0  0
 25 30  1  0  0  0  0
 26 27  1  0  0  0  0
 27 32  1  0  0  0  0
 27 28  2  0  0  0  0
 29 28  1  0  0  0  0
 29 33  1  0  0  0  0
 30 29  2  0  0  0  0
 31 26  1  0  0  0  0
M  END
>  <minimizedAffinity>
-5.10160255

>  <minimizedRMSD>
0.912969232

$$$$
