
 OpenBabel03262518003D

 27 29  0  0  0  0  0  0  0  0999 V2000
   43.6540   19.7490   37.0930 C   0  0  0  0  0  0  0  0  0  0  0  0
   42.4640   20.4550   37.3030 C   0  0  0  0  0  0  0  0  0  0  0  0
   41.9600   21.2190   36.2430 C   0  0  0  0  0  0  0  0  0  0  0  0
   42.6690   21.2270   35.0560 N   0  0  0  0  0  0  0  0  0  0  0  0
   43.7960   20.5350   34.9100 C   0  0  0  0  0  0  0  0  0  0  0  0
   44.2960   19.7890   35.9350 N   0  0  0  0  0  0  0  0  0  0  0  0
   44.0890   19.1450   37.8690 H   0  0  0  0  0  0  0  0  0  0  0  0
   41.9560   20.4150   38.2410 H   0  0  0  0  0  0  0  0  0  0  0  0
   44.5400   20.5330   33.6930 N   0  0  0  0  0  0  0  0  0  0  0  0
   44.7680   19.4780   32.8890 C   0  0  0  0  0  0  0  0  0  0  0  0
   45.5100   19.6250   31.7370 C   0  0  0  0  0  0  0  0  0  0  0  0
   46.0510   20.8300   31.3420 C   0  0  0  0  0  0  0  0  0  0  0  0
   46.8120   20.9510   30.1460 N   0  0  0  0  0  0  0  0  0  0  0  0
   45.8060   21.8590   32.1630 N   0  0  0  0  0  0  0  0  0  0  0  0
   45.0820   21.7090   33.2860 C   0  0  0  0  0  0  0  0  0  0  0  0
   44.9690   22.8010   33.9170 O   0  0  0  0  0  0  0  0  0  0  0  0
   45.9700   21.1660   29.5350 H   0  0  0  0  0  0  0  0  0  0  0  0
   47.7290   20.7560   30.5920 H   0  0  0  0  0  0  0  0  0  0  0  0
   40.7300   21.9990   36.3880 C   0  0  0  0  0  0  0  0  0  0  0  0
   39.8090   22.4820   35.5170 N   0  0  0  0  0  0  0  0  0  0  0  0
   38.8990   23.1290   36.1820 O   0  0  0  0  0  0  0  0  0  0  0  0
   39.1830   23.0920   37.4770 C   0  0  0  0  0  0  0  0  0  0  0  0
   40.3110   22.3940   37.5880 N   0  0  0  0  0  0  0  0  0  0  0  0
   38.4120   23.6990   38.5740 C   0  0  0  0  0  0  0  0  0  0  0  0
   39.2540   23.8800   39.6710 F   0  0  0  0  0  0  0  0  0  0  0  0
   37.3660   22.8930   38.9660 F   0  0  0  0  0  0  0  0  0  0  0  0
   37.9660   24.9560   38.2120 F   0  0  0  0  0  0  0  0  0  0  0  0
  1  2  1  0  0  0  0
  1  7  1  0  0  0  0
  2  8  1  0  0  0  0
  3 19  1  0  0  0  0
  3  2  2  0  0  0  0
  4  3  1  0  0  0  0
  5  4  2  0  0  0  0
  5  6  1  0  0  0  0
  6  1  2  0  0  0  0
  9  5  1  0  0  0  0
 10  9  1  0  0  0  0
 11 10  2  0  0  0  0
 12 11  1  0  0  0  0
 12 14  2  0  0  0  0
 13 18  1  0  0  0  0
 13 12  1  0  0  0  0
 14 15  1  0  0  0  0
 15  9  1  0  0  0  0
 15 16  2  0  0  0  0
 17 13  1  0  0  0  0
 19 23  1  0  0  0  0
 20 21  1  0  0  0  0
 20 19  2  0  0  0  0
 21 22  1  0  0  0  0
 22 23  2  0  0  0  0
 22 24  1  0  0  0  0
 24 26  1  0  0  0  0
 24 25  1  0  0  0  0
 27 24  1  0  0  0  0
M  END
>  <minimizedAffinity>
-4.3646183

>  <minimizedRMSD>
0.222855076

$$$$
