
     RDKit          3D

 44 47  0  0  0  0  0  0  0  0999 V2000
   38.0857   25.7633   35.4184 C   0  0  1  0  0  0  0  0  0  0  0  0
   38.6362   23.3743   38.3033 C   0  0  0  0  0  0  0  0  0  0  0  0
   38.0433   24.4052   37.5607 C   0  0  0  0  0  0  0  0  0  0  0  0
   38.6373   24.7073   36.2930 C   0  0  0  0  0  0  0  0  0  0  0  0
   39.7418   23.9865   35.8675 N   0  0  0  0  0  0  0  0  0  0  0  0
   40.2664   23.0155   36.6131 C   0  0  0  0  0  0  0  0  0  0  0  0
   39.7060   22.7070   37.8450 N   0  0  0  0  0  0  0  0  0  0  0  0
   38.3428   27.1340   36.0342 C   0  0  0  0  0  0  0  0  0  0  0  0
   38.5871   25.7138   34.0234 C   0  0  0  0  0  0  0  0  0  0  0  0
   37.5814   25.4374   33.0710 N   0  0  0  0  0  0  0  0  0  0  0  0
   37.0556   24.3275   32.5442 C   0  0  0  0  0  0  0  0  0  0  0  0
   36.0544   24.5592   31.6339 C   0  0  0  0  0  0  0  0  0  0  0  0
   35.9563   25.8927   31.5960 N   0  0  0  0  0  0  0  0  0  0  0  0
   36.8738   26.4259   32.4588 C   0  0  0  0  0  0  0  0  0  0  0  0
   36.9848   27.9155   32.5776 C   0  0  1  0  0  0  0  0  0  0  0  0
   35.8556   28.7255   32.0691 C   0  0  0  0  0  0  0  0  0  0  0  0
   36.0656   28.5904   33.5579 C   0  0  2  0  0  0  0  0  0  0  0  0
   36.9707   25.6628   35.4184 H   0  0  0  0  0  0  0  0  0  0  0  0
   38.1805   23.1547   39.2580 H   0  0  0  0  0  0  0  0  0  0  0  0
   37.1823   24.9825   37.8683 H   0  0  0  0  0  0  0  0  0  0  0  0
   41.1247   22.4829   36.2408 H   0  0  0  0  0  0  0  0  0  0  0  0
   38.4863   26.9568   37.1210 H   0  0  0  0  0  0  0  0  0  0  0  0
   37.4723   27.8110   35.9691 H   0  0  0  0  0  0  0  0  0  0  0  0
   39.2930   27.5489   35.6665 H   0  0  0  0  0  0  0  0  0  0  0  0
   39.1107   26.6742   33.7840 H   0  0  0  0  0  0  0  0  0  0  0  0
   39.3833   24.9277   33.9026 H   0  0  0  0  0  0  0  0  0  0  0  0
   37.4332   23.3385   32.8520 H   0  0  0  0  0  0  0  0  0  0  0  0
   35.5406   23.7485   31.1302 H   0  0  0  0  0  0  0  0  0  0  0  0
   37.9897   28.2861   32.4204 H   0  0  0  0  0  0  0  0  0  0  0  0
   34.9086   28.2170   31.7226 H   0  0  0  0  0  0  0  0  0  0  0  0
   35.9954   29.6836   31.5657 H   0  0  0  0  0  0  0  0  0  0  0  0
   35.4222   27.9048   34.1352 H   0  0  0  0  0  0  0  0  0  0  0  0
   36.3661   29.8294   34.1878 N   0  0  0  0  0  0  0  0  0  0  0  0
   37.3583   29.6742   35.1171 C   0  0  0  0  0  0  0  0  0  0  0  0
   37.8201   30.7647   35.8647 C   0  0  0  0  0  0  0  0  0  0  0  0
   37.2476   31.9985   35.6387 C   0  0  0  0  0  0  0  0  0  0  0  0
   37.6245   33.1802   36.3278 N   0  0  0  0  0  0  0  0  0  0  0  0
   36.2815   32.1067   34.7222 N   0  0  0  0  0  0  0  0  0  0  0  0
   35.8593   31.0407   34.0200 C   0  0  0  0  0  0  0  0  0  0  0  0
   34.9692   31.1170   33.1693 O   0  0  0  0  0  0  0  0  0  0  0  0
   37.8765   28.7478   35.3733 H   0  0  0  0  0  0  0  0  0  0  0  0
   38.6022   30.6744   36.6058 H   0  0  0  0  0  0  0  0  0  0  0  0
   38.2205   33.9852   35.9723 H   0  0  0  0  0  0  0  0  0  0  0  0
   37.1505   33.0183   37.2603 H   0  0  0  0  0  0  0  0  0  0  0  0
  1  8  1  0
  1  4  1  0
  3  2  2  0
  4  3  1  0
  5  4  2  0
  5  6  1  0
  6  7  2  0
  7  2  1  0
  9  1  1  0
 10  9  1  0
 11 10  1  0
 12 11  2  0
 13 12  1  0
 13 14  2  0
 14 15  1  0
 14 10  1  0
 15 17  1  0
 16 15  1  0
 16 17  1  0
  1 18  1  6
  2 19  1  0
  3 20  1  0
  6 21  1  0
  8 22  1  0
  8 23  1  0
  8 24  1  0
  9 25  1  0
  9 26  1  0
 11 27  1  0
 12 28  1  0
 15 29  1  6
 16 30  1  0
 16 31  1  0
 17 32  1  1
 33 34  1  0
 34 35  2  0
 35 36  1  0
 36 37  1  0
 36 38  2  0
 38 39  1  0
 39 40  2  0
 39 33  1  0
 34 41  1  0
 35 42  1  0
 37 43  1  0
 37 44  1  0
 17 33  1  0
M  ISO  8  18   8  19  14  20  14  21  14  22   8  23   8  24   8  25   8
M  ISO  7  26   8  27  14  28  14  29  13  30  13  31  13  32  13
M  END
>  <DihAtoms>  (1) 
14,16,32,33

>  <DihDeg>  (1) 
153.4557815645364

$$$$
